data_FAYPAY_clean_PM
_symmetry_space_group_name_H-M	'P1'
_cell_length_a	21.317000
_cell_length_b	23.147900
_cell_length_c	38.658800
_cell_angle_alpha	79.568200
_cell_angle_beta	73.995800
_cell_angle_gamma	62.583700
_symmetry_Int_Tables_number 1

loop_
_symmetry_equiv_pos_as_xyz
'x,y,z'

loop_
_atom_site_label
_atom_site_type_symbol
_atom_site_fract_x
_atom_site_fract_y
_atom_site_fract_z
Zn11	Zn1	0.348840	0.484740	0.422200
Zn21	Zn2	0.306840	0.457940	0.517720
Zn31	Zn3	0.469270	0.327190	0.383310
Zn41	Zn4	0.437520	0.589510	0.397720
Zn51	Zn5	0.180340	0.559740	0.390260
Zn61	Zn6	0.744220	0.984740	0.922200
Zn71	Zn7	0.717500	0.957940	0.017720
Zn81	Zn8	0.820230	0.827190	0.883310
Zn91	Zn9	0.575250	0.089510	0.897720
Zn101	Zn10	0.869660	0.059740	0.890260
H11	H1	0.185100	0.489100	0.323100
H21	H2	0.223000	0.407700	0.284700
H31	H3	0.149800	0.714800	0.343800
H41	H4	0.228500	0.281900	0.889100
H51	H5	0.326100	0.310600	0.284600
H61	H6	0.164700	0.809300	0.323500
H71	H7	0.407800	0.297200	0.319600
H81	H8	0.262800	0.818600	0.332400
H91	H9	0.437800	0.177000	0.810400
H101	H10	0.345600	0.734100	0.361700
H111	H11	0.713300	0.444500	0.309100
H121	H12	0.335900	0.235300	0.788900
H131	H13	0.146100	0.439300	0.792300
H141	H14	0.104900	0.419300	0.829300
H151	H15	0.506800	0.135200	0.493400
H161	H16	0.451500	0.185600	0.547400
H171	H17	0.077500	0.400800	0.744200
H181	H18	0.142100	0.330900	0.737900
H191	H19	0.336400	0.221200	0.906400
H201	H20	0.070000	0.328400	0.834400
H211	H21	0.019500	0.373300	0.807900
H221	H22	0.178000	0.375800	0.619400
H231	H23	0.237000	0.326000	0.778000
H241	H24	0.212300	0.270000	0.783400
H251	H25	0.366000	0.529400	0.565000
H261	H26	0.087600	0.522300	0.833900
H271	H27	0.010600	0.130600	0.800600
H281	H28	0.072200	0.193700	0.772700
H291	H29	0.983200	0.304100	0.856700
H301	H30	0.140000	0.361900	0.680100
H311	H31	0.024900	0.620500	0.861500
H321	H32	0.291900	0.460600	0.633400
H331	H33	0.472600	0.641400	0.526800
H341	H34	0.420400	0.588900	0.573100
H351	H35	0.923400	0.567300	0.789700
H361	H36	0.377400	0.297700	0.551100
H371	H37	0.631600	0.314100	0.331700
H381	H38	0.921800	0.240900	0.883300
H391	H39	0.721000	0.345700	0.302900
H401	H40	0.607600	0.526100	0.340500
H411	H41	0.859200	0.669000	0.815000
H421	H42	0.505600	0.199400	0.440800
H431	H43	0.474800	0.632200	0.466600
H441	H44	0.253300	0.450100	0.695900
H451	H45	0.029700	0.605100	0.452500
H461	H46	0.953000	0.616000	0.509200
H471	H47	0.001000	0.575300	0.560300
H481	H48	0.125600	0.524000	0.554600
H491	H49	0.002700	0.989100	0.823100
H501	H50	0.084600	0.907700	0.784700
H511	H51	0.791600	0.214800	0.843800
H521	H52	0.600500	0.781900	0.389100
H531	H53	0.078700	0.810600	0.784600
H541	H54	0.702500	0.309300	0.823500
H551	H55	0.975400	0.797200	0.819600
H561	H56	0.586200	0.318600	0.832400
H571	H57	0.574800	0.677000	0.310400
H581	H58	0.558600	0.234100	0.861700
H591	H59	0.533100	0.944500	0.809100
H601	H60	0.639900	0.735300	0.288900
H611	H61	0.622300	0.939300	0.292300
H621	H62	0.646500	0.919300	0.329300
H631	H63	0.864600	0.635200	0.993400
H641	H64	0.815500	0.685600	0.047400
H651	H65	0.777500	0.900800	0.244200
H661	H66	0.789100	0.830900	0.237900
H671	H67	0.536000	0.721200	0.406400
H681	H68	0.767200	0.828400	0.334400
H691	H69	0.799300	0.873300	0.307900
H701	H70	0.826800	0.875800	0.119400
H711	H71	0.659000	0.826000	0.278000
H721	H72	0.734300	0.770000	0.283400
H731	H73	0.539600	0.029400	0.065000
H741	H74	0.556200	0.022300	0.333900
H751	H75	0.058200	0.630600	0.300600
H761	H76	0.961400	0.693700	0.272700
H771	H77	0.856000	0.804100	0.356700
H781	H78	0.818000	0.861900	0.180100
H791	H79	0.493100	0.120500	0.361500
H801	H80	0.614100	0.960600	0.133400
H811	H81	0.359200	0.141400	0.026800
H821	H82	0.417600	0.088900	0.073100
H831	H83	0.719600	0.067300	0.289700
H841	H84	0.773800	0.797700	0.051100
H851	H85	0.722600	0.814100	0.831700
H861	H86	0.954000	0.740900	0.383300
H871	H87	0.630400	0.845700	0.802900
H881	H88	0.525800	0.026100	0.840500
H891	H89	0.656800	0.169000	0.315000
H901	H90	0.854200	0.699400	0.940800
H911	H91	0.426400	0.132200	0.966600
H921	H92	0.600700	0.950100	0.195900
H931	H93	0.912700	0.105100	0.952500
H941	H94	0.921800	0.116000	0.009200
H951	H95	0.863400	0.075300	0.060300
H961	H96	0.795800	0.024000	0.054600
C11	C1	0.125490	0.361360	0.788460
C21	C2	0.228200	0.451270	0.322930
C31	C3	0.299850	0.672900	0.369800
C41	C4	0.251700	0.401700	0.300500
C51	C5	0.239080	0.667440	0.364800
C61	C6	0.189170	0.718450	0.347350
C71	C7	0.270890	0.261070	0.872150
C81	C8	0.315700	0.342800	0.299400
C91	C9	0.198060	0.775080	0.335200
C101	C10	0.363400	0.333500	0.320900
C111	C11	0.274900	0.439410	0.345390
C121	C12	0.256900	0.780690	0.340510
C131	C13	0.394860	0.199380	0.826700
C141	C14	0.306810	0.729640	0.357960
C151	C15	0.673600	0.435840	0.320360
C161	C16	0.334320	0.233460	0.813300
C171	C17	0.107890	0.425740	0.803500
C181	C18	0.482360	0.180280	0.493600
C191	C19	0.446300	0.211700	0.526100
C201	C20	0.933200	0.658280	0.841720
C211	C21	0.126030	0.372180	0.747880
C221	C22	0.336500	0.224800	0.882000
C231	C23	0.558100	0.463670	0.356930
C241	C24	0.390150	0.543660	0.509640
C251	C25	0.191180	0.405410	0.693430
C261	C26	0.067220	0.338720	0.809240
C271	C27	0.193260	0.390560	0.634920
C281	C28	0.270940	0.264850	0.837270
C291	C29	0.201430	0.311030	0.792130
C301	C30	0.008860	0.533800	0.811080
C311	C31	0.387850	0.549100	0.545600
C321	C32	0.238050	0.419290	0.621010
C331	C33	0.263330	0.425080	0.580260
C341	C34	0.421260	0.575600	0.481080
C351	C35	0.040990	0.550540	0.830880
C361	C36	0.567800	0.400630	0.353370
C371	C37	0.921000	0.138100	0.864100
C381	C38	0.894490	0.724250	0.858370
C391	C39	0.004730	0.165030	0.812310
C401	C40	0.959300	0.178900	0.845700
C411	C41	0.042610	0.202700	0.795680
C421	C42	0.989990	0.268900	0.845320
C431	C43	0.467300	0.153700	0.874700
C441	C44	0.170090	0.382690	0.670930
C451	C45	0.003180	0.610960	0.846880
C461	C46	0.404300	0.313400	0.495200
C471	C47	0.260570	0.441200	0.643260
C481	C48	0.452090	0.616990	0.521630
C491	C49	0.419660	0.584970	0.549710
C501	C50	0.943600	0.577970	0.804630
C511	C51	0.403290	0.278540	0.529280
C521	C52	0.627090	0.355310	0.333710
C531	C53	0.953070	0.230400	0.860860
C541	C54	0.679010	0.374780	0.317200
C551	C55	0.612350	0.484460	0.339440
C561	C56	0.398390	0.195320	0.859900
C571	C57	0.904200	0.640520	0.819880
C581	C58	0.480100	0.218370	0.462630
C591	C59	0.339600	0.382910	0.344690
C601	C60	0.440210	0.285680	0.462900
C611	C61	0.453340	0.612040	0.485880
C621	C62	0.036640	0.251810	0.812510
C631	C63	0.238100	0.435170	0.680430
C641	C64	0.152280	0.533730	0.500190
C651	C65	0.123560	0.558080	0.469600
C661	C66	0.048860	0.588890	0.472990
C671	C67	0.002970	0.595340	0.506960
C681	C68	0.031730	0.570990	0.537550
C691	C69	0.106420	0.540200	0.534160
C701	C70	0.724690	0.861360	0.288460
C711	C71	0.997600	0.951270	0.822930
C721	C72	0.657450	0.172900	0.869800
C731	C73	0.046100	0.901700	0.800500
C741	C74	0.728680	0.167440	0.864800
C751	C75	0.745030	0.218450	0.847350
C761	C76	0.595890	0.761070	0.372150
C771	C77	0.042100	0.842800	0.799400
C781	C78	0.691660	0.275080	0.835200
C791	C79	0.982200	0.833500	0.820900
C801	C80	0.940300	0.939410	0.845390
C811	C81	0.621900	0.280690	0.840510
C821	C82	0.579060	0.699380	0.326700
C831	C83	0.605590	0.229640	0.857960
C841	C84	0.570200	0.935840	0.820360
C851	C85	0.618920	0.733460	0.313300
C861	C86	0.662870	0.925740	0.303500
C871	C87	0.843760	0.680280	0.993600
C881	C88	0.815900	0.711700	0.026100
C891	C89	0.566800	0.158280	0.341720
C901	C90	0.753910	0.872180	0.247880
C911	C91	0.556700	0.724800	0.382000
C921	C92	0.621300	0.963670	0.856930
C931	C93	0.556550	0.043660	0.009640
C941	C94	0.709980	0.905410	0.193430
C951	C95	0.784820	0.838720	0.309240
C961	C96	0.781260	0.890560	0.134920
C971	C97	0.626940	0.764850	0.337270
C981	C98	0.695410	0.811030	0.292130
C991	C99	0.646260	0.033800	0.311080
C1001	C100	0.517450	0.049100	0.045600
C1011	C101	0.721650	0.919290	0.121010
C1021	C102	0.731330	0.925080	0.080260
C1031	C103	0.522060	0.075600	0.981080
C1041	C104	0.577590	0.050540	0.330880
C1051	C105	0.678200	0.900630	0.853370
C1061	C106	0.076800	0.638100	0.364100
C1071	C107	0.522890	0.224250	0.358370
C1081	C108	0.017930	0.665030	0.312310
C1091	C109	0.016100	0.678900	0.345700
C1101	C110	0.959010	0.702700	0.295680
C1111	C111	0.895790	0.768900	0.345320
C1121	C112	0.504300	0.653700	0.374700
C1131	C113	0.776290	0.882690	0.170930
C1141	C114	0.538980	0.110960	0.346880
C1151	C115	0.787100	0.813400	0.995200
C1161	C116	0.654970	0.941200	0.143260
C1171	C117	0.409290	0.116990	0.021630
C1181	C118	0.445660	0.084970	0.049710
C1191	C119	0.673800	0.077970	0.304630
C1201	C120	0.788890	0.778540	0.029280
C1211	C121	0.683890	0.855310	0.833710
C1221	C122	0.955670	0.730400	0.360860
C1231	C123	0.629010	0.874780	0.817200
C1241	C124	0.563750	0.984460	0.839440
C1251	C125	0.546390	0.695320	0.359900
C1261	C126	0.635400	0.140520	0.319880
C1271	C127	0.838900	0.718370	0.962630
C1281	C128	0.932800	0.882910	0.844690
C1291	C129	0.811210	0.785680	0.962900
C1301	C130	0.448740	0.112040	0.985880
C1311	C131	0.899040	0.751810	0.312510
C1321	C132	0.646300	0.935170	0.180430
C1331	C133	0.813800	0.033730	0.000190
C1341	C134	0.848760	0.058080	0.969600
C1351	C135	0.889260	0.088890	0.972990
C1361	C136	0.894730	0.095340	0.006960
C1371	C137	0.859730	0.070990	0.037550
C1381	C138	0.819220	0.040200	0.034160
N11	N1	0.181030	0.545150	0.442790
N21	N2	0.362870	0.512730	0.495570
N31	N3	0.240880	0.512060	0.456680
N41	N4	0.225420	0.504260	0.492300
N51	N5	0.377100	0.524360	0.459480
N61	N6	0.412500	0.561080	0.450260
N71	N7	0.491800	0.499190	0.378410
N81	N8	0.460880	0.458620	0.387540
N91	N9	0.504280	0.399070	0.373170
N101	N10	0.373010	0.386000	0.368980
N111	N11	0.327820	0.442290	0.383870
N121	N12	0.267540	0.475230	0.370690
N131	N13	0.245710	0.609250	0.381730
N141	N14	0.309390	0.580820	0.392800
N151	N15	0.342830	0.618420	0.385520
N161	N16	0.370440	0.378600	0.488020
N171	N17	0.389330	0.386930	0.452610
N181	N18	0.430750	0.331660	0.437000
N191	N19	0.831030	0.045150	0.942790
N201	N20	0.628830	0.012730	0.995570
N211	N21	0.790380	0.012060	0.956680
N221	N22	0.778020	0.004260	0.992300
N231	N23	0.639060	0.024360	0.959480
N241	N24	0.576160	0.061080	0.950260
N251	N25	0.630600	0.999190	0.878410
N261	N26	0.692960	0.958620	0.887540
N271	N27	0.723480	0.899070	0.873170
N281	N28	0.872010	0.886000	0.868980
N291	N29	0.846020	0.942290	0.883870
N301	N30	0.886540	0.975230	0.870690
N311	N31	0.763310	0.109250	0.881730
N321	N32	0.716990	0.080820	0.892800
N331	N33	0.653230	0.118420	0.885520
N341	N34	0.762940	0.878600	0.988020
N351	N35	0.771130	0.886930	0.952610
N361	N36	0.800590	0.831660	0.937000
O11	O1	0.926040	0.093970	0.846150
O21	O2	0.885390	0.147460	0.893360
O31	O3	0.246680	0.402400	0.561040
O41	O4	0.299300	0.459190	0.569030
O51	O5	0.470380	0.149730	0.903310
O61	O6	0.522500	0.135620	0.850180
O71	O7	0.920760	0.732550	0.879530
O81	O8	0.841400	0.763560	0.848840
O91	O9	0.039690	0.475730	0.796150
O101	O10	0.173680	0.400760	0.730500
O111	O11	0.203780	0.302590	0.828490
O121	O12	0.079090	0.282070	0.793550
O131	O13	0.133840	0.593970	0.346150
O141	O14	0.073790	0.647460	0.393360
O151	O15	0.789880	0.902400	0.061040
O161	O16	0.672480	0.959190	0.069030
O171	O17	0.476580	0.649730	0.403310
O181	O18	0.491700	0.635620	0.350180
O191	O19	0.467160	0.232550	0.379530
O201	O20	0.546200	0.263560	0.348840
O211	O21	0.688430	0.975730	0.296150
O221	O22	0.695060	0.900760	0.230500
O231	O23	0.665140	0.802590	0.328490
O241	O24	0.845290	0.782070	0.293550
Zn111	Zn11	0.255780	0.015260	0.077800
Zn121	Zn12	0.282500	0.042060	0.982280
Zn131	Zn13	0.179770	0.172810	0.116690
Zn141	Zn14	0.424750	0.910490	0.102280
Zn151	Zn15	0.130340	0.940260	0.109740
Zn161	Zn16	0.651160	0.515260	0.577800
Zn171	Zn17	0.693160	0.542060	0.482280
Zn181	Zn18	0.530730	0.672810	0.616690
Zn191	Zn19	0.562480	0.410490	0.602280
Zn201	Zn20	0.819660	0.440260	0.609740
H971	H97	0.997300	0.010900	0.176900
H981	H98	0.915400	0.092300	0.215300
H991	H99	0.208400	0.785200	0.156200
H1001	H100	0.399500	0.218100	0.610900
H1011	H101	0.921300	0.189400	0.215400
H1021	H102	0.297500	0.690700	0.176500
H1031	H103	0.024600	0.202800	0.180400
H1041	H104	0.413800	0.681400	0.167600
H1051	H105	0.425200	0.323000	0.689600
H1061	H106	0.441400	0.765900	0.138300
H1071	H107	0.466900	0.055500	0.190900
H1081	H108	0.360100	0.264700	0.711100
H1091	H109	0.377700	0.060700	0.707700
H1101	H110	0.353500	0.080700	0.670700
H1111	H111	0.135400	0.364800	0.006600
H1121	H112	0.184500	0.314400	0.952600
H1131	H113	0.222500	0.099200	0.755800
H1141	H114	0.210900	0.169100	0.762100
H1151	H115	0.464000	0.278800	0.593600
H1161	H116	0.232800	0.171600	0.665600
H1171	H117	0.200700	0.126700	0.692100
H1181	H118	0.173200	0.124200	0.880600
H1191	H119	0.341000	0.174000	0.722000
H1201	H120	0.265700	0.230000	0.716600
H1211	H121	0.460400	0.970600	0.935000
H1221	H122	0.443800	0.977700	0.666100
H1231	H123	0.941800	0.369400	0.699400
H1241	H124	0.038600	0.306300	0.727300
H1251	H125	0.144000	0.195900	0.643300
H1261	H126	0.182000	0.138100	0.819900
H1271	H127	0.506900	0.879500	0.638500
H1281	H128	0.385900	0.039400	0.866600
H1291	H129	0.640800	0.858600	0.973200
H1301	H130	0.582400	0.911100	0.926900
H1311	H131	0.280400	0.932700	0.710300
H1321	H132	0.226200	0.202300	0.948900
H1331	H133	0.277400	0.185900	0.168300
H1341	H134	0.046000	0.259100	0.616700
H1351	H135	0.369600	0.154300	0.197100
H1361	H136	0.474200	0.973900	0.159500
H1371	H137	0.343200	0.831000	0.685000
H1381	H138	0.145800	0.300600	0.059200
H1391	H139	0.573600	0.867800	0.033400
H1401	H140	0.399300	0.049900	0.804100
H1411	H141	0.087300	0.894900	0.047500
H1421	H142	0.078200	0.884000	0.990800
H1431	H143	0.136600	0.924700	0.939700
H1441	H144	0.204200	0.976000	0.945400
H1451	H145	0.814900	0.510900	0.676900
H1461	H146	0.777000	0.592300	0.715300
H1471	H147	0.850200	0.285200	0.656200
H1481	H148	0.771500	0.718100	0.110900
H1491	H149	0.673900	0.689400	0.715400
H1501	H150	0.835300	0.190700	0.676500
H1511	H151	0.592200	0.702800	0.680400
H1521	H152	0.737200	0.181400	0.667600
H1531	H153	0.562200	0.823000	0.189600
H1541	H154	0.654400	0.265900	0.638300
H1551	H155	0.286700	0.555500	0.690900
H1561	H156	0.664100	0.764700	0.211100
H1571	H157	0.853900	0.560700	0.207700
H1581	H158	0.895100	0.580700	0.170700
H1591	H159	0.493200	0.864800	0.506600
H1601	H160	0.548500	0.814400	0.452600
H1611	H161	0.922500	0.599200	0.255800
H1621	H162	0.857900	0.669100	0.262100
H1631	H163	0.663600	0.778800	0.093600
H1641	H164	0.930000	0.671600	0.165600
H1651	H165	0.980500	0.626700	0.192100
H1661	H166	0.822000	0.624200	0.380600
H1671	H167	0.763000	0.674000	0.222000
H1681	H168	0.787700	0.730000	0.216600
H1691	H169	0.634000	0.470600	0.435000
H1701	H170	0.912400	0.477700	0.166100
H1711	H171	0.989400	0.869400	0.199400
H1721	H172	0.927800	0.806300	0.227300
H1731	H173	0.016800	0.695900	0.143300
H1741	H174	0.860000	0.638100	0.319900
H1751	H175	0.975100	0.379500	0.138500
H1761	H176	0.708100	0.539400	0.366600
H1771	H177	0.527400	0.358600	0.473200
H1781	H178	0.579600	0.411100	0.426900
H1791	H179	0.076600	0.432700	0.210300
H1801	H180	0.622600	0.702300	0.448900
H1811	H181	0.368400	0.685900	0.668300
H1821	H182	0.078200	0.759100	0.116700
H1831	H183	0.279000	0.654300	0.697100
H1841	H184	0.392400	0.473900	0.659500
H1851	H185	0.140800	0.331000	0.185000
H1861	H186	0.494400	0.800600	0.559200
H1871	H187	0.525200	0.367800	0.533400
H1881	H188	0.746700	0.549900	0.304100
H1891	H189	0.970300	0.394900	0.547500
H1901	H190	0.047000	0.384000	0.490800
H1911	H191	0.999000	0.424700	0.439700
H1921	H192	0.874400	0.476000	0.445400
C1391	C139	0.275310	0.138640	0.711540
C1401	C140	0.002400	0.048730	0.177070
C1411	C141	0.342550	0.827100	0.130200
C1421	C142	0.953900	0.098300	0.199500
C1431	C143	0.271320	0.832560	0.135200
C1441	C144	0.254970	0.781550	0.152650
C1451	C145	0.404110	0.238930	0.627850
C1461	C146	0.957900	0.157200	0.200600
C1471	C147	0.308340	0.724920	0.164800
C1481	C148	0.017800	0.166500	0.179100
C1491	C149	0.059700	0.060590	0.154610
C1501	C150	0.378100	0.719310	0.159490
C1511	C151	0.420940	0.300620	0.673300
C1521	C152	0.394410	0.770360	0.142040
C1531	C153	0.429800	0.064160	0.179640
C1541	C154	0.381080	0.266540	0.686700
C1551	C155	0.337130	0.074260	0.696500
C1561	C156	0.156240	0.319720	0.006400
C1571	C157	0.184100	0.288300	0.973900
C1581	C158	0.433200	0.841720	0.658280
C1591	C159	0.246090	0.127820	0.752120
C1601	C160	0.443300	0.275200	0.618000
C1611	C161	0.378700	0.036330	0.143070
C1621	C162	0.443450	0.956340	0.990360
C1631	C163	0.290020	0.094590	0.806570
C1641	C164	0.215180	0.161280	0.690760
C1651	C165	0.218740	0.109440	0.865080
C1661	C166	0.373060	0.235150	0.662730
C1671	C167	0.304590	0.188970	0.707870
C1681	C168	0.353740	0.966200	0.688920
C1691	C169	0.482550	0.950900	0.954400
C1701	C170	0.278350	0.080710	0.878990
C1711	C171	0.268670	0.074920	0.919740
C1721	C172	0.477940	0.924400	0.018920
C1731	C173	0.422410	0.949460	0.669120
C1741	C174	0.321800	0.099370	0.146630
C1751	C175	0.923200	0.361900	0.635900
C1761	C176	0.477110	0.775750	0.641630
C1771	C177	0.982070	0.334970	0.687690
C1781	C178	0.983900	0.321100	0.654300
C1791	C179	0.040990	0.297300	0.704320
C1801	C180	0.104210	0.231100	0.654680
C1811	C181	0.495700	0.346300	0.625300
C1821	C182	0.223710	0.117310	0.829070
C1831	C183	0.461020	0.889040	0.653120
C1841	C184	0.212900	0.186600	0.004800
C1851	C185	0.345030	0.058800	0.856740
C1861	C186	0.590710	0.883010	0.978370
C1871	C187	0.554340	0.915030	0.950290
C1881	C188	0.326200	0.922030	0.695370
C1891	C189	0.211110	0.221460	0.970720
C1901	C190	0.316110	0.144690	0.166290
C1911	C191	0.044330	0.269600	0.639140
C1921	C192	0.370990	0.125220	0.182800
C1931	C193	0.436250	0.015540	0.160560
C1941	C194	0.453610	0.304680	0.640100
C1951	C195	0.364600	0.859480	0.680120
C1961	C196	0.161100	0.281630	0.037370
C1971	C197	0.067200	0.117090	0.155310
C1981	C198	0.188790	0.214320	0.037100
C1991	C199	0.551260	0.887960	0.014120
C2001	C200	0.100960	0.248190	0.687490
C2011	C201	0.353700	0.064830	0.819570
C2021	C202	0.186200	0.966270	0.999810
C2031	C203	0.151240	0.941920	0.030400
C2041	C204	0.110740	0.911110	0.027010
C2051	C205	0.105270	0.904660	0.993040
C2061	C206	0.140270	0.929010	0.962450
C2071	C207	0.180780	0.959800	0.965840
C2081	C208	0.874510	0.638640	0.211540
C2091	C209	0.771800	0.548730	0.677070
C2101	C210	0.700150	0.327100	0.630200
C2111	C211	0.748300	0.598300	0.699500
C2121	C212	0.760920	0.332560	0.635200
C2131	C213	0.810830	0.281550	0.652650
C2141	C214	0.729110	0.738930	0.127850
C2151	C215	0.684300	0.657200	0.700600
C2161	C216	0.801940	0.224920	0.664800
C2171	C217	0.636600	0.666500	0.679100
C2181	C218	0.725100	0.560590	0.654610
C2191	C219	0.743100	0.219310	0.659490
C2201	C220	0.605140	0.800620	0.173300
C2211	C221	0.693190	0.270360	0.642040
C2221	C222	0.326400	0.564160	0.679640
C2231	C223	0.665680	0.766540	0.186700
C2241	C224	0.892110	0.574260	0.196500
C2251	C225	0.517640	0.819720	0.506400
C2261	C226	0.553700	0.788300	0.473900
C2271	C227	0.066800	0.341720	0.158280
C2281	C228	0.873970	0.627820	0.252120
C2291	C229	0.663500	0.775200	0.118000
C2301	C230	0.441900	0.536330	0.643070
C2311	C231	0.609850	0.456340	0.490360
C2321	C232	0.808820	0.594590	0.306570
C2331	C233	0.932780	0.661280	0.190760
C2341	C234	0.806740	0.609440	0.365080
C2351	C235	0.729060	0.735150	0.162730
C2361	C236	0.798570	0.688970	0.207870
C2371	C237	0.991140	0.466200	0.188920
C2381	C238	0.612150	0.450900	0.454400
C2391	C239	0.761950	0.580710	0.378990
C2401	C240	0.736670	0.574920	0.419740
C2411	C241	0.578740	0.424400	0.518920
C2421	C242	0.959010	0.449460	0.169120
C2431	C243	0.432200	0.599370	0.646630
C2441	C244	0.079000	0.861900	0.135900
C2451	C245	0.105510	0.275750	0.141630
C2461	C246	0.995270	0.834970	0.187690
C2471	C247	0.040700	0.821100	0.154300
C2481	C248	0.957390	0.797300	0.204320
C2491	C249	0.010010	0.731100	0.154680
C2501	C250	0.532700	0.846300	0.125300
C2511	C251	0.829910	0.617310	0.329070
C2521	C252	0.996820	0.389040	0.153120
C2531	C253	0.595700	0.686600	0.504800
C2541	C254	0.739430	0.558800	0.356740
C2551	C255	0.547910	0.383010	0.478370
C2561	C256	0.580340	0.415030	0.450290
C2571	C257	0.056400	0.422030	0.195370
C2581	C258	0.596710	0.721460	0.470720
C2591	C259	0.372910	0.644690	0.666290
C2601	C260	0.046930	0.769600	0.139140
C2611	C261	0.320990	0.625220	0.682800
C2621	C262	0.387650	0.515540	0.660560
C2631	C263	0.601610	0.804680	0.140100
C2641	C264	0.095800	0.359480	0.180120
C2651	C265	0.519900	0.781630	0.537370
C2661	C266	0.660400	0.617090	0.655310
C2671	C267	0.559790	0.714320	0.537100
C2681	C268	0.546660	0.387960	0.514120
C2691	C269	0.963360	0.748190	0.187490
C2701	C270	0.761900	0.564830	0.319570
C2711	C271	0.847720	0.466270	0.499810
C2721	C272	0.876440	0.441920	0.530400
C2731	C273	0.951140	0.411110	0.527010
C2741	C274	0.997030	0.404660	0.493040
C2751	C275	0.968270	0.429010	0.462450
C2761	C276	0.893580	0.459800	0.465840
N371	N37	0.168970	0.954850	0.057210
N381	N38	0.371170	0.987270	0.004430
N391	N39	0.209620	0.987940	0.043320
N401	N40	0.221980	0.995740	0.007700
N411	N41	0.360940	0.975640	0.040520
N421	N42	0.423840	0.938920	0.049740
N431	N43	0.369400	0.000810	0.121590
N441	N44	0.307040	0.041380	0.112460
N451	N45	0.276520	0.100930	0.126830
N461	N46	0.127990	0.114000	0.131020
N471	N47	0.153980	0.057710	0.116130
N481	N48	0.113460	0.024770	0.129310
N491	N49	0.236690	0.890750	0.118270
N501	N50	0.283010	0.919180	0.107200
N511	N51	0.346770	0.881580	0.114480
N521	N52	0.237060	0.121400	0.011980
N531	N53	0.228870	0.113070	0.047390
N541	N54	0.199410	0.168340	0.063000
N551	N55	0.818970	0.454850	0.557210
N561	N56	0.637130	0.487270	0.504430
N571	N57	0.759120	0.487940	0.543320
N581	N58	0.774580	0.495740	0.507700
N591	N59	0.622900	0.475640	0.540520
N601	N60	0.587500	0.438920	0.549740
N611	N61	0.508200	0.500810	0.621590
N621	N62	0.539120	0.541380	0.612460
N631	N63	0.495720	0.600930	0.626830
N641	N64	0.626990	0.614000	0.631020
N651	N65	0.672180	0.557710	0.616130
N661	N66	0.732460	0.524770	0.629310
N671	N67	0.754290	0.390750	0.618270
N681	N68	0.690610	0.419180	0.607200
N691	N69	0.657170	0.381580	0.614480
N701	N70	0.629560	0.621400	0.511980
N711	N71	0.610670	0.613070	0.547390
N721	N72	0.569250	0.668340	0.563000
O251	O25	0.866160	0.406030	0.653850
O261	O26	0.926210	0.352540	0.606640
O271	O27	0.210120	0.097600	0.938960
O281	O28	0.327520	0.040810	0.930970
O291	O29	0.523420	0.350270	0.596690
O301	O30	0.508300	0.364380	0.649820
O311	O31	0.532840	0.767450	0.620470
O321	O32	0.453800	0.736440	0.651160
O331	O33	0.311570	0.024270	0.703850
O341	O34	0.304940	0.099240	0.769500
O351	O35	0.334860	0.197410	0.671510
O361	O36	0.154710	0.217930	0.706450
O371	O37	0.073960	0.906030	0.153850
O381	O38	0.114610	0.852540	0.106640
O391	O39	0.753320	0.597600	0.438960
O401	O40	0.700700	0.540810	0.430970
O411	O41	0.529620	0.850270	0.096690
O421	O42	0.477500	0.864380	0.149820
O431	O43	0.079240	0.267450	0.120470
O441	O44	0.158600	0.236440	0.151160
O451	O45	0.960310	0.524270	0.203850
O461	O46	0.826320	0.599240	0.269500
O471	O47	0.796220	0.697410	0.171510
O481	O48	0.920910	0.717930	0.206450
