data_FAYPEC_clean_PM
_symmetry_space_group_name_H-M	'P1'
_cell_length_a	20.373000
_cell_length_b	23.788400
_cell_length_c	38.344700
_cell_angle_alpha	81.539100
_cell_angle_beta	74.594000
_cell_angle_gamma	64.645700
_symmetry_Int_Tables_number 1

loop_
_symmetry_equiv_pos_as_xyz
'x,y,z'

loop_
_atom_site_label
_atom_site_type_symbol
_atom_site_fract_x
_atom_site_fract_y
_atom_site_fract_z
Zn11	Zn1	0.811340	0.844100	0.860280
Zn21	Zn2	0.718800	0.754990	0.842650
Zn31	Zn3	0.519050	0.842210	0.866230
Zn41	Zn4	0.770030	0.724680	0.747780
Zn51	Zn5	0.769830	0.609320	0.896960
Zn61	Zn6	0.484280	0.344100	0.360280
Zn71	Zn7	0.683560	0.254990	0.342650
Zn81	Zn8	0.772510	0.342210	0.366230
Zn91	Zn9	0.757510	0.224680	0.247780
Zn101	Zn10	0.723890	0.109320	0.396960
H11	H1	0.742600	0.215500	0.138300
H21	H2	0.420900	0.871100	0.797900
H31	H3	0.952300	0.424600	0.930400
H41	H4	0.915100	0.988400	0.848000
H51	H5	0.763600	0.412200	0.926200
H61	H6	0.997400	0.796700	0.649900
H71	H7	0.010400	0.853700	0.657500
H81	H8	0.065400	0.786000	0.665800
H91	H9	0.003600	0.321100	0.947300
H101	H10	0.461200	0.991400	0.890600
H111	H11	0.454100	0.135100	0.914300
H121	H12	0.418900	0.119800	0.887200
H131	H13	0.407200	0.095200	0.927600
H141	H14	0.814700	0.307200	0.941800
H151	H15	0.324300	0.736300	0.967500
H161	H16	0.349600	0.664300	0.966100
H171	H17	0.356800	0.691900	0.998900
H181	H18	0.700200	0.990200	0.887200
H191	H19	0.173100	0.096800	0.908400
H201	H20	0.874200	0.107700	0.981300
H211	H21	0.952400	0.051000	0.979000
H221	H22	0.907200	0.771100	0.695900
H231	H23	0.960200	0.144900	0.134500
H241	H24	0.871800	0.014100	0.971500
H251	H25	0.988500	0.129800	0.074200
H261	H26	0.864200	0.216700	0.972700
H271	H27	0.907800	0.200000	0.932400
H281	H28	0.065700	0.141400	0.950400
H291	H29	0.041900	0.119600	0.920800
H301	H30	0.419200	0.771400	0.926200
H311	H31	0.613700	0.581700	0.950700
H321	H32	0.038200	0.887800	0.744600
H331	H33	0.083800	0.845200	0.711400
H341	H34	0.019700	0.910400	0.706400
H351	H35	0.946600	0.059600	0.867600
H361	H36	0.624400	0.778200	0.701000
H371	H37	0.944800	0.866800	0.784200
H381	H38	0.768600	0.205900	0.074100
H391	H39	0.838600	0.943800	0.951800
H401	H40	0.879000	0.376000	0.827800
H411	H41	0.830800	0.384000	0.800200
H421	H42	0.916500	0.367100	0.786500
H431	H43	0.858300	0.477900	0.704300
H441	H44	0.916100	0.418100	0.720100
H451	H45	0.831200	0.431000	0.730600
H461	H46	0.535200	0.541800	0.983400
H471	H47	0.460800	0.587700	0.007100
H481	H48	0.459300	0.561000	0.972400
H491	H49	0.547600	0.141700	0.904900
H501	H50	0.617400	0.100400	0.921000
H511	H51	0.627500	0.116500	0.879300
H521	H52	0.544600	0.805000	0.661000
H531	H53	0.468500	0.800600	0.680000
H541	H54	0.471800	0.865800	0.670000
H551	H55	0.335900	0.899000	0.761800
H561	H56	0.365600	0.917600	0.721800
H571	H57	0.358300	0.853800	0.730600
H581	H58	0.044100	0.595400	0.982600
H591	H59	0.985900	0.565400	0.994000
H601	H60	0.050100	0.543800	0.959200
H611	H61	0.933800	0.772500	0.915700
H621	H62	0.904800	0.584800	0.941800
H631	H63	0.295700	0.038500	0.875900
H641	H64	0.160200	0.939300	0.956900
H651	H65	0.283500	0.884700	0.927100
H661	H66	0.031100	0.737500	0.951500
H671	H67	0.019400	0.692000	0.984200
H681	H68	0.080900	0.665700	0.949100
H691	H69	0.832800	0.572900	0.726100
H701	H70	0.841500	0.483100	0.848300
H711	H71	0.996100	0.095500	0.017700
H721	H72	0.989700	0.164500	0.011300
H731	H73	0.903600	0.715500	0.638300
H741	H74	0.910100	0.371100	0.297900
H751	H75	0.692700	0.924600	0.430400
H761	H76	0.248500	0.488400	0.348000
H771	H77	0.898000	0.912200	0.426200
H781	H78	0.556000	0.296700	0.149900
H791	H79	0.478400	0.353700	0.157500
H801	H80	0.482800	0.286000	0.165800
H811	H81	0.728000	0.821100	0.447300
H821	H82	0.656800	0.491400	0.390600
H831	H83	0.496500	0.635100	0.414300
H841	H84	0.574100	0.619800	0.387200
H851	H85	0.570000	0.595200	0.427600
H861	H86	0.936300	0.807200	0.441800
H871	H87	0.971900	0.236300	0.467500
H881	H88	0.020000	0.164300	0.466100
H891	H89	0.952400	0.191900	0.498900
H901	H90	0.422400	0.490200	0.387200
H911	H91	0.821700	0.596800	0.408400
H921	H92	0.036800	0.607700	0.481300
H931	H93	0.017600	0.551000	0.479000
H941	H94	0.625800	0.271100	0.195900
H951	H95	0.760400	0.644900	0.634500
H961	H96	0.142600	0.514100	0.471500
H971	H97	0.807500	0.629800	0.574200
H981	H98	0.946400	0.716700	0.472700
H991	H99	0.959800	0.700000	0.432400
H1001	H100	0.842500	0.641400	0.450400
H1011	H101	0.917700	0.619600	0.420800
H1021	H102	0.883200	0.271400	0.426200
H1031	H103	0.853900	0.081700	0.450700
H1041	H104	0.329400	0.387800	0.244600
H1051	H105	0.359600	0.345200	0.211400
H1061	H106	0.363500	0.410400	0.206400
H1071	H107	0.126200	0.559600	0.367600
H1081	H108	0.896400	0.278200	0.201000
H1091	H109	0.404200	0.366800	0.284200
H1101	H110	0.951400	0.705900	0.574100
H1111	H111	0.265800	0.443800	0.451800
H1121	H112	0.917200	0.876000	0.327800
H1131	H113	0.985000	0.884000	0.300200
H1141	H114	0.929900	0.867100	0.286500
H1151	H115	0.959500	0.977900	0.204300
H1161	H116	0.945700	0.918100	0.220100
H1171	H117	0.007200	0.931000	0.230600
H1181	H118	0.939600	0.041800	0.483400
H1191	H119	0.944400	0.087700	0.507100
H1201	H120	0.007300	0.061000	0.472400
H1211	H121	0.405800	0.641700	0.404900
H1221	H122	0.361200	0.600400	0.421000
H1231	H123	0.376700	0.616500	0.379300
H1241	H124	0.989400	0.305000	0.161000
H1251	H125	0.050900	0.300600	0.180000
H1261	H126	0.992400	0.365800	0.170000
H1271	H127	0.003300	0.399000	0.261800
H1281	H128	0.995000	0.417600	0.221800
H1291	H129	0.057300	0.353800	0.230600
H1301	H130	0.377900	0.095400	0.482600
H1311	H131	0.454700	0.065400	0.494000
H1321	H132	0.446900	0.043800	0.459200
H1331	H133	0.378000	0.272500	0.415700
H1341	H134	0.568600	0.084800	0.441800
H1351	H135	0.789900	0.538500	0.375900
H1361	H136	0.943600	0.439300	0.456900
H1371	H137	0.904700	0.384700	0.427100
H1381	H138	0.279900	0.237500	0.451500
H1391	H139	0.304400	0.192000	0.484200
H1401	H140	0.304300	0.165700	0.449100
H1411	H141	0.868200	0.072900	0.226100
H1421	H142	0.827100	0.983100	0.348300
H1431	H143	0.890700	0.595500	0.517700
H1441	H144	0.834500	0.664500	0.511300
C11	C1	0.791760	0.199810	0.125070
C21	C2	0.460860	0.853050	0.778630
C31	C3	0.925190	0.400630	0.932790
C41	C4	0.302380	0.955130	0.900310
C51	C5	0.905620	0.994140	0.872620
C61	C6	0.811700	0.393400	0.930000
C71	C7	0.014320	0.812580	0.665780
C81	C8	0.956120	0.339380	0.942780
C91	C9	0.440200	0.689200	0.952800
C101	C10	0.506800	0.991990	0.890010
C111	C11	0.441540	0.104320	0.907600
C121	C12	0.841430	0.331390	0.939550
C131	C13	0.645020	0.938720	0.879640
C141	C14	0.360000	0.696080	0.973320
C151	C15	0.654030	0.991140	0.887200
C161	C16	0.195590	0.053850	0.912170
C171	C17	0.910570	0.044080	0.921980
C181	C18	0.156310	0.022240	0.937140
C191	C19	0.533940	0.721830	0.913890
C201	C20	0.926110	0.091340	0.968300
C211	C21	0.914050	0.790150	0.713350
C221	C22	0.921650	0.156990	0.122710
C231	C23	0.962200	0.136860	0.969540
C241	C24	0.872080	0.960160	0.898080
C251	C25	0.577210	0.939490	0.881290
C261	C26	0.879630	0.009430	0.946910
C271	C27	0.938740	0.147920	0.086400
C281	C28	0.913340	0.201520	0.956600
C291	C29	0.914170	0.305120	0.945940
C301	C30	0.042450	0.115690	0.946250
C311	C31	0.457180	0.733410	0.930630
C321	C32	0.965440	0.814850	0.704870
C331	C33	0.883160	0.165300	0.067580
C341	C34	0.576360	0.618680	0.944600
C351	C35	0.884060	0.822640	0.775040
C361	C36	0.035420	0.874930	0.722630
C371	C37	0.924720	0.036470	0.884290
C381	C38	0.584540	0.796660	0.720260
C391	C39	0.871180	0.793930	0.749110
C401	C40	0.937530	0.848260	0.766680
C411	C41	0.826280	0.192630	0.182810
C421	C42	0.806970	0.192850	0.086210
C431	C43	0.859850	0.967280	0.935020
C441	C44	0.848430	0.183770	0.142570
C451	C45	0.534270	0.825690	0.782970
C461	C46	0.595940	0.797240	0.754880
C471	C47	0.872130	0.390140	0.803800
C481	C48	0.866200	0.449880	0.725120
C491	C49	0.978490	0.844510	0.731510
C501	C50	0.854090	0.489420	0.760400
C511	C51	0.855200	0.463400	0.798400
C521	C52	0.853780	0.428690	0.925950
C531	C53	0.498400	0.632790	0.959010
C541	C54	0.487400	0.574900	0.982900
C551	C55	0.514900	0.042700	0.897300
C561	C56	0.586300	0.045200	0.894800
C571	C57	0.595690	0.107220	0.900600
C581	C58	0.449930	0.852440	0.744700
C591	C59	0.513350	0.824030	0.716070
C601	C60	0.498030	0.823880	0.678060
C611	C61	0.369970	0.883630	0.739230
C621	C62	0.817150	0.561600	0.816100
C631	C63	0.814860	0.588810	0.781870
C641	C64	0.016310	0.578710	0.973870
C651	C65	0.929480	0.734630	0.920610
C661	C66	0.973080	0.688130	0.941910
C671	C67	0.963870	0.631730	0.949930
C681	C68	0.911500	0.621650	0.936150
C691	C69	0.269590	0.019000	0.893020
C701	C70	0.187020	0.960320	0.941840
C711	C71	0.261550	0.927660	0.923240
C721	C72	0.818490	0.497280	0.915940
C731	C73	0.031880	0.696750	0.958290
C741	C74	0.384390	0.915000	0.883020
C751	C75	0.833570	0.555610	0.749450
C761	C76	0.838760	0.499110	0.824770
C771	C77	0.966660	0.137170	0.009390
C781	C78	0.592780	0.665550	0.920090
C791	C79	0.870090	0.668370	0.913850
C801	C80	0.879870	0.723320	0.906940
C811	C81	0.851760	0.911480	0.885600
C821	C82	0.883360	0.699810	0.625070
C831	C83	0.907460	0.353050	0.278630
C841	C84	0.741390	0.900630	0.432790
C851	C85	0.842180	0.455130	0.400310
C861	C86	0.227620	0.494140	0.372620
C871	C87	0.864900	0.893400	0.430000
C881	C88	0.507320	0.312580	0.165780
C891	C89	0.761720	0.839380	0.442780
C901	C90	0.917800	0.189200	0.452800
C911	C91	0.611200	0.491990	0.390010
C921	C92	0.546540	0.604320	0.407600
C931	C93	0.887630	0.831390	0.439550
C941	C94	0.536620	0.438720	0.379640
C951	C95	0.970600	0.196080	0.473320
C961	C96	0.467630	0.491140	0.387200
C971	C97	0.838390	0.553850	0.412170
C981	C98	0.123370	0.544080	0.421980
C991	C99	0.884310	0.522240	0.437140
C1001	C100	0.830340	0.221830	0.413890
C1011	C101	0.014250	0.591340	0.468300
C1021	C102	0.582450	0.290150	0.213350
C1031	C103	0.798650	0.656990	0.622710
C1041	C104	0.931400	0.636860	0.469540
C1051	C105	0.269680	0.460160	0.398080
C1061	C106	0.602010	0.439490	0.381290
C1071	C107	0.164030	0.509430	0.446910
C1081	C108	0.826940	0.647920	0.586400
C1091	C109	0.928540	0.701520	0.456600
C1101	C110	0.834770	0.805120	0.445940
C1111	C111	0.895610	0.615690	0.446250
C1121	C112	0.878780	0.233410	0.430630
C1131	C113	0.514840	0.314850	0.204870
C1141	C114	0.883960	0.665300	0.567580
C1151	C115	0.860360	0.118680	0.444600
C1161	C116	0.518260	0.322640	0.275040
C1171	C117	0.367020	0.374930	0.222630
C1181	C118	0.154520	0.536470	0.384290
C1191	C119	0.898540	0.296660	0.220260
C1201	C120	0.585780	0.293930	0.249110
C1211	C121	0.447530	0.348260	0.266680
C1221	C122	0.798280	0.692630	0.682810
C1231	C123	0.913970	0.692850	0.586210
C1241	C124	0.237850	0.467280	0.435020
C1251	C125	0.825230	0.683770	0.642570
C1261	C126	0.857070	0.325690	0.282970
C1271	C127	0.851940	0.297240	0.254880
C1281	C128	0.933930	0.890140	0.303800
C1291	C129	0.958800	0.949880	0.225120
C1301	C130	0.445490	0.344510	0.231510
C1311	C131	0.896090	0.989420	0.260400
C1321	C132	0.883000	0.963400	0.298400
C1331	C133	0.791580	0.928690	0.425950
C1341	C134	0.909800	0.132790	0.459010
C1351	C135	0.954800	0.074900	0.482900
C1361	C136	0.545100	0.542700	0.397300
C1371	C137	0.473700	0.545200	0.394800
C1381	C138	0.396490	0.607220	0.400600
C1391	C139	0.952930	0.352440	0.244700
C1401	C140	0.946550	0.324030	0.216070
C1411	C141	0.000030	0.323880	0.178060
C1421	C142	0.007170	0.383630	0.239230
C1431	C143	0.805150	0.061600	0.316100
C1441	C144	0.814460	0.088810	0.281870
C1451	C145	0.431110	0.078710	0.473870
C1461	C146	0.415280	0.234630	0.420610
C1471	C147	0.396880	0.188130	0.441910
C1481	C148	0.454470	0.131730	0.449930
C1491	C149	0.530700	0.121650	0.436150
C1501	C150	0.818390	0.519000	0.393020
C1511	C151	0.910820	0.460320	0.441840
C1521	C152	0.887550	0.427660	0.423240
C1531	C153	0.768290	0.997280	0.415940
C1541	C154	0.313080	0.196750	0.458290
C1551	C155	0.817590	0.415000	0.383020
C1561	C156	0.861370	0.055610	0.249450
C1571	C157	0.837360	0.999110	0.324770
C1581	C158	0.886780	0.637170	0.509390
C1591	C159	0.821580	0.165550	0.420090
C1601	C160	0.547690	0.168370	0.413850
C1611	C161	0.489870	0.223320	0.406940
C1621	C162	0.351160	0.411480	0.385600
N11	N1	0.817470	0.771980	0.765960
N21	N2	0.795580	0.786680	0.801460
N31	N3	0.835470	0.817290	0.807330
N41	N4	0.832910	0.758080	0.884900
N51	N5	0.796720	0.725420	0.879100
N61	N6	0.818210	0.670020	0.896960
N71	N7	0.660210	0.668290	0.900490
N81	N8	0.639990	0.725140	0.882480
N91	N9	0.564030	0.757440	0.890300
N101	N10	0.562940	0.818370	0.813350
N111	N11	0.638990	0.786880	0.803960
N121	N12	0.660710	0.773730	0.767950
N131	N13	0.586410	0.882160	0.872400
N141	N14	0.661500	0.849240	0.864960
N151	N15	0.698430	0.882280	0.869580
N161	N16	0.789180	0.652770	0.783090
N171	N17	0.776170	0.661110	0.819570
N181	N18	0.790710	0.607900	0.840360
N191	N19	0.644590	0.271980	0.265960
N201	N20	0.616280	0.286680	0.301460
N211	N21	0.539910	0.317290	0.307330
N221	N22	0.524110	0.258080	0.384900
N231	N23	0.598760	0.225420	0.379100
N241	N24	0.614810	0.170020	0.396960
N251	N25	0.771010	0.168290	0.400490
N261	N26	0.752390	0.225140	0.382480
N271	N27	0.788230	0.257440	0.390300
N281	N28	0.805340	0.318370	0.313350
N291	N29	0.770170	0.286880	0.303960
N301	N30	0.797610	0.273730	0.267950
N311	N31	0.659030	0.382160	0.372400
N321	N32	0.624300	0.349240	0.364960
N331	N33	0.549710	0.382280	0.369580
N341	N34	0.774960	0.152770	0.283090
N351	N35	0.743150	0.161110	0.319570
N361	N36	0.761030	0.107900	0.340360
O11	O1	0.759060	0.218480	0.197500
O21	O2	0.878820	0.176270	0.198890
O31	O3	0.412500	0.862960	0.891640
O41	O4	0.414180	0.942980	0.855860
O51	O5	0.860500	0.905240	0.853780
O61	O6	0.821270	0.881930	0.910130
O71	O7	0.860440	0.527020	0.909300
O81	O8	0.753450	0.522320	0.911380
O91	O9	0.932330	0.086520	0.929840
O101	O10	0.892070	0.158980	0.030700
O111	O11	0.949200	0.242080	0.956440
O121	O12	0.083070	0.052200	0.956220
O131	O13	0.824960	0.718480	0.697500
O141	O14	0.746020	0.676270	0.698890
O151	O15	0.832900	0.362960	0.391640
O161	O16	0.786980	0.442980	0.355860
O171	O17	0.380480	0.405240	0.353780
O181	O18	0.386670	0.381930	0.410130
O191	O19	0.703240	0.027020	0.409300
O201	O20	0.812850	0.022320	0.411380
O211	O21	0.051310	0.586520	0.429840
O221	O22	0.918250	0.658980	0.530700
O231	O23	0.852280	0.742080	0.456440
O241	O24	0.908510	0.552200	0.456220
Zn111	Zn11	0.515720	0.655900	0.639720
Zn121	Zn12	0.316440	0.745010	0.657350
Zn131	Zn13	0.227490	0.657790	0.633770
Zn141	Zn14	0.242490	0.775320	0.752220
Zn151	Zn15	0.276110	0.890680	0.603040
Zn161	Zn16	0.188660	0.155900	0.139720
Zn171	Zn17	0.281200	0.245010	0.157350
Zn181	Zn18	0.480950	0.157790	0.133770
Zn191	Zn19	0.229970	0.275320	0.252220
Zn201	Zn20	0.230170	0.390680	0.103040
H1451	H145	0.096400	0.284500	0.361700
H1461	H146	0.089900	0.628900	0.702100
H1471	H147	0.307300	0.075400	0.569600
H1481	H148	0.751500	0.511600	0.652000
H1491	H149	0.102000	0.087800	0.573800
H1501	H150	0.444000	0.703300	0.850100
H1511	H151	0.521600	0.646300	0.842500
H1521	H152	0.517200	0.714000	0.834200
H1531	H153	0.272000	0.178900	0.552700
H1541	H154	0.343200	0.508600	0.609400
H1551	H155	0.503500	0.364900	0.585700
H1561	H156	0.425900	0.380200	0.612800
H1571	H157	0.430000	0.404800	0.572400
H1581	H158	0.063700	0.192800	0.558200
H1591	H159	0.028100	0.763700	0.532500
H1601	H160	0.980000	0.835700	0.533900
H1611	H161	0.047600	0.808100	0.501100
H1621	H162	0.577600	0.509800	0.612800
H1631	H163	0.178300	0.403200	0.591600
H1641	H164	0.963200	0.392300	0.518700
H1651	H165	0.982400	0.449000	0.521000
H1661	H166	0.374200	0.728900	0.804100
H1671	H167	0.239600	0.355100	0.365500
H1681	H168	0.857400	0.485900	0.528500
H1691	H169	0.192500	0.370200	0.425800
H1701	H170	0.053600	0.283300	0.527300
H1711	H171	0.040200	0.300000	0.567600
H1721	H172	0.157500	0.358600	0.549600
H1731	H173	0.082300	0.380400	0.579200
H1741	H174	0.116800	0.728600	0.573800
H1751	H175	0.146100	0.918300	0.549300
H1761	H176	0.670600	0.612200	0.755400
H1771	H177	0.640400	0.654800	0.788600
H1781	H178	0.636500	0.589600	0.793600
H1791	H179	0.873800	0.440400	0.632400
H1801	H180	0.103600	0.721800	0.799000
H1811	H181	0.595800	0.633200	0.715800
H1821	H182	0.048600	0.294100	0.425900
H1831	H183	0.734200	0.556200	0.548200
H1841	H184	0.082800	0.124000	0.672200
H1851	H185	0.015000	0.116000	0.699800
H1861	H186	0.070100	0.132900	0.713500
H1871	H187	0.040500	0.022100	0.795700
H1881	H188	0.054300	0.081900	0.779900
H1891	H189	0.992800	0.069000	0.769400
H1901	H190	0.060400	0.958200	0.516600
H1911	H191	0.055600	0.912300	0.492900
H1921	H192	0.992700	0.939000	0.527600
H1931	H193	0.594200	0.358300	0.595100
H1941	H194	0.638800	0.399600	0.579000
H1951	H195	0.623300	0.383500	0.620700
H1961	H196	0.010600	0.695000	0.839000
H1971	H197	0.949100	0.699400	0.820000
H1981	H198	0.007600	0.634200	0.830000
H1991	H199	0.996700	0.601000	0.738200
H2001	H200	0.005000	0.582400	0.778200
H2011	H201	0.942700	0.646200	0.769400
H2021	H202	0.622100	0.904600	0.517400
H2031	H203	0.545300	0.934600	0.506000
H2041	H204	0.553100	0.956200	0.540800
H2051	H205	0.622000	0.727500	0.584300
H2061	H206	0.431400	0.915200	0.558200
H2071	H207	0.210100	0.461500	0.624100
H2081	H208	0.056400	0.560700	0.543100
H2091	H209	0.095300	0.615300	0.572900
H2101	H210	0.720100	0.762500	0.548500
H2111	H211	0.695600	0.808000	0.515800
H2121	H212	0.695700	0.834300	0.550900
H2131	H213	0.131800	0.927100	0.773900
H2141	H214	0.172900	0.016900	0.651700
H2151	H215	0.109300	0.404500	0.482300
H2161	H216	0.165500	0.335500	0.488700
H2171	H217	0.257400	0.784500	0.861700
H2181	H218	0.579100	0.128900	0.202100
H2191	H219	0.047700	0.575400	0.069600
H2201	H220	0.084900	0.011600	0.152000
H2211	H221	0.236400	0.587800	0.073800
H2221	H222	0.002600	0.203300	0.350100
H2231	H223	0.989600	0.146300	0.342500
H2241	H224	0.934600	0.214000	0.334200
H2251	H225	0.996400	0.678900	0.052700
H2261	H226	0.538800	0.008600	0.109400
H2271	H227	0.545900	0.864900	0.085700
H2281	H228	0.581100	0.880200	0.112800
H2291	H229	0.592800	0.904800	0.072400
H2301	H230	0.185300	0.692800	0.058200
H2311	H231	0.675700	0.263700	0.032500
H2321	H232	0.650400	0.335700	0.033900
H2331	H233	0.643200	0.308100	0.001100
H2341	H234	0.299800	0.009800	0.112800
H2351	H235	0.826900	0.903200	0.091600
H2361	H236	0.125800	0.892300	0.018700
H2371	H237	0.047600	0.949000	0.021000
H2381	H238	0.092800	0.228900	0.304100
H2391	H239	0.039800	0.855100	0.865500
H2401	H240	0.128200	0.985900	0.028500
H2411	H241	0.011500	0.870200	0.925800
H2421	H242	0.135800	0.783300	0.027300
H2431	H243	0.092200	0.800000	0.067600
H2441	H244	0.934300	0.858600	0.049600
H2451	H245	0.958100	0.880400	0.079200
H2461	H246	0.580800	0.228600	0.073800
H2471	H247	0.386300	0.418300	0.049300
H2481	H248	0.961800	0.112200	0.255400
H2491	H249	0.916200	0.154800	0.288600
H2501	H250	0.980300	0.089600	0.293600
H2511	H251	0.053400	0.940400	0.132400
H2521	H252	0.375600	0.221800	0.299000
H2531	H253	0.055200	0.133200	0.215800
H2541	H254	0.231400	0.794100	0.925900
H2551	H255	0.161400	0.056200	0.048200
H2561	H256	0.121000	0.624000	0.172200
H2571	H257	0.169200	0.616000	0.199800
H2581	H258	0.083500	0.632900	0.213500
H2591	H259	0.141700	0.522100	0.295700
H2601	H260	0.083900	0.581900	0.279900
H2611	H261	0.168800	0.569000	0.269400
H2621	H262	0.464800	0.458200	0.016600
H2631	H263	0.539200	0.412300	0.992900
H2641	H264	0.540700	0.439000	0.027600
H2651	H265	0.452400	0.858300	0.095100
H2661	H266	0.382600	0.899600	0.079000
H2671	H267	0.372500	0.883500	0.120700
H2681	H268	0.455400	0.195000	0.339000
H2691	H269	0.531500	0.199400	0.320000
H2701	H270	0.528200	0.134200	0.330000
H2711	H271	0.664100	0.101000	0.238200
H2721	H272	0.634400	0.082400	0.278200
H2731	H273	0.641700	0.146200	0.269400
H2741	H274	0.955900	0.404600	0.017400
H2751	H275	0.014100	0.434600	0.006000
H2761	H276	0.949900	0.456200	0.040800
H2771	H277	0.066200	0.227500	0.084300
H2781	H278	0.095200	0.415200	0.058200
H2791	H279	0.704300	0.961500	0.124100
H2801	H280	0.839800	0.060700	0.043100
H2811	H281	0.716500	0.115300	0.072900
H2821	H282	0.968900	0.262500	0.048500
H2831	H283	0.980600	0.308000	0.015800
H2841	H284	0.919100	0.334300	0.050900
H2851	H285	0.167200	0.427100	0.273900
H2861	H286	0.158500	0.516900	0.151700
H2871	H287	0.003900	0.904500	0.982300
H2881	H288	0.010300	0.835500	0.988700
C1631	C163	0.116640	0.300190	0.374930
C1641	C164	0.092540	0.646950	0.721370
C1651	C165	0.258610	0.099370	0.567210
C1661	C166	0.157820	0.544870	0.599690
C1671	C167	0.772380	0.505860	0.627380
C1681	C168	0.135100	0.106600	0.570000
C1691	C169	0.492680	0.687420	0.834220
C1701	C170	0.238280	0.160620	0.557220
C1711	C171	0.082200	0.810800	0.547200
C1721	C172	0.388800	0.508010	0.609990
C1731	C173	0.453460	0.395680	0.592400
C1741	C174	0.112370	0.168610	0.560450
C1751	C175	0.463380	0.561280	0.620360
C1761	C176	0.029400	0.803920	0.526680
C1771	C177	0.532370	0.508860	0.612800
C1781	C178	0.161610	0.446150	0.587830
C1791	C179	0.876630	0.455920	0.578020
C1801	C180	0.115690	0.477760	0.562860
C1811	C181	0.169660	0.778170	0.586110
C1821	C182	0.985750	0.408660	0.531700
C1831	C183	0.417550	0.709850	0.786650
C1841	C184	0.201350	0.343010	0.377290
C1851	C185	0.068600	0.363140	0.530460
C1861	C186	0.730320	0.539840	0.601920
C1871	C187	0.397990	0.560510	0.618710
C1881	C188	0.835970	0.490570	0.553090
C1891	C189	0.173060	0.352080	0.413600
C1901	C190	0.071460	0.298480	0.543400
C1911	C191	0.165230	0.194880	0.554060
C1921	C192	0.104390	0.384310	0.553750
C1931	C193	0.121220	0.766590	0.569370
C1941	C194	0.485160	0.685150	0.795130
C1951	C195	0.116040	0.334700	0.432420
C1961	C196	0.139640	0.881320	0.555400
C1971	C197	0.481740	0.677360	0.724960
C1981	C198	0.632980	0.625070	0.777370
C1991	C199	0.845480	0.463530	0.615710
C2001	C200	0.101460	0.703340	0.779740
C2011	C201	0.414220	0.706070	0.750890
C2021	C202	0.552470	0.651740	0.733320
C2031	C203	0.201720	0.307370	0.317190
C2041	C204	0.086030	0.307150	0.413790
C2051	C205	0.762150	0.532720	0.564980
C2061	C206	0.174770	0.316230	0.357430
C2071	C207	0.142930	0.674310	0.717030
C2081	C208	0.148060	0.702760	0.745120
C2091	C209	0.066070	0.109860	0.696200
C2101	C210	0.041200	0.050120	0.774880
C2111	C211	0.554510	0.655490	0.768490
C2121	C212	0.103910	0.010580	0.739600
C2131	C213	0.117000	0.036600	0.701600
C2141	C214	0.208420	0.071310	0.574050
C2151	C215	0.090200	0.867210	0.540990
C2161	C216	0.045200	0.925100	0.517100
C2171	C217	0.454900	0.457300	0.602700
C2181	C218	0.526300	0.454800	0.605200
C2191	C219	0.603510	0.392780	0.599400
C2201	C220	0.047070	0.647560	0.755300
C2211	C221	0.053450	0.675970	0.783930
C2221	C222	0.999970	0.676120	0.821940
C2231	C223	0.992830	0.616370	0.760770
C2241	C224	0.194850	0.938400	0.683900
C2251	C225	0.185540	0.911190	0.718130
C2261	C226	0.568890	0.921290	0.526130
C2271	C227	0.584720	0.765370	0.579390
C2281	C228	0.603120	0.811870	0.558090
C2291	C229	0.545530	0.868270	0.550070
C2301	C230	0.469300	0.878350	0.563850
C2311	C231	0.181610	0.481000	0.606980
C2321	C232	0.089180	0.539680	0.558160
C2331	C233	0.112450	0.572340	0.576760
C2341	C234	0.231710	0.002720	0.584060
C2351	C235	0.686920	0.803250	0.541710
C2361	C236	0.182410	0.585000	0.616980
C2371	C237	0.138630	0.944390	0.750550
C2381	C238	0.162640	0.000890	0.675230
C2391	C239	0.113220	0.362830	0.490610
C2401	C240	0.178420	0.834450	0.579910
C2411	C241	0.452310	0.831630	0.586150
C2421	C242	0.510130	0.776680	0.593060
C2431	C243	0.648840	0.588520	0.614400
C2441	C244	0.208240	0.800190	0.874930
C2451	C245	0.539140	0.146950	0.221370
C2461	C246	0.074810	0.599370	0.067210
C2471	C247	0.697620	0.044870	0.099690
C2481	C248	0.094380	0.005860	0.127380
C2491	C249	0.188300	0.606600	0.070000
C2501	C250	0.985680	0.187420	0.334220
C2511	C251	0.043880	0.660620	0.057220
C2521	C252	0.559800	0.310800	0.047200
C2531	C253	0.493200	0.008010	0.109990
C2541	C254	0.558460	0.895680	0.092400
C2551	C255	0.158570	0.668610	0.060450
C2561	C256	0.354980	0.061280	0.120360
C2571	C257	0.640000	0.303920	0.026680
C2581	C258	0.345970	0.008860	0.112800
C2591	C259	0.804410	0.946150	0.087830
C2601	C260	0.089430	0.955920	0.078020
C2611	C261	0.843690	0.977760	0.062860
C2621	C262	0.466060	0.278170	0.086110
C2631	C263	0.073890	0.908660	0.031700
C2641	C264	0.085950	0.209850	0.286650
C2651	C265	0.078350	0.843010	0.877290
C2661	C266	0.037800	0.863140	0.030460
C2671	C267	0.127920	0.039840	0.101920
C2681	C268	0.422790	0.060510	0.118710
C2691	C269	0.120370	0.990570	0.053090
C2701	C270	0.061260	0.852080	0.913600
C2711	C271	0.086660	0.798480	0.043400
C2721	C272	0.085830	0.694880	0.054060
C2731	C273	0.957550	0.884310	0.053750
C2741	C274	0.542820	0.266590	0.069370
C2751	C275	0.034560	0.185150	0.295130
C2761	C276	0.116840	0.834700	0.932420
C2771	C277	0.423640	0.381320	0.055400
C2781	C278	0.115940	0.177360	0.224960
C2791	C279	0.964580	0.125070	0.277370
C2801	C280	0.075280	0.963530	0.115710
C2811	C281	0.415460	0.203340	0.279740
C2821	C282	0.128820	0.206070	0.250890
C2831	C283	0.062470	0.151740	0.233320
C2841	C284	0.173720	0.807370	0.817190
C2851	C285	0.193030	0.807150	0.913790
C2861	C286	0.140150	0.032720	0.064980
C2871	C287	0.151570	0.816230	0.857430
C2881	C288	0.465730	0.174310	0.217030
C2891	C289	0.404060	0.202760	0.245120
C2901	C290	0.127870	0.609860	0.196200
C2911	C291	0.133800	0.550120	0.274880
C2921	C292	0.021510	0.155490	0.268490
C2931	C293	0.145910	0.510580	0.239600
C2941	C294	0.144800	0.536600	0.201600
C2951	C295	0.146220	0.571310	0.074050
C2961	C296	0.501600	0.367210	0.040990
C2971	C297	0.512600	0.425100	0.017100
C2981	C298	0.485100	0.957300	0.102700
C2991	C299	0.413700	0.954800	0.105200
C3001	C300	0.404310	0.892780	0.099400
C3011	C301	0.550070	0.147560	0.255300
C3021	C302	0.486650	0.175970	0.283930
C3031	C303	0.501970	0.176120	0.321940
C3041	C304	0.630030	0.116370	0.260770
C3051	C305	0.182850	0.438400	0.183900
C3061	C306	0.185140	0.411190	0.218130
C3071	C307	0.983690	0.421290	0.026130
C3081	C308	0.070520	0.265370	0.079390
C3091	C309	0.026920	0.311870	0.058090
C3101	C310	0.036130	0.368270	0.050070
C3111	C311	0.088500	0.378350	0.063850
C3121	C312	0.730410	0.981000	0.106980
C3131	C313	0.812980	0.039680	0.058160
C3141	C314	0.738450	0.072340	0.076760
C3151	C315	0.181510	0.502720	0.084060
C3161	C316	0.968120	0.303250	0.041710
C3171	C317	0.615610	0.085000	0.116980
C3181	C318	0.166430	0.444390	0.250550
C3191	C319	0.161240	0.500890	0.175230
C3201	C320	0.033340	0.862830	0.990610
C3211	C321	0.407220	0.334450	0.079910
C3221	C322	0.129910	0.331630	0.086150
C3231	C323	0.120130	0.276680	0.093060
C3241	C324	0.148240	0.088520	0.114400
N371	N37	0.355410	0.728020	0.734040
N381	N38	0.383720	0.713320	0.698540
N391	N39	0.460090	0.682710	0.692670
N401	N40	0.475890	0.741920	0.615100
N411	N41	0.401240	0.774580	0.620900
N421	N42	0.385190	0.829980	0.603040
N431	N43	0.228990	0.831710	0.599510
N441	N44	0.247610	0.774860	0.617520
N451	N45	0.211770	0.742560	0.609700
N461	N46	0.194660	0.681630	0.686650
N471	N47	0.229830	0.713120	0.696040
N481	N48	0.202390	0.726270	0.732050
N491	N49	0.340970	0.617840	0.627600
N501	N50	0.375700	0.650760	0.635040
N511	N51	0.450290	0.617720	0.630420
N521	N52	0.225040	0.847230	0.716910
N531	N53	0.256850	0.838890	0.680430
N541	N54	0.238970	0.892100	0.659640
N551	N55	0.182530	0.228020	0.234040
N561	N56	0.204420	0.213320	0.198540
N571	N57	0.164530	0.182710	0.192670
N581	N58	0.167090	0.241920	0.115100
N591	N59	0.203280	0.274580	0.120900
N601	N60	0.181790	0.329980	0.103040
N611	N61	0.339790	0.331710	0.099510
N621	N62	0.360010	0.274860	0.117520
N631	N63	0.435970	0.242560	0.109700
N641	N64	0.437060	0.181630	0.186650
N651	N65	0.361010	0.213120	0.196040
N661	N66	0.339290	0.226270	0.232050
N671	N67	0.413590	0.117840	0.127600
N681	N68	0.338500	0.150760	0.135040
N691	N69	0.301570	0.117720	0.130420
N701	N70	0.210820	0.347230	0.216910
N711	N71	0.223830	0.338890	0.180430
N721	N72	0.209290	0.392100	0.159640
O251	O25	0.175040	0.281520	0.302500
O261	O26	0.253980	0.323730	0.301110
O271	O27	0.167100	0.637040	0.608360
O281	O28	0.213020	0.557020	0.644140
O291	O29	0.619520	0.594760	0.646220
O301	O30	0.613330	0.618070	0.589870
O311	O31	0.296760	0.972980	0.590700
O321	O32	0.187150	0.977680	0.588620
O331	O33	0.948690	0.413480	0.570160
O341	O34	0.081750	0.341020	0.469300
O351	O35	0.147720	0.257920	0.543560
O361	O36	0.091490	0.447800	0.543780
O371	O37	0.240940	0.781520	0.802500
O381	O38	0.121180	0.823730	0.801110
O391	O39	0.587500	0.137040	0.108360
O401	O40	0.585820	0.057020	0.144140
O411	O41	0.139500	0.094760	0.146220
O421	O42	0.178730	0.118070	0.089870
O431	O43	0.139560	0.472980	0.090700
O441	O44	0.246550	0.477680	0.088620
O451	O45	0.067670	0.913480	0.070160
O461	O46	0.107930	0.841020	0.969300
O471	O47	0.050800	0.757920	0.043560
O481	O48	0.916930	0.947800	0.043780
