data_FAYQAZ_clean_PM
_symmetry_space_group_name_H-M	'P1'
_cell_length_a	19.897600
_cell_length_b	23.491400
_cell_length_c	36.962400
_cell_angle_alpha	82.509500
_cell_angle_beta	74.385700
_cell_angle_gamma	64.943700
_symmetry_Int_Tables_number 1

loop_
_symmetry_equiv_pos_as_xyz
'x,y,z'

loop_
_atom_site_label
_atom_site_type_symbol
_atom_site_fract_x
_atom_site_fract_y
_atom_site_fract_z
Zn11	Zn1	0.247060	0.760550	0.670230
Zn21	Zn2	0.179580	0.913730	0.627610
Zn31	Zn3	0.164520	0.671510	0.643210
Zn41	Zn4	0.447110	0.686520	0.641120
Zn51	Zn5	0.192240	0.776620	0.769000
Zn61	Zn6	0.322160	0.260550	0.170230
Zn71	Zn7	0.279080	0.413730	0.127610
Zn81	Zn8	0.520760	0.171510	0.143210
Zn91	Zn9	0.225250	0.186520	0.141120
Zn101	Zn10	0.262140	0.276620	0.269000
H11	H1	0.068700	0.721500	0.813100
H21	H2	0.982000	0.678400	0.824400
H31	H3	0.031300	0.638700	0.712700
H41	H4	0.912900	0.623600	0.803200
H51	H5	0.900800	0.645400	0.762600
H61	H6	0.964900	0.580000	0.769000
H71	H7	0.051800	0.940400	0.574800
H81	H8	0.984200	0.918200	0.542600
H91	H9	0.049000	0.740200	0.585400
H101	H10	0.924400	0.856200	0.532600
H111	H11	0.981800	0.785600	0.527200
H121	H12	0.916000	0.806000	0.563800
H131	H13	0.066300	0.918400	0.803600
H141	H14	0.984600	0.079500	0.746300
H151	H15	0.057800	0.032100	0.686700
H161	H16	0.944100	0.082000	0.810400
H171	H17	0.931200	0.020500	0.824300
H181	H18	0.996000	0.031700	0.834700
H191	H19	0.517000	0.544000	0.593200
H201	H20	0.392300	0.464200	0.568200
H211	H21	0.281100	0.544800	0.598200
H221	H22	0.506000	0.430300	0.537300
H231	H23	0.528300	0.487300	0.523300
H241	H24	0.571700	0.435900	0.550300
H251	H25	0.328600	0.720400	0.813800
H261	H26	0.447300	0.672400	0.822200
H271	H27	0.546400	0.648700	0.712100
H281	H28	0.621500	0.617600	0.760400
H291	H29	0.582800	0.663100	0.794500
H301	H30	0.582200	0.596100	0.799100
H311	H31	0.060700	0.538200	0.657400
H321	H32	0.106400	0.485000	0.536000
H331	H33	0.149800	0.557700	0.548900
H341	H34	0.966500	0.446500	0.702700
H351	H35	0.039100	0.460900	0.695700
H361	H36	0.961200	0.514500	0.690900
H371	H37	0.015500	0.455100	0.530700
H381	H38	0.091400	0.394500	0.530500
H391	H39	0.910800	0.417200	0.590000
H401	H40	0.887200	0.385800	0.563200
H411	H41	0.984000	0.403000	0.491800
H421	H42	0.973700	0.340000	0.505200
H431	H43	0.027000	0.324300	0.592100
H441	H44	0.088500	0.295600	0.555000
H451	H45	0.846200	0.551300	0.594300
H461	H46	0.714100	0.608000	0.628000
H471	H47	0.645500	0.555700	0.559300
H481	H48	0.720700	0.457200	0.489800
H491	H49	0.659600	0.495900	0.524300
H501	H50	0.700800	0.529000	0.492200
H511	H51	0.006100	0.356100	0.436700
H521	H52	0.056400	0.346700	0.372300
H531	H53	0.265400	0.267100	0.389900
H541	H54	0.321300	0.245500	0.471900
H551	H55	0.318200	0.219900	0.435500
H561	H56	0.312400	0.288500	0.435700
H571	H57	0.111500	0.222600	0.593000
H581	H58	0.164100	0.114700	0.612900
H591	H59	0.007000	0.090200	0.580800
H601	H60	0.870100	0.202500	0.542300
H611	H61	0.941200	0.139100	0.543500
H621	H62	0.883700	0.170000	0.581000
H631	H63	0.313300	0.957500	0.580500
H641	H64	0.544500	0.863400	0.556400
H651	H65	0.531900	0.773700	0.588100
H661	H66	0.397100	0.008800	0.541200
H671	H67	0.472500	0.986600	0.555000
H681	H68	0.474500	0.961800	0.517200
H691	H69	0.396700	0.221500	0.313100
H701	H70	0.515200	0.178400	0.324400
H711	H71	0.617300	0.138700	0.212700
H721	H72	0.660300	0.123600	0.303200
H731	H73	0.691200	0.145400	0.262600
H741	H74	0.686100	0.080000	0.269000
H751	H75	0.433000	0.440400	0.074800
H761	H76	0.555000	0.418200	0.042600
H771	H77	0.625400	0.240200	0.085400
H781	H78	0.686800	0.356200	0.032600
H791	H79	0.705400	0.285600	0.027200
H801	H80	0.714200	0.306000	0.063800
H811	H81	0.211700	0.418400	0.303600
H821	H82	0.189600	0.579500	0.246300
H831	H83	0.223400	0.532100	0.186700
H841	H84	0.163500	0.582000	0.310400
H851	H85	0.224000	0.520500	0.324300
H861	H86	0.137600	0.531700	0.334700
H871	H87	0.345800	0.044000	0.093200
H881	H88	0.575300	0.964200	0.068200
H891	H89	0.575900	0.044800	0.098200
H901	H90	0.526400	0.930300	0.037300
H911	H91	0.461100	0.987300	0.023300
H921	H92	0.442100	0.935900	0.050300
H931	H93	0.137200	0.220400	0.313800
H941	H94	0.058100	0.172400	0.322200
H951	H95	0.092800	0.148700	0.212100
H961	H96	0.000500	0.117600	0.260400
H971	H97	0.959600	0.163100	0.294500
H981	H98	0.022600	0.096100	0.299100
H991	H99	0.743700	0.038200	0.157400
H1001	H100	0.872600	0.985000	0.036000
H1011	H101	0.743600	0.057700	0.048900
H1021	H102	0.884300	0.946500	0.202700
H1031	H103	0.804300	0.960900	0.195700
H1041	H104	0.833400	0.014500	0.190900
H1051	H105	0.998700	0.955100	0.030700
H1061	H106	0.983600	0.894500	0.030500
H1071	H107	0.082000	0.917200	0.090000
H1081	H108	0.163800	0.885800	0.063200
H1091	H109	0.121200	0.903000	0.991800
H1101	H110	0.181100	0.840000	0.005200
H1111	H111	0.056600	0.824300	0.092100
H1121	H112	0.060900	0.795600	0.055000
H1131	H113	0.008200	0.051300	0.094300
H1141	H114	0.049900	0.108000	0.128000
H1151	H115	0.239500	0.055700	0.059300
H1161	H116	0.332300	0.957200	0.989800
H1171	H117	0.320200	0.995900	0.024300
H1181	H118	0.278000	0.029000	0.992200
H1191	H119	0.201100	0.856100	0.936700
H1201	H120	0.224600	0.846700	0.872300
H1211	H121	0.077600	0.767100	0.889900
H1221	H122	0.961300	0.745500	0.971900
H1231	H123	0.026400	0.719900	0.935500
H1241	H124	0.963400	0.788500	0.935700
H1251	H125	0.072900	0.722600	0.093000
H1261	H126	0.108300	0.614700	0.112900
H1271	H127	0.322000	0.590200	0.080800
H1281	H128	0.385100	0.702500	0.042300
H1291	H129	0.376200	0.639100	0.043500
H1301	H130	0.365300	0.670000	0.081000
H1311	H131	0.148700	0.457500	0.080500
H1321	H132	0.035700	0.363400	0.056400
H1331	H133	0.106300	0.273700	0.088100
H1341	H134	0.052900	0.508800	0.041200
H1351	H135	0.985900	0.486600	0.055000
H1361	H136	0.046500	0.461800	0.017200
C11	C1	0.087600	0.684100	0.728900
C21	C2	0.100800	0.704600	0.756400
C31	C3	0.060600	0.704900	0.793900
C41	C4	0.010200	0.679800	0.800000
C51	C5	0.997500	0.654900	0.770700
C61	C6	0.037600	0.655300	0.732500
C71	C7	0.938000	0.622800	0.777000
C81	C8	0.092100	0.794900	0.601300
C91	C9	0.094300	0.852700	0.597700
C101	C10	0.051300	0.900700	0.576500
C111	C11	0.010100	0.888400	0.558800
C121	C12	0.005700	0.830000	0.564800
C131	C13	0.049000	0.780100	0.584100
C141	C14	0.951800	0.818200	0.545200
C151	C15	0.108700	0.946000	0.713000
C161	C16	0.111200	0.916500	0.745300
C171	C17	0.066700	0.942000	0.781400
C181	C18	0.025500	0.004400	0.779600
C191	C19	0.018600	0.037500	0.745500
C201	C20	0.061100	0.010300	0.709500
C211	C21	0.968900	0.037700	0.815700
C221	C22	0.332500	0.592500	0.613700
C231	C23	0.403110	0.592380	0.612200
C241	C24	0.469700	0.544200	0.594200
C251	C25	0.465660	0.496180	0.577700
C261	C26	0.395000	0.496400	0.579200
C271	C27	0.328400	0.544600	0.597200
C281	C28	0.523500	0.458900	0.544100
C291	C29	0.424100	0.690100	0.729300
C301	C30	0.361800	0.711400	0.755800
C311	C31	0.370400	0.705600	0.793400
C321	C32	0.442300	0.677600	0.797600
C331	C33	0.509000	0.655800	0.770800
C341	C34	0.504400	0.661400	0.732400
C351	C35	0.579700	0.631100	0.782100
C361	C36	0.130300	0.605000	0.612000
C371	C37	0.106800	0.551900	0.605100
C381	C38	0.071400	0.527300	0.632500
C391	C39	0.050300	0.483500	0.622100
C401	C40	0.060300	0.468200	0.586800
C411	C41	0.097010	0.495280	0.560900
C421	C42	0.123600	0.539400	0.567800
C431	C43	0.993300	0.470400	0.687800
C441	C44	0.038450	0.415670	0.543830
C451	C45	0.997750	0.376040	0.544860
C461	C46	0.915670	0.410360	0.563900
C471	C47	0.003250	0.363700	0.505600
C481	C48	0.034090	0.315500	0.566120
C491	C49	0.816700	0.505900	0.562700
C501	C50	0.805800	0.547300	0.588500
C511	C51	0.723800	0.585800	0.606800
C521	C52	0.669900	0.589900	0.596300
C531	C53	0.684300	0.555800	0.568800
C541	C54	0.761100	0.519200	0.553400
C551	C55	0.706800	0.490800	0.506400
C561	C56	0.126800	0.024500	0.609500
C571	C57	0.104200	0.320900	0.452500
C581	C58	0.058880	0.338740	0.427500
C591	C59	0.088400	0.332200	0.388800
C601	C60	0.163200	0.304600	0.376400
C611	C61	0.212700	0.285500	0.399300
C621	C62	0.179700	0.295700	0.437100
C631	C63	0.299100	0.256300	0.450500
C641	C64	0.194000	0.298700	0.334300
C651	C65	0.029300	0.217100	0.576700
C661	C66	0.089500	0.195800	0.590600
C671	C67	0.121900	0.130300	0.602500
C681	C68	0.088400	0.092400	0.597800
C691	C69	0.029900	0.115800	0.584200
C701	C70	0.000200	0.178500	0.574500
C711	C71	0.908200	0.178200	0.556000
C721	C72	0.416200	0.816500	0.601900
C731	C73	0.354200	0.868200	0.601000
C741	C74	0.357100	0.921400	0.581600
C751	C75	0.429600	0.918100	0.563700
C761	C76	0.496400	0.863500	0.567100
C771	C77	0.489600	0.810700	0.586100
C781	C78	0.444900	0.974200	0.542200
C791	C79	0.499400	0.184100	0.228900
C801	C80	0.438200	0.204600	0.256400
C811	C81	0.440600	0.204900	0.293900
C821	C82	0.510000	0.179800	0.300000
C831	C83	0.576900	0.154900	0.270700
C841	C84	0.574600	0.155300	0.232500
C851	C85	0.662200	0.122800	0.277000
C861	C86	0.511700	0.294900	0.101300
C871	C87	0.455300	0.352700	0.097700
C881	C88	0.471500	0.400700	0.076500
C891	C89	0.542700	0.388400	0.058800
C901	C90	0.599500	0.330000	0.064800
C911	C91	0.586800	0.280100	0.084100
C921	C92	0.684800	0.318200	0.045200
C931	C93	0.232300	0.446000	0.213000
C941	C94	0.227000	0.416500	0.245300
C951	C95	0.209900	0.442000	0.281400
C961	C96	0.190500	0.504400	0.279600
C971	C97	0.198400	0.537500	0.245500
C981	C98	0.219100	0.510300	0.209500
C991	C99	0.177700	0.537700	0.315700
C1001	C100	0.461300	0.092500	0.113700
C1011	C101	0.392310	0.092380	0.112200
C1021	C102	0.391900	0.044200	0.094200
C1031	C103	0.460460	0.996180	0.077700
C1041	C104	0.529400	0.996400	0.079200
C1051	C105	0.529800	0.044600	0.097200
C1061	C106	0.473500	0.958900	0.044100
C1071	C107	0.156500	0.190100	0.229300
C1081	C108	0.171000	0.211400	0.255800
C1091	C109	0.130600	0.205600	0.293400
C1101	C110	0.082500	0.177600	0.297600
C1111	C111	0.064400	0.155800	0.270800
C1121	C112	0.101800	0.161400	0.232400
C1131	C113	0.007100	0.131100	0.282100
C1141	C114	0.652700	0.105000	0.112000
C1151	C115	0.736200	0.051900	0.105100
C1161	C116	0.768800	0.027300	0.132500
C1171	C117	0.844100	0.983500	0.122100
C1181	C118	0.884700	0.968200	0.086800
C1191	C119	0.846810	0.995280	0.060900
C1201	C120	0.769200	0.039400	0.067800
C1211	C121	0.848500	0.970400	0.187800
C1221	C122	0.002050	0.915670	0.043830
C1231	C123	0.081350	0.876040	0.044860
C1241	C124	0.110070	0.910360	0.063900
C1251	C125	0.127450	0.863700	0.005600
C1261	C126	0.084290	0.815500	0.066120
C1271	C127	0.114700	0.005900	0.062700
C1281	C128	0.058400	0.047300	0.088500
C1291	C129	0.083600	0.085800	0.106800
C1301	C130	0.143900	0.089900	0.096300
C1311	C131	0.191100	0.055800	0.068800
C1321	C132	0.166300	0.019200	0.053400
C1331	C133	0.296000	0.990800	0.006400
C1341	C134	0.239200	0.524500	0.109500
C1351	C135	0.122400	0.820900	0.952500
C1361	C136	0.174880	0.838740	0.927500
C1371	C137	0.190600	0.832200	0.888800
C1381	C138	0.155800	0.804600	0.876400
C1391	C139	0.102500	0.785500	0.899300
C1401	C140	0.087500	0.795700	0.937100
C1411	C141	0.994100	0.756300	0.950500
C1421	C142	0.173000	0.798700	0.834300
C1431	C143	0.176900	0.717100	0.076700
C1441	C144	0.124100	0.695800	0.090600
C1451	C145	0.145300	0.630300	0.102500
C1461	C146	0.221400	0.592400	0.097800
C1471	C147	0.270100	0.615800	0.084200
C1481	C148	0.246800	0.678500	0.074500
C1491	C149	0.357600	0.678200	0.056000
C1501	C150	0.165400	0.316500	0.101900
C1511	C151	0.176600	0.368200	0.101000
C1521	C152	0.139900	0.421400	0.081600
C1531	C153	0.088600	0.418100	0.063700
C1541	C154	0.073000	0.363500	0.067100
C1551	C155	0.113600	0.310700	0.086100
C1561	C156	0.038700	0.474200	0.042200
N11	N1	0.151700	0.730300	0.745300
N21	N2	0.173310	0.722180	0.709400
N31	N3	0.137110	0.692720	0.698460
N41	N4	0.138770	0.756970	0.622890
N51	N5	0.169570	0.791660	0.632600
N61	N6	0.143500	0.849650	0.617150
N71	N7	0.155400	0.904580	0.684620
N81	N8	0.183880	0.848340	0.700100
N91	N9	0.161800	0.852800	0.736800
N101	N10	0.382300	0.645750	0.630850
N111	N11	0.307010	0.672800	0.640980
N121	N12	0.277100	0.639950	0.631450
N131	N13	0.398250	0.701640	0.697660
N141	N14	0.322500	0.727900	0.708700
N151	N15	0.297900	0.734900	0.744900
N161	N16	0.393800	0.775250	0.622750
N171	N17	0.317980	0.802320	0.632120
N181	N18	0.291190	0.861070	0.618750
N191	N19	0.372700	0.230300	0.245300
N201	N20	0.395110	0.222180	0.209400
N211	N21	0.471710	0.192720	0.198460
N221	N22	0.481370	0.256970	0.122890
N231	N23	0.406170	0.291660	0.132600
N241	N24	0.389700	0.349650	0.117150
N251	N25	0.255400	0.404580	0.184620
N261	N26	0.267680	0.348340	0.200100
N271	N27	0.248600	0.352800	0.236800
N281	N28	0.341100	0.145750	0.130850
N291	N29	0.379210	0.172800	0.140980
N301	N30	0.451500	0.139950	0.131450
N311	N31	0.202450	0.201640	0.197660
N321	N32	0.240900	0.227900	0.208700
N331	N33	0.222300	0.234900	0.244900
N341	N34	0.208200	0.275250	0.122750
N351	N35	0.247580	0.302320	0.132120
N361	N36	0.228990	0.361070	0.118750
O11	O1	0.161800	0.629600	0.587400
O21	O2	0.119200	0.611600	0.646600
O31	O3	0.087900	0.994200	0.611400
O41	O4	0.182800	0.002500	0.619100
O51	O5	0.150400	0.322100	0.313100
O61	O6	0.264300	0.267670	0.322930
O71	O7	0.034470	0.427470	0.580790
O81	O8	0.772000	0.473700	0.528100
O91	O9	0.943200	0.205300	0.557300
O101	O10	0.221140	0.278220	0.462500
O111	O11	0.082880	0.328040	0.489200
O121	O12	0.998810	0.275460	0.564120
O131	O13	0.886760	0.468110	0.545170
O141	O14	0.013020	0.454760	0.648200
O151	O15	0.621200	0.129600	0.087400
O161	O16	0.622600	0.111600	0.146600
O171	O17	0.306500	0.494200	0.111400
O181	O18	0.195600	0.502500	0.119100
O191	O19	0.214400	0.822100	0.813100
O201	O20	0.145100	0.767670	0.822930
O211	O21	0.957270	0.927470	0.080790
O221	O22	0.226200	0.973700	0.028100
O231	O23	0.294200	0.705300	0.057300
O241	O24	0.038140	0.778220	0.962500
O251	O25	0.099880	0.828040	0.989200
O261	O26	0.161610	0.775460	0.064120
O271	O27	0.099960	0.968110	0.045170
O281	O28	0.884020	0.954760	0.148200
Zn111	Zn11	0.677840	0.739450	0.829770
Zn121	Zn12	0.720920	0.586270	0.872390
Zn131	Zn13	0.479240	0.828490	0.856790
Zn141	Zn14	0.774750	0.813480	0.858880
Zn151	Zn15	0.737860	0.723380	0.731000
Zn161	Zn16	0.752940	0.239450	0.329770
Zn171	Zn17	0.820420	0.086270	0.372390
Zn181	Zn18	0.835480	0.328490	0.356790
Zn191	Zn19	0.552890	0.313480	0.358880
Zn201	Zn20	0.807760	0.223380	0.231000
H1371	H137	0.603300	0.778500	0.686900
H1381	H138	0.484800	0.821600	0.675600
H1391	H139	0.382700	0.861300	0.787300
H1401	H140	0.339700	0.876400	0.696800
H1411	H141	0.308800	0.854600	0.737400
H1421	H142	0.313900	0.920000	0.731000
H1431	H143	0.567000	0.559600	0.925200
H1441	H144	0.445000	0.581800	0.957400
H1451	H145	0.374600	0.759800	0.914600
H1461	H146	0.313200	0.643800	0.967400
H1471	H147	0.294600	0.714400	0.972800
H1481	H148	0.285800	0.694000	0.936200
H1491	H149	0.788300	0.581600	0.696400
H1501	H150	0.810400	0.420500	0.753700
H1511	H151	0.776600	0.467900	0.813300
H1521	H152	0.836500	0.418000	0.689600
H1531	H153	0.776000	0.479500	0.675700
H1541	H154	0.862400	0.468300	0.665300
H1551	H155	0.654200	0.956000	0.906800
H1561	H156	0.424700	0.035800	0.931800
H1571	H157	0.424100	0.955200	0.901800
H1581	H158	0.473600	0.069700	0.962700
H1591	H159	0.538900	0.012700	0.976700
H1601	H160	0.557900	0.064100	0.949700
H1611	H161	0.862800	0.779600	0.686200
H1621	H162	0.941900	0.827600	0.677800
H1631	H163	0.907200	0.851300	0.787900
H1641	H164	0.999500	0.882400	0.739600
H1651	H165	0.040400	0.836900	0.705500
H1661	H166	0.977400	0.903900	0.700900
H1671	H167	0.256300	0.961800	0.842600
H1681	H168	0.127400	0.015000	0.964000
H1691	H169	0.256400	0.942300	0.951100
H1701	H170	0.115700	0.053500	0.797300
H1711	H171	0.195700	0.039100	0.804300
H1721	H172	0.166600	0.985500	0.809100
H1731	H173	0.001300	0.044900	0.969300
H1741	H174	0.016400	0.105500	0.969500
H1751	H175	0.918000	0.082800	0.910000
H1761	H176	0.836200	0.114200	0.936800
H1771	H177	0.878800	0.097000	0.008200
H1781	H178	0.818900	0.160000	0.994800
H1791	H179	0.943400	0.175700	0.907900
H1801	H180	0.939100	0.204400	0.945000
H1811	H181	0.991800	0.948700	0.905700
H1821	H182	0.950100	0.892000	0.872000
H1831	H183	0.760500	0.944300	0.940700
H1841	H184	0.667700	0.042800	0.010200
H1851	H185	0.679800	0.004100	0.975700
H1861	H186	0.722000	0.971000	0.007800
H1871	H187	0.798900	0.143900	0.063300
H1881	H188	0.775400	0.153300	0.127700
H1891	H189	0.922400	0.232900	0.110100
H1901	H190	0.038700	0.254500	0.028100
H1911	H191	0.973600	0.280100	0.064500
H1921	H192	0.036600	0.211500	0.064300
H1931	H193	0.927100	0.277400	0.907000
H1941	H194	0.891700	0.385300	0.887100
H1951	H195	0.678000	0.409800	0.919200
H1961	H196	0.614900	0.297500	0.957700
H1971	H197	0.623800	0.360900	0.956500
H1981	H198	0.634700	0.330000	0.919000
H1991	H199	0.851300	0.542500	0.919500
H2001	H200	0.964300	0.636600	0.943600
H2011	H201	0.893700	0.726300	0.911900
H2021	H202	0.947100	0.491200	0.958800
H2031	H203	0.014100	0.513400	0.945000
H2041	H204	0.953500	0.538200	0.982800
H2051	H205	0.931300	0.278500	0.186900
H2061	H206	0.018000	0.321600	0.175600
H2071	H207	0.968700	0.361300	0.287300
H2081	H208	0.087100	0.376400	0.196800
H2091	H209	0.099200	0.354600	0.237400
H2101	H210	0.035100	0.420000	0.231000
H2111	H211	0.948200	0.059600	0.425200
H2121	H212	0.015800	0.081800	0.457400
H2131	H213	0.951000	0.259800	0.414600
H2141	H214	0.075600	0.143800	0.467400
H2151	H215	0.018200	0.214400	0.472800
H2161	H216	0.084000	0.194000	0.436200
H2171	H217	0.933700	0.081600	0.196400
H2181	H218	0.015400	0.920500	0.253700
H2191	H219	0.942200	0.967900	0.313300
H2201	H220	0.055900	0.918000	0.189600
H2211	H221	0.068800	0.979500	0.175700
H2221	H222	0.004000	0.968300	0.165300
H2231	H223	0.483000	0.456000	0.406800
H2241	H224	0.607700	0.535800	0.431800
H2251	H225	0.718900	0.455200	0.401800
H2261	H226	0.494000	0.569700	0.462700
H2271	H227	0.471700	0.512700	0.476700
H2281	H228	0.428300	0.564100	0.449700
H2291	H229	0.671400	0.279600	0.186200
H2301	H230	0.552700	0.327600	0.177800
H2311	H231	0.453600	0.351300	0.287900
H2321	H232	0.378500	0.382400	0.239600
H2331	H233	0.417200	0.336900	0.205500
H2341	H234	0.417800	0.403900	0.200900
H2351	H235	0.939300	0.461800	0.342600
H2361	H236	0.893600	0.515000	0.464000
H2371	H237	0.850200	0.442300	0.451100
H2381	H238	0.033500	0.553500	0.297300
H2391	H239	0.960900	0.539100	0.304300
H2401	H240	0.038800	0.485500	0.309100
H2411	H241	0.984500	0.544900	0.469300
H2421	H242	0.908600	0.605500	0.469500
H2431	H243	0.089200	0.582800	0.410000
H2441	H244	0.112800	0.614200	0.436800
H2451	H245	0.016000	0.597000	0.508200
H2461	H246	0.026300	0.660000	0.494800
H2471	H247	0.973000	0.675700	0.407900
H2481	H248	0.911500	0.704400	0.445000
H2491	H249	0.153800	0.448700	0.405700
H2501	H250	0.285900	0.392000	0.372000
H2511	H251	0.354500	0.444300	0.440700
H2521	H252	0.279300	0.542800	0.510200
H2531	H253	0.340400	0.504100	0.475700
H2541	H254	0.299200	0.471000	0.507800
H2551	H255	0.993900	0.643900	0.563300
H2561	H256	0.943600	0.653300	0.627700
H2571	H257	0.734600	0.732900	0.610100
H2581	H258	0.678700	0.754500	0.528100
H2591	H259	0.681800	0.780100	0.564500
H2601	H260	0.687600	0.711500	0.564300
H2611	H261	0.888500	0.777400	0.407000
H2621	H262	0.835900	0.885300	0.387100
H2631	H263	0.993000	0.909800	0.419200
H2641	H264	0.129900	0.797500	0.457700
H2651	H265	0.058800	0.860900	0.456500
H2661	H266	0.116300	0.830000	0.419000
H2671	H267	0.686700	0.042500	0.419500
H2681	H268	0.455500	0.136600	0.443600
H2691	H269	0.468100	0.226300	0.411900
H2701	H270	0.602900	0.991200	0.458800
H2711	H271	0.527500	0.013400	0.445000
H2721	H272	0.525500	0.038200	0.482800
C1571	C157	0.500600	0.815900	0.771100
C1581	C158	0.561800	0.795400	0.743600
C1591	C159	0.559400	0.795100	0.706100
C1601	C160	0.490000	0.820200	0.700000
C1611	C161	0.423100	0.845100	0.729300
C1621	C162	0.425400	0.844700	0.767500
C1631	C163	0.337800	0.877200	0.723000
C1641	C164	0.488300	0.705100	0.898700
C1651	C165	0.544700	0.647300	0.902300
C1661	C166	0.528500	0.599300	0.923500
C1671	C167	0.457300	0.611600	0.941200
C1681	C168	0.400500	0.670000	0.935200
C1691	C169	0.413200	0.719900	0.915900
C1701	C170	0.315200	0.681800	0.954800
C1711	C171	0.767700	0.554000	0.787000
C1721	C172	0.773000	0.583500	0.754700
C1731	C173	0.790100	0.558000	0.718600
C1741	C174	0.809500	0.495600	0.720400
C1751	C175	0.801600	0.462500	0.754500
C1761	C176	0.780900	0.489700	0.790500
C1771	C177	0.822300	0.462300	0.684300
C1781	C178	0.538700	0.907500	0.886300
C1791	C179	0.607690	0.907620	0.887800
C1801	C180	0.608100	0.955800	0.905800
C1811	C181	0.539540	0.003820	0.922300
C1821	C182	0.470600	0.003600	0.920800
C1831	C183	0.470200	0.955400	0.902800
C1841	C184	0.526500	0.041100	0.955900
C1851	C185	0.843500	0.809900	0.770700
C1861	C186	0.829000	0.788600	0.744200
C1871	C187	0.869400	0.794400	0.706600
C1881	C188	0.917500	0.822400	0.702400
C1891	C189	0.935600	0.844200	0.729200
C1901	C190	0.898200	0.838600	0.767600
C1911	C191	0.992900	0.868900	0.717900
C1921	C192	0.347300	0.895000	0.888000
C1931	C193	0.263800	0.948100	0.894900
C1941	C194	0.231200	0.972700	0.867500
C1951	C195	0.155900	0.016500	0.877900
C1961	C196	0.115300	0.031800	0.913200
C1971	C197	0.153190	0.004720	0.939100
C1981	C198	0.230800	0.960600	0.932200
C1991	C199	0.151500	0.029600	0.812200
C2001	C200	0.997950	0.084330	0.956170
C2011	C201	0.918650	0.123960	0.955140
C2021	C202	0.889930	0.089640	0.936100
C2031	C203	0.872550	0.136300	0.994400
C2041	C204	0.915710	0.184500	0.933880
C2051	C205	0.885300	0.994100	0.937300
C2061	C206	0.941600	0.952700	0.911500
C2071	C207	0.916400	0.914200	0.893200
C2081	C208	0.856100	0.910100	0.903700
C2091	C209	0.808900	0.944200	0.931200
C2101	C210	0.833700	0.980800	0.946600
C2111	C211	0.704000	0.009200	0.993600
C2121	C212	0.760800	0.475500	0.890500
C2131	C213	0.877600	0.179100	0.047500
C2141	C214	0.825120	0.161260	0.072500
C2151	C215	0.809400	0.167800	0.111200
C2161	C216	0.844200	0.195400	0.123600
C2171	C217	0.897500	0.214500	0.100700
C2181	C218	0.912500	0.204300	0.062900
C2191	C219	0.005900	0.243700	0.049500
C2201	C220	0.827000	0.201300	0.165700
C2211	C221	0.823100	0.282900	0.923300
C2221	C222	0.875900	0.304200	0.909400
C2231	C223	0.854700	0.369700	0.897500
C2241	C224	0.778600	0.407600	0.902200
C2251	C225	0.729900	0.384200	0.915800
C2261	C226	0.753200	0.321500	0.925500
C2271	C227	0.642400	0.321800	0.944000
C2281	C228	0.834600	0.683500	0.898100
C2291	C229	0.823400	0.631800	0.899000
C2301	C230	0.860100	0.578600	0.918400
C2311	C231	0.911400	0.581900	0.936300
C2321	C232	0.927000	0.636500	0.932900
C2331	C233	0.886400	0.689300	0.913900
C2341	C234	0.961300	0.525800	0.957800
C2351	C235	0.912400	0.315900	0.271100
C2361	C236	0.899200	0.295400	0.243600
C2371	C237	0.939400	0.295100	0.206100
C2381	C238	0.989800	0.320200	0.200000
C2391	C239	0.002500	0.345100	0.229300
C2401	C240	0.962400	0.344700	0.267500
C2411	C241	0.062000	0.377200	0.223000
C2421	C242	0.907900	0.205100	0.398700
C2431	C243	0.905700	0.147300	0.402300
C2441	C244	0.948700	0.099300	0.423500
C2451	C245	0.989900	0.111600	0.441200
C2461	C246	0.994300	0.170000	0.435200
C2471	C247	0.951000	0.219900	0.415900
C2481	C248	0.048200	0.181800	0.454800
C2491	C249	0.891300	0.054000	0.287000
C2501	C250	0.888800	0.083500	0.254700
C2511	C251	0.933300	0.058000	0.218600
C2521	C252	0.974500	0.995600	0.220400
C2531	C253	0.981400	0.962500	0.254500
C2541	C254	0.938900	0.989700	0.290500
C2551	C255	0.031100	0.962300	0.184300
C2561	C256	0.667500	0.407500	0.386300
C2571	C257	0.596890	0.407620	0.387800
C2581	C258	0.530300	0.455800	0.405800
C2591	C259	0.534340	0.503820	0.422300
C2601	C260	0.605000	0.503600	0.420800
C2611	C261	0.671600	0.455400	0.402800
C2621	C262	0.476500	0.541100	0.455900
C2631	C263	0.575900	0.309900	0.270700
C2641	C264	0.638200	0.288600	0.244200
C2651	C265	0.629600	0.294400	0.206600
C2661	C266	0.557700	0.322400	0.202400
C2671	C267	0.491000	0.344200	0.229200
C2681	C268	0.495600	0.338600	0.267600
C2691	C269	0.420300	0.368900	0.217900
C2701	C270	0.869700	0.395000	0.388000
C2711	C271	0.893200	0.448100	0.394900
C2721	C272	0.928600	0.472700	0.367500
C2731	C273	0.949700	0.516500	0.377900
C2741	C274	0.939700	0.531800	0.413200
C2751	C275	0.902990	0.504720	0.439100
C2761	C276	0.876400	0.460600	0.432200
C2771	C277	0.006700	0.529600	0.312200
C2781	C278	0.961550	0.584330	0.456170
C2791	C279	0.002250	0.623960	0.455140
C2801	C280	0.084330	0.589640	0.436100
C2811	C281	0.996750	0.636300	0.494400
C2821	C282	0.965910	0.684500	0.433880
C2831	C283	0.183300	0.494100	0.437300
C2841	C284	0.194200	0.452700	0.411500
C2851	C285	0.276200	0.414200	0.393200
C2861	C286	0.330100	0.410100	0.403700
C2871	C287	0.315700	0.444200	0.431200
C2881	C288	0.238900	0.480800	0.446600
C2891	C289	0.293200	0.509200	0.493600
C2901	C290	0.873200	0.975500	0.390500
C2911	C291	0.895800	0.679100	0.547500
C2921	C292	0.941120	0.661260	0.572500
C2931	C293	0.911600	0.667800	0.611200
C2941	C294	0.836800	0.695400	0.623600
C2951	C295	0.787300	0.714500	0.600700
C2961	C296	0.820300	0.704300	0.562900
C2971	C297	0.700900	0.743700	0.549500
C2981	C298	0.806000	0.701300	0.665700
C2991	C299	0.970700	0.782900	0.423300
C3001	C300	0.910500	0.804200	0.409400
C3011	C301	0.878100	0.869700	0.397500
C3021	C302	0.911600	0.907600	0.402200
C3031	C303	0.970100	0.884200	0.415800
C3041	C304	0.999800	0.821500	0.425500
C3051	C305	0.091800	0.821800	0.444000
C3061	C306	0.583800	0.183500	0.398100
C3071	C307	0.645800	0.131800	0.399000
C3081	C308	0.642900	0.078600	0.418400
C3091	C309	0.570400	0.081900	0.436300
C3101	C310	0.503600	0.136500	0.432900
C3111	C311	0.510400	0.189300	0.413900
C3121	C312	0.555100	0.025800	0.457800
N371	N37	0.627300	0.769700	0.754700
N381	N38	0.604890	0.777820	0.790600
N391	N39	0.528290	0.807280	0.801540
N401	N40	0.518630	0.743030	0.877110
N411	N41	0.593830	0.708340	0.867400
N421	N42	0.610300	0.650350	0.882850
N431	N43	0.744600	0.595420	0.815380
N441	N44	0.732320	0.651660	0.799900
N451	N45	0.751400	0.647200	0.763200
N461	N46	0.658900	0.854250	0.869150
N471	N47	0.620790	0.827200	0.859020
N481	N48	0.548500	0.860050	0.868550
N491	N49	0.797550	0.798360	0.802340
N501	N50	0.759100	0.772100	0.791300
N511	N51	0.777700	0.765100	0.755100
N521	N52	0.791800	0.724750	0.877250
N531	N53	0.752420	0.697680	0.867880
N541	N54	0.771010	0.638930	0.881250
N551	N55	0.848300	0.269700	0.254700
N561	N56	0.826690	0.277820	0.290600
N571	N57	0.862890	0.307280	0.301540
N581	N58	0.861230	0.243030	0.377110
N591	N59	0.830430	0.208340	0.367400
N601	N60	0.856500	0.150350	0.382850
N611	N61	0.844600	0.095420	0.315380
N621	N62	0.816120	0.151660	0.299900
N631	N63	0.838200	0.147200	0.263200
N641	N64	0.617700	0.354250	0.369150
N651	N65	0.692990	0.327200	0.359020
N661	N66	0.722900	0.360050	0.368550
N671	N67	0.601750	0.298360	0.302340
N681	N68	0.677500	0.272100	0.291300
N691	N69	0.702100	0.265100	0.255100
N701	N70	0.606200	0.224750	0.377250
N711	N71	0.682020	0.197680	0.367880
N721	N72	0.708810	0.138930	0.381250
O291	O29	0.378800	0.870400	0.912600
O301	O30	0.377400	0.888400	0.853400
O311	O31	0.693500	0.505800	0.888600
O321	O32	0.804400	0.497500	0.880900
O331	O33	0.785600	0.177900	0.186900
O341	O34	0.854900	0.232330	0.177070
O351	O35	0.042730	0.072530	0.919210
O361	O36	0.773800	0.026300	0.971900
O371	O37	0.705800	0.294700	0.942700
O381	O38	0.961860	0.221780	0.037500
O391	O39	0.900120	0.171960	0.010800
O401	O40	0.838390	0.224540	0.935880
O411	O41	0.900040	0.031890	0.954830
O421	O42	0.115980	0.045240	0.851800
O431	O43	0.838200	0.370400	0.412600
O441	O44	0.880800	0.388400	0.353400
O451	O45	0.912100	0.005800	0.388600
O461	O46	0.817200	0.997500	0.380900
O471	O47	0.849600	0.677900	0.686900
O481	O48	0.735700	0.732330	0.677070
O491	O49	0.965530	0.572530	0.419210
O501	O50	0.228000	0.526300	0.471900
O511	O51	0.056800	0.794700	0.442700
O521	O52	0.778860	0.721780	0.537500
O531	O53	0.917120	0.671960	0.510800
O541	O54	0.001190	0.724540	0.435880
O551	O55	0.113240	0.531890	0.454830
O561	O56	0.986980	0.545240	0.351800
