data_FAZFET_clean_PM
_symmetry_space_group_name_H-M	'P1'
_cell_length_a	27.960800
_cell_length_b	27.960800
_cell_length_c	27.960800
_cell_angle_alpha	66.345300
_cell_angle_beta	78.606100
_cell_angle_gamma	113.655000
_symmetry_Int_Tables_number 1

loop_
_symmetry_equiv_pos_as_xyz
'x,y,z'

loop_
_atom_site_label
_atom_site_type_symbol
_atom_site_fract_x
_atom_site_fract_y
_atom_site_fract_z
V11	V1	0.352300	0.605190	0.345070
V21	V2	0.349350	0.698540	0.243050
V31	V3	0.426710	0.829130	0.158520
V41	V4	0.525480	0.929950	0.152930
V51	V5	0.600390	0.938300	0.206790
V61	V6	0.599880	0.847280	0.312680
V71	V7	0.529490	0.706470	0.394460
V81	V8	0.425570	0.608780	0.413830
V91	V9	0.454990	0.702720	0.189670
V101	V10	0.574800	0.749230	0.177990
V111	V11	0.575850	0.866920	0.116850
V121	V12	0.502660	0.640940	0.302600
V131	V13	0.374550	0.830770	0.262000
V141	V14	0.376960	0.788520	0.380680
V151	V15	0.450990	0.744570	0.426680
V161	V16	0.493340	0.895390	0.302650
V171	V17	0.049740	0.394810	0.252890
V181	V18	0.058410	0.301460	0.349190
V191	V19	0.012350	0.170870	0.402420
V201	V20	0.917120	0.070050	0.404470
V211	V21	0.854910	0.061700	0.337910
V221	V22	0.840040	0.152720	0.247400
V231	V23	0.899070	0.293530	0.176980
V241	V24	0.977390	0.391220	0.183210
V251	V25	0.107610	0.297280	0.247730
V261	V26	0.072780	0.250770	0.174430
V271	V27	0.016230	0.133080	0.291070
V281	V28	0.056460	0.359060	0.138280
V291	V29	0.907230	0.169230	0.456220
V301	V30	0.830800	0.211480	0.411560
V311	V31	0.828750	0.255430	0.293580
V321	V32	0.801960	0.104610	0.402050
V331	V33	0.997110	0.197370	0.897700
V341	V34	0.900810	0.092400	0.900650
V351	V35	0.847580	0.085230	0.823290
V361	V36	0.845530	0.178410	0.724520
V371	V37	0.912090	0.307180	0.649610
V381	V38	0.002600	0.412560	0.650120
V391	V39	0.073020	0.423950	0.720510
V401	V40	0.066790	0.339400	0.824430
V411	V41	0.002270	0.144660	0.795010
V421	V42	0.075570	0.252790	0.675200
V431	V43	0.958930	0.192700	0.674150
V441	V44	0.111720	0.305260	0.747340
V451	V45	0.793780	0.136550	0.875450
V461	V46	0.838440	0.257640	0.873040
V471	V47	0.956420	0.377670	0.799010
V481	V48	0.847950	0.295990	0.756660
V491	V49	0.904930	0.802630	0.200260
V501	V50	0.006950	0.907600	0.191590
V511	V51	0.091480	0.914770	0.237650
V521	V52	0.097070	0.821590	0.332880
V531	V53	0.043210	0.692820	0.395090
V541	V54	0.937320	0.587440	0.409960
V551	V55	0.855540	0.576050	0.350930
V561	V56	0.836170	0.660600	0.272610
V571	V57	0.060330	0.855340	0.142390
V581	V58	0.072010	0.747210	0.177220
V591	V59	0.133150	0.807300	0.233770
V601	V60	0.947400	0.694740	0.193540
V611	V61	0.988000	0.863450	0.342770
V621	V62	0.869320	0.742360	0.419200
V631	V63	0.823320	0.622330	0.421250
V641	V64	0.947350	0.704010	0.448040
V651	V65	0.549740	0.302630	0.845070
V661	V66	0.558410	0.407600	0.743050
V671	V67	0.512350	0.414770	0.658520
V681	V68	0.417120	0.321590	0.652930
V691	V69	0.354910	0.192820	0.706790
V701	V70	0.340040	0.087440	0.812680
V711	V71	0.399070	0.076050	0.894460
V721	V72	0.477390	0.160600	0.913830
V731	V73	0.607610	0.355340	0.689670
V741	V74	0.572780	0.247210	0.677990
V751	V75	0.516230	0.307300	0.616850
V761	V76	0.556460	0.194740	0.802600
V771	V77	0.407230	0.363450	0.762000
V781	V78	0.330800	0.242360	0.880680
V791	V79	0.328750	0.122330	0.926680
V801	V80	0.301960	0.204010	0.802650
V811	V81	0.852300	0.697370	0.752890
V821	V82	0.849350	0.592400	0.849190
V831	V83	0.926710	0.585230	0.902420
V841	V84	0.025480	0.678410	0.904470
V851	V85	0.100390	0.807180	0.837910
V861	V86	0.099880	0.912560	0.747400
V871	V87	0.029490	0.923950	0.676980
V881	V88	0.925570	0.839400	0.683210
V891	V89	0.954990	0.644660	0.747730
V901	V90	0.074800	0.752790	0.674430
V911	V91	0.075850	0.692700	0.791070
V921	V92	0.002660	0.805260	0.638280
V931	V93	0.874550	0.636550	0.956220
V941	V94	0.876960	0.757640	0.911560
V951	V95	0.950990	0.877670	0.793580
V961	V96	0.993340	0.795990	0.902050
V971	V97	0.404930	0.105190	0.397700
V981	V98	0.506950	0.198540	0.400650
V991	V99	0.591480	0.329130	0.323290
V1001	V100	0.597070	0.429950	0.224520
V1011	V101	0.543210	0.438300	0.149610
V1021	V102	0.437320	0.347280	0.150120
V1031	V103	0.355540	0.206470	0.220510
V1041	V104	0.336170	0.108780	0.324430
V1051	V105	0.560330	0.202720	0.295010
V1061	V106	0.572010	0.249230	0.175200
V1071	V107	0.633150	0.366920	0.174150
V1081	V108	0.447400	0.140940	0.247340
V1091	V109	0.488000	0.330770	0.375450
V1101	V110	0.369320	0.288520	0.373040
V1111	V111	0.323320	0.244570	0.299010
V1121	V112	0.447350	0.395390	0.256660
V1131	V113	0.497110	0.894810	0.700260
V1141	V114	0.400810	0.801460	0.691590
V1151	V115	0.347580	0.670870	0.737650
V1161	V116	0.345530	0.570050	0.832880
V1171	V117	0.412090	0.561700	0.895090
V1181	V118	0.502600	0.652720	0.909960
V1191	V119	0.573020	0.793530	0.850930
V1201	V120	0.566790	0.891220	0.772610
V1211	V121	0.502270	0.797280	0.642390
V1221	V122	0.575570	0.750770	0.677220
V1231	V123	0.458930	0.633080	0.733770
V1241	V124	0.611720	0.859060	0.693540
V1251	V125	0.293780	0.669230	0.842770
V1261	V126	0.338440	0.711480	0.919200
V1271	V127	0.456420	0.755430	0.921250
V1281	V128	0.347950	0.604610	0.948040
Co11	Co1	0.205810	0.662390	0.279640
Co21	Co2	0.733790	0.043860	0.096610
Co31	Co3	0.447680	0.708990	0.064310
Co41	Co4	0.057970	0.337610	0.456580
Co51	Co5	0.859530	0.956140	0.310070
Co61	Co6	0.226700	0.291010	0.261310
Co71	Co7	0.793420	0.985450	0.044190
Co81	Co8	0.939930	0.330400	0.516210
Co91	Co9	0.988690	0.011990	0.802320
Co101	Co10	0.970360	0.014550	0.192030
Co111	Co11	0.153390	0.669600	0.390470
Co121	Co12	0.185690	0.988010	0.023300
Co131	Co13	0.557970	0.514550	0.779640
Co141	Co14	0.359530	0.169600	0.596610
Co151	Co15	0.726700	0.488010	0.564310
Co161	Co16	0.705810	0.485450	0.956580
Co171	Co17	0.233790	0.830400	0.810070
Co181	Co18	0.947680	0.511990	0.761310
Co191	Co19	0.470360	0.162390	0.544190
Co201	Co20	0.653390	0.543860	0.016210
Co211	Co21	0.685690	0.208990	0.302320
Co221	Co22	0.293420	0.837610	0.692030
Co231	Co23	0.439930	0.456140	0.890470
Co241	Co24	0.488690	0.791010	0.523300
Ge11	Ge1	0.281380	0.679550	0.362710
Ge21	Ge2	0.321840	0.633220	0.453280
Ge31	Ge3	0.669770	0.881260	0.172670
Ge41	Ge4	0.633200	0.757650	0.271990
Ge51	Ge5	0.957740	0.320450	0.398170
Ge61	Ge6	0.913500	0.366780	0.311380
Ge71	Ge7	0.946070	0.118740	0.211490
Ge81	Ge8	0.970360	0.242350	0.124450
Ge91	Ge9	0.851830	0.144090	0.968620
Ge101	Ge10	0.938620	0.275120	0.928160
Ge111	Ge11	0.038510	0.342440	0.580230
Ge121	Ge12	0.125550	0.405190	0.616800
Ge131	Ge13	0.887290	0.855910	0.292260
Ge141	Ge14	0.796720	0.724880	0.336500
Ge151	Ge15	0.077330	0.657560	0.303930
Ge161	Ge16	0.978010	0.594810	0.279640
Ge171	Ge17	0.457740	0.355910	0.862710
Ge181	Ge18	0.413500	0.224880	0.953280
Ge191	Ge19	0.446070	0.157560	0.672670
Ge201	Ge20	0.470360	0.094810	0.771990
Ge211	Ge21	0.781380	0.644090	0.898170
Ge221	Ge22	0.821840	0.775120	0.811380
Ge231	Ge23	0.169770	0.842440	0.711490
Ge241	Ge24	0.133200	0.905190	0.624450
Ge251	Ge25	0.387290	0.179550	0.468620
Ge261	Ge26	0.296720	0.133220	0.428160
Ge271	Ge27	0.577330	0.381260	0.080230
Ge281	Ge28	0.478010	0.257650	0.116800
Ge291	Ge29	0.351830	0.820450	0.792260
Ge301	Ge30	0.438620	0.866780	0.836500
Ge311	Ge31	0.538510	0.618740	0.803930
Ge321	Ge32	0.625550	0.742350	0.779640
H11	H1	0.233300	0.774600	0.225500
H21	H2	0.287200	0.776200	0.216200
H31	H3	0.210300	0.646700	0.193800
H41	H4	0.151500	0.630000	0.222100
H51	H5	0.195200	0.565400	0.350400
H61	H6	0.140700	0.548600	0.347100
H71	H7	0.697900	0.041300	0.019400
H81	H8	0.647400	0.014700	0.070900
H91	H9	0.741500	0.138900	0.102000
H101	H10	0.777400	0.164300	0.041900
H111	H11	0.816200	0.075100	0.128100
H121	H12	0.769700	0.072500	0.165000
H131	H13	0.386700	0.734300	0.117200
H141	H14	0.404100	0.774100	0.055800
H151	H15	0.369800	0.631500	0.052900
H161	H16	0.371700	0.595500	0.106600
H171	H17	0.530000	0.824700	0.009300
H181	H18	0.528900	0.795300	0.066400
H191	H19	0.489300	0.642800	0.063100
H201	H20	0.509900	0.690000	0.002900
H211	H21	0.293100	0.768700	0.144600
H221	H22	0.266500	0.809700	0.137600
H231	H23	0.171100	0.722800	0.175300
H241	H24	0.210500	0.720500	0.128600
H251	H25	0.226300	0.555000	0.282100
H261	H26	0.167200	0.537000	0.278200
H271	H27	0.649000	0.096000	0.019400
H281	H28	0.716100	0.133100	0.983000
H291	H29	0.659400	0.106500	0.092500
H301	H30	0.702100	0.172400	0.036500
H311	H31	0.769100	0.969600	0.184700
H321	H32	0.726400	0.972900	0.226900
H331	H33	0.332800	0.706500	0.052900
H341	H34	0.303800	0.693700	0.114500
H351	H35	0.317300	0.612500	0.157800
H361	H36	0.287400	0.600700	0.118300
H371	H37	0.607100	0.807900	0.019400
H381	H38	0.587700	0.805700	0.971000
H391	H39	0.589500	0.718700	0.015000
H401	H40	0.556600	0.702900	0.076900
H411	H41	0.999900	0.225400	0.541300
H421	H42	0.007600	0.223800	0.489000
H431	H43	0.159500	0.353300	0.436400
H441	H44	0.147900	0.370000	0.478500
H451	H45	0.084200	0.434600	0.370200
H461	H46	0.104300	0.451400	0.407900
H471	H47	0.939300	0.958700	0.343400
H481	H48	0.914400	0.985300	0.367300
H491	H49	0.759100	0.861100	0.397400
H501	H50	0.793800	0.835700	0.386900
H511	H51	0.796800	0.924900	0.258900
H521	H52	0.762500	0.927500	0.302800
H531	H53	0.148500	0.265700	0.347600
H541	H54	0.170100	0.225900	0.370000
H551	H55	0.315600	0.368500	0.261700
H561	H56	0.297900	0.404500	0.223800
H571	H57	0.166000	0.175300	0.294700
H581	H58	0.138300	0.204700	0.266400
H591	H59	0.294100	0.357200	0.153500
H601	H60	0.307100	0.310000	0.180100
H611	H61	0.086700	0.231300	0.475600
H621	H62	0.052700	0.190300	0.543200
H631	H63	0.101900	0.277200	0.551700
H641	H64	0.150900	0.279500	0.510000
H651	H65	0.162900	0.445000	0.328700
H661	H66	0.184800	0.463000	0.369800
H671	H67	0.884600	0.904000	0.447000
H681	H68	0.883900	0.866900	0.417000
H691	H69	0.801000	0.893500	0.447100
H701	H70	0.791100	0.827600	0.470300
H711	H71	0.845700	0.030400	0.200500
H721	H72	0.800200	0.027100	0.246500
H731	H73	0.240600	0.293500	0.373700
H741	H74	0.191800	0.306300	0.389900
H751	H75	0.229700	0.387500	0.295200
H761	H76	0.281000	0.399300	0.313300
H771	H77	0.172700	0.192100	0.200800
H781	H78	0.223300	0.194300	0.218000
H791	H79	0.266300	0.281300	0.129200
H801	H80	0.220200	0.297100	0.146300
H811	H81	0.708700	0.958800	0.016700
H821	H82	0.761000	0.003400	0.962800
H831	H83	0.813600	0.904100	0.039700
H841	H84	0.771500	0.873600	0.098500
H851	H85	0.879800	0.045600	0.054800
H861	H86	0.842100	0.987800	0.109300
H871	H87	0.906600	0.217300	0.552100
H881	H88	0.882700	0.218300	0.602600
H891	H89	0.852600	0.343500	0.508500
H901	H90	0.863100	0.319300	0.472600
H911	H91	0.991100	0.444300	0.433800
H921	H92	0.947200	0.434700	0.480300
H931	H93	0.902400	0.003900	0.863300
H941	H94	0.880000	0.959900	0.845900
H951	H95	0.988300	0.922700	0.880200
H961	H96	0.026200	0.978300	0.878300
H971	H97	0.955300	0.039300	0.720000
H981	H98	0.983600	0.095300	0.721100
H991	H99	0.096500	0.052400	0.760700
H1001	H100	0.069900	0.012800	0.740100
H1011	H101	0.774400	0.937700	0.956900
H1021	H102	0.706800	0.904100	0.983500
H1031	H103	0.698300	0.846400	0.078900
H1041	H104	0.740000	0.839100	0.039500
H1051	H105	0.921300	0.008400	0.023700
H1061	H106	0.880200	0.945400	0.082800
H1071	H107	0.803000	0.168400	0.601000
H1081	H108	0.833000	0.199100	0.533900
H1091	H109	0.802900	0.251900	0.590600
H1101	H110	0.779700	0.238600	0.547900
H1111	H111	0.049500	0.453800	0.480900
H1121	H112	0.003500	0.453300	0.523600
H1131	H113	0.876300	0.885700	0.917200
H1141	H114	0.860100	0.918300	0.946200
H1151	H115	0.954800	0.975100	0.932700
H1161	H116	0.936700	0.905700	0.962600
H1171	H117	0.049200	0.126500	0.642900
H1181	H118	0.032000	0.058700	0.662300
H1191	H119	0.120800	0.104500	0.660500
H1201	H120	0.103700	0.133500	0.693400
H1211	H121	0.024500	0.041200	0.250100
H1221	H122	0.033800	0.996600	0.242400
H1231	H123	0.056200	0.095900	0.090500
H1241	H124	0.027900	0.126400	0.102100
H1251	H125	0.899600	0.954400	0.165800
H1261	H126	0.902900	0.012200	0.145700
H1271	H127	0.230600	0.782700	0.310700
H1281	H128	0.179100	0.781700	0.335600
H1291	H129	0.148000	0.656500	0.490900
H1301	H130	0.208100	0.680700	0.456200
H1311	H131	0.121900	0.555700	0.453200
H1321	H132	0.085000	0.565300	0.487500
H1331	H133	0.132800	0.996100	0.101500
H1341	H134	0.194200	0.040100	0.079900
H1351	H135	0.197100	0.077300	0.934400
H1361	H136	0.143400	0.021700	0.952100
H1371	H137	0.240700	0.960700	0.084000
H1381	H138	0.183600	0.904700	0.111700
H1391	H139	0.186900	0.947600	0.955900
H1401	H140	0.247100	0.987200	0.942900
H1411	H141	0.105400	0.062300	0.163300
H1421	H142	0.112400	0.095900	0.197300
H1431	H143	0.074700	0.153600	0.148100
H1441	H144	0.121400	0.160900	0.099100
H1451	H145	0.967900	0.991600	0.087100
H1461	H146	0.971800	0.054600	0.065200
H1471	H147	0.230600	0.831600	0.365400
H1481	H148	0.267000	0.800900	0.366100
H1491	H149	0.157500	0.748100	0.449000
H1501	H150	0.213500	0.761400	0.458900
H1511	H151	0.065300	0.546200	0.404300
H1521	H152	0.023100	0.546700	0.449800
H1531	H153	0.197100	0.114300	0.009400
H1541	H154	0.135500	0.081700	0.058200
H1551	H155	0.092200	0.024900	0.020300
H1561	H156	0.131700	0.094300	0.969000
H1571	H157	0.230600	0.873500	0.077300
H1581	H158	0.279000	0.941300	0.026700
H1591	H159	0.235000	0.895500	0.983700
H1601	H160	0.173100	0.866500	0.029800
H1611	H161	0.499900	0.541200	0.725500
H1621	H162	0.507600	0.496600	0.716200
H1631	H163	0.659500	0.595900	0.693800
H1641	H164	0.647900	0.626400	0.722100
H1651	H165	0.584200	0.454400	0.850400
H1661	H166	0.604300	0.512200	0.847100
H1671	H167	0.439300	0.282700	0.519400
H1681	H168	0.414400	0.281700	0.570900
H1691	H169	0.259100	0.156500	0.602000
H1701	H170	0.293800	0.180700	0.541900
H1711	H171	0.296800	0.055700	0.628100
H1721	H172	0.262500	0.065300	0.665000
H1731	H173	0.648500	0.496100	0.617200
H1741	H174	0.670100	0.540100	0.555800
H1751	H175	0.815600	0.577300	0.552900
H1761	H176	0.797900	0.521700	0.606600
H1771	H177	0.666000	0.460700	0.509300
H1781	H178	0.638300	0.404700	0.566400
H1791	H179	0.794100	0.447600	0.563100
H1801	H180	0.807100	0.487200	0.502900
H1811	H181	0.586700	0.562300	0.644600
H1821	H182	0.552700	0.595900	0.637600
H1831	H183	0.601900	0.653600	0.675300
H1841	H184	0.650900	0.660900	0.628600
H1851	H185	0.662900	0.491600	0.782100
H1861	H186	0.684800	0.554600	0.778200
H1871	H187	0.384600	0.331600	0.519400
H1881	H188	0.383900	0.300900	0.483000
H1891	H189	0.301000	0.248100	0.592500
H1901	H190	0.291100	0.261400	0.536500
H1911	H191	0.345700	0.046200	0.684700
H1921	H192	0.300200	0.046700	0.726900
H1931	H193	0.740600	0.614300	0.552900
H1941	H194	0.691800	0.581700	0.614500
H1951	H195	0.729700	0.524900	0.657800
H1961	H196	0.781000	0.594300	0.618300
H1971	H197	0.672700	0.373500	0.519400
H1981	H198	0.723300	0.441300	0.471000
H1991	H199	0.766300	0.395500	0.515000
H2001	H200	0.720200	0.366500	0.576900
H2011	H201	0.733300	0.458800	0.041300
H2021	H202	0.787200	0.503400	0.989000
H2031	H203	0.710300	0.404100	0.936400
H2041	H204	0.651500	0.373600	0.978500
H2051	H205	0.695200	0.545600	0.870200
H2061	H206	0.640700	0.487800	0.907900
H2071	H207	0.197900	0.717300	0.843400
H2081	H208	0.147400	0.718300	0.867300
H2091	H209	0.241500	0.843500	0.897400
H2101	H210	0.277400	0.819300	0.886900
H2111	H211	0.316200	0.944300	0.758900
H2121	H212	0.269700	0.934700	0.802800
H2131	H213	0.886700	0.503900	0.847600
H2141	H214	0.904100	0.459900	0.870000
H2151	H215	0.869800	0.422700	0.761700
H2161	H216	0.871700	0.478300	0.723800
H2171	H217	0.030000	0.539300	0.794700
H2181	H218	0.028900	0.595300	0.766400
H2191	H219	0.989300	0.552400	0.653500
H2201	H220	0.009900	0.512800	0.680100
H2211	H221	0.793100	0.437700	0.975600
H2221	H222	0.766500	0.404100	0.043200
H2231	H223	0.671100	0.346400	0.051700
H2241	H224	0.710500	0.339100	0.010000
H2251	H225	0.726300	0.508400	0.828700
H2261	H226	0.667200	0.445400	0.869800
H2271	H227	0.149000	0.668400	0.947000
H2281	H228	0.216100	0.699100	0.917000
H2291	H229	0.159400	0.751900	0.947100
H2301	H230	0.202100	0.738600	0.970300
H2311	H231	0.269100	0.953800	0.700500
H2321	H232	0.226400	0.953300	0.746500
H2331	H233	0.832800	0.385700	0.873700
H2341	H234	0.803800	0.418300	0.889900
H2351	H235	0.817300	0.475100	0.795200
H2361	H236	0.787400	0.405700	0.813300
H2371	H237	0.107100	0.626500	0.700800
H2381	H238	0.087700	0.558700	0.718000
H2391	H239	0.089500	0.604500	0.629200
H2401	H240	0.056600	0.633500	0.646300
H2411	H241	0.524500	0.274600	0.516700
H2421	H242	0.533800	0.276200	0.462800
H2431	H243	0.556200	0.146700	0.539700
H2441	H244	0.527900	0.130000	0.598500
H2451	H245	0.399600	0.065400	0.554800
H2461	H246	0.402900	0.048600	0.609300
H2471	H247	0.730600	0.541300	0.052100
H2481	H248	0.679100	0.514700	0.102600
H2491	H249	0.648000	0.638900	0.008500
H2501	H250	0.708100	0.664300	0.972600
H2511	H251	0.621900	0.575100	0.933800
H2521	H252	0.585000	0.572500	0.980300
H2531	H253	0.632800	0.234300	0.363300
H2541	H254	0.694200	0.274100	0.345900
H2551	H255	0.697100	0.131500	0.380200
H2561	H256	0.643400	0.095500	0.378300
H2571	H257	0.740700	0.324700	0.220000
H2581	H258	0.683600	0.295300	0.221100
H2591	H259	0.686900	0.142800	0.260700
H2601	H260	0.747100	0.190000	0.240100
H2611	H261	0.605400	0.268700	0.456900
H2621	H262	0.612400	0.309700	0.483500
H2631	H263	0.574700	0.222800	0.578900
H2641	H264	0.621400	0.220500	0.539500
H2651	H265	0.467900	0.055000	0.523700
H2661	H266	0.471800	0.037000	0.582800
H2671	H267	0.730600	0.596000	0.101000
H2681	H268	0.767000	0.633100	0.033900
H2691	H269	0.657500	0.606500	0.090600
H2701	H270	0.713500	0.672400	0.047900
H2711	H271	0.565300	0.469600	0.980900
H2721	H272	0.523100	0.472900	0.023600
H2731	H273	0.697100	0.206500	0.417200
H2741	H274	0.635500	0.193700	0.446200
H2751	H275	0.592200	0.112500	0.432700
H2761	H276	0.631700	0.100700	0.462600
H2771	H277	0.730600	0.307900	0.142900
H2781	H278	0.779000	0.305700	0.162300
H2791	H279	0.735000	0.218700	0.160500
H2801	H280	0.673100	0.202900	0.193400
H2811	H281	0.208700	0.725400	0.750100
H2821	H282	0.261000	0.723800	0.742400
H2831	H283	0.313600	0.853300	0.590500
H2841	H284	0.271500	0.870000	0.602100
H2851	H285	0.379800	0.934600	0.665800
H2861	H286	0.342100	0.951400	0.645700
H2871	H287	0.406600	0.458700	0.810700
H2881	H288	0.382700	0.485300	0.835600
H2891	H289	0.352600	0.361100	0.990900
H2901	H290	0.363100	0.335700	0.956200
H2911	H291	0.491100	0.424900	0.953200
H2921	H292	0.447200	0.427500	0.987500
H2931	H293	0.402400	0.765700	0.601500
H2941	H294	0.380000	0.725900	0.579900
H2951	H295	0.488300	0.868500	0.434400
H2961	H296	0.526200	0.904500	0.452100
H2971	H297	0.455300	0.675300	0.584000
H2981	H298	0.483600	0.704700	0.611700
H2991	H299	0.596500	0.857200	0.455900
H3001	H300	0.569900	0.810000	0.442900
H3011	H301	0.274400	0.731300	0.663300
H3021	H302	0.206800	0.690300	0.697300
H3031	H303	0.198300	0.777200	0.648100
H3041	H304	0.240000	0.779500	0.599100
H3051	H305	0.421300	0.945000	0.587100
H3061	H306	0.380200	0.963000	0.565200
H3071	H307	0.303000	0.404000	0.865400
H3081	H308	0.333000	0.366900	0.866100
H3091	H309	0.302900	0.393500	0.949000
H3101	H310	0.279700	0.327600	0.958900
H3111	H311	0.549500	0.530400	0.904300
H3121	H312	0.503500	0.527100	0.949800
H3131	H313	0.376300	0.793500	0.509400
H3141	H314	0.360100	0.806300	0.558200
H3151	H315	0.454800	0.887500	0.520300
H3161	H316	0.436700	0.899300	0.469000
H3171	H317	0.549200	0.692100	0.577300
H3181	H318	0.532000	0.694300	0.526700
H3191	H319	0.620800	0.781300	0.483700
H3201	H320	0.603700	0.797100	0.529800
C11	C1	0.259600	0.769100	0.161900
C21	C2	0.202900	0.717200	0.165500
C31	C3	0.185300	0.535300	0.304600
C41	C4	0.685200	0.104100	0.021900
C51	C5	0.694400	0.130900	0.057300
C61	C6	0.766000	0.995300	0.198700
C71	C7	0.333500	0.693200	0.090500
C81	C8	0.322400	0.628100	0.118100
C91	C9	0.575000	0.785900	0.012500
C101	C10	0.559600	0.719900	0.037900
C111	C11	0.069000	0.230900	0.509500
C121	C12	0.117300	0.282800	0.514300
C131	C13	0.160100	0.464700	0.350000
C141	C14	0.874000	0.895900	0.418900
C151	C15	0.811800	0.869100	0.436500
C161	C16	0.806000	0.004700	0.229300
C171	C17	0.216300	0.306800	0.359700
C181	C18	0.253800	0.371900	0.305700
C191	C19	0.201600	0.214100	0.210900
C201	C20	0.242200	0.280100	0.160300
C211	C21	0.740500	0.921500	0.990400
C221	C22	0.735700	0.868400	0.047100
C231	C23	0.900000	0.989900	0.064700
C241	C24	0.831100	0.207100	0.564800
C251	C25	0.813500	0.251700	0.555600
C261	C26	0.020700	0.464700	0.484000
C271	C27	0.890300	0.924000	0.916500
C281	C28	0.944300	0.940500	0.927600
C291	C29	0.039100	0.087500	0.675000
C301	C30	0.089700	0.097500	0.690400
C311	C31	0.088100	0.078500	0.181000
C321	C32	0.084500	0.131600	0.132700
C331	C33	0.945400	0.010100	0.089900
C341	C34	0.228100	0.792900	0.376000
C351	C35	0.192700	0.748300	0.438200
C361	C36	0.051300	0.535300	0.444000
C371	C37	0.159500	0.076000	0.033700
C381	C38	0.131900	0.059500	0.996200
C391	C39	0.237500	0.912500	0.048400
C401	C40	0.212100	0.902500	0.007800
C411	C41	0.569000	0.578500	0.661900
C421	C42	0.617300	0.631600	0.665500
C431	C43	0.660100	0.510100	0.804600
C441	C44	0.374000	0.292900	0.521900
C451	C45	0.311800	0.248300	0.557300
C461	C46	0.306000	0.035300	0.698700
C471	C47	0.716300	0.576000	0.590500
C481	C48	0.753800	0.559500	0.618100
C491	C49	0.701600	0.412500	0.512500
C501	C50	0.742200	0.402500	0.537900
C511	C51	0.759600	0.421500	0.009500
C521	C52	0.702900	0.368400	0.014300
C531	C53	0.685300	0.489900	0.850000
C541	C54	0.185200	0.707100	0.918900
C551	C55	0.194400	0.751700	0.936500
C561	C56	0.266000	0.964700	0.729300
C571	C57	0.833500	0.424000	0.859700
C581	C58	0.822400	0.440500	0.805700
C591	C59	0.075000	0.587500	0.710900
C601	C60	0.059600	0.597500	0.660300
C611	C61	0.588100	0.269100	0.490400
C621	C62	0.584500	0.217200	0.547100
C631	C63	0.445400	0.035300	0.564700
C641	C64	0.728100	0.604100	0.064800
C651	C65	0.692700	0.630900	0.055600
C661	C66	0.551300	0.495300	0.984000
C671	C67	0.659500	0.193200	0.416500
C681	C68	0.631900	0.128100	0.427600
C691	C69	0.737500	0.285900	0.175000
C701	C70	0.712100	0.219900	0.190400
C711	C71	0.240500	0.730900	0.681000
C721	C72	0.235700	0.782800	0.632700
C731	C73	0.400000	0.964700	0.589900
C741	C74	0.331100	0.395900	0.876000
C751	C75	0.313500	0.369100	0.938200
C761	C76	0.520700	0.504700	0.944000
C771	C77	0.390300	0.806800	0.533700
C781	C78	0.444300	0.871900	0.496200
C791	C79	0.539100	0.714100	0.548400
C801	C80	0.589700	0.780100	0.507800
N11	N1	0.252300	0.757800	0.216300
N21	N2	0.189000	0.658400	0.209000
N31	N3	0.178900	0.569100	0.325400
N41	N4	0.684200	0.046500	0.047700
N51	N5	0.743400	0.133300	0.072300
N61	N6	0.778000	0.051700	0.150700
N71	N7	0.390300	0.735200	0.084100
N81	N8	0.371800	0.629700	0.085300
N91	N9	0.527400	0.791200	0.036400
N101	N10	0.504500	0.683300	0.038400
N111	N11	0.025900	0.242200	0.505500
N121	N12	0.132600	0.341600	0.469400
N131	N13	0.105500	0.430900	0.390200
N141	N14	0.905800	0.953500	0.362300
N151	N15	0.794400	0.866700	0.389900
N161	N16	0.797600	0.948300	0.273700
N171	N17	0.180700	0.264800	0.344900
N181	N18	0.285000	0.370300	0.257900
N191	N19	0.172400	0.208800	0.263800
N201	N20	0.278300	0.316700	0.178800
N211	N21	0.744500	0.968600	0.997700
N221	N22	0.780600	0.898000	0.061000
N231	N23	0.859800	0.004300	0.071100
N241	N24	0.887700	0.231900	0.565800
N251	N25	0.860100	0.315700	0.506600
N261	N26	0.976300	0.428700	0.472000
N271	N27	0.905100	0.974400	0.859700
N281	N28	0.992100	0.957100	0.878200
N291	N29	0.986200	0.063800	0.722600
N301	N30	0.071200	0.042900	0.745500
N311	N31	0.033700	0.031400	0.224100
N321	N32	0.041000	0.102000	0.117400
N331	N33	0.924600	0.995700	0.144500
N341	N34	0.202300	0.768100	0.344200
N351	N35	0.177700	0.684300	0.455600
N361	N36	0.099300	0.571300	0.452400
N371	N37	0.165900	0.025600	0.069300
N381	N38	0.164700	0.042900	0.965000
N391	N39	0.213600	0.936200	0.077600
N401	N40	0.211600	0.957100	0.971700
N411	N41	0.525900	0.531400	0.716300
N421	N42	0.632600	0.602000	0.709000
N431	N43	0.605500	0.495700	0.825400
N441	N44	0.405800	0.268100	0.547700
N451	N45	0.294400	0.184300	0.572300
N461	N46	0.297600	0.071300	0.650700
N471	N47	0.680700	0.525600	0.584100
N481	N48	0.785000	0.542900	0.585300
N491	N49	0.672400	0.436200	0.536400
N501	N50	0.778300	0.457100	0.538400
N511	N51	0.752300	0.468600	0.005500
N521	N52	0.689000	0.398000	0.969400
N531	N53	0.678900	0.504300	0.890200
N541	N54	0.184200	0.731900	0.862300
N551	N55	0.243400	0.815700	0.889900
N561	N56	0.278000	0.928700	0.773700
N571	N57	0.890300	0.474400	0.844900
N581	N58	0.871800	0.457100	0.757900
N591	N59	0.027400	0.563800	0.763800
N601	N60	0.004500	0.542900	0.678800
N611	N61	0.533700	0.257800	0.497700
N621	N62	0.541000	0.158400	0.561000
N631	N63	0.424600	0.069100	0.571100
N641	N64	0.702300	0.546500	0.065800
N651	N65	0.677700	0.633300	0.006600
N661	N66	0.599300	0.551700	0.972000
N671	N67	0.665900	0.235200	0.359700
N681	N68	0.664700	0.129700	0.378200
N691	N69	0.713600	0.291200	0.222600
N701	N70	0.711600	0.183300	0.245500
N711	N71	0.244500	0.742200	0.724100
N721	N72	0.280600	0.841600	0.617400
N731	N73	0.359800	0.930900	0.644500
N741	N74	0.387700	0.453500	0.844200
N751	N75	0.360100	0.366700	0.955600
N761	N76	0.476300	0.448300	0.952400
N771	N77	0.405100	0.764800	0.569300
N781	N78	0.492100	0.870300	0.465000
N791	N79	0.486200	0.708800	0.577600
N801	N80	0.571200	0.816700	0.471700
O11	O1	0.320800	0.659000	0.327800
O21	O2	0.385600	0.651300	0.262100
O31	O3	0.353600	0.608500	0.416100
O41	O4	0.422100	0.607700	0.345000
O51	O5	0.360100	0.774600	0.234500
O61	O6	0.420900	0.752900	0.174800
O71	O7	0.442300	0.883100	0.188600
O81	O8	0.508400	0.872400	0.126200
O91	O9	0.529000	0.935600	0.219200
O101	O10	0.589700	0.917600	0.151100
O111	O11	0.565200	0.895800	0.290200
O121	O12	0.630400	0.883700	0.228700
O131	O13	0.530600	0.779700	0.382500
O141	O14	0.601100	0.772300	0.320000
O151	O15	0.447100	0.670700	0.433000
O161	O16	0.507000	0.651300	0.366300
O171	O17	0.498400	0.676900	0.230900
O181	O18	0.531000	0.779100	0.145300
O191	O19	0.445000	0.671900	0.151300
O201	O20	0.582300	0.718700	0.251800
O211	O21	0.621100	0.837500	0.154200
O221	O22	0.329200	0.754700	0.344500
O231	O23	0.418400	0.856600	0.301600
O241	O24	0.370000	0.708800	0.431200
O251	O25	0.453900	0.817500	0.377000
O261	O26	0.447500	0.742300	0.485800
O271	O27	0.262800	0.631300	0.437900
O281	O28	0.222000	0.668000	0.350200
O291	O29	0.690000	0.829100	0.209500
O301	O30	0.724600	0.953700	0.118300
O311	O31	0.013200	0.341000	0.338200
O321	O32	0.086600	0.348700	0.265700
O331	O33	0.975400	0.391500	0.254900
O341	O34	0.047300	0.392300	0.185600
O351	O35	0.990900	0.225400	0.414500
O361	O36	0.072300	0.247100	0.332000
O371	O37	0.928300	0.116900	0.440800
O381	O38	0.001400	0.127600	0.364000
O391	O39	0.845200	0.064400	0.406600
O401	O40	0.931300	0.082400	0.327900
O411	O41	0.814000	0.104200	0.330600
O421	O42	0.887600	0.116300	0.253300
O431	O43	0.837800	0.220300	0.249100
O441	O44	0.907700	0.227700	0.171200
O451	O45	0.896300	0.329300	0.223600
O461	O46	0.982400	0.348700	0.144300
O471	O47	0.092200	0.323100	0.178500
O481	O48	0.075600	0.220900	0.248100
O491	O49	0.176800	0.328100	0.226900
O501	O50	0.029500	0.281300	0.136400
O511	O51	0.008300	0.162500	0.216400
O521	O52	0.900800	0.245300	0.425500
O531	O53	0.841800	0.143400	0.438200
O541	O54	0.860000	0.291200	0.338800
O551	O55	0.805500	0.182500	0.363600
O561	O56	0.771900	0.257700	0.294800
O571	O57	0.930800	0.368700	0.368500
O581	O58	0.981800	0.332000	0.446000
O591	O59	0.961400	0.170900	0.139100
O601	O60	0.928000	0.046300	0.229100
O611	O61	0.911800	0.148600	0.929200
O621	O62	0.984300	0.147700	0.864400
O631	O63	0.995100	0.269700	0.896400
O641	O64	0.064400	0.267100	0.827900
O651	O65	0.835500	0.094600	0.889900
O661	O66	0.918000	0.095700	0.829100
O671	O67	0.809200	0.130900	0.807700
O681	O68	0.886000	0.134600	0.741600
O691	O69	0.843400	0.248200	0.721000
O701	O70	0.922100	0.240800	0.660300
O711	O71	0.919400	0.355400	0.684800
O721	O72	0.996700	0.359100	0.619600
O731	O73	0.000900	0.413100	0.719400
O741	O74	0.078800	0.421100	0.648900
O751	O75	0.026400	0.380100	0.802900
O761	O76	0.105700	0.373300	0.743000
O771	O77	0.071500	0.229300	0.751600
O781	O78	0.001900	0.176300	0.719000
O791	O79	0.023100	0.096300	0.805000
O801	O80	0.113600	0.334100	0.667700
O811	O81	0.033600	0.275300	0.628900
O821	O82	0.824500	0.173700	0.920800
O831	O83	0.811800	0.220000	0.831600
O841	O84	0.911200	0.301200	0.880000
O851	O85	0.886400	0.330900	0.796100
O861	O86	0.955200	0.433300	0.802500
O871	O87	0.881500	0.200700	0.987200
O881	O88	0.804000	0.072200	0.028000
O891	O89	0.110900	0.399500	0.560000
O901	O90	0.020900	0.342900	0.525400
O911	O91	0.922200	0.851400	0.236800
O921	O92	0.987900	0.852300	0.163400
O931	O93	0.833900	0.730300	0.274600
O941	O94	0.905000	0.732900	0.202700
O951	O95	0.015500	0.905400	0.259100
O961	O96	0.075200	0.904300	0.177700
O971	O97	0.061400	0.869100	0.321700
O981	O98	0.123800	0.865400	0.248600
O991	O99	0.030800	0.751800	0.404800
O1001	O100	0.098900	0.759200	0.318700
O1011	O101	0.959800	0.644600	0.436000
O1021	O102	0.021300	0.640900	0.362400
O1031	O103	0.867500	0.586900	0.412200
O1041	O104	0.930000	0.578900	0.342300
O1051	O105	0.817000	0.619900	0.353700
O1061	O106	0.883700	0.626700	0.267600
O1071	O107	0.019100	0.770700	0.157800
O1081	O108	0.104700	0.823700	0.174400
O1091	O109	0.098700	0.903700	0.073200
O1101	O110	0.998200	0.665900	0.220500
O1111	O111	0.095800	0.724700	0.241700
O1121	O112	0.905500	0.826300	0.349200
O1131	O113	0.948400	0.780000	0.408200
O1141	O114	0.818800	0.698800	0.390000
O1151	O115	0.873000	0.669100	0.444500
O1161	O116	0.764200	0.566700	0.478100
O1171	O117	0.812100	0.799300	0.319200
O1181	O118	0.899800	0.927800	0.268200
O1191	O119	0.040500	0.600500	0.288600
O1201	O120	0.131700	0.657100	0.322000
O1211	O121	0.513200	0.351400	0.827800
O1221	O122	0.586600	0.352300	0.762100
O1231	O123	0.475400	0.230300	0.916100
O1241	O124	0.547300	0.232900	0.845000
O1251	O125	0.490900	0.405400	0.734500
O1261	O126	0.572300	0.404300	0.674800
O1271	O127	0.428300	0.369100	0.688600
O1281	O128	0.501400	0.365400	0.626200
O1291	O129	0.345200	0.251800	0.719200
O1301	O130	0.431300	0.259200	0.651100
O1311	O131	0.314000	0.144600	0.790200
O1321	O132	0.387600	0.140900	0.728700
O1331	O133	0.337800	0.086900	0.882500
O1341	O134	0.407700	0.078900	0.820000
O1351	O135	0.396300	0.119900	0.933000
O1361	O136	0.482400	0.126700	0.866300
O1371	O137	0.592200	0.270700	0.730900
O1381	O138	0.575600	0.323700	0.645300
O1391	O139	0.676800	0.403700	0.651300
O1401	O140	0.529500	0.165900	0.751800
O1411	O141	0.508300	0.224700	0.654200
O1421	O142	0.400800	0.326300	0.844500
O1431	O143	0.341800	0.280000	0.801600
O1441	O144	0.360000	0.198800	0.931200
O1451	O145	0.305500	0.169100	0.877000
O1461	O146	0.271900	0.066700	0.985800
O1471	O147	0.430800	0.299300	0.937900
O1481	O148	0.481800	0.427800	0.850200
O1491	O149	0.461400	0.100500	0.709500
O1501	O150	0.428000	0.157100	0.618300
O1511	O151	0.820800	0.648600	0.838200
O1521	O152	0.885600	0.647700	0.765700
O1531	O153	0.853600	0.769700	0.754900
O1541	O154	0.922100	0.767100	0.685600
O1551	O155	0.860100	0.594600	0.914500
O1561	O156	0.920900	0.595700	0.832000
O1571	O157	0.942300	0.630900	0.940800
O1581	O158	0.008400	0.634600	0.864000
O1591	O159	0.029000	0.748200	0.906600
O1601	O160	0.089700	0.740800	0.827900
O1611	O161	0.065200	0.855400	0.830600
O1621	O162	0.130400	0.859100	0.753300
O1631	O163	0.030600	0.913100	0.749100
O1641	O164	0.101100	0.921100	0.671200
O1651	O165	0.947100	0.880100	0.723600
O1661	O166	0.007000	0.873300	0.644300
O1671	O167	0.998400	0.729300	0.678500
O1681	O168	0.031000	0.676300	0.748100
O1691	O169	0.945000	0.596300	0.726900
O1701	O170	0.082300	0.834100	0.636400
O1711	O171	0.121100	0.775300	0.716400
O1721	O172	0.829200	0.673700	0.925500
O1731	O173	0.918400	0.720000	0.938200
O1741	O174	0.870000	0.801200	0.838800
O1751	O175	0.953900	0.830900	0.863600
O1761	O176	0.947500	0.933300	0.794800
O1771	O177	0.762800	0.700700	0.868500
O1781	O178	0.722000	0.572200	0.946000
O1791	O179	0.190000	0.899500	0.639100
O1801	O180	0.224600	0.842900	0.729100
O1811	O181	0.422200	0.159000	0.429200
O1821	O182	0.487900	0.151300	0.364400
O1831	O183	0.333900	0.108500	0.396400
O1841	O184	0.405000	0.107700	0.327900
O1851	O185	0.515500	0.274600	0.389900
O1861	O186	0.575200	0.252900	0.329100
O1871	O187	0.561400	0.383100	0.307700
O1881	O188	0.623800	0.372400	0.241600
O1891	O189	0.530800	0.435600	0.221000
O1901	O190	0.598900	0.417600	0.160300
O1911	O191	0.459800	0.395800	0.184800
O1921	O192	0.521300	0.383700	0.119600
O1931	O193	0.367500	0.279700	0.219400
O1941	O194	0.430000	0.272300	0.148900
O1951	O195	0.317000	0.170700	0.302900
O1961	O196	0.383700	0.151300	0.243000
O1971	O197	0.519100	0.176900	0.251600
O1981	O198	0.604700	0.279100	0.219000
O1991	O199	0.598700	0.171900	0.305000
O2001	O200	0.498200	0.218700	0.167700
O2011	O201	0.595800	0.337500	0.128900
O2021	O202	0.405500	0.254700	0.420800
O2031	O203	0.448400	0.356600	0.331600
O2041	O204	0.318800	0.208800	0.380000
O2051	O205	0.373000	0.317500	0.296100
O2061	O206	0.264200	0.242300	0.302500
O2071	O207	0.312100	0.131300	0.487200
O2081	O208	0.399800	0.168000	0.528000
O2091	O209	0.540500	0.329100	0.060000
O2101	O210	0.631700	0.453700	0.025400
O2111	O211	0.411800	0.841000	0.736800
O2121	O212	0.484300	0.848700	0.663400
O2131	O213	0.495100	0.891500	0.774600
O2141	O214	0.564400	0.892300	0.702700
O2151	O215	0.335500	0.725400	0.759100
O2161	O216	0.418000	0.747100	0.677700
O2171	O217	0.309200	0.616900	0.821700
O2181	O218	0.386000	0.627600	0.748600
O2191	O219	0.343400	0.564400	0.904800
O2201	O220	0.422100	0.582400	0.818700
O2211	O221	0.419400	0.604200	0.936000
O2221	O222	0.496700	0.616300	0.862400
O2231	O223	0.500900	0.720300	0.912200
O2241	O224	0.578800	0.727700	0.842300
O2251	O225	0.526400	0.829300	0.853700
O2261	O226	0.605700	0.848700	0.767600
O2271	O227	0.571500	0.823100	0.657800
O2281	O228	0.501900	0.720900	0.674400
O2291	O229	0.523100	0.828100	0.573200
O2301	O230	0.613600	0.781300	0.720500
O2311	O231	0.533600	0.662500	0.741700
O2321	O232	0.324500	0.745300	0.849200
O2331	O233	0.311800	0.643400	0.908200
O2341	O234	0.411200	0.791200	0.890000
O2351	O235	0.386400	0.682500	0.944500
O2361	O236	0.455200	0.757700	0.978100
O2371	O237	0.381500	0.868700	0.819200
O2381	O238	0.304000	0.832000	0.768200
O2391	O239	0.610900	0.670900	0.788600
O2401	O240	0.520900	0.546300	0.822000
