data_FECWOB01_clean_PM
_symmetry_space_group_name_H-M	'P1'
_cell_length_a	6.791000
_cell_length_b	9.604000
_cell_length_c	17.722000
_cell_angle_alpha	101.826000
_cell_angle_beta	96.500000
_cell_angle_gamma	106.425000
_symmetry_Int_Tables_number 1

loop_
_symmetry_equiv_pos_as_xyz
'x,y,z'

loop_
_atom_site_label
_atom_site_type_symbol
_atom_site_fract_x
_atom_site_fract_y
_atom_site_fract_z
Zn11	Zn1	0.076510	0.537160	0.249260
Zn21	Zn2	0.158570	0.190340	0.250680
Zn31	Zn3	0.923490	0.462840	0.750740
Zn41	Zn4	0.841430	0.809660	0.749320
H11	H1	0.808700	0.061700	0.018500
H21	H2	0.218200	0.458000	0.017900
H31	H3	0.147700	0.393500	0.881700
H41	H4	0.735500	0.000800	0.882600
H51	H5	0.353600	0.701600	0.478800
H61	H6	0.129800	0.274500	0.487600
H71	H7	0.430000	0.778700	0.615900
H81	H8	0.187000	0.349100	0.622300
H91	H9	0.191300	0.938300	0.981500
H101	H10	0.781800	0.542000	0.982100
H111	H11	0.852300	0.606500	0.118300
H121	H12	0.264500	0.999200	0.117400
H131	H13	0.646400	0.298400	0.521200
H141	H14	0.870200	0.725500	0.512400
H151	H15	0.570000	0.221300	0.384100
H161	H16	0.813000	0.650900	0.377700
C11	C1	0.939000	0.190700	0.870500
C21	C2	0.060900	0.307800	0.119300
C31	C3	0.022000	0.267900	0.033200
C41	C4	0.876000	0.128600	0.991400
C51	C5	0.122000	0.365900	0.991000
C61	C6	0.080700	0.327600	0.909500
C71	C7	0.834000	0.091400	0.910100
C81	C8	0.892000	0.150200	0.783000
C91	C9	0.190800	0.432600	0.382800
C101	C10	0.363400	0.617800	0.718000
C111	C11	0.323300	0.631100	0.508300
C121	C12	0.187100	0.375600	0.513300
C131	C13	0.368300	0.677900	0.590400
C141	C14	0.235000	0.482100	0.471200
C151	C15	0.224700	0.420200	0.593600
C161	C16	0.318600	0.570400	0.632600
C171	C17	0.061000	0.809300	0.129500
C181	C18	0.939100	0.692200	0.880700
C191	C19	0.978000	0.732100	0.966800
C201	C20	0.124000	0.871400	0.008600
C211	C21	0.878000	0.634100	0.009000
C221	C22	0.919300	0.672400	0.090500
C231	C23	0.166000	0.908600	0.089900
C241	C24	0.108000	0.849800	0.217000
C251	C25	0.809200	0.567400	0.617200
C261	C26	0.636600	0.382200	0.282000
C271	C27	0.676700	0.368900	0.491700
C281	C28	0.812900	0.624400	0.486700
C291	C29	0.631700	0.322100	0.409600
C301	C30	0.765000	0.517900	0.528800
C311	C31	0.775300	0.579800	0.406400
C321	C32	0.681400	0.429600	0.367400
N11	N1	0.884000	0.245000	0.738500
N21	N2	0.229200	0.571700	0.763400
N31	N3	0.517500	0.722400	0.839400
N41	N4	0.329600	0.639900	0.840200
N51	N5	0.835000	0.164400	0.665400
N61	N6	0.815000	0.028300	0.666600
N71	N7	0.546200	0.711500	0.763200
N81	N8	0.847000	0.012700	0.738300
N91	N9	0.116000	0.755000	0.261500
N101	N10	0.770800	0.428300	0.236600
N111	N11	0.482500	0.277600	0.160600
N121	N12	0.670400	0.360100	0.159800
N131	N13	0.165000	0.835600	0.334600
N141	N14	0.185000	0.971700	0.333400
N151	N15	0.453800	0.288500	0.236800
N161	N16	0.153000	0.987300	0.261700
O11	O1	0.009000	0.202600	0.152700
O21	O2	0.147800	0.444600	0.153500
O31	O3	0.228500	0.534900	0.348300
O41	O4	0.121900	0.293900	0.351200
O51	O5	0.991000	0.797400	0.847300
O61	O6	0.852200	0.555400	0.846500
O71	O7	0.771500	0.465100	0.651700
O81	O8	0.878100	0.706100	0.648800
