data_FECXAO_clean_PM
_symmetry_space_group_name_H-M	'P1'
_cell_length_a	16.542800
_cell_length_b	16.542800
_cell_length_c	24.398800
_cell_angle_alpha	90.000000
_cell_angle_beta	90.000000
_cell_angle_gamma	120.000000
_symmetry_Int_Tables_number 1

loop_
_symmetry_equiv_pos_as_xyz
'x,y,z'

loop_
_atom_site_label
_atom_site_type_symbol
_atom_site_fract_x
_atom_site_fract_y
_atom_site_fract_z
La11	La1	0.080980	0.080980	0.000000
La21	La2	0.000000	0.919020	0.333330
La31	La3	0.919020	0.000000	0.666670
La41	La4	0.919020	0.919020	0.500000
La51	La5	0.000000	0.080980	0.833330
La61	La6	0.080980	0.000000	0.166670
H11	H1	0.983100	0.322100	0.001900
H21	H2	0.887300	0.387400	0.992300
H31	H3	0.719700	0.175200	0.892500
H41	H4	0.810900	0.106300	0.906500
H51	H5	0.849800	0.471100	0.938800
H61	H6	0.874800	0.606600	0.983400
H71	H7	0.958500	0.768300	0.982000
H81	H8	0.339000	0.016900	0.335230
H91	H9	0.500100	0.112700	0.325630
H101	H10	0.455500	0.280300	0.225830
H111	H11	0.295400	0.189100	0.239830
H121	H12	0.621300	0.150200	0.272130
H131	H13	0.731800	0.125200	0.316730
H141	H14	0.809800	0.041500	0.315330
H151	H15	0.677900	0.661000	0.668570
H161	H16	0.612600	0.499900	0.658970
H171	H17	0.824800	0.544500	0.559170
H181	H18	0.893700	0.704600	0.573170
H191	H19	0.528900	0.378700	0.605470
H201	H20	0.393400	0.268200	0.650070
H211	H21	0.231700	0.190200	0.648670
H221	H22	0.016900	0.677900	0.501900
H231	H23	0.112700	0.612600	0.492300
H241	H24	0.280300	0.824800	0.392500
H251	H25	0.189100	0.893700	0.406500
H261	H26	0.150200	0.528900	0.438800
H271	H27	0.125200	0.393400	0.483400
H281	H28	0.041500	0.231700	0.482000
H291	H29	0.661000	0.983100	0.835230
H301	H30	0.499900	0.887300	0.825630
H311	H31	0.544500	0.719700	0.725830
H321	H32	0.704600	0.810900	0.739830
H331	H33	0.378700	0.849800	0.772130
H341	H34	0.268200	0.874800	0.816730
H351	H35	0.190200	0.958500	0.815330
H361	H36	0.322100	0.339000	0.168570
H371	H37	0.387400	0.500100	0.158970
H381	H38	0.175200	0.455500	0.059170
H391	H39	0.106300	0.295400	0.073170
H401	H40	0.471100	0.621300	0.105470
H411	H41	0.606600	0.731800	0.150070
H421	H42	0.768300	0.809800	0.148670
H431	H43	0.661000	0.677900	0.331430
H441	H44	0.499900	0.612600	0.341030
H451	H45	0.544500	0.824800	0.440830
H461	H46	0.704600	0.893700	0.426830
H471	H47	0.378700	0.528900	0.394530
H481	H48	0.268200	0.393400	0.349930
H491	H49	0.190200	0.231700	0.351330
H501	H50	0.322100	0.983100	0.998100
H511	H51	0.387400	0.887300	0.007700
H521	H52	0.175200	0.719700	0.107500
H531	H53	0.106300	0.810900	0.093500
H541	H54	0.471100	0.849800	0.061200
H551	H55	0.606600	0.874800	0.016600
H561	H56	0.768300	0.958500	0.018000
H571	H57	0.016900	0.339000	0.664770
H581	H58	0.112700	0.500100	0.674370
H591	H59	0.280300	0.455500	0.774170
H601	H60	0.189100	0.295400	0.760170
H611	H61	0.150200	0.621300	0.727870
H621	H62	0.125200	0.731800	0.683270
H631	H63	0.041500	0.809800	0.684670
H641	H64	0.339000	0.322100	0.831430
H651	H65	0.500100	0.387400	0.841030
H661	H66	0.455500	0.175200	0.940830
H671	H67	0.295400	0.106300	0.926830
H681	H68	0.621300	0.471100	0.894530
H691	H69	0.731800	0.606600	0.849930
H701	H70	0.809800	0.768300	0.851330
H711	H71	0.677900	0.016900	0.498100
H721	H72	0.612600	0.112700	0.507700
H731	H73	0.824800	0.280300	0.607500
H741	H74	0.893700	0.189100	0.593500
H751	H75	0.528900	0.150200	0.561200
H761	H76	0.393400	0.125200	0.516600
H771	H77	0.231700	0.041500	0.518000
H781	H78	0.983100	0.661000	0.164770
H791	H79	0.887300	0.499900	0.174370
H801	H80	0.719700	0.544500	0.274170
H811	H81	0.810900	0.704600	0.260170
H821	H82	0.849800	0.378700	0.227870
H831	H83	0.874800	0.268200	0.183270
H841	H84	0.958500	0.190200	0.184670
H851	H85	0.613800	0.227600	0.916670
H861	H86	0.613800	0.386200	0.250000
H871	H87	0.772400	0.386200	0.583330
H881	H88	0.386200	0.772400	0.416670
H891	H89	0.386200	0.613800	0.750000
H901	H90	0.227600	0.613800	0.083330
C11	C1	0.974000	0.173400	0.960900
C21	C2	0.907300	0.209300	0.955200
C31	C3	0.929800	0.292300	0.980300
C41	C4	0.872700	0.332600	0.973800
C51	C5	0.794500	0.291100	0.939600
C61	C6	0.772300	0.204900	0.914700
C71	C7	0.827300	0.163400	0.922700
C81	C8	0.740500	0.338500	0.927600
C91	C9	0.787100	0.437900	0.929000
C101	C10	0.862800	0.639000	0.956500
C111	C11	0.912200	0.736000	0.956000
C121	C12	0.199400	0.026000	0.294230
C131	C13	0.302000	0.092700	0.288530
C141	C14	0.362500	0.070200	0.313630
C151	C15	0.459900	0.127300	0.307130
C161	C16	0.496600	0.205500	0.272930
C171	C17	0.432600	0.227700	0.248030
C181	C18	0.336100	0.172700	0.256030
C191	C19	0.598000	0.259500	0.260930
C201	C20	0.650800	0.212900	0.262330
C211	C21	0.776200	0.137200	0.289830
C221	C22	0.823800	0.087800	0.289330
C231	C23	0.826600	0.800600	0.627570
C241	C24	0.790700	0.698000	0.621870
C251	C25	0.707700	0.637500	0.646970
C261	C26	0.667400	0.540100	0.640470
C271	C27	0.708900	0.503400	0.606270
C281	C28	0.795100	0.567400	0.581370
C291	C29	0.836600	0.663900	0.589370
C301	C30	0.661500	0.402000	0.594270
C311	C31	0.562100	0.349200	0.595670
C321	C32	0.361000	0.223800	0.623170
C331	C33	0.264000	0.176200	0.622670
C341	C34	0.026000	0.826600	0.460900
C351	C35	0.092700	0.790700	0.455200
C361	C36	0.070200	0.707700	0.480300
C371	C37	0.127300	0.667400	0.473800
C381	C38	0.205500	0.708900	0.439600
C391	C39	0.227700	0.795100	0.414700
C401	C40	0.172700	0.836600	0.422700
C411	C41	0.259500	0.661500	0.427600
C421	C42	0.212900	0.562100	0.429000
C431	C43	0.137200	0.361000	0.456500
C441	C44	0.087800	0.264000	0.456000
C451	C45	0.800600	0.974000	0.794230
C461	C46	0.698000	0.907300	0.788530
C471	C47	0.637500	0.929800	0.813630
C481	C48	0.540100	0.872700	0.807130
C491	C49	0.503400	0.794500	0.772930
C501	C50	0.567400	0.772300	0.748030
C511	C51	0.663900	0.827300	0.756030
C521	C52	0.402000	0.740500	0.760930
C531	C53	0.349200	0.787100	0.762330
C541	C54	0.223800	0.862800	0.789830
C551	C55	0.176200	0.912200	0.789330
C561	C56	0.173400	0.199400	0.127570
C571	C57	0.209300	0.302000	0.121870
C581	C58	0.292300	0.362500	0.146970
C591	C59	0.332600	0.459900	0.140470
C601	C60	0.291100	0.496600	0.106270
C611	C61	0.204900	0.432600	0.081370
C621	C62	0.163400	0.336100	0.089370
C631	C63	0.338500	0.598000	0.094270
C641	C64	0.437900	0.650800	0.095670
C651	C65	0.639000	0.776200	0.123170
C661	C66	0.736000	0.823800	0.122670
C671	C67	0.800600	0.826600	0.372430
C681	C68	0.698000	0.790700	0.378130
C691	C69	0.637500	0.707700	0.353030
C701	C70	0.540100	0.667400	0.359530
C711	C71	0.503400	0.708900	0.393730
C721	C72	0.567400	0.795100	0.418630
C731	C73	0.663900	0.836600	0.410630
C741	C74	0.402000	0.661500	0.405730
C751	C75	0.349200	0.562100	0.404330
C761	C76	0.223800	0.361000	0.376830
C771	C77	0.176200	0.264000	0.377330
C781	C78	0.173400	0.974000	0.039100
C791	C79	0.209300	0.907300	0.044800
C801	C80	0.292300	0.929800	0.019700
C811	C81	0.332600	0.872700	0.026200
C821	C82	0.291100	0.794500	0.060400
C831	C83	0.204900	0.772300	0.085300
C841	C84	0.163400	0.827300	0.077300
C851	C85	0.338500	0.740500	0.072400
C861	C86	0.437900	0.787100	0.071000
C871	C87	0.639000	0.862800	0.043500
C881	C88	0.736000	0.912200	0.044000
C891	C89	0.026000	0.199400	0.705770
C901	C90	0.092700	0.302000	0.711470
C911	C91	0.070200	0.362500	0.686370
C921	C92	0.127300	0.459900	0.692870
C931	C93	0.205500	0.496600	0.727070
C941	C94	0.227700	0.432600	0.751970
C951	C95	0.172700	0.336100	0.743970
C961	C96	0.259500	0.598000	0.739070
C971	C97	0.212900	0.650800	0.737670
C981	C98	0.137200	0.776200	0.710170
C991	C99	0.087800	0.823800	0.710670
C1001	C100	0.199400	0.173400	0.872430
C1011	C101	0.302000	0.209300	0.878130
C1021	C102	0.362500	0.292300	0.853030
C1031	C103	0.459900	0.332600	0.859530
C1041	C104	0.496600	0.291100	0.893730
C1051	C105	0.432600	0.204900	0.918630
C1061	C106	0.336100	0.163400	0.910630
C1071	C107	0.598000	0.338500	0.905730
C1081	C108	0.650800	0.437900	0.904330
C1091	C109	0.776200	0.639000	0.876830
C1101	C110	0.823800	0.736000	0.877330
C1111	C111	0.826600	0.026000	0.539100
C1121	C112	0.790700	0.092700	0.544800
C1131	C113	0.707700	0.070200	0.519700
C1141	C114	0.667400	0.127300	0.526200
C1151	C115	0.708900	0.205500	0.560400
C1161	C116	0.795100	0.227700	0.585300
C1171	C117	0.836600	0.172700	0.577300
C1181	C118	0.661500	0.259500	0.572400
C1191	C119	0.562100	0.212900	0.571000
C1201	C120	0.361000	0.137200	0.543500
C1211	C121	0.264000	0.087800	0.544000
C1221	C122	0.974000	0.800600	0.205770
C1231	C123	0.907300	0.698000	0.211470
C1241	C124	0.929800	0.637500	0.186370
C1251	C125	0.872700	0.540100	0.192870
C1261	C126	0.794500	0.503400	0.227070
C1271	C127	0.772300	0.567400	0.251970
C1281	C128	0.827300	0.663900	0.243970
C1291	C129	0.740500	0.402000	0.239070
C1301	C130	0.787100	0.349200	0.237670
C1311	C131	0.862800	0.223800	0.210170
C1321	C132	0.912200	0.176200	0.210670
C1331	C133	0.646200	0.292400	0.916670
C1341	C134	0.742300	0.484600	0.916670
C1351	C135	0.795300	0.590600	0.916670
C1361	C136	0.892700	0.785400	0.916670
C1371	C137	0.944900	0.889800	0.916670
C1381	C138	0.646200	0.353800	0.250000
C1391	C139	0.742300	0.257700	0.250000
C1401	C140	0.795300	0.204700	0.250000
C1411	C141	0.892700	0.107300	0.250000
C1421	C142	0.944900	0.055100	0.250000
C1431	C143	0.707600	0.353800	0.583330
C1441	C144	0.515400	0.257700	0.583330
C1451	C145	0.409400	0.204700	0.583330
C1461	C146	0.214600	0.107300	0.583330
C1471	C147	0.110200	0.055100	0.583330
C1481	C148	0.353800	0.707600	0.416670
C1491	C149	0.257700	0.515400	0.416670
C1501	C150	0.204700	0.409400	0.416670
C1511	C151	0.107300	0.214600	0.416670
C1521	C152	0.055100	0.110200	0.416670
C1531	C153	0.353800	0.646200	0.750000
C1541	C154	0.257700	0.742300	0.750000
C1551	C155	0.204700	0.795300	0.750000
C1561	C156	0.107300	0.892700	0.750000
C1571	C157	0.055100	0.944900	0.750000
C1581	C158	0.292400	0.646200	0.083330
C1591	C159	0.484600	0.742300	0.083330
C1601	C160	0.590600	0.795300	0.083330
C1611	C161	0.785400	0.892700	0.083330
C1621	C162	0.889800	0.944900	0.083330
O11	O1	0.964100	0.105900	0.930200
O21	O2	0.037000	0.208500	0.995600
O31	O3	0.001600	0.929800	0.955100
O41	O4	0.141800	0.035900	0.263530
O51	O5	0.171500	0.963000	0.328930
O61	O6	0.928200	0.998400	0.288430
O71	O7	0.894100	0.858200	0.596870
O81	O8	0.791500	0.828500	0.662270
O91	O9	0.070200	0.071800	0.621770
O101	O10	0.035900	0.894100	0.430200
O111	O11	0.963000	0.791500	0.495600
O121	O12	0.998400	0.070200	0.455100
O131	O13	0.858200	0.964100	0.763530
O141	O14	0.828500	0.037000	0.828930
O151	O15	0.071800	0.001600	0.788430
O161	O16	0.105900	0.141800	0.096870
O171	O17	0.208500	0.171500	0.162270
O181	O18	0.929800	0.928200	0.121770
O191	O19	0.858200	0.894100	0.403130
O201	O20	0.828500	0.791500	0.337730
O211	O21	0.071800	0.070200	0.378230
O221	O22	0.105900	0.964100	0.069800
O231	O23	0.208500	0.037000	0.004400
O241	O24	0.929800	0.001600	0.044900
O251	O25	0.035900	0.141800	0.736470
O261	O26	0.963000	0.171500	0.671070
O271	O27	0.998400	0.928200	0.711570
O281	O28	0.141800	0.105900	0.903130
O291	O29	0.171500	0.208500	0.837730
O301	O30	0.928200	0.929800	0.878230
O311	O31	0.894100	0.035900	0.569800
O321	O32	0.791500	0.963000	0.504400
O331	O33	0.070200	0.998400	0.544900
O341	O34	0.964100	0.858200	0.236470
O351	O35	0.037000	0.828500	0.171070
O361	O36	0.001600	0.071800	0.211570
