data_FEDBEX_clean_PM
_symmetry_space_group_name_H-M	'P1'
_cell_length_a	6.020000
_cell_length_b	12.772200
_cell_length_c	13.161200
_cell_angle_alpha	118.829000
_cell_angle_beta	90.609000
_cell_angle_gamma	91.687000
_symmetry_Int_Tables_number 1

loop_
_symmetry_equiv_pos_as_xyz
'x,y,z'

loop_
_atom_site_label
_atom_site_type_symbol
_atom_site_fract_x
_atom_site_fract_y
_atom_site_fract_z
Tm11	Tm1	0.778030	0.660650	0.821710
Tm21	Tm2	0.221970	0.339350	0.178290
H11	H1	0.692800	0.534100	0.160700
H21	H2	0.083200	0.881900	0.078500
H31	H3	0.646200	0.559000	0.515100
H41	H4	0.307200	0.465900	0.839300
H51	H5	0.916800	0.118100	0.921500
H61	H6	0.353800	0.441000	0.484900
C11	C1	0.610600	0.518900	0.094500
C21	C2	0.688400	0.566300	0.027600
C31	C3	0.904000	0.640000	0.054400
C41	C4	0.882700	0.950700	0.900000
C51	C5	0.047300	0.928800	0.044700
C61	C6	0.750200	0.893000	0.786900
C71	C7	0.123900	0.539600	0.596600
C81	C8	0.791600	0.534800	0.510600
C91	C9	0.261800	0.594100	0.706100
C101	C10	0.389400	0.481100	0.905500
C111	C11	0.311600	0.433700	0.972400
C121	C12	0.096000	0.360000	0.945600
C131	C13	0.117300	0.049300	0.100000
C141	C14	0.952700	0.071200	0.955300
C151	C15	0.249800	0.107000	0.213100
C161	C16	0.876100	0.460400	0.403400
C171	C17	0.208400	0.465200	0.489400
C181	C18	0.738200	0.405900	0.293900
N11	N1	0.423600	0.452200	0.069900
N21	N2	0.929700	0.878900	0.944200
N31	N3	0.914200	0.573100	0.608600
N41	N4	0.576400	0.547800	0.930100
N51	N5	0.070300	0.121100	0.055800
N61	N6	0.085800	0.426900	0.391400
O11	O1	0.950300	0.679100	0.985300
O21	O2	0.020200	0.655600	0.138800
O31	O3	0.693400	0.785600	0.748000
O41	O4	0.699600	0.956000	0.743800
O51	O5	0.463100	0.568900	0.704000
O61	O6	0.164300	0.665800	0.796900
O71	O7	0.049700	0.320900	0.014700
O81	O8	0.979800	0.344400	0.861200
O91	O9	0.306600	0.214400	0.252000
O101	O10	0.300400	0.044000	0.256200
O111	O11	0.536900	0.431100	0.296000
O121	O12	0.835700	0.334200	0.203100
