data_FEDKAB_clean_PM
_symmetry_space_group_name_H-M	'P1'
_cell_length_a	12.773200
_cell_length_b	12.773200
_cell_length_c	11.645000
_cell_angle_alpha	90.000000
_cell_angle_beta	90.000000
_cell_angle_gamma	90.000000
_symmetry_Int_Tables_number 1

loop_
_symmetry_equiv_pos_as_xyz
'x,y,z'

loop_
_atom_site_label
_atom_site_type_symbol
_atom_site_fract_x
_atom_site_fract_y
_atom_site_fract_z
O11	O1	0.386580	0.548800	0.362020
O21	O2	0.488000	0.688400	0.375500
C11	C1	0.421100	0.633800	0.325900
C21	C2	0.375800	0.674600	0.213300
C31	C3	0.283700	0.634300	0.169300
H11	H1	0.250100	0.578900	0.205800
C41	C4	0.242200	0.677400	0.070700
H21	H2	0.179700	0.651500	0.041300
N11	N1	0.291190	0.756600	0.016590
C51	C5	0.382800	0.793600	0.055400
H31	H3	0.417400	0.846000	0.015000
C61	C6	0.426000	0.754100	0.155100
H41	H4	0.488700	0.781100	0.182900
C71	C7	0.246900	0.801400	0.908870
H51	H5	0.261900	0.875800	0.905500
H61	H6	0.171500	0.792500	0.908600
C81	C8	0.293500	0.747600	0.804900
H71	H7	0.278600	0.673200	0.808300
H81	H8	0.368900	0.756700	0.805000
O31	O3	0.613420	0.451200	0.362020
O41	O4	0.512000	0.311600	0.375500
C91	C9	0.578900	0.366200	0.325900
C101	C10	0.624200	0.325400	0.213300
C111	C11	0.716300	0.365700	0.169300
H91	H9	0.749900	0.421100	0.205800
C121	C12	0.757800	0.322600	0.070700
H101	H10	0.820300	0.348500	0.041300
N21	N2	0.708810	0.243400	0.016590
C131	C13	0.617200	0.206400	0.055400
H111	H11	0.582600	0.154000	0.015000
C141	C14	0.574000	0.245900	0.155100
H121	H12	0.511300	0.218900	0.182900
C151	C15	0.753100	0.198600	0.908870
H131	H13	0.738100	0.124200	0.905500
H141	H14	0.828500	0.207500	0.908600
C161	C16	0.706500	0.252400	0.804900
H151	H15	0.721400	0.326800	0.808300
H161	H16	0.631100	0.243300	0.805000
O51	O5	0.548800	0.613420	0.637980
O61	O6	0.688400	0.512000	0.624500
C171	C17	0.633800	0.578900	0.674100
C181	C18	0.674600	0.624200	0.786700
C191	C19	0.634300	0.716300	0.830700
H171	H17	0.578900	0.749900	0.794200
C201	C20	0.677400	0.757800	0.929300
H181	H18	0.651500	0.820300	0.958700
N31	N3	0.756600	0.708810	0.983410
C211	C21	0.793600	0.617200	0.944600
H191	H19	0.846000	0.582600	0.985000
C221	C22	0.754100	0.574000	0.844900
H201	H20	0.781100	0.511300	0.817100
C231	C23	0.801400	0.753100	0.091130
H211	H21	0.875800	0.738100	0.094500
H221	H22	0.792500	0.828500	0.091400
C241	C24	0.747600	0.706500	0.195100
H231	H23	0.673200	0.721400	0.191700
H241	H24	0.756700	0.631100	0.195000
O71	O7	0.451200	0.386580	0.637980
O81	O8	0.311600	0.488000	0.624500
C251	C25	0.366200	0.421100	0.674100
C261	C26	0.325400	0.375800	0.786700
C271	C27	0.365700	0.283700	0.830700
H251	H25	0.421100	0.250100	0.794200
C281	C28	0.322600	0.242200	0.929300
H261	H26	0.348500	0.179700	0.958700
N41	N4	0.243400	0.291190	0.983410
C291	C29	0.206400	0.382800	0.944600
H271	H27	0.154000	0.417400	0.985000
C301	C30	0.245900	0.426000	0.844900
H281	H28	0.218900	0.488700	0.817100
C311	C31	0.198600	0.246900	0.091130
H291	H29	0.124200	0.261900	0.094500
H301	H30	0.207500	0.171500	0.091400
C321	C32	0.252400	0.293500	0.195100
H311	H31	0.326800	0.278600	0.191700
H321	H32	0.243300	0.368900	0.195000
O91	O9	0.886580	0.951200	0.862020
O101	O10	0.988000	0.811600	0.875500
C331	C33	0.921100	0.866200	0.825900
C341	C34	0.875800	0.825400	0.713300
C351	C35	0.783700	0.865700	0.669300
H331	H33	0.750100	0.921100	0.705800
C361	C36	0.742200	0.822600	0.570700
H341	H34	0.679700	0.848500	0.541300
N51	N5	0.791190	0.743400	0.516590
C371	C37	0.882800	0.706400	0.555400
H351	H35	0.917400	0.654000	0.515000
C381	C38	0.926000	0.745900	0.655100
H361	H36	0.988700	0.718900	0.682900
C391	C39	0.746900	0.698600	0.408870
H371	H37	0.761900	0.624200	0.405500
H381	H38	0.671500	0.707500	0.408600
C401	C40	0.793500	0.752400	0.304900
H391	H39	0.778600	0.826800	0.308300
H401	H40	0.868900	0.743300	0.305000
O111	O11	0.113420	0.048800	0.862020
O121	O12	0.012000	0.188400	0.875500
C411	C41	0.078900	0.133800	0.825900
C421	C42	0.124200	0.174600	0.713300
C431	C43	0.216300	0.134300	0.669300
H411	H41	0.249900	0.078900	0.705800
C441	C44	0.257800	0.177400	0.570700
H421	H42	0.320300	0.151500	0.541300
N61	N6	0.208810	0.256600	0.516590
C451	C45	0.117200	0.293600	0.555400
H431	H43	0.082600	0.346000	0.515000
C461	C46	0.074000	0.254100	0.655100
H441	H44	0.011300	0.281100	0.682900
C471	C47	0.253100	0.301400	0.408870
H451	H45	0.238100	0.375800	0.405500
H461	H46	0.328500	0.292500	0.408600
C481	C48	0.206500	0.247600	0.304900
H471	H47	0.221400	0.173200	0.308300
H481	H48	0.131100	0.256700	0.305000
O131	O13	0.048800	0.886580	0.137980
O141	O14	0.188400	0.988000	0.124500
C491	C49	0.133800	0.921100	0.174100
C501	C50	0.174600	0.875800	0.286700
C511	C51	0.134300	0.783700	0.330700
H491	H49	0.078900	0.750100	0.294200
C521	C52	0.177400	0.742200	0.429300
H501	H50	0.151500	0.679700	0.458700
N71	N7	0.256600	0.791190	0.483410
C531	C53	0.293600	0.882800	0.444600
H511	H51	0.346000	0.917400	0.485000
C541	C54	0.254100	0.926000	0.344900
H521	H52	0.281100	0.988700	0.317100
C551	C55	0.301400	0.746900	0.591130
H531	H53	0.375800	0.761900	0.594500
H541	H54	0.292500	0.671500	0.591400
C561	C56	0.247600	0.793500	0.695100
H551	H55	0.173200	0.778600	0.691700
H561	H56	0.256700	0.868900	0.695000
O151	O15	0.951200	0.113420	0.137980
O161	O16	0.811600	0.012000	0.124500
C571	C57	0.866200	0.078900	0.174100
C581	C58	0.825400	0.124200	0.286700
C591	C59	0.865700	0.216300	0.330700
H571	H57	0.921100	0.249900	0.294200
C601	C60	0.822600	0.257800	0.429300
H581	H58	0.848500	0.320300	0.458700
N81	N8	0.743400	0.208810	0.483410
C611	C61	0.706400	0.117200	0.444600
H591	H59	0.654000	0.082600	0.485000
C621	C62	0.745900	0.074000	0.344900
H601	H60	0.718900	0.011300	0.317100
C631	C63	0.698600	0.253100	0.591130
H611	H61	0.624200	0.238100	0.594500
H621	H62	0.707500	0.328500	0.591400
C641	C64	0.752400	0.206500	0.695100
H631	H63	0.826800	0.221400	0.691700
H641	H64	0.743300	0.131100	0.695000
Cd11	Cd1	0.500000	0.500000	0.500000
Cd21	Cd2	0.000000	0.000000	0.000000
