data_FEFCUQ_clean_PM
_symmetry_space_group_name_H-M	'P1'
_cell_length_a	14.071000
_cell_length_b	15.265000
_cell_length_c	15.351000
_cell_angle_alpha	88.337000
_cell_angle_beta	85.779000
_cell_angle_gamma	85.205000
_symmetry_Int_Tables_number 1

loop_
_symmetry_equiv_pos_as_xyz
'x,y,z'

loop_
_atom_site_label
_atom_site_type_symbol
_atom_site_fract_x
_atom_site_fract_y
_atom_site_fract_z
Zn11	Zn1	0.894970	0.835290	0.600480
Zn21	Zn2	0.686210	0.851010	0.614090
H11	H1	0.914900	0.769500	0.881800
H21	H2	0.912900	0.756600	0.030700
H31	H3	0.655100	0.878100	0.050500
H41	H4	0.648100	0.824300	0.188400
H51	H5	0.649100	0.878700	0.902800
H61	H6	0.651200	0.834600	0.336300
H71	H7	0.935700	0.834500	0.308300
H81	H8	0.932900	0.823500	0.160000
H91	H9	0.926700	0.112600	0.614900
H101	H10	0.639600	0.141700	0.616700
H111	H11	0.645400	0.291400	0.615600
H121	H12	0.931400	0.261600	0.614100
H131	H13	0.920500	0.397400	0.545800
H141	H14	0.928000	0.544900	0.545100
H151	H15	0.042500	0.968600	0.604700
H161	H16	0.068700	0.712500	0.614200
H171	H17	0.230100	0.711900	0.620100
H181	H18	0.201000	0.975600	0.601400
H191	H19	0.375300	0.724300	0.668400
H201	H20	0.353800	0.968000	0.559000
H211	H21	0.535600	0.719300	0.649100
H221	H22	0.513500	0.973100	0.564800
H231	H23	0.670200	0.571900	0.674000
H241	H24	0.664200	0.422100	0.676300
C11	C1	0.783700	0.832500	0.776600
C21	C2	0.782500	0.825500	0.873300
C31	C3	0.860300	0.790600	0.915200
C41	C4	0.860500	0.785500	0.005600
C51	C5	0.708500	0.855000	0.016800
C61	C6	0.797400	0.845200	0.438300
C71	C7	0.794400	0.837700	0.339200
C81	C8	0.706700	0.826700	0.212100
C91	C9	0.704900	0.856500	0.927300
C101	C10	0.708100	0.833200	0.301300
C111	C11	0.877200	0.833100	0.284200
C121	C12	0.875700	0.826300	0.194600
C131	C13	0.789800	0.823600	0.155200
C141	C14	0.786500	0.821200	0.058700
C151	C15	0.779800	0.012900	0.612000
C161	C16	0.783900	0.110600	0.615100
C171	C17	0.869900	0.148400	0.614800
C181	C18	0.698300	0.165800	0.615800
C191	C19	0.702200	0.255500	0.615400
C201	C20	0.872400	0.238200	0.614500
C211	C21	0.790200	0.295500	0.614600
C221	C22	0.794000	0.391700	0.612300
C231	C23	0.869800	0.432100	0.572600
C241	C24	0.873800	0.520900	0.570900
C251	C25	0.800100	0.575400	0.606100
C261	C26	0.081500	0.916300	0.605400
C271	C27	0.096000	0.766000	0.612200
C281	C28	0.193400	0.765100	0.615100
C291	C29	0.238000	0.844600	0.610400
C301	C30	0.176100	0.921000	0.605100
C311	C31	0.342200	0.845900	0.611300
C321	C32	0.403700	0.772500	0.642900
C331	C33	0.389500	0.919400	0.581200
C341	C34	0.498300	0.770900	0.637100
C351	C35	0.485200	0.922200	0.583200
C361	C36	0.802400	0.673200	0.603600
C371	C37	0.720700	0.536500	0.647800
C381	C38	0.717600	0.446800	0.649800
N11	N1	0.039200	0.839200	0.606700
N21	N2	0.541400	0.850000	0.612200
O11	O1	0.698600	0.982800	0.607700
O21	O2	0.858200	0.966700	0.613100
O31	O3	0.861300	0.815700	0.732600
O41	O4	0.703400	0.852500	0.744700
O51	O5	0.723200	0.718100	0.617900
O61	O6	0.882000	0.704600	0.587200
O71	O7	0.717900	0.847400	0.481400
O81	O8	0.877800	0.848700	0.467000
Zn31	Zn3	0.105030	0.164710	0.399520
Zn41	Zn4	0.313790	0.148990	0.385910
H251	H25	0.085100	0.230500	0.118200
H261	H26	0.087100	0.243400	0.969300
H271	H27	0.344900	0.121900	0.949500
H281	H28	0.351900	0.175700	0.811600
H291	H29	0.350900	0.121300	0.097200
H301	H30	0.348800	0.165400	0.663700
H311	H31	0.064300	0.165500	0.691700
H321	H32	0.067100	0.176500	0.840000
H331	H33	0.073300	0.887400	0.385100
H341	H34	0.360400	0.858300	0.383300
H351	H35	0.354600	0.708600	0.384400
H361	H36	0.068600	0.738400	0.385900
H371	H37	0.079500	0.602600	0.454200
H381	H38	0.072000	0.455100	0.454900
H391	H39	0.957500	0.031400	0.395300
H401	H40	0.931300	0.287500	0.385800
H411	H41	0.769900	0.288100	0.379900
H421	H42	0.799000	0.024400	0.398600
H431	H43	0.624700	0.275700	0.331600
H441	H44	0.646200	0.032000	0.441000
H451	H45	0.464400	0.280700	0.350900
H461	H46	0.486500	0.026900	0.435200
H471	H47	0.329800	0.428100	0.326000
H481	H48	0.335800	0.577900	0.323700
C391	C39	0.216300	0.167500	0.223400
C401	C40	0.217500	0.174500	0.126700
C411	C41	0.139700	0.209400	0.084800
C421	C42	0.139500	0.214500	0.994400
C431	C43	0.291500	0.145000	0.983200
C441	C44	0.202600	0.154800	0.561700
C451	C45	0.205600	0.162300	0.660800
C461	C46	0.293300	0.173300	0.787900
C471	C47	0.295100	0.143500	0.072700
C481	C48	0.291900	0.166800	0.698700
C491	C49	0.122800	0.166900	0.715800
C501	C50	0.124300	0.173700	0.805400
C511	C51	0.210200	0.176400	0.844800
C521	C52	0.213500	0.178800	0.941300
C531	C53	0.220200	0.987100	0.388000
C541	C54	0.216100	0.889400	0.384900
C551	C55	0.130100	0.851600	0.385200
C561	C56	0.301700	0.834200	0.384200
C571	C57	0.297800	0.744500	0.384600
C581	C58	0.127600	0.761800	0.385500
C591	C59	0.209800	0.704500	0.385400
C601	C60	0.206000	0.608300	0.387700
C611	C61	0.130200	0.567900	0.427400
C621	C62	0.126200	0.479100	0.429100
C631	C63	0.199900	0.424600	0.393900
C641	C64	0.918500	0.083700	0.394600
C651	C65	0.904000	0.234000	0.387800
C661	C66	0.806600	0.234900	0.384900
C671	C67	0.762000	0.155400	0.389600
C681	C68	0.823900	0.079000	0.394900
C691	C69	0.657800	0.154100	0.388700
C701	C70	0.596300	0.227500	0.357100
C711	C71	0.610500	0.080600	0.418800
C721	C72	0.501700	0.229100	0.362900
C731	C73	0.514800	0.077800	0.416800
C741	C74	0.197600	0.326800	0.396400
C751	C75	0.279300	0.463500	0.352200
C761	C76	0.282400	0.553200	0.350200
N31	N3	0.960800	0.160800	0.393300
N41	N4	0.458600	0.150000	0.387800
O91	O9	0.301400	0.017200	0.392300
O101	O10	0.141800	0.033300	0.386900
O111	O11	0.138700	0.184300	0.267400
O121	O12	0.296600	0.147500	0.255300
O131	O13	0.276800	0.281900	0.382100
O141	O14	0.118000	0.295400	0.412800
O151	O15	0.282100	0.152600	0.518600
O161	O16	0.122200	0.151300	0.533000
