data_FEFDAX_clean_PM
_symmetry_space_group_name_H-M	'P1'
_cell_length_a	14.020000
_cell_length_b	15.082000
_cell_length_c	15.121000
_cell_angle_alpha	76.892000
_cell_angle_beta	86.550000
_cell_angle_gamma	83.446000
_symmetry_Int_Tables_number 1

loop_
_symmetry_equiv_pos_as_xyz
'x,y,z'

loop_
_atom_site_label
_atom_site_type_symbol
_atom_site_fract_x
_atom_site_fract_y
_atom_site_fract_z
Zn11	Zn1	0.898060	0.109850	0.829180
Zn21	Zn2	0.687810	0.130160	0.835560
H11	H1	0.210400	0.117200	0.966400
H21	H2	0.231200	0.124100	0.696800
H31	H3	0.359100	0.063800	0.966700
H41	H4	0.932300	0.102300	0.111700
H51	H5	0.935500	0.110200	0.260300
H61	H6	0.642700	0.125800	0.127200
H71	H7	0.049200	0.105100	0.963000
H81	H8	0.066700	0.122500	0.699300
H91	H9	0.657700	0.168300	0.544600
H101	H10	0.939300	0.080900	0.544900
H111	H11	0.643900	0.430500	0.819000
H121	H12	0.932800	0.071900	0.396500
H131	H13	0.655400	0.578400	0.827400
H141	H14	0.941800	0.811800	0.844000
H151	H15	0.654300	0.702700	0.824100
H161	H16	0.657000	0.849500	0.840600
H171	H17	0.525400	0.066700	0.965500
H181	H18	0.930200	0.400300	0.784800
H191	H19	0.364400	0.187800	0.701500
H201	H20	0.530200	0.191100	0.706400
C11	C1	0.345200	0.123100	0.832300
C21	C2	0.240800	0.119700	0.832500
C31	C3	0.183000	0.116000	0.910800
C41	C4	0.786100	0.112300	0.004200
C51	C5	0.799700	0.126000	0.660800
C61	C6	0.195000	0.121500	0.752300
C71	C7	0.393100	0.088900	0.912100
C81	C8	0.780800	0.294800	0.810000
C91	C9	0.788000	0.113200	0.102800
C101	C10	0.873400	0.108200	0.145400
C111	C11	0.875700	0.111500	0.233400
C121	C12	0.800500	0.849000	0.841600
C131	C13	0.702700	0.120500	0.155100
C141	C14	0.793700	0.119800	0.381500
C151	C15	0.785600	0.393000	0.807800
C161	C16	0.086800	0.110800	0.908100
C171	C17	0.097200	0.119400	0.754500
C181	C18	0.791200	0.116800	0.284600
C191	C19	0.714900	0.148600	0.514500
C201	C20	0.799100	0.123600	0.562400
C211	C21	0.880000	0.097000	0.515100
C221	C22	0.801300	0.944000	0.850000
C231	C23	0.705500	0.451700	0.816200
C241	C24	0.876700	0.093300	0.427000
C251	C25	0.796800	0.669200	0.823200
C261	C26	0.712300	0.539500	0.820400
C271	C27	0.881600	0.790400	0.839300
C281	C28	0.714300	0.725100	0.827600
C291	C29	0.716100	0.812600	0.837100
C301	C30	0.796000	0.571800	0.814900
C311	C31	0.492200	0.091800	0.911100
C321	C32	0.871900	0.435800	0.795500
C331	C33	0.396300	0.162000	0.756600
C341	C34	0.495600	0.163900	0.759800
N11	N1	0.542600	0.128700	0.835800
N21	N2	0.043200	0.113400	0.830800
N31	N3	0.704000	0.120100	0.245200
N41	N4	0.880600	0.701500	0.830500
N51	N5	0.713000	0.145300	0.427600
N61	N6	0.875500	0.521000	0.798000
O11	O1	0.705900	0.113700	0.971200
O21	O2	0.865700	0.108700	0.962000
O31	O3	0.721000	0.139900	0.701200
O41	O4	0.880100	0.111600	0.696800
O51	O5	0.881500	0.973400	0.853700
O61	O6	0.701500	0.264600	0.820700
O71	O7	0.861100	0.247200	0.802500
O81	O8	0.722500	0.992000	0.850300
Zn31	Zn3	0.101940	0.890150	0.170820
Zn41	Zn4	0.312190	0.869840	0.164440
H211	H21	0.789600	0.882800	0.033600
H221	H22	0.768800	0.875900	0.303200
H231	H23	0.640900	0.936200	0.033300
H241	H24	0.067700	0.897700	0.888300
H251	H25	0.064500	0.889800	0.739700
H261	H26	0.357300	0.874200	0.872800
H271	H27	0.950800	0.894900	0.037000
H281	H28	0.933300	0.877500	0.300700
H291	H29	0.342300	0.831700	0.455400
H301	H30	0.060700	0.919100	0.455100
H311	H31	0.356100	0.569500	0.181000
H321	H32	0.067200	0.928100	0.603500
H331	H33	0.344600	0.421600	0.172600
H341	H34	0.058200	0.188200	0.156000
H351	H35	0.345700	0.297300	0.175900
H361	H36	0.343000	0.150500	0.159400
H371	H37	0.474600	0.933300	0.034500
H381	H38	0.069800	0.599700	0.215200
H391	H39	0.635600	0.812200	0.298500
H401	H40	0.469800	0.808900	0.293600
C351	C35	0.654800	0.876900	0.167700
C361	C36	0.759200	0.880300	0.167500
C371	C37	0.817000	0.884000	0.089200
C381	C38	0.213900	0.887700	0.995800
C391	C39	0.200300	0.874000	0.339200
C401	C40	0.805000	0.878500	0.247700
C411	C41	0.606900	0.911100	0.087900
C421	C42	0.219200	0.705200	0.190000
C431	C43	0.212000	0.886800	0.897200
C441	C44	0.126600	0.891800	0.854600
C451	C45	0.124300	0.888500	0.766600
C461	C46	0.199500	0.151000	0.158400
C471	C47	0.297300	0.879500	0.844900
C481	C48	0.206300	0.880200	0.618500
C491	C49	0.214400	0.607000	0.192200
C501	C50	0.913200	0.889200	0.091900
C511	C51	0.902800	0.880600	0.245500
C521	C52	0.208800	0.883200	0.715400
C531	C53	0.285100	0.851400	0.485500
C541	C54	0.200900	0.876400	0.437600
C551	C55	0.120000	0.903000	0.484900
C561	C56	0.198700	0.056000	0.150000
C571	C57	0.294500	0.548300	0.183800
C581	C58	0.123300	0.906700	0.573000
C591	C59	0.203200	0.330800	0.176800
C601	C60	0.287700	0.460500	0.179600
C611	C61	0.118400	0.209600	0.160700
C621	C62	0.285700	0.274900	0.172400
C631	C63	0.283900	0.187400	0.162900
C641	C64	0.204000	0.428200	0.185100
C651	C65	0.507800	0.908200	0.088900
C661	C66	0.128100	0.564200	0.204500
C671	C67	0.603700	0.838000	0.243400
C681	C68	0.504400	0.836100	0.240200
N71	N7	0.457400	0.871300	0.164200
N81	N8	0.956800	0.886600	0.169200
N91	N9	0.296000	0.879900	0.754800
N101	N10	0.119400	0.298500	0.169500
N111	N11	0.287000	0.854700	0.572400
N121	N12	0.124500	0.479000	0.202000
O91	O9	0.294100	0.886300	0.028800
O101	O10	0.134300	0.891300	0.038000
O111	O11	0.279000	0.860100	0.298800
O121	O12	0.119900	0.888400	0.303200
O131	O13	0.118500	0.026600	0.146300
O141	O14	0.298500	0.735400	0.179300
O151	O15	0.138900	0.752800	0.197500
O161	O16	0.277500	0.008000	0.149700
