data_FEFZOF_clean_PM
_symmetry_space_group_name_H-M	'P1'
_cell_length_a	7.683800
_cell_length_b	14.953000
_cell_length_c	15.955000
_cell_angle_alpha	90.000000
_cell_angle_beta	90.000000
_cell_angle_gamma	90.000000
_symmetry_Int_Tables_number 1

loop_
_symmetry_equiv_pos_as_xyz
'x,y,z'

loop_
_atom_site_label
_atom_site_type_symbol
_atom_site_fract_x
_atom_site_fract_y
_atom_site_fract_z
Co11	Co1	0.977700	0.693400	0.372100
Co21	Co2	0.022300	0.193400	0.627900
Co31	Co3	0.522300	0.693400	0.872100
Co41	Co4	0.477700	0.193400	0.127900
Hg11	Hg1	0.451700	0.500000	0.564600
Hg21	Hg2	0.548300	0.000000	0.435400
Hg31	Hg3	0.048300	0.500000	0.064600
Hg41	Hg4	0.951700	0.000000	0.935400
C11	C1	0.310000	0.683900	0.492900
C21	C2	0.370000	0.536200	0.756000
C31	C3	0.186000	0.348700	0.511600
C41	C4	0.826000	0.535800	0.484200
C51	C5	0.690000	0.183900	0.507100
C61	C6	0.630000	0.036200	0.244000
C71	C7	0.814000	0.848700	0.488400
C81	C8	0.174000	0.035800	0.515800
C91	C9	0.190000	0.683900	0.992900
C101	C10	0.130000	0.536200	0.256000
C111	C11	0.314000	0.348700	0.011600
C121	C12	0.674000	0.535800	0.984200
C131	C13	0.810000	0.183900	0.007100
C141	C14	0.870000	0.036200	0.744000
C151	C15	0.686000	0.848700	0.988400
C161	C16	0.326000	0.035800	0.015800
S11	S1	0.472000	0.668000	0.559600
S21	S2	0.298700	0.449700	0.697200
S31	S3	0.250600	0.431600	0.451300
S41	S4	0.760500	0.445500	0.541500
S51	S5	0.528000	0.168000	0.440400
S61	S6	0.701300	0.949700	0.302800
S71	S7	0.749400	0.931600	0.548700
S81	S8	0.239500	0.945500	0.458500
S91	S9	0.028000	0.668000	0.059600
S101	S10	0.201300	0.449700	0.197200
S111	S11	0.249400	0.431600	0.951300
S121	S12	0.739500	0.445500	0.041500
S131	S13	0.972000	0.168000	0.940400
S141	S14	0.798700	0.949700	0.802800
S151	S15	0.750600	0.931600	0.048700
S161	S16	0.260500	0.945500	0.958500
N11	N1	0.203000	0.695400	0.447700
N21	N2	0.413000	0.592400	0.794400
N31	N3	0.141000	0.292000	0.553000
N41	N4	0.870000	0.594900	0.447400
N51	N5	0.797000	0.195400	0.552300
N61	N6	0.587000	0.092400	0.205600
N71	N7	0.859000	0.792000	0.447000
N81	N8	0.130000	0.094900	0.552600
N91	N9	0.297000	0.695400	0.947700
N101	N10	0.087000	0.592400	0.294400
N111	N11	0.359000	0.292000	0.053000
N121	N12	0.630000	0.594900	0.947400
N131	N13	0.703000	0.195400	0.052300
N141	N14	0.913000	0.092400	0.705600
N151	N15	0.641000	0.792000	0.947000
N161	N16	0.370000	0.094900	0.052600
