data_FEGNIQ_clean_PM
_symmetry_space_group_name_H-M	'P1'
_cell_length_a	13.084300
_cell_length_b	25.404500
_cell_length_c	16.341600
_cell_angle_alpha	90.000000
_cell_angle_beta	93.974000
_cell_angle_gamma	90.000000
_symmetry_Int_Tables_number 1

loop_
_symmetry_equiv_pos_as_xyz
'x,y,z'

loop_
_atom_site_label
_atom_site_type_symbol
_atom_site_fract_x
_atom_site_fract_y
_atom_site_fract_z
C11	C1	0.547760	0.783170	0.477820
C21	C2	0.673540	0.738180	0.401450
H11	H1	0.697200	0.707100	0.379300
C31	C3	0.224580	0.901020	0.269430
C41	C4	0.829480	0.671260	0.060820
C51	C5	0.944660	0.741000	0.266550
C61	C6	0.917950	0.701040	0.029060
C71	C7	0.119430	0.729050	0.186480
H21	H2	0.179100	0.724800	0.159300
C81	C8	0.726540	0.784570	0.391810
C91	C9	0.585610	0.737610	0.443780
H31	H3	0.551000	0.706000	0.449600
C101	C10	0.821560	0.789480	0.345810
C111	C11	0.994930	0.783690	0.233770
H41	H4	0.968200	0.817300	0.239100
C121	C12	0.984940	0.691100	0.257540
H51	H5	0.952900	0.661900	0.278600
C131	C13	0.297300	0.952800	0.389850
H61	H6	0.315300	0.921100	0.415500
C141	C14	0.690200	0.830070	0.426250
H71	H7	0.725400	0.861500	0.420900
C151	C15	0.247690	0.952400	0.312040
C161	C16	0.072960	0.685350	0.217100
H81	H8	0.101000	0.652100	0.210500
C171	C17	0.917980	0.755540	0.028810
H91	H9	0.862900	0.773800	0.048000
C181	C18	0.602500	0.829440	0.468270
H101	H10	0.579400	0.860600	0.490700
N11	N1	0.081120	0.777290	0.194710
N21	N2	0.854580	0.745910	0.308730
H111	H11	0.816900	0.718300	0.311000
O11	O1	0.264230	0.860290	0.296600
O21	O2	0.164100	0.903490	0.204570
O31	O3	0.385500	0.957050	0.550280
O41	O4	0.867180	0.831110	0.343370
O51	O5	0.769400	0.698440	0.102460
O61	O6	0.817410	0.624570	0.045690
O71	O7	0.058880	0.866260	0.050910
Zn11	Zn1	0.153530	0.838790	0.142030
C191	C19	0.047760	0.283170	0.477820
C201	C20	0.173540	0.238180	0.401450
H121	H12	0.197200	0.207100	0.379300
C211	C21	0.724580	0.401020	0.269430
C221	C22	0.329480	0.171260	0.060820
C231	C23	0.444660	0.241000	0.266550
C241	C24	0.417950	0.201040	0.029060
C251	C25	0.619430	0.229050	0.186480
H131	H13	0.679100	0.224800	0.159300
C261	C26	0.226540	0.284570	0.391810
C271	C27	0.085610	0.237610	0.443780
H141	H14	0.051000	0.206000	0.449600
C281	C28	0.321560	0.289480	0.345810
C291	C29	0.494930	0.283690	0.233770
H151	H15	0.468200	0.317300	0.239100
C301	C30	0.484940	0.191100	0.257540
H161	H16	0.452900	0.161900	0.278600
C311	C31	0.797300	0.452800	0.389850
H171	H17	0.815300	0.421100	0.415500
C321	C32	0.190200	0.330070	0.426250
H181	H18	0.225400	0.361500	0.420900
C331	C33	0.747690	0.452400	0.312040
C341	C34	0.572960	0.185350	0.217100
H191	H19	0.601000	0.152100	0.210500
C351	C35	0.417980	0.255540	0.028810
H201	H20	0.362900	0.273800	0.048000
C361	C36	0.102500	0.329440	0.468270
H211	H21	0.079400	0.360600	0.490700
N31	N3	0.581120	0.277290	0.194710
N41	N4	0.354580	0.245910	0.308730
H221	H22	0.316900	0.218300	0.311000
O81	O8	0.764230	0.360290	0.296600
O91	O9	0.664100	0.403490	0.204570
O101	O10	0.885500	0.457050	0.550280
O111	O11	0.367180	0.331110	0.343370
O121	O12	0.269400	0.198440	0.102460
O131	O13	0.317410	0.124570	0.045690
O141	O14	0.558880	0.366260	0.050910
Zn21	Zn2	0.653530	0.338790	0.142030
C371	C37	0.452240	0.783170	0.522180
C381	C38	0.326460	0.738180	0.598550
H231	H23	0.302800	0.707100	0.620700
C391	C39	0.775420	0.901020	0.730570
C401	C40	0.170520	0.671260	0.939180
C411	C41	0.055340	0.741000	0.733450
C421	C42	0.082050	0.701040	0.970940
C431	C43	0.880570	0.729050	0.813520
H241	H24	0.820900	0.724800	0.840700
C441	C44	0.273460	0.784570	0.608190
C451	C45	0.414390	0.737610	0.556220
H251	H25	0.449000	0.706000	0.550400
C461	C46	0.178440	0.789480	0.654190
C471	C47	0.005070	0.783690	0.766230
H261	H26	0.031800	0.817300	0.760900
C481	C48	0.015060	0.691100	0.742460
H271	H27	0.047100	0.661900	0.721400
C491	C49	0.702700	0.952800	0.610150
H281	H28	0.684700	0.921100	0.584500
C501	C50	0.309800	0.830070	0.573750
H291	H29	0.274600	0.861500	0.579100
C511	C51	0.752310	0.952400	0.687960
C521	C52	0.927040	0.685350	0.782900
H301	H30	0.899000	0.652100	0.789500
C531	C53	0.082020	0.755540	0.971190
H311	H31	0.137100	0.773800	0.952000
C541	C54	0.397500	0.829440	0.531730
H321	H32	0.420600	0.860600	0.509300
N51	N5	0.918880	0.777290	0.805290
N61	N6	0.145420	0.745910	0.691270
H331	H33	0.183100	0.718300	0.689000
O151	O15	0.735770	0.860290	0.703400
O161	O16	0.835900	0.903490	0.795430
O171	O17	0.614500	0.957050	0.449720
O181	O18	0.132820	0.831110	0.656630
O191	O19	0.230600	0.698440	0.897540
O201	O20	0.182590	0.624570	0.954310
O211	O21	0.941120	0.866260	0.949090
Zn31	Zn3	0.846470	0.838790	0.857970
C551	C55	0.952240	0.283170	0.522180
C561	C56	0.826460	0.238180	0.598550
H341	H34	0.802800	0.207100	0.620700
C571	C57	0.275420	0.401020	0.730570
C581	C58	0.670520	0.171260	0.939180
C591	C59	0.555340	0.241000	0.733450
C601	C60	0.582050	0.201040	0.970940
C611	C61	0.380570	0.229050	0.813520
H351	H35	0.320900	0.224800	0.840700
C621	C62	0.773460	0.284570	0.608190
C631	C63	0.914390	0.237610	0.556220
H361	H36	0.949000	0.206000	0.550400
C641	C64	0.678440	0.289480	0.654190
C651	C65	0.505070	0.283690	0.766230
H371	H37	0.531800	0.317300	0.760900
C661	C66	0.515060	0.191100	0.742460
H381	H38	0.547100	0.161900	0.721400
C671	C67	0.202700	0.452800	0.610150
H391	H39	0.184700	0.421100	0.584500
C681	C68	0.809800	0.330070	0.573750
H401	H40	0.774600	0.361500	0.579100
C691	C69	0.252310	0.452400	0.687960
C701	C70	0.427040	0.185350	0.782900
H411	H41	0.399000	0.152100	0.789500
C711	C71	0.582020	0.255540	0.971190
H421	H42	0.637100	0.273800	0.952000
C721	C72	0.897500	0.329440	0.531730
H431	H43	0.920600	0.360600	0.509300
N71	N7	0.418880	0.277290	0.805290
N81	N8	0.645420	0.245910	0.691270
H441	H44	0.683100	0.218300	0.689000
O221	O22	0.235770	0.360290	0.703400
O231	O23	0.335900	0.403490	0.795430
O241	O24	0.114500	0.457050	0.449720
O251	O25	0.632820	0.331110	0.656630
O261	O26	0.730600	0.198440	0.897540
O271	O27	0.682590	0.124570	0.954310
O281	O28	0.441120	0.366260	0.949090
Zn41	Zn4	0.346470	0.338790	0.857970
C731	C73	0.452240	0.216830	0.522180
C741	C74	0.326460	0.261820	0.598550
H451	H45	0.302800	0.292900	0.620700
C751	C75	0.775420	0.098980	0.730570
C761	C76	0.170520	0.328740	0.939180
C771	C77	0.055340	0.259000	0.733450
C781	C78	0.082050	0.298960	0.970940
C791	C79	0.880570	0.270950	0.813520
H461	H46	0.820900	0.275200	0.840700
C801	C80	0.273460	0.215430	0.608190
C811	C81	0.414390	0.262390	0.556220
H471	H47	0.449000	0.294000	0.550400
C821	C82	0.178440	0.210520	0.654190
C831	C83	0.005070	0.216310	0.766230
H481	H48	0.031800	0.182700	0.760900
C841	C84	0.015060	0.308900	0.742460
H491	H49	0.047100	0.338100	0.721400
C851	C85	0.702700	0.047200	0.610150
H501	H50	0.684700	0.078900	0.584500
C861	C86	0.309800	0.169930	0.573750
H511	H51	0.274600	0.138500	0.579100
C871	C87	0.752310	0.047600	0.687960
C881	C88	0.927040	0.314650	0.782900
H521	H52	0.899000	0.347900	0.789500
C891	C89	0.082020	0.244460	0.971190
H531	H53	0.137100	0.226200	0.952000
C901	C90	0.397500	0.170560	0.531730
H541	H54	0.420600	0.139400	0.509300
N91	N9	0.918880	0.222710	0.805290
N101	N10	0.145420	0.254090	0.691270
H551	H55	0.183100	0.281700	0.689000
O291	O29	0.735770	0.139710	0.703400
O301	O30	0.835900	0.096510	0.795430
O311	O31	0.614500	0.042950	0.449720
O321	O32	0.132820	0.168890	0.656630
O331	O33	0.230600	0.301560	0.897540
O341	O34	0.182590	0.375430	0.954310
O351	O35	0.941120	0.133740	0.949090
Zn51	Zn5	0.846470	0.161210	0.857970
C911	C91	0.952240	0.716830	0.522180
C921	C92	0.826460	0.761820	0.598550
H561	H56	0.802800	0.792900	0.620700
C931	C93	0.275420	0.598980	0.730570
C941	C94	0.670520	0.828740	0.939180
C951	C95	0.555340	0.759000	0.733450
C961	C96	0.582050	0.798960	0.970940
C971	C97	0.380570	0.770950	0.813520
H571	H57	0.320900	0.775200	0.840700
C981	C98	0.773460	0.715430	0.608190
C991	C99	0.914390	0.762390	0.556220
H581	H58	0.949000	0.794000	0.550400
C1001	C100	0.678440	0.710520	0.654190
C1011	C101	0.505070	0.716310	0.766230
H591	H59	0.531800	0.682700	0.760900
C1021	C102	0.515060	0.808900	0.742460
H601	H60	0.547100	0.838100	0.721400
C1031	C103	0.202700	0.547200	0.610150
H611	H61	0.184700	0.578900	0.584500
C1041	C104	0.809800	0.669930	0.573750
H621	H62	0.774600	0.638500	0.579100
C1051	C105	0.252310	0.547600	0.687960
C1061	C106	0.427040	0.814650	0.782900
H631	H63	0.399000	0.847900	0.789500
C1071	C107	0.582020	0.744460	0.971190
H641	H64	0.637100	0.726200	0.952000
C1081	C108	0.897500	0.670560	0.531730
H651	H65	0.920600	0.639400	0.509300
N111	N11	0.418880	0.722710	0.805290
N121	N12	0.645420	0.754090	0.691270
H661	H66	0.683100	0.781700	0.689000
O361	O36	0.235770	0.639710	0.703400
O371	O37	0.335900	0.596510	0.795430
O381	O38	0.114500	0.542950	0.449720
O391	O39	0.632820	0.668890	0.656630
O401	O40	0.730600	0.801560	0.897540
O411	O41	0.682590	0.875430	0.954310
O421	O42	0.441120	0.633740	0.949090
Zn61	Zn6	0.346470	0.661210	0.857970
C1091	C109	0.547760	0.216830	0.477820
C1101	C110	0.673540	0.261820	0.401450
H671	H67	0.697200	0.292900	0.379300
C1111	C111	0.224580	0.098980	0.269430
C1121	C112	0.829480	0.328740	0.060820
C1131	C113	0.944660	0.259000	0.266550
C1141	C114	0.917950	0.298960	0.029060
C1151	C115	0.119430	0.270950	0.186480
H681	H68	0.179100	0.275200	0.159300
C1161	C116	0.726540	0.215430	0.391810
C1171	C117	0.585610	0.262390	0.443780
H691	H69	0.551000	0.294000	0.449600
C1181	C118	0.821560	0.210520	0.345810
C1191	C119	0.994930	0.216310	0.233770
H701	H70	0.968200	0.182700	0.239100
C1201	C120	0.984940	0.308900	0.257540
H711	H71	0.952900	0.338100	0.278600
C1211	C121	0.297300	0.047200	0.389850
H721	H72	0.315300	0.078900	0.415500
C1221	C122	0.690200	0.169930	0.426250
H731	H73	0.725400	0.138500	0.420900
C1231	C123	0.247690	0.047600	0.312040
C1241	C124	0.072960	0.314650	0.217100
H741	H74	0.101000	0.347900	0.210500
C1251	C125	0.917980	0.244460	0.028810
H751	H75	0.862900	0.226200	0.048000
C1261	C126	0.602500	0.170560	0.468270
H761	H76	0.579400	0.139400	0.490700
N131	N13	0.081120	0.222710	0.194710
N141	N14	0.854580	0.254090	0.308730
H771	H77	0.816900	0.281700	0.311000
O431	O43	0.264230	0.139710	0.296600
O441	O44	0.164100	0.096510	0.204570
O451	O45	0.385500	0.042950	0.550280
O461	O46	0.867180	0.168890	0.343370
O471	O47	0.769400	0.301560	0.102460
O481	O48	0.817410	0.375430	0.045690
O491	O49	0.058880	0.133740	0.050910
Zn71	Zn7	0.153530	0.161210	0.142030
C1271	C127	0.047760	0.716830	0.477820
C1281	C128	0.173540	0.761820	0.401450
H781	H78	0.197200	0.792900	0.379300
C1291	C129	0.724580	0.598980	0.269430
C1301	C130	0.329480	0.828740	0.060820
C1311	C131	0.444660	0.759000	0.266550
C1321	C132	0.417950	0.798960	0.029060
C1331	C133	0.619430	0.770950	0.186480
H791	H79	0.679100	0.775200	0.159300
C1341	C134	0.226540	0.715430	0.391810
C1351	C135	0.085610	0.762390	0.443780
H801	H80	0.051000	0.794000	0.449600
C1361	C136	0.321560	0.710520	0.345810
C1371	C137	0.494930	0.716310	0.233770
H811	H81	0.468200	0.682700	0.239100
C1381	C138	0.484940	0.808900	0.257540
H821	H82	0.452900	0.838100	0.278600
C1391	C139	0.797300	0.547200	0.389850
H831	H83	0.815300	0.578900	0.415500
C1401	C140	0.190200	0.669930	0.426250
H841	H84	0.225400	0.638500	0.420900
C1411	C141	0.747690	0.547600	0.312040
C1421	C142	0.572960	0.814650	0.217100
H851	H85	0.601000	0.847900	0.210500
C1431	C143	0.417980	0.744460	0.028810
H861	H86	0.362900	0.726200	0.048000
C1441	C144	0.102500	0.670560	0.468270
H871	H87	0.079400	0.639400	0.490700
N151	N15	0.581120	0.722710	0.194710
N161	N16	0.354580	0.754090	0.308730
H881	H88	0.316900	0.781700	0.311000
O501	O50	0.764230	0.639710	0.296600
O511	O51	0.664100	0.596510	0.204570
O521	O52	0.885500	0.542950	0.550280
O531	O53	0.367180	0.668890	0.343370
O541	O54	0.269400	0.801560	0.102460
O551	O55	0.317410	0.875430	0.045690
O561	O56	0.558880	0.633740	0.050910
Zn81	Zn8	0.653530	0.661210	0.142030
C1451	C145	0.222000	0.000000	0.274700
H891	H89	0.186700	0.000000	0.223300
C1461	C146	0.320500	0.000000	0.429800
C1471	C147	0.368500	0.000000	0.515300
C1481	C148	0.722000	0.500000	0.274700
H901	H90	0.686700	0.500000	0.223300
C1491	C149	0.820500	0.500000	0.429800
C1501	C150	0.868500	0.500000	0.515300
C1511	C151	0.778000	0.000000	0.725300
H911	H91	0.813300	0.000000	0.776700
C1521	C152	0.679500	0.000000	0.570200
C1531	C153	0.631500	0.000000	0.484700
C1541	C154	0.278000	0.500000	0.725300
H921	H92	0.313300	0.500000	0.776700
C1551	C155	0.179500	0.500000	0.570200
C1561	C156	0.131500	0.500000	0.484700
C1571	C157	0.000000	0.673900	0.000000
H931	H93	0.000000	0.637300	0.000000
C1581	C158	0.000000	0.783040	0.000000
C1591	C159	0.000000	0.842010	0.000000
C1601	C160	0.500000	0.173900	0.000000
H941	H94	0.500000	0.137300	0.000000
C1611	C161	0.500000	0.283040	0.000000
C1621	C162	0.500000	0.342010	0.000000
C1631	C163	0.000000	0.326100	0.000000
H951	H95	0.000000	0.362700	0.000000
C1641	C164	0.000000	0.216960	0.000000
C1651	C165	0.000000	0.157990	0.000000
C1661	C166	0.500000	0.826100	0.000000
H961	H96	0.500000	0.862700	0.000000
C1671	C167	0.500000	0.716960	0.000000
C1681	C168	0.500000	0.657990	0.000000
