data_FEJDII01_clean_PM
_symmetry_space_group_name_H-M	'P1'
_cell_length_a	10.339700
_cell_length_b	14.763200
_cell_length_c	13.772600
_cell_angle_alpha	90.000000
_cell_angle_beta	100.734000
_cell_angle_gamma	90.000000
_symmetry_Int_Tables_number 1

loop_
_symmetry_equiv_pos_as_xyz
'x,y,z'

loop_
_atom_site_label
_atom_site_type_symbol
_atom_site_fract_x
_atom_site_fract_y
_atom_site_fract_z
Zn11	Zn1	0.054110	0.921030	0.397660
P11	P1	0.210800	0.846840	0.231700
H11	H1	0.194000	0.758000	0.261000
P21	P2	0.564560	0.620750	0.116040
H21	H2	0.660000	0.599200	0.202600
O11	O1	0.188100	0.906200	0.316100
O21	O2	0.455400	0.552010	0.107600
O31	O3	0.108900	0.858000	0.139300
O41	O4	0.634800	0.620500	0.028840
O51	O5	0.512900	0.714970	0.132710
O61	O6	0.349200	0.861510	0.212300
Zn21	Zn2	0.554110	0.421030	0.397660
P31	P3	0.710800	0.346840	0.231700
H31	H3	0.694000	0.258000	0.261000
P41	P4	0.064560	0.120750	0.116040
H41	H4	0.160000	0.099200	0.202600
O71	O7	0.688100	0.406200	0.316100
O81	O8	0.955400	0.052010	0.107600
O91	O9	0.608900	0.358000	0.139300
O101	O10	0.134800	0.120500	0.028840
O111	O11	0.012900	0.214970	0.132710
O121	O12	0.849200	0.361510	0.212300
Zn31	Zn3	0.945890	0.921030	0.102340
P51	P5	0.789200	0.846840	0.268300
H51	H5	0.806000	0.758000	0.239000
P61	P6	0.435440	0.620750	0.383960
H61	H6	0.340000	0.599200	0.297400
O131	O13	0.811900	0.906200	0.183900
O141	O14	0.544600	0.552010	0.392400
O151	O15	0.891100	0.858000	0.360700
O161	O16	0.365200	0.620500	0.471160
O171	O17	0.487100	0.714970	0.367290
O181	O18	0.650800	0.861510	0.287700
Zn41	Zn4	0.445890	0.421030	0.102340
P71	P7	0.289200	0.346840	0.268300
H71	H7	0.306000	0.258000	0.239000
P81	P8	0.935440	0.120750	0.383960
H81	H8	0.840000	0.099200	0.297400
O191	O19	0.311900	0.406200	0.183900
O201	O20	0.044600	0.052010	0.392400
O211	O21	0.391100	0.358000	0.360700
O221	O22	0.865200	0.120500	0.471160
O231	O23	0.987100	0.214970	0.367290
O241	O24	0.150800	0.361510	0.287700
Zn51	Zn5	0.945890	0.078970	0.602340
P91	P9	0.789200	0.153160	0.768300
H91	H9	0.806000	0.242000	0.739000
P101	P10	0.435440	0.379250	0.883960
H101	H10	0.340000	0.400800	0.797400
O251	O25	0.811900	0.093800	0.683900
O261	O26	0.544600	0.447990	0.892400
O271	O27	0.891100	0.142000	0.860700
O281	O28	0.365200	0.379500	0.971160
O291	O29	0.487100	0.285030	0.867290
O301	O30	0.650800	0.138490	0.787700
Zn61	Zn6	0.445890	0.578970	0.602340
P111	P11	0.289200	0.653160	0.768300
H111	H11	0.306000	0.742000	0.739000
P121	P12	0.935440	0.879250	0.883960
H121	H12	0.840000	0.900800	0.797400
O311	O31	0.311900	0.593800	0.683900
O321	O32	0.044600	0.947990	0.892400
O331	O33	0.391100	0.642000	0.860700
O341	O34	0.865200	0.879500	0.971160
O351	O35	0.987100	0.785030	0.867290
O361	O36	0.150800	0.638490	0.787700
Zn71	Zn7	0.054110	0.078970	0.897660
P131	P13	0.210800	0.153160	0.731700
H131	H13	0.194000	0.242000	0.761000
P141	P14	0.564560	0.379250	0.616040
H141	H14	0.660000	0.400800	0.702600
O371	O37	0.188100	0.093800	0.816100
O381	O38	0.455400	0.447990	0.607600
O391	O39	0.108900	0.142000	0.639300
O401	O40	0.634800	0.379500	0.528840
O411	O41	0.512900	0.285030	0.632710
O421	O42	0.349200	0.138490	0.712300
Zn81	Zn8	0.554110	0.578970	0.897660
P151	P15	0.710800	0.653160	0.731700
H151	H15	0.694000	0.742000	0.761000
P161	P16	0.064560	0.879250	0.616040
H161	H16	0.160000	0.900800	0.702600
O431	O43	0.688100	0.593800	0.816100
O441	O44	0.955400	0.947990	0.607600
O451	O45	0.608900	0.642000	0.639300
O461	O46	0.134800	0.879500	0.528840
O471	O47	0.012900	0.785030	0.632710
O481	O48	0.849200	0.638490	0.712300
Zn91	Zn9	0.500000	0.784710	0.250000
Zn101	Zn10	0.000000	0.284710	0.250000
Zn111	Zn11	0.500000	0.215290	0.750000
Zn121	Zn12	0.000000	0.715290	0.750000
