data_FELVID_clean_PM
_symmetry_space_group_name_H-M	'P1'
_cell_length_a	18.726900
_cell_length_b	18.726900
_cell_length_c	18.726900
_cell_angle_alpha	60.000000
_cell_angle_beta	60.000000
_cell_angle_gamma	60.000000
_symmetry_Int_Tables_number 1

loop_
_symmetry_equiv_pos_as_xyz
'x,y,z'

loop_
_atom_site_label
_atom_site_type_symbol
_atom_site_fract_x
_atom_site_fract_y
_atom_site_fract_z
Ca11	Ca1	0.500000	0.500000	0.500000
Ca21	Ca2	0.000000	0.000000	0.500000
Ca31	Ca3	0.000000	0.500000	0.000000
Ca41	Ca4	0.000000	0.500000	0.500000
Ca51	Ca5	0.500000	0.500000	0.000000
Ca61	Ca6	0.000000	0.000000	0.000000
Ca71	Ca7	0.500000	0.000000	0.500000
Ca81	Ca8	0.500000	0.000000	0.000000
Er11	Er1	0.750000	0.250000	0.250000
Er21	Er2	0.750000	0.250000	0.750000
Er31	Er3	0.750000	0.750000	0.250000
Er41	Er4	0.250000	0.250000	0.250000
Er51	Er5	0.250000	0.750000	0.750000
Er61	Er6	0.250000	0.750000	0.250000
Er71	Er7	0.250000	0.250000	0.750000
Er81	Er8	0.750000	0.750000	0.750000
H11	H1	0.516600	0.415400	0.344800
H21	H2	0.576300	0.473700	0.294900
H31	H3	0.915400	0.016600	0.723200
H41	H4	0.973700	0.076300	0.655100
H51	H5	0.844800	0.723200	0.016600
H61	H6	0.794900	0.655100	0.076300
H71	H7	0.223200	0.344800	0.415400
H81	H8	0.155100	0.294900	0.473700
H91	H9	0.516600	0.344800	0.723200
H101	H10	0.576300	0.294900	0.655100
H111	H11	0.915400	0.723200	0.344800
H121	H12	0.973700	0.655100	0.294900
H131	H13	0.844800	0.016600	0.415400
H141	H14	0.794900	0.076300	0.473700
H151	H15	0.223200	0.415400	0.016600
H161	H16	0.155100	0.473700	0.076300
H171	H17	0.516600	0.723200	0.415400
H181	H18	0.576300	0.655100	0.473700
H191	H19	0.915400	0.344800	0.016600
H201	H20	0.973700	0.294900	0.076300
H211	H21	0.844800	0.415400	0.723200
H221	H22	0.794900	0.473700	0.655100
H231	H23	0.223200	0.016600	0.344800
H241	H24	0.155100	0.076300	0.294900
H251	H25	0.584600	0.483400	0.155200
H261	H26	0.526300	0.423700	0.205100
H271	H27	0.983400	0.084600	0.776800
H281	H28	0.923700	0.026300	0.844900
H291	H29	0.276800	0.155200	0.483400
H301	H30	0.344900	0.205100	0.423700
H311	H31	0.655200	0.776800	0.084600
H321	H32	0.705100	0.844900	0.026300
H331	H33	0.655200	0.483400	0.776800
H341	H34	0.705100	0.423700	0.844900
H351	H35	0.276800	0.084600	0.155200
H361	H36	0.344900	0.026300	0.205100
H371	H37	0.983400	0.155200	0.084600
H381	H38	0.923700	0.205100	0.026300
H391	H39	0.584600	0.776800	0.483400
H401	H40	0.526300	0.844900	0.423700
H411	H41	0.276800	0.483400	0.084600
H421	H42	0.344900	0.423700	0.026300
H431	H43	0.655200	0.084600	0.483400
H441	H44	0.705100	0.026300	0.423700
H451	H45	0.584600	0.155200	0.776800
H461	H46	0.526300	0.205100	0.844900
H471	H47	0.983400	0.776800	0.155200
H481	H48	0.923700	0.844900	0.205100
H491	H49	0.483400	0.584600	0.655200
H501	H50	0.423700	0.526300	0.705100
H511	H51	0.084600	0.983400	0.276800
H521	H52	0.026300	0.923700	0.344900
H531	H53	0.155200	0.276800	0.983400
H541	H54	0.205100	0.344900	0.923700
H551	H55	0.776800	0.655200	0.584600
H561	H56	0.844900	0.705100	0.526300
H571	H57	0.483400	0.655200	0.276800
H581	H58	0.423700	0.705100	0.344900
H591	H59	0.084600	0.276800	0.655200
H601	H60	0.026300	0.344900	0.705100
H611	H61	0.155200	0.983400	0.584600
H621	H62	0.205100	0.923700	0.526300
H631	H63	0.776800	0.584600	0.983400
H641	H64	0.844900	0.526300	0.923700
H651	H65	0.483400	0.276800	0.584600
H661	H66	0.423700	0.344900	0.526300
H671	H67	0.084600	0.655200	0.983400
H681	H68	0.026300	0.705100	0.923700
H691	H69	0.155200	0.584600	0.276800
H701	H70	0.205100	0.526300	0.344900
H711	H71	0.776800	0.983400	0.655200
H721	H72	0.844900	0.923700	0.705100
H731	H73	0.415400	0.516600	0.844800
H741	H74	0.473700	0.576300	0.794900
H751	H75	0.016600	0.915400	0.223200
H761	H76	0.076300	0.973700	0.155100
H771	H77	0.723200	0.844800	0.516600
H781	H78	0.655100	0.794900	0.576300
H791	H79	0.344800	0.223200	0.915400
H801	H80	0.294900	0.155100	0.973700
H811	H81	0.344800	0.516600	0.223200
H821	H82	0.294900	0.576300	0.155100
H831	H83	0.723200	0.915400	0.844800
H841	H84	0.655100	0.973700	0.794900
H851	H85	0.016600	0.844800	0.915400
H861	H86	0.076300	0.794900	0.973700
H871	H87	0.415400	0.223200	0.516600
H881	H88	0.473700	0.155100	0.576300
H891	H89	0.723200	0.516600	0.915400
H901	H90	0.655100	0.576300	0.973700
H911	H91	0.344800	0.915400	0.516600
H921	H92	0.294900	0.973700	0.576300
H931	H93	0.415400	0.844800	0.223200
H941	H94	0.473700	0.794900	0.155100
H951	H95	0.016600	0.223200	0.844800
H961	H96	0.076300	0.155100	0.794900
C11	C1	0.576700	0.414140	0.318060
C21	C2	0.621200	0.359520	0.385080
C31	C3	0.914140	0.076700	0.691100
C41	C4	0.859520	0.121200	0.634200
C51	C5	0.818060	0.691100	0.076700
C61	C6	0.885080	0.634200	0.121200
C71	C7	0.191100	0.318060	0.414140
C81	C8	0.134200	0.385080	0.359520
C91	C9	0.576700	0.318060	0.691100
C101	C10	0.621200	0.385080	0.634200
C111	C11	0.914140	0.691100	0.318060
C121	C12	0.859520	0.634200	0.385080
C131	C13	0.818060	0.076700	0.414140
C141	C14	0.885080	0.121200	0.359520
C151	C15	0.191100	0.414140	0.076700
C161	C16	0.134200	0.359520	0.121200
C171	C17	0.576700	0.691100	0.414140
C181	C18	0.621200	0.634200	0.359520
C191	C19	0.914140	0.318060	0.076700
C201	C20	0.859520	0.385080	0.121200
C211	C21	0.818060	0.414140	0.691100
C221	C22	0.885080	0.359520	0.634200
C231	C23	0.191100	0.076700	0.318060
C241	C24	0.134200	0.121200	0.385080
C251	C25	0.585860	0.423300	0.181940
C261	C26	0.640480	0.378800	0.114920
C271	C27	0.923300	0.085860	0.808900
C281	C28	0.878800	0.140480	0.865800
C291	C29	0.308900	0.181940	0.423300
C301	C30	0.365800	0.114920	0.378800
C311	C31	0.681940	0.808900	0.085860
C321	C32	0.614920	0.865800	0.140480
C331	C33	0.681940	0.423300	0.808900
C341	C34	0.614920	0.378800	0.865800
C351	C35	0.308900	0.085860	0.181940
C361	C36	0.365800	0.140480	0.114920
C371	C37	0.923300	0.181940	0.085860
C381	C38	0.878800	0.114920	0.140480
C391	C39	0.585860	0.808900	0.423300
C401	C40	0.640480	0.865800	0.378800
C411	C41	0.308900	0.423300	0.085860
C421	C42	0.365800	0.378800	0.140480
C431	C43	0.681940	0.085860	0.423300
C441	C44	0.614920	0.140480	0.378800
C451	C45	0.585860	0.181940	0.808900
C461	C46	0.640480	0.114920	0.865800
C471	C47	0.923300	0.808900	0.181940
C481	C48	0.878800	0.865800	0.114920
C491	C49	0.423300	0.585860	0.681940
C501	C50	0.378800	0.640480	0.614920
C511	C51	0.085860	0.923300	0.308900
C521	C52	0.140480	0.878800	0.365800
C531	C53	0.181940	0.308900	0.923300
C541	C54	0.114920	0.365800	0.878800
C551	C55	0.808900	0.681940	0.585860
C561	C56	0.865800	0.614920	0.640480
C571	C57	0.423300	0.681940	0.308900
C581	C58	0.378800	0.614920	0.365800
C591	C59	0.085860	0.308900	0.681940
C601	C60	0.140480	0.365800	0.614920
C611	C61	0.181940	0.923300	0.585860
C621	C62	0.114920	0.878800	0.640480
C631	C63	0.808900	0.585860	0.923300
C641	C64	0.865800	0.640480	0.878800
C651	C65	0.423300	0.308900	0.585860
C661	C66	0.378800	0.365800	0.640480
C671	C67	0.085860	0.681940	0.923300
C681	C68	0.140480	0.614920	0.878800
C691	C69	0.181940	0.585860	0.308900
C701	C70	0.114920	0.640480	0.365800
C711	C71	0.808900	0.923300	0.681940
C721	C72	0.865800	0.878800	0.614920
C731	C73	0.414140	0.576700	0.818060
C741	C74	0.359520	0.621200	0.885080
C751	C75	0.076700	0.914140	0.191100
C761	C76	0.121200	0.859520	0.134200
C771	C77	0.691100	0.818060	0.576700
C781	C78	0.634200	0.885080	0.621200
C791	C79	0.318060	0.191100	0.914140
C801	C80	0.385080	0.134200	0.859520
C811	C81	0.318060	0.576700	0.191100
C821	C82	0.385080	0.621200	0.134200
C831	C83	0.691100	0.914140	0.818060
C841	C84	0.634200	0.859520	0.885080
C851	C85	0.076700	0.818060	0.914140
C861	C86	0.121200	0.885080	0.859520
C871	C87	0.414140	0.191100	0.576700
C881	C88	0.359520	0.134200	0.621200
C891	C89	0.691100	0.576700	0.914140
C901	C90	0.634200	0.621200	0.859520
C911	C91	0.318060	0.914140	0.576700
C921	C92	0.385080	0.859520	0.621200
C931	C93	0.414140	0.818060	0.191100
C941	C94	0.359520	0.885080	0.134200
C951	C95	0.076700	0.191100	0.818060
C961	C96	0.121200	0.134200	0.885080
O11	O1	0.687590	0.294790	0.371810
O21	O2	0.590220	0.380600	0.450800
O31	O3	0.794790	0.187590	0.645810
O41	O4	0.880600	0.090220	0.578380
O51	O5	0.871810	0.645810	0.187590
O61	O6	0.950800	0.578380	0.090220
O71	O7	0.145810	0.371810	0.294790
O81	O8	0.078380	0.450800	0.380600
O91	O9	0.687590	0.371810	0.645810
O101	O10	0.590220	0.450800	0.578380
O111	O11	0.794790	0.645810	0.371810
O121	O12	0.880600	0.578380	0.450800
O131	O13	0.871810	0.187590	0.294790
O141	O14	0.950800	0.090220	0.380600
O151	O15	0.145810	0.294790	0.187590
O161	O16	0.078380	0.380600	0.090220
O171	O17	0.687590	0.645810	0.294790
O181	O18	0.590220	0.578380	0.380600
O191	O19	0.794790	0.371810	0.187590
O201	O20	0.880600	0.450800	0.090220
O211	O21	0.871810	0.294790	0.645810
O221	O22	0.950800	0.380600	0.578380
O231	O23	0.145810	0.187590	0.371810
O241	O24	0.078380	0.090220	0.450800
O251	O25	0.705210	0.312410	0.128190
O261	O26	0.619400	0.409780	0.049200
O271	O27	0.812410	0.205210	0.854190
O281	O28	0.909780	0.119400	0.921620
O291	O29	0.354190	0.128190	0.312410
O301	O30	0.421620	0.049200	0.409780
O311	O31	0.628190	0.854190	0.205210
O321	O32	0.549200	0.921620	0.119400
O331	O33	0.628190	0.312410	0.854190
O341	O34	0.549200	0.409780	0.921620
O351	O35	0.354190	0.205210	0.128190
O361	O36	0.421620	0.119400	0.049200
O371	O37	0.812410	0.128190	0.205210
O381	O38	0.909780	0.049200	0.119400
O391	O39	0.705210	0.854190	0.312410
O401	O40	0.619400	0.921620	0.409780
O411	O41	0.354190	0.312410	0.205210
O421	O42	0.421620	0.409780	0.119400
O431	O43	0.628190	0.205210	0.312410
O441	O44	0.549200	0.119400	0.409780
O451	O45	0.705210	0.128190	0.854190
O461	O46	0.619400	0.049200	0.921620
O471	O47	0.812410	0.854190	0.128190
O481	O48	0.909780	0.921620	0.049200
O491	O49	0.312410	0.705210	0.628190
O501	O50	0.409780	0.619400	0.549200
O511	O51	0.205210	0.812410	0.354190
O521	O52	0.119400	0.909780	0.421620
O531	O53	0.128190	0.354190	0.812410
O541	O54	0.049200	0.421620	0.909780
O551	O55	0.854190	0.628190	0.705210
O561	O56	0.921620	0.549200	0.619400
O571	O57	0.312410	0.628190	0.354190
O581	O58	0.409780	0.549200	0.421620
O591	O59	0.205210	0.354190	0.628190
O601	O60	0.119400	0.421620	0.549200
O611	O61	0.128190	0.812410	0.705210
O621	O62	0.049200	0.909780	0.619400
O631	O63	0.854190	0.705210	0.812410
O641	O64	0.921620	0.619400	0.909780
O651	O65	0.312410	0.354190	0.705210
O661	O66	0.409780	0.421620	0.619400
O671	O67	0.205210	0.628190	0.812410
O681	O68	0.119400	0.549200	0.909780
O691	O69	0.128190	0.705210	0.354190
O701	O70	0.049200	0.619400	0.421620
O711	O71	0.854190	0.812410	0.628190
O721	O72	0.921620	0.909780	0.549200
O731	O73	0.294790	0.687590	0.871810
O741	O74	0.380600	0.590220	0.950800
O751	O75	0.187590	0.794790	0.145810
O761	O76	0.090220	0.880600	0.078380
O771	O77	0.645810	0.871810	0.687590
O781	O78	0.578380	0.950800	0.590220
O791	O79	0.371810	0.145810	0.794790
O801	O80	0.450800	0.078380	0.880600
O811	O81	0.371810	0.687590	0.145810
O821	O82	0.450800	0.590220	0.078380
O831	O83	0.645810	0.794790	0.871810
O841	O84	0.578380	0.880600	0.950800
O851	O85	0.187590	0.871810	0.794790
O861	O86	0.090220	0.950800	0.880600
O871	O87	0.294790	0.145810	0.687590
O881	O88	0.380600	0.078380	0.590220
O891	O89	0.645810	0.687590	0.794790
O901	O90	0.578380	0.590220	0.880600
O911	O91	0.371810	0.794790	0.687590
O921	O92	0.450800	0.880600	0.590220
O931	O93	0.294790	0.871810	0.145810
O941	O94	0.380600	0.950800	0.078380
O951	O95	0.187590	0.145810	0.871810
O961	O96	0.090220	0.078380	0.950800
O971	O97	0.620360	0.379640	0.250000
O981	O98	0.879640	0.120360	0.750000
O991	O99	0.750000	0.750000	0.120360
O1001	O100	0.250000	0.250000	0.379640
O1011	O101	0.620360	0.250000	0.750000
O1021	O102	0.879640	0.750000	0.250000
O1031	O103	0.750000	0.120360	0.379640
O1041	O104	0.250000	0.379640	0.120360
O1051	O105	0.620360	0.750000	0.379640
O1061	O106	0.879640	0.250000	0.120360
O1071	O107	0.750000	0.379640	0.750000
O1081	O108	0.250000	0.120360	0.250000
O1091	O109	0.379640	0.620360	0.750000
O1101	O110	0.120360	0.879640	0.250000
O1111	O111	0.250000	0.250000	0.879640
O1121	O112	0.750000	0.750000	0.620360
O1131	O113	0.379640	0.750000	0.250000
O1141	O114	0.120360	0.250000	0.750000
O1151	O115	0.250000	0.879640	0.620360
O1161	O116	0.750000	0.620360	0.879640
O1171	O117	0.379640	0.250000	0.620360
O1181	O118	0.120360	0.750000	0.879640
O1191	O119	0.250000	0.620360	0.250000
O1201	O120	0.750000	0.879640	0.750000
