data_FELWUQ_clean_PM
_symmetry_space_group_name_H-M	'P1'
_cell_length_a	18.744700
_cell_length_b	18.744700
_cell_length_c	18.744700
_cell_angle_alpha	60.000000
_cell_angle_beta	60.000000
_cell_angle_gamma	60.000000
_symmetry_Int_Tables_number 1

loop_
_symmetry_equiv_pos_as_xyz
'x,y,z'

loop_
_atom_site_label
_atom_site_type_symbol
_atom_site_fract_x
_atom_site_fract_y
_atom_site_fract_z
Ca11	Ca1	0.500000	0.500000	0.500000
Ca21	Ca2	0.000000	0.000000	0.500000
Ca31	Ca3	0.000000	0.500000	0.000000
Ca41	Ca4	0.000000	0.500000	0.500000
Ca51	Ca5	0.500000	0.500000	0.000000
Ca61	Ca6	0.000000	0.000000	0.000000
Ca71	Ca7	0.500000	0.000000	0.500000
Ca81	Ca8	0.500000	0.000000	0.000000
Y11	Y1	0.750000	0.250000	0.250000
Y21	Y2	0.750000	0.250000	0.750000
Y31	Y3	0.750000	0.750000	0.250000
Y41	Y4	0.250000	0.250000	0.250000
Y51	Y5	0.250000	0.750000	0.750000
Y61	Y6	0.250000	0.750000	0.250000
Y71	Y7	0.250000	0.250000	0.750000
Y81	Y8	0.750000	0.750000	0.750000
H11	H1	0.516300	0.415500	0.345300
H21	H2	0.575700	0.473900	0.295300
H31	H3	0.915500	0.016300	0.722900
H41	H4	0.973900	0.075700	0.655100
H51	H5	0.845300	0.722900	0.016300
H61	H6	0.795300	0.655100	0.075700
H71	H7	0.222900	0.345300	0.415500
H81	H8	0.155100	0.295300	0.473900
H91	H9	0.516300	0.345300	0.722900
H101	H10	0.575700	0.295300	0.655100
H111	H11	0.915500	0.722900	0.345300
H121	H12	0.973900	0.655100	0.295300
H131	H13	0.845300	0.016300	0.415500
H141	H14	0.795300	0.075700	0.473900
H151	H15	0.222900	0.415500	0.016300
H161	H16	0.155100	0.473900	0.075700
H171	H17	0.516300	0.722900	0.415500
H181	H18	0.575700	0.655100	0.473900
H191	H19	0.915500	0.345300	0.016300
H201	H20	0.973900	0.295300	0.075700
H211	H21	0.845300	0.415500	0.722900
H221	H22	0.795300	0.473900	0.655100
H231	H23	0.222900	0.016300	0.345300
H241	H24	0.155100	0.075700	0.295300
H251	H25	0.584500	0.483700	0.154700
H261	H26	0.526100	0.424300	0.204700
H271	H27	0.983700	0.084500	0.777100
H281	H28	0.924300	0.026100	0.844900
H291	H29	0.277100	0.154700	0.483700
H301	H30	0.344900	0.204700	0.424300
H311	H31	0.654700	0.777100	0.084500
H321	H32	0.704700	0.844900	0.026100
H331	H33	0.654700	0.483700	0.777100
H341	H34	0.704700	0.424300	0.844900
H351	H35	0.277100	0.084500	0.154700
H361	H36	0.344900	0.026100	0.204700
H371	H37	0.983700	0.154700	0.084500
H381	H38	0.924300	0.204700	0.026100
H391	H39	0.584500	0.777100	0.483700
H401	H40	0.526100	0.844900	0.424300
H411	H41	0.277100	0.483700	0.084500
H421	H42	0.344900	0.424300	0.026100
H431	H43	0.654700	0.084500	0.483700
H441	H44	0.704700	0.026100	0.424300
H451	H45	0.584500	0.154700	0.777100
H461	H46	0.526100	0.204700	0.844900
H471	H47	0.983700	0.777100	0.154700
H481	H48	0.924300	0.844900	0.204700
H491	H49	0.483700	0.584500	0.654700
H501	H50	0.424300	0.526100	0.704700
H511	H51	0.084500	0.983700	0.277100
H521	H52	0.026100	0.924300	0.344900
H531	H53	0.154700	0.277100	0.983700
H541	H54	0.204700	0.344900	0.924300
H551	H55	0.777100	0.654700	0.584500
H561	H56	0.844900	0.704700	0.526100
H571	H57	0.483700	0.654700	0.277100
H581	H58	0.424300	0.704700	0.344900
H591	H59	0.084500	0.277100	0.654700
H601	H60	0.026100	0.344900	0.704700
H611	H61	0.154700	0.983700	0.584500
H621	H62	0.204700	0.924300	0.526100
H631	H63	0.777100	0.584500	0.983700
H641	H64	0.844900	0.526100	0.924300
H651	H65	0.483700	0.277100	0.584500
H661	H66	0.424300	0.344900	0.526100
H671	H67	0.084500	0.654700	0.983700
H681	H68	0.026100	0.704700	0.924300
H691	H69	0.154700	0.584500	0.277100
H701	H70	0.204700	0.526100	0.344900
H711	H71	0.777100	0.983700	0.654700
H721	H72	0.844900	0.924300	0.704700
H731	H73	0.415500	0.516300	0.845300
H741	H74	0.473900	0.575700	0.795300
H751	H75	0.016300	0.915500	0.222900
H761	H76	0.075700	0.973900	0.155100
H771	H77	0.722900	0.845300	0.516300
H781	H78	0.655100	0.795300	0.575700
H791	H79	0.345300	0.222900	0.915500
H801	H80	0.295300	0.155100	0.973900
H811	H81	0.345300	0.516300	0.222900
H821	H82	0.295300	0.575700	0.155100
H831	H83	0.722900	0.915500	0.845300
H841	H84	0.655100	0.973900	0.795300
H851	H85	0.016300	0.845300	0.915500
H861	H86	0.075700	0.795300	0.973900
H871	H87	0.415500	0.222900	0.516300
H881	H88	0.473900	0.155100	0.575700
H891	H89	0.722900	0.516300	0.915500
H901	H90	0.655100	0.575700	0.973900
H911	H91	0.345300	0.915500	0.516300
H921	H92	0.295300	0.973900	0.575700
H931	H93	0.415500	0.845300	0.222900
H941	H94	0.473900	0.795300	0.155100
H951	H95	0.016300	0.222900	0.845300
H961	H96	0.075700	0.155100	0.795300
C11	C1	0.576430	0.414370	0.318370
C21	C2	0.620930	0.360250	0.384570
C31	C3	0.914370	0.076430	0.690830
C41	C4	0.860250	0.120930	0.634250
C51	C5	0.818370	0.690830	0.076430
C61	C6	0.884570	0.634250	0.120930
C71	C7	0.190830	0.318370	0.414370
C81	C8	0.134250	0.384570	0.360250
C91	C9	0.576430	0.318370	0.690830
C101	C10	0.620930	0.384570	0.634250
C111	C11	0.914370	0.690830	0.318370
C121	C12	0.860250	0.634250	0.384570
C131	C13	0.818370	0.076430	0.414370
C141	C14	0.884570	0.120930	0.360250
C151	C15	0.190830	0.414370	0.076430
C161	C16	0.134250	0.360250	0.120930
C171	C17	0.576430	0.690830	0.414370
C181	C18	0.620930	0.634250	0.360250
C191	C19	0.914370	0.318370	0.076430
C201	C20	0.860250	0.384570	0.120930
C211	C21	0.818370	0.414370	0.690830
C221	C22	0.884570	0.360250	0.634250
C231	C23	0.190830	0.076430	0.318370
C241	C24	0.134250	0.120930	0.384570
C251	C25	0.585630	0.423570	0.181630
C261	C26	0.639750	0.379070	0.115430
C271	C27	0.923570	0.085630	0.809170
C281	C28	0.879070	0.139750	0.865750
C291	C29	0.309170	0.181630	0.423570
C301	C30	0.365750	0.115430	0.379070
C311	C31	0.681630	0.809170	0.085630
C321	C32	0.615430	0.865750	0.139750
C331	C33	0.681630	0.423570	0.809170
C341	C34	0.615430	0.379070	0.865750
C351	C35	0.309170	0.085630	0.181630
C361	C36	0.365750	0.139750	0.115430
C371	C37	0.923570	0.181630	0.085630
C381	C38	0.879070	0.115430	0.139750
C391	C39	0.585630	0.809170	0.423570
C401	C40	0.639750	0.865750	0.379070
C411	C41	0.309170	0.423570	0.085630
C421	C42	0.365750	0.379070	0.139750
C431	C43	0.681630	0.085630	0.423570
C441	C44	0.615430	0.139750	0.379070
C451	C45	0.585630	0.181630	0.809170
C461	C46	0.639750	0.115430	0.865750
C471	C47	0.923570	0.809170	0.181630
C481	C48	0.879070	0.865750	0.115430
C491	C49	0.423570	0.585630	0.681630
C501	C50	0.379070	0.639750	0.615430
C511	C51	0.085630	0.923570	0.309170
C521	C52	0.139750	0.879070	0.365750
C531	C53	0.181630	0.309170	0.923570
C541	C54	0.115430	0.365750	0.879070
C551	C55	0.809170	0.681630	0.585630
C561	C56	0.865750	0.615430	0.639750
C571	C57	0.423570	0.681630	0.309170
C581	C58	0.379070	0.615430	0.365750
C591	C59	0.085630	0.309170	0.681630
C601	C60	0.139750	0.365750	0.615430
C611	C61	0.181630	0.923570	0.585630
C621	C62	0.115430	0.879070	0.639750
C631	C63	0.809170	0.585630	0.923570
C641	C64	0.865750	0.639750	0.879070
C651	C65	0.423570	0.309170	0.585630
C661	C66	0.379070	0.365750	0.639750
C671	C67	0.085630	0.681630	0.923570
C681	C68	0.139750	0.615430	0.879070
C691	C69	0.181630	0.585630	0.309170
C701	C70	0.115430	0.639750	0.365750
C711	C71	0.809170	0.923570	0.681630
C721	C72	0.865750	0.879070	0.615430
C731	C73	0.414370	0.576430	0.818370
C741	C74	0.360250	0.620930	0.884570
C751	C75	0.076430	0.914370	0.190830
C761	C76	0.120930	0.860250	0.134250
C771	C77	0.690830	0.818370	0.576430
C781	C78	0.634250	0.884570	0.620930
C791	C79	0.318370	0.190830	0.914370
C801	C80	0.384570	0.134250	0.860250
C811	C81	0.318370	0.576430	0.190830
C821	C82	0.384570	0.620930	0.134250
C831	C83	0.690830	0.914370	0.818370
C841	C84	0.634250	0.860250	0.884570
C851	C85	0.076430	0.818370	0.914370
C861	C86	0.120930	0.884570	0.860250
C871	C87	0.414370	0.190830	0.576430
C881	C88	0.360250	0.134250	0.620930
C891	C89	0.690830	0.576430	0.914370
C901	C90	0.634250	0.620930	0.860250
C911	C91	0.318370	0.914370	0.576430
C921	C92	0.384570	0.860250	0.620930
C931	C93	0.414370	0.818370	0.190830
C941	C94	0.360250	0.884570	0.134250
C951	C95	0.076430	0.190830	0.818370
C961	C96	0.120930	0.134250	0.884570
O11	O1	0.687140	0.295280	0.371820
O21	O2	0.589440	0.381160	0.450500
O31	O3	0.795280	0.187140	0.645760
O41	O4	0.881160	0.089440	0.578900
O51	O5	0.871820	0.645760	0.187140
O61	O6	0.950500	0.578900	0.089440
O71	O7	0.145760	0.371820	0.295280
O81	O8	0.078900	0.450500	0.381160
O91	O9	0.687140	0.371820	0.645760
O101	O10	0.589440	0.450500	0.578900
O111	O11	0.795280	0.645760	0.371820
O121	O12	0.881160	0.578900	0.450500
O131	O13	0.871820	0.187140	0.295280
O141	O14	0.950500	0.089440	0.381160
O151	O15	0.145760	0.295280	0.187140
O161	O16	0.078900	0.381160	0.089440
O171	O17	0.687140	0.645760	0.295280
O181	O18	0.589440	0.578900	0.381160
O191	O19	0.795280	0.371820	0.187140
O201	O20	0.881160	0.450500	0.089440
O211	O21	0.871820	0.295280	0.645760
O221	O22	0.950500	0.381160	0.578900
O231	O23	0.145760	0.187140	0.371820
O241	O24	0.078900	0.089440	0.450500
O251	O25	0.704720	0.312860	0.128180
O261	O26	0.618840	0.410560	0.049500
O271	O27	0.812860	0.204720	0.854240
O281	O28	0.910560	0.118840	0.921100
O291	O29	0.354240	0.128180	0.312860
O301	O30	0.421100	0.049500	0.410560
O311	O31	0.628180	0.854240	0.204720
O321	O32	0.549500	0.921100	0.118840
O331	O33	0.628180	0.312860	0.854240
O341	O34	0.549500	0.410560	0.921100
O351	O35	0.354240	0.204720	0.128180
O361	O36	0.421100	0.118840	0.049500
O371	O37	0.812860	0.128180	0.204720
O381	O38	0.910560	0.049500	0.118840
O391	O39	0.704720	0.854240	0.312860
O401	O40	0.618840	0.921100	0.410560
O411	O41	0.354240	0.312860	0.204720
O421	O42	0.421100	0.410560	0.118840
O431	O43	0.628180	0.204720	0.312860
O441	O44	0.549500	0.118840	0.410560
O451	O45	0.704720	0.128180	0.854240
O461	O46	0.618840	0.049500	0.921100
O471	O47	0.812860	0.854240	0.128180
O481	O48	0.910560	0.921100	0.049500
O491	O49	0.312860	0.704720	0.628180
O501	O50	0.410560	0.618840	0.549500
O511	O51	0.204720	0.812860	0.354240
O521	O52	0.118840	0.910560	0.421100
O531	O53	0.128180	0.354240	0.812860
O541	O54	0.049500	0.421100	0.910560
O551	O55	0.854240	0.628180	0.704720
O561	O56	0.921100	0.549500	0.618840
O571	O57	0.312860	0.628180	0.354240
O581	O58	0.410560	0.549500	0.421100
O591	O59	0.204720	0.354240	0.628180
O601	O60	0.118840	0.421100	0.549500
O611	O61	0.128180	0.812860	0.704720
O621	O62	0.049500	0.910560	0.618840
O631	O63	0.854240	0.704720	0.812860
O641	O64	0.921100	0.618840	0.910560
O651	O65	0.312860	0.354240	0.704720
O661	O66	0.410560	0.421100	0.618840
O671	O67	0.204720	0.628180	0.812860
O681	O68	0.118840	0.549500	0.910560
O691	O69	0.128180	0.704720	0.354240
O701	O70	0.049500	0.618840	0.421100
O711	O71	0.854240	0.812860	0.628180
O721	O72	0.921100	0.910560	0.549500
O731	O73	0.295280	0.687140	0.871820
O741	O74	0.381160	0.589440	0.950500
O751	O75	0.187140	0.795280	0.145760
O761	O76	0.089440	0.881160	0.078900
O771	O77	0.645760	0.871820	0.687140
O781	O78	0.578900	0.950500	0.589440
O791	O79	0.371820	0.145760	0.795280
O801	O80	0.450500	0.078900	0.881160
O811	O81	0.371820	0.687140	0.145760
O821	O82	0.450500	0.589440	0.078900
O831	O83	0.645760	0.795280	0.871820
O841	O84	0.578900	0.881160	0.950500
O851	O85	0.187140	0.871820	0.795280
O861	O86	0.089440	0.950500	0.881160
O871	O87	0.295280	0.145760	0.687140
O881	O88	0.381160	0.078900	0.589440
O891	O89	0.645760	0.687140	0.795280
O901	O90	0.578900	0.589440	0.881160
O911	O91	0.371820	0.795280	0.687140
O921	O92	0.450500	0.881160	0.589440
O931	O93	0.295280	0.871820	0.145760
O941	O94	0.381160	0.950500	0.078900
O951	O95	0.187140	0.145760	0.871820
O961	O96	0.089440	0.078900	0.950500
O971	O97	0.620100	0.379900	0.250000
O981	O98	0.879900	0.120100	0.750000
O991	O99	0.750000	0.750000	0.120100
O1001	O100	0.250000	0.250000	0.379900
O1011	O101	0.620100	0.250000	0.750000
O1021	O102	0.879900	0.750000	0.250000
O1031	O103	0.750000	0.120100	0.379900
O1041	O104	0.250000	0.379900	0.120100
O1051	O105	0.620100	0.750000	0.379900
O1061	O106	0.879900	0.250000	0.120100
O1071	O107	0.750000	0.379900	0.750000
O1081	O108	0.250000	0.120100	0.250000
O1091	O109	0.379900	0.620100	0.750000
O1101	O110	0.120100	0.879900	0.250000
O1111	O111	0.250000	0.250000	0.879900
O1121	O112	0.750000	0.750000	0.620100
O1131	O113	0.379900	0.750000	0.250000
O1141	O114	0.120100	0.250000	0.750000
O1151	O115	0.250000	0.879900	0.620100
O1161	O116	0.750000	0.620100	0.879900
O1171	O117	0.379900	0.250000	0.620100
O1181	O118	0.120100	0.750000	0.879900
O1191	O119	0.250000	0.620100	0.250000
O1201	O120	0.750000	0.879900	0.750000
