data_FEQSIF_clean_PM
_symmetry_space_group_name_H-M	'P1'
_cell_length_a	11.252000
_cell_length_b	20.078000
_cell_length_c	20.078000
_cell_angle_alpha	90.000000
_cell_angle_beta	90.000000
_cell_angle_gamma	90.000000
_symmetry_Int_Tables_number 1

loop_
_symmetry_equiv_pos_as_xyz
'x,y,z'

loop_
_atom_site_label
_atom_site_type_symbol
_atom_site_fract_x
_atom_site_fract_y
_atom_site_fract_z
Co11	Co1	0.536430	0.255360	0.755360
Co21	Co2	0.419890	0.372260	0.872260
Co31	Co3	0.536430	0.744640	0.244640
Co41	Co4	0.419890	0.627740	0.127740
Co51	Co5	0.463570	0.755360	0.744640
Co61	Co6	0.580110	0.872260	0.627740
Co71	Co7	0.463570	0.244640	0.255360
Co81	Co8	0.580110	0.127740	0.372260
H11	H1	0.344800	0.319300	0.770900
H21	H2	0.747900	0.163000	0.900400
H31	H3	0.789000	0.122400	0.095000
H41	H4	0.557400	0.264000	0.036600
H51	H5	0.970100	0.087200	0.054700
H61	H6	0.863600	0.034400	0.062000
H71	H7	0.344800	0.680700	0.229100
H81	H8	0.747900	0.837000	0.099600
H91	H9	0.789000	0.877600	0.905000
H101	H10	0.557400	0.736000	0.963400
H111	H11	0.970100	0.912800	0.945300
H121	H12	0.863600	0.965600	0.938000
H131	H13	0.655200	0.770900	0.680700
H141	H14	0.252100	0.900400	0.837000
H151	H15	0.211000	0.095000	0.877600
H161	H16	0.442600	0.036600	0.736000
H171	H17	0.029900	0.054700	0.912800
H181	H18	0.136400	0.062000	0.965600
H191	H19	0.655200	0.229100	0.319300
H201	H20	0.252100	0.099600	0.163000
H211	H21	0.211000	0.905000	0.122400
H221	H22	0.442600	0.963400	0.264000
H231	H23	0.029900	0.945300	0.087200
H241	H24	0.136400	0.938000	0.034400
H251	H25	0.655200	0.180700	0.270900
H261	H26	0.252100	0.337000	0.400400
H271	H27	0.211000	0.377600	0.595000
H281	H28	0.442600	0.236000	0.536600
H291	H29	0.029900	0.412800	0.554700
H301	H30	0.136400	0.465600	0.562000
H311	H31	0.655200	0.819300	0.729100
H321	H32	0.252100	0.663000	0.599600
H331	H33	0.211000	0.622400	0.405000
H341	H34	0.442600	0.764000	0.463400
H351	H35	0.029900	0.587200	0.445300
H361	H36	0.136400	0.534400	0.438000
H371	H37	0.344800	0.729100	0.180700
H381	H38	0.747900	0.599600	0.337000
H391	H39	0.789000	0.405000	0.377600
H401	H40	0.557400	0.463400	0.236000
H411	H41	0.970100	0.445300	0.412800
H421	H42	0.863600	0.438000	0.465600
H431	H43	0.344800	0.270900	0.819300
H441	H44	0.747900	0.400400	0.663000
H451	H45	0.789000	0.595000	0.622400
H461	H46	0.557400	0.536600	0.764000
H471	H47	0.970100	0.554700	0.587200
H481	H48	0.863600	0.562000	0.534400
C11	C1	0.594200	0.259200	0.903700
C21	C2	0.646900	0.219900	0.959500
C31	C3	0.727500	0.171400	0.945600
C41	C4	0.783000	0.132400	0.997400
C51	C5	0.750800	0.145400	0.059700
C61	C6	0.662300	0.192000	0.074800
C71	C7	0.613600	0.230400	0.025800
C81	C8	0.627800	0.201100	0.148200
C91	C9	0.920900	0.054400	0.030400
C101	C10	0.594200	0.740800	0.096300
C111	C11	0.646900	0.780100	0.040500
C121	C12	0.727500	0.828600	0.054400
C131	C13	0.783000	0.867600	0.002600
C141	C14	0.750800	0.854600	0.940300
C151	C15	0.662300	0.808000	0.925200
C161	C16	0.613600	0.769600	0.974200
C171	C17	0.627800	0.798900	0.851800
C181	C18	0.920900	0.945600	0.969600
C191	C19	0.405800	0.903700	0.740800
C201	C20	0.353100	0.959500	0.780100
C211	C21	0.272500	0.945600	0.828600
C221	C22	0.217000	0.997400	0.867600
C231	C23	0.249200	0.059700	0.854600
C241	C24	0.337700	0.074800	0.808000
C251	C25	0.386400	0.025800	0.769600
C261	C26	0.372200	0.148200	0.798900
C271	C27	0.079100	0.030400	0.945600
C281	C28	0.405800	0.096300	0.259200
C291	C29	0.353100	0.040500	0.219900
C301	C30	0.272500	0.054400	0.171400
C311	C31	0.217000	0.002600	0.132400
C321	C32	0.249200	0.940300	0.145400
C331	C33	0.337700	0.925200	0.192000
C341	C34	0.386400	0.974200	0.230400
C351	C35	0.372200	0.851800	0.201100
C361	C36	0.079100	0.969600	0.054400
C371	C37	0.405800	0.240800	0.403700
C381	C38	0.353100	0.280100	0.459500
C391	C39	0.272500	0.328600	0.445600
C401	C40	0.217000	0.367600	0.497400
C411	C41	0.249200	0.354600	0.559700
C421	C42	0.337700	0.308000	0.574800
C431	C43	0.386400	0.269600	0.525800
C441	C44	0.372200	0.298900	0.648200
C451	C45	0.079100	0.445600	0.530400
C461	C46	0.405800	0.759200	0.596300
C471	C47	0.353100	0.719900	0.540500
C481	C48	0.272500	0.671400	0.554400
C491	C49	0.217000	0.632400	0.502600
C501	C50	0.249200	0.645400	0.440300
C511	C51	0.337700	0.692000	0.425200
C521	C52	0.386400	0.730400	0.474200
C531	C53	0.372200	0.701100	0.351800
C541	C54	0.079100	0.554400	0.469600
C551	C55	0.594200	0.596300	0.240800
C561	C56	0.646900	0.540500	0.280100
C571	C57	0.727500	0.554400	0.328600
C581	C58	0.783000	0.502600	0.367600
C591	C59	0.750800	0.440300	0.354600
C601	C60	0.662300	0.425200	0.308000
C611	C61	0.613600	0.474200	0.269600
C621	C62	0.627800	0.351800	0.298900
C631	C63	0.920900	0.469600	0.445600
C641	C64	0.594200	0.403700	0.759200
C651	C65	0.646900	0.459500	0.719900
C661	C66	0.727500	0.445600	0.671400
C671	C67	0.783000	0.497400	0.632400
C681	C68	0.750800	0.559700	0.645400
C691	C69	0.662300	0.574800	0.692000
C701	C70	0.613600	0.525800	0.730400
C711	C71	0.627800	0.648200	0.701100
C721	C72	0.920900	0.530400	0.554400
C731	C73	0.000000	0.000000	0.000000
C741	C74	0.000000	0.500000	0.500000
O11	O1	0.614800	0.240110	0.846400
O21	O2	0.530400	0.308600	0.920540
O31	O3	0.540100	0.236680	0.161670
O41	O4	0.690700	0.170200	0.189900
O51	O5	0.860100	0.085700	0.977980
O61	O6	0.614800	0.759890	0.153600
O71	O7	0.530400	0.691400	0.079460
O81	O8	0.540100	0.763320	0.838330
O91	O9	0.690700	0.829800	0.810100
O101	O10	0.860100	0.914300	0.022020
O111	O11	0.385200	0.846400	0.759890
O121	O12	0.469600	0.920540	0.691400
O131	O13	0.459900	0.161670	0.763320
O141	O14	0.309300	0.189900	0.829800
O151	O15	0.139900	0.977980	0.914300
O161	O16	0.385200	0.153600	0.240110
O171	O17	0.469600	0.079460	0.308600
O181	O18	0.459900	0.838330	0.236680
O191	O19	0.309300	0.810100	0.170200
O201	O20	0.139900	0.022020	0.085700
O211	O21	0.385200	0.259890	0.346400
O221	O22	0.469600	0.191400	0.420540
O231	O23	0.459900	0.263320	0.661670
O241	O24	0.309300	0.329800	0.689900
O251	O25	0.139900	0.414300	0.477980
O261	O26	0.385200	0.740110	0.653600
O271	O27	0.469600	0.808600	0.579460
O281	O28	0.459900	0.736680	0.338330
O291	O29	0.309300	0.670200	0.310100
O301	O30	0.139900	0.585700	0.522020
O311	O31	0.614800	0.653600	0.259890
O321	O32	0.530400	0.579460	0.191400
O331	O33	0.540100	0.338330	0.263320
O341	O34	0.690700	0.310100	0.329800
O351	O35	0.860100	0.522020	0.414300
O361	O36	0.614800	0.346400	0.740110
O371	O37	0.530400	0.420540	0.808600
O381	O38	0.540100	0.661670	0.736680
O391	O39	0.690700	0.689900	0.670200
O401	O40	0.860100	0.477980	0.585700
O411	O41	0.384800	0.302890	0.802890
O421	O42	0.384800	0.697110	0.197110
O431	O43	0.615200	0.802890	0.697110
O441	O44	0.615200	0.197110	0.302890
