data_FERVIJ_clean_PM
_symmetry_space_group_name_H-M	'P1'
_cell_length_a	9.751200
_cell_length_b	15.854700
_cell_length_c	15.854700
_cell_angle_alpha	64.090200
_cell_angle_beta	78.169800
_cell_angle_gamma	101.830000
_symmetry_Int_Tables_number 1

loop_
_symmetry_equiv_pos_as_xyz
'x,y,z'

loop_
_atom_site_label
_atom_site_type_symbol
_atom_site_fract_x
_atom_site_fract_y
_atom_site_fract_z
Fe11	Fe1	0.000000	0.500000	0.000000
Fe21	Fe2	0.000000	0.000000	0.500000
Fe31	Fe3	0.500000	0.500000	0.500000
H11	H1	0.976000	0.583800	0.144200
H21	H2	0.024200	0.728900	0.148900
H31	H3	0.120200	0.144200	0.272000
H41	H4	0.173100	0.148900	0.122200
H51	H5	0.392200	0.272000	0.583800
H61	H6	0.295300	0.122200	0.728900
H71	H7	0.879800	0.272000	0.144200
H81	H8	0.826900	0.122200	0.148900
H91	H9	0.607800	0.583800	0.272000
H101	H10	0.704700	0.728900	0.122200
H111	H11	0.024000	0.144200	0.583800
H121	H12	0.975800	0.148900	0.728900
H131	H13	0.024000	0.416200	0.855800
H141	H14	0.975800	0.271100	0.851100
H151	H15	0.879800	0.855800	0.728000
H161	H16	0.826900	0.851100	0.877800
H171	H17	0.607800	0.728000	0.416200
H181	H18	0.704700	0.877800	0.271100
H191	H19	0.120200	0.728000	0.855800
H201	H20	0.173100	0.877800	0.851100
H211	H21	0.392200	0.416200	0.728000
H221	H22	0.295300	0.271100	0.877800
H231	H23	0.976000	0.855800	0.416200
H241	H24	0.024200	0.851100	0.271100
Au11	Au1	0.207840	0.415680	0.292160
Au21	Au2	0.500000	0.292160	0.292160
Au31	Au3	0.792160	0.292160	0.415680
Au41	Au4	0.792160	0.584320	0.707840
Au51	Au5	0.500000	0.707840	0.707840
Au61	Au6	0.207840	0.707840	0.584320
C11	C1	0.015300	0.643900	0.084600
C21	C2	0.044800	0.730600	0.088200
C31	C3	0.133000	0.424200	0.182600
C41	C4	0.099900	0.084600	0.271500
C51	C5	0.133000	0.088200	0.181200
C61	C6	0.315600	0.182600	0.393200
C71	C7	0.371400	0.271500	0.643900
C81	C8	0.314200	0.181200	0.730600
C91	C9	0.708800	0.393200	0.424200
C101	C10	0.900100	0.271500	0.084600
C111	C11	0.867000	0.181200	0.088200
C121	C12	0.684400	0.393200	0.182600
C131	C13	0.628600	0.643900	0.271500
C141	C14	0.685800	0.730600	0.181200
C151	C15	0.291200	0.424200	0.393200
C161	C16	0.984700	0.084600	0.643900
C171	C17	0.955200	0.088200	0.730600
C181	C18	0.867000	0.182600	0.424200
C191	C19	0.984700	0.356100	0.915400
C201	C20	0.955200	0.269400	0.911800
C211	C21	0.867000	0.575800	0.817400
C221	C22	0.900100	0.915400	0.728500
C231	C23	0.867000	0.911800	0.818800
C241	C24	0.684400	0.817400	0.606800
C251	C25	0.628600	0.728500	0.356100
C261	C26	0.685800	0.818800	0.269400
C271	C27	0.291200	0.606800	0.575800
C281	C28	0.099900	0.728500	0.915400
C291	C29	0.133000	0.818800	0.911800
C301	C30	0.315600	0.606800	0.817400
C311	C31	0.371400	0.356100	0.728500
C321	C32	0.314200	0.269400	0.818800
C331	C33	0.708800	0.575800	0.606800
C341	C34	0.015300	0.915400	0.356100
C351	C35	0.044800	0.911800	0.269400
C361	C36	0.133000	0.817400	0.575800
C371	C37	0.105850	0.820150	0.000000
C381	C38	0.139950	0.916750	0.000000
C391	C39	0.105850	0.000000	0.179850
C401	C40	0.139950	0.000000	0.083250
C411	C41	0.285700	0.179850	0.820150
C421	C42	0.223200	0.083250	0.916750
C431	C43	0.894150	0.179850	0.000000
C441	C44	0.860050	0.083250	0.000000
C451	C45	0.714300	0.820150	0.179850
C461	C46	0.776800	0.916750	0.083250
C471	C47	0.894150	0.000000	0.820150
C481	C48	0.860050	0.000000	0.916750
N11	N1	0.090600	0.441900	0.117500
N21	N2	0.208100	0.117500	0.440600
N31	N3	0.648700	0.440600	0.441900
N41	N4	0.791900	0.440600	0.117500
N51	N5	0.351300	0.441900	0.440600
N61	N6	0.909400	0.117500	0.441900
N71	N7	0.909400	0.558100	0.882500
N81	N8	0.791900	0.882500	0.559400
N91	N9	0.351300	0.559400	0.558100
N101	N10	0.208100	0.559400	0.882500
N111	N11	0.648700	0.558100	0.559400
N121	N12	0.090600	0.882500	0.558100
N131	N13	0.040200	0.641800	0.000000
N141	N14	0.040200	0.000000	0.358200
N151	N15	0.398400	0.358200	0.641800
N161	N16	0.959800	0.358200	0.000000
N171	N17	0.601600	0.641800	0.358200
N181	N18	0.959800	0.000000	0.641800
N191	N19	0.108600	0.912100	0.087900
N201	N20	0.196500	0.087900	0.000000
N211	N21	0.196500	0.000000	0.912100
N221	N22	0.803500	0.000000	0.087900
N231	N23	0.803500	0.912100	0.000000
N241	N24	0.891400	0.087900	0.912100
