data_FESBEM_clean_PM
_symmetry_space_group_name_H-M	'P1'
_cell_length_a	11.360000
_cell_length_b	11.799000
_cell_length_c	16.350000
_cell_angle_alpha	74.017000
_cell_angle_beta	82.914000
_cell_angle_gamma	63.634000
_symmetry_Int_Tables_number 1

loop_
_symmetry_equiv_pos_as_xyz
'x,y,z'

loop_
_atom_site_label
_atom_site_type_symbol
_atom_site_fract_x
_atom_site_fract_y
_atom_site_fract_z
C11	C1	0.073600	0.711000	0.396800
C21	C2	0.945600	0.700200	0.398700
C31	C3	0.948500	0.582100	0.402500
H11	H1	0.028800	0.509300	0.404900
C41	C4	0.831000	0.569700	0.403000
C51	C5	0.713300	0.679000	0.401000
H21	H2	0.634900	0.672100	0.400800
C61	C6	0.709500	0.800800	0.399300
C71	C7	0.826700	0.809000	0.398700
H31	H3	0.826300	0.888100	0.398300
C81	C8	0.828200	0.442400	0.407700
C91	C9	0.577000	0.912200	0.400600
C101	C10	0.474200	0.882400	0.441100
H41	H4	0.491200	0.795900	0.466900
C111	C11	0.346900	0.980200	0.443400
C121	C12	0.322600	0.108700	0.405000
H51	H5	0.237400	0.174300	0.403400
C131	C13	0.423400	0.139900	0.369400
C141	C14	0.550000	0.041500	0.366000
H61	H6	0.617000	0.063700	0.340000
C151	C15	0.401700	0.280800	0.334500
C161	C16	0.242400	0.939600	0.484100
C171	C17	0.149900	0.831700	0.713500
C181	C18	0.161400	0.882200	0.786200
C191	C19	0.262900	0.800200	0.843100
H71	H7	0.321500	0.720000	0.833100
C201	C20	0.280400	0.831300	0.912200
C211	C21	0.190200	0.955200	0.928100
H81	H8	0.196900	0.977500	0.977100
C221	C22	0.093500	0.039800	0.868700
C231	C23	0.076900	0.002800	0.798800
H91	H9	0.008700	0.059600	0.760800
C241	C24	0.997900	0.170500	0.881900
C251	C25	0.394400	0.740500	0.970900
C261	C26	0.511900	0.664500	0.935900
H101	H10	0.517600	0.675600	0.877200
C271	C27	0.620500	0.572900	0.985300
C281	C28	0.610100	0.554700	0.073900
H111	H11	0.682800	0.497000	0.108100
C291	C29	0.493000	0.621800	0.110000
C301	C30	0.382200	0.718000	0.058600
H121	H12	0.303500	0.764600	0.083600
C311	C31	0.741500	0.489500	0.941900
C321	C32	0.476100	0.587900	0.204800
Zn11	Zn1	0.072620	0.832440	0.548570
Zn21	Zn2	0.393310	0.617030	0.640100
Zn31	Zn3	0.203680	0.558840	0.247110
O11	O1	0.168300	0.632100	0.363000
O21	O2	0.917500	0.246100	0.823400
O31	O3	0.936600	0.349100	0.397800
O41	O4	0.722400	0.435900	0.422900
O51	O5	0.502900	0.301100	0.318600
O61	O6	0.285700	0.364000	0.324800
O71	O7	0.124300	0.020100	0.471600
O81	O8	0.273200	0.824400	0.528300
O91	O9	0.079500	0.795800	0.426300
O101	O10	0.008300	0.201700	0.947300
O111	O11	0.053300	0.906300	0.661200
O121	O12	0.229500	0.721200	0.708600
O131	O13	0.579600	0.539700	0.249500
H131	H13	0.642300	0.572300	0.234200
O141	O14	0.368200	0.603600	0.236000
O151	O15	0.834400	0.402000	0.989300
O161	O16	0.736800	0.514900	0.863700
C331	C33	0.926400	0.289000	0.603200
C341	C34	0.054400	0.299800	0.601300
C351	C35	0.051500	0.417900	0.597500
H141	H14	0.971200	0.490700	0.595100
C361	C36	0.169000	0.430300	0.597000
C371	C37	0.286700	0.321000	0.599000
H151	H15	0.365100	0.327900	0.599200
C381	C38	0.290500	0.199200	0.600700
C391	C39	0.173300	0.191000	0.601300
H161	H16	0.173700	0.111900	0.601700
C401	C40	0.171800	0.557600	0.592300
C411	C41	0.423000	0.087800	0.599400
C421	C42	0.525800	0.117600	0.558900
H171	H17	0.508800	0.204100	0.533100
C431	C43	0.653100	0.019800	0.556600
C441	C44	0.677400	0.891300	0.595000
H181	H18	0.762600	0.825700	0.596600
C451	C45	0.576600	0.860100	0.630600
C461	C46	0.450000	0.958500	0.634000
H191	H19	0.383000	0.936300	0.660000
C471	C47	0.598300	0.719200	0.665500
C481	C48	0.757600	0.060400	0.515900
C491	C49	0.850100	0.168300	0.286500
C501	C50	0.838600	0.117800	0.213800
C511	C51	0.737100	0.199800	0.156900
H201	H20	0.678500	0.280000	0.166900
C521	C52	0.719600	0.168700	0.087800
C531	C53	0.809800	0.044800	0.071900
H211	H21	0.803100	0.022500	0.022900
C541	C54	0.906500	0.960200	0.131300
C551	C55	0.923100	0.997200	0.201200
H221	H22	0.991300	0.940400	0.239200
C561	C56	0.002100	0.829500	0.118100
C571	C57	0.605600	0.259500	0.029100
C581	C58	0.488100	0.335500	0.064100
H231	H23	0.482400	0.324400	0.122800
C591	C59	0.379500	0.427100	0.014700
C601	C60	0.389900	0.445300	0.926100
H241	H24	0.317200	0.503000	0.891900
C611	C61	0.507000	0.378200	0.890000
C621	C62	0.617800	0.282000	0.941400
H251	H25	0.696500	0.235400	0.916400
C631	C63	0.258500	0.510500	0.058100
C641	C64	0.523900	0.412100	0.795200
Zn41	Zn4	0.927380	0.167560	0.451430
Zn51	Zn5	0.606690	0.382970	0.359900
Zn61	Zn6	0.796320	0.441160	0.752890
O171	O17	0.831700	0.367900	0.637000
O181	O18	0.082500	0.753900	0.176600
O191	O19	0.063400	0.650900	0.602200
O201	O20	0.277600	0.564100	0.577100
O211	O21	0.497100	0.698900	0.681400
O221	O22	0.714300	0.636000	0.675200
O231	O23	0.875700	0.979900	0.528400
O241	O24	0.726800	0.175600	0.471700
O251	O25	0.920500	0.204200	0.573700
O261	O26	0.991700	0.798300	0.052700
O271	O27	0.946700	0.093700	0.338800
O281	O28	0.770500	0.278800	0.291400
O291	O29	0.420400	0.460300	0.750500
H261	H26	0.357700	0.427700	0.765800
O301	O30	0.631800	0.396400	0.764000
O311	O31	0.165600	0.598000	0.010700
O321	O32	0.263200	0.485100	0.136300
