data_FEVDER_clean_PM
_symmetry_space_group_name_H-M	'P1'
_cell_length_a	8.407300
_cell_length_b	11.491000
_cell_length_c	35.108000
_cell_angle_alpha	90.000000
_cell_angle_beta	90.000000
_cell_angle_gamma	105.842000
_symmetry_Int_Tables_number 1

loop_
_symmetry_equiv_pos_as_xyz
'x,y,z'

loop_
_atom_site_label
_atom_site_type_symbol
_atom_site_fract_x
_atom_site_fract_y
_atom_site_fract_z
Co11	Co1	0.474250	0.503770	0.852190
Co21	Co2	0.525750	0.996230	0.352190
Co31	Co3	0.525750	0.496230	0.147810
Co41	Co4	0.474250	0.003770	0.647810
H11	H1	0.258500	0.429100	0.962200
H21	H2	0.326100	0.541700	0.014000
H31	H3	0.471000	0.592000	0.068700
H41	H4	0.186600	0.317300	0.121200
H51	H5	0.032300	0.259900	0.068000
H61	H6	0.849400	0.263700	0.020600
H71	H7	0.851700	0.245600	0.907000
H81	H8	0.584800	0.233100	0.015100
H91	H9	0.309300	0.136600	0.012800
H101	H10	0.354700	0.004900	0.913900
H111	H11	0.634900	0.095300	0.913600
H121	H12	0.535300	0.916200	0.834400
H131	H13	0.869000	0.270700	0.818100
H141	H14	0.773500	0.429700	0.836000
H151	H15	0.320100	0.229300	0.835800
H161	H16	0.401400	0.063500	0.818600
H171	H17	0.892000	0.132500	0.771500
H181	H18	0.866200	0.781800	0.780900
H191	H19	0.979100	0.087500	0.708200
H201	H20	0.185800	0.095900	0.665600
H211	H21	0.373100	0.892000	0.729500
H221	H22	0.168400	0.872700	0.773700
H231	H23	0.741500	0.070900	0.462200
H241	H24	0.673900	0.958300	0.514000
H251	H25	0.529000	0.908000	0.568700
H261	H26	0.813400	0.182700	0.621200
H271	H27	0.967700	0.240100	0.568000
H281	H28	0.150600	0.236300	0.520600
H291	H29	0.148300	0.254400	0.407000
H301	H30	0.415200	0.266900	0.515100
H311	H31	0.690700	0.363400	0.512800
H321	H32	0.645300	0.495100	0.413900
H331	H33	0.365100	0.404700	0.413600
H341	H34	0.464700	0.583800	0.334400
H351	H35	0.131000	0.229300	0.318100
H361	H36	0.226500	0.070300	0.336000
H371	H37	0.679900	0.270700	0.335800
H381	H38	0.598600	0.436500	0.318600
H391	H39	0.108000	0.367500	0.271500
H401	H40	0.133800	0.718200	0.280900
H411	H41	0.020900	0.412500	0.208200
H421	H42	0.814200	0.404100	0.165600
H431	H43	0.626900	0.608000	0.229500
H441	H44	0.831600	0.627300	0.273700
H451	H45	0.741500	0.570900	0.037800
H461	H46	0.673900	0.458300	0.986000
H471	H47	0.529000	0.408000	0.931300
H481	H48	0.813400	0.682700	0.878800
H491	H49	0.967700	0.740100	0.932000
H501	H50	0.150600	0.736300	0.979400
H511	H51	0.148300	0.754400	0.093000
H521	H52	0.415200	0.766900	0.984900
H531	H53	0.690700	0.863400	0.987200
H541	H54	0.645300	0.995100	0.086100
H551	H55	0.365100	0.904700	0.086400
H561	H56	0.464700	0.083800	0.165600
H571	H57	0.131000	0.729300	0.181900
H581	H58	0.226500	0.570300	0.164000
H591	H59	0.679900	0.770700	0.164200
H601	H60	0.598600	0.936500	0.181400
H611	H61	0.108000	0.867500	0.228500
H621	H62	0.133800	0.218200	0.219100
H631	H63	0.020900	0.912500	0.291800
H641	H64	0.814200	0.904100	0.334400
H651	H65	0.626900	0.108000	0.270500
H661	H66	0.831600	0.127300	0.226300
H671	H67	0.258500	0.929100	0.537800
H681	H68	0.326100	0.041700	0.486000
H691	H69	0.471000	0.092000	0.431300
H701	H70	0.186600	0.817300	0.378800
H711	H71	0.032300	0.759900	0.432000
H721	H72	0.849400	0.763700	0.479400
H731	H73	0.851700	0.745600	0.593000
H741	H74	0.584800	0.733100	0.484900
H751	H75	0.309300	0.636600	0.487200
H761	H76	0.354700	0.504900	0.586100
H771	H77	0.634900	0.595300	0.586400
H781	H78	0.535300	0.416200	0.665600
H791	H79	0.869000	0.770700	0.681900
H801	H80	0.773500	0.929700	0.664000
H811	H81	0.320100	0.729300	0.664200
H821	H82	0.401400	0.563500	0.681400
H831	H83	0.892000	0.632500	0.728500
H841	H84	0.866200	0.281800	0.719100
H851	H85	0.979100	0.587500	0.791800
H861	H86	0.185800	0.595900	0.834400
H871	H87	0.373100	0.392000	0.770500
H881	H88	0.168400	0.372700	0.726300
C11	C1	0.162800	0.362000	0.891890
C21	C2	0.070600	0.339400	0.928850
C31	C3	0.149800	0.381000	0.962790
C41	C4	0.070800	0.352400	0.997470
C51	C5	0.162300	0.391400	0.033520
C61	C6	0.295300	0.493100	0.035460
C71	C7	0.382000	0.522900	0.068630
C81	C8	0.216300	0.363200	0.099170
C91	C9	0.123000	0.327600	0.067140
C101	C10	0.904400	0.283900	0.997540
C111	C11	0.821600	0.246200	0.964020
C121	C12	0.906200	0.272800	0.929660
C131	C13	0.642600	0.179500	0.964230
C141	C14	0.541400	0.187600	0.993700
C151	C15	0.374600	0.128900	0.992120
C161	C16	0.401600	0.052100	0.934690
C171	C17	0.570900	0.107100	0.934040
C181	C18	0.610700	0.708500	0.826230
C191	C19	0.689200	0.830200	0.810130
C201	C20	0.628100	0.927400	0.818990
C211	C21	0.705500	0.041400	0.804810
C221	C22	0.646100	0.147200	0.815960
C231	C23	0.756200	0.259700	0.821570
C241	C24	0.697400	0.354900	0.832290
C251	C25	0.432300	0.237700	0.832260
C261	C26	0.479900	0.137500	0.821780
C271	C27	0.841200	0.056200	0.781280
C281	C28	0.903000	0.960300	0.771930
C291	C29	0.825500	0.847200	0.786790
C301	C30	0.043400	0.974300	0.745600
C311	C31	0.056000	0.044400	0.712900
C321	C32	0.181800	0.050100	0.687540
C331	C33	0.290700	0.930200	0.724880
C341	C34	0.168000	0.918000	0.751740
C351	C35	0.837200	0.138000	0.391890
C361	C36	0.929400	0.160600	0.428850
C371	C37	0.850200	0.119000	0.462790
C381	C38	0.929200	0.147600	0.497470
C391	C39	0.837700	0.108600	0.533520
C401	C40	0.704700	0.006900	0.535460
C411	C41	0.618000	0.977100	0.568630
C421	C42	0.783700	0.136800	0.599170
C431	C43	0.877000	0.172400	0.567140
C441	C44	0.095600	0.216100	0.497540
C451	C45	0.178400	0.253800	0.464020
C461	C46	0.093800	0.227200	0.429660
C471	C47	0.357400	0.320500	0.464230
C481	C48	0.458600	0.312400	0.493700
C491	C49	0.625400	0.371100	0.492120
C501	C50	0.598400	0.447900	0.434690
C511	C51	0.429100	0.392900	0.434040
C521	C52	0.389300	0.791500	0.326230
C531	C53	0.310800	0.669800	0.310130
C541	C54	0.371900	0.572600	0.318990
C551	C55	0.294500	0.458600	0.304810
C561	C56	0.353900	0.352800	0.315960
C571	C57	0.243800	0.240300	0.321570
C581	C58	0.302600	0.145100	0.332290
C591	C59	0.567700	0.262300	0.332260
C601	C60	0.520100	0.362500	0.321780
C611	C61	0.158800	0.443800	0.281280
C621	C62	0.097000	0.539700	0.271930
C631	C63	0.174500	0.652800	0.286790
C641	C64	0.956600	0.525700	0.245600
C651	C65	0.944000	0.455600	0.212900
C661	C66	0.818200	0.449900	0.187540
C671	C67	0.709300	0.569800	0.224880
C681	C68	0.832000	0.582000	0.251740
C691	C69	0.837200	0.638000	0.108110
C701	C70	0.929400	0.660600	0.071150
C711	C71	0.850200	0.619000	0.037210
C721	C72	0.929200	0.647600	0.002530
C731	C73	0.837700	0.608600	0.966480
C741	C74	0.704700	0.506900	0.964540
C751	C75	0.618000	0.477100	0.931370
C761	C76	0.783700	0.636800	0.900830
C771	C77	0.877000	0.672400	0.932860
C781	C78	0.095600	0.716100	0.002460
C791	C79	0.178400	0.753800	0.035980
C801	C80	0.093800	0.727200	0.070340
C811	C81	0.357400	0.820500	0.035770
C821	C82	0.458600	0.812400	0.006300
C831	C83	0.625400	0.871100	0.007880
C841	C84	0.598400	0.947900	0.065310
C851	C85	0.429100	0.892900	0.065960
C861	C86	0.389300	0.291500	0.173770
C871	C87	0.310800	0.169800	0.189870
C881	C88	0.371900	0.072600	0.181010
C891	C89	0.294500	0.958600	0.195190
C901	C90	0.353900	0.852800	0.184040
C911	C91	0.243800	0.740300	0.178430
C921	C92	0.302600	0.645100	0.167710
C931	C93	0.567700	0.762300	0.167740
C941	C94	0.520100	0.862500	0.178220
C951	C95	0.158800	0.943800	0.218720
C961	C96	0.097000	0.039700	0.228070
C971	C97	0.174500	0.152800	0.213210
C981	C98	0.956600	0.025700	0.254400
C991	C99	0.944000	0.955600	0.287100
C1001	C100	0.818200	0.949900	0.312460
C1011	C101	0.709300	0.069800	0.275120
C1021	C102	0.832000	0.082000	0.248260
C1031	C103	0.162800	0.862000	0.608110
C1041	C104	0.070600	0.839400	0.571150
C1051	C105	0.149800	0.881000	0.537210
C1061	C106	0.070800	0.852400	0.502530
C1071	C107	0.162300	0.891400	0.466480
C1081	C108	0.295300	0.993100	0.464540
C1091	C109	0.382000	0.022900	0.431370
C1101	C110	0.216300	0.863200	0.400830
C1111	C111	0.123000	0.827600	0.432860
C1121	C112	0.904400	0.783900	0.502460
C1131	C113	0.821600	0.746200	0.535980
C1141	C114	0.906200	0.772800	0.570340
C1151	C115	0.642600	0.679500	0.535770
C1161	C116	0.541400	0.687600	0.506300
C1171	C117	0.374600	0.628900	0.507880
C1181	C118	0.401600	0.552100	0.565310
C1191	C119	0.570900	0.607100	0.565960
C1201	C120	0.610700	0.208500	0.673770
C1211	C121	0.689200	0.330200	0.689870
C1221	C122	0.628100	0.427400	0.681010
C1231	C123	0.705500	0.541400	0.695190
C1241	C124	0.646100	0.647200	0.684040
C1251	C125	0.756200	0.759700	0.678430
C1261	C126	0.697400	0.854900	0.667710
C1271	C127	0.432300	0.737700	0.667740
C1281	C128	0.479900	0.637500	0.678220
C1291	C129	0.841200	0.556200	0.718720
C1301	C130	0.903000	0.460300	0.728070
C1311	C131	0.825500	0.347200	0.713210
C1321	C132	0.043400	0.474300	0.754400
C1331	C133	0.056000	0.544400	0.787100
C1341	C134	0.181800	0.550100	0.812460
C1351	C135	0.290700	0.430200	0.775120
C1361	C136	0.168000	0.418000	0.748260
N11	N1	0.347800	0.460100	0.100740
N21	N2	0.302800	0.063100	0.963280
N31	N3	0.537500	0.346800	0.837760
N41	N4	0.299500	0.992800	0.692770
N51	N5	0.652200	0.039900	0.600740
N61	N6	0.697200	0.436900	0.463280
N71	N7	0.462500	0.153200	0.337760
N81	N8	0.700500	0.507200	0.192770
N91	N9	0.652200	0.539900	0.899260
N101	N10	0.697200	0.936900	0.036720
N111	N11	0.462500	0.653200	0.162240
N121	N12	0.700500	0.007200	0.307230
N131	N13	0.347800	0.960100	0.399260
N141	N14	0.302800	0.563100	0.536720
N151	N15	0.537500	0.846800	0.662240
N161	N16	0.299500	0.492800	0.807230
O11	O1	0.293600	0.450900	0.891710
O21	O2	0.109400	0.294500	0.864570
O31	O3	0.497000	0.696210	0.850620
O41	O4	0.659300	0.619240	0.815750
O51	O5	0.706400	0.049100	0.391710
O61	O6	0.890600	0.205500	0.364570
O71	O7	0.503000	0.803790	0.350620
O81	O8	0.340700	0.880760	0.315750
O91	O9	0.706400	0.549100	0.108290
O101	O10	0.890600	0.705500	0.135430
O111	O11	0.503000	0.303790	0.149380
O121	O12	0.340700	0.380760	0.184250
O131	O13	0.293600	0.950900	0.608290
O141	O14	0.109400	0.794500	0.635430
O151	O15	0.497000	0.196210	0.649380
O161	O16	0.659300	0.119240	0.684250
