data_FEVSAC_clean_PM
_symmetry_space_group_name_H-M	'P1'
_cell_length_a	10.240300
_cell_length_b	20.417000
_cell_length_c	21.733400
_cell_angle_alpha	90.000000
_cell_angle_beta	90.000000
_cell_angle_gamma	95.301000
_symmetry_Int_Tables_number 1

loop_
_symmetry_equiv_pos_as_xyz
'x,y,z'

loop_
_atom_site_label
_atom_site_type_symbol
_atom_site_fract_x
_atom_site_fract_y
_atom_site_fract_z
Rb11	Rb1	0.367720	0.648340	0.882530
Rb21	Rb2	0.429930	0.035800	0.903190
Rb31	Rb3	0.377250	0.141140	0.636030
Rb41	Rb4	0.132280	0.851660	0.382530
Rb51	Rb5	0.070070	0.464200	0.403190
Rb61	Rb6	0.122750	0.358860	0.136030
Rb71	Rb7	0.632280	0.351660	0.117470
Rb81	Rb8	0.570070	0.964200	0.096810
Rb91	Rb9	0.622750	0.858860	0.363970
Rb101	Rb10	0.867720	0.148340	0.617470
Rb111	Rb11	0.929930	0.535800	0.596810
Rb121	Rb12	0.877250	0.641140	0.863970
H11	H1	0.118600	0.920400	0.068600
H21	H2	0.057500	0.987500	0.076300
H31	H3	0.184200	0.974300	0.113000
H41	H4	0.381400	0.579600	0.568600
H51	H5	0.442500	0.512500	0.576300
H61	H6	0.315800	0.525700	0.613000
H71	H7	0.881400	0.079600	0.931400
H81	H8	0.942500	0.012500	0.923700
H91	H9	0.815800	0.025700	0.887000
H101	H10	0.618600	0.420400	0.431400
H111	H11	0.557500	0.487500	0.423700
H121	H12	0.684200	0.474300	0.387000
C11	C1	0.221800	0.900760	0.785070
C21	C2	0.243200	0.947130	0.650320
C31	C3	0.198600	0.824960	0.566890
C41	C4	0.145700	0.703220	0.650090
C51	C5	0.156400	0.749780	0.785380
C61	C6	0.203100	0.859760	0.731930
C71	C7	0.214100	0.880920	0.669970
C81	C8	0.195100	0.825030	0.632500
C91	C9	0.171500	0.769410	0.670310
C101	C10	0.175800	0.790810	0.731620
C111	C11	0.569700	0.933410	0.770680
C121	C12	0.597300	0.997290	0.644630
C131	C13	0.552200	0.887060	0.545470
C141	C14	0.492800	0.755480	0.613680
C151	C15	0.502500	0.782800	0.751770
C161	C16	0.555000	0.899110	0.713610
C171	C17	0.567500	0.928920	0.654820
C181	C18	0.547200	0.879410	0.610460
C191	C19	0.521500	0.818670	0.641020
C201	C20	0.526000	0.831490	0.705090
C211	C21	0.137800	0.966800	0.074860
C221	C22	0.342100	0.270900	0.783390
C231	C23	0.394100	0.421200	0.787180
C241	C24	0.404100	0.464730	0.922190
C251	C25	0.366600	0.338170	0.003900
C261	C26	0.328400	0.219180	0.917020
C271	C27	0.356400	0.309470	0.837980
C281	C28	0.379900	0.378520	0.839650
C291	C29	0.387200	0.398330	0.901960
C301	C30	0.368000	0.340980	0.938260
C311	C31	0.349200	0.286300	0.899170
C321	C32	0.278200	0.599240	0.285070
C331	C33	0.256800	0.552870	0.150320
C341	C34	0.301400	0.675040	0.066890
C351	C35	0.354300	0.796780	0.150090
C361	C36	0.343600	0.750220	0.285380
C371	C37	0.296900	0.640240	0.231930
C381	C38	0.285900	0.619080	0.169970
C391	C39	0.304900	0.674970	0.132500
C401	C40	0.328500	0.730590	0.170310
C411	C41	0.324200	0.709190	0.231620
C421	C42	0.930300	0.566590	0.270680
C431	C43	0.902700	0.502710	0.144630
C441	C44	0.947800	0.612940	0.045470
C451	C45	0.007200	0.744520	0.113680
C461	C46	0.997500	0.717200	0.251770
C471	C47	0.945000	0.600890	0.213610
C481	C48	0.932500	0.571080	0.154820
C491	C49	0.952800	0.620590	0.110460
C501	C50	0.978500	0.681330	0.141020
C511	C51	0.974000	0.668510	0.205090
C521	C52	0.362200	0.533200	0.574860
C531	C53	0.157900	0.229100	0.283390
C541	C54	0.105900	0.078800	0.287180
C551	C55	0.095900	0.035270	0.422190
C561	C56	0.133400	0.161830	0.503900
C571	C57	0.171600	0.280820	0.417020
C581	C58	0.143600	0.190530	0.337980
C591	C59	0.120100	0.121480	0.339650
C601	C60	0.112800	0.101670	0.401960
C611	C61	0.132000	0.159020	0.438260
C621	C62	0.150800	0.213700	0.399170
C631	C63	0.778200	0.099240	0.214930
C641	C64	0.756800	0.052870	0.349680
C651	C65	0.801400	0.175040	0.433110
C661	C66	0.854300	0.296780	0.349910
C671	C67	0.843600	0.250220	0.214620
C681	C68	0.796900	0.140240	0.268070
C691	C69	0.785900	0.119080	0.330030
C701	C70	0.804900	0.174970	0.367500
C711	C71	0.828500	0.230590	0.329690
C721	C72	0.824200	0.209190	0.268380
C731	C73	0.430300	0.066590	0.229320
C741	C74	0.402700	0.002710	0.355370
C751	C75	0.447800	0.112940	0.454530
C761	C76	0.507200	0.244520	0.386320
C771	C77	0.497500	0.217200	0.248230
C781	C78	0.445000	0.100890	0.286390
C791	C79	0.432500	0.071080	0.345180
C801	C80	0.452800	0.120590	0.389540
C811	C81	0.478500	0.181330	0.358980
C821	C82	0.474000	0.168510	0.294910
C831	C83	0.862200	0.033200	0.925140
C841	C84	0.657900	0.729100	0.216610
C851	C85	0.605900	0.578800	0.212820
C861	C86	0.595900	0.535270	0.077810
C871	C87	0.633400	0.661830	0.996100
C881	C88	0.671600	0.780820	0.082980
C891	C89	0.643600	0.690530	0.162020
C901	C90	0.620100	0.621480	0.160350
C911	C91	0.612800	0.601670	0.098040
C921	C92	0.632000	0.659020	0.061740
C931	C93	0.650800	0.713700	0.100830
C941	C94	0.721800	0.400760	0.714930
C951	C95	0.743200	0.447130	0.849680
C961	C96	0.698600	0.324960	0.933110
C971	C97	0.645700	0.203220	0.849910
C981	C98	0.656400	0.249780	0.714620
C991	C99	0.703100	0.359760	0.768070
C1001	C100	0.714100	0.380920	0.830030
C1011	C101	0.695100	0.325030	0.867500
C1021	C102	0.671500	0.269410	0.829690
C1031	C103	0.675800	0.290810	0.768380
C1041	C104	0.069700	0.433410	0.729320
C1051	C105	0.097300	0.497290	0.855370
C1061	C106	0.052200	0.387060	0.954530
C1071	C107	0.992800	0.255480	0.886320
C1081	C108	0.002500	0.282800	0.748230
C1091	C109	0.055000	0.399110	0.786390
C1101	C110	0.067500	0.428920	0.845180
C1111	C111	0.047200	0.379410	0.889540
C1121	C112	0.021500	0.318670	0.858980
C1131	C113	0.026000	0.331490	0.794910
C1141	C114	0.637800	0.466800	0.425140
C1151	C115	0.842100	0.770900	0.716610
C1161	C116	0.894100	0.921200	0.712820
C1171	C117	0.904100	0.964730	0.577810
C1181	C118	0.866600	0.838170	0.496100
C1191	C119	0.828400	0.719180	0.582980
C1201	C120	0.856400	0.809470	0.662020
C1211	C121	0.879900	0.878520	0.660350
C1221	C122	0.887200	0.898330	0.598040
C1231	C123	0.868000	0.840980	0.561740
C1241	C124	0.849200	0.786300	0.600830
N11	N1	0.239300	0.933530	0.827500
N21	N2	0.267000	0.999860	0.634810
N31	N3	0.201700	0.824610	0.514340
N41	N4	0.124200	0.649900	0.633200
N51	N5	0.141400	0.718060	0.828090
N61	N6	0.580900	0.961290	0.816000
N71	N7	0.621900	0.052630	0.637780
N81	N8	0.558400	0.891130	0.493200
N91	N9	0.469100	0.704640	0.592740
N101	N10	0.482000	0.743380	0.788610
N111	N11	0.219900	0.994920	0.023690
N121	N12	0.331900	0.241180	0.739040
N131	N13	0.404600	0.453900	0.745150
N141	N14	0.416400	0.518360	0.936300
N151	N15	0.364600	0.334290	0.056420
N161	N16	0.312600	0.164880	0.930500
N171	N17	0.260700	0.566470	0.327500
N181	N18	0.233000	0.500140	0.134810
N191	N19	0.298300	0.675390	0.014340
N201	N20	0.375800	0.850100	0.133200
N211	N21	0.358600	0.781940	0.328090
N221	N22	0.919100	0.538710	0.316000
N231	N23	0.878100	0.447370	0.137780
N241	N24	0.941600	0.608870	0.993200
N251	N25	0.030900	0.795360	0.092740
N261	N26	0.018000	0.756620	0.288610
N271	N27	0.280100	0.505080	0.523690
N281	N28	0.168100	0.258820	0.239040
N291	N29	0.095400	0.046100	0.245150
N301	N30	0.083600	0.981640	0.436300
N311	N31	0.135400	0.165710	0.556420
N321	N32	0.187400	0.335120	0.430500
N331	N33	0.760700	0.066470	0.172500
N341	N34	0.733000	0.000140	0.365190
N351	N35	0.798300	0.175390	0.485660
N361	N36	0.875800	0.350100	0.366800
N371	N37	0.858600	0.281940	0.171910
N381	N38	0.419100	0.038710	0.184000
N391	N39	0.378100	0.947370	0.362220
N401	N40	0.441600	0.108870	0.506800
N411	N41	0.530900	0.295360	0.407260
N421	N42	0.518000	0.256620	0.211390
N431	N43	0.780100	0.005080	0.976310
N441	N44	0.668100	0.758820	0.260960
N451	N45	0.595400	0.546100	0.254850
N461	N46	0.583600	0.481640	0.063700
N471	N47	0.635400	0.665710	0.943580
N481	N48	0.687400	0.835120	0.069500
N491	N49	0.739300	0.433530	0.672500
N501	N50	0.767000	0.499860	0.865190
N511	N51	0.701700	0.324610	0.985660
N521	N52	0.624200	0.149900	0.866800
N531	N53	0.641400	0.218060	0.671910
N541	N54	0.080900	0.461290	0.684000
N551	N55	0.121900	0.552630	0.862220
N561	N56	0.058400	0.391130	0.006800
N571	N57	0.969100	0.204640	0.907260
N581	N58	0.982000	0.243380	0.711390
N591	N59	0.719900	0.494920	0.476310
N601	N60	0.831900	0.741180	0.760960
N611	N61	0.904600	0.953900	0.754850
N621	N62	0.916400	0.018360	0.563700
N631	N63	0.864600	0.834290	0.443580
N641	N64	0.812600	0.664880	0.569500
O11	O1	0.334400	0.013650	0.033810
O21	O2	0.170000	0.997230	0.972650
O31	O3	0.165600	0.486350	0.533810
O41	O4	0.330000	0.502770	0.472650
O51	O5	0.665600	0.986350	0.966190
O61	O6	0.830000	0.002770	0.027350
O71	O7	0.834400	0.513650	0.466190
O81	O8	0.670000	0.497230	0.527350
