data_FEXCES_clean_PM
_symmetry_space_group_name_H-M	'P1'
_cell_length_a	11.050000
_cell_length_b	11.050000
_cell_length_c	27.772000
_cell_angle_alpha	90.000000
_cell_angle_beta	90.000000
_cell_angle_gamma	120.000000
_symmetry_Int_Tables_number 1

loop_
_symmetry_equiv_pos_as_xyz
'x,y,z'

loop_
_atom_site_label
_atom_site_type_symbol
_atom_site_fract_x
_atom_site_fract_y
_atom_site_fract_z
Co11	Co1	0.076990	0.830770	0.970750
Co21	Co2	0.753780	0.923010	0.637420
Co31	Co3	0.169230	0.246220	0.304080
Co41	Co4	0.246220	0.169230	0.029250
Co51	Co5	0.830770	0.076990	0.362580
Co61	Co6	0.923010	0.753780	0.695920
H11	H1	0.746400	0.539600	0.776900
H21	H2	0.663500	0.157300	0.739800
H31	H3	0.943200	0.500800	0.667400
H41	H4	0.693100	0.447100	0.850700
H51	H5	0.545700	0.352400	0.916400
H61	H6	0.298100	0.002800	0.839700
H71	H7	0.448500	0.096400	0.774800
H81	H8	0.793200	0.253600	0.443570
H91	H9	0.493800	0.336500	0.406470
H101	H10	0.557600	0.056800	0.334070
H111	H11	0.754000	0.306900	0.517370
H121	H12	0.806700	0.454300	0.583070
H131	H13	0.704700	0.701900	0.506370
H141	H14	0.647900	0.551500	0.441470
H151	H15	0.460400	0.206800	0.110230
H161	H16	0.842700	0.506200	0.073130
H171	H17	0.499200	0.442400	0.000730
H181	H18	0.552900	0.246000	0.184030
H191	H19	0.647600	0.193300	0.249730
H201	H20	0.997200	0.295300	0.173030
H211	H21	0.903600	0.352100	0.108130
H221	H22	0.206800	0.460400	0.223100
H231	H23	0.506200	0.842700	0.260200
H241	H24	0.442400	0.499200	0.332600
H251	H25	0.246000	0.552900	0.149300
H261	H26	0.193300	0.647600	0.083600
H271	H27	0.295300	0.997200	0.160300
H281	H28	0.352100	0.903600	0.225200
H291	H29	0.539600	0.746400	0.556430
H301	H30	0.157300	0.663500	0.593530
H311	H31	0.500800	0.943200	0.665930
H321	H32	0.447100	0.693100	0.482630
H331	H33	0.352400	0.545700	0.416930
H341	H34	0.002800	0.298100	0.493630
H351	H35	0.096400	0.448500	0.558530
H361	H36	0.253600	0.793200	0.889770
H371	H37	0.336500	0.493800	0.926870
H381	H38	0.056800	0.557600	0.999270
H391	H39	0.306900	0.754000	0.815970
H401	H40	0.454300	0.806700	0.750270
H411	H41	0.701900	0.704700	0.826970
H421	H42	0.551500	0.647900	0.891870
C11	C1	0.760000	0.480700	0.756440
C21	C2	0.685800	0.337000	0.765390
C31	C3	0.709400	0.253200	0.734740
C41	C4	0.802600	0.311600	0.695760
C51	C5	0.875500	0.458900	0.691220
C61	C6	0.832000	0.224300	0.661780
C71	C7	0.587100	0.281800	0.806700
C81	C8	0.615600	0.357900	0.848780
C91	C9	0.527100	0.299700	0.888370
C101	C10	0.410200	0.163300	0.887150
C111	C11	0.378700	0.089700	0.842500
C121	C12	0.467500	0.146800	0.803310
C131	C13	0.317200	0.097300	0.929520
C141	C14	0.720700	0.240000	0.423110
C151	C15	0.651200	0.314200	0.432060
C161	C16	0.543800	0.290600	0.401410
C171	C17	0.509000	0.197400	0.362430
C181	C18	0.583400	0.124500	0.357890
C191	C19	0.392300	0.168000	0.328450
C201	C20	0.694700	0.412900	0.473370
C211	C21	0.742300	0.384400	0.515450
C221	C22	0.772600	0.472900	0.555040
C231	C23	0.753100	0.589800	0.553820
C241	C24	0.711000	0.621300	0.509170
C251	C25	0.679300	0.532500	0.469980
C261	C26	0.780100	0.682800	0.596190
C271	C27	0.519300	0.279300	0.089770
C281	C28	0.663000	0.348800	0.098720
C291	C29	0.746800	0.456200	0.068070
C301	C30	0.688400	0.491000	0.029090
C311	C31	0.541100	0.416600	0.024550
C321	C32	0.775700	0.607700	0.995110
C331	C33	0.718200	0.305300	0.140030
C341	C34	0.642100	0.257700	0.182110
C351	C35	0.700300	0.227400	0.221700
C361	C36	0.836700	0.246900	0.220480
C371	C37	0.910300	0.289000	0.175830
C381	C38	0.853200	0.320700	0.136640
C391	C39	0.902700	0.219900	0.262850
C401	C40	0.279300	0.519300	0.243560
C411	C41	0.348800	0.663000	0.234610
C421	C42	0.456200	0.746800	0.265260
C431	C43	0.491000	0.688400	0.304240
C441	C44	0.416600	0.541100	0.308780
C451	C45	0.607700	0.775700	0.338220
C461	C46	0.305300	0.718200	0.193300
C471	C47	0.257700	0.642100	0.151220
C481	C48	0.227400	0.700300	0.111630
C491	C49	0.246900	0.836700	0.112850
C501	C50	0.289000	0.910300	0.157500
C511	C51	0.320700	0.853200	0.196690
C521	C52	0.219900	0.902700	0.070480
C531	C53	0.480700	0.760000	0.576890
C541	C54	0.337000	0.685800	0.567940
C551	C55	0.253200	0.709400	0.598590
C561	C56	0.311600	0.802600	0.637570
C571	C57	0.458900	0.875500	0.642110
C581	C58	0.224300	0.832000	0.671550
C591	C59	0.281800	0.587100	0.526630
C601	C60	0.357900	0.615600	0.484550
C611	C61	0.299700	0.527100	0.444960
C621	C62	0.163300	0.410200	0.446180
C631	C63	0.089700	0.378700	0.490830
C641	C64	0.146800	0.467500	0.530020
C651	C65	0.097300	0.317200	0.403810
C661	C66	0.240000	0.720700	0.910230
C671	C67	0.314200	0.651200	0.901280
C681	C68	0.290600	0.543800	0.931930
C691	C69	0.197400	0.509000	0.970910
C701	C70	0.124500	0.583400	0.975450
C711	C71	0.168000	0.392300	0.004890
C721	C72	0.412900	0.694700	0.859970
C731	C73	0.384400	0.742300	0.817890
C741	C74	0.472900	0.772600	0.778300
C751	C75	0.589800	0.753100	0.779520
C761	C76	0.621300	0.711000	0.824170
C771	C77	0.532500	0.679300	0.863360
C781	C78	0.682800	0.780100	0.737150
N11	N1	0.849700	0.537500	0.719780
N21	N2	0.687800	0.150300	0.386450
N31	N3	0.462500	0.312200	0.053110
N41	N4	0.312200	0.462500	0.280220
N51	N5	0.537500	0.849700	0.613550
N61	N6	0.150300	0.687800	0.946890
O11	O1	0.220700	0.974600	0.924810
O21	O2	0.349200	0.167900	0.967380
O31	O3	0.773900	0.096400	0.671730
O41	O4	0.907200	0.281800	0.626830
O51	O5	0.753900	0.779300	0.591480
O61	O6	0.818700	0.650800	0.634050
O71	O7	0.322500	0.226100	0.338400
O81	O8	0.374600	0.092800	0.293500
O91	O9	0.025400	0.246100	0.258140
O101	O10	0.832100	0.181300	0.300710
O111	O11	0.903600	0.677500	0.005060
O121	O12	0.718200	0.625400	0.960160
O131	O13	0.246100	0.025400	0.075190
O141	O14	0.181300	0.832100	0.032620
O151	O15	0.677500	0.903600	0.328270
O161	O16	0.625400	0.718200	0.373170
O171	O17	0.974600	0.220700	0.408520
O181	O18	0.167900	0.349200	0.365950
O191	O19	0.096400	0.773900	0.661600
O201	O20	0.281800	0.907200	0.706500
O211	O21	0.779300	0.753900	0.741860
O221	O22	0.650800	0.818700	0.699290
O231	O23	0.226100	0.322500	0.994940
O241	O24	0.092800	0.374600	0.039840
