data_FEYJOJ_clean_PM
_symmetry_space_group_name_H-M	'P1'
_cell_length_a	13.006000
_cell_length_b	14.279000
_cell_length_c	17.515000
_cell_angle_alpha	96.872000
_cell_angle_beta	90.000000
_cell_angle_gamma	90.000000
_symmetry_Int_Tables_number 1

loop_
_symmetry_equiv_pos_as_xyz
'x,y,z'

loop_
_atom_site_label
_atom_site_type_symbol
_atom_site_fract_x
_atom_site_fract_y
_atom_site_fract_z
Co11	Co1	0.067020	0.998550	0.773960
Co21	Co2	0.271620	0.430540	0.131210
Co31	Co3	0.567020	0.501450	0.726040
Co41	Co4	0.771620	0.069460	0.368790
Co51	Co5	0.932980	0.001450	0.226040
Co61	Co6	0.728380	0.569460	0.868790
Co71	Co7	0.432980	0.498550	0.273960
Co81	Co8	0.228380	0.930540	0.631210
H11	H1	0.601800	0.227300	0.225400
H21	H2	0.555500	0.308500	0.014600
H31	H3	0.791600	0.135300	0.050100
H41	H4	0.817900	0.118200	0.935800
H51	H5	0.804600	0.233100	0.735900
H61	H6	0.640400	0.347200	0.919900
H71	H7	0.101800	0.272700	0.274600
H81	H8	0.055500	0.191500	0.485400
H91	H9	0.291600	0.364700	0.449900
H101	H10	0.317900	0.381800	0.564200
H111	H11	0.304600	0.266900	0.764100
H121	H12	0.140400	0.152800	0.580100
H131	H13	0.398200	0.772700	0.774600
H141	H14	0.444500	0.691500	0.985400
H151	H15	0.208400	0.864700	0.949900
H161	H16	0.182100	0.881800	0.064200
H171	H17	0.195400	0.766900	0.264100
H181	H18	0.359600	0.652800	0.080100
H191	H19	0.898200	0.727300	0.725400
H201	H20	0.944500	0.808500	0.514600
H211	H21	0.708400	0.635300	0.550100
H221	H22	0.682100	0.618200	0.435800
H231	H23	0.695400	0.733100	0.235900
H241	H24	0.859600	0.847200	0.419900
C11	C1	0.621000	0.225400	0.172860
C21	C2	0.481900	0.342000	0.156600
C31	C3	0.566500	0.277500	0.124700
C41	C4	0.595300	0.275300	0.048200
C51	C5	0.719600	0.229000	0.939900
C61	C6	0.703000	0.170500	0.144700
C71	C7	0.681800	0.225200	0.020000
C81	C8	0.733800	0.171700	0.068900
C91	C9	0.791300	0.164700	0.906600
C101	C10	0.907700	0.099600	0.800000
C111	C11	0.716600	0.300500	0.822000
C121	C12	0.675000	0.373600	0.776600
C131	C13	0.785200	0.233400	0.788200
C141	C14	0.685500	0.299500	0.897000
C151	C15	0.825000	0.166600	0.831900
C161	C16	0.762300	0.111700	0.195200
C171	C17	0.121000	0.274600	0.327140
C181	C18	0.981900	0.158000	0.343400
C191	C19	0.066500	0.222500	0.375300
C201	C20	0.095300	0.224700	0.451800
C211	C21	0.219600	0.271000	0.560100
C221	C22	0.203000	0.329500	0.355300
C231	C23	0.181800	0.274800	0.480000
C241	C24	0.233800	0.328300	0.431100
C251	C25	0.291300	0.335300	0.593400
C261	C26	0.407700	0.400400	0.700000
C271	C27	0.216600	0.199500	0.678000
C281	C28	0.175000	0.126400	0.723400
C291	C29	0.285200	0.266600	0.711800
C301	C30	0.185500	0.200500	0.603000
C311	C31	0.325000	0.333400	0.668100
C321	C32	0.262300	0.388300	0.304800
C331	C33	0.379000	0.774600	0.827140
C341	C34	0.518100	0.658000	0.843400
C351	C35	0.433500	0.722500	0.875300
C361	C36	0.404700	0.724700	0.951800
C371	C37	0.280400	0.771000	0.060100
C381	C38	0.297000	0.829500	0.855300
C391	C39	0.318200	0.774800	0.980000
C401	C40	0.266200	0.828300	0.931100
C411	C41	0.208700	0.835300	0.093400
C421	C42	0.092300	0.900400	0.200000
C431	C43	0.283400	0.699500	0.178000
C441	C44	0.325000	0.626400	0.223400
C451	C45	0.214800	0.766600	0.211800
C461	C46	0.314500	0.700500	0.103000
C471	C47	0.175000	0.833400	0.168100
C481	C48	0.237700	0.888300	0.804800
C491	C49	0.879000	0.725400	0.672860
C501	C50	0.018100	0.842000	0.656600
C511	C51	0.933500	0.777500	0.624700
C521	C52	0.904700	0.775300	0.548200
C531	C53	0.780400	0.729000	0.439900
C541	C54	0.797000	0.670500	0.644700
C551	C55	0.818200	0.725200	0.520000
C561	C56	0.766200	0.671700	0.568900
C571	C57	0.708700	0.664700	0.406600
C581	C58	0.592300	0.599600	0.300000
C591	C59	0.783400	0.800500	0.322000
C601	C60	0.825000	0.873600	0.276600
C611	C61	0.714800	0.733400	0.288200
C621	C62	0.814500	0.799500	0.397000
C631	C63	0.675000	0.666600	0.331900
C641	C64	0.737700	0.611700	0.695200
O11	O1	0.927100	0.089200	0.729760
O21	O2	0.958400	0.057480	0.847200
O31	O3	0.495400	0.378690	0.225300
O41	O4	0.407800	0.355510	0.114090
O51	O5	0.832900	0.060980	0.162870
O61	O6	0.738100	0.117540	0.264150
O71	O7	0.644160	0.452420	0.814140
O81	O8	0.664100	0.357750	0.706370
O91	O9	0.427100	0.410800	0.770240
O101	O10	0.458400	0.442520	0.652800
O111	O11	0.995400	0.121310	0.274700
O121	O12	0.907800	0.144490	0.385910
O131	O13	0.332900	0.439020	0.337130
O141	O14	0.238100	0.382460	0.235850
O151	O15	0.144160	0.047580	0.685860
O161	O16	0.164100	0.142250	0.793630
O171	O17	0.072900	0.910800	0.270240
O181	O18	0.041600	0.942520	0.152800
O191	O19	0.504600	0.621310	0.774700
O201	O20	0.592200	0.644490	0.885910
O211	O21	0.167100	0.939020	0.837130
O221	O22	0.261900	0.882460	0.735850
O231	O23	0.355840	0.547580	0.185860
O241	O24	0.335900	0.642250	0.293630
O251	O25	0.572900	0.589200	0.229760
O261	O26	0.541600	0.557480	0.347200
O271	O27	0.004600	0.878690	0.725300
O281	O28	0.092200	0.855510	0.614090
O291	O29	0.667100	0.560980	0.662870
O301	O30	0.761900	0.617540	0.764150
O311	O31	0.855840	0.952420	0.314140
O321	O32	0.835900	0.857750	0.206370
