data_FEZQEI_clean_PM
_symmetry_space_group_name_H-M	'P1'
_cell_length_a	15.974200
_cell_length_b	15.974200
_cell_length_c	19.438300
_cell_angle_alpha	90.000000
_cell_angle_beta	90.000000
_cell_angle_gamma	120.000000
_symmetry_Int_Tables_number 1

loop_
_symmetry_equiv_pos_as_xyz
'x,y,z'

loop_
_atom_site_label
_atom_site_type_symbol
_atom_site_fract_x
_atom_site_fract_y
_atom_site_fract_z
C11	C1	0.172600	0.427400	0.321400
C21	C2	0.123800	0.357400	0.270500
C31	C3	0.163300	0.306300	0.242200
H11	H1	0.131200	0.262100	0.207100
C41	C4	0.252300	0.321400	0.266600
H21	H2	0.278700	0.286500	0.247200
C51	C5	0.299900	0.383600	0.316400
H31	H3	0.358100	0.390800	0.332100
C61	C6	0.262500	0.439800	0.346300
C71	C7	0.317200	0.511200	0.396800
H41	H4	0.375100	0.516200	0.411300
C81	C8	0.353900	0.650900	0.467400
H51	H5	0.409700	0.645500	0.482000
C91	C9	0.389800	0.743600	0.427000
H61	H6	0.430200	0.743800	0.389700
H71	H7	0.334600	0.744200	0.406800
C101	C10	0.446500	0.834300	0.468500
H81	H8	0.462300	0.890100	0.439900
H91	H9	0.506500	0.839000	0.483700
C111	C11	0.978400	0.275200	0.203800
H101	H10	0.019400	0.268700	0.170700
H111	H11	0.936400	0.293000	0.180700
H121	H12	0.940200	0.214800	0.227200
N11	N1	0.292700	0.568500	0.423600
O11	O1	0.141000	0.482300	0.342620
O21	O2	0.037000	0.348900	0.253100
O31	O3	0.923500	0.470000	0.460000
H131	H13	0.245000	0.556000	0.415000
C121	C12	0.572600	0.745200	0.654730
C131	C13	0.642600	0.766400	0.603830
C141	C14	0.693700	0.857000	0.575530
H141	H14	0.737900	0.869100	0.540430
C151	C15	0.678600	0.930900	0.599930
H151	H15	0.713500	0.992200	0.580530
C161	C16	0.616400	0.916300	0.649730
H161	H16	0.609200	0.967300	0.665430
C171	C17	0.560200	0.822700	0.679630
C181	C18	0.488800	0.806000	0.730130
H171	H17	0.483800	0.858900	0.744630
C191	C19	0.349100	0.703000	0.800730
H181	H18	0.354500	0.764200	0.815330
C201	C20	0.256400	0.646200	0.760330
H191	H19	0.256200	0.686400	0.723030
H201	H20	0.255800	0.590400	0.740130
C211	C21	0.165700	0.612200	0.801830
H211	H21	0.109900	0.572200	0.773230
H221	H22	0.161000	0.667500	0.817030
C221	C22	0.724800	0.703200	0.537130
H231	H23	0.731300	0.750700	0.504030
H241	H24	0.707000	0.643400	0.514030
H251	H25	0.785200	0.725400	0.560530
N21	N2	0.431500	0.724200	0.756930
O41	O4	0.517700	0.658700	0.675950
O51	O5	0.651100	0.688100	0.586430
O61	O6	0.530000	0.453500	0.793330
H261	H26	0.444000	0.689000	0.748330
C231	C23	0.254800	0.827400	0.988070
C241	C24	0.233600	0.876200	0.937170
C251	C25	0.143000	0.836700	0.908870
H271	H27	0.130900	0.868800	0.873770
C261	C26	0.069100	0.747700	0.933270
H281	H28	0.007800	0.721300	0.913870
C271	C27	0.083700	0.700100	0.983070
H291	H29	0.032700	0.641900	0.998770
C281	C28	0.177300	0.737500	0.012970
C291	C29	0.194000	0.682800	0.063470
H301	H30	0.141100	0.624900	0.077970
C301	C30	0.297000	0.646100	0.134070
H311	H31	0.235800	0.590300	0.148670
C311	C31	0.353800	0.610200	0.093670
H321	H32	0.313600	0.569800	0.056370
H331	H33	0.409600	0.665400	0.073470
C321	C32	0.387800	0.553500	0.135170
H341	H34	0.427800	0.537700	0.106570
H351	H35	0.332500	0.493500	0.150370
C331	C33	0.296800	0.021600	0.870470
H361	H36	0.249300	0.980600	0.837370
H371	H37	0.356600	0.063600	0.847370
H381	H38	0.274600	0.059800	0.893870
N31	N3	0.275800	0.707300	0.090270
O71	O7	0.341300	0.859000	0.009290
O81	O8	0.311900	0.963000	0.919770
O91	O9	0.546500	0.076500	0.126670
H391	H39	0.311000	0.755000	0.081670
C341	C34	0.827400	0.572600	0.321400
C351	C35	0.876200	0.642600	0.270500
C361	C36	0.836700	0.693700	0.242200
H401	H40	0.868800	0.737900	0.207100
C371	C37	0.747700	0.678600	0.266600
H411	H41	0.721300	0.713500	0.247200
C381	C38	0.700100	0.616400	0.316400
H421	H42	0.641900	0.609200	0.332100
C391	C39	0.737500	0.560200	0.346300
C401	C40	0.682800	0.488800	0.396800
H431	H43	0.624900	0.483800	0.411300
C411	C41	0.646100	0.349100	0.467400
H441	H44	0.590300	0.354500	0.482000
C421	C42	0.610200	0.256400	0.427000
H451	H45	0.569800	0.256200	0.389700
H461	H46	0.665400	0.255800	0.406800
C431	C43	0.553500	0.165700	0.468500
H471	H47	0.537700	0.109900	0.439900
H481	H48	0.493500	0.161000	0.483700
C441	C44	0.021600	0.724800	0.203800
H491	H49	0.980600	0.731300	0.170700
H501	H50	0.063600	0.707000	0.180700
H511	H51	0.059800	0.785200	0.227200
N41	N4	0.707300	0.431500	0.423600
O101	O10	0.859000	0.517700	0.342620
O111	O11	0.963000	0.651100	0.253100
O121	O12	0.076500	0.530000	0.460000
H521	H52	0.755000	0.444000	0.415000
C451	C45	0.427400	0.254800	0.654730
C461	C46	0.357400	0.233600	0.603830
C471	C47	0.306300	0.143000	0.575530
H531	H53	0.262100	0.130900	0.540430
C481	C48	0.321400	0.069100	0.599930
H541	H54	0.286500	0.007800	0.580530
C491	C49	0.383600	0.083700	0.649730
H551	H55	0.390800	0.032700	0.665430
C501	C50	0.439800	0.177300	0.679630
C511	C51	0.511200	0.194000	0.730130
H561	H56	0.516200	0.141100	0.744630
C521	C52	0.650900	0.297000	0.800730
H571	H57	0.645500	0.235800	0.815330
C531	C53	0.743600	0.353800	0.760330
H581	H58	0.743800	0.313600	0.723030
H591	H59	0.744200	0.409600	0.740130
C541	C54	0.834300	0.387800	0.801830
H601	H60	0.890100	0.427800	0.773230
H611	H61	0.839000	0.332500	0.817030
C551	C55	0.275200	0.296800	0.537130
H621	H62	0.268700	0.249300	0.504030
H631	H63	0.293000	0.356600	0.514030
H641	H64	0.214800	0.274600	0.560530
N51	N5	0.568500	0.275800	0.756930
O131	O13	0.482300	0.341300	0.675950
O141	O14	0.348900	0.311900	0.586430
O151	O15	0.470000	0.546500	0.793330
H651	H65	0.556000	0.311000	0.748330
C561	C56	0.745200	0.172600	0.988070
C571	C57	0.766400	0.123800	0.937170
C581	C58	0.857000	0.163300	0.908870
H661	H66	0.869100	0.131200	0.873770
C591	C59	0.930900	0.252300	0.933270
H671	H67	0.992200	0.278700	0.913870
C601	C60	0.916300	0.299900	0.983070
H681	H68	0.967300	0.358100	0.998770
C611	C61	0.822700	0.262500	0.012970
C621	C62	0.806000	0.317200	0.063470
H691	H69	0.858900	0.375100	0.077970
C631	C63	0.703000	0.353900	0.134070
H701	H70	0.764200	0.409700	0.148670
C641	C64	0.646200	0.389800	0.093670
H711	H71	0.686400	0.430200	0.056370
H721	H72	0.590400	0.334600	0.073470
C651	C65	0.612200	0.446500	0.135170
H731	H73	0.572200	0.462300	0.106570
H741	H74	0.667500	0.506500	0.150370
C661	C66	0.703200	0.978400	0.870470
H751	H75	0.750700	0.019400	0.837370
H761	H76	0.643400	0.936400	0.847370
H771	H77	0.725400	0.940200	0.893870
N61	N6	0.724200	0.292700	0.090270
O161	O16	0.658700	0.141000	0.009290
O171	O17	0.688100	0.037000	0.919770
O181	O18	0.453500	0.923500	0.126670
H781	H78	0.689000	0.245000	0.081670
C671	C67	0.427400	0.172600	0.011930
C681	C68	0.357400	0.123800	0.062830
C691	C69	0.306300	0.163300	0.091130
H791	H79	0.262100	0.131200	0.126230
C701	C70	0.321400	0.252300	0.066730
H801	H80	0.286500	0.278700	0.086130
C711	C71	0.383600	0.299900	0.016930
H811	H81	0.390800	0.358100	0.001230
C721	C72	0.439800	0.262500	0.987030
C731	C73	0.511200	0.317200	0.936530
H821	H82	0.516200	0.375100	0.922030
C741	C74	0.650900	0.353900	0.865930
H831	H83	0.645500	0.409700	0.851330
C751	C75	0.743600	0.389800	0.906330
H841	H84	0.743800	0.430200	0.943630
H851	H85	0.744200	0.334600	0.926530
C761	C76	0.834300	0.446500	0.864830
H861	H86	0.890100	0.462300	0.893430
H871	H87	0.839000	0.506500	0.849630
C771	C77	0.275200	0.978400	0.129530
H881	H88	0.268700	0.019400	0.162630
H891	H89	0.293000	0.936400	0.152630
H901	H90	0.214800	0.940200	0.106130
N71	N7	0.568500	0.292700	0.909730
O191	O19	0.482300	0.141000	0.990710
O201	O20	0.348900	0.037000	0.080230
O211	O21	0.470000	0.923500	0.873330
H911	H91	0.556000	0.245000	0.918330
C781	C78	0.745200	0.572600	0.678600
C791	C79	0.766400	0.642600	0.729500
C801	C80	0.857000	0.693700	0.757800
H921	H92	0.869100	0.737900	0.792900
C811	C81	0.930900	0.678600	0.733400
H931	H93	0.992200	0.713500	0.752800
C821	C82	0.916300	0.616400	0.683600
H941	H94	0.967300	0.609200	0.667900
C831	C83	0.822700	0.560200	0.653700
C841	C84	0.806000	0.488800	0.603200
H951	H95	0.858900	0.483800	0.588700
C851	C85	0.703000	0.349100	0.532600
H961	H96	0.764200	0.354500	0.518000
C861	C86	0.646200	0.256400	0.573000
H971	H97	0.686400	0.256200	0.610300
H981	H98	0.590400	0.255800	0.593200
C871	C87	0.612200	0.165700	0.531500
H991	H99	0.572200	0.109900	0.560100
H1001	H100	0.667500	0.161000	0.516300
C881	C88	0.703200	0.724800	0.796200
H1011	H101	0.750700	0.731300	0.829300
H1021	H102	0.643400	0.707000	0.819300
H1031	H103	0.725400	0.785200	0.772800
N81	N8	0.724200	0.431500	0.576400
O221	O22	0.658700	0.517700	0.657380
O231	O23	0.688100	0.651100	0.746900
O241	O24	0.453500	0.530000	0.540000
H1041	H104	0.689000	0.444000	0.585000
C891	C89	0.827400	0.254800	0.345270
C901	C90	0.876200	0.233600	0.396170
C911	C91	0.836700	0.143000	0.424470
H1051	H105	0.868800	0.130900	0.459570
C921	C92	0.747700	0.069100	0.400070
H1061	H106	0.721300	0.007800	0.419470
C931	C93	0.700100	0.083700	0.350270
H1071	H107	0.641900	0.032700	0.334570
C941	C94	0.737500	0.177300	0.320370
C951	C95	0.682800	0.194000	0.269870
H1081	H108	0.624900	0.141100	0.255370
C961	C96	0.646100	0.297000	0.199270
H1091	H109	0.590300	0.235800	0.184670
C971	C97	0.610200	0.353800	0.239670
H1101	H110	0.569800	0.313600	0.276970
H1111	H111	0.665400	0.409600	0.259870
C981	C98	0.553500	0.387800	0.198170
H1121	H112	0.537700	0.427800	0.226770
H1131	H113	0.493500	0.332500	0.182970
C991	C99	0.021600	0.296800	0.462870
H1141	H114	0.980600	0.249300	0.495970
H1151	H115	0.063600	0.356600	0.485970
H1161	H116	0.059800	0.274600	0.439470
N91	N9	0.707300	0.275800	0.243070
O251	O25	0.859000	0.341300	0.324050
O261	O26	0.963000	0.311900	0.413570
O271	O27	0.076500	0.546500	0.206670
H1171	H117	0.755000	0.311000	0.251670
C1001	C100	0.572600	0.827400	0.011930
C1011	C101	0.642600	0.876200	0.062830
C1021	C102	0.693700	0.836700	0.091130
H1181	H118	0.737900	0.868800	0.126230
C1031	C103	0.678600	0.747700	0.066730
H1191	H119	0.713500	0.721300	0.086130
C1041	C104	0.616400	0.700100	0.016930
H1201	H120	0.609200	0.641900	0.001230
C1051	C105	0.560200	0.737500	0.987030
C1061	C106	0.488800	0.682800	0.936530
H1211	H121	0.483800	0.624900	0.922030
C1071	C107	0.349100	0.646100	0.865930
H1221	H122	0.354500	0.590300	0.851330
C1081	C108	0.256400	0.610200	0.906330
H1231	H123	0.256200	0.569800	0.943630
H1241	H124	0.255800	0.665400	0.926530
C1091	C109	0.165700	0.553500	0.864830
H1251	H125	0.109900	0.537700	0.893430
H1261	H126	0.161000	0.493500	0.849630
C1101	C110	0.724800	0.021600	0.129530
H1271	H127	0.731300	0.980600	0.162630
H1281	H128	0.707000	0.063600	0.152630
H1291	H129	0.785200	0.059800	0.106130
N101	N10	0.431500	0.707300	0.909730
O281	O28	0.517700	0.859000	0.990710
O291	O29	0.651100	0.963000	0.080230
O301	O30	0.530000	0.076500	0.873330
H1301	H130	0.444000	0.755000	0.918330
C1111	C111	0.254800	0.427400	0.678600
C1121	C112	0.233600	0.357400	0.729500
C1131	C113	0.143000	0.306300	0.757800
H1311	H131	0.130900	0.262100	0.792900
C1141	C114	0.069100	0.321400	0.733400
H1321	H132	0.007800	0.286500	0.752800
C1151	C115	0.083700	0.383600	0.683600
H1331	H133	0.032700	0.390800	0.667900
C1161	C116	0.177300	0.439800	0.653700
C1171	C117	0.194000	0.511200	0.603200
H1341	H134	0.141100	0.516200	0.588700
C1181	C118	0.297000	0.650900	0.532600
H1351	H135	0.235800	0.645500	0.518000
C1191	C119	0.353800	0.743600	0.573000
H1361	H136	0.313600	0.743800	0.610300
H1371	H137	0.409600	0.744200	0.593200
C1201	C120	0.387800	0.834300	0.531500
H1381	H138	0.427800	0.890100	0.560100
H1391	H139	0.332500	0.839000	0.516300
C1211	C121	0.296800	0.275200	0.796200
H1401	H140	0.249300	0.268700	0.829300
H1411	H141	0.356600	0.293000	0.819300
H1421	H142	0.274600	0.214800	0.772800
N111	N11	0.275800	0.568500	0.576400
O311	O31	0.341300	0.482300	0.657380
O321	O32	0.311900	0.348900	0.746900
O331	O33	0.546500	0.470000	0.540000
H1431	H143	0.311000	0.556000	0.585000
C1221	C122	0.172600	0.745200	0.345270
C1231	C123	0.123800	0.766400	0.396170
C1241	C124	0.163300	0.857000	0.424470
H1441	H144	0.131200	0.869100	0.459570
C1251	C125	0.252300	0.930900	0.400070
H1451	H145	0.278700	0.992200	0.419470
C1261	C126	0.299900	0.916300	0.350270
H1461	H146	0.358100	0.967300	0.334570
C1271	C127	0.262500	0.822700	0.320370
C1281	C128	0.317200	0.806000	0.269870
H1471	H147	0.375100	0.858900	0.255370
C1291	C129	0.353900	0.703000	0.199270
H1481	H148	0.409700	0.764200	0.184670
C1301	C130	0.389800	0.646200	0.239670
H1491	H149	0.430200	0.686400	0.276970
H1501	H150	0.334600	0.590400	0.259870
C1311	C131	0.446500	0.612200	0.198170
H1511	H151	0.462300	0.572200	0.226770
H1521	H152	0.506500	0.667500	0.182970
C1321	C132	0.978400	0.703200	0.462870
H1531	H153	0.019400	0.750700	0.495970
H1541	H154	0.936400	0.643400	0.485970
H1551	H155	0.940200	0.725400	0.439470
N121	N12	0.292700	0.724200	0.243070
O341	O34	0.141000	0.658700	0.324050
O351	O35	0.037000	0.688100	0.413570
O361	O36	0.923500	0.453500	0.206670
H1561	H156	0.245000	0.689000	0.251670
Ce11	Ce1	0.000000	0.500000	0.333330
Ce21	Ce2	0.500000	0.500000	0.666670
Ce31	Ce3	0.500000	0.000000	0.000000
N131	N13	0.000000	0.500000	0.492700
O371	O37	0.000000	0.500000	0.555900
N141	N14	0.500000	0.500000	0.826030
O381	O38	0.500000	0.500000	0.889230
N151	N15	0.500000	0.000000	0.159370
O391	O39	0.500000	0.000000	0.222570
N161	N16	0.500000	0.000000	0.840630
O401	O40	0.500000	0.000000	0.777430
N171	N17	0.500000	0.500000	0.507300
O411	O41	0.500000	0.500000	0.444100
N181	N18	0.000000	0.500000	0.173970
O421	O42	0.000000	0.500000	0.110770
