data_FEZREJ_clean_PM
_symmetry_space_group_name_H-M	'P1'
_cell_length_a	13.381500
_cell_length_b	17.764700
_cell_length_c	17.764700
_cell_angle_alpha	90.000000
_cell_angle_beta	90.000000
_cell_angle_gamma	90.000000
_symmetry_Int_Tables_number 1

loop_
_symmetry_equiv_pos_as_xyz
'x,y,z'

loop_
_atom_site_label
_atom_site_type_symbol
_atom_site_fract_x
_atom_site_fract_y
_atom_site_fract_z
Ba11	Ba1	0.177930	0.135880	0.614270
Ba21	Ba2	0.677930	0.864120	0.385730
Ba31	Ba3	0.427930	0.885730	0.635880
Ba41	Ba4	0.927930	0.114270	0.364120
Ba51	Ba5	0.072070	0.364120	0.114270
Ba61	Ba6	0.572070	0.635880	0.885730
Ba71	Ba7	0.822070	0.614270	0.135880
Ba81	Ba8	0.322070	0.385730	0.864120
Cd11	Cd1	0.250000	0.334320	0.665680
Cd21	Cd2	0.750000	0.665680	0.334320
Cd31	Cd3	0.500000	0.834320	0.834320
Cd41	Cd4	0.000000	0.165680	0.165680
H11	H1	0.165200	0.241900	0.415400
H21	H2	0.301200	0.302900	0.223400
H31	H3	0.421700	0.367600	0.292100
H41	H4	0.408300	0.373700	0.422800
H51	H5	0.665200	0.758100	0.584600
H61	H6	0.801200	0.697100	0.776600
H71	H7	0.921700	0.632400	0.707900
H81	H8	0.908300	0.626300	0.577200
H91	H9	0.415200	0.084600	0.741900
H101	H10	0.551200	0.276600	0.802900
H111	H11	0.671700	0.207900	0.867600
H121	H12	0.658300	0.077200	0.873700
H131	H13	0.915200	0.915400	0.258100
H141	H14	0.051200	0.723400	0.197100
H151	H15	0.171700	0.792100	0.132400
H161	H16	0.158300	0.922800	0.126300
H171	H17	0.084800	0.258100	0.915400
H181	H18	0.948800	0.197100	0.723400
H191	H19	0.828300	0.132400	0.792100
H201	H20	0.841700	0.126300	0.922800
H211	H21	0.584800	0.741900	0.084600
H221	H22	0.448800	0.802900	0.276600
H231	H23	0.328300	0.867600	0.207900
H241	H24	0.341700	0.873700	0.077200
H251	H25	0.834800	0.415400	0.241900
H261	H26	0.698800	0.223400	0.302900
H271	H27	0.578300	0.292100	0.367600
H281	H28	0.591700	0.422800	0.373700
H291	H29	0.334800	0.584600	0.758100
H301	H30	0.198800	0.776600	0.697100
H311	H31	0.078300	0.707900	0.632400
H321	H32	0.091700	0.577200	0.626300
C11	C1	0.285800	0.308800	0.432500
C21	C2	0.215500	0.268200	0.390600
C31	C3	0.219600	0.266700	0.312700
C41	C4	0.297500	0.304200	0.275700
C51	C5	0.369300	0.343500	0.316600
C61	C6	0.361700	0.346300	0.395300
C71	C7	0.277100	0.313300	0.515800
C81	C8	0.142700	0.225500	0.269200
C91	C9	0.785800	0.691200	0.567500
C101	C10	0.715500	0.731800	0.609400
C111	C11	0.719600	0.733300	0.687300
C121	C12	0.797500	0.695800	0.724300
C131	C13	0.869300	0.656500	0.683400
C141	C14	0.861700	0.653700	0.604700
C151	C15	0.777100	0.686700	0.484200
C161	C16	0.642700	0.774500	0.730800
C171	C17	0.535800	0.067500	0.808800
C181	C18	0.465500	0.109400	0.768200
C191	C19	0.469600	0.187300	0.766700
C201	C20	0.547500	0.224300	0.804200
C211	C21	0.619300	0.183400	0.843500
C221	C22	0.611700	0.104700	0.846300
C231	C23	0.527100	0.984200	0.813300
C241	C24	0.392700	0.230800	0.725500
C251	C25	0.035800	0.932500	0.191200
C261	C26	0.965500	0.890600	0.231800
C271	C27	0.969600	0.812700	0.233300
C281	C28	0.047500	0.775700	0.195800
C291	C29	0.119300	0.816600	0.156500
C301	C30	0.111700	0.895300	0.153700
C311	C31	0.027100	0.015800	0.186700
C321	C32	0.892700	0.769200	0.274500
C331	C33	0.964200	0.191200	0.932500
C341	C34	0.034500	0.231800	0.890600
C351	C35	0.030400	0.233300	0.812700
C361	C36	0.952500	0.195800	0.775700
C371	C37	0.880700	0.156500	0.816600
C381	C38	0.888300	0.153700	0.895300
C391	C39	0.972900	0.186700	0.015800
C401	C40	0.107300	0.274500	0.769200
C411	C41	0.464200	0.808800	0.067500
C421	C42	0.534500	0.768200	0.109400
C431	C43	0.530400	0.766700	0.187300
C441	C44	0.452500	0.804200	0.224300
C451	C45	0.380700	0.843500	0.183400
C461	C46	0.388300	0.846300	0.104700
C471	C47	0.472900	0.813300	0.984200
C481	C48	0.607300	0.725500	0.230800
C491	C49	0.714200	0.432500	0.308800
C501	C50	0.784500	0.390600	0.268200
C511	C51	0.780400	0.312700	0.266700
C521	C52	0.702500	0.275700	0.304200
C531	C53	0.630700	0.316600	0.343500
C541	C54	0.638300	0.395300	0.346300
C551	C55	0.722900	0.515800	0.313300
C561	C56	0.857300	0.269200	0.225500
C571	C57	0.214200	0.567500	0.691200
C581	C58	0.284500	0.609400	0.731800
C591	C59	0.280400	0.687300	0.733300
C601	C60	0.202500	0.724300	0.695800
C611	C61	0.130700	0.683400	0.656500
C621	C62	0.138300	0.604700	0.653700
C631	C63	0.222900	0.484200	0.686700
C641	C64	0.357300	0.730800	0.774500
N11	N1	0.955400	0.102900	0.548100
N21	N2	0.455400	0.897100	0.451900
N31	N3	0.205400	0.951900	0.602900
N41	N4	0.705400	0.048100	0.397100
N51	N5	0.294600	0.397100	0.048100
N61	N6	0.794600	0.602900	0.951900
N71	N7	0.044600	0.548100	0.102900
N81	N8	0.544600	0.451900	0.897100
O11	O1	0.025500	0.126000	0.506000
O21	O2	0.965700	0.105100	0.616900
O31	O3	0.880200	0.076500	0.518200
O41	O4	0.208100	0.277300	0.547700
O51	O5	0.337400	0.353200	0.552100
O61	O6	0.087600	0.179300	0.301700
O71	O7	0.134300	0.239600	0.199000
O81	O8	0.525500	0.874000	0.494000
O91	O9	0.465700	0.894900	0.383100
O101	O10	0.380200	0.923500	0.481800
O111	O11	0.708100	0.722700	0.452300
O121	O12	0.837400	0.646800	0.447900
O131	O13	0.587600	0.820700	0.698300
O141	O14	0.634300	0.760400	0.801000
O151	O15	0.275500	0.994000	0.626000
O161	O16	0.215700	0.883100	0.605100
O171	O17	0.130200	0.981800	0.576500
O181	O18	0.458100	0.952300	0.777300
O191	O19	0.587400	0.947900	0.853200
O201	O20	0.337600	0.198300	0.679300
O211	O21	0.384300	0.301000	0.739600
O221	O22	0.775500	0.006000	0.374000
O231	O23	0.715700	0.116900	0.394900
O241	O24	0.630200	0.018200	0.423500
O251	O25	0.958100	0.047700	0.222700
O261	O26	0.087400	0.052100	0.146800
O271	O27	0.837600	0.801700	0.320700
O281	O28	0.884300	0.699000	0.260400
O291	O29	0.224500	0.374000	0.006000
O301	O30	0.284300	0.394900	0.116900
O311	O31	0.369800	0.423500	0.018200
O321	O32	0.041900	0.222700	0.047700
O331	O33	0.912600	0.146800	0.052100
O341	O34	0.162400	0.320700	0.801700
O351	O35	0.115700	0.260400	0.699000
O361	O36	0.724500	0.626000	0.994000
O371	O37	0.784300	0.605100	0.883100
O381	O38	0.869800	0.576500	0.981800
O391	O39	0.541900	0.777300	0.952300
O401	O40	0.412600	0.853200	0.947900
O411	O41	0.662400	0.679300	0.198300
O421	O42	0.615700	0.739600	0.301000
O431	O43	0.974500	0.506000	0.126000
O441	O44	0.034300	0.616900	0.105100
O451	O45	0.119800	0.518200	0.076500
O461	O46	0.791900	0.547700	0.277300
O471	O47	0.662600	0.552100	0.353200
O481	O48	0.912400	0.301700	0.179300
O491	O49	0.865700	0.199000	0.239600
O501	O50	0.474500	0.494000	0.874000
O511	O51	0.534300	0.383100	0.894900
O521	O52	0.619800	0.481800	0.923500
O531	O53	0.291900	0.452300	0.722700
O541	O54	0.162600	0.447900	0.646800
O551	O55	0.412400	0.698300	0.820700
O561	O56	0.365700	0.801000	0.760400
