data_FEZTIP_clean_PM
_symmetry_space_group_name_H-M	'P1'
_cell_length_a	10.070400
_cell_length_b	14.252100
_cell_length_c	17.564400
_cell_angle_alpha	90.000000
_cell_angle_beta	94.281000
_cell_angle_gamma	90.000000
_symmetry_Int_Tables_number 1

loop_
_symmetry_equiv_pos_as_xyz
'x,y,z'

loop_
_atom_site_label
_atom_site_type_symbol
_atom_site_fract_x
_atom_site_fract_y
_atom_site_fract_z
Ca11	Ca1	0.528370	0.105590	0.558310
Ca21	Ca2	0.408280	0.347020	0.530090
S11	S1	0.280040	0.251660	0.302080
S21	S2	0.186230	0.065990	0.749290
O11	O1	0.415700	0.204310	0.454730
O21	O2	0.426900	0.052090	0.435340
O31	O3	0.074700	0.232310	0.105020
O41	O4	0.056800	0.096070	0.951810
C11	C1	0.314800	0.143080	0.339750
O51	O5	0.096500	0.969370	0.884550
C21	C2	0.390500	0.133020	0.414100
O61	O6	0.326600	0.109320	0.610720
C31	C3	0.191400	0.203600	0.224680
C41	C4	0.132400	0.266700	0.164870
O71	O7	0.143000	0.353310	0.175650
C51	C5	0.216800	0.174100	0.711160
C61	C6	0.140700	0.210600	0.827700
H11	H1	0.118100	0.249500	0.867300
C71	C7	0.133800	0.115800	0.830390
C81	C8	0.185800	0.244200	0.758600
H21	H2	0.193400	0.307500	0.746900
C91	C9	0.258900	0.072900	0.294290
H31	H3	0.267400	0.009400	0.305700
O81	O8	0.273400	0.261550	0.605780
C101	C10	0.187500	0.108000	0.228550
H41	H4	0.142700	0.070300	0.191800
C111	C11	0.090700	0.055800	0.893550
C121	C12	0.276700	0.182500	0.636290
Ca31	Ca3	0.971630	0.605590	0.941690
Ca41	Ca4	0.091720	0.847020	0.969910
S31	S3	0.219960	0.751660	0.197920
S41	S4	0.313770	0.565990	0.750710
O91	O9	0.084300	0.704310	0.045270
O101	O10	0.073100	0.552090	0.064660
O111	O11	0.425300	0.732310	0.394980
O121	O12	0.443200	0.596070	0.548190
C131	C13	0.185200	0.643080	0.160250
O131	O13	0.403500	0.469370	0.615450
C141	C14	0.109500	0.633020	0.085900
O141	O14	0.173400	0.609320	0.889280
C151	C15	0.308600	0.703600	0.275320
C161	C16	0.367600	0.766700	0.335130
O151	O15	0.357000	0.853310	0.324350
C171	C17	0.283200	0.674100	0.788840
C181	C18	0.359300	0.710600	0.672300
H51	H5	0.381900	0.749500	0.632700
C191	C19	0.366200	0.615800	0.669610
C201	C20	0.314200	0.744200	0.741400
H61	H6	0.306600	0.807500	0.753100
C211	C21	0.241100	0.572900	0.205710
H71	H7	0.232600	0.509400	0.194300
O161	O16	0.226600	0.761550	0.894220
C221	C22	0.312500	0.608000	0.271450
H81	H8	0.357300	0.570300	0.308200
C231	C23	0.409300	0.555800	0.606450
C241	C24	0.223300	0.682500	0.863710
Ca51	Ca5	0.471630	0.894410	0.441690
Ca61	Ca6	0.591720	0.652980	0.469910
S51	S5	0.719960	0.748340	0.697920
S61	S6	0.813770	0.934010	0.250710
O171	O17	0.584300	0.795690	0.545270
O181	O18	0.573100	0.947910	0.564660
O191	O19	0.925300	0.767690	0.894980
O201	O20	0.943200	0.903930	0.048190
C251	C25	0.685200	0.856920	0.660250
O211	O21	0.903500	0.030630	0.115450
C261	C26	0.609500	0.866980	0.585900
O221	O22	0.673400	0.890680	0.389280
C271	C27	0.808600	0.796400	0.775320
C281	C28	0.867600	0.733300	0.835130
O231	O23	0.857000	0.646690	0.824350
C291	C29	0.783200	0.825900	0.288840
C301	C30	0.859300	0.789400	0.172300
H91	H9	0.881900	0.750500	0.132700
C311	C31	0.866200	0.884200	0.169610
C321	C32	0.814200	0.755800	0.241400
H101	H10	0.806600	0.692500	0.253100
C331	C33	0.741100	0.927100	0.705710
H111	H11	0.732600	0.990600	0.694300
O241	O24	0.726600	0.738450	0.394220
C341	C34	0.812500	0.892000	0.771450
H121	H12	0.857300	0.929700	0.808200
C351	C35	0.909300	0.944200	0.106450
C361	C36	0.723300	0.817500	0.363710
Ca71	Ca7	0.028370	0.394410	0.058310
Ca81	Ca8	0.908280	0.152980	0.030090
S71	S7	0.780040	0.248340	0.802080
S81	S8	0.686230	0.434010	0.249290
O251	O25	0.915700	0.295690	0.954730
O261	O26	0.926900	0.447910	0.935340
O271	O27	0.574700	0.267690	0.605020
O281	O28	0.556800	0.403930	0.451810
C371	C37	0.814800	0.356920	0.839750
O291	O29	0.596500	0.530630	0.384550
C381	C38	0.890500	0.366980	0.914100
O301	O30	0.826600	0.390680	0.110720
C391	C39	0.691400	0.296400	0.724680
C401	C40	0.632400	0.233300	0.664870
O311	O31	0.643000	0.146690	0.675650
C411	C41	0.716800	0.325900	0.211160
C421	C42	0.640700	0.289400	0.327700
H131	H13	0.618100	0.250500	0.367300
C431	C43	0.633800	0.384200	0.330390
C441	C44	0.685800	0.255800	0.258600
H141	H14	0.693400	0.192500	0.246900
C451	C45	0.758900	0.427100	0.794290
H151	H15	0.767400	0.490600	0.805700
O321	O32	0.773400	0.238450	0.105780
C461	C46	0.687500	0.392000	0.728550
H161	H16	0.642700	0.429700	0.691800
C471	C47	0.590700	0.444200	0.393550
C481	C48	0.776700	0.317500	0.136290
