data_FIBFUS_clean_PM
_symmetry_space_group_name_H-M	'P1'
_cell_length_a	13.987000
_cell_length_b	16.153000
_cell_length_c	17.299000
_cell_angle_alpha	70.010000
_cell_angle_beta	79.690000
_cell_angle_gamma	66.100000
_symmetry_Int_Tables_number 1

loop_
_symmetry_equiv_pos_as_xyz
'x,y,z'

loop_
_atom_site_label
_atom_site_type_symbol
_atom_site_fract_x
_atom_site_fract_y
_atom_site_fract_z
Ni11	Ni1	0.711990	0.672130	0.636990
C11	C1	0.882200	0.739400	0.648400
H11	H1	0.869400	0.723600	0.705200
C21	C2	0.873000	0.759100	0.524500
H21	H2	0.855000	0.760000	0.474900
C31	C3	0.941900	0.797800	0.532000
H31	H3	0.977500	0.828800	0.489200
C41	C4	0.005400	0.813700	0.648800
H41	H4	0.029500	0.860500	0.607900
H51	H5	0.065900	0.760300	0.674700
C51	C5	0.931200	0.857100	0.713400
C61	C6	0.860700	0.950300	0.690300
H61	H6	0.862000	0.987900	0.636000
C71	C7	0.788600	0.987500	0.747300
H71	H7	0.740400	0.049500	0.730500
C81	C8	0.787000	0.933200	0.830300
C91	C9	0.857700	0.841200	0.850900
H81	H8	0.855500	0.803100	0.904900
C101	C10	0.932100	0.802000	0.795900
H91	H9	0.981300	0.740600	0.813300
N11	N1	0.678000	0.068500	0.871700
N21	N2	0.598400	0.054200	0.003700
N31	N3	0.698000	0.917200	0.963900
C111	C11	0.577500	0.209000	0.910300
C121	C12	0.593900	0.263600	0.831200
H101	H10	0.633900	0.235000	0.791600
C131	C13	0.549300	0.362200	0.812400
H111	H11	0.559100	0.399200	0.759300
C141	C14	0.491000	0.406400	0.870300
C151	C15	0.478500	0.350800	0.946400
H121	H12	0.439600	0.379100	0.986500
C161	C16	0.521100	0.254500	0.966700
H131	H13	0.511500	0.218800	0.020400
C171	C17	0.440300	0.512200	0.849200
H141	H14	0.365400	0.530500	0.847700
H151	H15	0.452400	0.531800	0.892500
C181	C18	0.616300	0.902200	0.100200
C191	C19	0.552900	0.942500	0.156900
H161	H16	0.522600	0.008200	0.143900
C201	C20	0.532500	0.886700	0.234600
H171	H17	0.488200	0.916200	0.272300
C211	C21	0.644000	0.749200	0.197600
H181	H18	0.676700	0.683500	0.210900
C221	C22	0.663200	0.804900	0.120700
H191	H19	0.708100	0.776600	0.082500
C231	C23	0.796200	0.461600	0.652200
H201	H20	0.730100	0.468300	0.641500
C241	C24	0.922900	0.491700	0.670700
H211	H21	0.961900	0.524400	0.675400
C251	C25	0.961100	0.399000	0.674900
H221	H22	0.029800	0.356400	0.684100
C261	C26	0.887100	0.289800	0.658500
H231	H23	0.946100	0.268400	0.621500
H241	H24	0.824400	0.299500	0.634500
C271	C27	0.900100	0.212700	0.738900
C281	C28	0.856600	0.232500	0.811800
H251	H25	0.824900	0.295200	0.812600
C291	C29	0.860200	0.159100	0.884000
H261	H26	0.827500	0.173500	0.932100
C301	C30	0.910700	0.066100	0.885900
C311	C31	0.957100	0.045100	0.813800
H271	H27	0.991500	0.982400	0.813700
C321	C32	0.951400	0.119300	0.741400
H281	H28	0.983600	0.105000	0.693200
N41	N4	0.854300	0.010200	0.027600
N51	N5	0.899800	0.846900	0.094900
N61	N6	0.965700	0.899500	0.960900
C331	C33	0.009400	0.731800	0.028100
C341	C34	0.974000	0.659600	0.083600
H291	H29	0.917100	0.676500	0.119900
C351	C35	0.021200	0.567400	0.084600
H301	H30	0.993700	0.522900	0.118700
C361	C36	0.146400	0.605700	0.980000
H311	H31	0.204100	0.587500	0.944800
C371	C37	0.097000	0.701600	0.976700
H321	H32	0.122900	0.745800	0.939700
C381	C38	0.798700	0.957200	0.169900
C391	C39	0.761000	0.044200	0.175200
H331	H33	0.767000	0.093800	0.129800
C401	C40	0.790900	0.884300	0.238200
H341	H34	0.817100	0.822600	0.235100
C411	C41	0.218200	0.401000	0.182500
H351	H35	0.172800	0.458500	0.190600
C421	C42	0.331100	0.262700	0.202800
H361	H36	0.381200	0.203800	0.227200
C431	C43	0.296800	0.292900	0.124500
H371	H37	0.319100	0.258200	0.087100
C441	C44	0.163100	0.437000	0.037200
H381	H38	0.110300	0.412200	0.038000
H391	H39	0.208500	0.431500	0.988200
C451	C45	0.111500	0.539000	0.034000
C461	C46	0.618600	0.722100	0.469100
H401	H40	0.555800	0.765600	0.483400
C471	C47	0.772600	0.626400	0.469900
H411	H41	0.840900	0.588000	0.485300
C481	C48	0.732700	0.636700	0.399600
H421	H42	0.767500	0.607300	0.359300
C491	C49	0.557200	0.726000	0.339800
H431	H43	0.488500	0.758200	0.362000
H441	H44	0.556500	0.669400	0.332300
C501	C50	0.575600	0.790200	0.256700
C511	C51	0.562600	0.589100	0.756700
H451	H45	0.599000	0.584000	0.799200
C521	C52	0.518000	0.615700	0.641100
H461	H46	0.515900	0.633400	0.584100
C531	C53	0.449400	0.580700	0.695000
H471	H47	0.393800	0.570900	0.681900
C541	C54	0.500500	0.155500	0.386100
H481	H48	0.535900	0.194500	0.382800
C551	C55	0.377100	0.107600	0.391800
H491	H49	0.311000	0.106100	0.393400
C561	C56	0.467800	0.031100	0.398900
H501	H50	0.475200	0.969300	0.405100
C571	C57	0.657900	0.010300	0.398400
H511	H51	0.691300	0.045500	0.411900
H521	H52	0.670900	0.950600	0.442000
C581	C58	0.706800	0.990100	0.318200
C591	C59	0.711400	0.062900	0.249500
H531	H53	0.681700	0.125100	0.251700
C601	C60	0.744200	0.902500	0.311500
H541	H54	0.738800	0.852700	0.356800
N71	N7	0.836300	0.720200	0.599000
N81	N8	0.947100	0.782600	0.610000
N91	N9	0.817700	0.530000	0.658300
N101	N10	0.879600	0.380400	0.662900
N111	N11	0.280400	0.332600	0.238400
N121	N12	0.226100	0.380200	0.112100
N131	N13	0.700600	0.679100	0.514400
N141	N14	0.634100	0.697300	0.399900
N151	N15	0.395600	0.186800	0.382000
N161	N16	0.547700	0.063200	0.395100
N171	N17	0.587900	0.621500	0.679400
N181	N18	0.478500	0.563300	0.770100
C611	C61	0.714100	0.977400	0.891100
C621	C62	0.619000	0.105100	0.929400
C631	C63	0.637300	0.962300	0.018200
C641	C64	0.912200	0.986000	0.961500
C651	C65	0.854600	0.935300	0.093600
C661	C66	0.957100	0.830900	0.027700
Ni21	Ni2	0.288010	0.327870	0.363010
C671	C67	0.117800	0.260600	0.351600
H551	H55	0.130600	0.276400	0.294800
C681	C68	0.127000	0.240900	0.475500
H561	H56	0.145000	0.240000	0.525100
C691	C69	0.058100	0.202200	0.468000
H571	H57	0.022500	0.171200	0.510800
C701	C70	0.994600	0.186300	0.351200
H581	H58	0.970500	0.139500	0.392100
H591	H59	0.934100	0.239700	0.325300
C711	C71	0.068800	0.142900	0.286600
C721	C72	0.139300	0.049700	0.309700
H601	H60	0.138000	0.012100	0.364000
C731	C73	0.211400	0.012500	0.252700
H611	H61	0.259600	0.950500	0.269500
C741	C74	0.213000	0.066800	0.169700
C751	C75	0.142300	0.158800	0.149100
H621	H62	0.144500	0.196900	0.095100
C761	C76	0.067900	0.198000	0.204100
H631	H63	0.018700	0.259400	0.186700
N191	N19	0.322000	0.931500	0.128300
N201	N20	0.401600	0.945800	0.996300
N211	N21	0.302000	0.082800	0.036100
C771	C77	0.422500	0.791000	0.089700
C781	C78	0.406100	0.736400	0.168800
H641	H64	0.366100	0.765000	0.208400
C791	C79	0.450700	0.637800	0.187600
H651	H65	0.440900	0.600800	0.240700
C801	C80	0.509000	0.593600	0.129700
C811	C81	0.521500	0.649200	0.053600
H661	H66	0.560400	0.620900	0.013500
C821	C82	0.478900	0.745500	0.033300
H671	H67	0.488500	0.781200	0.979600
C831	C83	0.559700	0.487800	0.150800
H681	H68	0.634600	0.469500	0.152300
H691	H69	0.547600	0.468200	0.107500
C841	C84	0.383700	0.097800	0.899800
C851	C85	0.447100	0.057500	0.843100
H701	H70	0.477400	0.991800	0.856100
C861	C86	0.467500	0.113300	0.765400
H711	H71	0.511800	0.083800	0.727700
C871	C87	0.356000	0.250800	0.802400
H721	H72	0.323300	0.316500	0.789100
C881	C88	0.336800	0.195100	0.879300
H731	H73	0.291900	0.223400	0.917500
C891	C89	0.203800	0.538400	0.347800
H741	H74	0.269900	0.531700	0.358500
C901	C90	0.077100	0.508300	0.329300
H751	H75	0.038100	0.475600	0.324600
C911	C91	0.038900	0.601000	0.325100
H761	H76	0.970200	0.643600	0.315900
C921	C92	0.112900	0.710200	0.341500
H771	H77	0.053900	0.731600	0.378500
H781	H78	0.175600	0.700500	0.365500
C931	C93	0.099900	0.787300	0.261100
C941	C94	0.143400	0.767500	0.188200
H791	H79	0.175100	0.704800	0.187400
C951	C95	0.139800	0.840900	0.116000
H801	H80	0.172500	0.826500	0.067900
C961	C96	0.089300	0.933900	0.114100
C971	C97	0.042900	0.954900	0.186200
H811	H81	0.008500	0.017600	0.186300
C981	C98	0.048600	0.880700	0.258600
H821	H82	0.016400	0.895000	0.306800
N221	N22	0.145700	0.989800	0.972400
N231	N23	0.100200	0.153100	0.905100
N241	N24	0.034300	0.100500	0.039100
C991	C99	0.990600	0.268200	0.971900
C1001	C100	0.026000	0.340400	0.916400
H831	H83	0.082900	0.323500	0.880100
C1011	C101	0.978800	0.432600	0.915400
H841	H84	0.006300	0.477100	0.881300
C1021	C102	0.853600	0.394300	0.020000
H851	H85	0.795900	0.412500	0.055200
C1031	C103	0.903000	0.298400	0.023300
H861	H86	0.877100	0.254200	0.060300
C1041	C104	0.201300	0.042800	0.830100
C1051	C105	0.239000	0.955800	0.824800
H871	H87	0.233000	0.906200	0.870200
C1061	C106	0.209100	0.115700	0.761800
H881	H88	0.182900	0.177400	0.764900
C1071	C107	0.781800	0.599000	0.817500
H891	H89	0.827200	0.541500	0.809400
C1081	C108	0.668900	0.737300	0.797200
H901	H90	0.618800	0.796200	0.772800
C1091	C109	0.703200	0.707100	0.875500
H911	H91	0.680900	0.741800	0.912900
C1101	C110	0.836900	0.563000	0.962800
H921	H92	0.889700	0.587800	0.962000
H931	H93	0.791500	0.568500	0.011800
C1111	C111	0.888500	0.461000	0.966000
C1121	C112	0.381400	0.277900	0.530900
H941	H94	0.444200	0.234400	0.516600
C1131	C113	0.227400	0.373600	0.530100
H951	H95	0.159100	0.412000	0.514700
C1141	C114	0.267300	0.363300	0.600400
H961	H96	0.232500	0.392700	0.640700
C1151	C115	0.442800	0.274000	0.660200
H971	H97	0.511500	0.241800	0.638000
H981	H98	0.443500	0.330600	0.667700
C1161	C116	0.424400	0.209800	0.743300
C1171	C117	0.437400	0.410900	0.243300
H991	H99	0.401000	0.416000	0.200800
C1181	C118	0.482000	0.384300	0.358900
H1001	H100	0.484100	0.366600	0.415900
C1191	C119	0.550600	0.419300	0.305000
H1011	H101	0.606200	0.429100	0.318100
C1201	C120	0.499500	0.844500	0.613900
H1021	H102	0.464100	0.805500	0.617200
C1211	C121	0.622900	0.892400	0.608200
H1031	H103	0.689000	0.893900	0.606600
C1221	C122	0.532200	0.968900	0.601100
H1041	H104	0.524800	0.030700	0.594900
C1231	C123	0.342100	0.989700	0.601600
H1051	H105	0.308700	0.954500	0.588100
H1061	H106	0.329100	0.049400	0.558000
C1241	C124	0.293200	0.009900	0.681800
C1251	C125	0.288600	0.937100	0.750500
H1071	H107	0.318300	0.874900	0.748300
C1261	C126	0.255800	0.097500	0.688500
H1081	H108	0.261200	0.147300	0.643200
N251	N25	0.163700	0.279800	0.401000
N261	N26	0.052900	0.217400	0.390000
N271	N27	0.182300	0.470000	0.341700
N281	N28	0.120400	0.619600	0.337100
N291	N29	0.719600	0.667400	0.761600
N301	N30	0.773900	0.619800	0.887900
N311	N31	0.299400	0.320900	0.485600
N321	N32	0.365900	0.302700	0.600100
N331	N33	0.604400	0.813200	0.618000
N341	N34	0.452300	0.936800	0.604900
N351	N35	0.412100	0.378500	0.320600
N361	N36	0.521500	0.436700	0.229900
C1271	C127	0.285900	0.022600	0.108900
C1281	C128	0.381000	0.894900	0.070600
C1291	C129	0.362700	0.037700	0.981800
C1301	C130	0.087800	0.014000	0.038500
C1311	C131	0.145400	0.064700	0.906400
C1321	C132	0.042900	0.169100	0.972300
