data_FIBHIJ_clean_PM
_symmetry_space_group_name_H-M	'P1'
_cell_length_a	11.428700
_cell_length_b	11.703100
_cell_length_c	12.918000
_cell_angle_alpha	64.005000
_cell_angle_beta	89.783000
_cell_angle_gamma	71.129000
_symmetry_Int_Tables_number 1

loop_
_symmetry_equiv_pos_as_xyz
'x,y,z'

loop_
_atom_site_label
_atom_site_type_symbol
_atom_site_fract_x
_atom_site_fract_y
_atom_site_fract_z
Cu11	Cu1	0.624990	0.831580	0.919950
Cu21	Cu2	0.454410	0.131390	0.502000
Cu31	Cu3	0.684510	0.361930	0.203900
Cu41	Cu4	0.375010	0.168420	0.080050
Cu51	Cu5	0.545590	0.868610	0.498000
Cu61	Cu6	0.315490	0.638070	0.796100
H11	H1	0.090500	0.479200	0.067800
H21	H2	0.032700	0.567500	0.130800
H31	H3	0.171600	0.542000	0.108600
H41	H4	0.318500	0.373600	0.278000
H51	H5	0.597600	0.124800	0.787300
H61	H6	0.211100	0.061000	0.582700
H71	H7	0.078900	0.091700	0.520800
H81	H8	0.199500	0.995800	0.501800
H91	H9	0.907900	0.390400	0.236200
H101	H10	0.931000	0.253900	0.349600
H111	H11	0.138900	0.155300	0.192900
H121	H12	0.107600	0.061500	0.075500
H131	H13	0.909600	0.069100	0.029700
H141	H14	0.663600	0.142900	0.160200
H151	H15	0.638200	0.282600	0.049600
H161	H16	0.548700	0.368200	0.738800
H171	H17	0.577700	0.398500	0.840800
H181	H18	0.685900	0.350400	0.777600
H191	H19	0.740300	0.790100	0.151200
H201	H20	0.785500	0.871800	0.201000
H211	H21	0.647000	0.875900	0.202000
H221	H22	0.909500	0.520800	0.932200
H231	H23	0.967300	0.432500	0.869200
H241	H24	0.828400	0.458000	0.891400
H251	H25	0.681500	0.626400	0.722000
H261	H26	0.402400	0.875200	0.212700
H271	H27	0.788900	0.939000	0.417300
H281	H28	0.921100	0.908300	0.479200
H291	H29	0.800500	0.004200	0.498200
H301	H30	0.092100	0.609600	0.763800
H311	H31	0.069000	0.746100	0.650400
H321	H32	0.861100	0.844700	0.807100
H331	H33	0.892400	0.938500	0.924500
H341	H34	0.090400	0.930900	0.970300
H351	H35	0.336400	0.857100	0.839800
H361	H36	0.361800	0.717400	0.950400
H371	H37	0.451300	0.631800	0.261200
H381	H38	0.422300	0.601500	0.159200
H391	H39	0.314100	0.649600	0.222400
H401	H40	0.259700	0.209900	0.848800
H411	H41	0.214500	0.128200	0.799000
H421	H42	0.353000	0.124100	0.798000
C11	C1	0.107700	0.502800	0.127100
C21	C2	0.150800	0.379500	0.240700
C31	C3	0.092200	0.291100	0.310300
C41	C4	0.177300	0.196700	0.409400
C51	C5	0.165600	0.075200	0.513100
C61	C6	0.962800	0.295700	0.278100
C71	C7	0.955300	0.228000	0.206300
C81	C8	0.059000	0.161200	0.170800
C91	C9	0.040300	0.104100	0.102600
C101	C10	0.922200	0.109900	0.074200
C111	C11	0.823800	0.175400	0.111500
C121	C12	0.690900	0.187000	0.086600
C131	C13	0.609300	0.341300	0.804100
C141	C14	0.633600	0.196400	0.890100
C151	C15	0.669800	0.125600	0.009000
C161	C16	0.677600	0.991900	0.042200
C171	C17	0.716000	0.871800	0.159500
C181	C18	0.520700	0.010200	0.658500
C191	C19	0.590000	0.294100	0.316000
C201	C20	0.657100	0.652300	0.023600
C211	C21	0.892300	0.497200	0.872900
C221	C22	0.849200	0.620500	0.759300
C231	C23	0.907800	0.708900	0.689700
C241	C24	0.822700	0.803300	0.590600
C251	C25	0.834400	0.924800	0.486900
C261	C26	0.037200	0.704300	0.721900
C271	C27	0.044700	0.772000	0.793700
C281	C28	0.941000	0.838800	0.829200
C291	C29	0.959700	0.895900	0.897400
C301	C30	0.077800	0.890100	0.925800
C311	C31	0.176200	0.824600	0.888500
C321	C32	0.309100	0.813000	0.913400
C331	C33	0.390700	0.658700	0.195900
C341	C34	0.366400	0.803600	0.109900
C351	C35	0.330200	0.874400	0.991000
C361	C36	0.322400	0.008100	0.957800
C371	C37	0.284000	0.128200	0.840500
C381	C38	0.479300	0.989800	0.341500
C391	C39	0.410000	0.705900	0.684000
C401	C40	0.342900	0.347700	0.976400
N11	N1	0.284300	0.219300	0.405900
N21	N2	0.264200	0.334900	0.301300
N31	N3	0.840200	0.235000	0.175400
N41	N4	0.620800	0.105200	0.858200
N51	N5	0.648500	0.978700	0.949700
N61	N6	0.562800	0.940500	0.754500
N71	N7	0.535900	0.244900	0.386100
N81	N8	0.671900	0.539700	0.092600
N91	N9	0.715700	0.780700	0.594100
N101	N10	0.735800	0.665100	0.698700
N111	N11	0.159800	0.765000	0.824600
N121	N12	0.379200	0.894800	0.141800
N131	N13	0.351500	0.021300	0.050300
N141	N14	0.437200	0.059500	0.245500
N151	N15	0.464100	0.755100	0.613900
N161	N16	0.328100	0.460300	0.907400
