data_FIBKEI_clean_PM
_symmetry_space_group_name_H-M	'P1'
_cell_length_a	24.650000
_cell_length_b	33.494000
_cell_length_c	18.529000
_cell_angle_alpha	90.000000
_cell_angle_beta	90.000000
_cell_angle_gamma	90.000000
_symmetry_Int_Tables_number 1

loop_
_symmetry_equiv_pos_as_xyz
'x,y,z'

loop_
_atom_site_label
_atom_site_type_symbol
_atom_site_fract_x
_atom_site_fract_y
_atom_site_fract_z
O11	O1	0.057020	0.432730	0.324000
C11	C1	0.073930	0.399380	0.343800
O21	O2	0.054370	0.365730	0.323980
C21	C2	0.120970	0.396950	0.393990
Cu11	Cu1	0.210020	0.232730	0.463670
O31	O3	0.249360	0.316570	0.514960
C31	C3	0.148010	0.431500	0.415010
H11	H1	0.134800	0.456900	0.400300
O41	O4	0.182410	0.286920	0.454650
C41	C4	0.194610	0.428950	0.457790
O51	O5	0.323700	0.272230	0.441500
C51	C5	0.213310	0.391680	0.479180
H21	H2	0.245400	0.389700	0.507300
O61	O6	0.255860	0.243460	0.380520
C61	C6	0.185530	0.357510	0.459810
C71	C7	0.139630	0.360610	0.415900
H31	H3	0.121200	0.337100	0.401100
C81	C8	0.206890	0.316550	0.478830
C91	C9	0.223150	0.466060	0.479390
C101	C10	0.280100	0.467630	0.479370
H41	H4	0.299700	0.444700	0.464100
C111	C11	0.300060	0.261340	0.384540
C121	C12	0.327420	0.271590	0.314600
C131	C13	0.375200	0.293580	0.314710
H51	H5	0.391600	0.300800	0.359300
C141	C14	0.454930	0.362620	0.299010
H61	H6	0.422100	0.372400	0.319100
O71	O7	0.557020	0.932730	0.324000
C151	C15	0.573930	0.899380	0.343800
O81	O8	0.554370	0.865730	0.323980
C161	C16	0.620970	0.896950	0.393990
Cu21	Cu2	0.710020	0.732730	0.463670
O91	O9	0.749360	0.816570	0.514960
C171	C17	0.648010	0.931500	0.415010
H71	H7	0.634800	0.956900	0.400300
O101	O10	0.682410	0.786920	0.454650
C181	C18	0.694610	0.928950	0.457790
O111	O11	0.823700	0.772230	0.441500
C191	C19	0.713310	0.891680	0.479180
H81	H8	0.745400	0.889700	0.507300
O121	O12	0.755860	0.743460	0.380520
C201	C20	0.685530	0.857510	0.459810
C211	C21	0.639630	0.860610	0.415900
H91	H9	0.621200	0.837100	0.401100
C221	C22	0.706890	0.816550	0.478830
C231	C23	0.723150	0.966060	0.479390
C241	C24	0.780100	0.967630	0.479370
H101	H10	0.799700	0.944700	0.464100
C251	C25	0.800060	0.761340	0.384540
C261	C26	0.827420	0.771590	0.314600
C271	C27	0.875200	0.793580	0.314710
H111	H11	0.891600	0.800800	0.359300
C281	C28	0.954930	0.862620	0.299010
H121	H12	0.922100	0.872400	0.319100
O131	O13	0.942980	0.567270	0.824000
C291	C29	0.926070	0.600620	0.843800
O141	O14	0.945630	0.634270	0.823980
C301	C30	0.879030	0.603050	0.893990
Cu31	Cu3	0.789980	0.767270	0.963670
O151	O15	0.750640	0.683430	0.014960
C311	C31	0.851990	0.568500	0.915010
H131	H13	0.865200	0.543100	0.900300
O161	O16	0.817590	0.713080	0.954650
C321	C32	0.805390	0.571050	0.957790
O171	O17	0.676300	0.727770	0.941500
C331	C33	0.786690	0.608320	0.979180
H141	H14	0.754600	0.610300	0.007300
O181	O18	0.744140	0.756540	0.880520
C341	C34	0.814470	0.642490	0.959810
C351	C35	0.860370	0.639390	0.915900
H151	H15	0.878800	0.662900	0.901100
C361	C36	0.793110	0.683450	0.978830
C371	C37	0.776850	0.533940	0.979390
C381	C38	0.719900	0.532370	0.979370
H161	H16	0.700300	0.555300	0.964100
C391	C39	0.699940	0.738660	0.884540
C401	C40	0.672580	0.728410	0.814600
C411	C41	0.624800	0.706420	0.814710
H171	H17	0.608400	0.699200	0.859300
C421	C42	0.545070	0.637380	0.799010
H181	H18	0.577900	0.627600	0.819100
O191	O19	0.442980	0.067270	0.824000
C431	C43	0.426070	0.100620	0.843800
O201	O20	0.445630	0.134270	0.823980
C441	C44	0.379030	0.103050	0.893990
Cu41	Cu4	0.289980	0.267270	0.963670
O211	O21	0.250640	0.183430	0.014960
C451	C45	0.351990	0.068500	0.915010
H191	H19	0.365200	0.043100	0.900300
O221	O22	0.317590	0.213080	0.954650
C461	C46	0.305390	0.071050	0.957790
O231	O23	0.176300	0.227770	0.941500
C471	C47	0.286690	0.108320	0.979180
H201	H20	0.254600	0.110300	0.007300
O241	O24	0.244140	0.256540	0.880520
C481	C48	0.314470	0.142490	0.959810
C491	C49	0.360370	0.139390	0.915900
H211	H21	0.378800	0.162900	0.901100
C501	C50	0.293110	0.183450	0.978830
C511	C51	0.276850	0.033940	0.979390
C521	C52	0.219900	0.032370	0.979370
H221	H22	0.200300	0.055300	0.964100
C531	C53	0.199940	0.238660	0.884540
C541	C54	0.172580	0.228410	0.814600
C551	C55	0.124800	0.206420	0.814710
H231	H23	0.108400	0.199200	0.859300
C561	C56	0.045070	0.137380	0.799010
H241	H24	0.077900	0.127600	0.819100
O251	O25	0.942980	0.432730	0.176000
C571	C57	0.926070	0.399380	0.156200
O261	O26	0.945630	0.365730	0.176020
C581	C58	0.879030	0.396950	0.106010
Cu51	Cu5	0.789980	0.232730	0.036330
O271	O27	0.750640	0.316570	0.985040
C591	C59	0.851990	0.431500	0.084990
H251	H25	0.865200	0.456900	0.099700
O281	O28	0.817590	0.286920	0.045350
C601	C60	0.805390	0.428950	0.042210
O291	O29	0.676300	0.272230	0.058500
C611	C61	0.786690	0.391680	0.020820
H261	H26	0.754600	0.389700	0.992700
O301	O30	0.744140	0.243460	0.119480
C621	C62	0.814470	0.357510	0.040190
C631	C63	0.860370	0.360610	0.084100
H271	H27	0.878800	0.337100	0.098900
C641	C64	0.793110	0.316550	0.021170
C651	C65	0.776850	0.466060	0.020610
C661	C66	0.719900	0.467630	0.020630
H281	H28	0.700300	0.444700	0.035900
C671	C67	0.699940	0.261340	0.115460
C681	C68	0.672580	0.271590	0.185400
C691	C69	0.624800	0.293580	0.185290
H291	H29	0.608400	0.300800	0.140700
C701	C70	0.545070	0.362620	0.200990
H301	H30	0.577900	0.372400	0.180900
O311	O31	0.442980	0.932730	0.176000
C711	C71	0.426070	0.899380	0.156200
O321	O32	0.445630	0.865730	0.176020
C721	C72	0.379030	0.896950	0.106010
Cu61	Cu6	0.289980	0.732730	0.036330
O331	O33	0.250640	0.816570	0.985040
C731	C73	0.351990	0.931500	0.084990
H311	H31	0.365200	0.956900	0.099700
O341	O34	0.317590	0.786920	0.045350
C741	C74	0.305390	0.928950	0.042210
O351	O35	0.176300	0.772230	0.058500
C751	C75	0.286690	0.891680	0.020820
H321	H32	0.254600	0.889700	0.992700
O361	O36	0.244140	0.743460	0.119480
C761	C76	0.314470	0.857510	0.040190
C771	C77	0.360370	0.860610	0.084100
H331	H33	0.378800	0.837100	0.098900
C781	C78	0.293110	0.816550	0.021170
C791	C79	0.276850	0.966060	0.020610
C801	C80	0.219900	0.967630	0.020630
H341	H34	0.200300	0.944700	0.035900
C811	C81	0.199940	0.761340	0.115460
C821	C82	0.172580	0.771590	0.185400
C831	C83	0.124800	0.793580	0.185290
H351	H35	0.108400	0.800800	0.140700
C841	C84	0.045070	0.862620	0.200990
H361	H36	0.077900	0.872400	0.180900
O371	O37	0.057020	0.567270	0.676000
C851	C85	0.073930	0.600620	0.656200
O381	O38	0.054370	0.634270	0.676020
C861	C86	0.120970	0.603050	0.606010
Cu71	Cu7	0.210020	0.767270	0.536330
O391	O39	0.249360	0.683430	0.485040
C871	C87	0.148010	0.568500	0.584990
H371	H37	0.134800	0.543100	0.599700
O401	O40	0.182410	0.713080	0.545350
C881	C88	0.194610	0.571050	0.542210
O411	O41	0.323700	0.727770	0.558500
C891	C89	0.213310	0.608320	0.520820
H381	H38	0.245400	0.610300	0.492700
O421	O42	0.255860	0.756540	0.619480
C901	C90	0.185530	0.642490	0.540190
C911	C91	0.139630	0.639390	0.584100
H391	H39	0.121200	0.662900	0.598900
C921	C92	0.206890	0.683450	0.521170
C931	C93	0.223150	0.533940	0.520610
C941	C94	0.280100	0.532370	0.520630
H401	H40	0.299700	0.555300	0.535900
C951	C95	0.300060	0.738660	0.615460
C961	C96	0.327420	0.728410	0.685400
C971	C97	0.375200	0.706420	0.685290
H411	H41	0.391600	0.699200	0.640700
C981	C98	0.454930	0.637380	0.700990
H421	H42	0.422100	0.627600	0.680900
O431	O43	0.557020	0.067270	0.676000
C991	C99	0.573930	0.100620	0.656200
O441	O44	0.554370	0.134270	0.676020
C1001	C100	0.620970	0.103050	0.606010
Cu81	Cu8	0.710020	0.267270	0.536330
O451	O45	0.749360	0.183430	0.485040
C1011	C101	0.648010	0.068500	0.584990
H431	H43	0.634800	0.043100	0.599700
O461	O46	0.682410	0.213080	0.545350
C1021	C102	0.694610	0.071050	0.542210
O471	O47	0.823700	0.227770	0.558500
C1031	C103	0.713310	0.108320	0.520820
H441	H44	0.745400	0.110300	0.492700
O481	O48	0.755860	0.256540	0.619480
C1041	C104	0.685530	0.142490	0.540190
C1051	C105	0.639630	0.139390	0.584100
H451	H45	0.621200	0.162900	0.598900
C1061	C106	0.706890	0.183450	0.521170
C1071	C107	0.723150	0.033940	0.520610
C1081	C108	0.780100	0.032370	0.520630
H461	H46	0.799700	0.055300	0.535900
C1091	C109	0.800060	0.238660	0.615460
C1101	C110	0.827420	0.228410	0.685400
C1111	C111	0.875200	0.206420	0.685290
H471	H47	0.891600	0.199200	0.640700
C1121	C112	0.954930	0.137380	0.700990
H481	H48	0.922100	0.127600	0.680900
O491	O49	0.942980	0.567270	0.676000
C1131	C113	0.926070	0.600620	0.656200
O501	O50	0.945630	0.634270	0.676020
C1141	C114	0.879030	0.603050	0.606010
Cu91	Cu9	0.789980	0.767270	0.536330
O511	O51	0.750640	0.683430	0.485040
C1151	C115	0.851990	0.568500	0.584990
H491	H49	0.865200	0.543100	0.599700
O521	O52	0.817590	0.713080	0.545350
C1161	C116	0.805390	0.571050	0.542210
O531	O53	0.676300	0.727770	0.558500
C1171	C117	0.786690	0.608320	0.520820
H501	H50	0.754600	0.610300	0.492700
O541	O54	0.744140	0.756540	0.619480
C1181	C118	0.814470	0.642490	0.540190
C1191	C119	0.860370	0.639390	0.584100
H511	H51	0.878800	0.662900	0.598900
C1201	C120	0.793110	0.683450	0.521170
C1211	C121	0.776850	0.533940	0.520610
C1221	C122	0.719900	0.532370	0.520630
H521	H52	0.700300	0.555300	0.535900
C1231	C123	0.699940	0.738660	0.615460
C1241	C124	0.672580	0.728410	0.685400
C1251	C125	0.624800	0.706420	0.685290
H531	H53	0.608400	0.699200	0.640700
C1261	C126	0.545070	0.637380	0.700990
H541	H54	0.577900	0.627600	0.680900
O551	O55	0.442980	0.067270	0.676000
C1271	C127	0.426070	0.100620	0.656200
O561	O56	0.445630	0.134270	0.676020
C1281	C128	0.379030	0.103050	0.606010
Cu101	Cu10	0.289980	0.267270	0.536330
O571	O57	0.250640	0.183430	0.485040
C1291	C129	0.351990	0.068500	0.584990
H551	H55	0.365200	0.043100	0.599700
O581	O58	0.317590	0.213080	0.545350
C1301	C130	0.305390	0.071050	0.542210
O591	O59	0.176300	0.227770	0.558500
C1311	C131	0.286690	0.108320	0.520820
H561	H56	0.254600	0.110300	0.492700
O601	O60	0.244140	0.256540	0.619480
C1321	C132	0.314470	0.142490	0.540190
C1331	C133	0.360370	0.139390	0.584100
H571	H57	0.378800	0.162900	0.598900
C1341	C134	0.293110	0.183450	0.521170
C1351	C135	0.276850	0.033940	0.520610
C1361	C136	0.219900	0.032370	0.520630
H581	H58	0.200300	0.055300	0.535900
C1371	C137	0.199940	0.238660	0.615460
C1381	C138	0.172580	0.228410	0.685400
C1391	C139	0.124800	0.206420	0.685290
H591	H59	0.108400	0.199200	0.640700
C1401	C140	0.045070	0.137380	0.700990
H601	H60	0.077900	0.127600	0.680900
O611	O61	0.057020	0.432730	0.176000
C1411	C141	0.073930	0.399380	0.156200
O621	O62	0.054370	0.365730	0.176020
C1421	C142	0.120970	0.396950	0.106010
Cu111	Cu11	0.210020	0.232730	0.036330
O631	O63	0.249360	0.316570	0.985040
C1431	C143	0.148010	0.431500	0.084990
H611	H61	0.134800	0.456900	0.099700
O641	O64	0.182410	0.286920	0.045350
C1441	C144	0.194610	0.428950	0.042210
O651	O65	0.323700	0.272230	0.058500
C1451	C145	0.213310	0.391680	0.020820
H621	H62	0.245400	0.389700	0.992700
O661	O66	0.255860	0.243460	0.119480
C1461	C146	0.185530	0.357510	0.040190
C1471	C147	0.139630	0.360610	0.084100
H631	H63	0.121200	0.337100	0.098900
C1481	C148	0.206890	0.316550	0.021170
C1491	C149	0.223150	0.466060	0.020610
C1501	C150	0.280100	0.467630	0.020630
H641	H64	0.299700	0.444700	0.035900
C1511	C151	0.300060	0.261340	0.115460
C1521	C152	0.327420	0.271590	0.185400
C1531	C153	0.375200	0.293580	0.185290
H651	H65	0.391600	0.300800	0.140700
C1541	C154	0.454930	0.362620	0.200990
H661	H66	0.422100	0.372400	0.180900
O671	O67	0.557020	0.932730	0.176000
C1551	C155	0.573930	0.899380	0.156200
O681	O68	0.554370	0.865730	0.176020
C1561	C156	0.620970	0.896950	0.106010
Cu121	Cu12	0.710020	0.732730	0.036330
O691	O69	0.749360	0.816570	0.985040
C1571	C157	0.648010	0.931500	0.084990
H671	H67	0.634800	0.956900	0.099700
O701	O70	0.682410	0.786920	0.045350
C1581	C158	0.694610	0.928950	0.042210
O711	O71	0.823700	0.772230	0.058500
C1591	C159	0.713310	0.891680	0.020820
H681	H68	0.745400	0.889700	0.992700
O721	O72	0.755860	0.743460	0.119480
C1601	C160	0.685530	0.857510	0.040190
C1611	C161	0.639630	0.860610	0.084100
H691	H69	0.621200	0.837100	0.098900
C1621	C162	0.706890	0.816550	0.021170
C1631	C163	0.723150	0.966060	0.020610
C1641	C164	0.780100	0.967630	0.020630
H701	H70	0.799700	0.944700	0.035900
C1651	C165	0.800060	0.761340	0.115460
C1661	C166	0.827420	0.771590	0.185400
C1671	C167	0.875200	0.793580	0.185290
H711	H71	0.891600	0.800800	0.140700
C1681	C168	0.954930	0.862620	0.200990
H721	H72	0.922100	0.872400	0.180900
O731	O73	0.057020	0.567270	0.824000
C1691	C169	0.073930	0.600620	0.843800
O741	O74	0.054370	0.634270	0.823980
C1701	C170	0.120970	0.603050	0.893990
Cu131	Cu13	0.210020	0.767270	0.963670
O751	O75	0.249360	0.683430	0.014960
C1711	C171	0.148010	0.568500	0.915010
H731	H73	0.134800	0.543100	0.900300
O761	O76	0.182410	0.713080	0.954650
C1721	C172	0.194610	0.571050	0.957790
O771	O77	0.323700	0.727770	0.941500
C1731	C173	0.213310	0.608320	0.979180
H741	H74	0.245400	0.610300	0.007300
O781	O78	0.255860	0.756540	0.880520
C1741	C174	0.185530	0.642490	0.959810
C1751	C175	0.139630	0.639390	0.915900
H751	H75	0.121200	0.662900	0.901100
C1761	C176	0.206890	0.683450	0.978830
C1771	C177	0.223150	0.533940	0.979390
C1781	C178	0.280100	0.532370	0.979370
H761	H76	0.299700	0.555300	0.964100
C1791	C179	0.300060	0.738660	0.884540
C1801	C180	0.327420	0.728410	0.814600
C1811	C181	0.375200	0.706420	0.814710
H771	H77	0.391600	0.699200	0.859300
C1821	C182	0.454930	0.637380	0.799010
H781	H78	0.422100	0.627600	0.819100
O791	O79	0.557020	0.067270	0.824000
C1831	C183	0.573930	0.100620	0.843800
O801	O80	0.554370	0.134270	0.823980
C1841	C184	0.620970	0.103050	0.893990
Cu141	Cu14	0.710020	0.267270	0.963670
O811	O81	0.749360	0.183430	0.014960
C1851	C185	0.648010	0.068500	0.915010
H791	H79	0.634800	0.043100	0.900300
O821	O82	0.682410	0.213080	0.954650
C1861	C186	0.694610	0.071050	0.957790
O831	O83	0.823700	0.227770	0.941500
C1871	C187	0.713310	0.108320	0.979180
H801	H80	0.745400	0.110300	0.007300
O841	O84	0.755860	0.256540	0.880520
C1881	C188	0.685530	0.142490	0.959810
C1891	C189	0.639630	0.139390	0.915900
H811	H81	0.621200	0.162900	0.901100
C1901	C190	0.706890	0.183450	0.978830
C1911	C191	0.723150	0.033940	0.979390
C1921	C192	0.780100	0.032370	0.979370
H821	H82	0.799700	0.055300	0.964100
C1931	C193	0.800060	0.238660	0.884540
C1941	C194	0.827420	0.228410	0.814600
C1951	C195	0.875200	0.206420	0.814710
H831	H83	0.891600	0.199200	0.859300
C1961	C196	0.954930	0.137380	0.799010
H841	H84	0.922100	0.127600	0.819100
O851	O85	0.942980	0.432730	0.324000
C1971	C197	0.926070	0.399380	0.343800
O861	O86	0.945630	0.365730	0.323980
C1981	C198	0.879030	0.396950	0.393990
Cu151	Cu15	0.789980	0.232730	0.463670
O871	O87	0.750640	0.316570	0.514960
C1991	C199	0.851990	0.431500	0.415010
H851	H85	0.865200	0.456900	0.400300
O881	O88	0.817590	0.286920	0.454650
C2001	C200	0.805390	0.428950	0.457790
O891	O89	0.676300	0.272230	0.441500
C2011	C201	0.786690	0.391680	0.479180
H861	H86	0.754600	0.389700	0.507300
O901	O90	0.744140	0.243460	0.380520
C2021	C202	0.814470	0.357510	0.459810
C2031	C203	0.860370	0.360610	0.415900
H871	H87	0.878800	0.337100	0.401100
C2041	C204	0.793110	0.316550	0.478830
C2051	C205	0.776850	0.466060	0.479390
C2061	C206	0.719900	0.467630	0.479370
H881	H88	0.700300	0.444700	0.464100
C2071	C207	0.699940	0.261340	0.384540
C2081	C208	0.672580	0.271590	0.314600
C2091	C209	0.624800	0.293580	0.314710
H891	H89	0.608400	0.300800	0.359300
C2101	C210	0.545070	0.362620	0.299010
H901	H90	0.577900	0.372400	0.319100
O911	O91	0.442980	0.932730	0.324000
C2111	C211	0.426070	0.899380	0.343800
O921	O92	0.445630	0.865730	0.323980
C2121	C212	0.379030	0.896950	0.393990
Cu161	Cu16	0.289980	0.732730	0.463670
O931	O93	0.250640	0.816570	0.514960
C2131	C213	0.351990	0.931500	0.415010
H911	H91	0.365200	0.956900	0.400300
O941	O94	0.317590	0.786920	0.454650
C2141	C214	0.305390	0.928950	0.457790
O951	O95	0.176300	0.772230	0.441500
C2151	C215	0.286690	0.891680	0.479180
H921	H92	0.254600	0.889700	0.507300
O961	O96	0.244140	0.743460	0.380520
C2161	C216	0.314470	0.857510	0.459810
C2171	C217	0.360370	0.860610	0.415900
H931	H93	0.378800	0.837100	0.401100
C2181	C218	0.293110	0.816550	0.478830
C2191	C219	0.276850	0.966060	0.479390
C2201	C220	0.219900	0.967630	0.479370
H941	H94	0.200300	0.944700	0.464100
C2211	C221	0.199940	0.761340	0.384540
C2221	C222	0.172580	0.771590	0.314600
C2231	C223	0.124800	0.793580	0.314710
H951	H95	0.108400	0.800800	0.359300
C2241	C224	0.045070	0.862620	0.299010
H961	H96	0.077900	0.872400	0.319100
Cu171	Cu17	0.000000	0.439180	0.250000
Cu181	Cu18	0.000000	0.360210	0.250000
Cu191	Cu19	0.500000	0.939180	0.250000
Cu201	Cu20	0.500000	0.860210	0.250000
Cu211	Cu21	0.000000	0.560820	0.750000
Cu221	Cu22	0.000000	0.639790	0.750000
Cu231	Cu23	0.500000	0.060820	0.750000
Cu241	Cu24	0.500000	0.139790	0.750000
N11	N1	0.307900	0.500000	0.500000
C2251	C225	0.195270	0.500000	0.500000
H971	H97	0.156700	0.500000	0.500000
N21	N2	0.807900	0.000000	0.500000
C2261	C226	0.695270	0.000000	0.500000
H981	H98	0.656700	0.000000	0.500000
N31	N3	0.692100	0.500000	0.000000
C2271	C227	0.804730	0.500000	0.000000
H991	H99	0.843300	0.500000	0.000000
N41	N4	0.192100	0.000000	0.000000
C2281	C228	0.304730	0.000000	0.000000
H1001	H100	0.343300	0.000000	0.000000
N51	N5	0.692100	0.500000	0.500000
C2291	C229	0.804730	0.500000	0.500000
H1011	H101	0.843300	0.500000	0.500000
N61	N6	0.192100	0.000000	0.500000
C2301	C230	0.304730	0.000000	0.500000
H1021	H102	0.343300	0.000000	0.500000
N71	N7	0.307900	0.500000	0.000000
C2311	C231	0.195270	0.500000	0.000000
H1031	H103	0.156700	0.500000	0.000000
N81	N8	0.807900	0.000000	0.000000
C2321	C232	0.695270	0.000000	0.000000
H1041	H104	0.656700	0.000000	0.000000
C2331	C233	0.304330	0.260460	0.250000
H1051	H105	0.272100	0.244900	0.250000
C2341	C234	0.399360	0.305160	0.250000
C2351	C235	0.452110	0.327130	0.250000
C2361	C236	0.804330	0.760460	0.250000
H1061	H106	0.772100	0.744900	0.250000
C2371	C237	0.899360	0.805160	0.250000
C2381	C238	0.952110	0.827130	0.250000
C2391	C239	0.695670	0.739540	0.750000
H1071	H107	0.727900	0.755100	0.750000
C2401	C240	0.600640	0.694840	0.750000
C2411	C241	0.547890	0.672870	0.750000
C2421	C242	0.195670	0.239540	0.750000
H1081	H108	0.227900	0.255100	0.750000
C2431	C243	0.100640	0.194840	0.750000
C2441	C244	0.047890	0.172870	0.750000
C2451	C245	0.695670	0.260460	0.250000
H1091	H109	0.727900	0.244900	0.250000
C2461	C246	0.600640	0.305160	0.250000
C2471	C247	0.547890	0.327130	0.250000
C2481	C248	0.195670	0.760460	0.250000
H1101	H110	0.227900	0.744900	0.250000
C2491	C249	0.100640	0.805160	0.250000
C2501	C250	0.047890	0.827130	0.250000
C2511	C251	0.304330	0.739540	0.750000
H1111	H111	0.272100	0.755100	0.750000
C2521	C252	0.399360	0.694840	0.750000
C2531	C253	0.452110	0.672870	0.750000
C2541	C254	0.804330	0.239540	0.750000
H1121	H112	0.772100	0.255100	0.750000
C2551	C255	0.899360	0.194840	0.750000
C2561	C256	0.952110	0.172870	0.750000
C2571	C257	0.500000	0.310420	0.250000
H1131	H113	0.500000	0.282100	0.250000
C2581	C258	0.000000	0.810420	0.250000
H1141	H114	0.000000	0.782100	0.250000
C2591	C259	0.500000	0.689580	0.750000
H1151	H115	0.500000	0.717900	0.750000
C2601	C260	0.000000	0.189580	0.750000
H1161	H116	0.000000	0.217900	0.750000
N91	N9	0.500000	0.380850	0.315600
N101	N10	0.000000	0.880850	0.315600
N111	N11	0.500000	0.619150	0.815600
N121	N12	0.000000	0.119150	0.815600
N131	N13	0.500000	0.380850	0.184400
N141	N14	0.000000	0.880850	0.184400
N151	N15	0.500000	0.619150	0.684400
N161	N16	0.000000	0.119150	0.684400
