data_FIFGEI_clean_PM
_symmetry_space_group_name_H-M	'P1'
_cell_length_a	20.813100
_cell_length_b	20.813100
_cell_length_c	23.185000
_cell_angle_alpha	90.000000
_cell_angle_beta	90.000000
_cell_angle_gamma	120.000000
_symmetry_Int_Tables_number 1

loop_
_symmetry_equiv_pos_as_xyz
'x,y,z'

loop_
_atom_site_label
_atom_site_type_symbol
_atom_site_fract_x
_atom_site_fract_y
_atom_site_fract_z
O11	O1	0.799350	0.453600	0.684190
O21	O2	0.799480	0.345740	0.684150
C11	C1	0.948900	0.417700	0.548260
H11	H1	0.966100	0.387500	0.533600
C21	C2	0.948200	0.530600	0.548200
H21	H2	0.964800	0.577800	0.533400
C31	C3	0.898600	0.504800	0.593560
H31	H3	0.881400	0.534800	0.608600
C41	C4	0.899100	0.393400	0.593380
H41	H4	0.881800	0.346100	0.608300
C51	C5	0.972800	0.486200	0.525100
C61	C6	0.874960	0.437700	0.616350
C71	C7	0.818550	0.409400	0.665770
O31	O3	0.546400	0.345750	0.684190
O41	O4	0.654260	0.453740	0.684150
C81	C8	0.582300	0.531200	0.548260
H51	H5	0.612500	0.578600	0.533600
C91	C9	0.469400	0.417600	0.548200
H61	H6	0.422200	0.387000	0.533400
C101	C10	0.495200	0.393800	0.593560
H71	H7	0.465200	0.346600	0.608600
C111	C11	0.606600	0.505700	0.593380
H81	H8	0.653900	0.535700	0.608300
C121	C12	0.513800	0.486600	0.525100
C131	C13	0.562300	0.437260	0.616350
C141	C14	0.590600	0.409150	0.665770
O51	O5	0.654250	0.200650	0.684190
O61	O6	0.546260	0.200520	0.684150
C151	C15	0.468800	0.051100	0.548260
H91	H9	0.421400	0.033900	0.533600
C161	C16	0.582400	0.051800	0.548200
H101	H10	0.613000	0.035200	0.533400
C171	C17	0.606200	0.101400	0.593560
H111	H11	0.653400	0.118600	0.608600
C181	C18	0.494300	0.100900	0.593380
H121	H12	0.464300	0.118200	0.608300
C191	C19	0.513400	0.027200	0.525100
C201	C20	0.562740	0.125040	0.616350
C211	C21	0.590850	0.181450	0.665770
O71	O7	0.546400	0.200650	0.815810
O81	O8	0.654260	0.200520	0.815850
C221	C22	0.582300	0.051100	0.951740
H131	H13	0.612500	0.033900	0.966400
C231	C23	0.469400	0.051800	0.951800
H141	H14	0.422200	0.035200	0.966600
C241	C24	0.495200	0.101400	0.906440
H151	H15	0.465200	0.118600	0.891400
C251	C25	0.606600	0.100900	0.906620
H161	H16	0.653900	0.118200	0.891700
C261	C26	0.513800	0.027200	0.974900
C271	C27	0.562300	0.125040	0.883650
C281	C28	0.590600	0.181450	0.834230
O91	O9	0.654250	0.453600	0.815810
O101	O10	0.546260	0.345740	0.815850
C291	C29	0.468800	0.417700	0.951740
H171	H17	0.421400	0.387500	0.966400
C301	C30	0.582400	0.530600	0.951800
H181	H18	0.613000	0.577800	0.966600
C311	C31	0.606200	0.504800	0.906440
H191	H19	0.653400	0.534800	0.891400
C321	C32	0.494300	0.393400	0.906620
H201	H20	0.464300	0.346100	0.891700
C331	C33	0.513400	0.486200	0.974900
C341	C34	0.562740	0.437700	0.883650
C351	C35	0.590850	0.409400	0.834230
O111	O11	0.799350	0.345750	0.815810
O121	O12	0.799480	0.453740	0.815850
C361	C36	0.948900	0.531200	0.951740
H211	H21	0.966100	0.578600	0.966400
C371	C37	0.948200	0.417600	0.951800
H221	H22	0.964800	0.387000	0.966600
C381	C38	0.898600	0.393800	0.906440
H231	H23	0.881400	0.346600	0.891400
C391	C39	0.899100	0.505700	0.906620
H241	H24	0.881800	0.535700	0.891700
C401	C40	0.972800	0.486600	0.974900
C411	C41	0.874960	0.437260	0.883650
C421	C42	0.818550	0.409150	0.834230
O131	O13	0.200650	0.546400	0.315810
O141	O14	0.200520	0.654260	0.315850
C431	C43	0.051100	0.582300	0.451740
H251	H25	0.033900	0.612500	0.466400
C441	C44	0.051800	0.469400	0.451800
H261	H26	0.035200	0.422200	0.466600
C451	C45	0.101400	0.495200	0.406440
H271	H27	0.118600	0.465200	0.391400
C461	C46	0.100900	0.606600	0.406620
H281	H28	0.118200	0.653900	0.391700
C471	C47	0.027200	0.513800	0.474900
C481	C48	0.125040	0.562300	0.383650
C491	C49	0.181450	0.590600	0.334230
O151	O15	0.453600	0.654250	0.315810
O161	O16	0.345740	0.546260	0.315850
C501	C50	0.417700	0.468800	0.451740
H291	H29	0.387500	0.421400	0.466400
C511	C51	0.530600	0.582400	0.451800
H301	H30	0.577800	0.613000	0.466600
C521	C52	0.504800	0.606200	0.406440
H311	H31	0.534800	0.653400	0.391400
C531	C53	0.393400	0.494300	0.406620
H321	H32	0.346100	0.464300	0.391700
C541	C54	0.486200	0.513400	0.474900
C551	C55	0.437700	0.562740	0.383650
C561	C56	0.409400	0.590850	0.334230
O171	O17	0.345750	0.799350	0.315810
O181	O18	0.453740	0.799480	0.315850
C571	C57	0.531200	0.948900	0.451740
H331	H33	0.578600	0.966100	0.466400
C581	C58	0.417600	0.948200	0.451800
H341	H34	0.387000	0.964800	0.466600
C591	C59	0.393800	0.898600	0.406440
H351	H35	0.346600	0.881400	0.391400
C601	C60	0.505700	0.899100	0.406620
H361	H36	0.535700	0.881800	0.391700
C611	C61	0.486600	0.972800	0.474900
C621	C62	0.437260	0.874960	0.383650
C631	C63	0.409150	0.818550	0.334230
O191	O19	0.453600	0.799350	0.184190
O201	O20	0.345740	0.799480	0.184150
C641	C64	0.417700	0.948900	0.048260
H371	H37	0.387500	0.966100	0.033600
C651	C65	0.530600	0.948200	0.048200
H381	H38	0.577800	0.964800	0.033400
C661	C66	0.504800	0.898600	0.093560
H391	H39	0.534800	0.881400	0.108600
C671	C67	0.393400	0.899100	0.093380
H401	H40	0.346100	0.881800	0.108300
C681	C68	0.486200	0.972800	0.025100
C691	C69	0.437700	0.874960	0.116350
C701	C70	0.409400	0.818550	0.165770
O211	O21	0.345750	0.546400	0.184190
O221	O22	0.453740	0.654260	0.184150
C711	C71	0.531200	0.582300	0.048260
H411	H41	0.578600	0.612500	0.033600
C721	C72	0.417600	0.469400	0.048200
H421	H42	0.387000	0.422200	0.033400
C731	C73	0.393800	0.495200	0.093560
H431	H43	0.346600	0.465200	0.108600
C741	C74	0.505700	0.606600	0.093380
H441	H44	0.535700	0.653900	0.108300
C751	C75	0.486600	0.513800	0.025100
C761	C76	0.437260	0.562300	0.116350
C771	C77	0.409150	0.590600	0.165770
O231	O23	0.200650	0.654250	0.184190
O241	O24	0.200520	0.546260	0.184150
C781	C78	0.051100	0.468800	0.048260
H451	H45	0.033900	0.421400	0.033600
C791	C79	0.051800	0.582400	0.048200
H461	H46	0.035200	0.613000	0.033400
C801	C80	0.101400	0.606200	0.093560
H471	H47	0.118600	0.653400	0.108600
C811	C81	0.100900	0.494300	0.093380
H481	H48	0.118200	0.464300	0.108300
C821	C82	0.027200	0.513400	0.025100
C831	C83	0.125040	0.562740	0.116350
C841	C84	0.181450	0.590850	0.165770
In11	In1	0.723080	0.276920	0.750000
In21	In2	0.723080	0.446150	0.750000
In31	In3	0.553850	0.276920	0.750000
In41	In4	0.276920	0.723080	0.250000
In51	In5	0.276920	0.553850	0.250000
In61	In6	0.446150	0.723080	0.250000
O251	O25	0.666670	0.333330	0.750000
O261	O26	0.333330	0.666670	0.250000
