data_FIFGAE_clean_PM
_symmetry_space_group_name_H-M	'P1'
_cell_length_a	18.199700
_cell_length_b	18.199700
_cell_length_c	20.020400
_cell_angle_alpha	90.000000
_cell_angle_beta	90.000000
_cell_angle_gamma	120.000000
_symmetry_Int_Tables_number 1

loop_
_symmetry_equiv_pos_as_xyz
'x,y,z'

loop_
_atom_site_label
_atom_site_type_symbol
_atom_site_fract_x
_atom_site_fract_y
_atom_site_fract_z
O11	O1	0.072600	0.111900	0.195300
O21	O2	0.313800	0.320500	0.072600
O31	O3	0.419000	0.430600	0.119400
O41	O4	0.548400	0.449000	0.006070
O51	O5	0.457100	0.314000	0.007000
C11	C1	0.310400	0.328600	0.189100
C21	C2	0.352000	0.363600	0.124500
C31	C3	0.232000	0.258000	0.191300
H11	H1	0.205400	0.233700	0.151100
C41	C4	0.581500	0.267800	0.010700
C51	C5	0.603600	0.354200	0.011600
C61	C6	0.531100	0.374000	0.008000
O61	O6	0.888100	0.960700	0.195300
O71	O7	0.679500	0.993300	0.072600
O81	O8	0.569400	0.988400	0.119400
O91	O9	0.551000	0.099400	0.006070
O101	O10	0.686000	0.143100	0.007000
C71	C7	0.671400	0.981800	0.189100
C81	C8	0.636400	0.988400	0.124500
C91	C9	0.742000	0.974000	0.191300
H21	H2	0.766300	0.971700	0.151100
C101	C10	0.732200	0.313700	0.010700
C111	C11	0.645800	0.249400	0.011600
C121	C12	0.626000	0.157100	0.008000
O111	O11	0.039300	0.927400	0.195300
O121	O12	0.006700	0.686200	0.072600
O131	O13	0.011600	0.581000	0.119400
O141	O14	0.900600	0.451600	0.006070
O151	O15	0.856900	0.542900	0.007000
C131	C13	0.018200	0.689600	0.189100
C141	C14	0.011600	0.648000	0.124500
C151	C15	0.026000	0.768000	0.191300
H31	H3	0.028300	0.794600	0.151100
C161	C16	0.686300	0.418500	0.010700
C171	C17	0.750600	0.396400	0.011600
C181	C18	0.842900	0.468900	0.008000
O161	O16	0.072600	0.111900	0.304700
O171	O17	0.313800	0.320500	0.427400
O181	O18	0.419000	0.430600	0.380600
O191	O19	0.548400	0.449000	0.493930
O201	O20	0.457100	0.314000	0.493000
C191	C19	0.310400	0.328600	0.310900
C201	C20	0.352000	0.363600	0.375500
C211	C21	0.232000	0.258000	0.308700
H41	H4	0.205400	0.233700	0.348900
C221	C22	0.581500	0.267800	0.489300
C231	C23	0.603600	0.354200	0.488400
C241	C24	0.531100	0.374000	0.492000
O211	O21	0.888100	0.960700	0.304700
O221	O22	0.679500	0.993300	0.427400
O231	O23	0.569400	0.988400	0.380600
O241	O24	0.551000	0.099400	0.493930
O251	O25	0.686000	0.143100	0.493000
C251	C25	0.671400	0.981800	0.310900
C261	C26	0.636400	0.988400	0.375500
C271	C27	0.742000	0.974000	0.308700
H51	H5	0.766300	0.971700	0.348900
C281	C28	0.732200	0.313700	0.489300
C291	C29	0.645800	0.249400	0.488400
C301	C30	0.626000	0.157100	0.492000
O261	O26	0.039300	0.927400	0.304700
O271	O27	0.006700	0.686200	0.427400
O281	O28	0.011600	0.581000	0.380600
O291	O29	0.900600	0.451600	0.493930
O301	O30	0.856900	0.542900	0.493000
C311	C31	0.018200	0.689600	0.310900
C321	C32	0.011600	0.648000	0.375500
C331	C33	0.026000	0.768000	0.308700
H61	H6	0.028300	0.794600	0.348900
C341	C34	0.686300	0.418500	0.489300
C351	C35	0.750600	0.396400	0.488400
C361	C36	0.842900	0.468900	0.492000
O311	O31	0.111900	0.072600	0.804700
O321	O32	0.320500	0.313800	0.927400
O331	O33	0.430600	0.419000	0.880600
O341	O34	0.449000	0.548400	0.993930
O351	O35	0.314000	0.457100	0.993000
C371	C37	0.328600	0.310400	0.810900
C381	C38	0.363600	0.352000	0.875500
C391	C39	0.258000	0.232000	0.808700
H71	H7	0.233700	0.205400	0.848900
C401	C40	0.267800	0.581500	0.989300
C411	C41	0.354200	0.603600	0.988400
C421	C42	0.374000	0.531100	0.992000
O361	O36	0.960700	0.888100	0.804700
O371	O37	0.993300	0.679500	0.927400
O381	O38	0.988400	0.569400	0.880600
O391	O39	0.099400	0.551000	0.993930
O401	O40	0.143100	0.686000	0.993000
C431	C43	0.981800	0.671400	0.810900
C441	C44	0.988400	0.636400	0.875500
C451	C45	0.974000	0.742000	0.808700
H81	H8	0.971700	0.766300	0.848900
C461	C46	0.313700	0.732200	0.989300
C471	C47	0.249400	0.645800	0.988400
C481	C48	0.157100	0.626000	0.992000
O411	O41	0.927400	0.039300	0.804700
O421	O42	0.686200	0.006700	0.927400
O431	O43	0.581000	0.011600	0.880600
O441	O44	0.451600	0.900600	0.993930
O451	O45	0.542900	0.856900	0.993000
C491	C49	0.689600	0.018200	0.810900
C501	C50	0.648000	0.011600	0.875500
C511	C51	0.768000	0.026000	0.808700
H91	H9	0.794600	0.028300	0.848900
C521	C52	0.418500	0.686300	0.989300
C531	C53	0.396400	0.750600	0.988400
C541	C54	0.468900	0.842900	0.992000
O461	O46	0.111900	0.072600	0.695300
O471	O47	0.320500	0.313800	0.572600
O481	O48	0.430600	0.419000	0.619400
O491	O49	0.449000	0.548400	0.506070
O501	O50	0.314000	0.457100	0.507000
C551	C55	0.328600	0.310400	0.689100
C561	C56	0.363600	0.352000	0.624500
C571	C57	0.258000	0.232000	0.691300
H101	H10	0.233700	0.205400	0.651100
C581	C58	0.267800	0.581500	0.510700
C591	C59	0.354200	0.603600	0.511600
C601	C60	0.374000	0.531100	0.508000
O511	O51	0.960700	0.888100	0.695300
O521	O52	0.993300	0.679500	0.572600
O531	O53	0.988400	0.569400	0.619400
O541	O54	0.099400	0.551000	0.506070
O551	O55	0.143100	0.686000	0.507000
C611	C61	0.981800	0.671400	0.689100
C621	C62	0.988400	0.636400	0.624500
C631	C63	0.974000	0.742000	0.691300
H111	H11	0.971700	0.766300	0.651100
C641	C64	0.313700	0.732200	0.510700
C651	C65	0.249400	0.645800	0.511600
C661	C66	0.157100	0.626000	0.508000
O561	O56	0.927400	0.039300	0.695300
O571	O57	0.686200	0.006700	0.572600
O581	O58	0.581000	0.011600	0.619400
O591	O59	0.451600	0.900600	0.506070
O601	O60	0.542900	0.856900	0.507000
C671	C67	0.689600	0.018200	0.689100
C681	C68	0.648000	0.011600	0.624500
C691	C69	0.768000	0.026000	0.691300
H121	H12	0.794600	0.028300	0.651100
C701	C70	0.418500	0.686300	0.510700
C711	C71	0.396400	0.750600	0.511600
C721	C72	0.468900	0.842900	0.508000
In11	In1	0.408910	0.408910	0.000000
In21	In2	0.591090	0.000000	0.000000
In31	In3	0.000000	0.591090	0.000000
In41	In4	0.408910	0.408910	0.500000
In51	In5	0.591090	0.000000	0.500000
In61	In6	0.000000	0.591090	0.500000
Co11	Co1	0.000000	0.000000	0.147040
Co21	Co2	0.000000	0.000000	0.352960
Co31	Co3	0.000000	0.000000	0.852960
Co41	Co4	0.000000	0.000000	0.647040
C731	C73	0.103100	0.140600	0.250000
C741	C74	0.189800	0.220400	0.250000
C751	C75	0.350400	0.363500	0.250000
H131	H13	0.404500	0.410800	0.250000
C761	C76	0.859400	0.962500	0.250000
C771	C77	0.779600	0.969400	0.250000
C781	C78	0.636500	0.986900	0.250000
H141	H14	0.589200	0.993700	0.250000
C791	C79	0.037500	0.896900	0.250000
C801	C80	0.030600	0.810200	0.250000
C811	C81	0.013100	0.649600	0.250000
H151	H15	0.006300	0.595500	0.250000
C821	C82	0.140600	0.103100	0.750000
C831	C83	0.220400	0.189800	0.750000
C841	C84	0.363500	0.350400	0.750000
H161	H16	0.410800	0.404500	0.750000
C851	C85	0.962500	0.859400	0.750000
C861	C86	0.969400	0.779600	0.750000
C871	C87	0.986900	0.636500	0.750000
H171	H17	0.993700	0.589200	0.750000
C881	C88	0.896900	0.037500	0.750000
C891	C89	0.810200	0.030600	0.750000
C901	C90	0.649600	0.013100	0.750000
H181	H18	0.595500	0.006300	0.750000
