data_FIFGIM_clean_PM
_symmetry_space_group_name_H-M	'P1'
_cell_length_a	18.784300
_cell_length_b	18.784300
_cell_length_c	25.026700
_cell_angle_alpha	90.000000
_cell_angle_beta	90.000000
_cell_angle_gamma	120.000000
_symmetry_Int_Tables_number 1

loop_
_symmetry_equiv_pos_as_xyz
'x,y,z'

loop_
_atom_site_label
_atom_site_type_symbol
_atom_site_fract_x
_atom_site_fract_y
_atom_site_fract_z
O11	O1	0.533790	0.187430	0.688270
O21	O2	0.653600	0.187570	0.688290
O31	O3	0.942500	0.057000	0.701200
C11	C1	0.463400	0.048400	0.548800
H11	H1	0.412600	0.032800	0.533500
C21	C2	0.586100	0.048700	0.549100
H21	H2	0.621700	0.033300	0.533900
C31	C3	0.485600	0.093900	0.595200
H31	H3	0.450200	0.109500	0.610100
C41	C4	0.608100	0.093700	0.595300
H41	H4	0.659000	0.109100	0.610500
C51	C5	0.816500	0.183400	0.707500
H51	H5	0.803000	0.198700	0.675500
C61	C6	0.558100	0.116300	0.619400
C71	C7	0.513300	0.026200	0.525300
C81	C8	0.584100	0.168000	0.669880
C91	C9	0.859500	0.137600	0.704200
H61	H6	0.872200	0.121400	0.672200
O41	O4	0.812570	0.346360	0.688270
O51	O5	0.812430	0.466030	0.688290
O61	O6	0.943000	0.885500	0.701200
C101	C10	0.951600	0.415000	0.548800
H71	H7	0.967200	0.379800	0.533500
C111	C11	0.951300	0.537400	0.549100
H81	H8	0.966700	0.588400	0.533900
C121	C12	0.906100	0.391700	0.595200
H91	H9	0.890500	0.340700	0.610100
C131	C13	0.906300	0.514400	0.595300
H101	H10	0.890900	0.549900	0.610500
C141	C14	0.816600	0.633100	0.707500
H111	H11	0.801300	0.604300	0.675500
C151	C15	0.883700	0.441800	0.619400
C161	C16	0.973800	0.487100	0.525300
C171	C17	0.832000	0.416100	0.669880
C181	C18	0.862400	0.721900	0.704200
H121	H12	0.878600	0.750800	0.672200
O71	O7	0.653640	0.466210	0.688270
O81	O8	0.533970	0.346400	0.688290
O91	O9	0.114500	0.057500	0.701200
C191	C19	0.585000	0.536600	0.548800
H131	H13	0.620200	0.587400	0.533500
C201	C20	0.462600	0.413900	0.549100
H141	H14	0.411600	0.378300	0.533900
C211	C21	0.608300	0.514400	0.595200
H151	H15	0.659300	0.549800	0.610100
C221	C22	0.485600	0.391900	0.595300
H161	H16	0.450100	0.341000	0.610500
C231	C23	0.366900	0.183500	0.707500
H171	H17	0.395700	0.197000	0.675500
C241	C24	0.558200	0.441900	0.619400
C251	C25	0.512900	0.486700	0.525300
C261	C26	0.583900	0.415900	0.669880
C271	C27	0.278100	0.140500	0.704200
H181	H18	0.249200	0.127800	0.672200
O101	O10	0.812570	0.466210	0.811730
O111	O11	0.812430	0.346400	0.811710
O121	O12	0.943000	0.057500	0.798800
C281	C28	0.951600	0.536600	0.951200
H191	H19	0.967200	0.587400	0.966500
C291	C29	0.951300	0.413900	0.950900
H201	H20	0.966700	0.378300	0.966100
C301	C30	0.906100	0.514400	0.904800
H211	H21	0.890500	0.549800	0.889900
C311	C31	0.906300	0.391900	0.904700
H221	H22	0.890900	0.341000	0.889500
C321	C32	0.816600	0.183500	0.792500
H231	H23	0.801300	0.197000	0.824500
C331	C33	0.883700	0.441900	0.880600
C341	C34	0.973800	0.486700	0.974700
C351	C35	0.832000	0.415900	0.830120
C361	C36	0.862400	0.140500	0.795800
H241	H24	0.878600	0.127800	0.827800
O131	O13	0.653640	0.187430	0.811730
O141	O14	0.533970	0.187570	0.811710
O151	O15	0.114500	0.057000	0.798800
C371	C37	0.585000	0.048400	0.951200
H251	H25	0.620200	0.032800	0.966500
C381	C38	0.462600	0.048700	0.950900
H261	H26	0.411600	0.033300	0.966100
C391	C39	0.608300	0.093900	0.904800
H271	H27	0.659300	0.109500	0.889900
C401	C40	0.485600	0.093700	0.904700
H281	H28	0.450100	0.109100	0.889500
C411	C41	0.366900	0.183400	0.792500
H291	H29	0.395700	0.198700	0.824500
C421	C42	0.558200	0.116300	0.880600
C431	C43	0.512900	0.026200	0.974700
C441	C44	0.583900	0.168000	0.830120
C451	C45	0.278100	0.137600	0.795800
H301	H30	0.249200	0.121400	0.827800
O161	O16	0.533790	0.346360	0.811730
O171	O17	0.653600	0.466030	0.811710
O181	O18	0.942500	0.885500	0.798800
C461	C46	0.463400	0.415000	0.951200
H311	H31	0.412600	0.379800	0.966500
C471	C47	0.586100	0.537400	0.950900
H321	H32	0.621700	0.588400	0.966100
C481	C48	0.485600	0.391700	0.904800
H331	H33	0.450200	0.340700	0.889900
C491	C49	0.608100	0.514400	0.904700
H341	H34	0.659000	0.549900	0.889500
C501	C50	0.816500	0.633100	0.792500
H351	H35	0.803000	0.604300	0.824500
C511	C51	0.558100	0.441800	0.880600
C521	C52	0.513300	0.487100	0.974700
C531	C53	0.584100	0.416100	0.830120
C541	C54	0.859500	0.721900	0.795800
H361	H36	0.872200	0.750800	0.827800
O191	O19	0.466210	0.812570	0.311730
O201	O20	0.346400	0.812430	0.311710
O211	O21	0.057500	0.943000	0.298800
C551	C55	0.536600	0.951600	0.451200
H371	H37	0.587400	0.967200	0.466500
C561	C56	0.413900	0.951300	0.450900
H381	H38	0.378300	0.966700	0.466100
C571	C57	0.514400	0.906100	0.404800
H391	H39	0.549800	0.890500	0.389900
C581	C58	0.391900	0.906300	0.404700
H401	H40	0.341000	0.890900	0.389500
C591	C59	0.183500	0.816600	0.292500
H411	H41	0.197000	0.801300	0.324500
C601	C60	0.441900	0.883700	0.380600
C611	C61	0.486700	0.973800	0.474700
C621	C62	0.415900	0.832000	0.330120
C631	C63	0.140500	0.862400	0.295800
H421	H42	0.127800	0.878600	0.327800
O221	O22	0.187430	0.653640	0.311730
O231	O23	0.187570	0.533970	0.311710
O241	O24	0.057000	0.114500	0.298800
C641	C64	0.048400	0.585000	0.451200
H431	H43	0.032800	0.620200	0.466500
C651	C65	0.048700	0.462600	0.450900
H441	H44	0.033300	0.411600	0.466100
C661	C66	0.093900	0.608300	0.404800
H451	H45	0.109500	0.659300	0.389900
C671	C67	0.093700	0.485600	0.404700
H461	H46	0.109100	0.450100	0.389500
C681	C68	0.183400	0.366900	0.292500
H471	H47	0.198700	0.395700	0.324500
C691	C69	0.116300	0.558200	0.380600
C701	C70	0.026200	0.512900	0.474700
C711	C71	0.168000	0.583900	0.330120
C721	C72	0.137600	0.278100	0.295800
H481	H48	0.121400	0.249200	0.327800
O251	O25	0.346360	0.533790	0.311730
O261	O26	0.466030	0.653600	0.311710
O271	O27	0.885500	0.942500	0.298800
C731	C73	0.415000	0.463400	0.451200
H491	H49	0.379800	0.412600	0.466500
C741	C74	0.537400	0.586100	0.450900
H501	H50	0.588400	0.621700	0.466100
C751	C75	0.391700	0.485600	0.404800
H511	H51	0.340700	0.450200	0.389900
C761	C76	0.514400	0.608100	0.404700
H521	H52	0.549900	0.659000	0.389500
C771	C77	0.633100	0.816500	0.292500
H531	H53	0.604300	0.803000	0.324500
C781	C78	0.441800	0.558100	0.380600
C791	C79	0.487100	0.513300	0.474700
C801	C80	0.416100	0.584100	0.330120
C811	C81	0.721900	0.859500	0.295800
H541	H54	0.750800	0.872200	0.327800
O281	O28	0.187430	0.533790	0.188270
O291	O29	0.187570	0.653600	0.188290
O301	O30	0.057000	0.942500	0.201200
C821	C82	0.048400	0.463400	0.048800
H551	H55	0.032800	0.412600	0.033500
C831	C83	0.048700	0.586100	0.049100
H561	H56	0.033300	0.621700	0.033900
C841	C84	0.093900	0.485600	0.095200
H571	H57	0.109500	0.450200	0.110100
C851	C85	0.093700	0.608100	0.095300
H581	H58	0.109100	0.659000	0.110500
C861	C86	0.183400	0.816500	0.207500
H591	H59	0.198700	0.803000	0.175500
C871	C87	0.116300	0.558100	0.119400
C881	C88	0.026200	0.513300	0.025300
C891	C89	0.168000	0.584100	0.169880
C901	C90	0.137600	0.859500	0.204200
H601	H60	0.121400	0.872200	0.172200
O311	O31	0.346360	0.812570	0.188270
O321	O32	0.466030	0.812430	0.188290
O331	O33	0.885500	0.943000	0.201200
C911	C91	0.415000	0.951600	0.048800
H611	H61	0.379800	0.967200	0.033500
C921	C92	0.537400	0.951300	0.049100
H621	H62	0.588400	0.966700	0.033900
C931	C93	0.391700	0.906100	0.095200
H631	H63	0.340700	0.890500	0.110100
C941	C94	0.514400	0.906300	0.095300
H641	H64	0.549900	0.890900	0.110500
C951	C95	0.633100	0.816600	0.207500
H651	H65	0.604300	0.801300	0.175500
C961	C96	0.441800	0.883700	0.119400
C971	C97	0.487100	0.973800	0.025300
C981	C98	0.416100	0.832000	0.169880
C991	C99	0.721900	0.862400	0.204200
H661	H66	0.750800	0.878600	0.172200
O341	O34	0.466210	0.653640	0.188270
O351	O35	0.346400	0.533970	0.188290
O361	O36	0.057500	0.114500	0.201200
C1001	C100	0.536600	0.585000	0.048800
H671	H67	0.587400	0.620200	0.033500
C1011	C101	0.413900	0.462600	0.049100
H681	H68	0.378300	0.411600	0.033900
C1021	C102	0.514400	0.608300	0.095200
H691	H69	0.549800	0.659300	0.110100
C1031	C103	0.391900	0.485600	0.095300
H701	H70	0.341000	0.450100	0.110500
C1041	C104	0.183500	0.366900	0.207500
H711	H71	0.197000	0.395700	0.175500
C1051	C105	0.441900	0.558200	0.119400
C1061	C106	0.486700	0.512900	0.025300
C1071	C107	0.415900	0.583900	0.169880
C1081	C108	0.140500	0.278100	0.204200
H721	H72	0.127800	0.249200	0.172200
In11	In1	0.729010	0.270990	0.750000
N11	N1	0.795550	0.204450	0.750000
C1091	C109	0.877800	0.122200	0.750000
C1101	C110	0.925300	0.074700	0.750000
In21	In2	0.729010	0.458020	0.750000
N21	N2	0.795550	0.591100	0.750000
C1111	C111	0.877800	0.755600	0.750000
C1121	C112	0.925300	0.850600	0.750000
In31	In3	0.541980	0.270990	0.750000
N31	N3	0.408900	0.204450	0.750000
C1131	C113	0.244400	0.122200	0.750000
C1141	C114	0.149400	0.074700	0.750000
In41	In4	0.270990	0.729010	0.250000
N41	N4	0.204450	0.795550	0.250000
C1151	C115	0.122200	0.877800	0.250000
C1161	C116	0.074700	0.925300	0.250000
In51	In5	0.270990	0.541980	0.250000
N51	N5	0.204450	0.408900	0.250000
C1171	C117	0.122200	0.244400	0.250000
C1181	C118	0.074700	0.149400	0.250000
In61	In6	0.458020	0.729010	0.250000
N61	N6	0.591100	0.795550	0.250000
C1191	C119	0.755600	0.877800	0.250000
C1201	C120	0.850600	0.925300	0.250000
Zn11	Zn1	0.000000	0.000000	0.677970
Zn21	Zn2	0.000000	0.000000	0.822030
Zn31	Zn3	0.000000	0.000000	0.322030
Zn41	Zn4	0.000000	0.000000	0.177970
O371	O37	0.666670	0.333330	0.750000
O381	O38	0.333330	0.666670	0.250000
