data_FIFMOY_clean_PM
_symmetry_space_group_name_H-M	'P1'
_cell_length_a	15.883100
_cell_length_b	15.883100
_cell_length_c	21.379100
_cell_angle_alpha	90.000000
_cell_angle_beta	90.000000
_cell_angle_gamma	120.000000
_symmetry_Int_Tables_number 1

loop_
_symmetry_equiv_pos_as_xyz
'x,y,z'

loop_
_atom_site_label
_atom_site_type_symbol
_atom_site_fract_x
_atom_site_fract_y
_atom_site_fract_z
Co11	Co1	0.704750	0.556360	0.963030
Co21	Co2	0.517640	0.489690	0.858420
Co31	Co3	0.851610	0.295250	0.629700
Co41	Co4	0.972050	0.482360	0.525080
Co51	Co5	0.443640	0.148390	0.296370
Co61	Co6	0.510310	0.027950	0.191750
Co71	Co7	0.295250	0.443640	0.463030
Co81	Co8	0.482360	0.510310	0.358420
Co91	Co9	0.148390	0.704750	0.129700
Co101	Co10	0.027950	0.517640	0.025080
Co111	Co11	0.556360	0.851610	0.796370
Co121	Co12	0.489690	0.972050	0.691750
H11	H1	0.666200	0.469900	0.496700
H21	H2	0.462300	0.450300	0.616600
H31	H3	0.673200	0.404800	0.677400
H41	H4	0.458200	0.394000	0.723400
H51	H5	0.540900	0.375400	0.746800
H61	H6	0.709900	0.598300	0.732200
H71	H7	0.694300	0.506800	0.769700
H81	H8	0.485500	0.547500	0.710200
H91	H9	0.596500	0.620900	0.700000
H101	H10	0.655200	0.710600	0.967200
H111	H11	0.718800	0.874300	0.975000
H121	H12	0.980900	0.901800	0.998400
H131	H13	0.909500	0.735900	0.990200
H141	H14	0.968600	0.049700	0.002900
H151	H15	0.792300	0.027400	0.974100
H161	H16	0.775400	0.170300	0.976900
H171	H17	0.840400	0.334400	0.988900
H181	H18	0.097500	0.370700	0.009000
H191	H19	0.040800	0.208700	0.998200
H201	H20	0.803700	0.333800	0.163370
H211	H21	0.988000	0.537700	0.283270
H221	H22	0.731600	0.326800	0.344070
H231	H23	0.935800	0.541800	0.390070
H241	H24	0.834500	0.459100	0.413470
H251	H25	0.888400	0.290100	0.398870
H261	H26	0.812500	0.305700	0.436370
H271	H27	0.062000	0.514500	0.376870
H281	H28	0.024400	0.403500	0.366670
H291	H29	0.055400	0.344800	0.633870
H301	H30	0.155500	0.281200	0.641670
H311	H31	0.920900	0.019100	0.665070
H321	H32	0.826400	0.090500	0.656870
H331	H33	0.081100	0.031400	0.669570
H341	H34	0.235100	0.207700	0.640770
H351	H35	0.394900	0.224600	0.643570
H361	H36	0.494000	0.159600	0.655570
H371	H37	0.273200	0.902500	0.675670
H381	H38	0.167900	0.959200	0.664870
H391	H39	0.530100	0.196300	0.830030
H401	H40	0.549700	0.012000	0.949930
H411	H41	0.595200	0.268400	0.010730
H421	H42	0.606000	0.064200	0.056730
H431	H43	0.624600	0.165500	0.080130
H441	H44	0.401700	0.111600	0.065530
H451	H45	0.493200	0.187500	0.103030
H461	H46	0.452500	0.938000	0.043530
H471	H47	0.379100	0.975600	0.033330
H481	H48	0.289400	0.944600	0.300530
H491	H49	0.125700	0.844500	0.308330
H501	H50	0.098200	0.079100	0.331730
H511	H51	0.264100	0.173600	0.323530
H521	H52	0.950300	0.918900	0.336230
H531	H53	0.972600	0.764900	0.307430
H541	H54	0.829700	0.605100	0.310230
H551	H55	0.665600	0.506000	0.322230
H561	H56	0.629300	0.726800	0.342330
H571	H57	0.791300	0.832100	0.331530
H581	H58	0.333800	0.530100	0.996700
H591	H59	0.537700	0.549700	0.116600
H601	H60	0.326800	0.595200	0.177400
H611	H61	0.541800	0.606000	0.223400
H621	H62	0.459100	0.624600	0.246800
H631	H63	0.290100	0.401700	0.232200
H641	H64	0.305700	0.493200	0.269700
H651	H65	0.514500	0.452500	0.210200
H661	H66	0.403500	0.379100	0.200000
H671	H67	0.344800	0.289400	0.467200
H681	H68	0.281200	0.125700	0.475000
H691	H69	0.019100	0.098200	0.498400
H701	H70	0.090500	0.264100	0.490200
H711	H71	0.031400	0.950300	0.502900
H721	H72	0.207700	0.972600	0.474100
H731	H73	0.224600	0.829700	0.476900
H741	H74	0.159600	0.665600	0.488900
H751	H75	0.902500	0.629300	0.509000
H761	H76	0.959200	0.791300	0.498200
H771	H77	0.196300	0.666200	0.663370
H781	H78	0.012000	0.462300	0.783270
H791	H79	0.268400	0.673200	0.844070
H801	H80	0.064200	0.458200	0.890070
H811	H81	0.165500	0.540900	0.913470
H821	H82	0.111600	0.709900	0.898870
H831	H83	0.187500	0.694300	0.936370
H841	H84	0.938000	0.485500	0.876870
H851	H85	0.975600	0.596500	0.866670
H861	H86	0.944600	0.655200	0.133870
H871	H87	0.844500	0.718800	0.141670
H881	H88	0.079100	0.980900	0.165070
H891	H89	0.173600	0.909500	0.156870
H901	H90	0.918900	0.968600	0.169570
H911	H91	0.764900	0.792300	0.140770
H921	H92	0.605100	0.775400	0.143570
H931	H93	0.506000	0.840400	0.155570
H941	H94	0.726800	0.097500	0.175670
H951	H95	0.832100	0.040800	0.164870
H961	H96	0.469900	0.803700	0.330030
H971	H97	0.450300	0.988000	0.449930
H981	H98	0.404800	0.731600	0.510730
H991	H99	0.394000	0.935800	0.556730
H1001	H100	0.375400	0.834500	0.580130
H1011	H101	0.598300	0.888400	0.565530
H1021	H102	0.506800	0.812500	0.603030
H1031	H103	0.547500	0.062000	0.543530
H1041	H104	0.620900	0.024400	0.533330
H1051	H105	0.710600	0.055400	0.800530
H1061	H106	0.874300	0.155500	0.808330
H1071	H107	0.901800	0.920900	0.831730
H1081	H108	0.735900	0.826400	0.823530
H1091	H109	0.049700	0.081100	0.836230
H1101	H110	0.027400	0.235100	0.807430
H1111	H111	0.170300	0.394900	0.810230
H1121	H112	0.334400	0.494000	0.822230
H1131	H113	0.370700	0.273200	0.842330
H1141	H114	0.208700	0.167900	0.831530
C11	C1	0.684600	0.435800	0.585280
C21	C2	0.639800	0.457800	0.536690
C31	C3	0.555000	0.461500	0.548480
C41	C4	0.518600	0.447800	0.609010
C51	C5	0.564800	0.430500	0.658350
C61	C6	0.644800	0.421300	0.645150
C71	C7	0.528200	0.421200	0.724640
C81	C8	0.677800	0.557900	0.768360
C91	C9	0.716400	0.619500	0.827300
C101	C10	0.547700	0.583200	0.731260
C111	C11	0.542900	0.651900	0.778840
C121	C12	0.770600	0.420700	0.577290
C131	C13	0.498900	0.476200	0.496400
C141	C14	0.721600	0.749700	0.974050
C151	C15	0.759400	0.848000	0.978400
C161	C16	0.858800	0.908600	0.987870
C171	C17	0.914100	0.864300	0.992300
C181	C18	0.870700	0.764300	0.987500
C191	C19	0.902800	0.014300	0.992900
C201	C20	0.857900	0.063400	0.984500
C211	C21	0.898900	0.168200	0.989500
C221	C22	0.841600	0.209300	0.984800
C231	C23	0.881500	0.308600	0.991600
C241	C24	0.031100	0.329700	0.003400
C251	C25	0.997600	0.232100	0.997200
C261	C26	0.751200	0.315400	0.251950
C271	C27	0.818000	0.360200	0.203360
C281	C28	0.906500	0.445000	0.215150
C291	C29	0.929200	0.481400	0.275680
C301	C30	0.865700	0.435200	0.325020
C311	C31	0.776500	0.355200	0.311820
C321	C32	0.893000	0.471800	0.391310
C331	C33	0.880100	0.322200	0.435030
C341	C34	0.903100	0.283600	0.493970
C351	C35	0.035500	0.452300	0.397930
C361	C36	0.109000	0.457100	0.445510
C371	C37	0.650100	0.229400	0.243960
C381	C38	0.977300	0.501100	0.163070
C391	C39	0.028100	0.278400	0.640720
C401	C40	0.088600	0.240600	0.645070
C411	C41	0.049800	0.141200	0.654540
C421	C42	0.950200	0.085900	0.658970
C431	C43	0.893600	0.129300	0.654170
C441	C44	0.111500	0.097200	0.659570
C451	C45	0.205500	0.142100	0.651170
C461	C46	0.269300	0.101100	0.656170
C471	C47	0.367700	0.158400	0.651470
C481	C48	0.427100	0.118500	0.658270
C491	C49	0.298600	0.968900	0.670070
C501	C50	0.234500	0.002400	0.663870
C511	C51	0.564200	0.248800	0.918610
C521	C52	0.542200	0.182000	0.870020
C531	C53	0.538500	0.093500	0.881810
C541	C54	0.552200	0.070800	0.942340
C551	C55	0.569500	0.134300	0.991680
C561	C56	0.578700	0.223500	0.978480
C571	C57	0.578800	0.107000	0.057970
C581	C58	0.442100	0.119900	0.101690
C591	C59	0.380500	0.096900	0.160630
C601	C60	0.416800	0.964500	0.064590
C611	C61	0.348100	0.891000	0.112170
C621	C62	0.579300	0.349900	0.910620
C631	C63	0.523800	0.022700	0.829730
C641	C64	0.250300	0.971900	0.307380
C651	C65	0.152000	0.911400	0.311730
C661	C66	0.091400	0.950200	0.321200
C671	C67	0.135700	0.049800	0.325630
C681	C68	0.235700	0.106400	0.320830
C691	C69	0.985700	0.888500	0.326230
C701	C70	0.936600	0.794500	0.317830
C711	C71	0.831800	0.730700	0.322830
C721	C72	0.790700	0.632300	0.318130
C731	C73	0.691400	0.572900	0.324930
C741	C74	0.670300	0.701400	0.336730
C751	C75	0.767900	0.765500	0.330530
C761	C76	0.315400	0.564200	0.085280
C771	C77	0.360200	0.542200	0.036690
C781	C78	0.445000	0.538500	0.048480
C791	C79	0.481400	0.552200	0.109010
C801	C80	0.435200	0.569500	0.158350
C811	C81	0.355200	0.578700	0.145150
C821	C82	0.471800	0.578800	0.224640
C831	C83	0.322200	0.442100	0.268360
C841	C84	0.283600	0.380500	0.327300
C851	C85	0.452300	0.416800	0.231260
C861	C86	0.457100	0.348100	0.278840
C871	C87	0.229400	0.579300	0.077290
C881	C88	0.501100	0.523800	0.996400
C891	C89	0.278400	0.250300	0.474050
C901	C90	0.240600	0.152000	0.478400
C911	C91	0.141200	0.091400	0.487870
C921	C92	0.085900	0.135700	0.492300
C931	C93	0.129300	0.235700	0.487500
C941	C94	0.097200	0.985700	0.492900
C951	C95	0.142100	0.936600	0.484500
C961	C96	0.101100	0.831800	0.489500
C971	C97	0.158400	0.790700	0.484800
C981	C98	0.118500	0.691400	0.491600
C991	C99	0.968900	0.670300	0.503400
C1001	C100	0.002400	0.767900	0.497200
C1011	C101	0.248800	0.684600	0.751950
C1021	C102	0.182000	0.639800	0.703360
C1031	C103	0.093500	0.555000	0.715150
C1041	C104	0.070800	0.518600	0.775680
C1051	C105	0.134300	0.564800	0.825020
C1061	C106	0.223500	0.644800	0.811820
C1071	C107	0.107000	0.528200	0.891310
C1081	C108	0.119900	0.677800	0.935030
C1091	C109	0.096900	0.716400	0.993970
C1101	C110	0.964500	0.547700	0.897930
C1111	C111	0.891000	0.542900	0.945510
C1121	C112	0.349900	0.770600	0.743960
C1131	C113	0.022700	0.498900	0.663070
C1141	C114	0.971900	0.721600	0.140720
C1151	C115	0.911400	0.759400	0.145070
C1161	C116	0.950200	0.858800	0.154540
C1171	C117	0.049800	0.914100	0.158970
C1181	C118	0.106400	0.870700	0.154170
C1191	C119	0.888500	0.902800	0.159570
C1201	C120	0.794500	0.857900	0.151170
C1211	C121	0.730700	0.898900	0.156170
C1221	C122	0.632300	0.841600	0.151470
C1231	C123	0.572900	0.881500	0.158270
C1241	C124	0.701400	0.031100	0.170070
C1251	C125	0.765500	0.997600	0.163870
C1261	C126	0.435800	0.751200	0.418610
C1271	C127	0.457800	0.818000	0.370020
C1281	C128	0.461500	0.906500	0.381810
C1291	C129	0.447800	0.929200	0.442340
C1301	C130	0.430500	0.865700	0.491680
C1311	C131	0.421300	0.776500	0.478480
C1321	C132	0.421200	0.893000	0.557970
C1331	C133	0.557900	0.880100	0.601690
C1341	C134	0.619500	0.903100	0.660630
C1351	C135	0.583200	0.035500	0.564590
C1361	C136	0.651900	0.109000	0.612170
C1371	C137	0.420700	0.650100	0.410620
C1381	C138	0.476200	0.977300	0.329730
C1391	C139	0.749700	0.028100	0.807380
C1401	C140	0.848000	0.088600	0.811730
C1411	C141	0.908600	0.049800	0.821200
C1421	C142	0.864300	0.950200	0.825630
C1431	C143	0.764300	0.893600	0.820830
C1441	C144	0.014300	0.111500	0.826230
C1451	C145	0.063400	0.205500	0.817830
C1461	C146	0.168200	0.269300	0.822830
C1471	C147	0.209300	0.367700	0.818130
C1481	C148	0.308600	0.427100	0.824930
C1491	C149	0.329700	0.298600	0.836730
C1501	C150	0.232100	0.234500	0.830530
N11	N1	0.571820	0.513530	0.760660
N21	N2	0.775700	0.707350	0.979250
N31	N3	0.974800	0.368920	0.001710
N41	N4	0.941710	0.428180	0.427330
N51	N5	0.931650	0.224300	0.645920
N61	N6	0.394120	0.025200	0.668380
N71	N7	0.486470	0.058290	0.093990
N81	N8	0.292650	0.068350	0.312580
N91	N9	0.631080	0.605880	0.335040
N101	N10	0.428180	0.486470	0.260660
N111	N11	0.224300	0.292650	0.479250
N121	N12	0.025200	0.631080	0.501710
N131	N13	0.058290	0.571820	0.927330
N141	N14	0.068350	0.775700	0.145920
N151	N15	0.605880	0.974800	0.168380
N161	N16	0.513530	0.941710	0.593990
N171	N17	0.707350	0.931650	0.812580
N181	N18	0.368920	0.394120	0.835040
O11	O1	0.662190	0.579720	0.876110
O21	O2	0.791690	0.696590	0.826420
O31	O3	0.514330	0.619560	0.833090
O41	O4	0.564130	0.733630	0.759060
O51	O5	0.775330	0.365020	0.616320
O61	O6	0.830270	0.465000	0.534220
O71	O7	0.537570	0.500660	0.443850
O81	O8	0.415710	0.459850	0.510820
O91	O9	0.917530	0.337810	0.542780
O101	O10	0.904900	0.208310	0.493090
O111	O11	0.105230	0.485670	0.499760
O121	O12	0.169500	0.435870	0.425730
O131	O13	0.589690	0.224670	0.282990
O141	O14	0.634730	0.169730	0.200890
O151	O15	0.963090	0.462430	0.110520
O161	O16	0.044140	0.584290	0.177490
O171	O17	0.420280	0.082470	0.209440
O181	O18	0.303410	0.095100	0.159750
O191	O19	0.380440	0.894770	0.166420
O201	O20	0.266370	0.830500	0.092390
O211	O21	0.634980	0.410310	0.949650
O221	O22	0.535000	0.365270	0.867550
O231	O23	0.499340	0.036910	0.777180
O241	O24	0.540150	0.955860	0.844150
O251	O25	0.337810	0.420280	0.376110
O261	O26	0.208310	0.303410	0.326420
O271	O27	0.485670	0.380440	0.333090
O281	O28	0.435870	0.266370	0.259060
O291	O29	0.224670	0.634980	0.116320
O301	O30	0.169730	0.535000	0.034220
O311	O31	0.462430	0.499340	0.943850
O321	O32	0.584290	0.540150	0.010820
O331	O33	0.082470	0.662190	0.042780
O341	O34	0.095100	0.791690	0.993090
O351	O35	0.894770	0.514330	0.999760
O361	O36	0.830500	0.564130	0.925730
O371	O37	0.410310	0.775330	0.782990
O381	O38	0.365270	0.830270	0.700890
O391	O39	0.036910	0.537570	0.610520
O401	O40	0.955860	0.415710	0.677490
O411	O41	0.579720	0.917530	0.709440
O421	O42	0.696590	0.904900	0.659750
O431	O43	0.619560	0.105230	0.666420
O441	O44	0.733630	0.169500	0.592390
O451	O45	0.365020	0.589690	0.449650
O461	O46	0.465000	0.634730	0.367550
O471	O47	0.500660	0.963090	0.277180
O481	O48	0.459850	0.044140	0.344150
