data_FIFMUD_clean_PM
_symmetry_space_group_name_H-M	'P1'
_cell_length_a	12.308900
_cell_length_b	26.959000
_cell_length_c	33.493000
_cell_angle_alpha	90.000000
_cell_angle_beta	90.000000
_cell_angle_gamma	90.000000
_symmetry_Int_Tables_number 1

loop_
_symmetry_equiv_pos_as_xyz
'x,y,z'

loop_
_atom_site_label
_atom_site_type_symbol
_atom_site_fract_x
_atom_site_fract_y
_atom_site_fract_z
Fe11	Fe1	0.981980	0.931740	0.385610
Fe21	Fe2	0.518020	0.431740	0.614390
Fe31	Fe3	0.481980	0.431740	0.114390
Fe41	Fe4	0.018020	0.931740	0.885610
Ag11	Ag1	0.760950	0.279270	0.361560
Ag21	Ag2	0.739050	0.779270	0.638440
Ag31	Ag3	0.260950	0.779270	0.138440
Ag41	Ag4	0.239050	0.279270	0.861560
H11	H1	0.213900	0.961300	0.355000
H21	H2	0.272600	0.045700	0.334200
H31	H3	0.109900	0.100300	0.340500
H41	H4	0.709000	0.070700	0.398700
H51	H5	0.616600	0.996400	0.428700
H61	H6	0.748600	0.926800	0.423400
H71	H7	0.003800	0.136700	0.407300
H81	H8	0.948700	0.217800	0.398100
H91	H9	0.745100	0.179500	0.314400
H101	H10	0.783600	0.094500	0.323600
H111	H11	0.789400	0.966700	0.330900
H121	H12	0.780900	0.953500	0.256000
H131	H13	0.941300	0.904000	0.235700
H141	H14	0.253400	0.816500	0.322400
H151	H15	0.309900	0.822100	0.395700
H161	H16	0.175100	0.876300	0.428200
H171	H17	0.264900	0.892100	0.263200
H181	H18	0.326100	0.855500	0.205000
H191	H19	0.061600	0.775800	0.196900
H201	H20	0.996500	0.810400	0.254500
H211	H21	0.846000	0.845700	0.345400
H221	H22	0.754600	0.780600	0.380800
H231	H23	0.768700	0.793400	0.453600
H241	H24	0.040200	0.920400	0.535500
H251	H25	0.168400	0.985500	0.512400
H261	H26	0.144300	0.993300	0.438300
H271	H27	0.957400	0.785100	0.507200
H281	H28	0.874800	0.751900	0.561900
H291	H29	0.726900	0.877900	0.587500
H301	H30	0.799700	0.914400	0.531300
H311	H31	0.286100	0.461300	0.645000
H321	H32	0.227400	0.545700	0.665800
H331	H33	0.390100	0.600300	0.659500
H341	H34	0.791000	0.570700	0.601300
H351	H35	0.883400	0.496400	0.571300
H361	H36	0.751400	0.426800	0.576600
H371	H37	0.496200	0.636700	0.592700
H381	H38	0.551300	0.717800	0.601900
H391	H39	0.754900	0.679500	0.685600
H401	H40	0.716400	0.594500	0.676400
H411	H41	0.710600	0.466700	0.669100
H421	H42	0.719100	0.453500	0.744000
H431	H43	0.558700	0.404000	0.764300
H441	H44	0.246600	0.316500	0.677600
H451	H45	0.190100	0.322100	0.604300
H461	H46	0.324900	0.376300	0.571800
H471	H47	0.235100	0.392100	0.736800
H481	H48	0.173900	0.355500	0.795000
H491	H49	0.438400	0.275800	0.803100
H501	H50	0.503500	0.310400	0.745500
H511	H51	0.654000	0.345700	0.654600
H521	H52	0.745400	0.280600	0.619200
H531	H53	0.731300	0.293400	0.546400
H541	H54	0.459800	0.420400	0.464500
H551	H55	0.331600	0.485500	0.487600
H561	H56	0.355700	0.493300	0.561700
H571	H57	0.542600	0.285100	0.492800
H581	H58	0.625200	0.251900	0.438100
H591	H59	0.773100	0.377900	0.412500
H601	H60	0.700300	0.414400	0.468700
H611	H61	0.713900	0.461300	0.145000
H621	H62	0.772600	0.545700	0.165800
H631	H63	0.609900	0.600300	0.159500
H641	H64	0.209000	0.570700	0.101300
H651	H65	0.116600	0.496400	0.071300
H661	H66	0.248600	0.426800	0.076600
H671	H67	0.503800	0.636700	0.092700
H681	H68	0.448700	0.717800	0.101900
H691	H69	0.245100	0.679500	0.185600
H701	H70	0.283600	0.594500	0.176400
H711	H71	0.289400	0.466700	0.169100
H721	H72	0.280900	0.453500	0.244000
H731	H73	0.441300	0.404000	0.264300
H741	H74	0.753400	0.316500	0.177600
H751	H75	0.809900	0.322100	0.104300
H761	H76	0.675100	0.376300	0.071800
H771	H77	0.764900	0.392100	0.236800
H781	H78	0.826100	0.355500	0.295000
H791	H79	0.561600	0.275800	0.303100
H801	H80	0.496500	0.310400	0.245500
H811	H81	0.346000	0.345700	0.154600
H821	H82	0.254600	0.280600	0.119200
H831	H83	0.268700	0.293400	0.046400
H841	H84	0.540200	0.420400	0.964500
H851	H85	0.668400	0.485500	0.987600
H861	H86	0.644300	0.493300	0.061700
H871	H87	0.457400	0.285100	0.992800
H881	H88	0.374800	0.251900	0.938100
H891	H89	0.226900	0.377900	0.912500
H901	H90	0.299700	0.414400	0.968700
H911	H91	0.786100	0.961300	0.855000
H921	H92	0.727400	0.045700	0.834200
H931	H93	0.890100	0.100300	0.840500
H941	H94	0.291000	0.070700	0.898700
H951	H95	0.383400	0.996400	0.928700
H961	H96	0.251400	0.926800	0.923400
H971	H97	0.996200	0.136700	0.907300
H981	H98	0.051300	0.217800	0.898100
H991	H99	0.254900	0.179500	0.814400
H1001	H100	0.216400	0.094500	0.823600
H1011	H101	0.210600	0.966700	0.830900
H1021	H102	0.219100	0.953500	0.756000
H1031	H103	0.058700	0.904000	0.735700
H1041	H104	0.746600	0.816500	0.822400
H1051	H105	0.690100	0.822100	0.895700
H1061	H106	0.824900	0.876300	0.928200
H1071	H107	0.735100	0.892100	0.763200
H1081	H108	0.673900	0.855500	0.705000
H1091	H109	0.938400	0.775800	0.696900
H1101	H110	0.003500	0.810400	0.754500
H1111	H111	0.154000	0.845700	0.845400
H1121	H112	0.245400	0.780600	0.880800
H1131	H113	0.231300	0.793400	0.953600
H1141	H114	0.959800	0.920400	0.035500
H1151	H115	0.831600	0.985500	0.012400
H1161	H116	0.855700	0.993300	0.938300
H1171	H117	0.042600	0.785100	0.007200
H1181	H118	0.125200	0.751900	0.061900
H1191	H119	0.273100	0.877900	0.087500
H1201	H120	0.200300	0.914400	0.031300
C11	C1	0.168700	0.989800	0.355700
C21	C2	0.202500	0.036500	0.343500
C31	C3	0.114300	0.066300	0.347700
C41	C4	0.033600	0.038500	0.364000
C51	C5	0.924100	0.054400	0.374000
C61	C6	0.846500	0.023500	0.390860
C71	C7	0.739200	0.038500	0.401900
C81	C8	0.687900	0.998000	0.417900
C91	C9	0.763200	0.959700	0.414900
C101	C10	0.899800	0.106600	0.366590
C111	C11	0.948300	0.144200	0.388500
C121	C12	0.915500	0.192300	0.382800
C131	C13	0.795700	0.170300	0.334550
C141	C14	0.820000	0.119100	0.338900
C151	C15	0.841600	0.949000	0.315600
C161	C16	0.836400	0.941600	0.273200
C171	C17	0.924100	0.914700	0.262000
C181	C18	0.986900	0.905400	0.298170
C191	C19	0.078600	0.878800	0.301800
C201	C20	0.136400	0.869000	0.338300
C211	C21	0.221300	0.836400	0.342600
C221	C22	0.250700	0.838500	0.383100
C231	C23	0.175900	0.869100	0.400400
C241	C24	0.123900	0.856300	0.264200
C251	C25	0.220900	0.868400	0.249800
C261	C26	0.257100	0.846000	0.215200
C271	C27	0.104300	0.799900	0.210500
C281	C28	0.065000	0.820600	0.244400
C291	C29	0.846200	0.842000	0.373600
C301	C30	0.793600	0.806700	0.393300
C311	C31	0.802200	0.812300	0.433100
C321	C32	0.874900	0.854000	0.436900
C331	C33	0.917100	0.874900	0.472600
C341	C34	0.992300	0.914300	0.474960
C351	C35	0.049300	0.931600	0.508780
C361	C36	0.119300	0.967000	0.496300
C371	C37	0.104800	0.971000	0.454830
C381	C38	0.878000	0.853100	0.510200
C391	C39	0.907000	0.804200	0.522300
C401	C40	0.861300	0.785700	0.555600
C411	C41	0.773400	0.858900	0.570800
C421	C42	0.814600	0.880500	0.536800
C431	C43	0.331300	0.489800	0.644300
C441	C44	0.297500	0.536500	0.656500
C451	C45	0.385700	0.566300	0.652300
C461	C46	0.466400	0.538500	0.636000
C471	C47	0.575900	0.554400	0.626000
C481	C48	0.653500	0.523500	0.609140
C491	C49	0.760800	0.538500	0.598100
C501	C50	0.812100	0.498000	0.582100
C511	C51	0.736800	0.459700	0.585100
C521	C52	0.600200	0.606600	0.633410
C531	C53	0.551700	0.644200	0.611500
C541	C54	0.584500	0.692300	0.617200
C551	C55	0.704300	0.670300	0.665450
C561	C56	0.680000	0.619100	0.661100
C571	C57	0.658400	0.449000	0.684400
C581	C58	0.663600	0.441600	0.726800
C591	C59	0.575900	0.414700	0.738000
C601	C60	0.513100	0.405400	0.701830
C611	C61	0.421400	0.378800	0.698200
C621	C62	0.363600	0.369000	0.661700
C631	C63	0.278700	0.336400	0.657400
C641	C64	0.249300	0.338500	0.616900
C651	C65	0.324100	0.369100	0.599600
C661	C66	0.376100	0.356300	0.735800
C671	C67	0.279100	0.368400	0.750200
C681	C68	0.242900	0.346000	0.784800
C691	C69	0.395700	0.299900	0.789500
C701	C70	0.435000	0.320600	0.755600
C711	C71	0.653800	0.342000	0.626400
C721	C72	0.706400	0.306700	0.606700
C731	C73	0.697800	0.312300	0.566900
C741	C74	0.625100	0.354000	0.563100
C751	C75	0.582900	0.374900	0.527400
C761	C76	0.507700	0.414300	0.525040
C771	C77	0.450700	0.431600	0.491220
C781	C78	0.380700	0.467000	0.503700
C791	C79	0.395200	0.471000	0.545170
C801	C80	0.622000	0.353100	0.489800
C811	C81	0.593000	0.304200	0.477700
C821	C82	0.638700	0.285700	0.444400
C831	C83	0.726600	0.358900	0.429200
C841	C84	0.685400	0.380500	0.463200
C851	C85	0.668700	0.489800	0.144300
C861	C86	0.702500	0.536500	0.156500
C871	C87	0.614300	0.566300	0.152300
C881	C88	0.533600	0.538500	0.136000
C891	C89	0.424100	0.554400	0.126000
C901	C90	0.346500	0.523500	0.109140
C911	C91	0.239200	0.538500	0.098100
C921	C92	0.187900	0.498000	0.082100
C931	C93	0.263200	0.459700	0.085100
C941	C94	0.399800	0.606600	0.133410
C951	C95	0.448300	0.644200	0.111500
C961	C96	0.415500	0.692300	0.117200
C971	C97	0.295700	0.670300	0.165450
C981	C98	0.320000	0.619100	0.161100
C991	C99	0.341600	0.449000	0.184400
C1001	C100	0.336400	0.441600	0.226800
C1011	C101	0.424100	0.414700	0.238000
C1021	C102	0.486900	0.405400	0.201830
C1031	C103	0.578600	0.378800	0.198200
C1041	C104	0.636400	0.369000	0.161700
C1051	C105	0.721300	0.336400	0.157400
C1061	C106	0.750700	0.338500	0.116900
C1071	C107	0.675900	0.369100	0.099600
C1081	C108	0.623900	0.356300	0.235800
C1091	C109	0.720900	0.368400	0.250200
C1101	C110	0.757100	0.346000	0.284800
C1111	C111	0.604300	0.299900	0.289500
C1121	C112	0.565000	0.320600	0.255600
C1131	C113	0.346200	0.342000	0.126400
C1141	C114	0.293600	0.306700	0.106700
C1151	C115	0.302200	0.312300	0.066900
C1161	C116	0.374900	0.354000	0.063100
C1171	C117	0.417100	0.374900	0.027400
C1181	C118	0.492300	0.414300	0.025040
C1191	C119	0.549300	0.431600	0.991220
C1201	C120	0.619300	0.467000	0.003700
C1211	C121	0.604800	0.471000	0.045170
C1221	C122	0.378000	0.353100	0.989800
C1231	C123	0.407000	0.304200	0.977700
C1241	C124	0.361300	0.285700	0.944400
C1251	C125	0.273400	0.358900	0.929200
C1261	C126	0.314600	0.380500	0.963200
C1271	C127	0.831300	0.989800	0.855700
C1281	C128	0.797500	0.036500	0.843500
C1291	C129	0.885700	0.066300	0.847700
C1301	C130	0.966400	0.038500	0.864000
C1311	C131	0.075900	0.054400	0.874000
C1321	C132	0.153500	0.023500	0.890860
C1331	C133	0.260800	0.038500	0.901900
C1341	C134	0.312100	0.998000	0.917900
C1351	C135	0.236800	0.959700	0.914900
C1361	C136	0.100200	0.106600	0.866590
C1371	C137	0.051700	0.144200	0.888500
C1381	C138	0.084500	0.192300	0.882800
C1391	C139	0.204300	0.170300	0.834550
C1401	C140	0.180000	0.119100	0.838900
C1411	C141	0.158400	0.949000	0.815600
C1421	C142	0.163600	0.941600	0.773200
C1431	C143	0.075900	0.914700	0.762000
C1441	C144	0.013100	0.905400	0.798170
C1451	C145	0.921400	0.878800	0.801800
C1461	C146	0.863600	0.869000	0.838300
C1471	C147	0.778700	0.836400	0.842600
C1481	C148	0.749300	0.838500	0.883100
C1491	C149	0.824100	0.869100	0.900400
C1501	C150	0.876100	0.856300	0.764200
C1511	C151	0.779100	0.868400	0.749800
C1521	C152	0.742900	0.846000	0.715200
C1531	C153	0.895700	0.799900	0.710500
C1541	C154	0.935000	0.820600	0.744400
C1551	C155	0.153800	0.842000	0.873600
C1561	C156	0.206400	0.806700	0.893300
C1571	C157	0.197800	0.812300	0.933100
C1581	C158	0.125100	0.854000	0.936900
C1591	C159	0.082900	0.874900	0.972600
C1601	C160	0.007700	0.914300	0.974960
C1611	C161	0.950700	0.931600	0.008780
C1621	C162	0.880700	0.967000	0.996300
C1631	C163	0.895200	0.971000	0.954830
C1641	C164	0.122000	0.853100	0.010200
C1651	C165	0.093000	0.804200	0.022300
C1661	C166	0.138700	0.785700	0.055600
C1671	C167	0.226600	0.858900	0.070800
C1681	C168	0.185400	0.880500	0.036800
N11	N1	0.068400	0.989130	0.368190
N21	N2	0.860600	0.973980	0.398570
N31	N3	0.837100	0.204950	0.355840
N41	N4	0.929300	0.927700	0.330060
N51	N5	0.103500	0.888050	0.374610
N61	N6	0.201300	0.812200	0.195470
N71	N7	0.899900	0.871780	0.399230
N81	N8	0.026800	0.938810	0.440870
N91	N9	0.796300	0.812400	0.581250
N101	N10	0.431600	0.489130	0.631810
N111	N11	0.639400	0.473980	0.601430
N121	N12	0.662900	0.704950	0.644160
N131	N13	0.570700	0.427700	0.669940
N141	N14	0.396500	0.388050	0.625390
N151	N15	0.298700	0.312200	0.804530
N161	N16	0.600100	0.371780	0.600770
N171	N17	0.473200	0.438810	0.559130
N181	N18	0.703700	0.312400	0.418750
N191	N19	0.568400	0.489130	0.131810
N201	N20	0.360600	0.473980	0.101430
N211	N21	0.337100	0.704950	0.144160
N221	N22	0.429300	0.427700	0.169940
N231	N23	0.603500	0.388050	0.125390
N241	N24	0.701300	0.312200	0.304530
N251	N25	0.399900	0.371780	0.100770
N261	N26	0.526800	0.438810	0.059130
N271	N27	0.296300	0.312400	0.918750
N281	N28	0.931600	0.989130	0.868190
N291	N29	0.139400	0.973980	0.898570
N301	N30	0.162900	0.204950	0.855840
N311	N31	0.070700	0.927700	0.830060
N321	N32	0.896500	0.888050	0.874610
N331	N33	0.798700	0.812200	0.695470
N341	N34	0.100100	0.871780	0.899230
N351	N35	0.973200	0.938810	0.940870
N361	N36	0.203700	0.812400	0.081250
Fe51	Fe5	0.518020	0.568260	0.885610
Fe61	Fe6	0.981980	0.068260	0.114390
Fe71	Fe7	0.018020	0.068260	0.614390
Fe81	Fe8	0.481980	0.568260	0.385610
Ag51	Ag5	0.739050	0.220730	0.861560
Ag61	Ag6	0.760950	0.720730	0.138440
Ag71	Ag7	0.239050	0.720730	0.638440
Ag81	Ag8	0.260950	0.220730	0.361560
H1211	H121	0.286100	0.538700	0.855000
H1221	H122	0.227400	0.454300	0.834200
H1231	H123	0.390100	0.399700	0.840500
H1241	H124	0.791000	0.429300	0.898700
H1251	H125	0.883400	0.503600	0.928700
H1261	H126	0.751400	0.573200	0.923400
H1271	H127	0.496200	0.363300	0.907300
H1281	H128	0.551300	0.282200	0.898100
H1291	H129	0.754900	0.320500	0.814400
H1301	H130	0.716400	0.405500	0.823600
H1311	H131	0.710600	0.533300	0.830900
H1321	H132	0.719100	0.546500	0.756000
H1331	H133	0.558700	0.596000	0.735700
H1341	H134	0.246600	0.683500	0.822400
H1351	H135	0.190100	0.677900	0.895700
H1361	H136	0.324900	0.623700	0.928200
H1371	H137	0.235100	0.607900	0.763200
H1381	H138	0.173900	0.644500	0.705000
H1391	H139	0.438400	0.724200	0.696900
H1401	H140	0.503500	0.689600	0.754500
H1411	H141	0.654000	0.654300	0.845400
H1421	H142	0.745400	0.719400	0.880800
H1431	H143	0.731300	0.706600	0.953600
H1441	H144	0.459800	0.579600	0.035500
H1451	H145	0.331600	0.514500	0.012400
H1461	H146	0.355700	0.506700	0.938300
H1471	H147	0.542600	0.714900	0.007200
H1481	H148	0.625200	0.748100	0.061900
H1491	H149	0.773100	0.622100	0.087500
H1501	H150	0.700300	0.585600	0.031300
H1511	H151	0.213900	0.038700	0.145000
H1521	H152	0.272600	0.954300	0.165800
H1531	H153	0.109900	0.899700	0.159500
H1541	H154	0.709000	0.929300	0.101300
H1551	H155	0.616600	0.003600	0.071300
H1561	H156	0.748600	0.073200	0.076600
H1571	H157	0.003800	0.863300	0.092700
H1581	H158	0.948700	0.782200	0.101900
H1591	H159	0.745100	0.820500	0.185600
H1601	H160	0.783600	0.905500	0.176400
H1611	H161	0.789400	0.033300	0.169100
H1621	H162	0.780900	0.046500	0.244000
H1631	H163	0.941300	0.096000	0.264300
H1641	H164	0.253400	0.183500	0.177600
H1651	H165	0.309900	0.177900	0.104300
H1661	H166	0.175100	0.123700	0.071800
H1671	H167	0.264900	0.107900	0.236800
H1681	H168	0.326100	0.144500	0.295000
H1691	H169	0.061600	0.224200	0.303100
H1701	H170	0.996500	0.189600	0.245500
H1711	H171	0.846000	0.154300	0.154600
H1721	H172	0.754600	0.219400	0.119200
H1731	H173	0.768700	0.206600	0.046400
H1741	H174	0.040200	0.079600	0.964500
H1751	H175	0.168400	0.014500	0.987600
H1761	H176	0.144300	0.006700	0.061700
H1771	H177	0.957400	0.214900	0.992800
H1781	H178	0.874800	0.248100	0.938100
H1791	H179	0.726900	0.122100	0.912500
H1801	H180	0.799700	0.085600	0.968700
H1811	H181	0.786100	0.038700	0.645000
H1821	H182	0.727400	0.954300	0.665800
H1831	H183	0.890100	0.899700	0.659500
H1841	H184	0.291000	0.929300	0.601300
H1851	H185	0.383400	0.003600	0.571300
H1861	H186	0.251400	0.073200	0.576600
H1871	H187	0.996200	0.863300	0.592700
H1881	H188	0.051300	0.782200	0.601900
H1891	H189	0.254900	0.820500	0.685600
H1901	H190	0.216400	0.905500	0.676400
H1911	H191	0.210600	0.033300	0.669100
H1921	H192	0.219100	0.046500	0.744000
H1931	H193	0.058700	0.096000	0.764300
H1941	H194	0.746600	0.183500	0.677600
H1951	H195	0.690100	0.177900	0.604300
H1961	H196	0.824900	0.123700	0.571800
H1971	H197	0.735100	0.107900	0.736800
H1981	H198	0.673900	0.144500	0.795000
H1991	H199	0.938400	0.224200	0.803100
H2001	H200	0.003500	0.189600	0.745500
H2011	H201	0.154000	0.154300	0.654600
H2021	H202	0.245400	0.219400	0.619200
H2031	H203	0.231300	0.206600	0.546400
H2041	H204	0.959800	0.079600	0.464500
H2051	H205	0.831600	0.014500	0.487600
H2061	H206	0.855700	0.006700	0.561700
H2071	H207	0.042600	0.214900	0.492800
H2081	H208	0.125200	0.248100	0.438100
H2091	H209	0.273100	0.122100	0.412500
H2101	H210	0.200300	0.085600	0.468700
H2111	H211	0.713900	0.538700	0.355000
H2121	H212	0.772600	0.454300	0.334200
H2131	H213	0.609900	0.399700	0.340500
H2141	H214	0.209000	0.429300	0.398700
H2151	H215	0.116600	0.503600	0.428700
H2161	H216	0.248600	0.573200	0.423400
H2171	H217	0.503800	0.363300	0.407300
H2181	H218	0.448700	0.282200	0.398100
H2191	H219	0.245100	0.320500	0.314400
H2201	H220	0.283600	0.405500	0.323600
H2211	H221	0.289400	0.533300	0.330900
H2221	H222	0.280900	0.546500	0.256000
H2231	H223	0.441300	0.596000	0.235700
H2241	H224	0.753400	0.683500	0.322400
H2251	H225	0.809900	0.677900	0.395700
H2261	H226	0.675100	0.623700	0.428200
H2271	H227	0.764900	0.607900	0.263200
H2281	H228	0.826100	0.644500	0.205000
H2291	H229	0.561600	0.724200	0.196900
H2301	H230	0.496500	0.689600	0.254500
H2311	H231	0.346000	0.654300	0.345400
H2321	H232	0.254600	0.719400	0.380800
H2331	H233	0.268700	0.706600	0.453600
H2341	H234	0.540200	0.579600	0.535500
H2351	H235	0.668400	0.514500	0.512400
H2361	H236	0.644300	0.506700	0.438300
H2371	H237	0.457400	0.714900	0.507200
H2381	H238	0.374800	0.748100	0.561900
H2391	H239	0.226900	0.622100	0.587500
H2401	H240	0.299700	0.585600	0.531300
C1691	C169	0.331300	0.510200	0.855700
C1701	C170	0.297500	0.463500	0.843500
C1711	C171	0.385700	0.433700	0.847700
C1721	C172	0.466400	0.461500	0.864000
C1731	C173	0.575900	0.445600	0.874000
C1741	C174	0.653500	0.476500	0.890860
C1751	C175	0.760800	0.461500	0.901900
C1761	C176	0.812100	0.502000	0.917900
C1771	C177	0.736800	0.540300	0.914900
C1781	C178	0.600200	0.393400	0.866590
C1791	C179	0.551700	0.355800	0.888500
C1801	C180	0.584500	0.307700	0.882800
C1811	C181	0.704300	0.329700	0.834550
C1821	C182	0.680000	0.380900	0.838900
C1831	C183	0.658400	0.551000	0.815600
C1841	C184	0.663600	0.558400	0.773200
C1851	C185	0.575900	0.585300	0.762000
C1861	C186	0.513100	0.594600	0.798170
C1871	C187	0.421400	0.621200	0.801800
C1881	C188	0.363600	0.631000	0.838300
C1891	C189	0.278700	0.663600	0.842600
C1901	C190	0.249300	0.661500	0.883100
C1911	C191	0.324100	0.630900	0.900400
C1921	C192	0.376100	0.643700	0.764200
C1931	C193	0.279100	0.631600	0.749800
C1941	C194	0.242900	0.654000	0.715200
C1951	C195	0.395700	0.700100	0.710500
C1961	C196	0.435000	0.679400	0.744400
C1971	C197	0.653800	0.658000	0.873600
C1981	C198	0.706400	0.693300	0.893300
C1991	C199	0.697800	0.687700	0.933100
C2001	C200	0.625100	0.646000	0.936900
C2011	C201	0.582900	0.625100	0.972600
C2021	C202	0.507700	0.585700	0.974960
C2031	C203	0.450700	0.568400	0.008780
C2041	C204	0.380700	0.533000	0.996300
C2051	C205	0.395200	0.529000	0.954830
C2061	C206	0.622000	0.646900	0.010200
C2071	C207	0.593000	0.695800	0.022300
C2081	C208	0.638700	0.714300	0.055600
C2091	C209	0.726600	0.641100	0.070800
C2101	C210	0.685400	0.619500	0.036800
C2111	C211	0.168700	0.010200	0.144300
C2121	C212	0.202500	0.963500	0.156500
C2131	C213	0.114300	0.933700	0.152300
C2141	C214	0.033600	0.961500	0.136000
C2151	C215	0.924100	0.945600	0.126000
C2161	C216	0.846500	0.976500	0.109140
C2171	C217	0.739200	0.961500	0.098100
C2181	C218	0.687900	0.002000	0.082100
C2191	C219	0.763200	0.040300	0.085100
C2201	C220	0.899800	0.893400	0.133410
C2211	C221	0.948300	0.855800	0.111500
C2221	C222	0.915500	0.807700	0.117200
C2231	C223	0.795700	0.829700	0.165450
C2241	C224	0.820000	0.880900	0.161100
C2251	C225	0.841600	0.051000	0.184400
C2261	C226	0.836400	0.058400	0.226800
C2271	C227	0.924100	0.085300	0.238000
C2281	C228	0.986900	0.094600	0.201830
C2291	C229	0.078600	0.121200	0.198200
C2301	C230	0.136400	0.131000	0.161700
C2311	C231	0.221300	0.163600	0.157400
C2321	C232	0.250700	0.161500	0.116900
C2331	C233	0.175900	0.130900	0.099600
C2341	C234	0.123900	0.143700	0.235800
C2351	C235	0.220900	0.131600	0.250200
C2361	C236	0.257100	0.154000	0.284800
C2371	C237	0.104300	0.200100	0.289500
C2381	C238	0.065000	0.179400	0.255600
C2391	C239	0.846200	0.158000	0.126400
C2401	C240	0.793600	0.193300	0.106700
C2411	C241	0.802200	0.187700	0.066900
C2421	C242	0.874900	0.146000	0.063100
C2431	C243	0.917100	0.125100	0.027400
C2441	C244	0.992300	0.085700	0.025040
C2451	C245	0.049300	0.068400	0.991220
C2461	C246	0.119300	0.033000	0.003700
C2471	C247	0.104800	0.029000	0.045170
C2481	C248	0.878000	0.146900	0.989800
C2491	C249	0.907000	0.195800	0.977700
C2501	C250	0.861300	0.214300	0.944400
C2511	C251	0.773400	0.141100	0.929200
C2521	C252	0.814600	0.119500	0.963200
C2531	C253	0.831300	0.010200	0.644300
C2541	C254	0.797500	0.963500	0.656500
C2551	C255	0.885700	0.933700	0.652300
C2561	C256	0.966400	0.961500	0.636000
C2571	C257	0.075900	0.945600	0.626000
C2581	C258	0.153500	0.976500	0.609140
C2591	C259	0.260800	0.961500	0.598100
C2601	C260	0.312100	0.002000	0.582100
C2611	C261	0.236800	0.040300	0.585100
C2621	C262	0.100200	0.893400	0.633410
C2631	C263	0.051700	0.855800	0.611500
C2641	C264	0.084500	0.807700	0.617200
C2651	C265	0.204300	0.829700	0.665450
C2661	C266	0.180000	0.880900	0.661100
C2671	C267	0.158400	0.051000	0.684400
C2681	C268	0.163600	0.058400	0.726800
C2691	C269	0.075900	0.085300	0.738000
C2701	C270	0.013100	0.094600	0.701830
C2711	C271	0.921400	0.121200	0.698200
C2721	C272	0.863600	0.131000	0.661700
C2731	C273	0.778700	0.163600	0.657400
C2741	C274	0.749300	0.161500	0.616900
C2751	C275	0.824100	0.130900	0.599600
C2761	C276	0.876100	0.143700	0.735800
C2771	C277	0.779100	0.131600	0.750200
C2781	C278	0.742900	0.154000	0.784800
C2791	C279	0.895700	0.200100	0.789500
C2801	C280	0.935000	0.179400	0.755600
C2811	C281	0.153800	0.158000	0.626400
C2821	C282	0.206400	0.193300	0.606700
C2831	C283	0.197800	0.187700	0.566900
C2841	C284	0.125100	0.146000	0.563100
C2851	C285	0.082900	0.125100	0.527400
C2861	C286	0.007700	0.085700	0.525040
C2871	C287	0.950700	0.068400	0.491220
C2881	C288	0.880700	0.033000	0.503700
C2891	C289	0.895200	0.029000	0.545170
C2901	C290	0.122000	0.146900	0.489800
C2911	C291	0.093000	0.195800	0.477700
C2921	C292	0.138700	0.214300	0.444400
C2931	C293	0.226600	0.141100	0.429200
C2941	C294	0.185400	0.119500	0.463200
C2951	C295	0.668700	0.510200	0.355700
C2961	C296	0.702500	0.463500	0.343500
C2971	C297	0.614300	0.433700	0.347700
C2981	C298	0.533600	0.461500	0.364000
C2991	C299	0.424100	0.445600	0.374000
C3001	C300	0.346500	0.476500	0.390860
C3011	C301	0.239200	0.461500	0.401900
C3021	C302	0.187900	0.502000	0.417900
C3031	C303	0.263200	0.540300	0.414900
C3041	C304	0.399800	0.393400	0.366590
C3051	C305	0.448300	0.355800	0.388500
C3061	C306	0.415500	0.307700	0.382800
C3071	C307	0.295700	0.329700	0.334550
C3081	C308	0.320000	0.380900	0.338900
C3091	C309	0.341600	0.551000	0.315600
C3101	C310	0.336400	0.558400	0.273200
C3111	C311	0.424100	0.585300	0.262000
C3121	C312	0.486900	0.594600	0.298170
C3131	C313	0.578600	0.621200	0.301800
C3141	C314	0.636400	0.631000	0.338300
C3151	C315	0.721300	0.663600	0.342600
C3161	C316	0.750700	0.661500	0.383100
C3171	C317	0.675900	0.630900	0.400400
C3181	C318	0.623900	0.643700	0.264200
C3191	C319	0.720900	0.631600	0.249800
C3201	C320	0.757100	0.654000	0.215200
C3211	C321	0.604300	0.700100	0.210500
C3221	C322	0.565000	0.679400	0.244400
C3231	C323	0.346200	0.658000	0.373600
C3241	C324	0.293600	0.693300	0.393300
C3251	C325	0.302200	0.687700	0.433100
C3261	C326	0.374900	0.646000	0.436900
C3271	C327	0.417100	0.625100	0.472600
C3281	C328	0.492300	0.585700	0.474960
C3291	C329	0.549300	0.568400	0.508780
C3301	C330	0.619300	0.533000	0.496300
C3311	C331	0.604800	0.529000	0.454830
C3321	C332	0.378000	0.646900	0.510200
C3331	C333	0.407000	0.695800	0.522300
C3341	C334	0.361300	0.714300	0.555600
C3351	C335	0.273400	0.641100	0.570800
C3361	C336	0.314600	0.619500	0.536800
N371	N37	0.431600	0.510870	0.868190
N381	N38	0.639400	0.526020	0.898570
N391	N39	0.662900	0.295050	0.855840
N401	N40	0.570700	0.572300	0.830060
N411	N41	0.396500	0.611950	0.874610
N421	N42	0.298700	0.687800	0.695470
N431	N43	0.600100	0.628220	0.899230
N441	N44	0.473200	0.561190	0.940870
N451	N45	0.703700	0.687600	0.081250
N461	N46	0.068400	0.010870	0.131810
N471	N47	0.860600	0.026020	0.101430
N481	N48	0.837100	0.795050	0.144160
N491	N49	0.929300	0.072300	0.169940
N501	N50	0.103500	0.111950	0.125390
N511	N51	0.201300	0.187800	0.304530
N521	N52	0.899900	0.128220	0.100770
N531	N53	0.026800	0.061190	0.059130
N541	N54	0.796300	0.187600	0.918750
N551	N55	0.931600	0.010870	0.631810
N561	N56	0.139400	0.026020	0.601430
N571	N57	0.162900	0.795050	0.644160
N581	N58	0.070700	0.072300	0.669940
N591	N59	0.896500	0.111950	0.625390
N601	N60	0.798700	0.187800	0.804530
N611	N61	0.100100	0.128220	0.600770
N621	N62	0.973200	0.061190	0.559130
N631	N63	0.203700	0.187600	0.418750
N641	N64	0.568400	0.510870	0.368190
N651	N65	0.360600	0.526020	0.398570
N661	N66	0.337100	0.295050	0.355840
N671	N67	0.429300	0.572300	0.330060
N681	N68	0.603500	0.611950	0.374610
N691	N69	0.701300	0.687800	0.195470
N701	N70	0.399900	0.628220	0.399230
N711	N71	0.526800	0.561190	0.440870
N721	N72	0.296300	0.687600	0.581250
