data_FIFNUE_clean_PM
_symmetry_space_group_name_H-M	'P1'
_cell_length_a	8.130900
_cell_length_b	10.510800
_cell_length_c	11.419400
_cell_angle_alpha	62.599000
_cell_angle_beta	84.408500
_cell_angle_gamma	77.777000
_symmetry_Int_Tables_number 1

loop_
_symmetry_equiv_pos_as_xyz
'x,y,z'

loop_
_atom_site_label
_atom_site_type_symbol
_atom_site_fract_x
_atom_site_fract_y
_atom_site_fract_z
Co11	Co1	0.489930	0.688250	0.507580
Co21	Co2	0.989930	0.195830	0.492420
H11	H1	0.587800	0.569900	0.799000
H21	H2	0.405500	0.378100	0.635000
H31	H3	0.583500	0.373300	0.001400
H41	H4	0.398600	0.178800	0.830000
H51	H5	0.538100	0.211900	0.185600
H61	H6	0.423000	0.986700	0.011200
H71	H7	0.536700	0.009600	0.383800
H81	H8	0.419000	0.792900	0.216000
H91	H9	0.702400	0.394300	0.541600
H101	H10	0.087800	0.368900	0.201000
H111	H11	0.905500	0.013100	0.365000
H121	H12	0.083500	0.374700	0.998600
H131	H13	0.898600	0.008800	0.170000
H141	H14	0.038100	0.397500	0.814400
H151	H15	0.923000	0.997900	0.988800
H161	H16	0.036700	0.393400	0.616200
H171	H17	0.919000	0.008900	0.784000
H181	H18	0.202400	0.935900	0.458400
C11	C1	0.548100	0.490390	0.805020
C21	C2	0.441900	0.377680	0.709840
C31	C3	0.546000	0.371670	0.927860
C41	C4	0.437100	0.257620	0.826760
C51	C5	0.489000	0.251450	0.941500
C61	C6	0.483200	0.123100	0.072200
C71	C7	0.515600	0.127210	0.188780
C81	C8	0.446700	0.994630	0.085340
C91	C9	0.513700	0.005030	0.307740
C101	C10	0.445700	0.877710	0.209580
C111	C11	0.725300	0.456570	0.454860
C121	C12	0.048100	0.295410	0.194980
C131	C13	0.941900	0.087520	0.290160
C141	C14	0.046000	0.299530	0.072140
C151	C15	0.937100	0.084380	0.173240
C161	C16	0.989000	0.192950	0.058500
C171	C17	0.983200	0.195300	0.927800
C181	C18	0.015600	0.315990	0.811220
C191	C19	0.946700	0.079970	0.914660
C201	C20	0.013700	0.312770	0.692260
C211	C21	0.945700	0.087290	0.790420
C221	C22	0.225300	0.911430	0.545140
N11	N1	0.496500	0.496610	0.695780
N21	N2	0.480800	0.879710	0.320380
N31	N3	0.996500	0.192390	0.304220
N41	N4	0.980800	0.200090	0.679620
O11	O1	0.638800	0.582710	0.404980
O21	O2	0.840500	0.407990	0.396620
O31	O3	0.138800	0.987690	0.595020
O41	O4	0.340500	0.804610	0.603380
