data_FIJDIM02_clean_PM
_symmetry_space_group_name_H-M	'P1'
_cell_length_a	10.684300
_cell_length_b	13.484100
_cell_length_c	14.378900
_cell_angle_alpha	76.880400
_cell_angle_beta	68.190100
_cell_angle_gamma	66.660300
_symmetry_Int_Tables_number 1

loop_
_symmetry_equiv_pos_as_xyz
'x,y,z'

loop_
_atom_site_label
_atom_site_type_symbol
_atom_site_fract_x
_atom_site_fract_y
_atom_site_fract_z
Mn11	Mn1	0.856650	0.039210	0.109330
Mn21	Mn2	0.505190	0.460790	0.390670
Mn31	Mn3	0.143350	0.960790	0.890670
Mn41	Mn4	0.494810	0.539210	0.609330
Mn51	Mn5	0.781390	0.250000	0.250000
Mn61	Mn6	0.218610	0.750000	0.750000
H11	H1	0.201200	0.181300	0.846700
H21	H2	0.297100	0.313500	0.752500
H31	H3	0.953200	0.542200	0.907600
H41	H4	0.864200	0.409000	0.009400
H51	H5	0.543700	0.162100	0.447900
H61	H6	0.580000	0.874700	0.385300
H71	H7	0.729200	0.318700	0.653300
H81	H8	0.863100	0.186500	0.747500
H91	H9	0.903000	0.957800	0.592400
H101	H10	0.782600	0.091000	0.490600
H111	H11	0.653700	0.337900	0.052100
H121	H12	0.340000	0.625300	0.114700
H131	H13	0.798800	0.818700	0.153300
H141	H14	0.702900	0.686500	0.247500
H151	H15	0.046800	0.457800	0.092400
H161	H16	0.135800	0.591000	0.990600
H171	H17	0.456300	0.837900	0.552100
H181	H18	0.420000	0.125300	0.614700
H191	H19	0.270800	0.681300	0.346700
H201	H20	0.136900	0.813500	0.252500
H211	H21	0.097000	0.042200	0.407600
H221	H22	0.217400	0.909000	0.509400
H231	H23	0.346300	0.662100	0.947900
H241	H24	0.660000	0.374700	0.885300
C11	C1	0.967800	0.195540	0.004260
C21	C2	0.024450	0.281740	0.939160
C31	C3	0.152900	0.253320	0.860680
C41	C4	0.209200	0.332920	0.803080
C51	C5	0.134920	0.440930	0.820630
C61	C6	0.004680	0.469540	0.896700
C71	C7	0.950340	0.389650	0.957070
C81	C8	0.200730	0.525620	0.760320
C91	C9	0.659900	0.043980	0.293420
C101	C10	0.575550	0.021700	0.400200
C111	C11	0.526460	0.096870	0.468810
C121	C12	0.548220	0.924870	0.431290
C131	C13	0.667600	0.304460	0.495740
C141	C14	0.745350	0.218260	0.560840
C151	C15	0.766900	0.246680	0.639320
C161	C16	0.845200	0.167080	0.696920
C171	C17	0.896480	0.059070	0.679370
C181	C18	0.870920	0.030460	0.603300
C191	C19	0.797060	0.110350	0.542930
C201	C20	0.986670	0.974380	0.739680
C211	C21	0.497300	0.456020	0.206580
C221	C22	0.497450	0.478300	0.099800
C231	C23	0.592140	0.403130	0.031190
C241	C24	0.404380	0.575130	0.068710
C251	C25	0.032200	0.804460	0.995740
C261	C26	0.975550	0.718260	0.060840
C271	C27	0.847100	0.746680	0.139320
C281	C28	0.790800	0.667080	0.196920
C291	C29	0.865080	0.559070	0.179370
C301	C30	0.995320	0.530460	0.103300
C311	C31	0.049660	0.610350	0.042930
C321	C32	0.799270	0.474380	0.239680
C331	C33	0.340100	0.956020	0.706580
C341	C34	0.424450	0.978300	0.599800
C351	C35	0.473540	0.903130	0.531190
C361	C36	0.451780	0.075130	0.568710
C371	C37	0.332400	0.695540	0.504260
C381	C38	0.254650	0.781740	0.439160
C391	C39	0.233100	0.753320	0.360680
C401	C40	0.154800	0.832920	0.303080
C411	C41	0.103520	0.940930	0.320630
C421	C42	0.129080	0.969540	0.396700
C431	C43	0.202940	0.889650	0.457070
C441	C44	0.013330	0.025620	0.260320
C451	C45	0.502700	0.543980	0.793420
C461	C46	0.502550	0.521700	0.900200
C471	C47	0.407860	0.596870	0.968810
C481	C48	0.595620	0.424870	0.931290
O11	O1	0.018300	0.101160	0.976040
O21	O2	0.867660	0.216750	0.086330
O31	O3	0.136950	0.621650	0.783850
O41	O4	0.317620	0.491680	0.692080
O51	O5	0.679950	0.133530	0.265170
O61	O6	0.709200	0.972530	0.234270
O71	O7	0.595500	0.398840	0.523960
O81	O8	0.670740	0.283250	0.413670
O91	O9	0.042450	0.878350	0.716150
O101	O10	0.001380	0.008320	0.807920
O111	O11	0.578650	0.366470	0.234830
O121	O12	0.416000	0.527470	0.265730
O131	O13	0.981700	0.898840	0.023960
O141	O14	0.132340	0.783250	0.913670
O151	O15	0.863050	0.378350	0.216150
O161	O16	0.682380	0.508320	0.307920
O171	O17	0.320050	0.866470	0.734830
O181	O18	0.290800	0.027470	0.765730
O191	O19	0.404500	0.601160	0.476040
O201	O20	0.329260	0.716750	0.586330
O211	O21	0.957550	0.121650	0.283850
O221	O22	0.998620	0.991680	0.192080
O231	O23	0.421350	0.633530	0.765170
O241	O24	0.584000	0.472530	0.734270
