data_FIJDIM07_clean_PM
_symmetry_space_group_name_H-M	'P1'
_cell_length_a	10.796400
_cell_length_b	13.499600
_cell_length_c	14.427400
_cell_angle_alpha	76.526300
_cell_angle_beta	68.027500
_cell_angle_gamma	66.429500
_symmetry_Int_Tables_number 1

loop_
_symmetry_equiv_pos_as_xyz
'x,y,z'

loop_
_atom_site_label
_atom_site_type_symbol
_atom_site_fract_x
_atom_site_fract_y
_atom_site_fract_z
Mn11	Mn1	0.859680	0.038340	0.110700
Mn21	Mn2	0.508720	0.461660	0.389300
Mn31	Mn3	0.140320	0.961660	0.889300
Mn41	Mn4	0.491280	0.538340	0.610700
Mn51	Mn5	0.784880	0.250000	0.250000
Mn61	Mn6	0.215120	0.750000	0.750000
H11	H1	0.201300	0.180300	0.847500
H21	H2	0.295900	0.312600	0.753000
H31	H3	0.955000	0.541000	0.907600
H41	H4	0.867100	0.407800	0.009200
H51	H5	0.548000	0.160200	0.450400
H61	H6	0.578600	0.877300	0.384100
H71	H7	0.729100	0.319700	0.652500
H81	H8	0.861500	0.187400	0.747000
H91	H9	0.903600	0.959000	0.592400
H101	H10	0.784100	0.092200	0.490800
H111	H11	0.658600	0.339800	0.049600
H121	H12	0.340000	0.622700	0.115900
H131	H13	0.798700	0.819700	0.152500
H141	H14	0.704100	0.687400	0.247000
H151	H15	0.045000	0.459000	0.092400
H161	H16	0.132900	0.592200	0.990800
H171	H17	0.452000	0.839800	0.549600
H181	H18	0.421400	0.122700	0.615900
H191	H19	0.270900	0.680300	0.347500
H201	H20	0.138500	0.812600	0.253000
H211	H21	0.096400	0.041000	0.407600
H221	H22	0.215900	0.907800	0.509200
H231	H23	0.341400	0.660200	0.950400
H241	H24	0.660000	0.377300	0.884100
C11	C1	0.968860	0.194950	0.003930
C21	C2	0.025690	0.281020	0.939200
C31	C3	0.153180	0.252500	0.861140
C41	C4	0.208600	0.332120	0.803480
C51	C5	0.134940	0.440170	0.820550
C61	C6	0.006050	0.468420	0.896680
C71	C7	0.952410	0.388620	0.956960
C81	C8	0.199720	0.524960	0.759600
C91	C9	0.664130	0.044060	0.295480
C101	C10	0.577610	0.021730	0.401250
C111	C11	0.529070	0.095680	0.470380
C121	C12	0.547500	0.926480	0.430720
C131	C13	0.667740	0.305050	0.496070
C141	C14	0.745910	0.218980	0.560800
C151	C15	0.766820	0.247500	0.638860
C161	C16	0.844200	0.167880	0.696520
C171	C17	0.895660	0.059830	0.679450
C181	C18	0.871150	0.031580	0.603320
C191	C19	0.797990	0.111380	0.543040
C201	C20	0.984280	0.975040	0.740400
C211	C21	0.503670	0.455940	0.204520
C221	C22	0.500590	0.478270	0.098750
C231	C23	0.595130	0.404320	0.029620
C241	C24	0.404700	0.573520	0.069280
C251	C25	0.031140	0.805050	0.996070
C261	C26	0.974310	0.718980	0.060800
C271	C27	0.846820	0.747500	0.138860
C281	C28	0.791400	0.667880	0.196520
C291	C29	0.865060	0.559830	0.179450
C301	C30	0.993950	0.531580	0.103320
C311	C31	0.047590	0.611380	0.043040
C321	C32	0.800280	0.475040	0.240400
C331	C33	0.335870	0.955940	0.704520
C341	C34	0.422390	0.978270	0.598750
C351	C35	0.470930	0.904320	0.529620
C361	C36	0.452500	0.073520	0.569280
C371	C37	0.332260	0.694950	0.503930
C381	C38	0.254090	0.781020	0.439200
C391	C39	0.233180	0.752500	0.361140
C401	C40	0.155800	0.832120	0.303480
C411	C41	0.104340	0.940170	0.320550
C421	C42	0.128850	0.968420	0.396680
C431	C43	0.202010	0.888620	0.456960
C441	C44	0.015720	0.024960	0.259600
C451	C45	0.496330	0.544060	0.795480
C461	C46	0.499410	0.521730	0.901250
C471	C47	0.404870	0.595680	0.970380
C481	C48	0.595300	0.426480	0.930720
O11	O1	0.017830	0.101290	0.975690
O21	O2	0.870650	0.215910	0.086310
O31	O3	0.136140	0.620850	0.782790
O41	O4	0.314510	0.491330	0.691450
O51	O5	0.684310	0.133310	0.267690
O61	O6	0.714480	0.972470	0.236570
O71	O7	0.594810	0.398710	0.524310
O81	O8	0.672870	0.284090	0.413690
O91	O9	0.039780	0.879150	0.717210
O101	O10	0.997290	0.008670	0.808550
O111	O11	0.585310	0.366690	0.232310
O121	O12	0.423520	0.527530	0.263430
O131	O13	0.982170	0.898710	0.024310
O141	O14	0.129350	0.784090	0.913690
O151	O15	0.863860	0.379150	0.217210
O161	O16	0.685490	0.508670	0.308550
O171	O17	0.315690	0.866690	0.732310
O181	O18	0.285520	0.027530	0.763430
O191	O19	0.405190	0.601290	0.475690
O201	O20	0.327130	0.715910	0.586310
O211	O21	0.960220	0.120850	0.282790
O221	O22	0.002710	0.991330	0.191450
O231	O23	0.414690	0.633310	0.767690
O241	O24	0.576480	0.472470	0.736570
