data_FIJDIM08_clean_PM
_symmetry_space_group_name_H-M	'P1'
_cell_length_a	10.826700
_cell_length_b	13.504600
_cell_length_c	14.443600
_cell_angle_alpha	76.456600
_cell_angle_beta	67.988600
_cell_angle_gamma	66.368500
_symmetry_Int_Tables_number 1

loop_
_symmetry_equiv_pos_as_xyz
'x,y,z'

loop_
_atom_site_label
_atom_site_type_symbol
_atom_site_fract_x
_atom_site_fract_y
_atom_site_fract_z
Mn11	Mn1	0.860360	0.038130	0.111070
Mn21	Mn2	0.509560	0.461870	0.388930
Mn31	Mn3	0.139640	0.961870	0.888930
Mn41	Mn4	0.490440	0.538130	0.611070
Mn51	Mn5	0.785550	0.250000	0.250000
Mn61	Mn6	0.214450	0.750000	0.750000
H11	H1	0.201600	0.180300	0.847900
H21	H2	0.295300	0.312400	0.753200
H31	H3	0.955400	0.541000	0.907600
H41	H4	0.867700	0.407900	0.009100
H51	H5	0.549500	0.159400	0.451200
H61	H6	0.578700	0.877800	0.384000
H71	H7	0.729800	0.319700	0.652100
H81	H8	0.860900	0.187600	0.746800
H91	H9	0.904000	0.959000	0.592400
H101	H10	0.784700	0.092100	0.490900
H111	H11	0.660100	0.340600	0.048800
H121	H12	0.340500	0.622200	0.116000
H131	H13	0.798400	0.819700	0.152100
H141	H14	0.704700	0.687600	0.246800
H151	H15	0.044600	0.459000	0.092400
H161	H16	0.132300	0.592100	0.990900
H171	H17	0.450500	0.840600	0.548800
H181	H18	0.421300	0.122200	0.616000
H191	H19	0.270200	0.680300	0.347900
H201	H20	0.139100	0.812400	0.253200
H211	H21	0.096000	0.041000	0.407600
H221	H22	0.215300	0.907900	0.509100
H231	H23	0.339900	0.659400	0.951200
H241	H24	0.659500	0.377800	0.884000
C11	C1	0.969200	0.194860	0.003940
C21	C2	0.025870	0.280790	0.939270
C31	C3	0.153300	0.252420	0.861380
C41	C4	0.208250	0.331960	0.803740
C51	C5	0.135040	0.440160	0.820560
C61	C6	0.006410	0.468370	0.896610
C71	C7	0.952890	0.388560	0.956860
C81	C8	0.199180	0.524840	0.759600
C91	C9	0.665150	0.044050	0.295850
C101	C10	0.577960	0.021890	0.401590
C111	C11	0.529920	0.095150	0.470810
C121	C12	0.547470	0.926860	0.430600
C131	C13	0.668000	0.305140	0.496060
C141	C14	0.745930	0.219210	0.560730
C151	C15	0.767100	0.247580	0.638620
C161	C16	0.843950	0.168040	0.696260
C171	C17	0.895760	0.059840	0.679440
C181	C18	0.871390	0.031630	0.603390
C191	C19	0.798310	0.111440	0.543140
C201	C20	0.983620	0.975160	0.740400
C211	C21	0.505050	0.455950	0.204150
C221	C22	0.501440	0.478110	0.098410
C231	C23	0.595880	0.404850	0.029190
C241	C24	0.404930	0.573140	0.069400
C251	C25	0.030800	0.805140	0.996060
C261	C26	0.974130	0.719210	0.060730
C271	C27	0.846700	0.747580	0.138620
C281	C28	0.791750	0.668040	0.196260
C291	C29	0.864960	0.559840	0.179440
C301	C30	0.993590	0.531630	0.103390
C311	C31	0.047110	0.611440	0.043140
C321	C32	0.800820	0.475160	0.240400
C331	C33	0.334850	0.955950	0.704150
C341	C34	0.422040	0.978110	0.598410
C351	C35	0.470080	0.904850	0.529190
C361	C36	0.452530	0.073140	0.569400
C371	C37	0.332000	0.694860	0.503940
C381	C38	0.254070	0.780790	0.439270
C391	C39	0.232900	0.752420	0.361380
C401	C40	0.156050	0.831960	0.303740
C411	C41	0.104240	0.940160	0.320560
C421	C42	0.128610	0.968370	0.396610
C431	C43	0.201690	0.888560	0.456860
C441	C44	0.016380	0.024840	0.259600
C451	C45	0.494950	0.544050	0.795850
C461	C46	0.498560	0.521890	0.901590
C471	C47	0.404120	0.595150	0.970810
C481	C48	0.595070	0.426860	0.930600
O11	O1	0.017640	0.101310	0.975550
O21	O2	0.871130	0.215890	0.086270
O31	O3	0.136170	0.620690	0.782570
O41	O4	0.313980	0.491150	0.691290
O51	O5	0.685230	0.133240	0.268300
O61	O6	0.715670	0.972460	0.237200
O71	O7	0.594500	0.398690	0.524450
O81	O8	0.673290	0.284110	0.413730
O91	O9	0.039430	0.879310	0.717430
O101	O10	0.996420	0.008850	0.808710
O111	O11	0.586770	0.366760	0.231700
O121	O12	0.425330	0.527540	0.262800
O131	O13	0.982360	0.898690	0.024450
O141	O14	0.128870	0.784110	0.913730
O151	O15	0.863830	0.379310	0.217430
O161	O16	0.686020	0.508850	0.308710
O171	O17	0.314770	0.866760	0.731700
O181	O18	0.284330	0.027540	0.762800
O191	O19	0.405500	0.601310	0.475550
O201	O20	0.326710	0.715890	0.586270
O211	O21	0.960570	0.120690	0.282570
O221	O22	0.003580	0.991150	0.191290
O231	O23	0.413230	0.633240	0.768300
O241	O24	0.574670	0.472460	0.737200
