data_FIJDIM11_clean_PM
_symmetry_space_group_name_H-M	'P1'
_cell_length_a	10.657000
_cell_length_b	13.536900
_cell_length_c	14.417300
_cell_angle_alpha	76.981600
_cell_angle_beta	68.309500
_cell_angle_gamma	66.819500
_symmetry_Int_Tables_number 1

loop_
_symmetry_equiv_pos_as_xyz
'x,y,z'

loop_
_atom_site_label
_atom_site_type_symbol
_atom_site_fract_x
_atom_site_fract_y
_atom_site_fract_z
Mn11	Mn1	0.355760	0.539160	0.609160
Mn21	Mn2	0.004070	0.960850	0.890840
Mn31	Mn3	0.644240	0.460850	0.390840
Mn41	Mn4	0.995930	0.039150	0.109160
Mn51	Mn5	0.280170	0.750000	0.750000
Mn61	Mn6	0.719830	0.250000	0.250000
H11	H1	0.700900	0.682000	0.347200
H21	H2	0.797300	0.813500	0.252900
H31	H3	0.450600	0.042400	0.407600
H41	H4	0.361100	0.909600	0.509000
H51	H5	0.042300	0.662700	0.946900
H61	H6	0.082600	0.373400	0.886000
H71	H7	0.230100	0.818000	0.152800
H81	H8	0.363700	0.686500	0.247100
H91	H9	0.400600	0.457600	0.092400
H101	H10	0.279700	0.590400	0.991000
H111	H11	0.151900	0.837300	0.553100
H121	H12	0.842000	0.126600	0.614000
H131	H13	0.299100	0.318000	0.652800
H141	H14	0.202700	0.186500	0.747100
H151	H15	0.549400	0.957600	0.592400
H161	H16	0.638900	0.090400	0.491000
H171	H17	0.957700	0.337300	0.053100
H181	H18	0.917400	0.626600	0.114000
H191	H19	0.769900	0.182000	0.847200
H201	H20	0.636300	0.313500	0.752900
H211	H21	0.599400	0.542400	0.907600
H221	H22	0.720300	0.409600	0.009000
H231	H23	0.848100	0.162700	0.446900
H241	H24	0.158000	0.873400	0.386000
C11	C1	0.466720	0.695640	0.504540
C21	C2	0.523300	0.781980	0.439460
C31	C3	0.652580	0.753750	0.361010
C41	C4	0.709240	0.833040	0.303300
C51	C5	0.634430	0.941700	0.320800
C61	C6	0.502330	0.970150	0.396970
C71	C7	0.447650	0.890450	0.457190
C81	C8	0.700730	0.025820	0.260340
C91	C9	0.158570	0.543820	0.793020
C101	C10	0.074940	0.521650	0.899890
C111	C11	0.025390	0.597630	0.968170
C121	C12	0.049640	0.424000	0.931540
C131	C13	0.166900	0.804360	0.995460
C141	C14	0.244740	0.718020	0.060540
C151	C15	0.267340	0.746250	0.138990
C161	C16	0.345580	0.666960	0.196700
C171	C17	0.396930	0.558300	0.179200
C181	C18	0.369450	0.529850	0.103030
C191	C19	0.295290	0.609550	0.042810
C201	C20	0.486890	0.474180	0.239660
C211	C21	0.995410	0.956180	0.706980
C221	C22	0.996480	0.978350	0.600110
C231	C23	0.091190	0.902370	0.531830
C241	C24	0.905180	0.076000	0.568460
C251	C25	0.533280	0.304360	0.495460
C261	C26	0.476700	0.218020	0.560540
C271	C27	0.347420	0.246250	0.638990
C281	C28	0.290760	0.166960	0.696700
C291	C29	0.365570	0.058300	0.679200
C301	C30	0.497670	0.029850	0.603030
C311	C31	0.552350	0.109550	0.542810
C321	C32	0.299270	0.974180	0.739660
C331	C33	0.841430	0.456180	0.206980
C341	C34	0.925060	0.478350	0.100110
C351	C35	0.974610	0.402370	0.031830
C361	C36	0.950360	0.576000	0.068460
C371	C37	0.833100	0.195640	0.004540
C381	C38	0.755260	0.281980	0.939460
C391	C39	0.732660	0.253750	0.861010
C401	C40	0.654420	0.333040	0.803300
C411	C41	0.603070	0.441700	0.820800
C421	C42	0.630550	0.470150	0.896970
C431	C43	0.704710	0.390450	0.957190
C441	C44	0.513110	0.525820	0.760340
C451	C45	0.004590	0.043820	0.293020
C461	C46	0.003520	0.021650	0.399890
C471	C47	0.908810	0.097630	0.468170
C481	C48	0.094820	0.924000	0.431540
O11	O1	0.518420	0.601410	0.476070
O21	O2	0.365940	0.716930	0.586610
O31	O3	0.636710	0.121830	0.284410
O41	O4	0.817540	0.992040	0.191920
O51	O5	0.178120	0.633820	0.763900
O61	O6	0.208290	0.471690	0.734030
O71	O7	0.095900	0.898590	0.023930
O81	O8	0.169480	0.783070	0.913390
O91	O9	0.542950	0.378170	0.215590
O101	O10	0.501500	0.507960	0.308080
O111	O11	0.075840	0.866180	0.736100
O121	O12	0.914010	0.028310	0.765970
O131	O13	0.481580	0.398590	0.523930
O141	O14	0.634060	0.283070	0.413390
O151	O15	0.363290	0.878170	0.715590
O161	O16	0.182460	0.007960	0.808080
O171	O17	0.821880	0.366180	0.236100
O181	O18	0.791710	0.528310	0.265970
O191	O19	0.904100	0.101410	0.976070
O201	O20	0.830520	0.216930	0.086610
O211	O21	0.457050	0.621830	0.784410
O221	O22	0.498500	0.492040	0.691920
O231	O23	0.924160	0.133820	0.263900
O241	O24	0.085990	0.971690	0.234030
