data_FIJDIM01_clean_PM
_symmetry_space_group_name_H-M	'P1'
_cell_length_a	10.657000
_cell_length_b	13.483000
_cell_length_c	14.365000
_cell_angle_alpha	76.865600
_cell_angle_beta	68.226700
_cell_angle_gamma	66.721500
_symmetry_Int_Tables_number 1

loop_
_symmetry_equiv_pos_as_xyz
'x,y,z'

loop_
_atom_site_label
_atom_site_type_symbol
_atom_site_fract_x
_atom_site_fract_y
_atom_site_fract_z
Mn11	Mn1	0.856240	0.039250	0.109210
Mn21	Mn2	0.504700	0.460750	0.390790
Mn31	Mn3	0.143760	0.960750	0.890790
Mn41	Mn4	0.495300	0.539250	0.609210
Mn51	Mn5	0.780860	0.250000	0.250000
Mn61	Mn6	0.219140	0.750000	0.750000
H11	H1	0.201200	0.181700	0.846300
H21	H2	0.297300	0.313700	0.752500
H31	H3	0.953000	0.542100	0.907700
H41	H4	0.863300	0.409100	0.009300
H51	H5	0.543200	0.162400	0.447400
H61	H6	0.580800	0.874400	0.385400
H71	H7	0.729200	0.318300	0.653700
H81	H8	0.863500	0.186300	0.747500
H91	H9	0.902800	0.957900	0.592300
H101	H10	0.781700	0.090900	0.490700
H111	H11	0.653000	0.337600	0.052600
H121	H12	0.340600	0.625600	0.114600
H131	H13	0.798800	0.818300	0.153700
H141	H14	0.702700	0.686300	0.247500
H151	H15	0.047000	0.457900	0.092300
H161	H16	0.136700	0.590900	0.990700
H171	H17	0.456800	0.837600	0.552600
H181	H18	0.419200	0.125600	0.614600
H191	H19	0.270800	0.681700	0.346300
H201	H20	0.136500	0.813700	0.252500
H211	H21	0.097200	0.042100	0.407700
H221	H22	0.218300	0.909100	0.509300
H231	H23	0.347000	0.662400	0.947400
H241	H24	0.659400	0.374400	0.885400
C11	C1	0.967640	0.195520	0.004200
C21	C2	0.024170	0.281740	0.939320
C31	C3	0.152820	0.253650	0.860510
C41	C4	0.209060	0.333210	0.803070
C51	C5	0.134880	0.441140	0.820500
C61	C6	0.004350	0.469540	0.896760
C71	C7	0.949720	0.389840	0.957120
C81	C8	0.200520	0.525810	0.760550
C91	C9	0.659180	0.043880	0.293160
C101	C10	0.575130	0.021850	0.400090
C111	C11	0.526120	0.097060	0.468500
C121	C12	0.548660	0.924730	0.431350
C131	C13	0.667360	0.304480	0.495800
C141	C14	0.745230	0.218260	0.560680
C151	C15	0.766980	0.246350	0.639490
C161	C16	0.845340	0.166790	0.696930
C171	C17	0.896520	0.058860	0.679500
C181	C18	0.870650	0.030460	0.603240
C191	C19	0.796680	0.110160	0.542880
C201	C20	0.986880	0.974190	0.739450
C211	C21	0.496220	0.456120	0.206840
C221	C22	0.497070	0.478150	0.099910
C231	C23	0.591680	0.402940	0.031500
C241	C24	0.404740	0.575270	0.068650
C251	C25	0.032360	0.804480	0.995800
C261	C26	0.975830	0.718260	0.060680
C271	C27	0.847180	0.746350	0.139490
C281	C28	0.790940	0.666790	0.196930
C291	C29	0.865120	0.558860	0.179500
C301	C30	0.995650	0.530460	0.103240
C311	C31	0.050280	0.610160	0.042880
C321	C32	0.799480	0.474190	0.239450
C331	C33	0.340820	0.956120	0.706840
C341	C34	0.424870	0.978150	0.599910
C351	C35	0.473880	0.902940	0.531500
C361	C36	0.451340	0.075270	0.568650
C371	C37	0.332640	0.695520	0.504200
C381	C38	0.254770	0.781740	0.439320
C391	C39	0.233020	0.753650	0.360510
C401	C40	0.154660	0.833210	0.303070
C411	C41	0.103480	0.941140	0.320500
C421	C42	0.129350	0.969540	0.396760
C431	C43	0.203320	0.889840	0.457120
C441	C44	0.013120	0.025810	0.260550
C451	C45	0.503780	0.543880	0.793160
C461	C46	0.502930	0.521850	0.900090
C471	C47	0.408320	0.597060	0.968500
C481	C48	0.595260	0.424730	0.931350
O11	O1	0.018380	0.101210	0.976230
O21	O2	0.867050	0.216850	0.086450
O31	O3	0.137170	0.621800	0.783860
O41	O4	0.317740	0.491840	0.692080
O51	O5	0.679170	0.133770	0.264690
O61	O6	0.708810	0.972110	0.234070
O71	O7	0.595820	0.398790	0.523770
O81	O8	0.670350	0.283150	0.413550
O91	O9	0.042830	0.878200	0.716140
O101	O10	0.001660	0.008160	0.807920
O111	O11	0.577630	0.366230	0.235310
O121	O12	0.414990	0.527890	0.265930
O131	O13	0.981620	0.898790	0.023770
O141	O14	0.132950	0.783150	0.913550
O151	O15	0.862830	0.378200	0.216140
O161	O16	0.682260	0.508160	0.307920
O171	O17	0.320830	0.866230	0.735310
O181	O18	0.291190	0.027890	0.765930
O191	O19	0.404180	0.601210	0.476230
O201	O20	0.329650	0.716850	0.586450
O211	O21	0.957170	0.121800	0.283860
O221	O22	0.998340	0.991840	0.192080
O231	O23	0.422370	0.633770	0.764690
O241	O24	0.585010	0.472110	0.734070
