data_FIJDIM05_clean_PM
_symmetry_space_group_name_H-M	'P1'
_cell_length_a	10.753100
_cell_length_b	13.503200
_cell_length_c	14.410200
_cell_angle_alpha	76.637700
_cell_angle_beta	68.092700
_cell_angle_gamma	66.536200
_symmetry_Int_Tables_number 1

loop_
_symmetry_equiv_pos_as_xyz
'x,y,z'

loop_
_atom_site_label
_atom_site_type_symbol
_atom_site_fract_x
_atom_site_fract_y
_atom_site_fract_z
Mn11	Mn1	0.858320	0.038790	0.110040
Mn21	Mn2	0.507150	0.461210	0.389960
Mn31	Mn3	0.141680	0.961210	0.889960
Mn41	Mn4	0.492850	0.538790	0.610040
Mn51	Mn5	0.783460	0.250000	0.250000
Mn61	Mn6	0.216540	0.750000	0.750000
H11	H1	0.201600	0.180800	0.846800
H21	H2	0.296500	0.313000	0.752800
H31	H3	0.955300	0.541200	0.907800
H41	H4	0.865500	0.408300	0.009100
H51	H5	0.546700	0.160800	0.449400
H61	H6	0.578200	0.876800	0.384400
H71	H7	0.729200	0.319200	0.653200
H81	H8	0.862300	0.187000	0.747200
H91	H9	0.904300	0.958800	0.592200
H101	H10	0.782900	0.091700	0.490900
H111	H11	0.656900	0.339200	0.050600
H121	H12	0.339400	0.623200	0.115600
H131	H13	0.798400	0.819200	0.153200
H141	H14	0.703500	0.687000	0.247200
H151	H15	0.044700	0.458800	0.092200
H161	H16	0.134500	0.591700	0.990900
H171	H17	0.453300	0.839200	0.550600
H181	H18	0.421800	0.123200	0.615600
H191	H19	0.270800	0.680800	0.346800
H201	H20	0.137700	0.813000	0.252800
H211	H21	0.095700	0.041200	0.407800
H221	H22	0.217100	0.908300	0.509100
H231	H23	0.343100	0.660800	0.949400
H241	H24	0.660600	0.376800	0.884400
C11	C1	0.968750	0.195170	0.003930
C21	C2	0.025590	0.280980	0.939040
C31	C3	0.153410	0.252830	0.860750
C41	C4	0.208900	0.332480	0.803320
C51	C5	0.135340	0.440420	0.820500
C61	C6	0.006150	0.468640	0.896660
C71	C7	0.951390	0.389030	0.956990
C81	C8	0.200160	0.525130	0.759950
C91	C9	0.662230	0.044250	0.294490
C101	C10	0.576840	0.021830	0.400690
C111	C11	0.528390	0.096040	0.469780
C121	C12	0.547320	0.926140	0.430820
C131	C13	0.667850	0.304830	0.496070
C141	C14	0.745610	0.219020	0.560960
C151	C15	0.766990	0.247170	0.639250
C161	C16	0.844700	0.167520	0.696680
C171	C17	0.896260	0.059580	0.679500
C181	C18	0.871450	0.031360	0.603340
C191	C19	0.797410	0.110970	0.543010
C201	C20	0.985240	0.974870	0.740050
C211	C21	0.500970	0.455750	0.205510
C221	C22	0.499360	0.478170	0.099310
C231	C23	0.594210	0.403960	0.030220
C241	C24	0.404280	0.573860	0.069180
C251	C25	0.031250	0.804830	0.996070
C261	C26	0.974410	0.719020	0.060960
C271	C27	0.846590	0.747170	0.139250
C281	C28	0.791100	0.667520	0.196680
C291	C29	0.864660	0.559580	0.179500
C301	C30	0.993850	0.531360	0.103340
C311	C31	0.048610	0.610970	0.043010
C321	C32	0.799840	0.474870	0.240050
C331	C33	0.337770	0.955750	0.705510
C341	C34	0.423160	0.978170	0.599310
C351	C35	0.471610	0.903960	0.530220
C361	C36	0.452680	0.073860	0.569180
C371	C37	0.332150	0.695170	0.503930
C381	C38	0.254390	0.780980	0.439040
C391	C39	0.233010	0.752830	0.360750
C401	C40	0.155300	0.832480	0.303320
C411	C41	0.103740	0.940420	0.320500
C421	C42	0.128550	0.968640	0.396660
C431	C43	0.202590	0.889030	0.456990
C441	C44	0.014760	0.025130	0.259950
C451	C45	0.499030	0.544250	0.794490
C461	C46	0.500640	0.521830	0.900690
C471	C47	0.405790	0.596040	0.969780
C481	C48	0.595720	0.426140	0.930820
O11	O1	0.018210	0.101170	0.975810
O21	O2	0.869540	0.216320	0.086280
O31	O3	0.136680	0.621120	0.783120
O41	O4	0.316110	0.491450	0.691730
O51	O5	0.682430	0.133530	0.266610
O61	O6	0.711720	0.972750	0.235410
O71	O7	0.595190	0.398830	0.524190
O81	O8	0.672140	0.283680	0.413720
O91	O9	0.040920	0.878880	0.716880
O101	O10	0.999290	0.008550	0.808270
O111	O11	0.582570	0.366470	0.233390
O121	O12	0.419880	0.527250	0.264590
O131	O13	0.981790	0.898830	0.024190
O141	O14	0.130460	0.783680	0.913720
O151	O15	0.863320	0.378880	0.216880
O161	O16	0.683890	0.508550	0.308270
O171	O17	0.317570	0.866470	0.733390
O181	O18	0.288280	0.027250	0.764590
O191	O19	0.404810	0.601170	0.475810
O201	O20	0.327860	0.716320	0.586280
O211	O21	0.959080	0.121120	0.283120
O221	O22	0.000710	0.991450	0.191730
O231	O23	0.417430	0.633530	0.766610
O241	O24	0.580120	0.472750	0.735410
