data_FIJDIM03_clean_PM
_symmetry_space_group_name_H-M	'P1'
_cell_length_a	10.697800
_cell_length_b	13.491200
_cell_length_c	14.384300
_cell_angle_alpha	76.770800
_cell_angle_beta	68.169900
_cell_angle_gamma	66.642200
_symmetry_Int_Tables_number 1

loop_
_symmetry_equiv_pos_as_xyz
'x,y,z'

loop_
_atom_site_label
_atom_site_type_symbol
_atom_site_fract_x
_atom_site_fract_y
_atom_site_fract_z
Mn11	Mn1	0.857090	0.039110	0.109510
Mn21	Mn2	0.505710	0.460890	0.390490
Mn31	Mn3	0.142910	0.960890	0.890490
Mn41	Mn4	0.494290	0.539110	0.609510
Mn51	Mn5	0.782020	0.250000	0.250000
Mn61	Mn6	0.217980	0.750000	0.750000
H11	H1	0.201200	0.181400	0.846600
H21	H2	0.297100	0.313400	0.752600
H31	H3	0.954400	0.541600	0.907600
H41	H4	0.864600	0.408900	0.009300
H51	H5	0.545200	0.161600	0.448200
H61	H6	0.579400	0.875300	0.385100
H71	H7	0.729200	0.318600	0.653400
H81	H8	0.863100	0.186600	0.747400
H91	H9	0.903600	0.958400	0.592400
H101	H10	0.782800	0.091100	0.490700
H111	H11	0.655000	0.338400	0.051800
H121	H12	0.339800	0.624700	0.114900
H131	H13	0.798800	0.818600	0.153400
H141	H14	0.702900	0.686600	0.247400
H151	H15	0.045600	0.458400	0.092400
H161	H16	0.135400	0.591100	0.990700
H171	H17	0.454800	0.838400	0.551800
H181	H18	0.420600	0.124700	0.614900
H191	H19	0.270800	0.681400	0.346600
H201	H20	0.136900	0.813400	0.252600
H211	H21	0.096400	0.041600	0.407600
H221	H22	0.217200	0.908900	0.509300
H231	H23	0.345000	0.661600	0.948200
H241	H24	0.660200	0.375300	0.885100
C11	C1	0.968100	0.195540	0.004060
C21	C2	0.024800	0.281520	0.939080
C31	C3	0.153000	0.253350	0.860650
C41	C4	0.209080	0.332870	0.803170
C51	C5	0.135200	0.440700	0.820500
C61	C6	0.005460	0.469000	0.896680
C71	C7	0.950720	0.389540	0.957020
C81	C8	0.200700	0.525440	0.760160
C91	C9	0.660480	0.044330	0.293710
C101	C10	0.575780	0.021980	0.400260
C111	C11	0.527310	0.096620	0.468960
C121	C12	0.547840	0.925300	0.431220
C131	C13	0.667700	0.304460	0.495940
C141	C14	0.745400	0.218480	0.560920
C151	C15	0.767000	0.246650	0.639350
C161	C16	0.845120	0.167130	0.696830
C171	C17	0.896400	0.059300	0.679500
C181	C18	0.871140	0.031000	0.603320
C191	C19	0.797280	0.110460	0.542980
C201	C20	0.986300	0.974560	0.739840
C211	C21	0.498520	0.455670	0.206290
C221	C22	0.498020	0.478020	0.099740
C231	C23	0.592890	0.403380	0.031040
C241	C24	0.404360	0.574700	0.068780
C251	C25	0.031900	0.804460	0.995940
C261	C26	0.975200	0.718480	0.060920
C271	C27	0.847000	0.746650	0.139350
C281	C28	0.790920	0.667130	0.196830
C291	C29	0.864800	0.559300	0.179500
C301	C30	0.994540	0.531000	0.103320
C311	C31	0.049280	0.610460	0.042980
C321	C32	0.799300	0.474560	0.239840
C331	C33	0.339520	0.955670	0.706290
C341	C34	0.424220	0.978020	0.599740
C351	C35	0.472690	0.903380	0.531040
C361	C36	0.452160	0.074700	0.568780
C371	C37	0.332300	0.695540	0.504060
C381	C38	0.254600	0.781520	0.439080
C391	C39	0.233000	0.753350	0.360650
C401	C40	0.154880	0.832870	0.303170
C411	C41	0.103600	0.940700	0.320500
C421	C42	0.128860	0.969000	0.396680
C431	C43	0.202720	0.889540	0.457020
C441	C44	0.013700	0.025440	0.260160
C451	C45	0.501480	0.544330	0.793710
C461	C46	0.501980	0.521980	0.900260
C471	C47	0.407110	0.596620	0.968960
C481	C48	0.595640	0.425300	0.931220
O11	O1	0.018190	0.101170	0.976050
O21	O2	0.868200	0.216520	0.086280
O31	O3	0.137100	0.621390	0.783610
O41	O4	0.317430	0.491580	0.691960
O51	O5	0.680730	0.133620	0.265520
O61	O6	0.709830	0.972670	0.234470
O71	O7	0.595410	0.398830	0.523950
O81	O8	0.671000	0.283480	0.413720
O91	O9	0.042100	0.878610	0.716390
O101	O10	0.000970	0.008420	0.808040
O111	O11	0.579870	0.366380	0.234480
O121	O12	0.416970	0.527330	0.265530
O131	O13	0.981810	0.898830	0.023950
O141	O14	0.131800	0.783480	0.913720
O151	O15	0.862900	0.378610	0.216390
O161	O16	0.682570	0.508420	0.308040
O171	O17	0.319270	0.866380	0.734480
O181	O18	0.290170	0.027330	0.765530
O191	O19	0.404590	0.601170	0.476050
O201	O20	0.329000	0.716520	0.586280
O211	O21	0.957900	0.121390	0.283610
O221	O22	0.999030	0.991580	0.191960
O231	O23	0.420130	0.633620	0.765520
O241	O24	0.583030	0.472670	0.734470
