data_FIJDIM06_clean_PM
_symmetry_space_group_name_H-M	'P1'
_cell_length_a	10.776800
_cell_length_b	13.505700
_cell_length_c	14.424800
_cell_angle_alpha	76.587200
_cell_angle_beta	68.065200
_cell_angle_gamma	66.486100
_symmetry_Int_Tables_number 1

loop_
_symmetry_equiv_pos_as_xyz
'x,y,z'

loop_
_atom_site_label
_atom_site_type_symbol
_atom_site_fract_x
_atom_site_fract_y
_atom_site_fract_z
Mn11	Mn1	0.858990	0.038560	0.110380
Mn21	Mn2	0.507930	0.461440	0.389620
Mn31	Mn3	0.141010	0.961440	0.889620
Mn41	Mn4	0.492070	0.538560	0.610380
Mn51	Mn5	0.784160	0.250000	0.250000
Mn61	Mn6	0.215840	0.750000	0.750000
H11	H1	0.201500	0.180600	0.847200
H21	H2	0.296100	0.312900	0.752900
H31	H3	0.955000	0.541200	0.907800
H41	H4	0.866400	0.408000	0.009000
H51	H5	0.547700	0.160300	0.450100
H61	H6	0.578500	0.877100	0.384300
H71	H7	0.729300	0.319400	0.652800
H81	H8	0.861900	0.187100	0.747100
H91	H9	0.904000	0.958800	0.592200
H101	H10	0.783400	0.092000	0.491000
H111	H11	0.658100	0.339700	0.049900
H121	H12	0.339900	0.622900	0.115700
H131	H13	0.798500	0.819400	0.152800
H141	H14	0.703900	0.687100	0.247100
H151	H15	0.045000	0.458800	0.092200
H161	H16	0.133600	0.592000	0.991000
H171	H17	0.452300	0.839700	0.549900
H181	H18	0.421500	0.122900	0.615700
H191	H19	0.270700	0.680600	0.347200
H201	H20	0.138100	0.812900	0.252900
H211	H21	0.096000	0.041200	0.407800
H221	H22	0.216600	0.908000	0.509000
H231	H23	0.341900	0.660300	0.950100
H241	H24	0.660100	0.377100	0.884300
C11	C1	0.968830	0.195010	0.003930
C21	C2	0.025630	0.280970	0.939170
C31	C3	0.153290	0.252660	0.860960
C41	C4	0.208680	0.332400	0.803440
C51	C5	0.135230	0.440460	0.820480
C61	C6	0.005930	0.468650	0.896690
C71	C7	0.951990	0.388750	0.956870
C81	C8	0.199900	0.525160	0.759840
C91	C9	0.663110	0.044060	0.294920
C101	C10	0.577220	0.021920	0.401040
C111	C11	0.528990	0.095730	0.470090
C121	C12	0.547480	0.926350	0.430690
C131	C13	0.667770	0.304990	0.496070
C141	C14	0.745770	0.219030	0.560830
C151	C15	0.766910	0.247340	0.639040
C161	C16	0.844520	0.167600	0.696560
C171	C17	0.896170	0.059540	0.679520
C181	C18	0.871270	0.031350	0.603310
C191	C19	0.797610	0.111250	0.543130
C201	C20	0.984900	0.974840	0.740160
C211	C21	0.502090	0.455940	0.205080
C221	C22	0.500180	0.478080	0.098960
C231	C23	0.594810	0.404270	0.029910
C241	C24	0.404520	0.573650	0.069310
C251	C25	0.031170	0.804990	0.996070
C261	C26	0.974370	0.719030	0.060830
C271	C27	0.846710	0.747340	0.139040
C281	C28	0.791320	0.667600	0.196560
C291	C29	0.864770	0.559540	0.179520
C301	C30	0.994070	0.531350	0.103310
C311	C31	0.048010	0.611250	0.043130
C321	C32	0.800100	0.474840	0.240160
C331	C33	0.336890	0.955940	0.705080
C341	C34	0.422780	0.978080	0.598960
C351	C35	0.471010	0.904270	0.529910
C361	C36	0.452520	0.073650	0.569310
C371	C37	0.332230	0.695010	0.503930
C381	C38	0.254230	0.780970	0.439170
C391	C39	0.233090	0.752660	0.360960
C401	C40	0.155480	0.832400	0.303440
C411	C41	0.103830	0.940460	0.320480
C421	C42	0.128730	0.968650	0.396690
C431	C43	0.202390	0.888750	0.456870
C441	C44	0.015100	0.025160	0.259840
C451	C45	0.497910	0.544060	0.794920
C461	C46	0.499820	0.521920	0.901040
C471	C47	0.405190	0.595730	0.970090
C481	C48	0.595480	0.426350	0.930690
O11	O1	0.017850	0.101230	0.975850
O21	O2	0.870040	0.216230	0.086270
O31	O3	0.136460	0.620910	0.782970
O41	O4	0.315300	0.491430	0.691570
O51	O5	0.683300	0.133460	0.267140
O61	O6	0.712950	0.972630	0.236070
O71	O7	0.594930	0.398770	0.524150
O81	O8	0.672540	0.283770	0.413730
O91	O9	0.040340	0.879090	0.717030
O101	O10	0.998300	0.008570	0.808430
O111	O11	0.583900	0.366540	0.232860
O121	O12	0.421650	0.527370	0.263930
O131	O13	0.982150	0.898770	0.024150
O141	O14	0.129960	0.783770	0.913730
O151	O15	0.863540	0.379090	0.217030
O161	O16	0.684700	0.508570	0.308430
O171	O17	0.316700	0.866540	0.732860
O181	O18	0.287050	0.027370	0.763930
O191	O19	0.405070	0.601230	0.475850
O201	O20	0.327460	0.716230	0.586270
O211	O21	0.959660	0.120910	0.282970
O221	O22	0.001700	0.991430	0.191570
O231	O23	0.416100	0.633460	0.767140
O241	O24	0.578350	0.472630	0.736070
