data_FIJGEK_clean_PM
_symmetry_space_group_name_H-M	'P1'
_cell_length_a	24.085000
_cell_length_b	14.393000
_cell_length_c	8.712200
_cell_angle_alpha	90.000000
_cell_angle_beta	94.260000
_cell_angle_gamma	90.000000
_symmetry_Int_Tables_number 1

loop_
_symmetry_equiv_pos_as_xyz
'x,y,z'

loop_
_atom_site_label
_atom_site_type_symbol
_atom_site_fract_x
_atom_site_fract_y
_atom_site_fract_z
P11	P1	0.338170	0.731980	0.429860
P21	P2	0.326030	0.969130	0.939300
P31	P3	0.491580	0.178880	0.526260
Al11	Al1	0.278110	0.876410	0.624040
Al21	Al2	0.450190	0.629790	0.500320
Al31	Al3	0.402120	0.888850	0.240870
O11	O1	0.324890	0.791800	0.568500
O21	O2	0.358180	0.788200	0.300500
O31	O3	0.381480	0.661100	0.492900
O41	O4	0.286310	0.676100	0.374900
O51	O5	0.349890	0.907900	0.068800
O61	O6	0.369530	0.970600	0.374700
O71	O7	0.279150	0.969600	0.498100
O81	O8	0.298110	0.905000	0.813500
O91	O9	0.460130	0.555400	0.654600
O101	O10	0.465490	0.565300	0.344300
O111	O11	0.444350	0.990500	0.164400
O121	O12	0.469630	0.125800	0.382200
O131	O13	0.493030	0.723260	0.529100
O141	O14	0.443060	0.806100	0.126000
O151	O15	0.458120	0.871600	0.402100
H11	H1	0.434000	0.001000	0.102000
P41	P4	0.838170	0.231980	0.429860
P51	P5	0.826030	0.469130	0.939300
P61	P6	0.991580	0.678880	0.526260
Al41	Al4	0.778110	0.376410	0.624040
Al51	Al5	0.950190	0.129790	0.500320
Al61	Al6	0.902120	0.388850	0.240870
O161	O16	0.824890	0.291800	0.568500
O171	O17	0.858180	0.288200	0.300500
O181	O18	0.881480	0.161100	0.492900
O191	O19	0.786310	0.176100	0.374900
O201	O20	0.849890	0.407900	0.068800
O211	O21	0.869530	0.470600	0.374700
O221	O22	0.779150	0.469600	0.498100
O231	O23	0.798110	0.405000	0.813500
O241	O24	0.960130	0.055400	0.654600
O251	O25	0.965490	0.065300	0.344300
O261	O26	0.944350	0.490500	0.164400
O271	O27	0.969630	0.625800	0.382200
O281	O28	0.993030	0.223260	0.529100
O291	O29	0.943060	0.306100	0.126000
O301	O30	0.958120	0.371600	0.402100
H21	H2	0.934000	0.501000	0.102000
P71	P7	0.661830	0.731980	0.070140
P81	P8	0.673970	0.969130	0.560700
P91	P9	0.508420	0.178880	0.973740
Al71	Al7	0.721890	0.876410	0.875960
Al81	Al8	0.549810	0.629790	0.999680
Al91	Al9	0.597880	0.888850	0.259130
O311	O31	0.675110	0.791800	0.931500
O321	O32	0.641820	0.788200	0.199500
O331	O33	0.618520	0.661100	0.007100
O341	O34	0.713690	0.676100	0.125100
O351	O35	0.650110	0.907900	0.431200
O361	O36	0.630470	0.970600	0.125300
O371	O37	0.720850	0.969600	0.001900
O381	O38	0.701890	0.905000	0.686500
O391	O39	0.539870	0.555400	0.845400
O401	O40	0.534510	0.565300	0.155700
O411	O41	0.555650	0.990500	0.335600
O421	O42	0.530370	0.125800	0.117800
O431	O43	0.506970	0.723260	0.970900
O441	O44	0.556940	0.806100	0.374000
O451	O45	0.541880	0.871600	0.097900
H31	H3	0.566000	0.001000	0.398000
P101	P10	0.161830	0.231980	0.070140
P111	P11	0.173970	0.469130	0.560700
P121	P12	0.008420	0.678880	0.973740
Al101	Al10	0.221890	0.376410	0.875960
Al111	Al11	0.049810	0.129790	0.999680
Al121	Al12	0.097880	0.388850	0.259130
O461	O46	0.175110	0.291800	0.931500
O471	O47	0.141820	0.288200	0.199500
O481	O48	0.118520	0.161100	0.007100
O491	O49	0.213690	0.176100	0.125100
O501	O50	0.150110	0.407900	0.431200
O511	O51	0.130470	0.470600	0.125300
O521	O52	0.220850	0.469600	0.001900
O531	O53	0.201890	0.405000	0.686500
O541	O54	0.039870	0.055400	0.845400
O551	O55	0.034510	0.065300	0.155700
O561	O56	0.055650	0.490500	0.335600
O571	O57	0.030370	0.625800	0.117800
O581	O58	0.006970	0.223260	0.970900
O591	O59	0.056940	0.306100	0.374000
O601	O60	0.041880	0.371600	0.097900
H41	H4	0.066000	0.501000	0.398000
P131	P13	0.661830	0.268020	0.570140
P141	P14	0.673970	0.030870	0.060700
P151	P15	0.508420	0.821120	0.473740
Al131	Al13	0.721890	0.123590	0.375960
Al141	Al14	0.549810	0.370210	0.499680
Al151	Al15	0.597880	0.111150	0.759130
O611	O61	0.675110	0.208200	0.431500
O621	O62	0.641820	0.211800	0.699500
O631	O63	0.618520	0.338900	0.507100
O641	O64	0.713690	0.323900	0.625100
O651	O65	0.650110	0.092100	0.931200
O661	O66	0.630470	0.029400	0.625300
O671	O67	0.720850	0.030400	0.501900
O681	O68	0.701890	0.095000	0.186500
O691	O69	0.539870	0.444600	0.345400
O701	O70	0.534510	0.434700	0.655700
O711	O71	0.555650	0.009500	0.835600
O721	O72	0.530370	0.874200	0.617800
O731	O73	0.506970	0.276740	0.470900
O741	O74	0.556940	0.193900	0.874000
O751	O75	0.541880	0.128400	0.597900
H51	H5	0.566000	0.999000	0.898000
P161	P16	0.161830	0.768020	0.570140
P171	P17	0.173970	0.530870	0.060700
P181	P18	0.008420	0.321120	0.473740
Al161	Al16	0.221890	0.623590	0.375960
Al171	Al17	0.049810	0.870210	0.499680
Al181	Al18	0.097880	0.611150	0.759130
O761	O76	0.175110	0.708200	0.431500
O771	O77	0.141820	0.711800	0.699500
O781	O78	0.118520	0.838900	0.507100
O791	O79	0.213690	0.823900	0.625100
O801	O80	0.150110	0.592100	0.931200
O811	O81	0.130470	0.529400	0.625300
O821	O82	0.220850	0.530400	0.501900
O831	O83	0.201890	0.595000	0.186500
O841	O84	0.039870	0.944600	0.345400
O851	O85	0.034510	0.934700	0.655700
O861	O86	0.055650	0.509500	0.835600
O871	O87	0.030370	0.374200	0.617800
O881	O88	0.006970	0.776740	0.470900
O891	O89	0.056940	0.693900	0.874000
O901	O90	0.041880	0.628400	0.597900
H61	H6	0.066000	0.499000	0.898000
P191	P19	0.338170	0.268020	0.929860
P201	P20	0.326030	0.030870	0.439300
P211	P21	0.491580	0.821120	0.026260
Al191	Al19	0.278110	0.123590	0.124040
Al201	Al20	0.450190	0.370210	0.000320
Al211	Al21	0.402120	0.111150	0.740870
O911	O91	0.324890	0.208200	0.068500
O921	O92	0.358180	0.211800	0.800500
O931	O93	0.381480	0.338900	0.992900
O941	O94	0.286310	0.323900	0.874900
O951	O95	0.349890	0.092100	0.568800
O961	O96	0.369530	0.029400	0.874700
O971	O97	0.279150	0.030400	0.998100
O981	O98	0.298110	0.095000	0.313500
O991	O99	0.460130	0.444600	0.154600
O1001	O100	0.465490	0.434700	0.844300
O1011	O101	0.444350	0.009500	0.664400
O1021	O102	0.469630	0.874200	0.882200
O1031	O103	0.493030	0.276740	0.029100
O1041	O104	0.443060	0.193900	0.626000
O1051	O105	0.458120	0.128400	0.902100
H71	H7	0.434000	0.999000	0.602000
P221	P22	0.838170	0.768020	0.929860
P231	P23	0.826030	0.530870	0.439300
P241	P24	0.991580	0.321120	0.026260
Al221	Al22	0.778110	0.623590	0.124040
Al231	Al23	0.950190	0.870210	0.000320
Al241	Al24	0.902120	0.611150	0.740870
O1061	O106	0.824890	0.708200	0.068500
O1071	O107	0.858180	0.711800	0.800500
O1081	O108	0.881480	0.838900	0.992900
O1091	O109	0.786310	0.823900	0.874900
O1101	O110	0.849890	0.592100	0.568800
O1111	O111	0.869530	0.529400	0.874700
O1121	O112	0.779150	0.530400	0.998100
O1131	O113	0.798110	0.595000	0.313500
O1141	O114	0.960130	0.944600	0.154600
O1151	O115	0.965490	0.934700	0.844300
O1161	O116	0.944350	0.509500	0.664400
O1171	O117	0.969630	0.374200	0.882200
O1181	O118	0.993030	0.776740	0.029100
O1191	O119	0.943060	0.693900	0.626000
O1201	O120	0.958120	0.628400	0.902100
H81	H8	0.934000	0.499000	0.602000
P251	P25	0.500000	0.494640	0.750000
P261	P26	0.000000	0.994640	0.750000
P271	P27	0.500000	0.505360	0.250000
P281	P28	0.000000	0.005360	0.250000
Al251	Al25	0.500000	0.054710	0.250000
Al261	Al26	0.000000	0.554710	0.250000
Al271	Al27	0.500000	0.945290	0.750000
Al281	Al28	0.000000	0.445290	0.750000
