data_FIKTOK_clean_PM
_symmetry_space_group_name_H-M	'P1'
_cell_length_a	7.410600
_cell_length_b	16.622000
_cell_length_c	16.683000
_cell_angle_alpha	104.240000
_cell_angle_beta	101.490000
_cell_angle_gamma	98.670000
_symmetry_Int_Tables_number 1

loop_
_symmetry_equiv_pos_as_xyz
'x,y,z'

loop_
_atom_site_label
_atom_site_type_symbol
_atom_site_fract_x
_atom_site_fract_y
_atom_site_fract_z
Cd11	Cd1	0.486690	0.483000	0.627980
Cd21	Cd2	0.316490	0.955990	0.541580
Cd31	Cd3	0.509720	0.501250	0.881260
Cd41	Cd4	0.513310	0.517000	0.372020
Cd51	Cd5	0.683510	0.044010	0.458420
Cd61	Cd6	0.490280	0.498750	0.118740
H11	H1	0.396200	0.659300	0.574500
H21	H2	0.496500	0.804500	0.667500
H31	H3	0.702600	0.649700	0.790500
H41	H4	0.639100	0.913100	0.781300
H51	H5	0.820300	0.027200	0.888500
H61	H6	0.021000	0.870700	0.013700
H71	H7	0.848700	0.756100	0.903700
H81	H8	0.255600	0.317600	0.731300
H91	H9	0.226400	0.176600	0.749700
H101	H10	0.582400	0.339600	0.955100
H111	H11	0.598900	0.240100	0.020800
H121	H12	0.636600	0.131000	0.080400
H131	H13	0.326700	0.964800	0.865600
H141	H14	0.292800	0.072400	0.805300
H151	H15	0.999800	0.510400	0.630400
H161	H16	0.245700	0.722900	0.819800
H171	H17	0.908600	0.736000	0.606200
H181	H18	0.903600	0.851200	0.681200
H191	H19	0.023200	0.933100	0.751900
H201	H20	0.038000	0.252000	0.926400
H211	H21	0.689800	0.247300	0.706400
H221	H22	0.978400	0.470400	0.872600
H231	H23	0.633300	0.043100	0.738300
H241	H24	0.578700	0.123500	0.715300
H251	H25	0.603800	0.340700	0.425500
H261	H26	0.503500	0.195500	0.332500
H271	H27	0.297400	0.350300	0.209500
H281	H28	0.360900	0.086900	0.218700
H291	H29	0.179700	0.972800	0.111500
H301	H30	0.979000	0.129300	0.986300
H311	H31	0.151300	0.243900	0.096300
H321	H32	0.744400	0.682400	0.268700
H331	H33	0.773600	0.823400	0.250300
H341	H34	0.417600	0.660400	0.044900
H351	H35	0.401100	0.759900	0.979200
H361	H36	0.363400	0.869000	0.919600
H371	H37	0.673300	0.035200	0.134400
H381	H38	0.707200	0.927600	0.194700
H391	H39	0.000200	0.489600	0.369600
H401	H40	0.754300	0.277100	0.180200
H411	H41	0.091400	0.264000	0.393800
H421	H42	0.096400	0.148800	0.318800
H431	H43	0.976800	0.066900	0.248100
H441	H44	0.962000	0.748000	0.073600
H451	H45	0.310200	0.752700	0.293600
H461	H46	0.021600	0.529600	0.127400
H471	H47	0.366700	0.956900	0.261700
H481	H48	0.421300	0.876500	0.284700
C11	C1	0.471000	0.675800	0.630000
C21	C2	0.525400	0.756100	0.681000
C31	C3	0.638700	0.670000	0.748300
C41	C4	0.731600	0.822700	0.829400
C51	C5	0.719800	0.904400	0.827400
C61	C6	0.825900	0.972800	0.892500
C71	C7	0.942000	0.963200	0.964700
C81	C8	0.946000	0.879800	0.966300
C91	C9	0.843100	0.810800	0.900400
C101	C10	0.317500	0.304100	0.778900
C111	C11	0.300300	0.226400	0.788600
C121	C12	0.497100	0.317000	0.902100
C131	C13	0.439700	0.166900	0.906100
C141	C14	0.543900	0.184300	0.989000
C151	C15	0.566100	0.118400	0.024400
C161	C16	0.488400	0.035100	0.980400
C171	C17	0.383900	0.020300	0.897700
C181	C18	0.362100	0.085000	0.861500
C191	C19	0.258000	0.559700	0.776600
C201	C20	0.785500	0.572700	0.525100
C211	C21	0.928700	0.616700	0.606700
C221	C22	0.020800	0.569000	0.652500
C231	C23	0.143800	0.609500	0.731300
C241	C24	0.168700	0.696300	0.765500
C251	C25	0.078600	0.743600	0.718600
C261	C26	0.963500	0.704000	0.638800
C271	C27	0.030900	0.880900	0.712300
C281	C28	0.140300	0.902300	0.649800
C291	C29	0.708300	0.413300	0.731100
C301	C30	0.193600	0.415800	0.986500
C311	C31	0.037800	0.368100	0.910300
C321	C32	0.985600	0.280500	0.889200
C331	C33	0.856100	0.234700	0.813400
C341	C34	0.772700	0.277400	0.758600
C351	C35	0.815400	0.365600	0.783200
C361	C36	0.948700	0.411400	0.857800
C371	C37	0.682200	0.095000	0.726000
C381	C38	0.752700	0.072100	0.646100
C391	C39	0.529000	0.324200	0.370000
C401	C40	0.474600	0.243900	0.319000
C411	C41	0.361300	0.330000	0.251700
C421	C42	0.268400	0.177300	0.170600
C431	C43	0.280200	0.095600	0.172600
C441	C44	0.174100	0.027200	0.107500
C451	C45	0.058000	0.036800	0.035300
C461	C46	0.054000	0.120200	0.033700
C471	C47	0.156900	0.189200	0.099600
C481	C48	0.682500	0.695900	0.221100
C491	C49	0.699700	0.773600	0.211400
C501	C50	0.502900	0.683000	0.097900
C511	C51	0.560300	0.833100	0.093900
C521	C52	0.456100	0.815700	0.011000
C531	C53	0.433900	0.881600	0.975600
C541	C54	0.511600	0.964900	0.019600
C551	C55	0.616100	0.979700	0.102300
C561	C56	0.637900	0.915000	0.138500
C571	C57	0.742000	0.440300	0.223400
C581	C58	0.214500	0.427300	0.474900
C591	C59	0.071300	0.383300	0.393300
C601	C60	0.979200	0.431000	0.347500
C611	C61	0.856200	0.390500	0.268700
C621	C62	0.831300	0.303700	0.234500
C631	C63	0.921400	0.256400	0.281400
C641	C64	0.036500	0.296000	0.361200
C651	C65	0.969100	0.119100	0.287700
C661	C66	0.859700	0.097700	0.350200
C671	C67	0.291700	0.586700	0.268900
C681	C68	0.806400	0.584200	0.013500
C691	C69	0.962200	0.631900	0.089700
C701	C70	0.014400	0.719500	0.110800
C711	C71	0.143900	0.765300	0.186600
C721	C72	0.227300	0.722600	0.241400
C731	C73	0.184600	0.634400	0.216800
C741	C74	0.051300	0.588600	0.142200
C751	C75	0.317800	0.905000	0.274000
C761	C76	0.247300	0.927900	0.353900
N11	N1	0.542700	0.622000	0.672300
N21	N2	0.633200	0.752300	0.757700
N31	N3	0.440600	0.361800	0.850100
N41	N4	0.414500	0.234400	0.868200
N51	N5	0.457300	0.378000	0.327700
N61	N6	0.366800	0.247700	0.242300
N71	N7	0.559400	0.638200	0.149900
N81	N8	0.585500	0.765600	0.131800
O11	O1	0.696500	0.499700	0.514700
O21	O2	0.753000	0.612600	0.469300
O31	O3	0.279000	0.488800	0.735600
O41	O4	0.337400	0.594200	0.854700
O51	O5	0.115800	0.829300	0.759200
O61	O6	0.313000	0.926100	0.673100
O71	O7	0.045600	0.897900	0.576000
O81	O8	0.685100	0.485100	0.767100
O91	O9	0.643000	0.379400	0.652000
O101	O10	0.235800	0.383900	0.046300
O111	O11	0.285500	0.486900	0.986900
O121	O12	0.822200	0.148400	0.799500
O131	O13	0.913900	0.100300	0.645100
O141	O14	0.628900	0.022800	0.580500
O151	O15	0.303500	0.500300	0.485300
O161	O16	0.247000	0.387400	0.530700
O171	O17	0.721000	0.511200	0.264400
O181	O18	0.662600	0.405800	0.145300
O191	O19	0.884200	0.170700	0.240800
O201	O20	0.687000	0.073900	0.326900
O211	O21	0.954400	0.102100	0.424000
O221	O22	0.314900	0.514900	0.232900
O231	O23	0.357000	0.620600	0.348000
O241	O24	0.764200	0.616100	0.953700
O251	O25	0.714500	0.513100	0.013100
O261	O26	0.177800	0.851600	0.200500
O271	O27	0.086100	0.899700	0.354900
O281	O28	0.371100	0.977200	0.419500
