data_FILYEG_clean_PM
_symmetry_space_group_name_H-M	'P1'
_cell_length_a	10.806000
_cell_length_b	24.329000
_cell_length_c	28.554000
_cell_angle_alpha	90.000000
_cell_angle_beta	90.000000
_cell_angle_gamma	93.658000
_symmetry_Int_Tables_number 1

loop_
_symmetry_equiv_pos_as_xyz
'x,y,z'

loop_
_atom_site_label
_atom_site_type_symbol
_atom_site_fract_x
_atom_site_fract_y
_atom_site_fract_z
Co11	Co1	0.437820	0.534380	0.545080
Co21	Co2	0.428270	0.466510	0.954830
Co31	Co3	0.558450	0.419850	0.589350
Co41	Co4	0.580700	0.582190	0.911300
Co51	Co5	0.290200	0.463270	0.633910
Co61	Co6	0.302140	0.536560	0.865510
Co71	Co7	0.562180	0.965620	0.045080
Co81	Co8	0.571730	0.033490	0.454830
Co91	Co9	0.441550	0.080150	0.089350
Co101	Co10	0.419300	0.917810	0.411300
Co111	Co11	0.709800	0.036730	0.133910
Co121	Co12	0.697860	0.963440	0.365510
Co131	Co13	0.562180	0.465620	0.454920
Co141	Co14	0.571730	0.533490	0.045170
Co151	Co15	0.441550	0.580150	0.410650
Co161	Co16	0.419300	0.417810	0.088700
Co171	Co17	0.709800	0.536730	0.366090
Co181	Co18	0.697860	0.463440	0.134490
Co191	Co19	0.437820	0.034380	0.954920
Co201	Co20	0.428270	0.966510	0.545170
Co211	Co21	0.558450	0.919850	0.910650
Co221	Co22	0.580700	0.082190	0.588700
Co231	Co23	0.290200	0.963270	0.866090
Co241	Co24	0.302140	0.036560	0.634490
H11	H1	0.631300	0.364800	0.856100
H21	H2	0.734400	0.329600	0.794800
H31	H3	0.681400	0.348200	0.720100
H41	H4	0.658100	0.642600	0.643100
H51	H5	0.763000	0.682500	0.704400
H61	H6	0.718200	0.655800	0.781000
H71	H7	0.438700	0.557400	0.734800
H81	H8	0.940500	0.510200	0.925300
H91	H9	0.085000	0.382900	0.988600
H101	H10	0.881300	0.352200	0.012700
H111	H11	0.714200	0.398600	0.994000
H121	H12	0.484600	0.333000	0.923100
H131	H13	0.472400	0.248800	0.882300
H141	H14	0.528000	0.171100	0.927900
H151	H15	0.429000	0.248800	0.042700
H161	H16	0.416500	0.440800	0.765400
H171	H17	0.122100	0.615900	0.508900
H181	H18	0.927600	0.647500	0.486200
H191	H19	0.743600	0.600700	0.502900
H201	H20	0.932900	0.491800	0.575600
H211	H21	0.368700	0.135200	0.356100
H221	H22	0.265600	0.170400	0.294800
H231	H23	0.318600	0.151800	0.220100
H241	H24	0.341900	0.857400	0.143100
H251	H25	0.237000	0.817500	0.204400
H261	H26	0.281800	0.844200	0.281000
H271	H27	0.561300	0.942600	0.234800
H281	H28	0.059500	0.989800	0.425300
H291	H29	0.915000	0.117100	0.488600
H301	H30	0.118700	0.147800	0.512700
H311	H31	0.285800	0.101400	0.494000
H321	H32	0.515400	0.167000	0.423100
H331	H33	0.527600	0.251200	0.382300
H341	H34	0.472000	0.328900	0.427900
H351	H35	0.571000	0.251200	0.542700
H361	H36	0.583500	0.059200	0.265400
H371	H37	0.877900	0.884100	0.008900
H381	H38	0.072400	0.852500	0.986200
H391	H39	0.256400	0.899300	0.002900
H401	H40	0.067100	0.008200	0.075600
H411	H41	0.368700	0.635200	0.143900
H421	H42	0.265600	0.670400	0.205200
H431	H43	0.318600	0.651800	0.279900
H441	H44	0.341900	0.357400	0.356900
H451	H45	0.237000	0.317500	0.295600
H461	H46	0.281800	0.344200	0.219000
H471	H47	0.561300	0.442600	0.265200
H481	H48	0.059500	0.489800	0.074700
H491	H49	0.915000	0.617100	0.011400
H501	H50	0.118700	0.647800	0.987300
H511	H51	0.285800	0.601400	0.006000
H521	H52	0.515400	0.667000	0.076900
H531	H53	0.527600	0.751200	0.117700
H541	H54	0.472000	0.828900	0.072100
H551	H55	0.571000	0.751200	0.957300
H561	H56	0.583500	0.559200	0.234600
H571	H57	0.877900	0.384100	0.491100
H581	H58	0.072400	0.352500	0.513800
H591	H59	0.256400	0.399300	0.497100
H601	H60	0.067100	0.508200	0.424400
H611	H61	0.631300	0.864800	0.643900
H621	H62	0.734400	0.829600	0.705200
H631	H63	0.681400	0.848200	0.779900
H641	H64	0.658100	0.142600	0.856900
H651	H65	0.763000	0.182500	0.795600
H661	H66	0.718200	0.155800	0.719000
H671	H67	0.438700	0.057400	0.765200
H681	H68	0.940500	0.010200	0.574700
H691	H69	0.085000	0.882900	0.511400
H701	H70	0.881300	0.852200	0.487300
H711	H71	0.714200	0.898600	0.506000
H721	H72	0.484600	0.833000	0.576900
H731	H73	0.472400	0.748800	0.617700
H741	H74	0.528000	0.671100	0.572100
H751	H75	0.429000	0.748800	0.457300
H761	H76	0.416500	0.940800	0.734600
H771	H77	0.122100	0.115900	0.991100
H781	H78	0.927600	0.147500	0.013800
H791	H79	0.743600	0.100700	0.997100
H801	H80	0.932900	0.991800	0.924400
C11	C1	0.451800	0.436100	0.857000
C21	C2	0.516700	0.409300	0.817800
C31	C3	0.609900	0.373800	0.825600
C41	C4	0.669900	0.352200	0.789200
C51	C5	0.637800	0.363000	0.744600
C61	C6	0.542900	0.395200	0.735000
C71	C7	0.505400	0.407200	0.686500
C81	C8	0.471800	0.563500	0.643500
C91	C9	0.543000	0.592200	0.681600
C101	C10	0.637400	0.632200	0.673600
C111	C11	0.699200	0.655900	0.710100
C121	C12	0.669700	0.641300	0.756500
C131	C13	0.572900	0.606800	0.765500
C141	C14	0.536400	0.591700	0.813700
C151	C15	0.507000	0.581500	0.728600
C161	C16	0.706900	0.495900	0.952500
C171	C17	0.809100	0.463700	0.960200
C181	C18	0.928400	0.478500	0.943400
C191	C19	0.027200	0.448300	0.952500
C201	C20	0.016400	0.401800	0.980200
C211	C21	0.892600	0.384300	0.995200
C221	C22	0.793000	0.412300	0.985000
C231	C23	0.434200	0.351300	0.013000
C241	C24	0.445900	0.299200	0.986600
C251	C25	0.472000	0.299700	0.938800
C261	C26	0.478400	0.250200	0.914800
C271	C27	0.494700	0.201500	0.941600
C281	C28	0.460900	0.200200	0.987800
C291	C29	0.462000	0.148000	0.014100
C301	C30	0.443100	0.249200	0.010600
C311	C31	0.481600	0.418700	0.771600
C321	C32	0.047800	0.551800	0.546600
C331	C33	0.163300	0.532800	0.558400
C341	C34	0.048400	0.597300	0.518200
C351	C35	0.928600	0.615100	0.503400
C361	C36	0.818400	0.587800	0.512800
C371	C37	0.933000	0.522700	0.556400
C381	C38	0.708300	0.505400	0.547100
C391	C39	0.157300	0.467700	0.938700
C401	C40	0.823700	0.537700	0.539100
C411	C41	0.548200	0.063900	0.357000
C421	C42	0.483300	0.090700	0.317800
C431	C43	0.390100	0.126200	0.325600
C441	C44	0.330100	0.147800	0.289200
C451	C45	0.362200	0.137000	0.244600
C461	C46	0.457100	0.104800	0.235000
C471	C47	0.494600	0.092800	0.186500
C481	C48	0.528200	0.936500	0.143500
C491	C49	0.457000	0.907800	0.181600
C501	C50	0.362600	0.867800	0.173600
C511	C51	0.300800	0.844100	0.210100
C521	C52	0.330300	0.858700	0.256500
C531	C53	0.427100	0.893200	0.265500
C541	C54	0.463600	0.908300	0.313700
C551	C55	0.493000	0.918500	0.228600
C561	C56	0.293100	0.004100	0.452500
C571	C57	0.190900	0.036300	0.460200
C581	C58	0.071600	0.021500	0.443400
C591	C59	0.972800	0.051700	0.452500
C601	C60	0.983600	0.098200	0.480200
C611	C61	0.107400	0.115700	0.495200
C621	C62	0.207000	0.087700	0.485000
C631	C63	0.565800	0.148700	0.513000
C641	C64	0.554100	0.200800	0.486600
C651	C65	0.528000	0.200300	0.438800
C661	C66	0.521600	0.249800	0.414800
C671	C67	0.505300	0.298500	0.441600
C681	C68	0.539100	0.299800	0.487800
C691	C69	0.538000	0.352000	0.514100
C701	C70	0.556900	0.250800	0.510600
C711	C71	0.518400	0.081300	0.271600
C721	C72	0.952200	0.948200	0.046600
C731	C73	0.836700	0.967200	0.058400
C741	C74	0.951600	0.902700	0.018200
C751	C75	0.071400	0.884900	0.003400
C761	C76	0.181600	0.912200	0.012800
C771	C77	0.067000	0.977300	0.056400
C781	C78	0.291700	0.994600	0.047100
C791	C79	0.842700	0.032300	0.438700
C801	C80	0.176300	0.962300	0.039100
C811	C81	0.548200	0.563900	0.143000
C821	C82	0.483300	0.590700	0.182200
C831	C83	0.390100	0.626200	0.174400
C841	C84	0.330100	0.647800	0.210800
C851	C85	0.362200	0.637000	0.255400
C861	C86	0.457100	0.604800	0.265000
C871	C87	0.494600	0.592800	0.313500
C881	C88	0.528200	0.436500	0.356500
C891	C89	0.457000	0.407800	0.318400
C901	C90	0.362600	0.367800	0.326400
C911	C91	0.300800	0.344100	0.289900
C921	C92	0.330300	0.358700	0.243500
C931	C93	0.427100	0.393200	0.234500
C941	C94	0.463600	0.408300	0.186300
C951	C95	0.493000	0.418500	0.271400
C961	C96	0.293100	0.504100	0.047500
C971	C97	0.190900	0.536300	0.039800
C981	C98	0.071600	0.521500	0.056600
C991	C99	0.972800	0.551700	0.047500
C1001	C100	0.983600	0.598200	0.019800
C1011	C101	0.107400	0.615700	0.004800
C1021	C102	0.207000	0.587700	0.015000
C1031	C103	0.565800	0.648700	0.987000
C1041	C104	0.554100	0.700800	0.013400
C1051	C105	0.528000	0.700300	0.061200
C1061	C106	0.521600	0.749800	0.085200
C1071	C107	0.505300	0.798500	0.058400
C1081	C108	0.539100	0.799800	0.012200
C1091	C109	0.538000	0.852000	0.985900
C1101	C110	0.556900	0.750800	0.989400
C1111	C111	0.518400	0.581300	0.228400
C1121	C112	0.952200	0.448200	0.453400
C1131	C113	0.836700	0.467200	0.441600
C1141	C114	0.951600	0.402700	0.481800
C1151	C115	0.071400	0.384900	0.496600
C1161	C116	0.181600	0.412200	0.487200
C1171	C117	0.067000	0.477300	0.443600
C1181	C118	0.291700	0.494600	0.452900
C1191	C119	0.842700	0.532300	0.061300
C1201	C120	0.176300	0.462300	0.460900
C1211	C121	0.451800	0.936100	0.643000
C1221	C122	0.516700	0.909300	0.682200
C1231	C123	0.609900	0.873800	0.674400
C1241	C124	0.669900	0.852200	0.710800
C1251	C125	0.637800	0.863000	0.755400
C1261	C126	0.542900	0.895200	0.765000
C1271	C127	0.505400	0.907200	0.813500
C1281	C128	0.471800	0.063500	0.856500
C1291	C129	0.543000	0.092200	0.818400
C1301	C130	0.637400	0.132200	0.826400
C1311	C131	0.699200	0.155900	0.789900
C1321	C132	0.669700	0.141300	0.743500
C1331	C133	0.572900	0.106800	0.734500
C1341	C134	0.536400	0.091700	0.686300
C1351	C135	0.507000	0.081500	0.771400
C1361	C136	0.706900	0.995900	0.547500
C1371	C137	0.809100	0.963700	0.539800
C1381	C138	0.928400	0.978500	0.556600
C1391	C139	0.027200	0.948300	0.547500
C1401	C140	0.016400	0.901800	0.519800
C1411	C141	0.892600	0.884300	0.504800
C1421	C142	0.793000	0.912300	0.515000
C1431	C143	0.434200	0.851300	0.487000
C1441	C144	0.445900	0.799200	0.513400
C1451	C145	0.472000	0.799700	0.561200
C1461	C146	0.478400	0.750200	0.585200
C1471	C147	0.494700	0.701500	0.558400
C1481	C148	0.460900	0.700200	0.512200
C1491	C149	0.462000	0.648000	0.485900
C1501	C150	0.443100	0.749200	0.489400
C1511	C151	0.481600	0.918700	0.728400
C1521	C152	0.047800	0.051800	0.953400
C1531	C153	0.163300	0.032800	0.941600
C1541	C154	0.048400	0.097300	0.981800
C1551	C155	0.928600	0.115100	0.996600
C1561	C156	0.818400	0.087800	0.987200
C1571	C157	0.933000	0.022700	0.943600
C1581	C158	0.708300	0.005400	0.952900
C1591	C159	0.157300	0.967700	0.561300
C1601	C160	0.823700	0.037700	0.960900
O11	O1	0.452000	0.394000	0.992400
O21	O2	0.247600	0.445700	0.952100
O31	O3	0.481600	0.105000	0.993600
O41	O4	0.716100	0.535100	0.923200
O51	O5	0.610600	0.488700	0.978600
O61	O6	0.499000	0.433700	0.897000
O71	O7	0.360500	0.459600	0.846600
O81	O8	0.432800	0.567200	0.818500
O91	O9	0.605900	0.603800	0.845900
O101	O10	0.517000	0.568300	0.602900
O111	O11	0.377900	0.538600	0.653900
O121	O12	0.263400	0.556200	0.547400
O131	O13	0.158200	0.493400	0.592300
O141	O14	0.404200	0.428500	0.681100
O151	O15	0.578100	0.400400	0.655500
O161	O16	0.614600	0.512500	0.521100
O171	O17	0.707700	0.467200	0.578300
O181	O18	0.439200	0.151400	0.056900
O191	O19	0.408400	0.457600	0.576600
O201	O20	0.418600	0.543300	0.923700
O211	O21	0.406600	0.346600	0.055800
O221	O22	0.161200	0.508400	0.907100
O231	O23	0.548000	0.106000	0.492400
O241	O24	0.752400	0.054300	0.452100
O251	O25	0.518400	0.395000	0.493600
O261	O26	0.283900	0.964900	0.423200
O271	O27	0.389400	0.011300	0.478600
O281	O28	0.501000	0.066300	0.397000
O291	O29	0.639500	0.040400	0.346600
O301	O30	0.567200	0.932800	0.318500
O311	O31	0.394100	0.896200	0.345900
O321	O32	0.483000	0.931700	0.102900
O331	O33	0.622100	0.961400	0.153900
O341	O34	0.736600	0.943800	0.047400
O351	O35	0.841800	0.006600	0.092300
O361	O36	0.595800	0.071500	0.181100
O371	O37	0.421900	0.099600	0.155500
O381	O38	0.385400	0.987500	0.021100
O391	O39	0.292300	0.032800	0.078300
O401	O40	0.560800	0.348600	0.556900
O411	O41	0.591600	0.042400	0.076600
O421	O42	0.581400	0.956700	0.423700
O431	O43	0.593400	0.153400	0.555800
O441	O44	0.838800	0.991600	0.407100
O451	O45	0.548000	0.606000	0.007600
O461	O46	0.752400	0.554300	0.047900
O471	O47	0.518400	0.895000	0.006400
O481	O48	0.283900	0.464900	0.076800
O491	O49	0.389400	0.511300	0.021400
O501	O50	0.501000	0.566300	0.103000
O511	O51	0.639500	0.540400	0.153400
O521	O52	0.567200	0.432800	0.181500
O531	O53	0.394100	0.396200	0.154100
O541	O54	0.483000	0.431700	0.397100
O551	O55	0.622100	0.461400	0.346100
O561	O56	0.736600	0.443800	0.452600
O571	O57	0.841800	0.506600	0.407700
O581	O58	0.595800	0.571500	0.318900
O591	O59	0.421900	0.599600	0.344500
O601	O60	0.385400	0.487500	0.478900
O611	O61	0.292300	0.532800	0.421700
O621	O62	0.560800	0.848600	0.943100
O631	O63	0.591600	0.542400	0.423400
O641	O64	0.581400	0.456700	0.076300
O651	O65	0.593400	0.653400	0.944200
O661	O66	0.838800	0.491600	0.092900
O671	O67	0.452000	0.894000	0.507600
O681	O68	0.247600	0.945700	0.547900
O691	O69	0.481600	0.605000	0.506400
O701	O70	0.716100	0.035100	0.576800
O711	O71	0.610600	0.988700	0.521400
O721	O72	0.499000	0.933700	0.603000
O731	O73	0.360500	0.959600	0.653400
O741	O74	0.432800	0.067200	0.681500
O751	O75	0.605900	0.103800	0.654100
O761	O76	0.517000	0.068300	0.897100
O771	O77	0.377900	0.038600	0.846100
O781	O78	0.263400	0.056200	0.952600
O791	O79	0.158200	0.993400	0.907700
O801	O80	0.404200	0.928500	0.818900
O811	O81	0.578100	0.900400	0.844500
O821	O82	0.614600	0.012500	0.978900
O831	O83	0.707700	0.967200	0.921700
O841	O84	0.439200	0.651400	0.443100
O851	O85	0.408400	0.957600	0.923400
O861	O86	0.418600	0.043300	0.576300
O871	O87	0.406600	0.846600	0.444200
O881	O88	0.161200	0.008400	0.592900
