data_FIMNIA_clean_PM
_symmetry_space_group_name_H-M	'P1'
_cell_length_a	12.021600
_cell_length_b	13.937900
_cell_length_c	22.765800
_cell_angle_alpha	95.825000
_cell_angle_beta	104.722000
_cell_angle_gamma	104.036000
_symmetry_Int_Tables_number 1

loop_
_symmetry_equiv_pos_as_xyz
'x,y,z'

loop_
_atom_site_label
_atom_site_type_symbol
_atom_site_fract_x
_atom_site_fract_y
_atom_site_fract_z
Ag11	Ag1	0.291400	0.201300	0.847360
Ag21	Ag2	0.186240	0.425350	0.559080
Ag31	Ag3	0.022760	0.844390	0.696860
Ag41	Ag4	0.484990	0.056710	0.914520
Ag51	Ag5	0.136130	0.997460	0.857050
Ag61	Ag6	0.148480	0.660930	0.998920
Ag71	Ag7	0.596780	0.880590	0.823670
Ag81	Ag8	0.685600	0.172650	0.064930
Ag91	Ag9	0.708600	0.798700	0.152640
Ag101	Ag10	0.813760	0.574650	0.440920
Ag111	Ag11	0.977240	0.155610	0.303140
Ag121	Ag12	0.515010	0.943290	0.085480
Ag131	Ag13	0.863870	0.002540	0.142950
Ag141	Ag14	0.851520	0.339070	0.001080
Ag151	Ag15	0.403220	0.119410	0.176330
Ag161	Ag16	0.314400	0.827350	0.935070
H11	H1	0.446500	0.463400	0.086100
H21	H2	0.270700	0.380300	0.904300
H31	H3	0.766700	0.752200	0.914400
H41	H4	0.150100	0.637100	0.569000
H51	H5	0.998500	0.954500	0.057400
H61	H6	0.406000	0.675000	0.761000
H71	H7	0.188000	0.781000	0.638300
H81	H8	0.430900	0.776100	0.598000
H91	H9	0.790400	0.702900	0.657200
H101	H10	0.647800	0.624400	0.563700
H111	H11	0.131200	0.861900	0.058900
H121	H12	0.560800	0.851000	0.691800
H131	H13	0.061600	0.030400	0.622800
H141	H14	0.182200	0.503600	0.912400
H151	H15	0.164200	0.905900	0.483200
H161	H16	0.346600	0.589600	0.085700
H171	H17	0.350600	0.526000	0.689800
H181	H18	0.198400	0.179000	0.627000
H191	H19	0.303100	0.059000	0.495200
H201	H20	0.901700	0.664200	0.921000
H211	H21	0.553500	0.536600	0.913900
H221	H22	0.729300	0.619700	0.095700
H231	H23	0.233300	0.247800	0.085600
H241	H24	0.849900	0.362900	0.431000
H251	H25	0.001500	0.045500	0.942600
H261	H26	0.594000	0.325000	0.239000
H271	H27	0.812000	0.219000	0.361700
H281	H28	0.569100	0.223900	0.402000
H291	H29	0.209600	0.297100	0.342800
H301	H30	0.352200	0.375600	0.436300
H311	H31	0.868800	0.138100	0.941100
H321	H32	0.439200	0.149000	0.308200
H331	H33	0.938400	0.969600	0.377200
H341	H34	0.817800	0.496400	0.087600
H351	H35	0.835800	0.094100	0.516800
H361	H36	0.653400	0.410400	0.914300
H371	H37	0.649400	0.474000	0.310200
H381	H38	0.801600	0.821000	0.373000
H391	H39	0.696900	0.941000	0.504800
H401	H40	0.098300	0.335800	0.079000
C11	C1	0.419000	0.323800	0.993400
C21	C2	0.392000	0.469900	0.050600
C31	C3	0.287000	0.420700	0.942200
C41	C4	0.691300	0.785000	0.683300
C51	C5	0.777300	0.919300	0.988300
C61	C6	0.840000	0.775500	0.945000
C71	C7	0.199100	0.643600	0.608800
C81	C8	0.976800	0.895200	0.029300
C91	C9	0.350200	0.666900	0.722900
C101	C10	0.862800	0.863300	0.986500
C111	C11	0.295600	0.742100	0.707300
C121	C12	0.309700	0.828500	0.755000
C131	C13	0.223000	0.730500	0.650100
C141	C14	0.362000	0.404800	0.994200
C151	C15	0.503300	0.760600	0.610800
C161	C16	0.717400	0.717900	0.646000
C171	C17	0.632000	0.671400	0.590000
C181	C18	0.017000	0.852900	0.548500
C191	C19	0.100000	0.949200	0.555200
C201	C20	0.056200	0.839600	0.030000
C211	C21	0.580000	0.806200	0.665700
C221	C22	0.110000	0.034200	0.596800
C231	C23	0.777300	0.839200	0.742000
C241	C24	0.237000	0.496000	0.947500
C251	C25	0.172000	0.959100	0.513600
C261	C26	0.333000	0.546800	0.048900
C271	C27	0.318000	0.578300	0.679200
C281	C28	0.192000	0.122800	0.599300
C291	C29	0.253000	0.051100	0.520700
C301	C30	0.922000	0.723700	0.948800
C311	C31	0.581000	0.676200	0.006600
C321	C32	0.608000	0.530100	0.949400
C331	C33	0.713000	0.579300	0.057800
C341	C34	0.308700	0.215000	0.316700
C351	C35	0.222700	0.080700	0.011700
C361	C36	0.160000	0.224500	0.055000
C371	C37	0.800900	0.356400	0.391200
C381	C38	0.023200	0.104800	0.970700
C391	C39	0.649800	0.333100	0.277100
C401	C40	0.137200	0.136700	0.013500
C411	C41	0.704400	0.257900	0.292700
C421	C42	0.690300	0.171500	0.245000
C431	C43	0.777000	0.269500	0.349900
C441	C44	0.638000	0.595200	0.005800
C451	C45	0.496700	0.239400	0.389200
C461	C46	0.282600	0.282100	0.354000
C471	C47	0.368000	0.328600	0.410000
C481	C48	0.983000	0.147100	0.451500
C491	C49	0.900000	0.050800	0.444800
C501	C50	0.943800	0.160400	0.970000
C511	C51	0.420000	0.193800	0.334300
C521	C52	0.890000	0.965800	0.403200
C531	C53	0.222700	0.160800	0.258000
C541	C54	0.763000	0.504000	0.052500
C551	C55	0.828000	0.040900	0.486400
C561	C56	0.667000	0.453200	0.951100
C571	C57	0.682000	0.421700	0.320800
C581	C58	0.808000	0.877200	0.400700
C591	C59	0.747000	0.948900	0.479300
C601	C60	0.078000	0.276300	0.051200
N11	N1	0.973900	0.786600	0.496300
N21	N2	0.754100	0.878100	0.793000
N31	N3	0.217600	0.868800	0.755500
N41	N4	0.028300	0.752100	0.989300
N51	N5	0.944600	0.914000	0.810900
N61	N6	0.371800	0.941600	0.833000
N71	N7	0.976100	0.814300	0.593000
N81	N8	0.262200	0.940700	0.807200
N91	N9	0.898600	0.860500	0.753400
N101	N10	0.784000	0.981700	0.038900
N111	N11	0.245400	0.567500	0.624700
N121	N12	0.683600	0.920800	0.940000
N131	N13	0.471800	0.195600	0.963900
N141	N14	0.404300	0.871900	0.801500
N151	N15	0.634000	0.985100	0.962100
N161	N16	0.529100	0.692600	0.573700
N171	N17	0.693000	0.024400	0.022900
N181	N18	0.859200	0.924400	0.836400
N191	N19	0.536600	0.233600	0.022000
N201	N20	0.398600	0.249900	0.945400
N211	N21	0.899400	0.721400	0.566500
N221	N22	0.504500	0.312000	0.042300
N231	N23	0.263000	0.130300	0.563000
N241	N24	0.901700	0.708300	0.507900
N251	N25	0.259600	0.561900	0.999500
N261	N26	0.026100	0.213400	0.503700
N271	N27	0.245900	0.121900	0.207000
N281	N28	0.782400	0.131200	0.244500
N291	N29	0.971700	0.247900	0.010700
N301	N30	0.055400	0.086000	0.189100
N311	N31	0.628200	0.058400	0.167000
N321	N32	0.023900	0.185700	0.407000
N331	N33	0.737800	0.059300	0.192800
N341	N34	0.101400	0.139500	0.246600
N351	N35	0.216000	0.018300	0.961100
N361	N36	0.754600	0.432500	0.375300
N371	N37	0.316400	0.079200	0.060000
N381	N38	0.528200	0.804400	0.036100
N391	N39	0.595700	0.128100	0.198500
N401	N40	0.366000	0.014900	0.037900
N411	N41	0.470900	0.307400	0.426300
N421	N42	0.307000	0.975600	0.977100
N431	N43	0.140800	0.075600	0.163600
N441	N44	0.463400	0.766400	0.978000
N451	N45	0.601400	0.750100	0.054600
N461	N46	0.100600	0.278600	0.433500
N471	N47	0.495500	0.688000	0.957700
N481	N48	0.737000	0.869700	0.437000
N491	N49	0.098300	0.291700	0.492100
N501	N50	0.740400	0.438100	0.000500
