data_FIPKOG01_clean_PM
_symmetry_space_group_name_H-M	'P1'
_cell_length_a	10.184000
_cell_length_b	10.348000
_cell_length_c	18.091000
_cell_angle_alpha	102.340000
_cell_angle_beta	99.190000
_cell_angle_gamma	93.950000
_symmetry_Int_Tables_number 1

loop_
_symmetry_equiv_pos_as_xyz
'x,y,z'

loop_
_atom_site_label
_atom_site_type_symbol
_atom_site_fract_x
_atom_site_fract_y
_atom_site_fract_z
Cd11	Cd1	0.547260	0.546830	0.815570
O11	O1	0.312090	0.565200	0.819620
O21	O2	0.371060	0.481600	0.708660
O31	O3	0.823700	0.538800	0.834830
O41	O4	0.676900	0.495600	0.726590
O51	O5	0.110000	0.224000	0.498280
O61	O6	0.888400	0.013900	0.108370
O71	O7	0.607000	0.742430	0.903080
O81	O8	0.547700	0.799700	0.793550
O91	O9	0.521500	0.292700	0.803870
O101	O10	0.594500	0.436700	0.912540
N11	N1	0.938000	0.348000	0.515040
H11	H1	0.857400	0.367000	0.495100
N21	N2	0.739700	0.168100	0.107320
H21	H2	0.728000	0.251900	0.128100
C11	C1	0.283200	0.512100	0.748890
C21	C2	0.138700	0.481800	0.710520
C31	C3	0.106900	0.429900	0.631740
H31	H3	0.174800	0.415700	0.603100
C41	C4	0.974100	0.398900	0.595520
C51	C5	0.873500	0.422600	0.638950
H41	H4	0.784400	0.402200	0.615000
C61	C6	0.904400	0.476400	0.717560
C71	C7	0.037800	0.504200	0.753860
H51	H5	0.059400	0.537600	0.806800
C81	C8	0.795300	0.506100	0.763690
C91	C9	0.008000	0.267000	0.471800
C101	C10	0.957300	0.232700	0.386520
C111	C11	0.821300	0.215600	0.354800
H61	H6	0.757600	0.228900	0.386500
C121	C12	0.781700	0.178300	0.274700
H71	H7	0.691300	0.167700	0.253200
C131	C13	0.875300	0.157200	0.227640
C141	C14	0.011600	0.176200	0.259810
H81	H8	0.075200	0.164200	0.228000
C151	C15	0.051500	0.212500	0.338080
H91	H9	0.142200	0.223800	0.359100
C161	C16	0.835200	0.107200	0.142530
C171	C17	0.687000	0.135200	0.027610
C181	C18	0.653800	0.237200	0.991250
H101	H10	0.667100	0.325000	0.019200
C191	C19	0.600600	0.207500	0.912860
C201	C20	0.579700	0.075500	0.870990
H111	H11	0.544600	0.055800	0.818700
C211	C21	0.611600	0.973200	0.907600
C221	C22	0.664200	0.004000	0.986170
H121	H12	0.684100	0.935900	0.011000
C231	C23	0.587800	0.829600	0.864650
C241	C24	0.569100	0.319200	0.873110
Cd21	Cd2	0.452740	0.453170	0.184430
O111	O11	0.687910	0.434800	0.180380
O121	O12	0.628940	0.518400	0.291340
O131	O13	0.176300	0.461200	0.165170
O141	O14	0.323100	0.504400	0.273410
O151	O15	0.890000	0.776000	0.501720
O161	O16	0.111600	0.986100	0.891630
O171	O17	0.393000	0.257570	0.096920
O181	O18	0.452300	0.200300	0.206450
O191	O19	0.478500	0.707300	0.196130
O201	O20	0.405500	0.563300	0.087460
N31	N3	0.062000	0.652000	0.484960
H131	H13	0.142600	0.633000	0.504900
N41	N4	0.260300	0.831900	0.892680
H141	H14	0.272000	0.748100	0.871900
C251	C25	0.716800	0.487900	0.251110
C261	C26	0.861300	0.518200	0.289480
C271	C27	0.893100	0.570100	0.368260
H151	H15	0.825200	0.584300	0.396900
C281	C28	0.025900	0.601100	0.404480
C291	C29	0.126500	0.577400	0.361050
H161	H16	0.215600	0.597800	0.385000
C301	C30	0.095600	0.523600	0.282440
C311	C31	0.962200	0.495800	0.246140
H171	H17	0.940600	0.462400	0.193200
C321	C32	0.204700	0.493900	0.236310
C331	C33	0.992000	0.733000	0.528200
C341	C34	0.042700	0.767300	0.613480
C351	C35	0.178700	0.784400	0.645200
H181	H18	0.242400	0.771100	0.613500
C361	C36	0.218300	0.821700	0.725300
H191	H19	0.308700	0.832300	0.746800
C371	C37	0.124700	0.842800	0.772360
C381	C38	0.988400	0.823800	0.740190
H201	H20	0.924800	0.835800	0.772000
C391	C39	0.948500	0.787500	0.661920
H211	H21	0.857800	0.776200	0.640900
C401	C40	0.164800	0.892800	0.857470
C411	C41	0.313000	0.864800	0.972390
C421	C42	0.346200	0.762800	0.008750
H221	H22	0.332900	0.675000	0.980800
C431	C43	0.399400	0.792500	0.087140
C441	C44	0.420300	0.924500	0.129010
H231	H23	0.455400	0.944200	0.181300
C451	C45	0.388400	0.026800	0.092400
C461	C46	0.335800	0.996000	0.013830
H241	H24	0.315900	0.064100	0.989000
C471	C47	0.412200	0.170400	0.135350
C481	C48	0.430900	0.680800	0.126890
