data_FIPXEJ_clean_PM
_symmetry_space_group_name_H-M	'P1'
_cell_length_a	8.968700
_cell_length_b	10.906000
_cell_length_c	14.585000
_cell_angle_alpha	96.567000
_cell_angle_beta	90.000000
_cell_angle_gamma	90.000000
_symmetry_Int_Tables_number 1

loop_
_symmetry_equiv_pos_as_xyz
'x,y,z'

loop_
_atom_site_label
_atom_site_type_symbol
_atom_site_fract_x
_atom_site_fract_y
_atom_site_fract_z
Zn11	Zn1	0.253280	0.065200	0.280970
Zn21	Zn2	0.747550	0.369130	0.187820
Zn31	Zn3	0.753280	0.934800	0.719030
Zn41	Zn4	0.247550	0.630870	0.812180
H11	H1	0.143500	0.426600	0.758100
H21	H2	0.156000	0.496100	0.677100
H31	H3	0.550400	0.200000	0.279300
H41	H4	0.248200	0.184900	0.081700
H51	H5	0.561600	0.514700	0.063700
H61	H6	0.363600	0.332800	0.974000
H71	H7	0.541500	0.325200	0.976400
H81	H8	0.257400	0.603000	0.288000
H91	H9	0.156100	0.649700	0.208700
H101	H10	0.123400	0.878300	0.210600
H111	H11	0.277200	0.874700	0.173200
H121	H12	0.196400	0.799300	0.341800
H131	H13	0.366300	0.806600	0.310000
H141	H14	0.258500	0.732800	0.614100
H151	H15	0.258700	0.504600	0.102200
H161	H16	0.606400	0.029800	0.544100
H171	H17	0.328700	0.049800	0.614600
H181	H18	0.387100	0.363000	0.744600
H191	H19	0.406400	0.442800	0.659800
H201	H20	0.550100	0.777100	0.818300
H211	H21	0.216800	0.231700	0.659600
H221	H22	0.222800	0.314900	0.576200
H231	H23	0.381900	0.847200	0.495000
H241	H24	0.556900	0.823800	0.498400
H251	H25	0.643500	0.573400	0.241900
H261	H26	0.656000	0.503900	0.322900
H271	H27	0.050400	0.800000	0.720700
H281	H28	0.748200	0.815100	0.918300
H291	H29	0.061600	0.485300	0.936300
H301	H30	0.863600	0.667200	0.026000
H311	H31	0.041500	0.674800	0.023600
H321	H32	0.757400	0.397000	0.712000
H331	H33	0.656100	0.350300	0.791300
H341	H34	0.623400	0.121700	0.789400
H351	H35	0.777200	0.125300	0.826800
H361	H36	0.696400	0.200700	0.658200
H371	H37	0.866300	0.193400	0.690000
H381	H38	0.758500	0.267200	0.385900
H391	H39	0.758700	0.495400	0.897800
H401	H40	0.106400	0.970200	0.455900
H411	H41	0.828700	0.950200	0.385400
H421	H42	0.887100	0.637000	0.255400
H431	H43	0.906400	0.557200	0.340200
H441	H44	0.050100	0.222900	0.181700
H451	H45	0.716800	0.768300	0.340400
H461	H46	0.722800	0.685100	0.423800
H471	H47	0.881900	0.152800	0.505000
H481	H48	0.056900	0.176200	0.501600
C11	C1	0.500000	0.213200	0.224000
C21	C2	0.335500	0.205100	0.117100
C31	C3	0.444100	0.283300	0.094400
C41	C4	0.439100	0.552100	0.947600
C51	C5	0.460500	0.492500	0.038000
C61	C6	0.452400	0.352700	0.013100
C71	C7	0.253300	0.661000	0.240600
C81	C8	0.263200	0.791200	0.287400
C91	C9	0.457600	0.828400	0.622800
C101	C10	0.343800	0.758400	0.650000
C111	C11	0.481400	0.026500	0.422900
C121	C12	0.502100	0.007900	0.524300
C131	C13	0.375400	0.630000	0.172200
C141	C14	0.334700	0.393500	0.691900
C151	C15	0.502900	0.781900	0.760500
C161	C16	0.282600	0.284000	0.625800
C171	C17	0.473800	0.870700	0.530300
C181	C18	0.406100	0.207300	0.583400
C191	C19	0.000000	0.786800	0.776000
C201	C20	0.835500	0.794900	0.882900
C211	C21	0.944100	0.716700	0.905600
C221	C22	0.939100	0.447900	0.052400
C231	C23	0.960500	0.507500	0.962000
C241	C24	0.952400	0.647300	0.986900
C251	C25	0.753300	0.339000	0.759400
C261	C26	0.763200	0.208800	0.712600
C271	C27	0.957600	0.171600	0.377200
C281	C28	0.843800	0.241600	0.350000
C291	C29	0.981400	0.973500	0.577100
C301	C30	0.002100	0.992100	0.475700
C311	C31	0.875400	0.370000	0.827800
C321	C32	0.834700	0.606500	0.308100
C331	C33	0.002900	0.218100	0.239500
C341	C34	0.782600	0.716000	0.374200
C351	C35	0.973800	0.129300	0.469700
C361	C36	0.906100	0.792700	0.416600
N11	N1	0.207000	0.474200	0.727500
N21	N2	0.373000	0.730600	0.738200
N31	N3	0.369900	0.159200	0.199000
N41	N4	0.553600	0.287700	0.164200
N51	N5	0.222300	0.888300	0.226600
N61	N6	0.563300	0.842800	0.692500
N71	N7	0.347900	0.538500	0.105600
N81	N8	0.396500	0.083600	0.581900
N91	N9	0.707000	0.525800	0.272500
N101	N10	0.873000	0.269400	0.261800
N111	N11	0.869900	0.840800	0.801000
N121	N12	0.053600	0.712300	0.835800
N131	N13	0.722300	0.111700	0.773400
N141	N14	0.063300	0.157200	0.307500
N151	N15	0.847900	0.461500	0.894400
N161	N16	0.896500	0.916400	0.418100
O11	O1	0.312300	0.602800	0.935000
O21	O2	0.543100	0.544200	0.890200
O31	O3	0.351500	0.060900	0.400000
O41	O4	0.500100	0.680800	0.180400
O51	O5	0.589200	0.000200	0.369400
O61	O6	0.515300	0.255100	0.547300
O71	O7	0.812300	0.397200	0.065000
O81	O8	0.043100	0.455800	0.109800
O91	O9	0.851500	0.939100	0.600000
O101	O10	0.000100	0.319200	0.819600
O111	O11	0.089200	0.999800	0.630600
O121	O12	0.015300	0.744900	0.452700
