data_FIQZEM_clean_PM
_symmetry_space_group_name_H-M	'P1'
_cell_length_a	6.718000
_cell_length_b	13.507000
_cell_length_c	15.229000
_cell_angle_alpha	90.000000
_cell_angle_beta	90.000000
_cell_angle_gamma	90.000000
_symmetry_Int_Tables_number 1

loop_
_symmetry_equiv_pos_as_xyz
'x,y,z'

loop_
_atom_site_label
_atom_site_type_symbol
_atom_site_fract_x
_atom_site_fract_y
_atom_site_fract_z
Cd11	Cd1	0.632230	0.193770	0.468470
Cd21	Cd2	0.132230	0.306230	0.531530
Cd31	Cd3	0.867770	0.806230	0.968470
Cd41	Cd4	0.367770	0.693770	0.031530
H11	H1	0.371400	0.186200	0.048700
H21	H2	0.843100	0.238200	0.207200
H31	H3	0.156900	0.738200	0.292800
H41	H4	0.342000	0.839200	0.753100
H51	H5	0.658000	0.339200	0.746900
H61	H6	0.859500	0.192600	0.062200
H71	H7	0.871400	0.313800	0.951300
H81	H8	0.343100	0.261800	0.792800
H91	H9	0.128600	0.813800	0.548700
H101	H10	0.130800	0.979200	0.513100
H111	H11	0.640500	0.807400	0.562200
H121	H12	0.631700	0.459100	0.857600
H131	H13	0.628600	0.686200	0.451300
H141	H14	0.368300	0.959100	0.642400
H151	H15	0.869200	0.479200	0.986900
H161	H16	0.140500	0.692600	0.437800
H171	H17	0.158000	0.160800	0.253100
H181	H18	0.630800	0.520800	0.486900
H191	H19	0.131700	0.040900	0.142400
H201	H20	0.842000	0.660800	0.246900
H211	H21	0.656900	0.761800	0.707200
H221	H22	0.359500	0.307400	0.937800
H231	H23	0.369200	0.020800	0.013100
H241	H24	0.868300	0.540900	0.357600
C11	C1	0.859300	0.260800	0.077500
C21	C2	0.633500	0.568800	0.532500
C31	C3	0.852000	0.288000	0.163400
C41	C4	0.356600	0.935100	0.854900
C51	C5	0.357800	0.078900	0.721600
C61	C6	0.642600	0.610400	0.689600
C71	C7	0.866500	0.431200	0.032500
C81	C8	0.144200	0.850900	0.143500
C91	C9	0.133500	0.931200	0.467500
C101	C10	0.637400	0.536600	0.621600
C111	C11	0.857800	0.421100	0.278400
C121	C12	0.860300	0.520600	0.298000
C131	C13	0.644200	0.649100	0.856500
C141	C14	0.859600	0.646400	0.077600
C151	C15	0.857400	0.389600	0.189600
C161	C16	0.148000	0.788000	0.336600
C171	C17	0.133500	0.833300	0.488800
C181	C18	0.640400	0.353600	0.577600
C191	C19	0.643400	0.435100	0.645100
C201	C20	0.140400	0.146400	0.422400
C211	C21	0.352000	0.212000	0.836600
C221	C22	0.137400	0.963400	0.378400
C231	C23	0.640700	0.739200	0.577500
C241	C24	0.366500	0.166700	0.988800
C251	C25	0.360300	0.979400	0.702000
C261	C26	0.851500	0.592700	0.231700
C271	C27	0.140700	0.760800	0.422500
C281	C28	0.357400	0.110400	0.810400
C291	C29	0.862600	0.463400	0.121600
C301	C30	0.855800	0.350900	0.356500
C311	C31	0.642200	0.578900	0.778400
C321	C32	0.142200	0.921100	0.221600
C331	C33	0.355800	0.149100	0.643500
C341	C34	0.142600	0.889600	0.310400
C351	C35	0.633500	0.666700	0.511200
C361	C36	0.148500	0.092700	0.268300
C371	C37	0.351500	0.907300	0.768300
C381	C38	0.359300	0.239200	0.922500
C391	C39	0.866500	0.333300	0.011200
C401	C40	0.648000	0.712000	0.663400
C411	C41	0.362600	0.036600	0.878400
C421	C42	0.856600	0.564900	0.145100
C431	C43	0.639700	0.479400	0.798000
C441	C44	0.359600	0.853600	0.922400
C451	C45	0.648500	0.407300	0.731700
C461	C46	0.366500	0.068800	0.967500
C471	C47	0.143400	0.064900	0.354900
C481	C48	0.139700	0.020600	0.202000
O11	O1	0.728100	0.713800	0.084600
O21	O2	0.008300	0.147800	0.481100
O31	O3	0.248400	0.773800	0.149200
O41	O4	0.952900	0.378800	0.423200
O51	O5	0.251600	0.226200	0.649200
O61	O6	0.047100	0.878800	0.076800
O71	O7	0.271900	0.213800	0.415400
O81	O8	0.491700	0.852200	0.981100
O91	O9	0.748400	0.726200	0.850800
O101	O10	0.228100	0.786200	0.915400
O111	O11	0.771900	0.286200	0.584600
O121	O12	0.751600	0.273800	0.350800
O131	O13	0.991700	0.647800	0.018900
O141	O14	0.452900	0.121200	0.576800
O151	O15	0.508300	0.352200	0.518900
O161	O16	0.547100	0.621200	0.923200
