data_FIRPAZ_clean_PM
_symmetry_space_group_name_H-M	'P1'
_cell_length_a	15.695000
_cell_length_b	15.695000
_cell_length_c	18.546000
_cell_angle_alpha	90.000000
_cell_angle_beta	90.000000
_cell_angle_gamma	120.000000
_symmetry_Int_Tables_number 1

loop_
_symmetry_equiv_pos_as_xyz
'x,y,z'

loop_
_atom_site_label
_atom_site_type_symbol
_atom_site_fract_x
_atom_site_fract_y
_atom_site_fract_z
Ni11	Ni1	0.822430	0.000000	0.000000
Ni21	Ni2	0.177570	0.177570	0.333330
Ni31	Ni3	0.000000	0.822430	0.666670
H11	H1	0.931300	0.312100	0.048100
H21	H2	0.703500	0.601600	0.514770
H31	H3	0.460200	0.966700	0.564170
H41	H4	0.991800	0.894600	0.516670
H51	H5	0.066100	0.561000	0.571230
H61	H6	0.506500	0.539800	0.897500
H71	H7	0.966700	0.460200	0.102500
H81	H8	0.933900	0.494900	0.762100
H91	H9	0.097200	0.105400	0.483330
H101	H10	0.619200	0.687900	0.951900
H111	H11	0.654500	0.807100	0.052500
H121	H12	0.345500	0.152600	0.280830
H131	H13	0.493500	0.033300	0.435830
H141	H14	0.902800	0.008200	0.850000
H151	H15	0.687900	0.619200	0.714770
H161	H16	0.961500	0.108500	0.750700
H171	H17	0.938000	0.642400	0.760300
H181	H18	0.192900	0.847400	0.719170
H191	H19	0.147000	0.038500	0.084030
H201	H20	0.008200	0.902800	0.816670
H211	H21	0.105400	0.097200	0.183330
H221	H22	0.068700	0.380800	0.285230
H231	H23	0.152600	0.345500	0.385830
H241	H24	0.295600	0.357600	0.239700
H251	H25	0.312100	0.931300	0.618570
H261	H26	0.439000	0.505100	0.237900
H271	H27	0.561000	0.066100	0.095430
H281	H28	0.539800	0.506500	0.769170
H291	H29	0.807100	0.654500	0.614170
H301	H30	0.108500	0.961500	0.915970
H311	H31	0.357600	0.295600	0.426970
H321	H32	0.894600	0.991800	0.150000
H331	H33	0.853000	0.891500	0.249300
H341	H34	0.380800	0.068700	0.381430
H351	H35	0.601600	0.703500	0.151900
H361	H36	0.505100	0.439000	0.428770
H371	H37	0.296500	0.898100	0.818570
H381	H38	0.101900	0.398400	0.485230
H391	H39	0.847400	0.192900	0.947500
H401	H40	0.062000	0.704400	0.573030
H411	H41	0.642400	0.938000	0.906370
H421	H42	0.494900	0.933900	0.904570
H431	H43	0.038500	0.147000	0.582630
H441	H44	0.891500	0.853000	0.417370
H451	H45	0.704400	0.062000	0.093630
H461	H46	0.898100	0.296500	0.848100
H471	H47	0.033300	0.493500	0.230830
H481	H48	0.398400	0.101900	0.181430
C11	C1	0.030000	0.307700	0.609730
C21	C2	0.869200	0.174900	0.906700
C31	C3	0.174900	0.869200	0.759970
C41	C4	0.714400	0.737200	0.867900
C51	C5	0.625700	0.963600	0.945570
C61	C6	0.190000	0.063600	0.122930
C71	C7	0.720000	0.787600	0.212500
C81	C8	0.488300	0.488300	0.333330
C91	C9	0.067600	0.280000	0.545830
C101	C10	0.000000	0.511700	0.666670
C111	C11	0.810000	0.873600	0.210400
C121	C12	0.825100	0.694300	0.573370
C131	C13	0.022800	0.285600	0.201230
C141	C14	0.563100	0.584900	0.873300
C151	C15	0.307700	0.030000	0.056930
C161	C16	0.097400	0.164700	0.483430
C171	C17	0.978200	0.415100	0.126700
C181	C18	0.337900	0.374300	0.278900
C191	C19	0.963600	0.625700	0.721100
C201	C20	0.932400	0.212400	0.787500
C211	C21	0.787600	0.720000	0.454170
C221	C22	0.374300	0.337900	0.387770
C231	C23	0.277700	0.970000	0.943070
C241	C24	0.902600	0.067300	0.849900
C251	C25	0.305700	0.130800	0.240030
C261	C26	0.038700	0.575700	0.610430
C271	C27	0.000000	0.414800	0.666670
C281	C28	0.414800	0.000000	0.000000
C291	C29	0.369800	0.042300	0.427630
C301	C30	0.961300	0.537000	0.722900
C311	C31	0.761800	0.661700	0.513670
C321	C32	0.035100	0.210600	0.242630
C331	C33	0.957700	0.327500	0.094300
C341	C34	0.970000	0.277700	0.723600
C351	C35	0.063600	0.190000	0.543730
C361	C36	0.327500	0.957700	0.572370
C371	C37	0.126400	0.936400	0.877070
C381	C38	0.280000	0.067600	0.120830
C391	C39	0.661700	0.761800	0.153000
C401	C40	0.722300	0.692300	0.390270
C411	C41	0.575700	0.038700	0.056230
C421	C42	0.164700	0.097400	0.183230
C431	C43	0.415100	0.978200	0.539970
C441	C44	0.824500	0.789400	0.757370
C451	C45	0.238200	0.899900	0.819670
C461	C46	0.042300	0.369800	0.239030
C471	C47	0.424300	0.463000	0.277100
C481	C48	0.175500	0.964900	0.575970
C491	C49	0.873600	0.810000	0.456270
C501	C50	0.932700	0.835300	0.516570
C511	C51	0.964900	0.175500	0.090700
C521	C52	0.630200	0.672500	0.905700
C531	C53	0.463000	0.424300	0.389570
C541	C54	0.021800	0.436900	0.206630
C551	C55	0.338300	0.100100	0.180330
C561	C56	0.936400	0.126400	0.789600
C571	C57	0.067300	0.902600	0.816770
C581	C58	0.694300	0.825100	0.093300
C591	C59	0.210600	0.035100	0.424030
C601	C60	0.977200	0.262800	0.132100
C611	C61	0.436900	0.021800	0.460030
C621	C62	0.100100	0.338300	0.486330
C631	C63	0.672500	0.630200	0.760970
C641	C64	0.511700	0.000000	0.000000
C651	C65	0.835300	0.932700	0.150100
C661	C66	0.899900	0.238200	0.847000
C671	C67	0.692300	0.722300	0.276400
C681	C68	0.036400	0.662100	0.612230
C691	C69	0.789400	0.824500	0.909300
C701	C70	0.537000	0.961300	0.943770
C711	C71	0.585200	0.585200	0.333330
C721	C72	0.584900	0.563100	0.793370
C731	C73	0.262800	0.977200	0.534570
C741	C74	0.737200	0.714400	0.798770
C751	C75	0.212400	0.932400	0.879170
C761	C76	0.130800	0.305700	0.426630
C771	C77	0.662100	0.036400	0.054430
C781	C78	0.285600	0.022800	0.465430
N11	N1	0.908700	0.778500	0.574550
N21	N2	0.246600	0.000000	0.000000
N31	N3	0.091300	0.869800	0.758790
N41	N4	0.221500	0.130200	0.241210
N51	N5	0.130200	0.221500	0.425450
N61	N6	0.869800	0.091300	0.907880
N71	N7	0.000000	0.688800	0.666670
N81	N8	0.778500	0.908700	0.092120
N91	N9	0.753400	0.753400	0.333330
N101	N10	0.360800	0.965500	0.941070
N111	N11	0.604700	0.639200	0.274400
N121	N12	0.688800	0.000000	0.000000
N131	N13	0.395300	0.034500	0.058930
N141	N14	0.311200	0.311200	0.333330
N151	N15	0.965500	0.360800	0.725600
N161	N16	0.639200	0.604700	0.392270
N171	N17	0.000000	0.246600	0.666670
N181	N18	0.034500	0.395300	0.607730
O11	O1	0.842200	0.872700	0.753370
O21	O2	0.157800	0.030500	0.579970
O31	O3	0.125200	0.880300	0.602930
O41	O4	0.127300	0.969500	0.420030
O51	O5	0.244900	0.119700	0.397070
O61	O6	0.874800	0.755100	0.730410
O71	O7	0.969500	0.127300	0.246630
O81	O8	0.030500	0.157800	0.086700
O91	O9	0.755100	0.874800	0.936260
O101	O10	0.872700	0.842200	0.913300
O111	O11	0.119700	0.244900	0.269590
O121	O12	0.880300	0.125200	0.063740
