data_FIRZOX_clean_PM
_symmetry_space_group_name_H-M	'P1'
_cell_length_a	13.848800
_cell_length_b	15.521500
_cell_length_c	15.521500
_cell_angle_alpha	120.000000
_cell_angle_beta	90.000000
_cell_angle_gamma	90.000000
_symmetry_Int_Tables_number 1

loop_
_symmetry_equiv_pos_as_xyz
'x,y,z'

loop_
_atom_site_label
_atom_site_type_symbol
_atom_site_fract_x
_atom_site_fract_y
_atom_site_fract_z
Ce11	Ce1	0.466180	0.333330	0.666660
Ce21	Ce2	0.966180	0.666670	0.333340
Ce31	Ce3	0.033820	0.333330	0.666660
Ce41	Ce4	0.533820	0.666670	0.333340
Cu11	Cu1	0.750000	0.501770	0.975690
Cu21	Cu2	0.750000	0.473920	0.498230
Cu31	Cu3	0.750000	0.024310	0.526080
Cu41	Cu4	0.250000	0.526080	0.024310
Cu51	Cu5	0.250000	0.498230	0.473920
Cu61	Cu6	0.250000	0.975690	0.501770
H11	H1	0.510100	0.393200	0.088000
H21	H2	0.750000	0.726300	0.348600
H31	H3	0.588500	0.781900	0.138600
H41	H4	0.750000	0.651400	0.377700
H51	H5	0.588500	0.861400	0.643300
H61	H6	0.010100	0.305200	0.912000
H71	H7	0.010100	0.606800	0.694800
H81	H8	0.489900	0.088000	0.393200
H91	H9	0.496000	0.384600	0.285700
H101	H10	0.510100	0.912000	0.305200
H111	H11	0.572000	0.144900	0.372200
H121	H12	0.928000	0.627800	0.772700
H131	H13	0.496000	0.714300	0.098900
H141	H14	0.572000	0.227300	0.855100
H151	H15	0.911500	0.861400	0.643300
H161	H16	0.504000	0.615400	0.901100
H171	H17	0.504000	0.285700	0.384600
H181	H18	0.004000	0.384600	0.285700
H191	H19	0.996000	0.615400	0.901100
H201	H20	0.911500	0.356700	0.218100
H211	H21	0.504000	0.098900	0.714300
H221	H22	0.010100	0.088000	0.393200
H231	H23	0.489900	0.305200	0.912000
H241	H24	0.989900	0.912000	0.305200
H251	H25	0.989900	0.694800	0.606800
H261	H26	0.588500	0.356700	0.218100
H271	H27	0.072000	0.855100	0.227300
H281	H28	0.088500	0.138600	0.781900
H291	H29	0.088500	0.643300	0.861400
H301	H30	0.250000	0.348600	0.726300
H311	H31	0.072000	0.772700	0.627800
H321	H32	0.004000	0.714300	0.098900
H331	H33	0.572000	0.627800	0.772700
H341	H34	0.428000	0.372200	0.144900
H351	H35	0.750000	0.622300	0.273700
H361	H36	0.996000	0.098900	0.714300
H371	H37	0.411500	0.218100	0.356700
H381	H38	0.928000	0.144900	0.372200
H391	H39	0.496000	0.901100	0.615400
H401	H40	0.004000	0.901100	0.615400
H411	H41	0.911500	0.781900	0.138600
H421	H42	0.989900	0.393200	0.088000
H431	H43	0.088500	0.218100	0.356700
H441	H44	0.996000	0.285700	0.384600
H451	H45	0.510100	0.694800	0.606800
H461	H46	0.072000	0.372200	0.144900
H471	H47	0.489900	0.606800	0.694800
H481	H48	0.428000	0.772700	0.627800
H491	H49	0.928000	0.227300	0.855100
H501	H50	0.250000	0.273700	0.622300
H511	H51	0.411500	0.643300	0.861400
H521	H52	0.411500	0.138600	0.781900
H531	H53	0.428000	0.855100	0.227300
H541	H54	0.250000	0.377700	0.651400
C11	C1	0.113700	0.528100	0.889300
C21	C2	0.598200	0.361800	0.864800
C31	C3	0.901800	0.503000	0.638200
C41	C4	0.533400	0.279600	0.855500
C51	C5	0.948600	0.857400	0.588400
C61	C6	0.051400	0.142600	0.731000
C71	C7	0.466600	0.424100	0.144500
C81	C8	0.401800	0.497000	0.135200
C91	C9	0.051400	0.588400	0.857400
C101	C10	0.113700	0.110700	0.638800
C111	C11	0.886300	0.638800	0.110700
C121	C12	0.533400	0.144500	0.424100
C131	C13	0.533400	0.575900	0.720400
C141	C14	0.551400	0.731000	0.142600
C151	C15	0.386300	0.110700	0.638800
C161	C16	0.448600	0.588400	0.857400
C171	C17	0.098200	0.497000	0.135200
C181	C18	0.901800	0.361800	0.864800
C191	C19	0.033400	0.424100	0.144500
C201	C20	0.948600	0.411600	0.269000
C211	C21	0.386300	0.361200	0.471900
C221	C22	0.613700	0.638800	0.110700
C231	C23	0.113700	0.361200	0.471900
C241	C24	0.966600	0.575900	0.720400
C251	C25	0.448600	0.142600	0.731000
C261	C26	0.966600	0.279600	0.855500
C271	C27	0.098200	0.864800	0.361800
C281	C28	0.033400	0.855500	0.279600
C291	C29	0.051400	0.269000	0.411600
C301	C30	0.033400	0.720400	0.575900
C311	C31	0.098200	0.638200	0.503000
C321	C32	0.551400	0.857400	0.588400
C331	C33	0.901800	0.135200	0.497000
C341	C34	0.966600	0.144500	0.424100
C351	C35	0.551400	0.411600	0.269000
C361	C36	0.948600	0.731000	0.142600
C371	C37	0.598200	0.503000	0.638200
C381	C38	0.401800	0.638200	0.503000
C391	C39	0.466600	0.720400	0.575900
C401	C40	0.448600	0.269000	0.411600
C411	C41	0.886300	0.889300	0.528100
C421	C42	0.613700	0.889300	0.528100
C431	C43	0.466600	0.855500	0.279600
C441	C44	0.886300	0.471900	0.361200
C451	C45	0.613700	0.471900	0.361200
C461	C46	0.401800	0.864800	0.361800
C471	C47	0.598200	0.135200	0.497000
C481	C48	0.386300	0.528100	0.889300
O11	O1	0.652150	0.604700	0.027500
O21	O2	0.379140	0.395110	0.563920
O31	O3	0.595340	0.384280	0.798260
O41	O4	0.848700	0.398910	0.939940
O51	O5	0.847850	0.422800	0.395300
O61	O6	0.620860	0.563920	0.395110
O71	O7	0.651300	0.398910	0.939940
O81	O8	0.347850	0.395300	0.422800
O91	O9	0.651300	0.541030	0.601090
O101	O10	0.904660	0.201740	0.586020
O111	O11	0.979370	0.759490	0.525990
O121	O12	0.879140	0.831190	0.436080
O131	O13	0.020630	0.525990	0.759490
O141	O14	0.848700	0.060060	0.458970
O151	O15	0.347850	0.027500	0.604700
O161	O16	0.520630	0.766500	0.240510
O171	O17	0.652150	0.972500	0.577200
O181	O18	0.904660	0.413980	0.615720
O191	O19	0.152150	0.027500	0.604700
O201	O20	0.479370	0.525990	0.759490
O211	O21	0.879140	0.563920	0.395110
O221	O22	0.520630	0.474010	0.233500
O231	O23	0.595340	0.201740	0.586020
O241	O24	0.652150	0.422800	0.395300
O251	O25	0.250000	0.333330	0.666660
O261	O26	0.848700	0.541030	0.601090
O271	O27	0.979370	0.766500	0.240510
O281	O28	0.348700	0.601090	0.541030
O291	O29	0.095340	0.586020	0.201740
O301	O30	0.379140	0.168810	0.604890
O311	O31	0.348700	0.939940	0.398910
O321	O32	0.348700	0.458970	0.060060
O331	O33	0.847850	0.972500	0.577200
O341	O34	0.520630	0.759490	0.525990
O351	O35	0.750000	0.666670	0.333340
O361	O36	0.479370	0.233500	0.474010
O371	O37	0.404660	0.615720	0.413980
O381	O38	0.904660	0.384280	0.798260
O391	O39	0.152150	0.395300	0.422800
O401	O40	0.379140	0.436080	0.831190
O411	O41	0.404660	0.798260	0.384280
O421	O42	0.020630	0.240510	0.766500
O431	O43	0.620860	0.831190	0.436080
O441	O44	0.879140	0.604890	0.168810
O451	O45	0.651300	0.060060	0.458970
O461	O46	0.479370	0.240510	0.766500
O471	O47	0.095340	0.798260	0.384280
O481	O48	0.120860	0.436080	0.831190
O491	O49	0.120860	0.395110	0.563920
O501	O50	0.347850	0.577200	0.972500
O511	O51	0.595340	0.413980	0.615720
O521	O52	0.152150	0.577200	0.972500
O531	O53	0.095340	0.615720	0.413980
O541	O54	0.020630	0.233500	0.474010
O551	O55	0.979370	0.474010	0.233500
O561	O56	0.151300	0.458970	0.060060
O571	O57	0.620860	0.604890	0.168810
O581	O58	0.151300	0.939940	0.398910
O591	O59	0.120860	0.168810	0.604890
O601	O60	0.404660	0.586020	0.201740
O611	O61	0.151300	0.601090	0.541030
O621	O62	0.847850	0.604700	0.027500
