data_FITGEW_clean_PM
_symmetry_space_group_name_H-M	'P1'
_cell_length_a	37.482200
_cell_length_b	37.482200
_cell_length_c	17.202400
_cell_angle_alpha	90.000000
_cell_angle_beta	90.000000
_cell_angle_gamma	120.000000
_symmetry_Int_Tables_number 1

loop_
_symmetry_equiv_pos_as_xyz
'x,y,z'

loop_
_atom_site_label
_atom_site_type_symbol
_atom_site_fract_x
_atom_site_fract_y
_atom_site_fract_z
Ni11	Ni1	0.507080	0.309130	0.810540
Ni21	Ni2	0.431490	0.439340	0.519660
O11	O1	0.523420	0.346070	0.712660
O21	O2	0.537690	0.312420	0.622700
O31	O3	0.615910	0.393280	0.722270
O41	O4	0.610050	0.448070	0.754860
O51	O5	0.599820	0.526780	0.465430
O61	O6	0.546570	0.504840	0.542390
O71	O7	0.513270	0.447100	0.399960
O81	O8	0.470900	0.417760	0.500980
N11	N1	0.445480	0.273550	0.776900
N21	N2	0.190030	0.169710	0.534400
N31	N3	0.394830	0.408820	0.425500
N41	N4	0.271180	0.338440	0.936200
C11	C1	0.554610	0.381440	0.594000
H11	H1	0.564100	0.374100	0.545300
C21	C2	0.591630	0.422110	0.625900
H21	H2	0.615500	0.428700	0.590900
C31	C3	0.519470	0.390220	0.570800
H31	H3	0.493900	0.364100	0.556500
C41	C4	0.535710	0.419840	0.500700
H41	H4	0.544200	0.406500	0.460000
C51	C5	0.575490	0.460510	0.526500
H51	H5	0.599600	0.462400	0.497900
C61	C6	0.582070	0.457390	0.615500
H61	H6	0.605400	0.483900	0.635300
C71	C7	0.511090	0.411530	0.636400
H71	H7	0.484700	0.400600	0.659900
C81	C8	0.543110	0.446480	0.658800
H81	H8	0.541700	0.463300	0.698600
C91	C9	0.538000	0.344040	0.648400
C101	C10	0.606000	0.420390	0.708200
C111	C11	0.503940	0.428970	0.464000
C121	C12	0.573600	0.499210	0.510600
C131	C13	0.436180	0.263510	0.701700
H91	H9	0.458100	0.272900	0.665200
C141	C14	0.396340	0.240160	0.675100
H101	H10	0.391300	0.234200	0.621200
C151	C15	0.363260	0.225150	0.726900
C161	C16	0.372860	0.233280	0.805800
H111	H11	0.351600	0.222200	0.843800
C171	C17	0.413730	0.257740	0.828400
H121	H12	0.419700	0.263700	0.882100
C181	C18	0.319940	0.204740	0.701900
H131	H13	0.299300	0.194500	0.741100
C191	C19	0.307500	0.199530	0.627900
H141	H14	0.328000	0.205300	0.589700
C201	C20	0.265750	0.185860	0.598600
C211	C21	0.260620	0.188740	0.518900
H151	H15	0.283100	0.196100	0.484500
C221	C22	0.223170	0.181020	0.489900
H161	H16	0.220800	0.183900	0.435600
C231	C23	0.194020	0.165150	0.610600
H171	H17	0.170500	0.156300	0.642900
C241	C24	0.230720	0.172710	0.644700
H181	H18	0.232000	0.168900	0.699000
C251	C25	0.355250	0.398190	0.422700
H191	H19	0.342600	0.400800	0.468500
C261	C26	0.331720	0.383460	0.355800
H201	H20	0.303500	0.376100	0.356300
C271	C27	0.349560	0.379400	0.287800
C281	C28	0.391170	0.390210	0.291600
H211	H21	0.404600	0.387500	0.247000
C291	C29	0.412520	0.404860	0.360900
H221	H22	0.440800	0.412400	0.362700
C301	C30	0.325810	0.364990	0.216200
H231	H23	0.297000	0.346900	0.220500
C311	C31	0.341770	0.375460	0.144600
H241	H24	0.370700	0.392900	0.140100
C321	C32	0.317580	0.361790	0.072900
C331	C33	0.330330	0.387130	0.006400
H251	H25	0.355400	0.412700	0.007100
C341	C34	0.306310	0.374590	0.940400
H261	H26	0.315000	0.392200	0.896300
C351	C35	0.259810	0.313230	0.998600
H271	H27	0.235600	0.287000	0.995000
C361	C36	0.281760	0.323870	0.067100
H281	H28	0.272500	0.305400	0.110000
Ni31	Ni3	0.173750	0.642460	0.143870
Ni41	Ni4	0.098160	0.772670	0.852990
O91	O9	0.190090	0.679400	0.045990
O101	O10	0.204360	0.645750	0.956030
O111	O11	0.282580	0.726610	0.055600
O121	O12	0.276720	0.781400	0.088190
O131	O13	0.266490	0.860110	0.798760
O141	O14	0.213240	0.838170	0.875720
O151	O15	0.179940	0.780430	0.733290
O161	O16	0.137570	0.751090	0.834310
N51	N5	0.112150	0.606880	0.110230
N61	N6	0.856700	0.503040	0.867730
N71	N7	0.061500	0.742150	0.758830
N81	N8	0.937850	0.671770	0.269530
C371	C37	0.221280	0.714770	0.927330
H291	H29	0.230770	0.707430	0.878630
C381	C38	0.258300	0.755440	0.959230
H301	H30	0.282170	0.762030	0.924230
C391	C39	0.186140	0.723550	0.904130
H311	H31	0.160570	0.697430	0.889830
C401	C40	0.202380	0.753170	0.834030
H321	H32	0.210870	0.739830	0.793330
C411	C41	0.242160	0.793840	0.859830
H331	H33	0.266270	0.795730	0.831230
C421	C42	0.248740	0.790720	0.948830
H341	H34	0.272070	0.817230	0.968630
C431	C43	0.177760	0.744860	0.969730
H351	H35	0.151370	0.733930	0.993230
C441	C44	0.209780	0.779810	0.992130
H361	H36	0.208370	0.796630	0.031930
C451	C45	0.204670	0.677370	0.981730
C461	C46	0.272670	0.753720	0.041530
C471	C47	0.170610	0.762300	0.797330
C481	C48	0.240270	0.832540	0.843930
C491	C49	0.102850	0.596840	0.035030
H371	H37	0.124770	0.606230	0.998530
C501	C50	0.063010	0.573490	0.008430
H381	H38	0.057970	0.567530	0.954530
C511	C51	0.029930	0.558480	0.060230
C521	C52	0.039530	0.566610	0.139130
H391	H39	0.018270	0.555530	0.177130
C531	C53	0.080400	0.591070	0.161730
H401	H40	0.086370	0.597030	0.215430
C541	C54	0.986610	0.538070	0.035230
H411	H41	0.965970	0.527830	0.074430
C551	C55	0.974170	0.532860	0.961230
H421	H42	0.994670	0.538630	0.923030
C561	C56	0.932420	0.519190	0.931930
C571	C57	0.927290	0.522070	0.852230
H431	H43	0.949770	0.529430	0.817830
C581	C58	0.889840	0.514350	0.823230
H441	H44	0.887470	0.517230	0.768930
C591	C59	0.860690	0.498480	0.943930
H451	H45	0.837170	0.489630	0.976230
C601	C60	0.897390	0.506040	0.978030
H461	H46	0.898670	0.502230	0.032330
C611	C61	0.021920	0.731520	0.756030
H471	H47	0.009270	0.734130	0.801830
C621	C62	0.998390	0.716790	0.689130
H481	H48	0.970170	0.709430	0.689630
C631	C63	0.016230	0.712730	0.621130
C641	C64	0.057840	0.723540	0.624930
H491	H49	0.071270	0.720830	0.580330
C651	C65	0.079190	0.738190	0.694230
H501	H50	0.107470	0.745730	0.696030
C661	C66	0.992480	0.698320	0.549530
H511	H51	0.963670	0.680230	0.553830
C671	C67	0.008440	0.708790	0.477930
H521	H52	0.037370	0.726230	0.473430
C681	C68	0.984250	0.695120	0.406230
C691	C69	0.997000	0.720460	0.339730
H531	H53	0.022070	0.746030	0.340430
C701	C70	0.972980	0.707920	0.273730
H541	H54	0.981670	0.725530	0.229630
C711	C71	0.926480	0.646560	0.331930
H551	H55	0.902270	0.620330	0.328330
C721	C72	0.948430	0.657200	0.400430
H561	H56	0.939170	0.638730	0.443330
Ni51	Ni5	0.840410	0.975800	0.477210
Ni61	Ni6	0.764820	0.106010	0.186330
O171	O17	0.856750	0.012740	0.379330
O181	O18	0.871020	0.979090	0.289370
O191	O19	0.949240	0.059950	0.388940
O201	O20	0.943380	0.114740	0.421530
O211	O21	0.933150	0.193450	0.132100
O221	O22	0.879900	0.171510	0.209060
O231	O23	0.846600	0.113770	0.066630
O241	O24	0.804230	0.084430	0.167650
N91	N9	0.778810	0.940220	0.443570
N101	N10	0.523360	0.836380	0.201070
N111	N11	0.728160	0.075490	0.092170
N121	N12	0.604510	0.005110	0.602870
C731	C73	0.887940	0.048110	0.260670
H571	H57	0.897430	0.040770	0.211970
C741	C74	0.924960	0.088780	0.292570
H581	H58	0.948830	0.095370	0.257570
C751	C75	0.852800	0.056890	0.237470
H591	H59	0.827230	0.030770	0.223170
C761	C76	0.869040	0.086510	0.167370
H601	H60	0.877530	0.073170	0.126670
C771	C77	0.908820	0.127180	0.193170
H611	H61	0.932930	0.129070	0.164570
C781	C78	0.915400	0.124060	0.282170
H621	H62	0.938730	0.150570	0.301970
C791	C79	0.844420	0.078200	0.303070
H631	H63	0.818030	0.067270	0.326570
C801	C80	0.876440	0.113150	0.325470
H641	H64	0.875030	0.129970	0.365270
C811	C81	0.871330	0.010710	0.315070
C821	C82	0.939330	0.087060	0.374870
C831	C83	0.837270	0.095640	0.130670
C841	C84	0.906930	0.165880	0.177270
C851	C85	0.769510	0.930180	0.368370
H651	H65	0.791430	0.939570	0.331870
C861	C86	0.729670	0.906830	0.341770
H661	H66	0.724630	0.900870	0.287870
C871	C87	0.696590	0.891820	0.393570
C881	C88	0.706190	0.899950	0.472470
H671	H67	0.684930	0.888870	0.510470
C891	C89	0.747060	0.924410	0.495070
H681	H68	0.753030	0.930370	0.548770
C901	C90	0.653270	0.871410	0.368570
H691	H69	0.632630	0.861170	0.407770
C911	C91	0.640830	0.866200	0.294570
H701	H70	0.661330	0.871970	0.256370
C921	C92	0.599080	0.852530	0.265270
C931	C93	0.593950	0.855410	0.185570
H711	H71	0.616430	0.862770	0.151170
C941	C94	0.556500	0.847690	0.156570
H721	H72	0.554130	0.850570	0.102270
C951	C95	0.527350	0.831820	0.277270
H731	H73	0.503830	0.822970	0.309570
C961	C96	0.564050	0.839380	0.311370
H741	H74	0.565330	0.835570	0.365670
C971	C97	0.688580	0.064860	0.089370
H751	H75	0.675930	0.067470	0.135170
C981	C98	0.665050	0.050130	0.022470
H761	H76	0.636830	0.042770	0.022970
C991	C99	0.682890	0.046070	0.954470
C1001	C100	0.724500	0.056880	0.958270
H771	H77	0.737930	0.054170	0.913670
C1011	C101	0.745850	0.071530	0.027570
H781	H78	0.774130	0.079070	0.029370
C1021	C102	0.659140	0.031660	0.882870
H791	H79	0.630330	0.013570	0.887170
C1031	C103	0.675100	0.042130	0.811270
H801	H80	0.704030	0.059570	0.806770
C1041	C104	0.650910	0.028460	0.739570
C1051	C105	0.663660	0.053800	0.673070
H811	H81	0.688730	0.079370	0.673770
C1061	C106	0.639640	0.041260	0.607070
H821	H82	0.648330	0.058870	0.562970
C1071	C107	0.593140	0.979900	0.665270
H831	H83	0.568930	0.953670	0.661670
C1081	C108	0.615090	0.990540	0.733770
H841	H84	0.605830	0.972070	0.776670
Ni71	Ni7	0.690870	0.197950	0.810540
Ni81	Ni8	0.560660	0.992150	0.519660
O251	O25	0.653930	0.177350	0.712660
O261	O26	0.687580	0.225270	0.622700
O271	O27	0.606720	0.222630	0.722270
O281	O28	0.551930	0.161980	0.754860
O291	O29	0.473220	0.073040	0.465430
O301	O30	0.495160	0.041730	0.542390
O311	O31	0.552900	0.066170	0.399960
O321	O32	0.582240	0.053140	0.500980
N131	N13	0.726450	0.171930	0.776900
N141	N14	0.830290	0.020320	0.534400
N151	N15	0.591180	0.986010	0.425500
N161	N16	0.661560	0.932740	0.936200
C1091	C109	0.618560	0.173170	0.594000
H851	H85	0.625900	0.190000	0.545300
C1101	C110	0.577890	0.169520	0.625900
H861	H86	0.571300	0.186800	0.590900
C1111	C111	0.609780	0.129250	0.570800
H871	H87	0.635900	0.129800	0.556500
C1121	C112	0.580160	0.115870	0.500700
H881	H88	0.593500	0.137700	0.460000
C1131	C113	0.539490	0.114980	0.526500
H891	H89	0.537600	0.137200	0.497900
C1141	C114	0.542610	0.124680	0.615500
H901	H90	0.516100	0.121500	0.635300
C1151	C115	0.588470	0.099560	0.636400
H911	H91	0.599400	0.084100	0.659900
C1161	C116	0.553520	0.096630	0.658800
H921	H92	0.536700	0.078400	0.698600
C1171	C117	0.655960	0.193960	0.648400
C1181	C118	0.579610	0.185610	0.708200
C1191	C119	0.571030	0.074970	0.464000
C1201	C120	0.500790	0.074390	0.510600
C1211	C121	0.736490	0.172670	0.701700
H931	H93	0.727100	0.185200	0.665200
C1221	C122	0.759840	0.156180	0.675100
H941	H94	0.765800	0.157100	0.621200
C1231	C123	0.774850	0.138110	0.726900
C1241	C124	0.766720	0.139580	0.805800
H951	H95	0.777800	0.129400	0.843800
C1251	C125	0.742260	0.155990	0.828400
H961	H96	0.736300	0.156000	0.882100
C1261	C126	0.795260	0.115200	0.701900
H971	H97	0.805500	0.104800	0.741100
C1271	C127	0.800470	0.107970	0.627900
H981	H98	0.794700	0.122700	0.589700
C1281	C128	0.814140	0.079890	0.598600
C1291	C129	0.811260	0.071880	0.518900
H991	H99	0.803900	0.087000	0.484500
C1301	C130	0.818980	0.042150	0.489900
H1001	H100	0.816100	0.036900	0.435600
C1311	C131	0.834850	0.028870	0.610600
H1011	H101	0.843700	0.014200	0.642900
C1321	C132	0.827290	0.058010	0.644700
H1021	H102	0.831100	0.063100	0.699000
C1331	C133	0.601810	0.957060	0.422700
H1031	H103	0.599200	0.941800	0.468500
C1341	C134	0.616540	0.948260	0.355800
H1041	H104	0.623900	0.927400	0.356300
C1351	C135	0.620600	0.970160	0.287800
C1361	C136	0.609790	0.000960	0.291600
H1051	H105	0.612500	0.017100	0.247000
C1371	C137	0.595140	0.007660	0.360900
H1061	H106	0.587600	0.028400	0.362700
C1381	C138	0.635010	0.960820	0.216200
H1071	H107	0.653100	0.950100	0.220500
C1391	C139	0.624540	0.966310	0.144600
H1081	H108	0.607100	0.977800	0.140100
C1401	C140	0.638210	0.955790	0.072900
C1411	C141	0.612870	0.943200	0.006400
H1091	H109	0.587300	0.942700	0.007100
C1421	C142	0.625410	0.931720	0.940400
H1101	H110	0.607800	0.922800	0.896300
C1431	C143	0.686770	0.946580	0.998600
H1111	H111	0.713000	0.948600	0.995000
C1441	C144	0.676130	0.957890	0.067100
H1121	H112	0.694600	0.967100	0.110000
Ni91	Ni9	0.357540	0.531280	0.143870
Ni101	Ni10	0.227330	0.325480	0.852990
O331	O33	0.320600	0.510680	0.045990
O341	O34	0.354250	0.558600	0.956030
O351	O35	0.273390	0.555960	0.055600
O361	O36	0.218600	0.495310	0.088190
O371	O37	0.139890	0.406370	0.798760
O381	O38	0.161830	0.375060	0.875720
O391	O39	0.219570	0.399500	0.733290
O401	O40	0.248910	0.386470	0.834310
N171	N17	0.393120	0.505260	0.110230
N181	N18	0.496960	0.353650	0.867730
N191	N19	0.257850	0.319340	0.758830
N201	N20	0.328230	0.266070	0.269530
C1451	C145	0.285230	0.506500	0.927330
H1131	H113	0.292570	0.523330	0.878630
C1461	C146	0.244560	0.502850	0.959230
H1141	H114	0.237970	0.520130	0.924230
C1471	C147	0.276450	0.462580	0.904130
H1151	H115	0.302570	0.463130	0.889830
C1481	C148	0.246830	0.449200	0.834030
H1161	H116	0.260170	0.471030	0.793330
C1491	C149	0.206160	0.448310	0.859830
H1171	H117	0.204270	0.470530	0.831230
C1501	C150	0.209280	0.458010	0.948830
H1181	H118	0.182770	0.454830	0.968630
C1511	C151	0.255140	0.432890	0.969730
H1191	H119	0.266070	0.417430	0.993230
C1521	C152	0.220190	0.429960	0.992130
H1201	H120	0.203370	0.411730	0.031930
C1531	C153	0.322630	0.527290	0.981730
C1541	C154	0.246280	0.518940	0.041530
C1551	C155	0.237700	0.408300	0.797330
C1561	C156	0.167460	0.407720	0.843930
C1571	C157	0.403160	0.506000	0.035030
H1211	H121	0.393770	0.518530	0.998530
C1581	C158	0.426510	0.489510	0.008430
H1221	H122	0.432470	0.490430	0.954530
C1591	C159	0.441520	0.471440	0.060230
C1601	C160	0.433390	0.472910	0.139130
H1231	H123	0.444470	0.462730	0.177130
C1611	C161	0.408930	0.489320	0.161730
H1241	H124	0.402970	0.489330	0.215430
C1621	C162	0.461930	0.448530	0.035230
H1251	H125	0.472170	0.438130	0.074430
C1631	C163	0.467140	0.441300	0.961230
H1261	H126	0.461370	0.456030	0.923030
C1641	C164	0.480810	0.413220	0.931930
C1651	C165	0.477930	0.405210	0.852230
H1271	H127	0.470570	0.420330	0.817830
C1661	C166	0.485650	0.375480	0.823230
H1281	H128	0.482770	0.370230	0.768930
C1671	C167	0.501520	0.362200	0.943930
H1291	H129	0.510370	0.347530	0.976230
C1681	C168	0.493960	0.391340	0.978030
H1301	H130	0.497770	0.396430	0.032330
C1691	C169	0.268480	0.290390	0.756030
H1311	H131	0.265870	0.275130	0.801830
C1701	C170	0.283210	0.281590	0.689130
H1321	H132	0.290570	0.260730	0.689630
C1711	C171	0.287270	0.303490	0.621130
C1721	C172	0.276460	0.334290	0.624930
H1331	H133	0.279170	0.350430	0.580330
C1731	C173	0.261810	0.340990	0.694230
H1341	H134	0.254270	0.361730	0.696030
C1741	C174	0.301680	0.294150	0.549530
H1351	H135	0.319770	0.283430	0.553830
C1751	C175	0.291210	0.299640	0.477930
H1361	H136	0.273770	0.311130	0.473430
C1761	C176	0.304880	0.289120	0.406230
C1771	C177	0.279540	0.276530	0.339730
H1371	H137	0.253970	0.276030	0.340430
C1781	C178	0.292080	0.265050	0.273730
H1381	H138	0.274470	0.256130	0.229630
C1791	C179	0.353440	0.279910	0.331930
H1391	H139	0.379670	0.281930	0.328330
C1801	C180	0.342800	0.291220	0.400430
H1401	H140	0.361270	0.300430	0.443330
Ni111	Ni11	0.024200	0.864620	0.477210
Ni121	Ni12	0.893990	0.658820	0.186330
O411	O41	0.987260	0.844020	0.379330
O421	O42	0.020910	0.891940	0.289370
O431	O43	0.940050	0.889300	0.388940
O441	O44	0.885260	0.828650	0.421530
O451	O45	0.806550	0.739710	0.132100
O461	O46	0.828490	0.708400	0.209060
O471	O47	0.886230	0.732840	0.066630
O481	O48	0.915570	0.719810	0.167650
N211	N21	0.059780	0.838600	0.443570
N221	N22	0.163620	0.686990	0.201070
N231	N23	0.924510	0.652680	0.092170
N241	N24	0.994890	0.599410	0.602870
C1811	C181	0.951890	0.839840	0.260670
H1411	H141	0.959230	0.856670	0.211970
C1821	C182	0.911220	0.836190	0.292570
H1421	H142	0.904630	0.853470	0.257570
C1831	C183	0.943110	0.795920	0.237470
H1431	H143	0.969230	0.796470	0.223170
C1841	C184	0.913490	0.782540	0.167370
H1441	H144	0.926830	0.804370	0.126670
C1851	C185	0.872820	0.781650	0.193170
H1451	H145	0.870930	0.803870	0.164570
C1861	C186	0.875940	0.791350	0.282170
H1461	H146	0.849430	0.788170	0.301970
C1871	C187	0.921800	0.766230	0.303070
H1471	H147	0.932730	0.750770	0.326570
C1881	C188	0.886850	0.763300	0.325470
H1481	H148	0.870030	0.745070	0.365270
C1891	C189	0.989290	0.860630	0.315070
C1901	C190	0.912940	0.852280	0.374870
C1911	C191	0.904360	0.741640	0.130670
C1921	C192	0.834120	0.741060	0.177270
C1931	C193	0.069820	0.839340	0.368370
H1491	H149	0.060430	0.851870	0.331870
C1941	C194	0.093170	0.822850	0.341770
H1501	H150	0.099130	0.823770	0.287870
C1951	C195	0.108180	0.804780	0.393570
C1961	C196	0.100050	0.806250	0.472470
H1511	H151	0.111130	0.796070	0.510470
C1971	C197	0.075590	0.822660	0.495070
H1521	H152	0.069630	0.822670	0.548770
C1981	C198	0.128590	0.781870	0.368570
H1531	H153	0.138830	0.771470	0.407770
C1991	C199	0.133800	0.774640	0.294570
H1541	H154	0.128030	0.789370	0.256370
C2001	C200	0.147470	0.746560	0.265270
C2011	C201	0.144590	0.738550	0.185570
H1551	H155	0.137230	0.753670	0.151170
C2021	C202	0.152310	0.708820	0.156570
H1561	H156	0.149430	0.703570	0.102270
C2031	C203	0.168180	0.695540	0.277270
H1571	H157	0.177030	0.680870	0.309570
C2041	C204	0.160620	0.724680	0.311370
H1581	H158	0.164430	0.729770	0.365670
C2051	C205	0.935140	0.623730	0.089370
H1591	H159	0.932530	0.608470	0.135170
C2061	C206	0.949870	0.614930	0.022470
H1601	H160	0.957230	0.594070	0.022970
C2071	C207	0.953930	0.636830	0.954470
C2081	C208	0.943120	0.667630	0.958270
H1611	H161	0.945830	0.683770	0.913670
C2091	C209	0.928470	0.674330	0.027570
H1621	H162	0.920930	0.695070	0.029370
C2101	C210	0.968340	0.627490	0.882870
H1631	H163	0.986430	0.616770	0.887170
C2111	C211	0.957870	0.632980	0.811270
H1641	H164	0.940430	0.644470	0.806770
C2121	C212	0.971540	0.622460	0.739570
C2131	C213	0.946200	0.609870	0.673070
H1651	H165	0.920630	0.609370	0.673770
C2141	C214	0.958740	0.598390	0.607070
H1661	H166	0.941130	0.589470	0.562970
C2151	C215	0.020100	0.613250	0.665270
H1671	H167	0.046330	0.615270	0.661670
C2161	C216	0.009460	0.624560	0.733770
H1681	H168	0.027930	0.633770	0.776670
Ni131	Ni13	0.802050	0.492920	0.810540
Ni141	Ni14	0.007850	0.568510	0.519660
O491	O49	0.822650	0.476580	0.712660
O501	O50	0.774730	0.462310	0.622700
O511	O51	0.777370	0.384090	0.722270
O521	O52	0.838020	0.389950	0.754860
O531	O53	0.926960	0.400180	0.465430
O541	O54	0.958270	0.453430	0.542390
O551	O55	0.933830	0.486730	0.399960
O561	O56	0.946860	0.529100	0.500980
N251	N25	0.828070	0.554520	0.776900
N261	N26	0.979680	0.809970	0.534400
N271	N27	0.013990	0.605170	0.425500
N281	N28	0.067260	0.728820	0.936200
C2171	C217	0.826830	0.445390	0.594000
H1691	H169	0.810000	0.435900	0.545300
C2181	C218	0.830480	0.408370	0.625900
H1701	H170	0.813200	0.384500	0.590900
C2191	C219	0.870750	0.480530	0.570800
H1711	H171	0.870200	0.506100	0.556500
C2201	C220	0.884130	0.464290	0.500700
H1721	H172	0.862300	0.455800	0.460000
C2211	C221	0.885020	0.424510	0.526500
H1731	H173	0.862800	0.400400	0.497900
C2221	C222	0.875320	0.417930	0.615500
H1741	H174	0.878500	0.394600	0.635300
C2231	C223	0.900440	0.488910	0.636400
H1751	H175	0.915900	0.515300	0.659900
C2241	C224	0.903370	0.456890	0.658800
H1761	H176	0.921600	0.458300	0.698600
C2251	C225	0.806040	0.462000	0.648400
C2261	C226	0.814390	0.394000	0.708200
C2271	C227	0.925030	0.496060	0.464000
C2281	C228	0.925610	0.426400	0.510600
C2291	C229	0.827330	0.563820	0.701700
H1771	H177	0.814800	0.541900	0.665200
C2301	C230	0.843820	0.603660	0.675100
H1781	H178	0.842900	0.608700	0.621200
C2311	C231	0.861890	0.636740	0.726900
C2321	C232	0.860420	0.627140	0.805800
H1791	H179	0.870600	0.648400	0.843800
C2331	C233	0.844010	0.586270	0.828400
H1801	H180	0.844000	0.580300	0.882100
C2341	C234	0.884800	0.680060	0.701900
H1811	H181	0.895200	0.700700	0.741100
C2351	C235	0.892030	0.692500	0.627900
H1821	H182	0.877300	0.672000	0.589700
C2361	C236	0.920110	0.734250	0.598600
C2371	C237	0.928120	0.739380	0.518900
H1831	H183	0.913000	0.716900	0.484500
C2381	C238	0.957850	0.776830	0.489900
H1841	H184	0.963100	0.779200	0.435600
C2391	C239	0.971130	0.805980	0.610600
H1851	H185	0.985800	0.829500	0.642900
C2401	C240	0.941990	0.769280	0.644700
H1861	H186	0.936900	0.768000	0.699000
C2411	C241	0.042940	0.644750	0.422700
H1871	H187	0.058200	0.657400	0.468500
C2421	C242	0.051740	0.668280	0.355800
H1881	H188	0.072600	0.696500	0.356300
C2431	C243	0.029840	0.650440	0.287800
C2441	C244	0.999040	0.608830	0.291600
H1891	H189	0.982900	0.595400	0.247000
C2451	C245	0.992340	0.587480	0.360900
H1901	H190	0.971600	0.559200	0.362700
C2461	C246	0.039180	0.674190	0.216200
H1911	H191	0.049900	0.703000	0.220500
C2471	C247	0.033690	0.658230	0.144600
H1921	H192	0.022200	0.629300	0.140100
C2481	C248	0.044210	0.682420	0.072900
C2491	C249	0.056800	0.669670	0.006400
H1931	H193	0.057300	0.644600	0.007100
C2501	C250	0.068280	0.693690	0.940400
H1941	H194	0.077200	0.685000	0.896300
C2511	C251	0.053420	0.740190	0.998600
H1951	H195	0.051400	0.764400	0.995000
C2521	C252	0.042110	0.718240	0.067100
H1961	H196	0.032900	0.727500	0.110000
Ni151	Ni15	0.468720	0.826250	0.143870
Ni161	Ni16	0.674520	0.901840	0.852990
O571	O57	0.489320	0.809910	0.045990
O581	O58	0.441400	0.795640	0.956030
O591	O59	0.444040	0.717420	0.055600
O601	O60	0.504690	0.723280	0.088190
O611	O61	0.593630	0.733510	0.798760
O621	O62	0.624940	0.786760	0.875720
O631	O63	0.600500	0.820060	0.733290
O641	O64	0.613530	0.862430	0.834310
N291	N29	0.494740	0.887850	0.110230
N301	N30	0.646350	0.143300	0.867730
N311	N31	0.680660	0.938500	0.758830
N321	N32	0.733930	0.062150	0.269530
C2531	C253	0.493500	0.778720	0.927330
H1971	H197	0.476670	0.769230	0.878630
C2541	C254	0.497150	0.741700	0.959230
H1981	H198	0.479870	0.717830	0.924230
C2551	C255	0.537420	0.813860	0.904130
H1991	H199	0.536870	0.839430	0.889830
C2561	C256	0.550800	0.797620	0.834030
H2001	H200	0.528970	0.789130	0.793330
C2571	C257	0.551690	0.757840	0.859830
H2011	H201	0.529470	0.733730	0.831230
C2581	C258	0.541990	0.751260	0.948830
H2021	H202	0.545170	0.727930	0.968630
C2591	C259	0.567110	0.822240	0.969730
H2031	H203	0.582570	0.848630	0.993230
C2601	C260	0.570040	0.790220	0.992130
H2041	H204	0.588270	0.791630	0.031930
C2611	C261	0.472710	0.795330	0.981730
C2621	C262	0.481060	0.727330	0.041530
C2631	C263	0.591700	0.829390	0.797330
C2641	C264	0.592280	0.759730	0.843930
C2651	C265	0.494000	0.897150	0.035030
H2051	H205	0.481470	0.875230	0.998530
C2661	C266	0.510490	0.936990	0.008430
H2061	H206	0.509570	0.942030	0.954530
C2671	C267	0.528560	0.970070	0.060230
C2681	C268	0.527090	0.960470	0.139130
H2071	H207	0.537270	0.981730	0.177130
C2691	C269	0.510680	0.919600	0.161730
H2081	H208	0.510670	0.913630	0.215430
C2701	C270	0.551470	0.013390	0.035230
H2091	H209	0.561870	0.034030	0.074430
C2711	C271	0.558700	0.025830	0.961230
H2101	H210	0.543970	0.005330	0.923030
C2721	C272	0.586780	0.067580	0.931930
C2731	C273	0.594790	0.072710	0.852230
H2111	H211	0.579670	0.050230	0.817830
C2741	C274	0.624520	0.110160	0.823230
H2121	H212	0.629770	0.112530	0.768930
C2751	C275	0.637800	0.139310	0.943930
H2131	H213	0.652470	0.162830	0.976230
C2761	C276	0.608660	0.102610	0.978030
H2141	H214	0.603570	0.101330	0.032330
C2771	C277	0.709610	0.978080	0.756030
H2151	H215	0.724870	0.990730	0.801830
C2781	C278	0.718410	0.001610	0.689130
H2161	H216	0.739270	0.029830	0.689630
C2791	C279	0.696510	0.983770	0.621130
C2801	C280	0.665710	0.942160	0.624930
H2171	H217	0.649570	0.928730	0.580330
C2811	C281	0.659010	0.920810	0.694230
H2181	H218	0.638270	0.892530	0.696030
C2821	C282	0.705850	0.007520	0.549530
H2191	H219	0.716570	0.036330	0.553830
C2831	C283	0.700360	0.991560	0.477930
H2201	H220	0.688870	0.962630	0.473430
C2841	C284	0.710880	0.015750	0.406230
C2851	C285	0.723470	0.003000	0.339730
H2211	H221	0.723970	0.977930	0.340430
C2861	C286	0.734950	0.027020	0.273730
H2221	H222	0.743870	0.018330	0.229630
C2871	C287	0.720090	0.073520	0.331930
H2231	H223	0.718070	0.097730	0.328330
C2881	C288	0.708780	0.051570	0.400430
H2241	H224	0.699570	0.060830	0.443330
Ni171	Ni17	0.135380	0.159590	0.477210
Ni181	Ni18	0.341180	0.235180	0.186330
O651	O65	0.155980	0.143250	0.379330
O661	O66	0.108060	0.128980	0.289370
O671	O67	0.110700	0.050760	0.388940
O681	O68	0.171350	0.056620	0.421530
O691	O69	0.260290	0.066850	0.132100
O701	O70	0.291600	0.120100	0.209060
O711	O71	0.267160	0.153400	0.066630
O721	O72	0.280190	0.195770	0.167650
N331	N33	0.161400	0.221190	0.443570
N341	N34	0.313010	0.476640	0.201070
N351	N35	0.347320	0.271840	0.092170
N361	N36	0.400590	0.395490	0.602870
C2891	C289	0.160160	0.112060	0.260670
H2251	H225	0.143330	0.102570	0.211970
C2901	C290	0.163810	0.075040	0.292570
H2261	H226	0.146530	0.051170	0.257570
C2911	C291	0.204080	0.147200	0.237470
H2271	H227	0.203530	0.172770	0.223170
C2921	C292	0.217460	0.130960	0.167370
H2281	H228	0.195630	0.122470	0.126670
C2931	C293	0.218350	0.091180	0.193170
H2291	H229	0.196130	0.067070	0.164570
C2941	C294	0.208650	0.084600	0.282170
H2301	H230	0.211830	0.061270	0.301970
C2951	C295	0.233770	0.155580	0.303070
H2311	H231	0.249230	0.181970	0.326570
C2961	C296	0.236700	0.123560	0.325470
H2321	H232	0.254930	0.124970	0.365270
C2971	C297	0.139370	0.128670	0.315070
C2981	C298	0.147720	0.060670	0.374870
C2991	C299	0.258360	0.162730	0.130670
C3001	C300	0.258940	0.093070	0.177270
C3011	C301	0.160660	0.230490	0.368370
H2331	H233	0.148130	0.208570	0.331870
C3021	C302	0.177150	0.270330	0.341770
H2341	H234	0.176230	0.275370	0.287870
C3031	C303	0.195220	0.303410	0.393570
C3041	C304	0.193750	0.293810	0.472470
H2351	H235	0.203930	0.315070	0.510470
C3051	C305	0.177340	0.252940	0.495070
H2361	H236	0.177330	0.246970	0.548770
C3061	C306	0.218130	0.346730	0.368570
H2371	H237	0.228530	0.367370	0.407770
C3071	C307	0.225360	0.359170	0.294570
H2381	H238	0.210630	0.338670	0.256370
C3081	C308	0.253440	0.400920	0.265270
C3091	C309	0.261450	0.406050	0.185570
H2391	H239	0.246330	0.383570	0.151170
C3101	C310	0.291180	0.443500	0.156570
H2401	H240	0.296430	0.445870	0.102270
C3111	C311	0.304460	0.472650	0.277270
H2411	H241	0.319130	0.496170	0.309570
C3121	C312	0.275320	0.435950	0.311370
H2421	H242	0.270230	0.434670	0.365670
C3131	C313	0.376270	0.311420	0.089370
H2431	H243	0.391530	0.324070	0.135170
C3141	C314	0.385070	0.334950	0.022470
H2441	H244	0.405930	0.363170	0.022970
C3151	C315	0.363170	0.317110	0.954470
C3161	C316	0.332370	0.275500	0.958270
H2451	H245	0.316230	0.262070	0.913670
C3171	C317	0.325670	0.254150	0.027570
H2461	H246	0.304930	0.225870	0.029370
C3181	C318	0.372510	0.340860	0.882870
H2471	H247	0.383230	0.369670	0.887170
C3191	C319	0.367020	0.324900	0.811270
H2481	H248	0.355530	0.295970	0.806770
C3201	C320	0.377540	0.349090	0.739570
C3211	C321	0.390130	0.336340	0.673070
H2491	H249	0.390630	0.311270	0.673770
C3221	C322	0.401610	0.360360	0.607070
H2501	H250	0.410530	0.351670	0.562970
C3231	C323	0.386750	0.406860	0.665270
H2511	H251	0.384730	0.431070	0.661670
C3241	C324	0.375440	0.384910	0.733770
H2521	H252	0.366230	0.394170	0.776670
Ni191	Ni19	0.492920	0.690870	0.189460
Ni201	Ni20	0.568510	0.560660	0.480340
O731	O73	0.476580	0.653930	0.287340
O741	O74	0.462310	0.687580	0.377300
O751	O75	0.384090	0.606720	0.277730
O761	O76	0.389950	0.551930	0.245140
O771	O77	0.400180	0.473220	0.534570
O781	O78	0.453430	0.495160	0.457610
O791	O79	0.486730	0.552900	0.600040
O801	O80	0.529100	0.582240	0.499020
N371	N37	0.554520	0.726450	0.223100
N381	N38	0.809970	0.830290	0.465600
N391	N39	0.605170	0.591180	0.574500
N401	N40	0.728820	0.661560	0.063800
C3251	C325	0.445390	0.618560	0.406000
H2531	H253	0.435900	0.625900	0.454700
C3261	C326	0.408370	0.577890	0.374100
H2541	H254	0.384500	0.571300	0.409100
C3271	C327	0.480530	0.609780	0.429200
H2551	H255	0.506100	0.635900	0.443500
C3281	C328	0.464290	0.580160	0.499300
H2561	H256	0.455800	0.593500	0.540000
C3291	C329	0.424510	0.539490	0.473500
H2571	H257	0.400400	0.537600	0.502100
C3301	C330	0.417930	0.542610	0.384500
H2581	H258	0.394600	0.516100	0.364700
C3311	C331	0.488910	0.588470	0.363600
H2591	H259	0.515300	0.599400	0.340100
C3321	C332	0.456890	0.553520	0.341200
H2601	H260	0.458300	0.536700	0.301400
C3331	C333	0.462000	0.655960	0.351600
C3341	C334	0.394000	0.579610	0.291800
C3351	C335	0.496060	0.571030	0.536000
C3361	C336	0.426400	0.500790	0.489400
C3371	C337	0.563820	0.736490	0.298300
H2611	H261	0.541900	0.727100	0.334800
C3381	C338	0.603660	0.759840	0.324900
H2621	H262	0.608700	0.765800	0.378800
C3391	C339	0.636740	0.774850	0.273100
C3401	C340	0.627140	0.766720	0.194200
H2631	H263	0.648400	0.777800	0.156200
C3411	C341	0.586270	0.742260	0.171600
H2641	H264	0.580300	0.736300	0.117900
C3421	C342	0.680060	0.795260	0.298100
H2651	H265	0.700700	0.805500	0.258900
C3431	C343	0.692500	0.800470	0.372100
H2661	H266	0.672000	0.794700	0.410300
C3441	C344	0.734250	0.814140	0.401400
C3451	C345	0.739380	0.811260	0.481100
H2671	H267	0.716900	0.803900	0.515500
C3461	C346	0.776830	0.818980	0.510100
H2681	H268	0.779200	0.816100	0.564400
C3471	C347	0.805980	0.834850	0.389400
H2691	H269	0.829500	0.843700	0.357100
C3481	C348	0.769280	0.827290	0.355300
H2701	H270	0.768000	0.831100	0.301000
C3491	C349	0.644750	0.601810	0.577300
H2711	H271	0.657400	0.599200	0.531500
C3501	C350	0.668280	0.616540	0.644200
H2721	H272	0.696500	0.623900	0.643700
C3511	C351	0.650440	0.620600	0.712200
C3521	C352	0.608830	0.609790	0.708400
H2731	H273	0.595400	0.612500	0.753000
C3531	C353	0.587480	0.595140	0.639100
H2741	H274	0.559200	0.587600	0.637300
C3541	C354	0.674190	0.635010	0.783800
H2751	H275	0.703000	0.653100	0.779500
C3551	C355	0.658230	0.624540	0.855400
H2761	H276	0.629300	0.607100	0.859900
C3561	C356	0.682420	0.638210	0.927100
C3571	C357	0.669670	0.612870	0.993600
H2771	H277	0.644600	0.587300	0.992900
C3581	C358	0.693690	0.625410	0.059600
H2781	H278	0.685000	0.607800	0.103700
C3591	C359	0.740190	0.686770	0.001400
H2791	H279	0.764400	0.713000	0.005000
C3601	C360	0.718240	0.676130	0.932900
H2801	H280	0.727500	0.694600	0.890000
Ni211	Ni21	0.159590	0.024200	0.522790
Ni221	Ni22	0.235180	0.893990	0.813670
O811	O81	0.143250	0.987260	0.620670
O821	O82	0.128980	0.020910	0.710630
O831	O83	0.050760	0.940050	0.611060
O841	O84	0.056620	0.885260	0.578470
O851	O85	0.066850	0.806550	0.867900
O861	O86	0.120100	0.828490	0.790940
O871	O87	0.153400	0.886230	0.933370
O881	O88	0.195770	0.915570	0.832350
N411	N41	0.221190	0.059780	0.556430
N421	N42	0.476640	0.163620	0.798930
N431	N43	0.271840	0.924510	0.907830
N441	N44	0.395490	0.994890	0.397130
C3611	C361	0.112060	0.951890	0.739330
H2811	H281	0.102570	0.959230	0.788030
C3621	C362	0.075040	0.911220	0.707430
H2821	H282	0.051170	0.904630	0.742430
C3631	C363	0.147200	0.943110	0.762530
H2831	H283	0.172770	0.969230	0.776830
C3641	C364	0.130960	0.913490	0.832630
H2841	H284	0.122470	0.926830	0.873330
C3651	C365	0.091180	0.872820	0.806830
H2851	H285	0.067070	0.870930	0.835430
C3661	C366	0.084600	0.875940	0.717830
H2861	H286	0.061270	0.849430	0.698030
C3671	C367	0.155580	0.921800	0.696930
H2871	H287	0.181970	0.932730	0.673430
C3681	C368	0.123560	0.886850	0.674530
H2881	H288	0.124970	0.870030	0.634730
C3691	C369	0.128670	0.989290	0.684930
C3701	C370	0.060670	0.912940	0.625130
C3711	C371	0.162730	0.904360	0.869330
C3721	C372	0.093070	0.834120	0.822730
C3731	C373	0.230490	0.069820	0.631630
H2891	H289	0.208570	0.060430	0.668130
C3741	C374	0.270330	0.093170	0.658230
H2901	H290	0.275370	0.099130	0.712130
C3751	C375	0.303410	0.108180	0.606430
C3761	C376	0.293810	0.100050	0.527530
H2911	H291	0.315070	0.111130	0.489530
C3771	C377	0.252940	0.075590	0.504930
H2921	H292	0.246970	0.069630	0.451230
C3781	C378	0.346730	0.128590	0.631430
H2931	H293	0.367370	0.138830	0.592230
C3791	C379	0.359170	0.133800	0.705430
H2941	H294	0.338670	0.128030	0.743630
C3801	C380	0.400920	0.147470	0.734730
C3811	C381	0.406050	0.144590	0.814430
H2951	H295	0.383570	0.137230	0.848830
C3821	C382	0.443500	0.152310	0.843430
H2961	H296	0.445870	0.149430	0.897730
C3831	C383	0.472650	0.168180	0.722730
H2971	H297	0.496170	0.177030	0.690430
C3841	C384	0.435950	0.160620	0.688630
H2981	H298	0.434670	0.164430	0.634330
C3851	C385	0.311420	0.935140	0.910630
H2991	H299	0.324070	0.932530	0.864830
C3861	C386	0.334950	0.949870	0.977530
H3001	H300	0.363170	0.957230	0.977030
C3871	C387	0.317110	0.953930	0.045530
C3881	C388	0.275500	0.943120	0.041730
H3011	H301	0.262070	0.945830	0.086330
C3891	C389	0.254150	0.928470	0.972430
H3021	H302	0.225870	0.920930	0.970630
C3901	C390	0.340860	0.968340	0.117130
H3031	H303	0.369670	0.986430	0.112830
C3911	C391	0.324900	0.957870	0.188730
H3041	H304	0.295970	0.940430	0.193230
C3921	C392	0.349090	0.971540	0.260430
C3931	C393	0.336340	0.946200	0.326930
H3051	H305	0.311270	0.920630	0.326230
C3941	C394	0.360360	0.958740	0.392930
H3061	H306	0.351670	0.941130	0.437030
C3951	C395	0.406860	0.020100	0.334730
H3071	H307	0.431070	0.046330	0.338330
C3961	C396	0.384910	0.009460	0.266230
H3081	H308	0.394170	0.027930	0.223330
Ni231	Ni23	0.826250	0.357540	0.856130
Ni241	Ni24	0.901840	0.227330	0.147010
O891	O89	0.809910	0.320600	0.954010
O901	O90	0.795640	0.354250	0.043970
O911	O91	0.717420	0.273390	0.944400
O921	O92	0.723280	0.218600	0.911810
O931	O93	0.733510	0.139890	0.201240
O941	O94	0.786760	0.161830	0.124280
O951	O95	0.820060	0.219570	0.266710
O961	O96	0.862430	0.248910	0.165690
N451	N45	0.887850	0.393120	0.889770
N461	N46	0.143300	0.496960	0.132270
N471	N47	0.938500	0.257850	0.241170
N481	N48	0.062150	0.328230	0.730470
C3971	C397	0.778720	0.285230	0.072670
H3091	H309	0.769230	0.292570	0.121370
C3981	C398	0.741700	0.244560	0.040770
H3101	H310	0.717830	0.237970	0.075770
C3991	C399	0.813860	0.276450	0.095870
H3111	H311	0.839430	0.302570	0.110170
C4001	C400	0.797620	0.246830	0.165970
H3121	H312	0.789130	0.260170	0.206670
C4011	C401	0.757840	0.206160	0.140170
H3131	H313	0.733730	0.204270	0.168770
C4021	C402	0.751260	0.209280	0.051170
H3141	H314	0.727930	0.182770	0.031370
C4031	C403	0.822240	0.255140	0.030270
H3151	H315	0.848630	0.266070	0.006770
C4041	C404	0.790220	0.220190	0.007870
H3161	H316	0.791630	0.203370	0.968070
C4051	C405	0.795330	0.322630	0.018270
C4061	C406	0.727330	0.246280	0.958470
C4071	C407	0.829390	0.237700	0.202670
C4081	C408	0.759730	0.167460	0.156070
C4091	C409	0.897150	0.403160	0.964970
H3171	H317	0.875230	0.393770	0.001470
C4101	C410	0.936990	0.426510	0.991570
H3181	H318	0.942030	0.432470	0.045470
C4111	C411	0.970070	0.441520	0.939770
C4121	C412	0.960470	0.433390	0.860870
H3191	H319	0.981730	0.444470	0.822870
C4131	C413	0.919600	0.408930	0.838270
H3201	H320	0.913630	0.402970	0.784570
C4141	C414	0.013390	0.461930	0.964770
H3211	H321	0.034030	0.472170	0.925570
C4151	C415	0.025830	0.467140	0.038770
H3221	H322	0.005330	0.461370	0.076970
C4161	C416	0.067580	0.480810	0.068070
C4171	C417	0.072710	0.477930	0.147770
H3231	H323	0.050230	0.470570	0.182170
C4181	C418	0.110160	0.485650	0.176770
H3241	H324	0.112530	0.482770	0.231070
C4191	C419	0.139310	0.501520	0.056070
H3251	H325	0.162830	0.510370	0.023770
C4201	C420	0.102610	0.493960	0.021970
H3261	H326	0.101330	0.497770	0.967670
C4211	C421	0.978080	0.268480	0.243970
H3271	H327	0.990730	0.265870	0.198170
C4221	C422	0.001610	0.283210	0.310870
H3281	H328	0.029830	0.290570	0.310370
C4231	C423	0.983770	0.287270	0.378870
C4241	C424	0.942160	0.276460	0.375070
H3291	H329	0.928730	0.279170	0.419670
C4251	C425	0.920810	0.261810	0.305770
H3301	H330	0.892530	0.254270	0.303970
C4261	C426	0.007520	0.301680	0.450470
H3311	H331	0.036330	0.319770	0.446170
C4271	C427	0.991560	0.291210	0.522070
H3321	H332	0.962630	0.273770	0.526570
C4281	C428	0.015750	0.304880	0.593770
C4291	C429	0.003000	0.279540	0.660270
H3331	H333	0.977930	0.253970	0.659570
C4301	C430	0.027020	0.292080	0.726270
H3341	H334	0.018330	0.274470	0.770370
C4311	C431	0.073520	0.353440	0.668070
H3351	H335	0.097730	0.379670	0.671670
C4321	C432	0.051570	0.342800	0.599570
H3361	H336	0.060830	0.361270	0.556670
Ni251	Ni25	0.309130	0.802050	0.189460
Ni261	Ni26	0.439340	0.007850	0.480340
O971	O97	0.346070	0.822650	0.287340
O981	O98	0.312420	0.774730	0.377300
O991	O99	0.393280	0.777370	0.277730
O1001	O100	0.448070	0.838020	0.245140
O1011	O101	0.526780	0.926960	0.534570
O1021	O102	0.504840	0.958270	0.457610
O1031	O103	0.447100	0.933830	0.600040
O1041	O104	0.417760	0.946860	0.499020
N491	N49	0.273550	0.828070	0.223100
N501	N50	0.169710	0.979680	0.465600
N511	N51	0.408820	0.013990	0.574500
N521	N52	0.338440	0.067260	0.063800
C4331	C433	0.381440	0.826830	0.406000
H3371	H337	0.374100	0.810000	0.454700
C4341	C434	0.422110	0.830480	0.374100
H3381	H338	0.428700	0.813200	0.409100
C4351	C435	0.390220	0.870750	0.429200
H3391	H339	0.364100	0.870200	0.443500
C4361	C436	0.419840	0.884130	0.499300
H3401	H340	0.406500	0.862300	0.540000
C4371	C437	0.460510	0.885020	0.473500
H3411	H341	0.462400	0.862800	0.502100
C4381	C438	0.457390	0.875320	0.384500
H3421	H342	0.483900	0.878500	0.364700
C4391	C439	0.411530	0.900440	0.363600
H3431	H343	0.400600	0.915900	0.340100
C4401	C440	0.446480	0.903370	0.341200
H3441	H344	0.463300	0.921600	0.301400
C4411	C441	0.344040	0.806040	0.351600
C4421	C442	0.420390	0.814390	0.291800
C4431	C443	0.428970	0.925030	0.536000
C4441	C444	0.499210	0.925610	0.489400
C4451	C445	0.263510	0.827330	0.298300
H3451	H345	0.272900	0.814800	0.334800
C4461	C446	0.240160	0.843820	0.324900
H3461	H346	0.234200	0.842900	0.378800
C4471	C447	0.225150	0.861890	0.273100
C4481	C448	0.233280	0.860420	0.194200
H3471	H347	0.222200	0.870600	0.156200
C4491	C449	0.257740	0.844010	0.171600
H3481	H348	0.263700	0.844000	0.117900
C4501	C450	0.204740	0.884800	0.298100
H3491	H349	0.194500	0.895200	0.258900
C4511	C451	0.199530	0.892030	0.372100
H3501	H350	0.205300	0.877300	0.410300
C4521	C452	0.185860	0.920110	0.401400
C4531	C453	0.188740	0.928120	0.481100
H3511	H351	0.196100	0.913000	0.515500
C4541	C454	0.181020	0.957850	0.510100
H3521	H352	0.183900	0.963100	0.564400
C4551	C455	0.165150	0.971130	0.389400
H3531	H353	0.156300	0.985800	0.357100
C4561	C456	0.172710	0.941990	0.355300
H3541	H354	0.168900	0.936900	0.301000
C4571	C457	0.398190	0.042940	0.577300
H3551	H355	0.400800	0.058200	0.531500
C4581	C458	0.383460	0.051740	0.644200
H3561	H356	0.376100	0.072600	0.643700
C4591	C459	0.379400	0.029840	0.712200
C4601	C460	0.390210	0.999040	0.708400
H3571	H357	0.387500	0.982900	0.753000
C4611	C461	0.404860	0.992340	0.639100
H3581	H358	0.412400	0.971600	0.637300
C4621	C462	0.364990	0.039180	0.783800
H3591	H359	0.346900	0.049900	0.779500
C4631	C463	0.375460	0.033690	0.855400
H3601	H360	0.392900	0.022200	0.859900
C4641	C464	0.361790	0.044210	0.927100
C4651	C465	0.387130	0.056800	0.993600
H3611	H361	0.412700	0.057300	0.992900
C4661	C466	0.374590	0.068280	0.059600
H3621	H362	0.392200	0.077200	0.103700
C4671	C467	0.313230	0.053420	0.001400
H3631	H363	0.287000	0.051400	0.005000
C4681	C468	0.323870	0.042110	0.932900
H3641	H364	0.305400	0.032900	0.890000
Ni271	Ni27	0.975800	0.135380	0.522790
Ni281	Ni28	0.106010	0.341180	0.813670
O1051	O105	0.012740	0.155980	0.620670
O1061	O106	0.979090	0.108060	0.710630
O1071	O107	0.059950	0.110700	0.611060
O1081	O108	0.114740	0.171350	0.578470
O1091	O109	0.193450	0.260290	0.867900
O1101	O110	0.171510	0.291600	0.790940
O1111	O111	0.113770	0.267160	0.933370
O1121	O112	0.084430	0.280190	0.832350
N531	N53	0.940220	0.161400	0.556430
N541	N54	0.836380	0.313010	0.798930
N551	N55	0.075490	0.347320	0.907830
N561	N56	0.005110	0.400590	0.397130
C4691	C469	0.048110	0.160160	0.739330
H3651	H365	0.040770	0.143330	0.788030
C4701	C470	0.088780	0.163810	0.707430
H3661	H366	0.095370	0.146530	0.742430
C4711	C471	0.056890	0.204080	0.762530
H3671	H367	0.030770	0.203530	0.776830
C4721	C472	0.086510	0.217460	0.832630
H3681	H368	0.073170	0.195630	0.873330
C4731	C473	0.127180	0.218350	0.806830
H3691	H369	0.129070	0.196130	0.835430
C4741	C474	0.124060	0.208650	0.717830
H3701	H370	0.150570	0.211830	0.698030
C4751	C475	0.078200	0.233770	0.696930
H3711	H371	0.067270	0.249230	0.673430
C4761	C476	0.113150	0.236700	0.674530
H3721	H372	0.129970	0.254930	0.634730
C4771	C477	0.010710	0.139370	0.684930
C4781	C478	0.087060	0.147720	0.625130
C4791	C479	0.095640	0.258360	0.869330
C4801	C480	0.165880	0.258940	0.822730
C4811	C481	0.930180	0.160660	0.631630
H3731	H373	0.939570	0.148130	0.668130
C4821	C482	0.906830	0.177150	0.658230
H3741	H374	0.900870	0.176230	0.712130
C4831	C483	0.891820	0.195220	0.606430
C4841	C484	0.899950	0.193750	0.527530
H3751	H375	0.888870	0.203930	0.489530
C4851	C485	0.924410	0.177340	0.504930
H3761	H376	0.930370	0.177330	0.451230
C4861	C486	0.871410	0.218130	0.631430
H3771	H377	0.861170	0.228530	0.592230
C4871	C487	0.866200	0.225360	0.705430
H3781	H378	0.871970	0.210630	0.743630
C4881	C488	0.852530	0.253440	0.734730
C4891	C489	0.855410	0.261450	0.814430
H3791	H379	0.862770	0.246330	0.848830
C4901	C490	0.847690	0.291180	0.843430
H3801	H380	0.850570	0.296430	0.897730
C4911	C491	0.831820	0.304460	0.722730
H3811	H381	0.822970	0.319130	0.690430
C4921	C492	0.839380	0.275320	0.688630
H3821	H382	0.835570	0.270230	0.634330
C4931	C493	0.064860	0.376270	0.910630
H3831	H383	0.067470	0.391530	0.864830
C4941	C494	0.050130	0.385070	0.977530
H3841	H384	0.042770	0.405930	0.977030
C4951	C495	0.046070	0.363170	0.045530
C4961	C496	0.056880	0.332370	0.041730
H3851	H385	0.054170	0.316230	0.086330
C4971	C497	0.071530	0.325670	0.972430
H3861	H386	0.079070	0.304930	0.970630
C4981	C498	0.031660	0.372510	0.117130
H3871	H387	0.013570	0.383230	0.112830
C4991	C499	0.042130	0.367020	0.188730
H3881	H388	0.059570	0.355530	0.193230
C5001	C500	0.028460	0.377540	0.260430
C5011	C501	0.053800	0.390130	0.326930
H3891	H389	0.079370	0.390630	0.326230
C5021	C502	0.041260	0.401610	0.392930
H3901	H390	0.058870	0.410530	0.437030
C5031	C503	0.979900	0.386750	0.334730
H3911	H391	0.953670	0.384730	0.338330
C5041	C504	0.990540	0.375440	0.266230
H3921	H392	0.972070	0.366230	0.223330
Ni291	Ni29	0.642460	0.468720	0.856130
Ni301	Ni30	0.772670	0.674520	0.147010
O1131	O113	0.679400	0.489320	0.954010
O1141	O114	0.645750	0.441400	0.043970
O1151	O115	0.726610	0.444040	0.944400
O1161	O116	0.781400	0.504690	0.911810
O1171	O117	0.860110	0.593630	0.201240
O1181	O118	0.838170	0.624940	0.124280
O1191	O119	0.780430	0.600500	0.266710
O1201	O120	0.751090	0.613530	0.165690
N571	N57	0.606880	0.494740	0.889770
N581	N58	0.503040	0.646350	0.132270
N591	N59	0.742150	0.680660	0.241170
N601	N60	0.671770	0.733930	0.730470
C5051	C505	0.714770	0.493500	0.072670
H3931	H393	0.707430	0.476670	0.121370
C5061	C506	0.755440	0.497150	0.040770
H3941	H394	0.762030	0.479870	0.075770
C5071	C507	0.723550	0.537420	0.095870
H3951	H395	0.697430	0.536870	0.110170
C5081	C508	0.753170	0.550800	0.165970
H3961	H396	0.739830	0.528970	0.206670
C5091	C509	0.793840	0.551690	0.140170
H3971	H397	0.795730	0.529470	0.168770
C5101	C510	0.790720	0.541990	0.051170
H3981	H398	0.817230	0.545170	0.031370
C5111	C511	0.744860	0.567110	0.030270
H3991	H399	0.733930	0.582570	0.006770
C5121	C512	0.779810	0.570040	0.007870
H4001	H400	0.796630	0.588270	0.968070
C5131	C513	0.677370	0.472710	0.018270
C5141	C514	0.753720	0.481060	0.958470
C5151	C515	0.762300	0.591700	0.202670
C5161	C516	0.832540	0.592280	0.156070
C5171	C517	0.596840	0.494000	0.964970
H4011	H401	0.606230	0.481470	0.001470
C5181	C518	0.573490	0.510490	0.991570
H4021	H402	0.567530	0.509570	0.045470
C5191	C519	0.558480	0.528560	0.939770
C5201	C520	0.566610	0.527090	0.860870
H4031	H403	0.555530	0.537270	0.822870
C5211	C521	0.591070	0.510680	0.838270
H4041	H404	0.597030	0.510670	0.784570
C5221	C522	0.538070	0.551470	0.964770
H4051	H405	0.527830	0.561870	0.925570
C5231	C523	0.532860	0.558700	0.038770
H4061	H406	0.538630	0.543970	0.076970
C5241	C524	0.519190	0.586780	0.068070
C5251	C525	0.522070	0.594790	0.147770
H4071	H407	0.529430	0.579670	0.182170
C5261	C526	0.514350	0.624520	0.176770
H4081	H408	0.517230	0.629770	0.231070
C5271	C527	0.498480	0.637800	0.056070
H4091	H409	0.489630	0.652470	0.023770
C5281	C528	0.506040	0.608660	0.021970
H4101	H410	0.502230	0.603570	0.967670
C5291	C529	0.731520	0.709610	0.243970
H4111	H411	0.734130	0.724870	0.198170
C5301	C530	0.716790	0.718410	0.310870
H4121	H412	0.709430	0.739270	0.310370
C5311	C531	0.712730	0.696510	0.378870
C5321	C532	0.723540	0.665710	0.375070
H4131	H413	0.720830	0.649570	0.419670
C5331	C533	0.738190	0.659010	0.305770
H4141	H414	0.745730	0.638270	0.303970
C5341	C534	0.698320	0.705850	0.450470
H4151	H415	0.680230	0.716570	0.446170
C5351	C535	0.708790	0.700360	0.522070
H4161	H416	0.726230	0.688870	0.526570
C5361	C536	0.695120	0.710880	0.593770
C5371	C537	0.720460	0.723470	0.660270
H4171	H417	0.746030	0.723970	0.659570
C5381	C538	0.707920	0.734950	0.726270
H4181	H418	0.725530	0.743870	0.770370
C5391	C539	0.646560	0.720090	0.668070
H4191	H419	0.620330	0.718070	0.671670
C5401	C540	0.657200	0.708780	0.599570
H4201	H420	0.638730	0.699570	0.556670
Ni311	Ni31	0.197950	0.507080	0.189460
Ni321	Ni32	0.992150	0.431490	0.480340
O1211	O121	0.177350	0.523420	0.287340
O1221	O122	0.225270	0.537690	0.377300
O1231	O123	0.222630	0.615910	0.277730
O1241	O124	0.161980	0.610050	0.245140
O1251	O125	0.073040	0.599820	0.534570
O1261	O126	0.041730	0.546570	0.457610
O1271	O127	0.066170	0.513270	0.600040
O1281	O128	0.053140	0.470900	0.499020
N611	N61	0.171930	0.445480	0.223100
N621	N62	0.020320	0.190030	0.465600
N631	N63	0.986010	0.394830	0.574500
N641	N64	0.932740	0.271180	0.063800
C5411	C541	0.173170	0.554610	0.406000
H4211	H421	0.190000	0.564100	0.454700
C5421	C542	0.169520	0.591630	0.374100
H4221	H422	0.186800	0.615500	0.409100
C5431	C543	0.129250	0.519470	0.429200
H4231	H423	0.129800	0.493900	0.443500
C5441	C544	0.115870	0.535710	0.499300
H4241	H424	0.137700	0.544200	0.540000
C5451	C545	0.114980	0.575490	0.473500
H4251	H425	0.137200	0.599600	0.502100
C5461	C546	0.124680	0.582070	0.384500
H4261	H426	0.121500	0.605400	0.364700
C5471	C547	0.099560	0.511090	0.363600
H4271	H427	0.084100	0.484700	0.340100
C5481	C548	0.096630	0.543110	0.341200
H4281	H428	0.078400	0.541700	0.301400
C5491	C549	0.193960	0.538000	0.351600
C5501	C550	0.185610	0.606000	0.291800
C5511	C551	0.074970	0.503940	0.536000
C5521	C552	0.074390	0.573600	0.489400
C5531	C553	0.172670	0.436180	0.298300
H4291	H429	0.185200	0.458100	0.334800
C5541	C554	0.156180	0.396340	0.324900
H4301	H430	0.157100	0.391300	0.378800
C5551	C555	0.138110	0.363260	0.273100
C5561	C556	0.139580	0.372860	0.194200
H4311	H431	0.129400	0.351600	0.156200
C5571	C557	0.155990	0.413730	0.171600
H4321	H432	0.156000	0.419700	0.117900
C5581	C558	0.115200	0.319940	0.298100
H4331	H433	0.104800	0.299300	0.258900
C5591	C559	0.107970	0.307500	0.372100
H4341	H434	0.122700	0.328000	0.410300
C5601	C560	0.079890	0.265750	0.401400
C5611	C561	0.071880	0.260620	0.481100
H4351	H435	0.087000	0.283100	0.515500
C5621	C562	0.042150	0.223170	0.510100
H4361	H436	0.036900	0.220800	0.564400
C5631	C563	0.028870	0.194020	0.389400
H4371	H437	0.014200	0.170500	0.357100
C5641	C564	0.058010	0.230720	0.355300
H4381	H438	0.063100	0.232000	0.301000
C5651	C565	0.957060	0.355250	0.577300
H4391	H439	0.941800	0.342600	0.531500
C5661	C566	0.948260	0.331720	0.644200
H4401	H440	0.927400	0.303500	0.643700
C5671	C567	0.970160	0.349560	0.712200
C5681	C568	0.000960	0.391170	0.708400
H4411	H441	0.017100	0.404600	0.753000
C5691	C569	0.007660	0.412520	0.639100
H4421	H442	0.028400	0.440800	0.637300
C5701	C570	0.960820	0.325810	0.783800
H4431	H443	0.950100	0.297000	0.779500
C5711	C571	0.966310	0.341770	0.855400
H4441	H444	0.977800	0.370700	0.859900
C5721	C572	0.955790	0.317580	0.927100
C5731	C573	0.943200	0.330330	0.993600
H4451	H445	0.942700	0.355400	0.992900
C5741	C574	0.931720	0.306310	0.059600
H4461	H446	0.922800	0.315000	0.103700
C5751	C575	0.946580	0.259810	0.001400
H4471	H447	0.948600	0.235600	0.005000
C5761	C576	0.957890	0.281760	0.932900
H4481	H448	0.967100	0.272500	0.890000
Ni331	Ni33	0.864620	0.840410	0.522790
Ni341	Ni34	0.658820	0.764820	0.813670
O1291	O129	0.844020	0.856750	0.620670
O1301	O130	0.891940	0.871020	0.710630
O1311	O131	0.889300	0.949240	0.611060
O1321	O132	0.828650	0.943380	0.578470
O1331	O133	0.739710	0.933150	0.867900
O1341	O134	0.708400	0.879900	0.790940
O1351	O135	0.732840	0.846600	0.933370
O1361	O136	0.719810	0.804230	0.832350
N651	N65	0.838600	0.778810	0.556430
N661	N66	0.686990	0.523360	0.798930
N671	N67	0.652680	0.728160	0.907830
N681	N68	0.599410	0.604510	0.397130
C5771	C577	0.839840	0.887940	0.739330
H4491	H449	0.856670	0.897430	0.788030
C5781	C578	0.836190	0.924960	0.707430
H4501	H450	0.853470	0.948830	0.742430
C5791	C579	0.795920	0.852800	0.762530
H4511	H451	0.796470	0.827230	0.776830
C5801	C580	0.782540	0.869040	0.832630
H4521	H452	0.804370	0.877530	0.873330
C5811	C581	0.781650	0.908820	0.806830
H4531	H453	0.803870	0.932930	0.835430
C5821	C582	0.791350	0.915400	0.717830
H4541	H454	0.788170	0.938730	0.698030
C5831	C583	0.766230	0.844420	0.696930
H4551	H455	0.750770	0.818030	0.673430
C5841	C584	0.763300	0.876440	0.674530
H4561	H456	0.745070	0.875030	0.634730
C5851	C585	0.860630	0.871330	0.684930
C5861	C586	0.852280	0.939330	0.625130
C5871	C587	0.741640	0.837270	0.869330
C5881	C588	0.741060	0.906930	0.822730
C5891	C589	0.839340	0.769510	0.631630
H4571	H457	0.851870	0.791430	0.668130
C5901	C590	0.822850	0.729670	0.658230
H4581	H458	0.823770	0.724630	0.712130
C5911	C591	0.804780	0.696590	0.606430
C5921	C592	0.806250	0.706190	0.527530
H4591	H459	0.796070	0.684930	0.489530
C5931	C593	0.822660	0.747060	0.504930
H4601	H460	0.822670	0.753030	0.451230
C5941	C594	0.781870	0.653270	0.631430
H4611	H461	0.771470	0.632630	0.592230
C5951	C595	0.774640	0.640830	0.705430
H4621	H462	0.789370	0.661330	0.743630
C5961	C596	0.746560	0.599080	0.734730
C5971	C597	0.738550	0.593950	0.814430
H4631	H463	0.753670	0.616430	0.848830
C5981	C598	0.708820	0.556500	0.843430
H4641	H464	0.703570	0.554130	0.897730
C5991	C599	0.695540	0.527350	0.722730
H4651	H465	0.680870	0.503830	0.690430
C6001	C600	0.724680	0.564050	0.688630
H4661	H466	0.729770	0.565330	0.634330
C6011	C601	0.623730	0.688580	0.910630
H4671	H467	0.608470	0.675930	0.864830
C6021	C602	0.614930	0.665050	0.977530
H4681	H468	0.594070	0.636830	0.977030
C6031	C603	0.636830	0.682890	0.045530
C6041	C604	0.667630	0.724500	0.041730
H4691	H469	0.683770	0.737930	0.086330
C6051	C605	0.674330	0.745850	0.972430
H4701	H470	0.695070	0.774130	0.970630
C6061	C606	0.627490	0.659140	0.117130
H4711	H471	0.616770	0.630330	0.112830
C6071	C607	0.632980	0.675100	0.188730
H4721	H472	0.644470	0.704030	0.193230
C6081	C608	0.622460	0.650910	0.260430
C6091	C609	0.609870	0.663660	0.326930
H4731	H473	0.609370	0.688730	0.326230
C6101	C610	0.598390	0.639640	0.392930
H4741	H474	0.589470	0.648330	0.437030
C6111	C611	0.613250	0.593140	0.334730
H4751	H475	0.615270	0.568930	0.338330
C6121	C612	0.624560	0.615090	0.266230
H4761	H476	0.633770	0.605830	0.223330
Ni351	Ni35	0.531280	0.173750	0.856130
Ni361	Ni36	0.325480	0.098160	0.147010
O1371	O137	0.510680	0.190090	0.954010
O1381	O138	0.558600	0.204360	0.043970
O1391	O139	0.555960	0.282580	0.944400
O1401	O140	0.495310	0.276720	0.911810
O1411	O141	0.406370	0.266490	0.201240
O1421	O142	0.375060	0.213240	0.124280
O1431	O143	0.399500	0.179940	0.266710
O1441	O144	0.386470	0.137570	0.165690
N691	N69	0.505260	0.112150	0.889770
N701	N70	0.353650	0.856700	0.132270
N711	N71	0.319340	0.061500	0.241170
N721	N72	0.266070	0.937850	0.730470
C6131	C613	0.506500	0.221280	0.072670
H4771	H477	0.523330	0.230770	0.121370
C6141	C614	0.502850	0.258300	0.040770
H4781	H478	0.520130	0.282170	0.075770
C6151	C615	0.462580	0.186140	0.095870
H4791	H479	0.463130	0.160570	0.110170
C6161	C616	0.449200	0.202380	0.165970
H4801	H480	0.471030	0.210870	0.206670
C6171	C617	0.448310	0.242160	0.140170
H4811	H481	0.470530	0.266270	0.168770
C6181	C618	0.458010	0.248740	0.051170
H4821	H482	0.454830	0.272070	0.031370
C6191	C619	0.432890	0.177760	0.030270
H4831	H483	0.417430	0.151370	0.006770
C6201	C620	0.429960	0.209780	0.007870
H4841	H484	0.411730	0.208370	0.968070
C6211	C621	0.527290	0.204670	0.018270
C6221	C622	0.518940	0.272670	0.958470
C6231	C623	0.408300	0.170610	0.202670
C6241	C624	0.407720	0.240270	0.156070
C6251	C625	0.506000	0.102850	0.964970
H4851	H485	0.518530	0.124770	0.001470
C6261	C626	0.489510	0.063010	0.991570
H4861	H486	0.490430	0.057970	0.045470
C6271	C627	0.471440	0.029930	0.939770
C6281	C628	0.472910	0.039530	0.860870
H4871	H487	0.462730	0.018270	0.822870
C6291	C629	0.489320	0.080400	0.838270
H4881	H488	0.489330	0.086370	0.784570
C6301	C630	0.448530	0.986610	0.964770
H4891	H489	0.438130	0.965970	0.925570
C6311	C631	0.441300	0.974170	0.038770
H4901	H490	0.456030	0.994670	0.076970
C6321	C632	0.413220	0.932420	0.068070
C6331	C633	0.405210	0.927290	0.147770
H4911	H491	0.420330	0.949770	0.182170
C6341	C634	0.375480	0.889840	0.176770
H4921	H492	0.370230	0.887470	0.231070
C6351	C635	0.362200	0.860690	0.056070
H4931	H493	0.347530	0.837170	0.023770
C6361	C636	0.391340	0.897390	0.021970
H4941	H494	0.396430	0.898670	0.967670
C6371	C637	0.290390	0.021920	0.243970
H4951	H495	0.275130	0.009270	0.198170
C6381	C638	0.281590	0.998390	0.310870
H4961	H496	0.260730	0.970170	0.310370
C6391	C639	0.303490	0.016230	0.378870
C6401	C640	0.334290	0.057840	0.375070
H4971	H497	0.350430	0.071270	0.419670
C6411	C641	0.340990	0.079190	0.305770
H4981	H498	0.361730	0.107470	0.303970
C6421	C642	0.294150	0.992480	0.450470
H4991	H499	0.283430	0.963670	0.446170
C6431	C643	0.299640	0.008440	0.522070
H5001	H500	0.311130	0.037370	0.526570
C6441	C644	0.289120	0.984250	0.593770
C6451	C645	0.276530	0.997000	0.660270
H5011	H501	0.276030	0.022070	0.659570
C6461	C646	0.265050	0.972980	0.726270
H5021	H502	0.256130	0.981670	0.770370
C6471	C647	0.279910	0.926480	0.668070
H5031	H503	0.281930	0.902270	0.671670
C6481	C648	0.291220	0.948430	0.599570
H5041	H504	0.300430	0.939170	0.556670
