data_FITJEY_clean_PM
_symmetry_space_group_name_H-M	'P1'
_cell_length_a	10.047600
_cell_length_b	14.986900
_cell_length_c	22.242600
_cell_angle_alpha	90.000000
_cell_angle_beta	90.000000
_cell_angle_gamma	107.586000
_symmetry_Int_Tables_number 1

loop_
_symmetry_equiv_pos_as_xyz
'x,y,z'

loop_
_atom_site_label
_atom_site_type_symbol
_atom_site_fract_x
_atom_site_fract_y
_atom_site_fract_z
Er11	Er1	0.026200	0.497390	0.141400
Er21	Er2	0.417160	0.246840	0.156210
Er31	Er3	0.241570	0.907420	0.013840
Er41	Er4	0.473800	0.002610	0.641400
Er51	Er5	0.082840	0.253160	0.656210
Er61	Er6	0.258430	0.592580	0.513840
Er71	Er7	0.973800	0.502610	0.858600
Er81	Er8	0.582840	0.753160	0.843790
Er91	Er9	0.758430	0.092580	0.986160
Er101	Er10	0.526200	0.997390	0.358600
Er111	Er11	0.917160	0.746840	0.343790
Er121	Er12	0.741570	0.407420	0.486160
P11	P1	0.450600	0.154440	0.008610
P21	P2	0.049400	0.345560	0.508610
P31	P3	0.549400	0.845560	0.991390
P41	P4	0.950600	0.654440	0.491390
H11	H1	0.370100	0.317300	0.010500
H21	H2	0.254200	0.177900	0.962800
H31	H3	0.378700	0.201800	0.917100
H41	H4	0.588100	0.342100	0.973200
H51	H5	0.533200	0.363700	0.910600
H61	H6	0.537200	0.430500	0.965300
H71	H7	0.179900	0.310100	0.951400
H81	H8	0.286100	0.411200	0.951800
H91	H9	0.281600	0.344500	0.897000
H101	H10	0.129900	0.182700	0.510500
H111	H11	0.245800	0.322100	0.462800
H121	H12	0.121300	0.298200	0.417100
H131	H13	0.911900	0.157900	0.473200
H141	H14	0.966800	0.136300	0.410600
H151	H15	0.962800	0.069500	0.465300
H161	H16	0.320100	0.189900	0.451400
H171	H17	0.213900	0.088800	0.451800
H181	H18	0.218400	0.155500	0.397000
H191	H19	0.629900	0.682700	0.989500
H201	H20	0.745800	0.822100	0.037200
H211	H21	0.621300	0.798200	0.082900
H221	H22	0.411900	0.657900	0.026800
H231	H23	0.466800	0.636300	0.089400
H241	H24	0.462800	0.569500	0.034700
H251	H25	0.820100	0.689900	0.048600
H261	H26	0.713900	0.588800	0.048200
H271	H27	0.718400	0.655500	0.103000
H281	H28	0.870100	0.817300	0.489500
H291	H29	0.754200	0.677900	0.537200
H301	H30	0.878700	0.701800	0.582900
H311	H31	0.088100	0.842100	0.526800
H321	H32	0.033200	0.863700	0.589400
H331	H33	0.037200	0.930500	0.534700
H341	H34	0.679900	0.810100	0.548600
H351	H35	0.786100	0.911200	0.548200
H361	H36	0.781600	0.844500	0.603000
C11	C1	0.218400	0.370700	0.181200
C21	C2	0.239900	0.381900	0.112500
C31	C3	0.974300	0.664000	0.219100
C41	C4	0.952600	0.580700	0.263600
C51	C5	0.748100	0.330400	0.161900
C61	C6	0.698100	0.416100	0.150200
C71	C7	0.955700	0.448000	0.998900
C81	C8	0.990400	0.999100	0.035100
C91	C9	0.353200	0.209800	0.958400
C101	C10	0.521800	0.366600	0.953400
C111	C11	0.271900	0.347400	0.939800
C121	C12	0.281600	0.129300	0.681200
C131	C13	0.260100	0.118100	0.612500
C141	C14	0.525700	0.836000	0.719100
C151	C15	0.547400	0.919300	0.763600
C161	C16	0.751900	0.169600	0.661900
C171	C17	0.801900	0.083900	0.650200
C181	C18	0.544300	0.052000	0.498900
C191	C19	0.509600	0.500900	0.535100
C201	C20	0.146800	0.290200	0.458400
C211	C21	0.978200	0.133400	0.453400
C221	C22	0.228100	0.152600	0.439800
C231	C23	0.781600	0.629300	0.818800
C241	C24	0.760100	0.618100	0.887500
C251	C25	0.025700	0.336000	0.780900
C261	C26	0.047400	0.419300	0.736400
C271	C27	0.251900	0.669600	0.838100
C281	C28	0.301900	0.583900	0.849800
C291	C29	0.044300	0.552000	0.001100
C301	C30	0.009600	0.000900	0.964900
C311	C31	0.646800	0.790200	0.041600
C321	C32	0.478200	0.633400	0.046600
C331	C33	0.728100	0.652600	0.060200
C341	C34	0.718400	0.870700	0.318800
C351	C35	0.739900	0.881900	0.387500
C361	C36	0.474300	0.164000	0.280900
C371	C37	0.452600	0.080700	0.236400
C381	C38	0.248100	0.830400	0.338100
C391	C39	0.198100	0.916100	0.349800
C401	C40	0.455700	0.948000	0.501100
C411	C41	0.490400	0.499100	0.464900
C421	C42	0.853200	0.709800	0.541600
C431	C43	0.021800	0.866600	0.546600
C441	C44	0.771900	0.847400	0.560200
N11	N1	0.378900	0.310500	0.970200
N21	N2	0.121100	0.189500	0.470200
N31	N3	0.621100	0.689500	0.029800
N41	N4	0.878900	0.810500	0.529800
O11	O1	0.278700	0.320500	0.208400
O21	O2	0.141900	0.414400	0.203900
O31	O3	0.186000	0.435300	0.086600
O41	O4	0.313400	0.335100	0.090300
O51	O5	0.951800	0.736600	0.238500
O61	O6	0.010800	0.650700	0.167100
O71	O7	0.920000	0.595900	0.317000
O81	O8	0.970100	0.507600	0.244400
O91	O9	0.567300	0.400800	0.152400
O101	O10	0.786900	0.491100	0.139600
O111	O11	0.656800	0.252800	0.167300
O121	O12	0.877900	0.345000	0.165900
O131	O13	0.917900	0.409100	0.048000
O141	O14	0.929500	0.411900	0.947200
O151	O15	0.066900	0.963000	0.064400
O161	O16	0.904400	0.035600	0.054900
O171	O17	0.356600	0.056200	0.016000
O181	O18	0.588700	0.160900	0.979900
O191	O19	0.468400	0.210400	0.065700
O201	O20	0.221300	0.179500	0.708400
O211	O21	0.358100	0.085600	0.703900
O221	O22	0.314000	0.064700	0.586600
O231	O23	0.186600	0.164900	0.590300
O241	O24	0.548200	0.763400	0.738500
O251	O25	0.489200	0.849300	0.667100
O261	O26	0.580000	0.904100	0.817000
O271	O27	0.529900	0.992400	0.744400
O281	O28	0.932700	0.099200	0.652400
O291	O29	0.713100	0.008900	0.639600
O301	O30	0.843200	0.247200	0.667300
O311	O31	0.622100	0.155000	0.665900
O321	O32	0.582100	0.090900	0.548000
O331	O33	0.570500	0.088100	0.447200
O341	O34	0.433100	0.537000	0.564400
O351	O35	0.595600	0.464400	0.554900
O361	O36	0.143400	0.443800	0.516000
O371	O37	0.911300	0.339100	0.479900
O381	O38	0.031600	0.289600	0.565700
O391	O39	0.721300	0.679500	0.791600
O401	O40	0.858100	0.585600	0.796100
O411	O41	0.814000	0.564700	0.913400
O421	O42	0.686600	0.664900	0.909700
O431	O43	0.048200	0.263400	0.761500
O441	O44	0.989200	0.349300	0.832900
O451	O45	0.080000	0.404100	0.683000
O461	O46	0.029900	0.492400	0.755600
O471	O47	0.432700	0.599200	0.847600
O481	O48	0.213100	0.508900	0.860400
O491	O49	0.343200	0.747200	0.832700
O501	O50	0.122100	0.655000	0.834100
O511	O51	0.082100	0.590900	0.952000
O521	O52	0.070500	0.588100	0.052800
O531	O53	0.933100	0.037000	0.935600
O541	O54	0.095600	0.964400	0.945100
O551	O55	0.643400	0.943800	0.984000
O561	O56	0.411300	0.839100	0.020100
O571	O57	0.531600	0.789600	0.934300
O581	O58	0.778700	0.820500	0.291600
O591	O59	0.641900	0.914400	0.296100
O601	O60	0.686000	0.935300	0.413400
O611	O61	0.813400	0.835100	0.409700
O621	O62	0.451800	0.236600	0.261500
O631	O63	0.510800	0.150700	0.332900
O641	O64	0.420000	0.095900	0.183000
O651	O65	0.470100	0.007600	0.255600
O661	O66	0.067300	0.900800	0.347600
O671	O67	0.286900	0.991100	0.360400
O681	O68	0.156800	0.752800	0.332700
O691	O69	0.377900	0.845000	0.334100
O701	O70	0.417900	0.909100	0.452000
O711	O71	0.429500	0.911900	0.552800
O721	O72	0.566900	0.463000	0.435600
O731	O73	0.404400	0.535600	0.445100
O741	O74	0.856600	0.556200	0.484000
O751	O75	0.088700	0.660900	0.520100
O761	O76	0.968400	0.710400	0.434300
