data_FIVNAZ_clean_PM
_symmetry_space_group_name_H-M	'P1'
_cell_length_a	8.165000
_cell_length_b	8.215000
_cell_length_c	8.215000
_cell_angle_alpha	94.183100
_cell_angle_beta	117.653000
_cell_angle_gamma	62.347200
_symmetry_Int_Tables_number 1

loop_
_symmetry_equiv_pos_as_xyz
'x,y,z'

loop_
_atom_site_label
_atom_site_type_symbol
_atom_site_fract_x
_atom_site_fract_y
_atom_site_fract_z
Ho11	Ho1	0.750000	0.066490	0.066490
Ho21	Ho2	0.250000	0.933510	0.933510
C11	C1	0.943580	0.949030	0.506950
C21	C2	0.556420	0.506950	0.949030
C31	C3	0.056420	0.050970	0.493050
C41	C4	0.443580	0.493050	0.050970
O11	O1	0.802700	0.945580	0.356300
O21	O2	0.996930	0.121410	0.332730
O31	O3	0.697300	0.356300	0.945580
O41	O4	0.503070	0.332730	0.121410
O51	O5	0.197300	0.054420	0.643700
O61	O6	0.003070	0.878590	0.667270
O71	O7	0.302700	0.643700	0.054420
O81	O8	0.496930	0.667270	0.878590
F11	F1	0.000000	0.000000	0.000000
F21	F2	0.500000	0.000000	0.000000
