data_FOBNAN_clean_PM
_symmetry_space_group_name_H-M	'P1'
_cell_length_a	31.280000
_cell_length_b	14.735000
_cell_length_c	28.510000
_cell_angle_alpha	90.000000
_cell_angle_beta	120.130000
_cell_angle_gamma	90.000000
_symmetry_Int_Tables_number 1

loop_
_symmetry_equiv_pos_as_xyz
'x,y,z'

loop_
_atom_site_label
_atom_site_type_symbol
_atom_site_fract_x
_atom_site_fract_y
_atom_site_fract_z
Dy11	Dy1	0.231940	0.882170	0.512460
C11	C1	0.191200	0.028700	0.127800
C21	C2	0.226600	0.039800	0.184400
C31	C3	0.168000	0.981600	0.207700
C41	C4	0.145600	0.995900	0.113000
H11	H1	0.122800	0.988000	0.076300
C51	C5	0.216100	0.012000	0.223800
C61	C6	0.131800	0.973900	0.151300
C71	C7	0.152200	0.959600	0.245800
H21	H2	0.174200	0.965600	0.282800
C81	C8	0.105000	0.929900	0.227900
H31	H3	0.095900	0.914300	0.253300
C91	C9	0.070300	0.922300	0.173200
H41	H4	0.038400	0.902400	0.162300
O11	O1	0.270900	0.076900	0.199600
H51	H5	0.269600	0.104100	0.173800
C101	C10	0.082500	0.792600	0.329700
H61	H6	0.999900	0.867300	0.277400
C111	C11	0.164700	0.762300	0.414100
C121	C12	0.056700	0.706800	0.248100
C131	C13	0.047400	0.773600	0.276300
C141	C14	0.126400	0.740000	0.357100
C151	C15	0.133900	0.670500	0.331600
H71	H7	0.161600	0.633800	0.350500
C161	C16	0.099800	0.652300	0.276000
C171	C17	0.025400	0.690200	0.191900
H81	H8	0.997400	0.725800	0.172300
C181	C18	0.035500	0.623400	0.166100
H91	H9	0.014800	0.614800	0.129100
C191	C19	0.077600	0.566000	0.195400
H101	H10	0.083400	0.518500	0.177900
O21	O2	0.073300	0.860700	0.354900
H111	H11	0.099600	0.882100	0.378600
C201	C20	0.303000	0.871100	0.301900
C211	C21	0.314300	0.886400	0.260200
H121	H12	0.304000	0.939600	0.239900
C221	C22	0.356200	0.743500	0.277800
H131	H13	0.373000	0.700800	0.269000
C231	C23	0.320600	0.789600	0.331600
C241	C24	0.347300	0.727000	0.318900
H141	H14	0.358900	0.673700	0.338900
C251	C25	0.340900	0.821600	0.249700
H151	H15	0.348300	0.832700	0.222400
C261	C26	0.288200	0.834700	0.389300
C271	C27	0.269800	0.915500	0.358700
C281	C28	0.275300	0.933400	0.314100
C291	C29	0.312700	0.773700	0.375400
H161	H16	0.324500	0.720400	0.395300
O31	O3	0.159100	0.835000	0.434100
O41	O4	0.245300	0.977500	0.371800
H171	H17	0.238400	0.955100	0.393500
C301	C30	0.254900	0.021700	0.282600
H181	H18	0.241100	0.057100	0.300500
H191	H19	0.282300	0.056100	0.284700
C311	C31	0.281100	0.814000	0.436100
C321	C32	0.205300	0.050700	0.086600
O51	O5	0.248800	0.078200	0.101700
O61	O6	0.173800	0.046400	0.036500
O71	O7	0.259400	0.871700	0.449100
O81	O8	0.296900	0.739300	0.459400
O91	O9	0.200800	0.711300	0.438800
C331	C33	0.083100	0.944100	0.136100
H201	H20	0.059600	0.939700	0.099400
C341	C34	0.108500	0.581000	0.247900
H211	H21	0.136200	0.544300	0.266700
Dy21	Dy2	0.731940	0.382170	0.512460
C351	C35	0.691200	0.528700	0.127800
C361	C36	0.726600	0.539800	0.184400
C371	C37	0.668000	0.481600	0.207700
C381	C38	0.645600	0.495900	0.113000
H221	H22	0.622800	0.488000	0.076300
C391	C39	0.716100	0.512000	0.223800
C401	C40	0.631800	0.473900	0.151300
C411	C41	0.652200	0.459600	0.245800
H231	H23	0.674200	0.465600	0.282800
C421	C42	0.605000	0.429900	0.227900
H241	H24	0.595900	0.414300	0.253300
C431	C43	0.570300	0.422300	0.173200
H251	H25	0.538400	0.402400	0.162300
O101	O10	0.770900	0.576900	0.199600
H261	H26	0.769600	0.604100	0.173800
C441	C44	0.582500	0.292600	0.329700
H271	H27	0.499900	0.367300	0.277400
C451	C45	0.664700	0.262300	0.414100
C461	C46	0.556700	0.206800	0.248100
C471	C47	0.547400	0.273600	0.276300
C481	C48	0.626400	0.240000	0.357100
C491	C49	0.633900	0.170500	0.331600
H281	H28	0.661600	0.133800	0.350500
C501	C50	0.599800	0.152300	0.276000
C511	C51	0.525400	0.190200	0.191900
H291	H29	0.497400	0.225800	0.172300
C521	C52	0.535500	0.123400	0.166100
H301	H30	0.514800	0.114800	0.129100
C531	C53	0.577600	0.066000	0.195400
H311	H31	0.583400	0.018500	0.177900
O111	O11	0.573300	0.360700	0.354900
H321	H32	0.599600	0.382100	0.378600
C541	C54	0.803000	0.371100	0.301900
C551	C55	0.814300	0.386400	0.260200
H331	H33	0.804000	0.439600	0.239900
C561	C56	0.856200	0.243500	0.277800
H341	H34	0.873000	0.200800	0.269000
C571	C57	0.820600	0.289600	0.331600
C581	C58	0.847300	0.227000	0.318900
H351	H35	0.858900	0.173700	0.338900
C591	C59	0.840900	0.321600	0.249700
H361	H36	0.848300	0.332700	0.222400
C601	C60	0.788200	0.334700	0.389300
C611	C61	0.769800	0.415500	0.358700
C621	C62	0.775300	0.433400	0.314100
C631	C63	0.812700	0.273700	0.375400
H371	H37	0.824500	0.220400	0.395300
O121	O12	0.659100	0.335000	0.434100
O131	O13	0.745300	0.477500	0.371800
H381	H38	0.738400	0.455100	0.393500
C641	C64	0.754900	0.521700	0.282600
H391	H39	0.741100	0.557100	0.300500
H401	H40	0.782300	0.556100	0.284700
C651	C65	0.781100	0.314000	0.436100
C661	C66	0.705300	0.550700	0.086600
O141	O14	0.748800	0.578200	0.101700
O151	O15	0.673800	0.546400	0.036500
O161	O16	0.759400	0.371700	0.449100
O171	O17	0.796900	0.239300	0.459400
O181	O18	0.700800	0.211300	0.438800
C671	C67	0.583100	0.444100	0.136100
H411	H41	0.559600	0.439700	0.099400
C681	C68	0.608500	0.081000	0.247900
H421	H42	0.636200	0.044300	0.266700
Dy31	Dy3	0.768060	0.882170	0.987540
C691	C69	0.808800	0.028700	0.372200
C701	C70	0.773400	0.039800	0.315600
C711	C71	0.832000	0.981600	0.292300
C721	C72	0.854400	0.995900	0.387000
H431	H43	0.877200	0.988000	0.423700
C731	C73	0.783900	0.012000	0.276200
C741	C74	0.868200	0.973900	0.348700
C751	C75	0.847800	0.959600	0.254200
H441	H44	0.825800	0.965600	0.217200
C761	C76	0.895000	0.929900	0.272100
H451	H45	0.904100	0.914300	0.246700
C771	C77	0.929700	0.922300	0.326800
H461	H46	0.961600	0.902400	0.337700
O191	O19	0.729100	0.076900	0.300400
H471	H47	0.730400	0.104100	0.326200
C781	C78	0.917500	0.792600	0.170300
H481	H48	0.000100	0.867300	0.222600
C791	C79	0.835300	0.762300	0.085900
C801	C80	0.943300	0.706800	0.251900
C811	C81	0.952600	0.773600	0.223700
C821	C82	0.873600	0.740000	0.142900
C831	C83	0.866100	0.670500	0.168400
H491	H49	0.838400	0.633800	0.149500
C841	C84	0.900200	0.652300	0.224000
C851	C85	0.974600	0.690200	0.308100
H501	H50	0.002600	0.725800	0.327700
C861	C86	0.964500	0.623400	0.333900
H511	H51	0.985200	0.614800	0.370900
C871	C87	0.922400	0.566000	0.304600
H521	H52	0.916600	0.518500	0.322100
O201	O20	0.926700	0.860700	0.145100
H531	H53	0.900400	0.882100	0.121400
C881	C88	0.697000	0.871100	0.198100
C891	C89	0.685700	0.886400	0.239800
H541	H54	0.696000	0.939600	0.260100
C901	C90	0.643800	0.743500	0.222200
H551	H55	0.627000	0.700800	0.231000
C911	C91	0.679400	0.789600	0.168400
C921	C92	0.652700	0.727000	0.181100
H561	H56	0.641100	0.673700	0.161100
C931	C93	0.659100	0.821600	0.250300
H571	H57	0.651700	0.832700	0.277600
C941	C94	0.711800	0.834700	0.110700
C951	C95	0.730200	0.915500	0.141300
C961	C96	0.724700	0.933400	0.185900
C971	C97	0.687300	0.773700	0.124600
H581	H58	0.675500	0.720400	0.104700
O211	O21	0.840900	0.835000	0.065900
O221	O22	0.754700	0.977500	0.128200
H591	H59	0.761600	0.955100	0.106500
C981	C98	0.745100	0.021700	0.217400
H601	H60	0.758900	0.057100	0.199500
H611	H61	0.717700	0.056100	0.215300
C991	C99	0.718900	0.814000	0.063900
C1001	C100	0.794700	0.050700	0.413400
O231	O23	0.751200	0.078200	0.398300
O241	O24	0.826200	0.046400	0.463500
O251	O25	0.740600	0.871700	0.050900
O261	O26	0.703100	0.739300	0.040600
O271	O27	0.799200	0.711300	0.061200
C1011	C101	0.916900	0.944100	0.363900
H621	H62	0.940400	0.939700	0.400600
C1021	C102	0.891500	0.581000	0.252100
H631	H63	0.863800	0.544300	0.233300
Dy41	Dy4	0.268060	0.382170	0.987540
C1031	C103	0.308800	0.528700	0.372200
C1041	C104	0.273400	0.539800	0.315600
C1051	C105	0.332000	0.481600	0.292300
C1061	C106	0.354400	0.495900	0.387000
H641	H64	0.377200	0.488000	0.423700
C1071	C107	0.283900	0.512000	0.276200
C1081	C108	0.368200	0.473900	0.348700
C1091	C109	0.347800	0.459600	0.254200
H651	H65	0.325800	0.465600	0.217200
C1101	C110	0.395000	0.429900	0.272100
H661	H66	0.404100	0.414300	0.246700
C1111	C111	0.429700	0.422300	0.326800
H671	H67	0.461600	0.402400	0.337700
O281	O28	0.229100	0.576900	0.300400
H681	H68	0.230400	0.604100	0.326200
C1121	C112	0.417500	0.292600	0.170300
H691	H69	0.500100	0.367300	0.222600
C1131	C113	0.335300	0.262300	0.085900
C1141	C114	0.443300	0.206800	0.251900
C1151	C115	0.452600	0.273600	0.223700
C1161	C116	0.373600	0.240000	0.142900
C1171	C117	0.366100	0.170500	0.168400
H701	H70	0.338400	0.133800	0.149500
C1181	C118	0.400200	0.152300	0.224000
C1191	C119	0.474600	0.190200	0.308100
H711	H71	0.502600	0.225800	0.327700
C1201	C120	0.464500	0.123400	0.333900
H721	H72	0.485200	0.114800	0.370900
C1211	C121	0.422400	0.066000	0.304600
H731	H73	0.416600	0.018500	0.322100
O291	O29	0.426700	0.360700	0.145100
H741	H74	0.400400	0.382100	0.121400
C1221	C122	0.197000	0.371100	0.198100
C1231	C123	0.185700	0.386400	0.239800
H751	H75	0.196000	0.439600	0.260100
C1241	C124	0.143800	0.243500	0.222200
H761	H76	0.127000	0.200800	0.231000
C1251	C125	0.179400	0.289600	0.168400
C1261	C126	0.152700	0.227000	0.181100
H771	H77	0.141100	0.173700	0.161100
C1271	C127	0.159100	0.321600	0.250300
H781	H78	0.151700	0.332700	0.277600
C1281	C128	0.211800	0.334700	0.110700
C1291	C129	0.230200	0.415500	0.141300
C1301	C130	0.224700	0.433400	0.185900
C1311	C131	0.187300	0.273700	0.124600
H791	H79	0.175500	0.220400	0.104700
O301	O30	0.340900	0.335000	0.065900
O311	O31	0.254700	0.477500	0.128200
H801	H80	0.261600	0.455100	0.106500
C1321	C132	0.245100	0.521700	0.217400
H811	H81	0.258900	0.557100	0.199500
H821	H82	0.217700	0.556100	0.215300
C1331	C133	0.218900	0.314000	0.063900
C1341	C134	0.294700	0.550700	0.413400
O321	O32	0.251200	0.578200	0.398300
O331	O33	0.326200	0.546400	0.463500
O341	O34	0.240600	0.371700	0.050900
O351	O35	0.203100	0.239300	0.040600
O361	O36	0.299200	0.211300	0.061200
C1351	C135	0.416900	0.444100	0.363900
H831	H83	0.440400	0.439700	0.400600
C1361	C136	0.391500	0.081000	0.252100
H841	H84	0.363800	0.044300	0.233300
Dy51	Dy5	0.768060	0.117830	0.487540
C1371	C137	0.808800	0.971300	0.872200
C1381	C138	0.773400	0.960200	0.815600
C1391	C139	0.832000	0.018400	0.792300
C1401	C140	0.854400	0.004100	0.887000
H851	H85	0.877200	0.012000	0.923700
C1411	C141	0.783900	0.988000	0.776200
C1421	C142	0.868200	0.026100	0.848700
C1431	C143	0.847800	0.040400	0.754200
H861	H86	0.825800	0.034400	0.717200
C1441	C144	0.895000	0.070100	0.772100
H871	H87	0.904100	0.085700	0.746700
C1451	C145	0.929700	0.077700	0.826800
H881	H88	0.961600	0.097600	0.837700
O371	O37	0.729100	0.923100	0.800400
H891	H89	0.730400	0.895900	0.826200
C1461	C146	0.917500	0.207400	0.670300
H901	H90	0.000100	0.132700	0.722600
C1471	C147	0.835300	0.237700	0.585900
C1481	C148	0.943300	0.293200	0.751900
C1491	C149	0.952600	0.226400	0.723700
C1501	C150	0.873600	0.260000	0.642900
C1511	C151	0.866100	0.329500	0.668400
H911	H91	0.838400	0.366200	0.649500
C1521	C152	0.900200	0.347700	0.724000
C1531	C153	0.974600	0.309800	0.808100
H921	H92	0.002600	0.274200	0.827700
C1541	C154	0.964500	0.376600	0.833900
H931	H93	0.985200	0.385200	0.870900
C1551	C155	0.922400	0.434000	0.804600
H941	H94	0.916600	0.481500	0.822100
O381	O38	0.926700	0.139300	0.645100
H951	H95	0.900400	0.117900	0.621400
C1561	C156	0.697000	0.128900	0.698100
C1571	C157	0.685700	0.113600	0.739800
H961	H96	0.696000	0.060400	0.760100
C1581	C158	0.643800	0.256500	0.722200
H971	H97	0.627000	0.299200	0.731000
C1591	C159	0.679400	0.210400	0.668400
C1601	C160	0.652700	0.273000	0.681100
H981	H98	0.641100	0.326300	0.661100
C1611	C161	0.659100	0.178400	0.750300
H991	H99	0.651700	0.167300	0.777600
C1621	C162	0.711800	0.165300	0.610700
C1631	C163	0.730200	0.084500	0.641300
C1641	C164	0.724700	0.066600	0.685900
C1651	C165	0.687300	0.226300	0.624600
H1001	H100	0.675500	0.279600	0.604700
O391	O39	0.840900	0.165000	0.565900
O401	O40	0.754700	0.022500	0.628200
H1011	H101	0.761600	0.044900	0.606500
C1661	C166	0.745100	0.978300	0.717400
H1021	H102	0.758900	0.942900	0.699500
H1031	H103	0.717700	0.943900	0.715300
C1671	C167	0.718900	0.186000	0.563900
C1681	C168	0.794700	0.949300	0.913400
O411	O41	0.751200	0.921800	0.898300
O421	O42	0.826200	0.953600	0.963500
O431	O43	0.740600	0.128300	0.550900
O441	O44	0.703100	0.260700	0.540600
O451	O45	0.799200	0.288700	0.561200
C1691	C169	0.916900	0.055900	0.863900
H1041	H104	0.940400	0.060300	0.900600
C1701	C170	0.891500	0.419000	0.752100
H1051	H105	0.863800	0.455700	0.733300
Dy61	Dy6	0.268060	0.617830	0.487540
C1711	C171	0.308800	0.471300	0.872200
C1721	C172	0.273400	0.460200	0.815600
C1731	C173	0.332000	0.518400	0.792300
C1741	C174	0.354400	0.504100	0.887000
H1061	H106	0.377200	0.512000	0.923700
C1751	C175	0.283900	0.488000	0.776200
C1761	C176	0.368200	0.526100	0.848700
C1771	C177	0.347800	0.540400	0.754200
H1071	H107	0.325800	0.534400	0.717200
C1781	C178	0.395000	0.570100	0.772100
H1081	H108	0.404100	0.585700	0.746700
C1791	C179	0.429700	0.577700	0.826800
H1091	H109	0.461600	0.597600	0.837700
O461	O46	0.229100	0.423100	0.800400
H1101	H110	0.230400	0.395900	0.826200
C1801	C180	0.417500	0.707400	0.670300
H1111	H111	0.500100	0.632700	0.722600
C1811	C181	0.335300	0.737700	0.585900
C1821	C182	0.443300	0.793200	0.751900
C1831	C183	0.452600	0.726400	0.723700
C1841	C184	0.373600	0.760000	0.642900
C1851	C185	0.366100	0.829500	0.668400
H1121	H112	0.338400	0.866200	0.649500
C1861	C186	0.400200	0.847700	0.724000
C1871	C187	0.474600	0.809800	0.808100
H1131	H113	0.502600	0.774200	0.827700
C1881	C188	0.464500	0.876600	0.833900
H1141	H114	0.485200	0.885200	0.870900
C1891	C189	0.422400	0.934000	0.804600
H1151	H115	0.416600	0.981500	0.822100
O471	O47	0.426700	0.639300	0.645100
H1161	H116	0.400400	0.617900	0.621400
C1901	C190	0.197000	0.628900	0.698100
C1911	C191	0.185700	0.613600	0.739800
H1171	H117	0.196000	0.560400	0.760100
C1921	C192	0.143800	0.756500	0.722200
H1181	H118	0.127000	0.799200	0.731000
C1931	C193	0.179400	0.710400	0.668400
C1941	C194	0.152700	0.773000	0.681100
H1191	H119	0.141100	0.826300	0.661100
C1951	C195	0.159100	0.678400	0.750300
H1201	H120	0.151700	0.667300	0.777600
C1961	C196	0.211800	0.665300	0.610700
C1971	C197	0.230200	0.584500	0.641300
C1981	C198	0.224700	0.566600	0.685900
C1991	C199	0.187300	0.726300	0.624600
H1211	H121	0.175500	0.779600	0.604700
O481	O48	0.340900	0.665000	0.565900
O491	O49	0.254700	0.522500	0.628200
H1221	H122	0.261600	0.544900	0.606500
C2001	C200	0.245100	0.478300	0.717400
H1231	H123	0.258900	0.442900	0.699500
H1241	H124	0.217700	0.443900	0.715300
C2011	C201	0.218900	0.686000	0.563900
C2021	C202	0.294700	0.449300	0.913400
O501	O50	0.251200	0.421800	0.898300
O511	O51	0.326200	0.453600	0.963500
O521	O52	0.240600	0.628300	0.550900
O531	O53	0.203100	0.760700	0.540600
O541	O54	0.299200	0.788700	0.561200
C2031	C203	0.416900	0.555900	0.863900
H1251	H125	0.440400	0.560300	0.900600
C2041	C204	0.391500	0.919000	0.752100
H1261	H126	0.363800	0.955700	0.733300
Dy71	Dy7	0.231940	0.117830	0.012460
C2051	C205	0.191200	0.971300	0.627800
C2061	C206	0.226600	0.960200	0.684400
C2071	C207	0.168000	0.018400	0.707700
C2081	C208	0.145600	0.004100	0.613000
H1271	H127	0.122800	0.012000	0.576300
C2091	C209	0.216100	0.988000	0.723800
C2101	C210	0.131800	0.026100	0.651300
C2111	C211	0.152200	0.040400	0.745800
H1281	H128	0.174200	0.034400	0.782800
C2121	C212	0.105000	0.070100	0.727900
H1291	H129	0.095900	0.085700	0.753300
C2131	C213	0.070300	0.077700	0.673200
H1301	H130	0.038400	0.097600	0.662300
O551	O55	0.270900	0.923100	0.699600
H1311	H131	0.269600	0.895900	0.673800
C2141	C214	0.082500	0.207400	0.829700
H1321	H132	0.999900	0.132700	0.777400
C2151	C215	0.164700	0.237700	0.914100
C2161	C216	0.056700	0.293200	0.748100
C2171	C217	0.047400	0.226400	0.776300
C2181	C218	0.126400	0.260000	0.857100
C2191	C219	0.133900	0.329500	0.831600
H1331	H133	0.161600	0.366200	0.850500
C2201	C220	0.099800	0.347700	0.776000
C2211	C221	0.025400	0.309800	0.691900
H1341	H134	0.997400	0.274200	0.672300
C2221	C222	0.035500	0.376600	0.666100
H1351	H135	0.014800	0.385200	0.629100
C2231	C223	0.077600	0.434000	0.695400
H1361	H136	0.083400	0.481500	0.677900
O561	O56	0.073300	0.139300	0.854900
H1371	H137	0.099600	0.117900	0.878600
C2241	C224	0.303000	0.128900	0.801900
C2251	C225	0.314300	0.113600	0.760200
H1381	H138	0.304000	0.060400	0.739900
C2261	C226	0.356200	0.256500	0.777800
H1391	H139	0.373000	0.299200	0.769000
C2271	C227	0.320600	0.210400	0.831600
C2281	C228	0.347300	0.273000	0.818900
H1401	H140	0.358900	0.326300	0.838900
C2291	C229	0.340900	0.178400	0.749700
H1411	H141	0.348300	0.167300	0.722400
C2301	C230	0.288200	0.165300	0.889300
C2311	C231	0.269800	0.084500	0.858700
C2321	C232	0.275300	0.066600	0.814100
C2331	C233	0.312700	0.226300	0.875400
H1421	H142	0.324500	0.279600	0.895300
O571	O57	0.159100	0.165000	0.934100
O581	O58	0.245300	0.022500	0.871800
H1431	H143	0.238400	0.044900	0.893500
C2341	C234	0.254900	0.978300	0.782600
H1441	H144	0.241100	0.942900	0.800500
H1451	H145	0.282300	0.943900	0.784700
C2351	C235	0.281100	0.186000	0.936100
C2361	C236	0.205300	0.949300	0.586600
O591	O59	0.248800	0.921800	0.601700
O601	O60	0.173800	0.953600	0.536500
O611	O61	0.259400	0.128300	0.949100
O621	O62	0.296900	0.260700	0.959400
O631	O63	0.200800	0.288700	0.938800
C2371	C237	0.083100	0.055900	0.636100
H1461	H146	0.059600	0.060300	0.599400
C2381	C238	0.108500	0.419000	0.747900
H1471	H147	0.136200	0.455700	0.766700
Dy81	Dy8	0.731940	0.617830	0.012460
C2391	C239	0.691200	0.471300	0.627800
C2401	C240	0.726600	0.460200	0.684400
C2411	C241	0.668000	0.518400	0.707700
C2421	C242	0.645600	0.504100	0.613000
H1481	H148	0.622800	0.512000	0.576300
C2431	C243	0.716100	0.488000	0.723800
C2441	C244	0.631800	0.526100	0.651300
C2451	C245	0.652200	0.540400	0.745800
H1491	H149	0.674200	0.534400	0.782800
C2461	C246	0.605000	0.570100	0.727900
H1501	H150	0.595900	0.585700	0.753300
C2471	C247	0.570300	0.577700	0.673200
H1511	H151	0.538400	0.597600	0.662300
O641	O64	0.770900	0.423100	0.699600
H1521	H152	0.769600	0.395900	0.673800
C2481	C248	0.582500	0.707400	0.829700
H1531	H153	0.499900	0.632700	0.777400
C2491	C249	0.664700	0.737700	0.914100
C2501	C250	0.556700	0.793200	0.748100
C2511	C251	0.547400	0.726400	0.776300
C2521	C252	0.626400	0.760000	0.857100
C2531	C253	0.633900	0.829500	0.831600
H1541	H154	0.661600	0.866200	0.850500
C2541	C254	0.599800	0.847700	0.776000
C2551	C255	0.525400	0.809800	0.691900
H1551	H155	0.497400	0.774200	0.672300
C2561	C256	0.535500	0.876600	0.666100
H1561	H156	0.514800	0.885200	0.629100
C2571	C257	0.577600	0.934000	0.695400
H1571	H157	0.583400	0.981500	0.677900
O651	O65	0.573300	0.639300	0.854900
H1581	H158	0.599600	0.617900	0.878600
C2581	C258	0.803000	0.628900	0.801900
C2591	C259	0.814300	0.613600	0.760200
H1591	H159	0.804000	0.560400	0.739900
C2601	C260	0.856200	0.756500	0.777800
H1601	H160	0.873000	0.799200	0.769000
C2611	C261	0.820600	0.710400	0.831600
C2621	C262	0.847300	0.773000	0.818900
H1611	H161	0.858900	0.826300	0.838900
C2631	C263	0.840900	0.678400	0.749700
H1621	H162	0.848300	0.667300	0.722400
C2641	C264	0.788200	0.665300	0.889300
C2651	C265	0.769800	0.584500	0.858700
C2661	C266	0.775300	0.566600	0.814100
C2671	C267	0.812700	0.726300	0.875400
H1631	H163	0.824500	0.779600	0.895300
O661	O66	0.659100	0.665000	0.934100
O671	O67	0.745300	0.522500	0.871800
H1641	H164	0.738400	0.544900	0.893500
C2681	C268	0.754900	0.478300	0.782600
H1651	H165	0.741100	0.442900	0.800500
H1661	H166	0.782300	0.443900	0.784700
C2691	C269	0.781100	0.686000	0.936100
C2701	C270	0.705300	0.449300	0.586600
O681	O68	0.748800	0.421800	0.601700
O691	O69	0.673800	0.453600	0.536500
O701	O70	0.759400	0.628300	0.949100
O711	O71	0.796900	0.760700	0.959400
O721	O72	0.700800	0.788700	0.938800
C2711	C271	0.583100	0.555900	0.636100
H1671	H167	0.559600	0.560300	0.599400
C2721	C272	0.608500	0.919000	0.747900
H1681	H168	0.636200	0.955700	0.766700
C2731	C273	0.000000	0.828300	0.250000
C2741	C274	0.500000	0.328300	0.250000
C2751	C275	0.000000	0.171700	0.750000
C2761	C276	0.500000	0.671700	0.750000
