data_FODCEI_clean_PM
_symmetry_space_group_name_H-M	'P1'
_cell_length_a	9.951600
_cell_length_b	15.781800
_cell_length_c	16.550900
_cell_angle_alpha	110.421000
_cell_angle_beta	101.582000
_cell_angle_gamma	90.029000
_symmetry_Int_Tables_number 1

loop_
_symmetry_equiv_pos_as_xyz
'x,y,z'

loop_
_atom_site_label
_atom_site_type_symbol
_atom_site_fract_x
_atom_site_fract_y
_atom_site_fract_z
Cd11	Cd1	0.959790	0.775210	0.567040
N11	N1	0.308600	0.400300	0.923500
N21	N2	0.153900	0.856200	0.674900
N31	N3	0.413900	0.607500	0.934500
N41	N4	0.993600	0.671300	0.637300
N51	N5	0.769000	0.679300	0.469800
O11	O1	0.605200	0.415300	0.887800
O21	O2	0.738400	0.500800	0.849100
O31	O3	0.847900	0.341700	0.541400
O41	O4	0.938700	0.212500	0.535100
O51	O5	0.633500	0.027000	0.650700
O61	O6	0.837800	0.900400	0.558000
O71	O7	0.794300	0.855800	0.659700
O81	O8	0.107000	0.116000	0.710500
H11	H1	0.121700	0.081100	0.663700
O91	O9	0.148800	0.101300	0.879700
H21	H2	0.075200	0.094800	0.844700
O101	O10	0.087300	0.823600	0.898600
H31	H3	0.133100	0.867400	0.937600
O111	O11	0.993000	0.600500	0.898400
H41	H4	0.921800	0.567100	0.878900
O121	O12	0.339300	0.517100	0.436700
H51	H5	0.300200	0.562000	0.433800
C11	C1	0.685100	0.425900	0.842000
C21	C2	0.866700	0.276000	0.567000
C31	C3	0.717000	0.340900	0.771800
C41	C4	0.770400	0.347300	0.702500
H61	H6	0.782100	0.403600	0.697600
C51	C5	0.806200	0.270900	0.640800
C61	C6	0.788800	0.186900	0.649200
H71	H7	0.814800	0.135500	0.608700
C71	C7	0.733600	0.178800	0.716800
C81	C8	0.697800	0.256500	0.777600
H81	H8	0.660200	0.251800	0.823100
C91	C9	0.721700	0.087300	0.726300
H91	H9	0.811800	0.064000	0.733500
H101	H10	0.685700	0.093300	0.778100
C101	C10	0.640700	0.952700	0.611100
H111	H11	0.616700	0.934100	0.657400
C111	C11	0.767700	0.900800	0.611300
C121	C12	0.521300	0.898100	0.546300
H121	H12	0.442000	0.932800	0.550100
H131	H13	0.504600	0.844300	0.558400
H141	H14	0.539000	0.881600	0.488100
C131	C13	0.182000	0.425800	0.924700
H151	H15	0.171200	0.484900	0.959600
C141	C14	0.067700	0.370500	0.877900
H161	H16	0.980700	0.391600	0.879500
C151	C15	0.083400	0.280300	0.826700
H171	H17	0.006500	0.240500	0.794500
C161	C16	0.215200	0.251400	0.824700
C171	C17	0.324000	0.314100	0.873500
H181	H18	0.412700	0.296200	0.871800
C181	C18	0.235600	0.153100	0.771300
C191	C19	0.349700	0.147400	0.723000
H191	H19	0.352300	0.085900	0.684800
H201	H20	0.435800	0.167000	0.764800
H211	H21	0.333900	0.185700	0.688500
C201	C20	0.263900	0.096400	0.833200
C211	C21	0.393400	0.133200	0.895200
H221	H22	0.388200	0.196500	0.927200
H231	H23	0.466300	0.126000	0.863700
H241	H24	0.411400	0.101500	0.935900
C221	C22	0.271100	0.996200	0.779100
C231	C23	0.393700	0.955900	0.776900
H251	H25	0.475900	0.989600	0.809600
C241	C24	0.394600	0.865400	0.726100
H261	H26	0.476400	0.836900	0.726800
C251	C25	0.274800	0.818700	0.675300
H271	H27	0.276500	0.758500	0.639400
C261	C26	0.153800	0.942000	0.727500
H281	H28	0.069500	0.967100	0.729700
C271	C27	0.478700	0.627200	0.880100
H291	H29	0.559800	0.600400	0.869800
C281	C28	0.429700	0.686300	0.838000
H301	H30	0.477300	0.699100	0.800200
C291	C29	0.308800	0.726300	0.853200
H311	H31	0.274400	0.766100	0.825200
C301	C30	0.239400	0.707100	0.909800
C311	C31	0.298000	0.648000	0.949700
H321	H32	0.254400	0.635600	0.989500
C321	C32	0.100400	0.744900	0.925400
C331	C33	0.095300	0.768900	0.020100
H331	H33	0.177000	0.805800	0.056500
H341	H34	0.089500	0.714500	0.033100
H351	H35	0.016000	0.801900	0.031600
C341	C34	0.979400	0.672900	0.865500
C351	C35	0.838300	0.710500	0.872500
H361	H36	0.767400	0.666100	0.831900
H371	H37	0.834000	0.764700	0.858500
H381	H38	0.825300	0.724300	0.931600
C361	C36	0.996100	0.639900	0.769400
C371	C37	0.047700	0.558000	0.732300
H391	H39	0.067900	0.519600	0.764100
C381	C38	0.069200	0.533100	0.648600
H401	H40	0.100800	0.476800	0.622000
C391	C39	0.043900	0.592200	0.603900
H411	H41	0.062800	0.575800	0.547900
C401	C40	0.968400	0.694200	0.719900
H421	H42	0.930800	0.748900	0.743800
C411	C41	0.735400	0.666000	0.383700
H431	H43	0.791500	0.694100	0.360300
C421	C42	0.620900	0.612500	0.328600
H441	H44	0.600800	0.604000	0.268800
C431	C43	0.536300	0.571700	0.363000
H451	H45	0.458800	0.534900	0.326500
C441	C44	0.567300	0.585800	0.452400
C451	C45	0.685200	0.638100	0.501400
H461	H46	0.709200	0.645800	0.561000
C461	C46	0.472300	0.544900	0.494600
C471	C47	0.457900	0.614100	0.583800
H471	H47	0.444300	0.672300	0.578500
H481	H48	0.539900	0.618400	0.627400
H491	H49	0.380400	0.594900	0.601300
Cd21	Cd2	0.040210	0.224790	0.432960
N61	N6	0.691400	0.599700	0.076500
N71	N7	0.846100	0.143800	0.325100
N81	N8	0.586100	0.392500	0.065500
N91	N9	0.006400	0.328700	0.362700
N101	N10	0.231000	0.320700	0.530200
O131	O13	0.394800	0.584700	0.112200
O141	O14	0.261600	0.499200	0.150900
O151	O15	0.152100	0.658300	0.458600
O161	O16	0.061300	0.787500	0.464900
O171	O17	0.366500	0.973000	0.349300
O181	O18	0.162200	0.099600	0.442000
O191	O19	0.205700	0.144200	0.340300
O201	O20	0.893000	0.884000	0.289500
H501	H50	0.878300	0.918900	0.336300
O211	O21	0.851200	0.898700	0.120300
H511	H51	0.924800	0.905200	0.155300
O221	O22	0.912700	0.176400	0.101400
H521	H52	0.866900	0.132600	0.062400
O231	O23	0.007000	0.399500	0.101600
H531	H53	0.078200	0.432900	0.121100
O241	O24	0.660700	0.482900	0.563300
H541	H54	0.699800	0.438000	0.566200
C481	C48	0.314900	0.574100	0.158000
C491	C49	0.133300	0.724000	0.433000
C501	C50	0.283000	0.659100	0.228200
C511	C51	0.229600	0.652700	0.297500
H551	H55	0.217900	0.596400	0.302400
C521	C52	0.193800	0.729100	0.359200
C531	C53	0.211200	0.813100	0.350800
H561	H56	0.185200	0.864500	0.391300
C541	C54	0.266400	0.821200	0.283200
C551	C55	0.302200	0.743500	0.222400
H571	H57	0.339800	0.748200	0.176900
C561	C56	0.278300	0.912700	0.273700
H581	H58	0.188200	0.936000	0.266500
H591	H59	0.314300	0.906700	0.221900
C571	C57	0.359300	0.047300	0.388900
H601	H60	0.383300	0.065900	0.342600
C581	C58	0.232300	0.099200	0.388700
C591	C59	0.478700	0.101900	0.453700
H611	H61	0.558000	0.067200	0.449900
H621	H62	0.495400	0.155700	0.441600
H631	H63	0.461000	0.118400	0.511900
C601	C60	0.818000	0.574200	0.075300
H641	H64	0.828800	0.515100	0.040400
C611	C61	0.932300	0.629500	0.122100
H651	H65	0.019300	0.608400	0.120500
C621	C62	0.916600	0.719700	0.173300
H661	H66	0.993500	0.759500	0.205500
C631	C63	0.784800	0.748600	0.175300
C641	C64	0.676000	0.685900	0.126500
H671	H67	0.587300	0.703800	0.128200
C651	C65	0.764400	0.846900	0.228700
C661	C66	0.650300	0.852600	0.277000
H681	H68	0.647700	0.914100	0.315200
H691	H69	0.564200	0.833000	0.235200
H701	H70	0.666100	0.814300	0.311500
C671	C67	0.736100	0.903600	0.166800
C681	C68	0.606600	0.866800	0.104800
H711	H71	0.611800	0.803500	0.072800
H721	H72	0.533700	0.874000	0.136300
H731	H73	0.588600	0.898500	0.064100
C691	C69	0.728900	0.003800	0.220900
C701	C70	0.606300	0.044100	0.223100
H741	H74	0.524100	0.010400	0.190400
C711	C71	0.605400	0.134600	0.273900
H751	H75	0.523600	0.163100	0.273200
C721	C72	0.725200	0.181300	0.324700
H761	H76	0.723500	0.241500	0.360600
C731	C73	0.846200	0.058000	0.272500
H771	H77	0.930500	0.032900	0.270300
C741	C74	0.521300	0.372800	0.119900
H781	H78	0.440200	0.399600	0.130200
C751	C75	0.570300	0.313700	0.162000
H791	H79	0.522700	0.300900	0.199800
C761	C76	0.691200	0.273700	0.146800
H801	H80	0.725600	0.233900	0.174800
C771	C77	0.760600	0.292900	0.090200
C781	C78	0.702000	0.352000	0.050300
H811	H81	0.745600	0.364400	0.010500
C791	C79	0.899600	0.255100	0.074600
C801	C80	0.904700	0.231100	0.979900
H821	H82	0.823000	0.194200	0.943500
H831	H83	0.910500	0.285500	0.966900
H841	H84	0.984000	0.198100	0.968400
C811	C81	0.020600	0.327100	0.134500
C821	C82	0.161700	0.289500	0.127500
H851	H85	0.232600	0.333900	0.168100
H861	H86	0.166000	0.235300	0.141500
H871	H87	0.174700	0.275700	0.068400
C831	C83	0.003900	0.360100	0.230600
C841	C84	0.952300	0.442000	0.267700
H881	H88	0.932100	0.480400	0.235900
C851	C85	0.930800	0.466900	0.351400
H891	H89	0.899200	0.523200	0.378000
C861	C86	0.956100	0.407800	0.396100
H901	H90	0.937200	0.424200	0.452100
C871	C87	0.031600	0.305800	0.280100
H911	H91	0.069200	0.251100	0.256200
C881	C88	0.264600	0.334000	0.616300
H921	H92	0.208500	0.305900	0.639700
C891	C89	0.379100	0.387500	0.671400
H931	H93	0.399200	0.396000	0.731200
C901	C90	0.463700	0.428300	0.637000
H941	H94	0.541200	0.465100	0.673500
C911	C91	0.432700	0.414200	0.547600
C921	C92	0.314800	0.361900	0.498600
H951	H95	0.290800	0.354200	0.439000
C931	C93	0.527700	0.455100	0.505400
C941	C94	0.542100	0.385900	0.416200
H961	H96	0.555700	0.327700	0.421500
H971	H97	0.460100	0.381600	0.372600
H981	H98	0.619600	0.405100	0.398700
Cd31	Cd3	0.500000	0.500000	0.000000
