data_FOFCOU_clean_PM
_symmetry_space_group_name_H-M	'P1'
_cell_length_a	9.560300
_cell_length_b	12.138600
_cell_length_c	15.945800
_cell_angle_alpha	88.455000
_cell_angle_beta	74.417000
_cell_angle_gamma	70.233000
_symmetry_Int_Tables_number 1

loop_
_symmetry_equiv_pos_as_xyz
'x,y,z'

loop_
_atom_site_label
_atom_site_type_symbol
_atom_site_fract_x
_atom_site_fract_y
_atom_site_fract_z
Ce11	Ce1	0.295540	0.974470	0.018290
O11	O1	0.125400	0.883500	0.117780
O21	O2	0.010900	0.757500	0.099460
H11	H1	0.991800	0.799800	0.058500
O31	O3	0.236900	0.062800	0.167350
O41	O4	0.441200	0.098200	0.084600
O51	O5	0.534200	0.169200	0.909600
O61	O6	0.321300	0.124000	0.921310
O71	O7	0.206300	0.890600	0.912960
O81	O8	0.969700	0.878300	0.961020
C11	C1	0.223800	0.551100	0.439600
C21	C2	0.273000	0.428100	0.440500
C31	C3	0.304400	0.376400	0.515500
H21	H2	0.339800	0.293200	0.514900
C41	C4	0.286700	0.440500	0.591700
C51	C5	0.233200	0.564400	0.592100
C61	C6	0.207400	0.615000	0.515500
H31	H3	0.176900	0.698000	0.514900
C71	C7	0.183900	0.616100	0.363600
C81	C8	0.112700	0.576000	0.310600
H41	H4	0.085100	0.508200	0.324600
C91	C9	0.082300	0.633800	0.238400
H51	H5	0.037300	0.603900	0.202100
C101	C10	0.117100	0.735400	0.218100
C111	C11	0.183900	0.778900	0.271500
H61	H6	0.207000	0.848800	0.258600
C121	C12	0.216200	0.719600	0.343200
H71	H7	0.261200	0.749600	0.379500
C131	C13	0.086000	0.798900	0.140800
C141	C14	0.294000	0.346300	0.366100
C151	C15	0.402700	0.337100	0.286700
H81	H8	0.464700	0.385500	0.277700
C161	C16	0.421500	0.257300	0.220000
H91	H9	0.499700	0.249000	0.166800
C171	C17	0.327600	0.190100	0.230200
C181	C18	0.218200	0.199100	0.310200
H101	H10	0.153500	0.152800	0.318100
C191	C19	0.203000	0.274400	0.377900
H111	H11	0.130600	0.277700	0.432700
C201	C20	0.336500	0.112200	0.157500
C211	C21	0.322200	0.374100	0.667900
C221	C22	0.279900	0.275200	0.687300
H121	H12	0.230100	0.250400	0.651100
C231	C23	0.308600	0.212700	0.757800
H131	H13	0.274900	0.147400	0.771100
C241	C24	0.387100	0.244500	0.809900
C251	C25	0.434700	0.340700	0.789800
H141	H14	0.490300	0.362300	0.823800
C261	C26	0.401100	0.405300	0.719700
H151	H15	0.432500	0.471700	0.707000
C271	C27	0.417000	0.175100	0.886400
C281	C28	0.195200	0.643000	0.671300
C291	C29	0.096400	0.629500	0.749500
H161	H16	0.053300	0.569100	0.752500
C301	C30	0.060000	0.703200	0.823200
H171	H17	0.989400	0.694700	0.875500
C311	C31	0.126600	0.789500	0.820600
C321	C32	0.224100	0.804300	0.742800
H181	H18	0.269800	0.863000	0.740600
C331	C33	0.255600	0.733700	0.668000
H191	H19	0.318500	0.747200	0.614400
C341	C34	0.099200	0.859100	0.902500
Ce21	Ce2	0.704460	0.025530	0.981710
O91	O9	0.874600	0.116500	0.882220
O101	O10	0.989100	0.242500	0.900540
H201	H20	0.008200	0.200200	0.941500
O111	O11	0.763100	0.937200	0.832650
O121	O12	0.558800	0.901800	0.915400
O131	O13	0.465800	0.830800	0.090400
O141	O14	0.678700	0.876000	0.078690
O151	O15	0.793700	0.109400	0.087040
O161	O16	0.030300	0.121700	0.038980
C351	C35	0.776200	0.448900	0.560400
C361	C36	0.727000	0.571900	0.559500
C371	C37	0.695600	0.623600	0.484500
H211	H21	0.660200	0.706800	0.485100
C381	C38	0.713300	0.559500	0.408300
C391	C39	0.766800	0.435600	0.407900
C401	C40	0.792600	0.385000	0.484500
H221	H22	0.823100	0.302000	0.485100
C411	C41	0.816100	0.383900	0.636400
C421	C42	0.887300	0.424000	0.689400
H231	H23	0.914900	0.491800	0.675400
C431	C43	0.917700	0.366200	0.761600
H241	H24	0.962700	0.396100	0.797900
C441	C44	0.882900	0.264600	0.781900
C451	C45	0.816100	0.221100	0.728500
H251	H25	0.793000	0.151200	0.741400
C461	C46	0.783800	0.280400	0.656800
H261	H26	0.738800	0.250400	0.620500
C471	C47	0.914000	0.201100	0.859200
C481	C48	0.706000	0.653700	0.633900
C491	C49	0.597300	0.662900	0.713300
H271	H27	0.535300	0.614500	0.722300
C501	C50	0.578500	0.742700	0.780000
H281	H28	0.500300	0.751000	0.833200
C511	C51	0.672400	0.809900	0.769800
C521	C52	0.781800	0.800900	0.689800
H291	H29	0.846500	0.847200	0.681900
C531	C53	0.797000	0.725600	0.622100
H301	H30	0.869400	0.722300	0.567300
C541	C54	0.663500	0.887800	0.842500
C551	C55	0.677800	0.625900	0.332100
C561	C56	0.720100	0.724800	0.312700
H311	H31	0.769900	0.749600	0.348900
C571	C57	0.691400	0.787300	0.242200
H321	H32	0.725100	0.852600	0.228900
C581	C58	0.612900	0.755500	0.190100
C591	C59	0.565300	0.659300	0.210200
H331	H33	0.509700	0.637700	0.176200
C601	C60	0.598900	0.594700	0.280300
H341	H34	0.567500	0.528300	0.293000
C611	C61	0.583000	0.824900	0.113600
C621	C62	0.804800	0.357000	0.328700
C631	C63	0.903600	0.370500	0.250500
H351	H35	0.946700	0.430900	0.247500
C641	C64	0.940000	0.296800	0.176800
H361	H36	0.010600	0.305300	0.124500
C651	C65	0.873400	0.210500	0.179400
C661	C66	0.775900	0.195700	0.257200
H371	H37	0.730200	0.137000	0.259400
C671	C67	0.744400	0.266300	0.332000
H381	H38	0.681500	0.252800	0.385600
C681	C68	0.900800	0.140900	0.097500
