data_FOHCIP_clean_PM
_symmetry_space_group_name_H-M	'P1'
_cell_length_a	7.767000
_cell_length_b	16.244000
_cell_length_c	15.304300
_cell_angle_alpha	90.000000
_cell_angle_beta	90.000000
_cell_angle_gamma	90.000000
_symmetry_Int_Tables_number 1

loop_
_symmetry_equiv_pos_as_xyz
'x,y,z'

loop_
_atom_site_label
_atom_site_type_symbol
_atom_site_fract_x
_atom_site_fract_y
_atom_site_fract_z
Cd11	Cd1	0.492980	0.379220	0.759830
Cd21	Cd2	0.507020	0.620780	0.259830
Cd31	Cd3	0.007020	0.879220	0.759830
Cd41	Cd4	0.992980	0.120780	0.259830
Hg11	Hg1	0.959510	0.571070	0.564830
Hg21	Hg2	0.040490	0.428930	0.064830
Hg31	Hg3	0.540490	0.071070	0.564830
Hg41	Hg4	0.459510	0.928930	0.064830
C11	C1	0.330000	0.497900	0.595800
C21	C2	0.851000	0.755200	0.595300
C31	C3	0.701000	0.506900	0.421500
C41	C4	0.844600	0.503000	0.753100
C51	C5	0.670000	0.502100	0.095800
C61	C6	0.149000	0.244800	0.095300
C71	C7	0.299000	0.493100	0.921500
C81	C8	0.155400	0.497000	0.253100
C91	C9	0.170000	0.997900	0.595800
C101	C10	0.649000	0.255200	0.595300
C111	C11	0.799000	0.006900	0.421500
C121	C12	0.655400	0.003000	0.753100
C131	C13	0.830000	0.002100	0.095800
C141	C14	0.351000	0.744800	0.095300
C151	C15	0.201000	0.993100	0.921500
C161	C16	0.344600	0.997000	0.253100
S11	S1	0.265600	0.553300	0.511900
S21	S2	0.770200	0.453500	0.505600
S31	S3	0.986400	0.574000	0.729600
S41	S4	0.795200	0.695800	0.512700
S51	S5	0.734400	0.446700	0.011900
S61	S6	0.229800	0.546500	0.005600
S71	S7	0.013600	0.426000	0.229600
S81	S8	0.204800	0.304200	0.012700
S91	S9	0.234400	0.053300	0.511900
S101	S10	0.729800	0.953500	0.505600
S111	S11	0.513600	0.074000	0.729600
S121	S12	0.704800	0.195800	0.512700
S131	S13	0.765600	0.946700	0.011900
S141	S14	0.270200	0.046500	0.005600
S151	S15	0.486400	0.926000	0.229600
S161	S16	0.295200	0.804200	0.012700
N11	N1	0.377000	0.462200	0.655100
N21	N2	0.880200	0.795600	0.654300
N31	N3	0.652000	0.546900	0.366500
N41	N4	0.742000	0.453800	0.767200
N51	N5	0.623000	0.537800	0.155100
N61	N6	0.119800	0.204400	0.154300
N71	N7	0.348000	0.453100	0.866500
N81	N8	0.258000	0.546200	0.267200
N91	N9	0.123000	0.962200	0.655100
N101	N10	0.619800	0.295600	0.654300
N111	N11	0.848000	0.046900	0.366500
N121	N12	0.758000	0.953800	0.767200
N131	N13	0.877000	0.037800	0.155100
N141	N14	0.380200	0.704400	0.154300
N151	N15	0.152000	0.953100	0.866500
N161	N16	0.242000	0.046200	0.267200
