data_FOHSAW01_clean_PM
_symmetry_space_group_name_H-M	'P1'
_cell_length_a	6.774500
_cell_length_b	14.220000
_cell_length_c	15.629000
_cell_angle_alpha	90.000000
_cell_angle_beta	101.100000
_cell_angle_gamma	90.000000
_symmetry_Int_Tables_number 1

loop_
_symmetry_equiv_pos_as_xyz
'x,y,z'

loop_
_atom_site_label
_atom_site_type_symbol
_atom_site_fract_x
_atom_site_fract_y
_atom_site_fract_z
Sr11	Sr1	0.230830	0.584730	0.451730
Sr21	Sr2	0.769170	0.084730	0.048270
Sr31	Sr3	0.769170	0.415270	0.548270
Sr41	Sr4	0.230830	0.915270	0.951730
Ni11	Ni1	0.222020	0.735290	0.705710
Ni21	Ni2	0.777980	0.235290	0.794290
Ni31	Ni3	0.777980	0.264710	0.294290
Ni41	Ni4	0.222020	0.764710	0.205710
H11	H1	0.491100	0.537000	0.768000
H21	H2	0.694300	0.541600	0.735000
H31	H3	0.714400	0.600000	0.195800
H41	H4	0.872500	0.563900	0.143500
H51	H5	0.081400	0.377700	0.445600
H61	H6	0.224900	0.401400	0.521300
H71	H7	0.508900	0.037000	0.732000
H81	H8	0.305700	0.041600	0.765000
H91	H9	0.285600	0.100000	0.304200
H101	H10	0.127500	0.063900	0.356500
H111	H11	0.918600	0.877700	0.054400
H121	H12	0.775100	0.901400	0.978700
H131	H13	0.508900	0.463000	0.232000
H141	H14	0.305700	0.458400	0.265000
H151	H15	0.285600	0.400000	0.804200
H161	H16	0.127500	0.436100	0.856500
H171	H17	0.918600	0.622300	0.554400
H181	H18	0.775100	0.598600	0.478700
H191	H19	0.491100	0.963000	0.268000
H201	H20	0.694300	0.958400	0.235000
H211	H21	0.714400	0.900000	0.695800
H221	H22	0.872500	0.936100	0.643500
H231	H23	0.081400	0.122300	0.945600
H241	H24	0.224900	0.098600	0.021300
C11	C1	0.456900	0.583600	0.643700
C21	C2	0.570300	0.575400	0.735900
C31	C3	0.623500	0.665500	0.786400
C41	C4	0.996500	0.607300	0.263700
C51	C5	0.843500	0.614500	0.180900
C61	C6	0.812500	0.701200	0.125200
C71	C7	0.543100	0.083600	0.856300
C81	C8	0.429700	0.075400	0.764100
C91	C9	0.376500	0.165500	0.713600
C101	C10	0.003500	0.107300	0.236300
C111	C11	0.156500	0.114500	0.319100
C121	C12	0.187500	0.201200	0.374800
C131	C13	0.543100	0.416400	0.356300
C141	C14	0.429700	0.424600	0.264100
C151	C15	0.376500	0.334500	0.213600
C161	C16	0.003500	0.392700	0.736300
C171	C17	0.156500	0.385500	0.819100
C181	C18	0.187500	0.298800	0.874800
C191	C19	0.456900	0.916400	0.143700
C201	C20	0.570300	0.924600	0.235900
C211	C21	0.623500	0.834500	0.286400
C221	C22	0.996500	0.892700	0.763700
C231	C23	0.843500	0.885500	0.680900
C241	C24	0.812500	0.798800	0.625200
O11	O1	0.309900	0.640130	0.623550
O21	O2	0.506300	0.530420	0.587890
O31	O3	0.791000	0.665600	0.837500
O41	O4	0.500600	0.731000	0.780450
O51	O5	0.135400	0.666350	0.284710
O61	O6	0.979000	0.538260	0.310830
O71	O7	0.946100	0.760600	0.128030
O81	O8	0.647100	0.706500	0.072900
O91	O9	0.114500	0.416160	0.487590
O101	O10	0.690100	0.140130	0.876450
O111	O11	0.493700	0.030420	0.912110
O121	O12	0.209000	0.165600	0.662500
O131	O13	0.499400	0.231000	0.719550
O141	O14	0.864600	0.166350	0.215290
O151	O15	0.021000	0.038260	0.189170
O161	O16	0.053900	0.260600	0.371970
O171	O17	0.352900	0.206500	0.427100
O181	O18	0.885500	0.916160	0.012410
O191	O19	0.690100	0.359870	0.376450
O201	O20	0.493700	0.469580	0.412110
O211	O21	0.209000	0.334400	0.162500
O221	O22	0.499400	0.269000	0.219550
O231	O23	0.864600	0.333650	0.715290
O241	O24	0.021000	0.461740	0.689170
O251	O25	0.053900	0.239400	0.871970
O261	O26	0.352900	0.293500	0.927100
O271	O27	0.885500	0.583840	0.512410
O281	O28	0.309900	0.859870	0.123550
O291	O29	0.506300	0.969580	0.087890
O301	O30	0.791000	0.834400	0.337500
O311	O31	0.500600	0.769000	0.280450
O321	O32	0.135400	0.833650	0.784710
O331	O33	0.979000	0.961740	0.810830
O341	O34	0.946100	0.739400	0.628030
O351	O35	0.647100	0.793500	0.572900
O361	O36	0.114500	0.083840	0.987590
