data_FOJLOH_clean_PM
_symmetry_space_group_name_H-M	'P1'
_cell_length_a	36.991000
_cell_length_b	8.394000
_cell_length_c	36.940000
_cell_angle_alpha	90.000000
_cell_angle_beta	116.750000
_cell_angle_gamma	90.000000
_symmetry_Int_Tables_number 1

loop_
_symmetry_equiv_pos_as_xyz
'x,y,z'

loop_
_atom_site_label
_atom_site_type_symbol
_atom_site_fract_x
_atom_site_fract_y
_atom_site_fract_z
Zn11	Zn1	0.830750	0.032670	0.177020
O11	O1	0.592340	0.197000	0.022140
O21	O2	0.413620	0.046500	0.878310
O31	O3	0.427300	0.320900	0.020480
O41	O4	0.762700	0.876300	0.132570
O51	O5	0.778620	0.132000	0.144700
O61	O6	0.346480	0.637500	0.717110
O71	O7	0.322100	0.511900	0.750300
O81	O8	0.355520	0.459700	0.142700
O91	O9	0.363600	0.718300	0.127700
C11	C1	0.501610	0.153700	0.943360
C21	C2	0.462960	0.219700	0.921910
C31	C3	0.444500	0.305500	0.941640
C41	C4	0.465580	0.327000	0.983780
C51	C5	0.503020	0.253800	0.005740
C61	C6	0.520610	0.162200	0.984850
C71	C7	0.522600	0.076800	0.920500
H11	H1	0.505000	0.080500	0.891900
H21	H2	0.529000	0.967900	0.929000
H31	H3	0.547200	0.133600	0.926300
C81	C8	0.402030	0.369800	0.918490
H41	H4	0.392000	0.345300	0.890200
H51	H5	0.402300	0.483200	0.922000
H61	H6	0.384800	0.321700	0.928600
C91	C9	0.524520	0.269600	0.051390
H71	H7	0.549700	0.213000	0.061800
H81	H8	0.507900	0.225700	0.062700
H91	H9	0.529600	0.380100	0.058600
C101	C10	0.560140	0.076900	0.009130
H101	H10	0.559900	0.025300	0.032500
H111	H11	0.564400	0.996300	0.992600
C111	C11	0.630610	0.143800	0.047210
C121	C12	0.659910	0.262900	0.062880
H121	H12	0.652900	0.369100	0.056300
C131	C13	0.699530	0.220900	0.088390
H131	H13	0.719300	0.299600	0.098500
C141	C14	0.710070	0.064000	0.099050
C151	C15	0.680690	0.947000	0.081660
H141	H14	0.687900	0.840600	0.087800
C161	C16	0.641670	0.984600	0.055890
H151	H15	0.622500	0.904500	0.044200
C171	C17	0.753480	0.014900	0.127490
C181	C18	0.438830	0.176800	0.877800
H161	H16	0.456500	0.143900	0.866100
H171	H17	0.422500	0.266100	0.862400
C191	C19	0.396470	0.949000	0.844620
C201	C20	0.375900	0.817400	0.849300
H181	H18	0.373200	0.803000	0.872900
C211	C21	0.359800	0.710600	0.818200
H191	H19	0.347600	0.619000	0.821600
C221	C22	0.361190	0.733600	0.782230
C231	C23	0.380100	0.864600	0.777650
H201	H20	0.381300	0.880900	0.753300
C241	C24	0.397600	0.974100	0.808500
H211	H21	0.410200	0.064400	0.804800
C251	C25	0.343700	0.614300	0.747800
C261	C26	0.447990	0.425100	0.005340
H221	H22	0.469300	0.482000	0.027600
H231	H23	0.429200	0.502400	0.986900
C271	C27	0.413230	0.390500	0.045110
C281	C28	0.412330	0.552400	0.051690
H241	H24	0.422500	0.624100	0.039300
C291	C29	0.396200	0.607300	0.076900
H251	H25	0.394500	0.716300	0.080400
C301	C30	0.382400	0.499600	0.097100
C311	C31	0.382800	0.342100	0.090200
H261	H26	0.372300	0.271000	0.102400
C321	C32	0.398900	0.284400	0.064600
H271	H27	0.399900	0.175300	0.060700
C331	C33	0.366200	0.563300	0.125400
H281	H28	0.379000	0.803300	0.121400
Zn21	Zn2	0.330750	0.532670	0.177020
O101	O10	0.092340	0.697000	0.022140
O111	O11	0.913620	0.546500	0.878310
O121	O12	0.927300	0.820900	0.020480
O131	O13	0.262700	0.376300	0.132570
O141	O14	0.278620	0.632000	0.144700
O151	O15	0.846480	0.137500	0.717110
O161	O16	0.822100	0.011900	0.750300
O171	O17	0.855520	0.959700	0.142700
O181	O18	0.863600	0.218300	0.127700
C341	C34	0.001610	0.653700	0.943360
C351	C35	0.962960	0.719700	0.921910
C361	C36	0.944500	0.805500	0.941640
C371	C37	0.965580	0.827000	0.983780
C381	C38	0.003020	0.753800	0.005740
C391	C39	0.020610	0.662200	0.984850
C401	C40	0.022600	0.576800	0.920500
H291	H29	0.005000	0.580500	0.891900
H301	H30	0.029000	0.467900	0.929000
H311	H31	0.047200	0.633600	0.926300
C411	C41	0.902030	0.869800	0.918490
H321	H32	0.892000	0.845300	0.890200
H331	H33	0.902300	0.983200	0.922000
H341	H34	0.884800	0.821700	0.928600
C421	C42	0.024520	0.769600	0.051390
H351	H35	0.049700	0.713000	0.061800
H361	H36	0.007900	0.725700	0.062700
H371	H37	0.029600	0.880100	0.058600
C431	C43	0.060140	0.576900	0.009130
H381	H38	0.059900	0.525300	0.032500
H391	H39	0.064400	0.496300	0.992600
C441	C44	0.130610	0.643800	0.047210
C451	C45	0.159910	0.762900	0.062880
H401	H40	0.152900	0.869100	0.056300
C461	C46	0.199530	0.720900	0.088390
H411	H41	0.219300	0.799600	0.098500
C471	C47	0.210070	0.564000	0.099050
C481	C48	0.180690	0.447000	0.081660
H421	H42	0.187900	0.340600	0.087800
C491	C49	0.141670	0.484600	0.055890
H431	H43	0.122500	0.404500	0.044200
C501	C50	0.253480	0.514900	0.127490
C511	C51	0.938830	0.676800	0.877800
H441	H44	0.956500	0.643900	0.866100
H451	H45	0.922500	0.766100	0.862400
C521	C52	0.896470	0.449000	0.844620
C531	C53	0.875900	0.317400	0.849300
H461	H46	0.873200	0.303000	0.872900
C541	C54	0.859800	0.210600	0.818200
H471	H47	0.847600	0.119000	0.821600
C551	C55	0.861190	0.233600	0.782230
C561	C56	0.880100	0.364600	0.777650
H481	H48	0.881300	0.380900	0.753300
C571	C57	0.897600	0.474100	0.808500
H491	H49	0.910200	0.564400	0.804800
C581	C58	0.843700	0.114300	0.747800
C591	C59	0.947990	0.925100	0.005340
H501	H50	0.969300	0.982000	0.027600
H511	H51	0.929200	0.002400	0.986900
C601	C60	0.913230	0.890500	0.045110
C611	C61	0.912330	0.052400	0.051690
H521	H52	0.922500	0.124100	0.039300
C621	C62	0.896200	0.107300	0.076900
H531	H53	0.894500	0.216300	0.080400
C631	C63	0.882400	0.999600	0.097100
C641	C64	0.882800	0.842100	0.090200
H541	H54	0.872300	0.771000	0.102400
C651	C65	0.898900	0.784400	0.064600
H551	H55	0.899900	0.675300	0.060700
C661	C66	0.866200	0.063300	0.125400
H561	H56	0.879000	0.303300	0.121400
Zn31	Zn3	0.830750	0.967330	0.677020
O191	O19	0.592340	0.803000	0.522140
O201	O20	0.413620	0.953500	0.378310
O211	O21	0.427300	0.679100	0.520480
O221	O22	0.762700	0.123700	0.632570
O231	O23	0.778620	0.868000	0.644700
O241	O24	0.346480	0.362500	0.217110
O251	O25	0.322100	0.488100	0.250300
O261	O26	0.355520	0.540300	0.642700
O271	O27	0.363600	0.281700	0.627700
C671	C67	0.501610	0.846300	0.443360
C681	C68	0.462960	0.780300	0.421910
C691	C69	0.444500	0.694500	0.441640
C701	C70	0.465580	0.673000	0.483780
C711	C71	0.503020	0.746200	0.505740
C721	C72	0.520610	0.837800	0.484850
C731	C73	0.522600	0.923200	0.420500
H571	H57	0.505000	0.919500	0.391900
H581	H58	0.529000	0.032100	0.429000
H591	H59	0.547200	0.866400	0.426300
C741	C74	0.402030	0.630200	0.418490
H601	H60	0.392000	0.654700	0.390200
H611	H61	0.402300	0.516800	0.422000
H621	H62	0.384800	0.678300	0.428600
C751	C75	0.524520	0.730400	0.551390
H631	H63	0.549700	0.787000	0.561800
H641	H64	0.507900	0.774300	0.562700
H651	H65	0.529600	0.619900	0.558600
C761	C76	0.560140	0.923100	0.509130
H661	H66	0.559900	0.974700	0.532500
H671	H67	0.564400	0.003700	0.492600
C771	C77	0.630610	0.856200	0.547210
C781	C78	0.659910	0.737100	0.562880
H681	H68	0.652900	0.630900	0.556300
C791	C79	0.699530	0.779100	0.588390
H691	H69	0.719300	0.700400	0.598500
C801	C80	0.710070	0.936000	0.599050
C811	C81	0.680690	0.053000	0.581660
H701	H70	0.687900	0.159400	0.587800
C821	C82	0.641670	0.015400	0.555890
H711	H71	0.622500	0.095500	0.544200
C831	C83	0.753480	0.985100	0.627490
C841	C84	0.438830	0.823200	0.377800
H721	H72	0.456500	0.856100	0.366100
H731	H73	0.422500	0.733900	0.362400
C851	C85	0.396470	0.051000	0.344620
C861	C86	0.375900	0.182600	0.349300
H741	H74	0.373200	0.197000	0.372900
C871	C87	0.359800	0.289400	0.318200
H751	H75	0.347600	0.381000	0.321600
C881	C88	0.361190	0.266400	0.282230
C891	C89	0.380100	0.135400	0.277650
H761	H76	0.381300	0.119100	0.253300
C901	C90	0.397600	0.025900	0.308500
H771	H77	0.410200	0.935600	0.304800
C911	C91	0.343700	0.385700	0.247800
C921	C92	0.447990	0.574900	0.505340
H781	H78	0.469300	0.518000	0.527600
H791	H79	0.429200	0.497600	0.486900
C931	C93	0.413230	0.609500	0.545110
C941	C94	0.412330	0.447600	0.551690
H801	H80	0.422500	0.375900	0.539300
C951	C95	0.396200	0.392700	0.576900
H811	H81	0.394500	0.283700	0.580400
C961	C96	0.382400	0.500400	0.597100
C971	C97	0.382800	0.657900	0.590200
H821	H82	0.372300	0.729000	0.602400
C981	C98	0.398900	0.715600	0.564600
H831	H83	0.399900	0.824700	0.560700
C991	C99	0.366200	0.436700	0.625400
H841	H84	0.379000	0.196700	0.621400
Zn41	Zn4	0.330750	0.467330	0.677020
O281	O28	0.092340	0.303000	0.522140
O291	O29	0.913620	0.453500	0.378310
O301	O30	0.927300	0.179100	0.520480
O311	O31	0.262700	0.623700	0.632570
O321	O32	0.278620	0.368000	0.644700
O331	O33	0.846480	0.862500	0.217110
O341	O34	0.822100	0.988100	0.250300
O351	O35	0.855520	0.040300	0.642700
O361	O36	0.863600	0.781700	0.627700
C1001	C100	0.001610	0.346300	0.443360
C1011	C101	0.962960	0.280300	0.421910
C1021	C102	0.944500	0.194500	0.441640
C1031	C103	0.965580	0.173000	0.483780
C1041	C104	0.003020	0.246200	0.505740
C1051	C105	0.020610	0.337800	0.484850
C1061	C106	0.022600	0.423200	0.420500
H851	H85	0.005000	0.419500	0.391900
H861	H86	0.029000	0.532100	0.429000
H871	H87	0.047200	0.366400	0.426300
C1071	C107	0.902030	0.130200	0.418490
H881	H88	0.892000	0.154700	0.390200
H891	H89	0.902300	0.016800	0.422000
H901	H90	0.884800	0.178300	0.428600
C1081	C108	0.024520	0.230400	0.551390
H911	H91	0.049700	0.287000	0.561800
H921	H92	0.007900	0.274300	0.562700
H931	H93	0.029600	0.119900	0.558600
C1091	C109	0.060140	0.423100	0.509130
H941	H94	0.059900	0.474700	0.532500
H951	H95	0.064400	0.503700	0.492600
C1101	C110	0.130610	0.356200	0.547210
C1111	C111	0.159910	0.237100	0.562880
H961	H96	0.152900	0.130900	0.556300
C1121	C112	0.199530	0.279100	0.588390
H971	H97	0.219300	0.200400	0.598500
C1131	C113	0.210070	0.436000	0.599050
C1141	C114	0.180690	0.553000	0.581660
H981	H98	0.187900	0.659400	0.587800
C1151	C115	0.141670	0.515400	0.555890
H991	H99	0.122500	0.595500	0.544200
C1161	C116	0.253480	0.485100	0.627490
C1171	C117	0.938830	0.323200	0.377800
H1001	H100	0.956500	0.356100	0.366100
H1011	H101	0.922500	0.233900	0.362400
C1181	C118	0.896470	0.551000	0.344620
C1191	C119	0.875900	0.682600	0.349300
H1021	H102	0.873200	0.697000	0.372900
C1201	C120	0.859800	0.789400	0.318200
H1031	H103	0.847600	0.881000	0.321600
C1211	C121	0.861190	0.766400	0.282230
C1221	C122	0.880100	0.635400	0.277650
H1041	H104	0.881300	0.619100	0.253300
C1231	C123	0.897600	0.525900	0.308500
H1051	H105	0.910200	0.435600	0.304800
C1241	C124	0.843700	0.885700	0.247800
C1251	C125	0.947990	0.074900	0.505340
H1061	H106	0.969300	0.018000	0.527600
H1071	H107	0.929200	0.997600	0.486900
C1261	C126	0.913230	0.109500	0.545110
C1271	C127	0.912330	0.947600	0.551690
H1081	H108	0.922500	0.875900	0.539300
C1281	C128	0.896200	0.892700	0.576900
H1091	H109	0.894500	0.783700	0.580400
C1291	C129	0.882400	0.000400	0.597100
C1301	C130	0.882800	0.157900	0.590200
H1101	H110	0.872300	0.229000	0.602400
C1311	C131	0.898900	0.215600	0.564600
H1111	H111	0.899900	0.324700	0.560700
C1321	C132	0.866200	0.936700	0.625400
H1121	H112	0.879000	0.696700	0.621400
Zn51	Zn5	0.169250	0.032670	0.322980
O371	O37	0.407660	0.197000	0.477860
O381	O38	0.586380	0.046500	0.621690
O391	O39	0.572700	0.320900	0.479520
O401	O40	0.237300	0.876300	0.367430
O411	O41	0.221380	0.132000	0.355300
O421	O42	0.653520	0.637500	0.782890
O431	O43	0.677900	0.511900	0.749700
O441	O44	0.644480	0.459700	0.357300
O451	O45	0.636400	0.718300	0.372300
C1331	C133	0.498390	0.153700	0.556640
C1341	C134	0.537040	0.219700	0.578090
C1351	C135	0.555500	0.305500	0.558360
C1361	C136	0.534420	0.327000	0.516220
C1371	C137	0.496980	0.253800	0.494260
C1381	C138	0.479390	0.162200	0.515150
C1391	C139	0.477400	0.076800	0.579500
H1131	H113	0.495000	0.080500	0.608100
H1141	H114	0.471000	0.967900	0.571000
H1151	H115	0.452800	0.133600	0.573700
C1401	C140	0.597970	0.369800	0.581510
H1161	H116	0.608000	0.345300	0.609800
H1171	H117	0.597700	0.483200	0.578000
H1181	H118	0.615200	0.321700	0.571400
C1411	C141	0.475480	0.269600	0.448610
H1191	H119	0.450300	0.213000	0.438200
H1201	H120	0.492100	0.225700	0.437300
H1211	H121	0.470400	0.380100	0.441400
C1421	C142	0.439860	0.076900	0.490870
H1221	H122	0.440100	0.025300	0.467500
H1231	H123	0.435600	0.996300	0.507400
C1431	C143	0.369390	0.143800	0.452790
C1441	C144	0.340090	0.262900	0.437120
H1241	H124	0.347100	0.369100	0.443700
C1451	C145	0.300470	0.220900	0.411610
H1251	H125	0.280700	0.299600	0.401500
C1461	C146	0.289930	0.064000	0.400950
C1471	C147	0.319310	0.947000	0.418340
H1261	H126	0.312100	0.840600	0.412200
C1481	C148	0.358330	0.984600	0.444110
H1271	H127	0.377500	0.904500	0.455800
C1491	C149	0.246520	0.014900	0.372510
C1501	C150	0.561170	0.176800	0.622200
H1281	H128	0.543500	0.143900	0.633900
H1291	H129	0.577500	0.266100	0.637600
C1511	C151	0.603530	0.949000	0.655380
C1521	C152	0.624100	0.817400	0.650700
H1301	H130	0.626800	0.803000	0.627100
C1531	C153	0.640200	0.710600	0.681800
H1311	H131	0.652400	0.619000	0.678400
C1541	C154	0.638810	0.733600	0.717770
C1551	C155	0.619900	0.864600	0.722350
H1321	H132	0.618700	0.880900	0.746700
C1561	C156	0.602400	0.974100	0.691500
H1331	H133	0.589800	0.064400	0.695200
C1571	C157	0.656300	0.614300	0.752200
C1581	C158	0.552010	0.425100	0.494660
H1341	H134	0.530700	0.482000	0.472400
H1351	H135	0.570800	0.502400	0.513100
C1591	C159	0.586770	0.390500	0.454890
C1601	C160	0.587670	0.552400	0.448310
H1361	H136	0.577500	0.624100	0.460700
C1611	C161	0.603800	0.607300	0.423100
H1371	H137	0.605500	0.716300	0.419600
C1621	C162	0.617600	0.499600	0.402900
C1631	C163	0.617200	0.342100	0.409800
H1381	H138	0.627700	0.271000	0.397600
C1641	C164	0.601100	0.284400	0.435400
H1391	H139	0.600100	0.175300	0.439300
C1651	C165	0.633800	0.563300	0.374600
H1401	H140	0.621000	0.803300	0.378600
Zn61	Zn6	0.669250	0.532670	0.322980
O461	O46	0.907660	0.697000	0.477860
O471	O47	0.086380	0.546500	0.621690
O481	O48	0.072700	0.820900	0.479520
O491	O49	0.737300	0.376300	0.367430
O501	O50	0.721380	0.632000	0.355300
O511	O51	0.153520	0.137500	0.782890
O521	O52	0.177900	0.011900	0.749700
O531	O53	0.144480	0.959700	0.357300
O541	O54	0.136400	0.218300	0.372300
C1661	C166	0.998390	0.653700	0.556640
C1671	C167	0.037040	0.719700	0.578090
C1681	C168	0.055500	0.805500	0.558360
C1691	C169	0.034420	0.827000	0.516220
C1701	C170	0.996980	0.753800	0.494260
C1711	C171	0.979390	0.662200	0.515150
C1721	C172	0.977400	0.576800	0.579500
H1411	H141	0.995000	0.580500	0.608100
H1421	H142	0.971000	0.467900	0.571000
H1431	H143	0.952800	0.633600	0.573700
C1731	C173	0.097970	0.869800	0.581510
H1441	H144	0.108000	0.845300	0.609800
H1451	H145	0.097700	0.983200	0.578000
H1461	H146	0.115200	0.821700	0.571400
C1741	C174	0.975480	0.769600	0.448610
H1471	H147	0.950300	0.713000	0.438200
H1481	H148	0.992100	0.725700	0.437300
H1491	H149	0.970400	0.880100	0.441400
C1751	C175	0.939860	0.576900	0.490870
H1501	H150	0.940100	0.525300	0.467500
H1511	H151	0.935600	0.496300	0.507400
C1761	C176	0.869390	0.643800	0.452790
C1771	C177	0.840090	0.762900	0.437120
H1521	H152	0.847100	0.869100	0.443700
C1781	C178	0.800470	0.720900	0.411610
H1531	H153	0.780700	0.799600	0.401500
C1791	C179	0.789930	0.564000	0.400950
C1801	C180	0.819310	0.447000	0.418340
H1541	H154	0.812100	0.340600	0.412200
C1811	C181	0.858330	0.484600	0.444110
H1551	H155	0.877500	0.404500	0.455800
C1821	C182	0.746520	0.514900	0.372510
C1831	C183	0.061170	0.676800	0.622200
H1561	H156	0.043500	0.643900	0.633900
H1571	H157	0.077500	0.766100	0.637600
C1841	C184	0.103530	0.449000	0.655380
C1851	C185	0.124100	0.317400	0.650700
H1581	H158	0.126800	0.303000	0.627100
C1861	C186	0.140200	0.210600	0.681800
H1591	H159	0.152400	0.119000	0.678400
C1871	C187	0.138810	0.233600	0.717770
C1881	C188	0.119900	0.364600	0.722350
H1601	H160	0.118700	0.380900	0.746700
C1891	C189	0.102400	0.474100	0.691500
H1611	H161	0.089800	0.564400	0.695200
C1901	C190	0.156300	0.114300	0.752200
C1911	C191	0.052010	0.925100	0.494660
H1621	H162	0.030700	0.982000	0.472400
H1631	H163	0.070800	0.002400	0.513100
C1921	C192	0.086770	0.890500	0.454890
C1931	C193	0.087670	0.052400	0.448310
H1641	H164	0.077500	0.124100	0.460700
C1941	C194	0.103800	0.107300	0.423100
H1651	H165	0.105500	0.216300	0.419600
C1951	C195	0.117600	0.999600	0.402900
C1961	C196	0.117200	0.842100	0.409800
H1661	H166	0.127700	0.771000	0.397600
C1971	C197	0.101100	0.784400	0.435400
H1671	H167	0.100100	0.675300	0.439300
C1981	C198	0.133800	0.063300	0.374600
H1681	H168	0.121000	0.303300	0.378600
Zn71	Zn7	0.169250	0.967330	0.822980
O551	O55	0.407660	0.803000	0.977860
O561	O56	0.586380	0.953500	0.121690
O571	O57	0.572700	0.679100	0.979520
O581	O58	0.237300	0.123700	0.867430
O591	O59	0.221380	0.868000	0.855300
O601	O60	0.653520	0.362500	0.282890
O611	O61	0.677900	0.488100	0.249700
O621	O62	0.644480	0.540300	0.857300
O631	O63	0.636400	0.281700	0.872300
C1991	C199	0.498390	0.846300	0.056640
C2001	C200	0.537040	0.780300	0.078090
C2011	C201	0.555500	0.694500	0.058360
C2021	C202	0.534420	0.673000	0.016220
C2031	C203	0.496980	0.746200	0.994260
C2041	C204	0.479390	0.837800	0.015150
C2051	C205	0.477400	0.923200	0.079500
H1691	H169	0.495000	0.919500	0.108100
H1701	H170	0.471000	0.032100	0.071000
H1711	H171	0.452800	0.866400	0.073700
C2061	C206	0.597970	0.630200	0.081510
H1721	H172	0.608000	0.654700	0.109800
H1731	H173	0.597700	0.516800	0.078000
H1741	H174	0.615200	0.678300	0.071400
C2071	C207	0.475480	0.730400	0.948610
H1751	H175	0.450300	0.787000	0.938200
H1761	H176	0.492100	0.774300	0.937300
H1771	H177	0.470400	0.619900	0.941400
C2081	C208	0.439860	0.923100	0.990870
H1781	H178	0.440100	0.974700	0.967500
H1791	H179	0.435600	0.003700	0.007400
C2091	C209	0.369390	0.856200	0.952790
C2101	C210	0.340090	0.737100	0.937120
H1801	H180	0.347100	0.630900	0.943700
C2111	C211	0.300470	0.779100	0.911610
H1811	H181	0.280700	0.700400	0.901500
C2121	C212	0.289930	0.936000	0.900950
C2131	C213	0.319310	0.053000	0.918340
H1821	H182	0.312100	0.159400	0.912200
C2141	C214	0.358330	0.015400	0.944110
H1831	H183	0.377500	0.095500	0.955800
C2151	C215	0.246520	0.985100	0.872510
C2161	C216	0.561170	0.823200	0.122200
H1841	H184	0.543500	0.856100	0.133900
H1851	H185	0.577500	0.733900	0.137600
C2171	C217	0.603530	0.051000	0.155380
C2181	C218	0.624100	0.182600	0.150700
H1861	H186	0.626800	0.197000	0.127100
C2191	C219	0.640200	0.289400	0.181800
H1871	H187	0.652400	0.381000	0.178400
C2201	C220	0.638810	0.266400	0.217770
C2211	C221	0.619900	0.135400	0.222350
H1881	H188	0.618700	0.119100	0.246700
C2221	C222	0.602400	0.025900	0.191500
H1891	H189	0.589800	0.935600	0.195200
C2231	C223	0.656300	0.385700	0.252200
C2241	C224	0.552010	0.574900	0.994660
H1901	H190	0.530700	0.518000	0.972400
H1911	H191	0.570800	0.497600	0.013100
C2251	C225	0.586770	0.609500	0.954890
C2261	C226	0.587670	0.447600	0.948310
H1921	H192	0.577500	0.375900	0.960700
C2271	C227	0.603800	0.392700	0.923100
H1931	H193	0.605500	0.283700	0.919600
C2281	C228	0.617600	0.500400	0.902900
C2291	C229	0.617200	0.657900	0.909800
H1941	H194	0.627700	0.729000	0.897600
C2301	C230	0.601100	0.715600	0.935400
H1951	H195	0.600100	0.824700	0.939300
C2311	C231	0.633800	0.436700	0.874600
H1961	H196	0.621000	0.196700	0.878600
Zn81	Zn8	0.669250	0.467330	0.822980
O641	O64	0.907660	0.303000	0.977860
O651	O65	0.086380	0.453500	0.121690
O661	O66	0.072700	0.179100	0.979520
O671	O67	0.737300	0.623700	0.867430
O681	O68	0.721380	0.368000	0.855300
O691	O69	0.153520	0.862500	0.282890
O701	O70	0.177900	0.988100	0.249700
O711	O71	0.144480	0.040300	0.857300
O721	O72	0.136400	0.781700	0.872300
C2321	C232	0.998390	0.346300	0.056640
C2331	C233	0.037040	0.280300	0.078090
C2341	C234	0.055500	0.194500	0.058360
C2351	C235	0.034420	0.173000	0.016220
C2361	C236	0.996980	0.246200	0.994260
C2371	C237	0.979390	0.337800	0.015150
C2381	C238	0.977400	0.423200	0.079500
H1971	H197	0.995000	0.419500	0.108100
H1981	H198	0.971000	0.532100	0.071000
H1991	H199	0.952800	0.366400	0.073700
C2391	C239	0.097970	0.130200	0.081510
H2001	H200	0.108000	0.154700	0.109800
H2011	H201	0.097700	0.016800	0.078000
H2021	H202	0.115200	0.178300	0.071400
C2401	C240	0.975480	0.230400	0.948610
H2031	H203	0.950300	0.287000	0.938200
H2041	H204	0.992100	0.274300	0.937300
H2051	H205	0.970400	0.119900	0.941400
C2411	C241	0.939860	0.423100	0.990870
H2061	H206	0.940100	0.474700	0.967500
H2071	H207	0.935600	0.503700	0.007400
C2421	C242	0.869390	0.356200	0.952790
C2431	C243	0.840090	0.237100	0.937120
H2081	H208	0.847100	0.130900	0.943700
C2441	C244	0.800470	0.279100	0.911610
H2091	H209	0.780700	0.200400	0.901500
C2451	C245	0.789930	0.436000	0.900950
C2461	C246	0.819310	0.553000	0.918340
H2101	H210	0.812100	0.659400	0.912200
C2471	C247	0.858330	0.515400	0.944110
H2111	H211	0.877500	0.595500	0.955800
C2481	C248	0.746520	0.485100	0.872510
C2491	C249	0.061170	0.323200	0.122200
H2121	H212	0.043500	0.356100	0.133900
H2131	H213	0.077500	0.233900	0.137600
C2501	C250	0.103530	0.551000	0.155380
C2511	C251	0.124100	0.682600	0.150700
H2141	H214	0.126800	0.697000	0.127100
C2521	C252	0.140200	0.789400	0.181800
H2151	H215	0.152400	0.881000	0.178400
C2531	C253	0.138810	0.766400	0.217770
C2541	C254	0.119900	0.635400	0.222350
H2161	H216	0.118700	0.619100	0.246700
C2551	C255	0.102400	0.525900	0.191500
H2171	H217	0.089800	0.435600	0.195200
C2561	C256	0.156300	0.885700	0.252200
C2571	C257	0.052010	0.074900	0.994660
H2181	H218	0.030700	0.018000	0.972400
H2191	H219	0.070800	0.997600	0.013100
C2581	C258	0.086770	0.109500	0.954890
C2591	C259	0.087670	0.947600	0.948310
H2201	H220	0.077500	0.875900	0.960700
C2601	C260	0.103800	0.892700	0.923100
H2211	H221	0.105500	0.783700	0.919600
C2611	C261	0.117600	0.000400	0.902900
C2621	C262	0.117200	0.157900	0.909800
H2221	H222	0.127700	0.229000	0.897600
C2631	C263	0.101100	0.215600	0.935400
H2231	H223	0.100100	0.324700	0.939300
C2641	C264	0.133800	0.936700	0.874600
H2241	H224	0.121000	0.696700	0.878600
