data_FOJPEB_clean_PM
_symmetry_space_group_name_H-M	'P1'
_cell_length_a	13.529000
_cell_length_b	32.896000
_cell_length_c	39.785000
_cell_angle_alpha	90.000000
_cell_angle_beta	90.000000
_cell_angle_gamma	90.000000
_symmetry_Int_Tables_number 1

loop_
_symmetry_equiv_pos_as_xyz
'x,y,z'

loop_
_atom_site_label
_atom_site_type_symbol
_atom_site_fract_x
_atom_site_fract_y
_atom_site_fract_z
Cd11	Cd1	0.009070	0.694500	0.260540
N11	N1	0.234900	0.699120	0.286520
N21	N2	0.011700	0.667650	0.206710
O11	O1	0.097900	0.755180	0.254210
O21	O2	0.203100	0.803140	0.263960
O31	O3	0.176300	0.679840	0.265540
O41	O4	0.305000	0.614070	0.278430
O51	O5	0.240200	0.543390	0.316630
C11	C1	0.177200	0.768300	0.266670
C21	C2	0.241900	0.740700	0.287550
C31	C3	0.309500	0.758800	0.309000
H11	H1	0.315800	0.786900	0.309000
C41	C4	0.367500	0.735900	0.330100
H21	H2	0.412000	0.748200	0.344800
C51	C5	0.357600	0.694200	0.328900
H31	H3	0.396900	0.678300	0.342800
C61	C6	0.291800	0.675600	0.307880
C71	C7	0.279900	0.630500	0.306230
C81	C8	0.250300	0.611700	0.335280
H41	H4	0.239300	0.628200	0.353900
C91	C9	0.234800	0.569600	0.339650
C101	C10	0.210400	0.553700	0.373550
C111	C11	0.245700	0.572600	0.402200
H51	H5	0.281000	0.596700	0.400300
C121	C12	0.018000	0.691000	0.179490
H61	H6	0.024500	0.719000	0.182300
C131	C13	0.015100	0.675400	0.147160
H71	H7	0.021800	0.692700	0.128800
C141	C14	0.002200	0.634000	0.142150
C151	C15	0.994500	0.610100	0.171000
H81	H8	0.985500	0.582200	0.169100
C161	C16	0.000100	0.627700	0.202340
H91	H9	0.995700	0.611100	0.221200
C171	C17	0.171100	0.522400	0.436900
H101	H10	0.156700	0.512600	0.458300
C181	C18	0.153400	0.518700	0.376400
H111	H11	0.128800	0.506200	0.357200
C191	C19	0.132900	0.502300	0.408300
H121	H12	0.095100	0.478800	0.410500
C201	C20	0.229500	0.556200	0.433300
H131	H13	0.258200	0.568000	0.452100
Cd21	Cd2	0.009070	0.194500	0.760540
N31	N3	0.234900	0.199120	0.786520
N41	N4	0.011700	0.167650	0.706710
O61	O6	0.097900	0.255180	0.754210
O71	O7	0.203100	0.303140	0.763960
O81	O8	0.176300	0.179840	0.765540
O91	O9	0.305000	0.114070	0.778430
O101	O10	0.240200	0.043390	0.816630
C211	C21	0.177200	0.268300	0.766670
C221	C22	0.241900	0.240700	0.787550
C231	C23	0.309500	0.258800	0.809000
H141	H14	0.315800	0.286900	0.809000
C241	C24	0.367500	0.235900	0.830100
H151	H15	0.412000	0.248200	0.844800
C251	C25	0.357600	0.194200	0.828900
H161	H16	0.396900	0.178300	0.842800
C261	C26	0.291800	0.175600	0.807880
C271	C27	0.279900	0.130500	0.806230
C281	C28	0.250300	0.111700	0.835280
H171	H17	0.239300	0.128200	0.853900
C291	C29	0.234800	0.069600	0.839650
C301	C30	0.210400	0.053700	0.873550
C311	C31	0.245700	0.072600	0.902200
H181	H18	0.281000	0.096700	0.900300
C321	C32	0.018000	0.191000	0.679490
H191	H19	0.024500	0.219000	0.682300
C331	C33	0.015100	0.175400	0.647160
H201	H20	0.021800	0.192700	0.628800
C341	C34	0.002200	0.134000	0.642150
C351	C35	0.994500	0.110100	0.671000
H211	H21	0.985500	0.082200	0.669100
C361	C36	0.000100	0.127700	0.702340
H221	H22	0.995700	0.111100	0.721200
C371	C37	0.171100	0.022400	0.936900
H231	H23	0.156700	0.012600	0.958300
C381	C38	0.153400	0.018700	0.876400
H241	H24	0.128800	0.006200	0.857200
C391	C39	0.132900	0.002300	0.908300
H251	H25	0.095100	0.978800	0.910500
C401	C40	0.229500	0.056200	0.933300
H261	H26	0.258200	0.068000	0.952100
Cd31	Cd3	0.509070	0.694500	0.760540
N51	N5	0.734900	0.699120	0.786520
N61	N6	0.511700	0.667650	0.706710
O111	O11	0.597900	0.755180	0.754210
O121	O12	0.703100	0.803140	0.763960
O131	O13	0.676300	0.679840	0.765540
O141	O14	0.805000	0.614070	0.778430
O151	O15	0.740200	0.543390	0.816630
C411	C41	0.677200	0.768300	0.766670
C421	C42	0.741900	0.740700	0.787550
C431	C43	0.809500	0.758800	0.809000
H271	H27	0.815800	0.786900	0.809000
C441	C44	0.867500	0.735900	0.830100
H281	H28	0.912000	0.748200	0.844800
C451	C45	0.857600	0.694200	0.828900
H291	H29	0.896900	0.678300	0.842800
C461	C46	0.791800	0.675600	0.807880
C471	C47	0.779900	0.630500	0.806230
C481	C48	0.750300	0.611700	0.835280
H301	H30	0.739300	0.628200	0.853900
C491	C49	0.734800	0.569600	0.839650
C501	C50	0.710400	0.553700	0.873550
C511	C51	0.745700	0.572600	0.902200
H311	H31	0.781000	0.596700	0.900300
C521	C52	0.518000	0.691000	0.679490
H321	H32	0.524500	0.719000	0.682300
C531	C53	0.515100	0.675400	0.647160
H331	H33	0.521800	0.692700	0.628800
C541	C54	0.502200	0.634000	0.642150
C551	C55	0.494500	0.610100	0.671000
H341	H34	0.485500	0.582200	0.669100
C561	C56	0.500100	0.627700	0.702340
H351	H35	0.495700	0.611100	0.721200
C571	C57	0.671100	0.522400	0.936900
H361	H36	0.656700	0.512600	0.958300
C581	C58	0.653400	0.518700	0.876400
H371	H37	0.628800	0.506200	0.857200
C591	C59	0.632900	0.502300	0.908300
H381	H38	0.595100	0.478800	0.910500
C601	C60	0.729500	0.556200	0.933300
H391	H39	0.758200	0.568000	0.952100
Cd41	Cd4	0.509070	0.194500	0.260540
N71	N7	0.734900	0.199120	0.286520
N81	N8	0.511700	0.167650	0.206710
O161	O16	0.597900	0.255180	0.254210
O171	O17	0.703100	0.303140	0.263960
O181	O18	0.676300	0.179840	0.265540
O191	O19	0.805000	0.114070	0.278430
O201	O20	0.740200	0.043390	0.316630
C611	C61	0.677200	0.268300	0.266670
C621	C62	0.741900	0.240700	0.287550
C631	C63	0.809500	0.258800	0.309000
H401	H40	0.815800	0.286900	0.309000
C641	C64	0.867500	0.235900	0.330100
H411	H41	0.912000	0.248200	0.344800
C651	C65	0.857600	0.194200	0.328900
H421	H42	0.896900	0.178300	0.342800
C661	C66	0.791800	0.175600	0.307880
C671	C67	0.779900	0.130500	0.306230
C681	C68	0.750300	0.111700	0.335280
H431	H43	0.739300	0.128200	0.353900
C691	C69	0.734800	0.069600	0.339650
C701	C70	0.710400	0.053700	0.373550
C711	C71	0.745700	0.072600	0.402200
H441	H44	0.781000	0.096700	0.400300
C721	C72	0.518000	0.191000	0.179490
H451	H45	0.524500	0.219000	0.182300
C731	C73	0.515100	0.175400	0.147160
H461	H46	0.521800	0.192700	0.128800
C741	C74	0.502200	0.134000	0.142150
C751	C75	0.494500	0.110100	0.171000
H471	H47	0.485500	0.082200	0.169100
C761	C76	0.500100	0.127700	0.202340
H481	H48	0.495700	0.111100	0.221200
C771	C77	0.671100	0.022400	0.436900
H491	H49	0.656700	0.012600	0.458300
C781	C78	0.653400	0.018700	0.376400
H501	H50	0.628800	0.006200	0.357200
C791	C79	0.632900	0.002300	0.408300
H511	H51	0.595100	0.978800	0.410500
C801	C80	0.729500	0.056200	0.433300
H521	H52	0.758200	0.068000	0.452100
Cd51	Cd5	0.740930	0.055500	0.260540
N91	N9	0.515100	0.050880	0.286520
N101	N10	0.738300	0.082350	0.206710
O211	O21	0.652100	0.994820	0.254210
O221	O22	0.546900	0.946860	0.263960
O231	O23	0.573700	0.070160	0.265540
O241	O24	0.445000	0.135930	0.278430
O251	O25	0.509800	0.206610	0.316630
C811	C81	0.572800	0.981700	0.266670
C821	C82	0.508100	0.009300	0.287550
C831	C83	0.440500	0.991200	0.309000
H531	H53	0.434200	0.963100	0.309000
C841	C84	0.382500	0.014100	0.330100
H541	H54	0.338000	0.001800	0.344800
C851	C85	0.392400	0.055800	0.328900
H551	H55	0.353100	0.071700	0.342800
C861	C86	0.458200	0.074400	0.307880
C871	C87	0.470100	0.119500	0.306230
C881	C88	0.499700	0.138300	0.335280
H561	H56	0.510700	0.121800	0.353900
C891	C89	0.515200	0.180400	0.339650
C901	C90	0.539600	0.196300	0.373550
C911	C91	0.504300	0.177400	0.402200
H571	H57	0.469000	0.153300	0.400300
C921	C92	0.732000	0.059000	0.179490
H581	H58	0.725500	0.031000	0.182300
C931	C93	0.734900	0.074600	0.147160
H591	H59	0.728200	0.057300	0.128800
C941	C94	0.747800	0.116000	0.142150
C951	C95	0.755500	0.139900	0.171000
H601	H60	0.764500	0.167800	0.169100
C961	C96	0.749900	0.122300	0.202340
H611	H61	0.754300	0.138900	0.221200
C971	C97	0.578900	0.227600	0.436900
H621	H62	0.593300	0.237400	0.458300
C981	C98	0.596600	0.231300	0.376400
H631	H63	0.621200	0.243800	0.357200
C991	C99	0.617100	0.247700	0.408300
H641	H64	0.654900	0.271200	0.410500
C1001	C100	0.520500	0.193800	0.433300
H651	H65	0.491800	0.182000	0.452100
Cd61	Cd6	0.740930	0.555500	0.760540
N111	N11	0.515100	0.550880	0.786520
N121	N12	0.738300	0.582350	0.706710
O261	O26	0.652100	0.494820	0.754210
O271	O27	0.546900	0.446860	0.763960
O281	O28	0.573700	0.570160	0.765540
O291	O29	0.445000	0.635930	0.778430
O301	O30	0.509800	0.706610	0.816630
C1011	C101	0.572800	0.481700	0.766670
C1021	C102	0.508100	0.509300	0.787550
C1031	C103	0.440500	0.491200	0.809000
H661	H66	0.434200	0.463100	0.809000
C1041	C104	0.382500	0.514100	0.830100
H671	H67	0.338000	0.501800	0.844800
C1051	C105	0.392400	0.555800	0.828900
H681	H68	0.353100	0.571700	0.842800
C1061	C106	0.458200	0.574400	0.807880
C1071	C107	0.470100	0.619500	0.806230
C1081	C108	0.499700	0.638300	0.835280
H691	H69	0.510700	0.621800	0.853900
C1091	C109	0.515200	0.680400	0.839650
C1101	C110	0.539600	0.696300	0.873550
C1111	C111	0.504300	0.677400	0.902200
H701	H70	0.469000	0.653300	0.900300
C1121	C112	0.732000	0.559000	0.679490
H711	H71	0.725500	0.531000	0.682300
C1131	C113	0.734900	0.574600	0.647160
H721	H72	0.728200	0.557300	0.628800
C1141	C114	0.747800	0.616000	0.642150
C1151	C115	0.755500	0.639900	0.671000
H731	H73	0.764500	0.667800	0.669100
C1161	C116	0.749900	0.622300	0.702340
H741	H74	0.754300	0.638900	0.721200
C1171	C117	0.578900	0.727600	0.936900
H751	H75	0.593300	0.737400	0.958300
C1181	C118	0.596600	0.731300	0.876400
H761	H76	0.621200	0.743800	0.857200
C1191	C119	0.617100	0.747700	0.908300
H771	H77	0.654900	0.771200	0.910500
C1201	C120	0.520500	0.693800	0.933300
H781	H78	0.491800	0.682000	0.952100
Cd71	Cd7	0.240930	0.055500	0.760540
N131	N13	0.015100	0.050880	0.786520
N141	N14	0.238300	0.082350	0.706710
O311	O31	0.152100	0.994820	0.754210
O321	O32	0.046900	0.946860	0.763960
O331	O33	0.073700	0.070160	0.765540
O341	O34	0.945000	0.135930	0.778430
O351	O35	0.009800	0.206610	0.816630
C1211	C121	0.072800	0.981700	0.766670
C1221	C122	0.008100	0.009300	0.787550
C1231	C123	0.940500	0.991200	0.809000
H791	H79	0.934200	0.963100	0.809000
C1241	C124	0.882500	0.014100	0.830100
H801	H80	0.838000	0.001800	0.844800
C1251	C125	0.892400	0.055800	0.828900
H811	H81	0.853100	0.071700	0.842800
C1261	C126	0.958200	0.074400	0.807880
C1271	C127	0.970100	0.119500	0.806230
C1281	C128	0.999700	0.138300	0.835280
H821	H82	0.010700	0.121800	0.853900
C1291	C129	0.015200	0.180400	0.839650
C1301	C130	0.039600	0.196300	0.873550
C1311	C131	0.004300	0.177400	0.902200
H831	H83	0.969000	0.153300	0.900300
C1321	C132	0.232000	0.059000	0.679490
H841	H84	0.225500	0.031000	0.682300
C1331	C133	0.234900	0.074600	0.647160
H851	H85	0.228200	0.057300	0.628800
C1341	C134	0.247800	0.116000	0.642150
C1351	C135	0.255500	0.139900	0.671000
H861	H86	0.264500	0.167800	0.669100
C1361	C136	0.249900	0.122300	0.702340
H871	H87	0.254300	0.138900	0.721200
C1371	C137	0.078900	0.227600	0.936900
H881	H88	0.093300	0.237400	0.958300
C1381	C138	0.096600	0.231300	0.876400
H891	H89	0.121200	0.243800	0.857200
C1391	C139	0.117100	0.247700	0.908300
H901	H90	0.154900	0.271200	0.910500
C1401	C140	0.020500	0.193800	0.933300
H911	H91	0.991800	0.182000	0.952100
Cd81	Cd8	0.240930	0.555500	0.260540
N151	N15	0.015100	0.550880	0.286520
N161	N16	0.238300	0.582350	0.206710
O361	O36	0.152100	0.494820	0.254210
O371	O37	0.046900	0.446860	0.263960
O381	O38	0.073700	0.570160	0.265540
O391	O39	0.945000	0.635930	0.278430
O401	O40	0.009800	0.706610	0.316630
C1411	C141	0.072800	0.481700	0.266670
C1421	C142	0.008100	0.509300	0.287550
C1431	C143	0.940500	0.491200	0.309000
H921	H92	0.934200	0.463100	0.309000
C1441	C144	0.882500	0.514100	0.330100
H931	H93	0.838000	0.501800	0.344800
C1451	C145	0.892400	0.555800	0.328900
H941	H94	0.853100	0.571700	0.342800
C1461	C146	0.958200	0.574400	0.307880
C1471	C147	0.970100	0.619500	0.306230
C1481	C148	0.999700	0.638300	0.335280
H951	H95	0.010700	0.621800	0.353900
C1491	C149	0.015200	0.680400	0.339650
C1501	C150	0.039600	0.696300	0.373550
C1511	C151	0.004300	0.677400	0.402200
H961	H96	0.969000	0.653300	0.400300
C1521	C152	0.232000	0.559000	0.179490
H971	H97	0.225500	0.531000	0.182300
C1531	C153	0.234900	0.574600	0.147160
H981	H98	0.228200	0.557300	0.128800
C1541	C154	0.247800	0.616000	0.142150
C1551	C155	0.255500	0.639900	0.171000
H991	H99	0.264500	0.667800	0.169100
C1561	C156	0.249900	0.622300	0.202340
H1001	H100	0.254300	0.638900	0.221200
C1571	C157	0.078900	0.727600	0.436900
H1011	H101	0.093300	0.737400	0.458300
C1581	C158	0.096600	0.731300	0.376400
H1021	H102	0.121200	0.743800	0.357200
C1591	C159	0.117100	0.747700	0.408300
H1031	H103	0.154900	0.771200	0.410500
C1601	C160	0.020500	0.693800	0.433300
H1041	H104	0.991800	0.682000	0.452100
Cd91	Cd9	0.740930	0.694500	0.489460
N171	N17	0.515100	0.699120	0.463480
N181	N18	0.738300	0.667650	0.543290
O411	O41	0.652100	0.755180	0.495790
O421	O42	0.546900	0.803140	0.486040
O431	O43	0.573700	0.679840	0.484460
O441	O44	0.445000	0.614070	0.471570
O451	O45	0.509800	0.543390	0.433370
C1611	C161	0.572800	0.768300	0.483330
C1621	C162	0.508100	0.740700	0.462450
C1631	C163	0.440500	0.758800	0.441000
H1051	H105	0.434200	0.786900	0.441000
C1641	C164	0.382500	0.735900	0.419900
H1061	H106	0.338000	0.748200	0.405200
C1651	C165	0.392400	0.694200	0.421100
H1071	H107	0.353100	0.678300	0.407200
C1661	C166	0.458200	0.675600	0.442120
C1671	C167	0.470100	0.630500	0.443770
C1681	C168	0.499700	0.611700	0.414720
H1081	H108	0.510700	0.628200	0.396100
C1691	C169	0.515200	0.569600	0.410350
C1701	C170	0.539600	0.553700	0.376450
C1711	C171	0.504300	0.572600	0.347800
H1091	H109	0.469000	0.596700	0.349700
C1721	C172	0.732000	0.691000	0.570510
H1101	H110	0.725500	0.719000	0.567700
C1731	C173	0.734900	0.675400	0.602840
H1111	H111	0.728200	0.692700	0.621200
C1741	C174	0.747800	0.634000	0.607850
C1751	C175	0.755500	0.610100	0.579000
H1121	H112	0.764500	0.582200	0.580900
C1761	C176	0.749900	0.627700	0.547660
H1131	H113	0.754300	0.611100	0.528800
C1771	C177	0.578900	0.522400	0.313100
H1141	H114	0.593300	0.512600	0.291700
C1781	C178	0.596600	0.518700	0.373600
H1151	H115	0.621200	0.506200	0.392800
C1791	C179	0.617100	0.502300	0.341700
H1161	H116	0.654900	0.478800	0.339500
C1801	C180	0.520500	0.556200	0.316700
H1171	H117	0.491800	0.568000	0.297900
Cd101	Cd10	0.740930	0.194500	0.989460
N191	N19	0.515100	0.199120	0.963480
N201	N20	0.738300	0.167650	0.043290
O461	O46	0.652100	0.255180	0.995790
O471	O47	0.546900	0.303140	0.986040
O481	O48	0.573700	0.179840	0.984460
O491	O49	0.445000	0.114070	0.971570
O501	O50	0.509800	0.043390	0.933370
C1811	C181	0.572800	0.268300	0.983330
C1821	C182	0.508100	0.240700	0.962450
C1831	C183	0.440500	0.258800	0.941000
H1181	H118	0.434200	0.286900	0.941000
C1841	C184	0.382500	0.235900	0.919900
H1191	H119	0.338000	0.248200	0.905200
C1851	C185	0.392400	0.194200	0.921100
H1201	H120	0.353100	0.178300	0.907200
C1861	C186	0.458200	0.175600	0.942120
C1871	C187	0.470100	0.130500	0.943770
C1881	C188	0.499700	0.111700	0.914720
H1211	H121	0.510700	0.128200	0.896100
C1891	C189	0.515200	0.069600	0.910350
C1901	C190	0.539600	0.053700	0.876450
C1911	C191	0.504300	0.072600	0.847800
H1221	H122	0.469000	0.096700	0.849700
C1921	C192	0.732000	0.191000	0.070510
H1231	H123	0.725500	0.219000	0.067700
C1931	C193	0.734900	0.175400	0.102840
H1241	H124	0.728200	0.192700	0.121200
C1941	C194	0.747800	0.134000	0.107850
C1951	C195	0.755500	0.110100	0.079000
H1251	H125	0.764500	0.082200	0.080900
C1961	C196	0.749900	0.127700	0.047660
H1261	H126	0.754300	0.111100	0.028800
C1971	C197	0.578900	0.022400	0.813100
H1271	H127	0.593300	0.012600	0.791700
C1981	C198	0.596600	0.018700	0.873600
H1281	H128	0.621200	0.006200	0.892800
C1991	C199	0.617100	0.002300	0.841700
H1291	H129	0.654900	0.978800	0.839500
C2001	C200	0.520500	0.056200	0.816700
H1301	H130	0.491800	0.068000	0.797900
Cd111	Cd11	0.240930	0.694500	0.989460
N211	N21	0.015100	0.699120	0.963480
N221	N22	0.238300	0.667650	0.043290
O511	O51	0.152100	0.755180	0.995790
O521	O52	0.046900	0.803140	0.986040
O531	O53	0.073700	0.679840	0.984460
O541	O54	0.945000	0.614070	0.971570
O551	O55	0.009800	0.543390	0.933370
C2011	C201	0.072800	0.768300	0.983330
C2021	C202	0.008100	0.740700	0.962450
C2031	C203	0.940500	0.758800	0.941000
H1311	H131	0.934200	0.786900	0.941000
C2041	C204	0.882500	0.735900	0.919900
H1321	H132	0.838000	0.748200	0.905200
C2051	C205	0.892400	0.694200	0.921100
H1331	H133	0.853100	0.678300	0.907200
C2061	C206	0.958200	0.675600	0.942120
C2071	C207	0.970100	0.630500	0.943770
C2081	C208	0.999700	0.611700	0.914720
H1341	H134	0.010700	0.628200	0.896100
C2091	C209	0.015200	0.569600	0.910350
C2101	C210	0.039600	0.553700	0.876450
C2111	C211	0.004300	0.572600	0.847800
H1351	H135	0.969000	0.596700	0.849700
C2121	C212	0.232000	0.691000	0.070510
H1361	H136	0.225500	0.719000	0.067700
C2131	C213	0.234900	0.675400	0.102840
H1371	H137	0.228200	0.692700	0.121200
C2141	C214	0.247800	0.634000	0.107850
C2151	C215	0.255500	0.610100	0.079000
H1381	H138	0.264500	0.582200	0.080900
C2161	C216	0.249900	0.627700	0.047660
H1391	H139	0.254300	0.611100	0.028800
C2171	C217	0.078900	0.522400	0.813100
H1401	H140	0.093300	0.512600	0.791700
C2181	C218	0.096600	0.518700	0.873600
H1411	H141	0.121200	0.506200	0.892800
C2191	C219	0.117100	0.502300	0.841700
H1421	H142	0.154900	0.478800	0.839500
C2201	C220	0.020500	0.556200	0.816700
H1431	H143	0.991800	0.568000	0.797900
Cd121	Cd12	0.240930	0.194500	0.489460
N231	N23	0.015100	0.199120	0.463480
N241	N24	0.238300	0.167650	0.543290
O561	O56	0.152100	0.255180	0.495790
O571	O57	0.046900	0.303140	0.486040
O581	O58	0.073700	0.179840	0.484460
O591	O59	0.945000	0.114070	0.471570
O601	O60	0.009800	0.043390	0.433370
C2211	C221	0.072800	0.268300	0.483330
C2221	C222	0.008100	0.240700	0.462450
C2231	C223	0.940500	0.258800	0.441000
H1441	H144	0.934200	0.286900	0.441000
C2241	C224	0.882500	0.235900	0.419900
H1451	H145	0.838000	0.248200	0.405200
C2251	C225	0.892400	0.194200	0.421100
H1461	H146	0.853100	0.178300	0.407200
C2261	C226	0.958200	0.175600	0.442120
C2271	C227	0.970100	0.130500	0.443770
C2281	C228	0.999700	0.111700	0.414720
H1471	H147	0.010700	0.128200	0.396100
C2291	C229	0.015200	0.069600	0.410350
C2301	C230	0.039600	0.053700	0.376450
C2311	C231	0.004300	0.072600	0.347800
H1481	H148	0.969000	0.096700	0.349700
C2321	C232	0.232000	0.191000	0.570510
H1491	H149	0.225500	0.219000	0.567700
C2331	C233	0.234900	0.175400	0.602840
H1501	H150	0.228200	0.192700	0.621200
C2341	C234	0.247800	0.134000	0.607850
C2351	C235	0.255500	0.110100	0.579000
H1511	H151	0.264500	0.082200	0.580900
C2361	C236	0.249900	0.127700	0.547660
H1521	H152	0.254300	0.111100	0.528800
C2371	C237	0.078900	0.022400	0.313100
H1531	H153	0.093300	0.012600	0.291700
C2381	C238	0.096600	0.018700	0.373600
H1541	H154	0.121200	0.006200	0.392800
C2391	C239	0.117100	0.002300	0.341700
H1551	H155	0.154900	0.978800	0.339500
C2401	C240	0.020500	0.056200	0.316700
H1561	H156	0.991800	0.068000	0.297900
Cd131	Cd13	0.009070	0.055500	0.489460
N251	N25	0.234900	0.050880	0.463480
N261	N26	0.011700	0.082350	0.543290
O611	O61	0.097900	0.994820	0.495790
O621	O62	0.203100	0.946860	0.486040
O631	O63	0.176300	0.070160	0.484460
O641	O64	0.305000	0.135930	0.471570
O651	O65	0.240200	0.206610	0.433370
C2411	C241	0.177200	0.981700	0.483330
C2421	C242	0.241900	0.009300	0.462450
C2431	C243	0.309500	0.991200	0.441000
H1571	H157	0.315800	0.963100	0.441000
C2441	C244	0.367500	0.014100	0.419900
H1581	H158	0.412000	0.001800	0.405200
C2451	C245	0.357600	0.055800	0.421100
H1591	H159	0.396900	0.071700	0.407200
C2461	C246	0.291800	0.074400	0.442120
C2471	C247	0.279900	0.119500	0.443770
C2481	C248	0.250300	0.138300	0.414720
H1601	H160	0.239300	0.121800	0.396100
C2491	C249	0.234800	0.180400	0.410350
C2501	C250	0.210400	0.196300	0.376450
C2511	C251	0.245700	0.177400	0.347800
H1611	H161	0.281000	0.153300	0.349700
C2521	C252	0.018000	0.059000	0.570510
H1621	H162	0.024500	0.031000	0.567700
C2531	C253	0.015100	0.074600	0.602840
H1631	H163	0.021800	0.057300	0.621200
C2541	C254	0.002200	0.116000	0.607850
C2551	C255	0.994500	0.139900	0.579000
H1641	H164	0.985500	0.167800	0.580900
C2561	C256	0.000100	0.122300	0.547660
H1651	H165	0.995700	0.138900	0.528800
C2571	C257	0.171100	0.227600	0.313100
H1661	H166	0.156700	0.237400	0.291700
C2581	C258	0.153400	0.231300	0.373600
H1671	H167	0.128800	0.243800	0.392800
C2591	C259	0.132900	0.247700	0.341700
H1681	H168	0.095100	0.271200	0.339500
C2601	C260	0.229500	0.193800	0.316700
H1691	H169	0.258200	0.182000	0.297900
Cd141	Cd14	0.009070	0.555500	0.989460
N271	N27	0.234900	0.550880	0.963480
N281	N28	0.011700	0.582350	0.043290
O661	O66	0.097900	0.494820	0.995790
O671	O67	0.203100	0.446860	0.986040
O681	O68	0.176300	0.570160	0.984460
O691	O69	0.305000	0.635930	0.971570
O701	O70	0.240200	0.706610	0.933370
C2611	C261	0.177200	0.481700	0.983330
C2621	C262	0.241900	0.509300	0.962450
C2631	C263	0.309500	0.491200	0.941000
H1701	H170	0.315800	0.463100	0.941000
C2641	C264	0.367500	0.514100	0.919900
H1711	H171	0.412000	0.501800	0.905200
C2651	C265	0.357600	0.555800	0.921100
H1721	H172	0.396900	0.571700	0.907200
C2661	C266	0.291800	0.574400	0.942120
C2671	C267	0.279900	0.619500	0.943770
C2681	C268	0.250300	0.638300	0.914720
H1731	H173	0.239300	0.621800	0.896100
C2691	C269	0.234800	0.680400	0.910350
C2701	C270	0.210400	0.696300	0.876450
C2711	C271	0.245700	0.677400	0.847800
H1741	H174	0.281000	0.653300	0.849700
C2721	C272	0.018000	0.559000	0.070510
H1751	H175	0.024500	0.531000	0.067700
C2731	C273	0.015100	0.574600	0.102840
H1761	H176	0.021800	0.557300	0.121200
C2741	C274	0.002200	0.616000	0.107850
C2751	C275	0.994500	0.639900	0.079000
H1771	H177	0.985500	0.667800	0.080900
C2761	C276	0.000100	0.622300	0.047660
H1781	H178	0.995700	0.638900	0.028800
C2771	C277	0.171100	0.727600	0.813100
H1791	H179	0.156700	0.737400	0.791700
C2781	C278	0.153400	0.731300	0.873600
H1801	H180	0.128800	0.743800	0.892800
C2791	C279	0.132900	0.747700	0.841700
H1811	H181	0.095100	0.771200	0.839500
C2801	C280	0.229500	0.693800	0.816700
H1821	H182	0.258200	0.682000	0.797900
Cd151	Cd15	0.509070	0.055500	0.989460
N291	N29	0.734900	0.050880	0.963480
N301	N30	0.511700	0.082350	0.043290
O711	O71	0.597900	0.994820	0.995790
O721	O72	0.703100	0.946860	0.986040
O731	O73	0.676300	0.070160	0.984460
O741	O74	0.805000	0.135930	0.971570
O751	O75	0.740200	0.206610	0.933370
C2811	C281	0.677200	0.981700	0.983330
C2821	C282	0.741900	0.009300	0.962450
C2831	C283	0.809500	0.991200	0.941000
H1831	H183	0.815800	0.963100	0.941000
C2841	C284	0.867500	0.014100	0.919900
H1841	H184	0.912000	0.001800	0.905200
C2851	C285	0.857600	0.055800	0.921100
H1851	H185	0.896900	0.071700	0.907200
C2861	C286	0.791800	0.074400	0.942120
C2871	C287	0.779900	0.119500	0.943770
C2881	C288	0.750300	0.138300	0.914720
H1861	H186	0.739300	0.121800	0.896100
C2891	C289	0.734800	0.180400	0.910350
C2901	C290	0.710400	0.196300	0.876450
C2911	C291	0.745700	0.177400	0.847800
H1871	H187	0.781000	0.153300	0.849700
C2921	C292	0.518000	0.059000	0.070510
H1881	H188	0.524500	0.031000	0.067700
C2931	C293	0.515100	0.074600	0.102840
H1891	H189	0.521800	0.057300	0.121200
C2941	C294	0.502200	0.116000	0.107850
C2951	C295	0.494500	0.139900	0.079000
H1901	H190	0.485500	0.167800	0.080900
C2961	C296	0.500100	0.122300	0.047660
H1911	H191	0.495700	0.138900	0.028800
C2971	C297	0.671100	0.227600	0.813100
H1921	H192	0.656700	0.237400	0.791700
C2981	C298	0.653400	0.231300	0.873600
H1931	H193	0.628800	0.243800	0.892800
C2991	C299	0.632900	0.247700	0.841700
H1941	H194	0.595100	0.271200	0.839500
C3001	C300	0.729500	0.193800	0.816700
H1951	H195	0.758200	0.182000	0.797900
Cd161	Cd16	0.509070	0.555500	0.489460
N311	N31	0.734900	0.550880	0.463480
N321	N32	0.511700	0.582350	0.543290
O761	O76	0.597900	0.494820	0.495790
O771	O77	0.703100	0.446860	0.486040
O781	O78	0.676300	0.570160	0.484460
O791	O79	0.805000	0.635930	0.471570
O801	O80	0.740200	0.706610	0.433370
C3011	C301	0.677200	0.481700	0.483330
C3021	C302	0.741900	0.509300	0.462450
C3031	C303	0.809500	0.491200	0.441000
H1961	H196	0.815800	0.463100	0.441000
C3041	C304	0.867500	0.514100	0.419900
H1971	H197	0.912000	0.501800	0.405200
C3051	C305	0.857600	0.555800	0.421100
H1981	H198	0.896900	0.571700	0.407200
C3061	C306	0.791800	0.574400	0.442120
C3071	C307	0.779900	0.619500	0.443770
C3081	C308	0.750300	0.638300	0.414720
H1991	H199	0.739300	0.621800	0.396100
C3091	C309	0.734800	0.680400	0.410350
C3101	C310	0.710400	0.696300	0.376450
C3111	C311	0.745700	0.677400	0.347800
H2001	H200	0.781000	0.653300	0.349700
C3121	C312	0.518000	0.559000	0.570510
H2011	H201	0.524500	0.531000	0.567700
C3131	C313	0.515100	0.574600	0.602840
H2021	H202	0.521800	0.557300	0.621200
C3141	C314	0.502200	0.616000	0.607850
C3151	C315	0.494500	0.639900	0.579000
H2031	H203	0.485500	0.667800	0.580900
C3161	C316	0.500100	0.622300	0.547660
H2041	H204	0.495700	0.638900	0.528800
C3171	C317	0.671100	0.727600	0.313100
H2051	H205	0.656700	0.737400	0.291700
C3181	C318	0.653400	0.731300	0.373600
H2061	H206	0.628800	0.743800	0.392800
C3191	C319	0.632900	0.747700	0.341700
H2071	H207	0.595100	0.771200	0.339500
C3201	C320	0.729500	0.693800	0.316700
H2081	H208	0.758200	0.682000	0.297900
Cd171	Cd17	0.990930	0.305500	0.739460
N331	N33	0.765100	0.300880	0.713480
N341	N34	0.988300	0.332350	0.793290
O811	O81	0.902100	0.244820	0.745790
O821	O82	0.796900	0.196860	0.736040
O831	O83	0.823700	0.320160	0.734460
O841	O84	0.695000	0.385930	0.721570
O851	O85	0.759800	0.456610	0.683370
C3211	C321	0.822800	0.231700	0.733330
C3221	C322	0.758100	0.259300	0.712450
C3231	C323	0.690500	0.241200	0.691000
H2091	H209	0.684200	0.213100	0.691000
C3241	C324	0.632500	0.264100	0.669900
H2101	H210	0.588000	0.251800	0.655200
C3251	C325	0.642400	0.305800	0.671100
H2111	H211	0.603100	0.321700	0.657200
C3261	C326	0.708200	0.324400	0.692120
C3271	C327	0.720100	0.369500	0.693770
C3281	C328	0.749700	0.388300	0.664720
H2121	H212	0.760700	0.371800	0.646100
C3291	C329	0.765200	0.430400	0.660350
C3301	C330	0.789600	0.446300	0.626450
C3311	C331	0.754300	0.427400	0.597800
H2131	H213	0.719000	0.403300	0.599700
C3321	C332	0.982000	0.309000	0.820510
H2141	H214	0.975500	0.281000	0.817700
C3331	C333	0.984900	0.324600	0.852840
H2151	H215	0.978200	0.307300	0.871200
C3341	C334	0.997800	0.366000	0.857850
C3351	C335	0.005500	0.389900	0.829000
H2161	H216	0.014500	0.417800	0.830900
C3361	C336	0.999900	0.372300	0.797660
H2171	H217	0.004300	0.388900	0.778800
C3371	C337	0.828900	0.477600	0.563100
H2181	H218	0.843300	0.487400	0.541700
C3381	C338	0.846600	0.481300	0.623600
H2191	H219	0.871200	0.493800	0.642800
C3391	C339	0.867100	0.497700	0.591700
H2201	H220	0.904900	0.521200	0.589500
C3401	C340	0.770500	0.443800	0.566700
H2211	H221	0.741800	0.432000	0.547900
Cd181	Cd18	0.990930	0.805500	0.239460
N351	N35	0.765100	0.800880	0.213480
N361	N36	0.988300	0.832350	0.293290
O861	O86	0.902100	0.744820	0.245790
O871	O87	0.796900	0.696860	0.236040
O881	O88	0.823700	0.820160	0.234460
O891	O89	0.695000	0.885930	0.221570
O901	O90	0.759800	0.956610	0.183370
C3411	C341	0.822800	0.731700	0.233330
C3421	C342	0.758100	0.759300	0.212450
C3431	C343	0.690500	0.741200	0.191000
H2221	H222	0.684200	0.713100	0.191000
C3441	C344	0.632500	0.764100	0.169900
H2231	H223	0.588000	0.751800	0.155200
C3451	C345	0.642400	0.805800	0.171100
H2241	H224	0.603100	0.821700	0.157200
C3461	C346	0.708200	0.824400	0.192120
C3471	C347	0.720100	0.869500	0.193770
C3481	C348	0.749700	0.888300	0.164720
H2251	H225	0.760700	0.871800	0.146100
C3491	C349	0.765200	0.930400	0.160350
C3501	C350	0.789600	0.946300	0.126450
C3511	C351	0.754300	0.927400	0.097800
H2261	H226	0.719000	0.903300	0.099700
C3521	C352	0.982000	0.809000	0.320510
H2271	H227	0.975500	0.781000	0.317700
C3531	C353	0.984900	0.824600	0.352840
H2281	H228	0.978200	0.807300	0.371200
C3541	C354	0.997800	0.866000	0.357850
C3551	C355	0.005500	0.889900	0.329000
H2291	H229	0.014500	0.917800	0.330900
C3561	C356	0.999900	0.872300	0.297660
H2301	H230	0.004300	0.888900	0.278800
C3571	C357	0.828900	0.977600	0.063100
H2311	H231	0.843300	0.987400	0.041700
C3581	C358	0.846600	0.981300	0.123600
H2321	H232	0.871200	0.993800	0.142800
C3591	C359	0.867100	0.997700	0.091700
H2331	H233	0.904900	0.021200	0.089500
C3601	C360	0.770500	0.943800	0.066700
H2341	H234	0.741800	0.932000	0.047900
Cd191	Cd19	0.490930	0.305500	0.239460
N371	N37	0.265100	0.300880	0.213480
N381	N38	0.488300	0.332350	0.293290
O911	O91	0.402100	0.244820	0.245790
O921	O92	0.296900	0.196860	0.236040
O931	O93	0.323700	0.320160	0.234460
O941	O94	0.195000	0.385930	0.221570
O951	O95	0.259800	0.456610	0.183370
C3611	C361	0.322800	0.231700	0.233330
C3621	C362	0.258100	0.259300	0.212450
C3631	C363	0.190500	0.241200	0.191000
H2351	H235	0.184200	0.213100	0.191000
C3641	C364	0.132500	0.264100	0.169900
H2361	H236	0.088000	0.251800	0.155200
C3651	C365	0.142400	0.305800	0.171100
H2371	H237	0.103100	0.321700	0.157200
C3661	C366	0.208200	0.324400	0.192120
C3671	C367	0.220100	0.369500	0.193770
C3681	C368	0.249700	0.388300	0.164720
H2381	H238	0.260700	0.371800	0.146100
C3691	C369	0.265200	0.430400	0.160350
C3701	C370	0.289600	0.446300	0.126450
C3711	C371	0.254300	0.427400	0.097800
H2391	H239	0.219000	0.403300	0.099700
C3721	C372	0.482000	0.309000	0.320510
H2401	H240	0.475500	0.281000	0.317700
C3731	C373	0.484900	0.324600	0.352840
H2411	H241	0.478200	0.307300	0.371200
C3741	C374	0.497800	0.366000	0.357850
C3751	C375	0.505500	0.389900	0.329000
H2421	H242	0.514500	0.417800	0.330900
C3761	C376	0.499900	0.372300	0.297660
H2431	H243	0.504300	0.388900	0.278800
C3771	C377	0.328900	0.477600	0.063100
H2441	H244	0.343300	0.487400	0.041700
C3781	C378	0.346600	0.481300	0.123600
H2451	H245	0.371200	0.493800	0.142800
C3791	C379	0.367100	0.497700	0.091700
H2461	H246	0.404900	0.521200	0.089500
C3801	C380	0.270500	0.443800	0.066700
H2471	H247	0.241800	0.432000	0.047900
Cd201	Cd20	0.490930	0.805500	0.739460
N391	N39	0.265100	0.800880	0.713480
N401	N40	0.488300	0.832350	0.793290
O961	O96	0.402100	0.744820	0.745790
O971	O97	0.296900	0.696860	0.736040
O981	O98	0.323700	0.820160	0.734460
O991	O99	0.195000	0.885930	0.721570
O1001	O100	0.259800	0.956610	0.683370
C3811	C381	0.322800	0.731700	0.733330
C3821	C382	0.258100	0.759300	0.712450
C3831	C383	0.190500	0.741200	0.691000
H2481	H248	0.184200	0.713100	0.691000
C3841	C384	0.132500	0.764100	0.669900
H2491	H249	0.088000	0.751800	0.655200
C3851	C385	0.142400	0.805800	0.671100
H2501	H250	0.103100	0.821700	0.657200
C3861	C386	0.208200	0.824400	0.692120
C3871	C387	0.220100	0.869500	0.693770
C3881	C388	0.249700	0.888300	0.664720
H2511	H251	0.260700	0.871800	0.646100
C3891	C389	0.265200	0.930400	0.660350
C3901	C390	0.289600	0.946300	0.626450
C3911	C391	0.254300	0.927400	0.597800
H2521	H252	0.219000	0.903300	0.599700
C3921	C392	0.482000	0.809000	0.820510
H2531	H253	0.475500	0.781000	0.817700
C3931	C393	0.484900	0.824600	0.852840
H2541	H254	0.478200	0.807300	0.871200
C3941	C394	0.497800	0.866000	0.857850
C3951	C395	0.505500	0.889900	0.829000
H2551	H255	0.514500	0.917800	0.830900
C3961	C396	0.499900	0.872300	0.797660
H2561	H256	0.504300	0.888900	0.778800
C3971	C397	0.328900	0.977600	0.563100
H2571	H257	0.343300	0.987400	0.541700
C3981	C398	0.346600	0.981300	0.623600
H2581	H258	0.371200	0.993800	0.642800
C3991	C399	0.367100	0.997700	0.591700
H2591	H259	0.404900	0.021200	0.589500
C4001	C400	0.270500	0.943800	0.566700
H2601	H260	0.241800	0.932000	0.547900
Cd211	Cd21	0.259070	0.944500	0.739460
N411	N41	0.484900	0.949120	0.713480
N421	N42	0.261700	0.917650	0.793290
O1011	O101	0.347900	0.005180	0.745790
O1021	O102	0.453100	0.053140	0.736040
O1031	O103	0.426300	0.929840	0.734460
O1041	O104	0.555000	0.864070	0.721570
O1051	O105	0.490200	0.793390	0.683370
C4011	C401	0.427200	0.018300	0.733330
C4021	C402	0.491900	0.990700	0.712450
C4031	C403	0.559500	0.008800	0.691000
H2611	H261	0.565800	0.036900	0.691000
C4041	C404	0.617500	0.985900	0.669900
H2621	H262	0.662000	0.998200	0.655200
C4051	C405	0.607600	0.944200	0.671100
H2631	H263	0.646900	0.928300	0.657200
C4061	C406	0.541800	0.925600	0.692120
C4071	C407	0.529900	0.880500	0.693770
C4081	C408	0.500300	0.861700	0.664720
H2641	H264	0.489300	0.878200	0.646100
C4091	C409	0.484800	0.819600	0.660350
C4101	C410	0.460400	0.803700	0.626450
C4111	C411	0.495700	0.822600	0.597800
H2651	H265	0.531000	0.846700	0.599700
C4121	C412	0.268000	0.941000	0.820510
H2661	H266	0.274500	0.969000	0.817700
C4131	C413	0.265100	0.925400	0.852840
H2671	H267	0.271800	0.942700	0.871200
C4141	C414	0.252200	0.884000	0.857850
C4151	C415	0.244500	0.860100	0.829000
H2681	H268	0.235500	0.832200	0.830900
C4161	C416	0.250100	0.877700	0.797660
H2691	H269	0.245700	0.861100	0.778800
C4171	C417	0.421100	0.772400	0.563100
H2701	H270	0.406700	0.762600	0.541700
C4181	C418	0.403400	0.768700	0.623600
H2711	H271	0.378800	0.756200	0.642800
C4191	C419	0.382900	0.752300	0.591700
H2721	H272	0.345100	0.728800	0.589500
C4201	C420	0.479500	0.806200	0.566700
H2731	H273	0.508200	0.818000	0.547900
Cd221	Cd22	0.259070	0.444500	0.239460
N431	N43	0.484900	0.449120	0.213480
N441	N44	0.261700	0.417650	0.293290
O1061	O106	0.347900	0.505180	0.245790
O1071	O107	0.453100	0.553140	0.236040
O1081	O108	0.426300	0.429840	0.234460
O1091	O109	0.555000	0.364070	0.221570
O1101	O110	0.490200	0.293390	0.183370
C4211	C421	0.427200	0.518300	0.233330
C4221	C422	0.491900	0.490700	0.212450
C4231	C423	0.559500	0.508800	0.191000
H2741	H274	0.565800	0.536900	0.191000
C4241	C424	0.617500	0.485900	0.169900
H2751	H275	0.662000	0.498200	0.155200
C4251	C425	0.607600	0.444200	0.171100
H2761	H276	0.646900	0.428300	0.157200
C4261	C426	0.541800	0.425600	0.192120
C4271	C427	0.529900	0.380500	0.193770
C4281	C428	0.500300	0.361700	0.164720
H2771	H277	0.489300	0.378200	0.146100
C4291	C429	0.484800	0.319600	0.160350
C4301	C430	0.460400	0.303700	0.126450
C4311	C431	0.495700	0.322600	0.097800
H2781	H278	0.531000	0.346700	0.099700
C4321	C432	0.268000	0.441000	0.320510
H2791	H279	0.274500	0.469000	0.317700
C4331	C433	0.265100	0.425400	0.352840
H2801	H280	0.271800	0.442700	0.371200
C4341	C434	0.252200	0.384000	0.357850
C4351	C435	0.244500	0.360100	0.329000
H2811	H281	0.235500	0.332200	0.330900
C4361	C436	0.250100	0.377700	0.297660
H2821	H282	0.245700	0.361100	0.278800
C4371	C437	0.421100	0.272400	0.063100
H2831	H283	0.406700	0.262600	0.041700
C4381	C438	0.403400	0.268700	0.123600
H2841	H284	0.378800	0.256200	0.142800
C4391	C439	0.382900	0.252300	0.091700
H2851	H285	0.345100	0.228800	0.089500
C4401	C440	0.479500	0.306200	0.066700
H2861	H286	0.508200	0.318000	0.047900
Cd231	Cd23	0.759070	0.944500	0.239460
N451	N45	0.984900	0.949120	0.213480
N461	N46	0.761700	0.917650	0.293290
O1111	O111	0.847900	0.005180	0.245790
O1121	O112	0.953100	0.053140	0.236040
O1131	O113	0.926300	0.929840	0.234460
O1141	O114	0.055000	0.864070	0.221570
O1151	O115	0.990200	0.793390	0.183370
C4411	C441	0.927200	0.018300	0.233330
C4421	C442	0.991900	0.990700	0.212450
C4431	C443	0.059500	0.008800	0.191000
H2871	H287	0.065800	0.036900	0.191000
C4441	C444	0.117500	0.985900	0.169900
H2881	H288	0.162000	0.998200	0.155200
C4451	C445	0.107600	0.944200	0.171100
H2891	H289	0.146900	0.928300	0.157200
C4461	C446	0.041800	0.925600	0.192120
C4471	C447	0.029900	0.880500	0.193770
C4481	C448	0.000300	0.861700	0.164720
H2901	H290	0.989300	0.878200	0.146100
C4491	C449	0.984800	0.819600	0.160350
C4501	C450	0.960400	0.803700	0.126450
C4511	C451	0.995700	0.822600	0.097800
H2911	H291	0.031000	0.846700	0.099700
C4521	C452	0.768000	0.941000	0.320510
H2921	H292	0.774500	0.969000	0.317700
C4531	C453	0.765100	0.925400	0.352840
H2931	H293	0.771800	0.942700	0.371200
C4541	C454	0.752200	0.884000	0.357850
C4551	C455	0.744500	0.860100	0.329000
H2941	H294	0.735500	0.832200	0.330900
C4561	C456	0.750100	0.877700	0.297660
H2951	H295	0.745700	0.861100	0.278800
C4571	C457	0.921100	0.772400	0.063100
H2961	H296	0.906700	0.762600	0.041700
C4581	C458	0.903400	0.768700	0.123600
H2971	H297	0.878800	0.756200	0.142800
C4591	C459	0.882900	0.752300	0.091700
H2981	H298	0.845100	0.728800	0.089500
C4601	C460	0.979500	0.806200	0.066700
H2991	H299	0.008200	0.818000	0.047900
Cd241	Cd24	0.759070	0.444500	0.739460
N471	N47	0.984900	0.449120	0.713480
N481	N48	0.761700	0.417650	0.793290
O1161	O116	0.847900	0.505180	0.745790
O1171	O117	0.953100	0.553140	0.736040
O1181	O118	0.926300	0.429840	0.734460
O1191	O119	0.055000	0.364070	0.721570
O1201	O120	0.990200	0.293390	0.683370
C4611	C461	0.927200	0.518300	0.733330
C4621	C462	0.991900	0.490700	0.712450
C4631	C463	0.059500	0.508800	0.691000
H3001	H300	0.065800	0.536900	0.691000
C4641	C464	0.117500	0.485900	0.669900
H3011	H301	0.162000	0.498200	0.655200
C4651	C465	0.107600	0.444200	0.671100
H3021	H302	0.146900	0.428300	0.657200
C4661	C466	0.041800	0.425600	0.692120
C4671	C467	0.029900	0.380500	0.693770
C4681	C468	0.000300	0.361700	0.664720
H3031	H303	0.989300	0.378200	0.646100
C4691	C469	0.984800	0.319600	0.660350
C4701	C470	0.960400	0.303700	0.626450
C4711	C471	0.995700	0.322600	0.597800
H3041	H304	0.031000	0.346700	0.599700
C4721	C472	0.768000	0.441000	0.820510
H3051	H305	0.774500	0.469000	0.817700
C4731	C473	0.765100	0.425400	0.852840
H3061	H306	0.771800	0.442700	0.871200
C4741	C474	0.752200	0.384000	0.857850
C4751	C475	0.744500	0.360100	0.829000
H3071	H307	0.735500	0.332200	0.830900
C4761	C476	0.750100	0.377700	0.797660
H3081	H308	0.745700	0.361100	0.778800
C4771	C477	0.921100	0.272400	0.563100
H3091	H309	0.906700	0.262600	0.541700
C4781	C478	0.903400	0.268700	0.623600
H3101	H310	0.878800	0.256200	0.642800
C4791	C479	0.882900	0.252300	0.591700
H3111	H311	0.845100	0.228800	0.589500
C4801	C480	0.979500	0.306200	0.566700
H3121	H312	0.008200	0.318000	0.547900
Cd251	Cd25	0.259070	0.305500	0.510540
N491	N49	0.484900	0.300880	0.536520
N501	N50	0.261700	0.332350	0.456710
O1211	O121	0.347900	0.244820	0.504210
O1221	O122	0.453100	0.196860	0.513960
O1231	O123	0.426300	0.320160	0.515540
O1241	O124	0.555000	0.385930	0.528430
O1251	O125	0.490200	0.456610	0.566630
C4811	C481	0.427200	0.231700	0.516670
C4821	C482	0.491900	0.259300	0.537550
C4831	C483	0.559500	0.241200	0.559000
H3131	H313	0.565800	0.213100	0.559000
C4841	C484	0.617500	0.264100	0.580100
H3141	H314	0.662000	0.251800	0.594800
C4851	C485	0.607600	0.305800	0.578900
H3151	H315	0.646900	0.321700	0.592800
C4861	C486	0.541800	0.324400	0.557880
C4871	C487	0.529900	0.369500	0.556230
C4881	C488	0.500300	0.388300	0.585280
H3161	H316	0.489300	0.371800	0.603900
C4891	C489	0.484800	0.430400	0.589650
C4901	C490	0.460400	0.446300	0.623550
C4911	C491	0.495700	0.427400	0.652200
H3171	H317	0.531000	0.403300	0.650300
C4921	C492	0.268000	0.309000	0.429490
H3181	H318	0.274500	0.281000	0.432300
C4931	C493	0.265100	0.324600	0.397160
H3191	H319	0.271800	0.307300	0.378800
C4941	C494	0.252200	0.366000	0.392150
C4951	C495	0.244500	0.389900	0.421000
H3201	H320	0.235500	0.417800	0.419100
C4961	C496	0.250100	0.372300	0.452340
H3211	H321	0.245700	0.388900	0.471200
C4971	C497	0.421100	0.477600	0.686900
H3221	H322	0.406700	0.487400	0.708300
C4981	C498	0.403400	0.481300	0.626400
H3231	H323	0.378800	0.493800	0.607200
C4991	C499	0.382900	0.497700	0.658300
H3241	H324	0.345100	0.521200	0.660500
C5001	C500	0.479500	0.443800	0.683300
H3251	H325	0.508200	0.432000	0.702100
Cd261	Cd26	0.259070	0.805500	0.010540
N511	N51	0.484900	0.800880	0.036520
N521	N52	0.261700	0.832350	0.956710
O1261	O126	0.347900	0.744820	0.004210
O1271	O127	0.453100	0.696860	0.013960
O1281	O128	0.426300	0.820160	0.015540
O1291	O129	0.555000	0.885930	0.028430
O1301	O130	0.490200	0.956610	0.066630
C5011	C501	0.427200	0.731700	0.016670
C5021	C502	0.491900	0.759300	0.037550
C5031	C503	0.559500	0.741200	0.059000
H3261	H326	0.565800	0.713100	0.059000
C5041	C504	0.617500	0.764100	0.080100
H3271	H327	0.662000	0.751800	0.094800
C5051	C505	0.607600	0.805800	0.078900
H3281	H328	0.646900	0.821700	0.092800
C5061	C506	0.541800	0.824400	0.057880
C5071	C507	0.529900	0.869500	0.056230
C5081	C508	0.500300	0.888300	0.085280
H3291	H329	0.489300	0.871800	0.103900
C5091	C509	0.484800	0.930400	0.089650
C5101	C510	0.460400	0.946300	0.123550
C5111	C511	0.495700	0.927400	0.152200
H3301	H330	0.531000	0.903300	0.150300
C5121	C512	0.268000	0.809000	0.929490
H3311	H331	0.274500	0.781000	0.932300
C5131	C513	0.265100	0.824600	0.897160
H3321	H332	0.271800	0.807300	0.878800
C5141	C514	0.252200	0.866000	0.892150
C5151	C515	0.244500	0.889900	0.921000
H3331	H333	0.235500	0.917800	0.919100
C5161	C516	0.250100	0.872300	0.952340
H3341	H334	0.245700	0.888900	0.971200
C5171	C517	0.421100	0.977600	0.186900
H3351	H335	0.406700	0.987400	0.208300
C5181	C518	0.403400	0.981300	0.126400
H3361	H336	0.378800	0.993800	0.107200
C5191	C519	0.382900	0.997700	0.158300
H3371	H337	0.345100	0.021200	0.160500
C5201	C520	0.479500	0.943800	0.183300
H3381	H338	0.508200	0.932000	0.202100
Cd271	Cd27	0.759070	0.305500	0.010540
N531	N53	0.984900	0.300880	0.036520
N541	N54	0.761700	0.332350	0.956710
O1311	O131	0.847900	0.244820	0.004210
O1321	O132	0.953100	0.196860	0.013960
O1331	O133	0.926300	0.320160	0.015540
O1341	O134	0.055000	0.385930	0.028430
O1351	O135	0.990200	0.456610	0.066630
C5211	C521	0.927200	0.231700	0.016670
C5221	C522	0.991900	0.259300	0.037550
C5231	C523	0.059500	0.241200	0.059000
H3391	H339	0.065800	0.213100	0.059000
C5241	C524	0.117500	0.264100	0.080100
H3401	H340	0.162000	0.251800	0.094800
C5251	C525	0.107600	0.305800	0.078900
H3411	H341	0.146900	0.321700	0.092800
C5261	C526	0.041800	0.324400	0.057880
C5271	C527	0.029900	0.369500	0.056230
C5281	C528	0.000300	0.388300	0.085280
H3421	H342	0.989300	0.371800	0.103900
C5291	C529	0.984800	0.430400	0.089650
C5301	C530	0.960400	0.446300	0.123550
C5311	C531	0.995700	0.427400	0.152200
H3431	H343	0.031000	0.403300	0.150300
C5321	C532	0.768000	0.309000	0.929490
H3441	H344	0.774500	0.281000	0.932300
C5331	C533	0.765100	0.324600	0.897160
H3451	H345	0.771800	0.307300	0.878800
C5341	C534	0.752200	0.366000	0.892150
C5351	C535	0.744500	0.389900	0.921000
H3461	H346	0.735500	0.417800	0.919100
C5361	C536	0.750100	0.372300	0.952340
H3471	H347	0.745700	0.388900	0.971200
C5371	C537	0.921100	0.477600	0.186900
H3481	H348	0.906700	0.487400	0.208300
C5381	C538	0.903400	0.481300	0.126400
H3491	H349	0.878800	0.493800	0.107200
C5391	C539	0.882900	0.497700	0.158300
H3501	H350	0.845100	0.521200	0.160500
C5401	C540	0.979500	0.443800	0.183300
H3511	H351	0.008200	0.432000	0.202100
Cd281	Cd28	0.759070	0.805500	0.510540
N551	N55	0.984900	0.800880	0.536520
N561	N56	0.761700	0.832350	0.456710
O1361	O136	0.847900	0.744820	0.504210
O1371	O137	0.953100	0.696860	0.513960
O1381	O138	0.926300	0.820160	0.515540
O1391	O139	0.055000	0.885930	0.528430
O1401	O140	0.990200	0.956610	0.566630
C5411	C541	0.927200	0.731700	0.516670
C5421	C542	0.991900	0.759300	0.537550
C5431	C543	0.059500	0.741200	0.559000
H3521	H352	0.065800	0.713100	0.559000
C5441	C544	0.117500	0.764100	0.580100
H3531	H353	0.162000	0.751800	0.594800
C5451	C545	0.107600	0.805800	0.578900
H3541	H354	0.146900	0.821700	0.592800
C5461	C546	0.041800	0.824400	0.557880
C5471	C547	0.029900	0.869500	0.556230
C5481	C548	0.000300	0.888300	0.585280
H3551	H355	0.989300	0.871800	0.603900
C5491	C549	0.984800	0.930400	0.589650
C5501	C550	0.960400	0.946300	0.623550
C5511	C551	0.995700	0.927400	0.652200
H3561	H356	0.031000	0.903300	0.650300
C5521	C552	0.768000	0.809000	0.429490
H3571	H357	0.774500	0.781000	0.432300
C5531	C553	0.765100	0.824600	0.397160
H3581	H358	0.771800	0.807300	0.378800
C5541	C554	0.752200	0.866000	0.392150
C5551	C555	0.744500	0.889900	0.421000
H3591	H359	0.735500	0.917800	0.419100
C5561	C556	0.750100	0.872300	0.452340
H3601	H360	0.745700	0.888900	0.471200
C5571	C557	0.921100	0.977600	0.686900
H3611	H361	0.906700	0.987400	0.708300
C5581	C558	0.903400	0.981300	0.626400
H3621	H362	0.878800	0.993800	0.607200
C5591	C559	0.882900	0.997700	0.658300
H3631	H363	0.845100	0.021200	0.660500
C5601	C560	0.979500	0.943800	0.683300
H3641	H364	0.008200	0.932000	0.702100
Cd291	Cd29	0.990930	0.944500	0.510540
N571	N57	0.765100	0.949120	0.536520
N581	N58	0.988300	0.917650	0.456710
O1411	O141	0.902100	0.005180	0.504210
O1421	O142	0.796900	0.053140	0.513960
O1431	O143	0.823700	0.929840	0.515540
O1441	O144	0.695000	0.864070	0.528430
O1451	O145	0.759800	0.793390	0.566630
C5611	C561	0.822800	0.018300	0.516670
C5621	C562	0.758100	0.990700	0.537550
C5631	C563	0.690500	0.008800	0.559000
H3651	H365	0.684200	0.036900	0.559000
C5641	C564	0.632500	0.985900	0.580100
H3661	H366	0.588000	0.998200	0.594800
C5651	C565	0.642400	0.944200	0.578900
H3671	H367	0.603100	0.928300	0.592800
C5661	C566	0.708200	0.925600	0.557880
C5671	C567	0.720100	0.880500	0.556230
C5681	C568	0.749700	0.861700	0.585280
H3681	H368	0.760700	0.878200	0.603900
C5691	C569	0.765200	0.819600	0.589650
C5701	C570	0.789600	0.803700	0.623550
C5711	C571	0.754300	0.822600	0.652200
H3691	H369	0.719000	0.846700	0.650300
C5721	C572	0.982000	0.941000	0.429490
H3701	H370	0.975500	0.969000	0.432300
C5731	C573	0.984900	0.925400	0.397160
H3711	H371	0.978200	0.942700	0.378800
C5741	C574	0.997800	0.884000	0.392150
C5751	C575	0.005500	0.860100	0.421000
H3721	H372	0.014500	0.832200	0.419100
C5761	C576	0.999900	0.877700	0.452340
H3731	H373	0.004300	0.861100	0.471200
C5771	C577	0.828900	0.772400	0.686900
H3741	H374	0.843300	0.762600	0.708300
C5781	C578	0.846600	0.768700	0.626400
H3751	H375	0.871200	0.756200	0.607200
C5791	C579	0.867100	0.752300	0.658300
H3761	H376	0.904900	0.728800	0.660500
C5801	C580	0.770500	0.806200	0.683300
H3771	H377	0.741800	0.818000	0.702100
Cd301	Cd30	0.990930	0.444500	0.010540
N591	N59	0.765100	0.449120	0.036520
N601	N60	0.988300	0.417650	0.956710
O1461	O146	0.902100	0.505180	0.004210
O1471	O147	0.796900	0.553140	0.013960
O1481	O148	0.823700	0.429840	0.015540
O1491	O149	0.695000	0.364070	0.028430
O1501	O150	0.759800	0.293390	0.066630
C5811	C581	0.822800	0.518300	0.016670
C5821	C582	0.758100	0.490700	0.037550
C5831	C583	0.690500	0.508800	0.059000
H3781	H378	0.684200	0.536900	0.059000
C5841	C584	0.632500	0.485900	0.080100
H3791	H379	0.588000	0.498200	0.094800
C5851	C585	0.642400	0.444200	0.078900
H3801	H380	0.603100	0.428300	0.092800
C5861	C586	0.708200	0.425600	0.057880
C5871	C587	0.720100	0.380500	0.056230
C5881	C588	0.749700	0.361700	0.085280
H3811	H381	0.760700	0.378200	0.103900
C5891	C589	0.765200	0.319600	0.089650
C5901	C590	0.789600	0.303700	0.123550
C5911	C591	0.754300	0.322600	0.152200
H3821	H382	0.719000	0.346700	0.150300
C5921	C592	0.982000	0.441000	0.929490
H3831	H383	0.975500	0.469000	0.932300
C5931	C593	0.984900	0.425400	0.897160
H3841	H384	0.978200	0.442700	0.878800
C5941	C594	0.997800	0.384000	0.892150
C5951	C595	0.005500	0.360100	0.921000
H3851	H385	0.014500	0.332200	0.919100
C5961	C596	0.999900	0.377700	0.952340
H3861	H386	0.004300	0.361100	0.971200
C5971	C597	0.828900	0.272400	0.186900
H3871	H387	0.843300	0.262600	0.208300
C5981	C598	0.846600	0.268700	0.126400
H3881	H388	0.871200	0.256200	0.107200
C5991	C599	0.867100	0.252300	0.158300
H3891	H389	0.904900	0.228800	0.160500
C6001	C600	0.770500	0.306200	0.183300
H3901	H390	0.741800	0.318000	0.202100
Cd311	Cd31	0.490930	0.944500	0.010540
N611	N61	0.265100	0.949120	0.036520
N621	N62	0.488300	0.917650	0.956710
O1511	O151	0.402100	0.005180	0.004210
O1521	O152	0.296900	0.053140	0.013960
O1531	O153	0.323700	0.929840	0.015540
O1541	O154	0.195000	0.864070	0.028430
O1551	O155	0.259800	0.793390	0.066630
C6011	C601	0.322800	0.018300	0.016670
C6021	C602	0.258100	0.990700	0.037550
C6031	C603	0.190500	0.008800	0.059000
H3911	H391	0.184200	0.036900	0.059000
C6041	C604	0.132500	0.985900	0.080100
H3921	H392	0.088000	0.998200	0.094800
C6051	C605	0.142400	0.944200	0.078900
H3931	H393	0.103100	0.928300	0.092800
C6061	C606	0.208200	0.925600	0.057880
C6071	C607	0.220100	0.880500	0.056230
C6081	C608	0.249700	0.861700	0.085280
H3941	H394	0.260700	0.878200	0.103900
C6091	C609	0.265200	0.819600	0.089650
C6101	C610	0.289600	0.803700	0.123550
C6111	C611	0.254300	0.822600	0.152200
H3951	H395	0.219000	0.846700	0.150300
C6121	C612	0.482000	0.941000	0.929490
H3961	H396	0.475500	0.969000	0.932300
C6131	C613	0.484900	0.925400	0.897160
H3971	H397	0.478200	0.942700	0.878800
C6141	C614	0.497800	0.884000	0.892150
C6151	C615	0.505500	0.860100	0.921000
H3981	H398	0.514500	0.832200	0.919100
C6161	C616	0.499900	0.877700	0.952340
H3991	H399	0.504300	0.861100	0.971200
C6171	C617	0.328900	0.772400	0.186900
H4001	H400	0.343300	0.762600	0.208300
C6181	C618	0.346600	0.768700	0.126400
H4011	H401	0.371200	0.756200	0.107200
C6191	C619	0.367100	0.752300	0.158300
H4021	H402	0.404900	0.728800	0.160500
C6201	C620	0.270500	0.806200	0.183300
H4031	H403	0.241800	0.818000	0.202100
Cd321	Cd32	0.490930	0.444500	0.510540
N631	N63	0.265100	0.449120	0.536520
N641	N64	0.488300	0.417650	0.456710
O1561	O156	0.402100	0.505180	0.504210
O1571	O157	0.296900	0.553140	0.513960
O1581	O158	0.323700	0.429840	0.515540
O1591	O159	0.195000	0.364070	0.528430
O1601	O160	0.259800	0.293390	0.566630
C6211	C621	0.322800	0.518300	0.516670
C6221	C622	0.258100	0.490700	0.537550
C6231	C623	0.190500	0.508800	0.559000
H4041	H404	0.184200	0.536900	0.559000
C6241	C624	0.132500	0.485900	0.580100
H4051	H405	0.088000	0.498200	0.594800
C6251	C625	0.142400	0.444200	0.578900
H4061	H406	0.103100	0.428300	0.592800
C6261	C626	0.208200	0.425600	0.557880
C6271	C627	0.220100	0.380500	0.556230
C6281	C628	0.249700	0.361700	0.585280
H4071	H407	0.260700	0.378200	0.603900
C6291	C629	0.265200	0.319600	0.589650
C6301	C630	0.289600	0.303700	0.623550
C6311	C631	0.254300	0.322600	0.652200
H4081	H408	0.219000	0.346700	0.650300
C6321	C632	0.482000	0.441000	0.429490
H4091	H409	0.475500	0.469000	0.432300
C6331	C633	0.484900	0.425400	0.397160
H4101	H410	0.478200	0.442700	0.378800
C6341	C634	0.497800	0.384000	0.392150
C6351	C635	0.505500	0.360100	0.421000
H4111	H411	0.514500	0.332200	0.419100
C6361	C636	0.499900	0.377700	0.452340
H4121	H412	0.504300	0.361100	0.471200
C6371	C637	0.328900	0.272400	0.686900
H4131	H413	0.343300	0.262600	0.708300
C6381	C638	0.346600	0.268700	0.626400
H4141	H414	0.371200	0.256200	0.607200
C6391	C639	0.367100	0.252300	0.658300
H4151	H415	0.404900	0.228800	0.660500
C6401	C640	0.270500	0.306200	0.683300
H4161	H416	0.241800	0.318000	0.702100
