data_FOKYEL_clean_PM
_symmetry_space_group_name_H-M	'P1'
_cell_length_a	13.392000
_cell_length_b	13.872000
_cell_length_c	22.211000
_cell_angle_alpha	74.977000
_cell_angle_beta	89.016000
_cell_angle_gamma	76.276000
_symmetry_Int_Tables_number 1

loop_
_symmetry_equiv_pos_as_xyz
'x,y,z'

loop_
_atom_site_label
_atom_site_type_symbol
_atom_site_fract_x
_atom_site_fract_y
_atom_site_fract_z
Pr11	Pr1	0.782660	0.373020	0.741850
O11	O1	0.636700	0.517700	0.696500
C11	C1	0.602000	0.601700	0.705700
Pr21	Pr2	0.812260	0.694390	0.723990
O21	O2	0.643600	0.666400	0.713600
C21	C2	0.484800	0.633500	0.707500
Pr31	Pr3	0.868540	0.098060	0.675110
O31	O3	0.902800	0.390300	0.823300
C31	C3	0.423100	0.562000	0.706200
H11	H1	0.456400	0.494000	0.705000
O41	O4	0.835000	0.559500	0.812400
C41	C4	0.316300	0.589300	0.706600
H21	H2	0.277600	0.541600	0.703300
O51	O5	0.636000	0.289100	0.741500
C51	C5	0.265800	0.687800	0.712000
O61	O6	0.846500	0.521700	0.683700
C61	C6	0.158000	0.715700	0.716100
H31	H3	0.118000	0.668800	0.713500
O71	O7	0.956200	0.292800	0.721200
C71	C7	0.110100	0.812700	0.724000
O81	O8	0.014500	0.166000	0.672800
C81	C8	0.167700	0.885500	0.725800
H41	H4	0.133500	0.952800	0.727800
O91	O9	0.818300	0.217400	0.825800
C91	C9	0.273600	0.858100	0.724700
H51	H5	0.312400	0.905000	0.729500
C101	C10	0.325000	0.761400	0.716400
O101	O10	0.895900	0.082700	0.781100
C111	C11	0.434300	0.731300	0.713200
H61	H6	0.474000	0.779000	0.714900
O111	O11	0.980100	0.584300	0.699200
C121	C12	0.890800	0.471000	0.841600
O121	O12	0.775600	0.330000	0.641200
C131	C13	0.940900	0.465100	0.901200
O131	O13	0.802800	0.227900	0.577900
C141	C14	0.921400	0.550800	0.925300
H71	H7	0.877000	0.613800	0.902900
O141	O14	0.717100	0.868600	0.681700
C151	C15	0.967800	0.542900	0.982500
O151	O15	0.698600	0.149700	0.710900
C161	C16	0.051000	0.367700	0.992100
H81	H8	0.094500	0.304600	0.015000
O161	O16	0.770800	0.006900	0.630200
C171	C17	0.007300	0.373400	0.936500
H91	H9	0.021600	0.314300	0.920800
O171	O17	0.949700	0.764400	0.739700
C181	C18	0.627500	0.226400	0.728700
O181	O18	0.953200	0.925600	0.731900
C191	C19	0.520200	0.202600	0.718700
C201	C20	0.439600	0.267800	0.739500
H101	H10	0.452200	0.318200	0.758300
C211	C21	0.333800	0.256900	0.731600
C221	C22	0.251400	0.323500	0.750900
H111	H11	0.263300	0.373800	0.770000
C231	C23	0.152500	0.314700	0.741700
H121	H12	0.095800	0.358600	0.755100
C241	C24	0.135600	0.240200	0.712100
C251	C25	0.217500	0.174200	0.693400
H131	H13	0.205200	0.123600	0.674600
C261	C26	0.318900	0.182000	0.702200
C271	C27	0.405200	0.115300	0.684800
H141	H14	0.394800	0.062200	0.667600
C281	C28	0.501500	0.125300	0.692000
H151	H15	0.557800	0.080200	0.679100
C291	C29	0.934800	0.537200	0.669600
C301	C30	0.979300	0.515700	0.610000
C311	C31	0.079200	0.531200	0.593600
H161	H16	0.121400	0.545600	0.622500
C321	C32	0.113700	0.525000	0.535700
H171	H17	0.181300	0.531700	0.525300
C331	C33	0.951000	0.491000	0.508300
C341	C34	0.919300	0.495400	0.568200
H181	H18	0.853700	0.483800	0.580100
C351	C35	0.024200	0.237700	0.693400
C361	C36	0.874200	0.133700	0.827500
C371	C37	0.922500	0.064900	0.889800
C381	C38	0.935600	0.110200	0.937500
H191	H19	0.911000	0.182500	0.930300
C391	C39	0.982200	0.054600	0.994000
C401	C40	0.006900	0.901600	0.957700
H201	H20	0.031400	0.829200	0.965000
C411	C41	0.962700	0.957000	0.899800
H211	H21	0.959100	0.924300	0.867600
C421	C42	0.752700	0.309100	0.591900
C431	C43	0.663300	0.374500	0.551100
C441	C44	0.594200	0.452600	0.567100
H221	H22	0.605000	0.466600	0.605800
C451	C45	0.507900	0.512800	0.528700
C461	C46	0.566600	0.408400	0.454700
H231	H23	0.558900	0.394500	0.415500
C471	C47	0.648300	0.352800	0.493400
H241	H24	0.696100	0.298700	0.482000
C481	C48	0.712600	0.946600	0.636400
C491	C49	0.630300	0.974200	0.586000
C501	C50	0.627400	0.081800	0.539400
H251	H25	0.670900	0.124500	0.544500
C511	C51	0.557200	0.107800	0.491400
H261	H26	0.545100	0.175000	0.464100
C521	C52	0.494700	0.955100	0.519100
C531	C53	0.569100	0.917900	0.579600
H271	H27	0.568700	0.856000	0.610300
C541	C54	0.986600	0.839000	0.726700
Pr41	Pr4	0.217340	0.626980	0.258150
O191	O19	0.363300	0.482300	0.303500
C551	C55	0.398000	0.398300	0.294300
Pr51	Pr5	0.187740	0.305610	0.276010
O201	O20	0.356400	0.333600	0.286400
C561	C56	0.515200	0.366500	0.292500
Pr61	Pr6	0.131460	0.901940	0.324890
O211	O21	0.097200	0.609700	0.176700
C571	C57	0.576900	0.438000	0.293800
H281	H28	0.543600	0.506000	0.295000
O221	O22	0.165000	0.440500	0.187600
C581	C58	0.683700	0.410700	0.293400
H291	H29	0.722400	0.458400	0.296700
O231	O23	0.364000	0.710900	0.258500
C591	C59	0.734200	0.312200	0.288000
O241	O24	0.153500	0.478300	0.316300
C601	C60	0.842000	0.284300	0.283900
H301	H30	0.882000	0.331200	0.286500
O251	O25	0.043800	0.707200	0.278800
C611	C61	0.889900	0.187300	0.276000
O261	O26	0.985500	0.834000	0.327200
C621	C62	0.832300	0.114500	0.274200
H311	H31	0.866500	0.047200	0.272200
O271	O27	0.181700	0.782600	0.174200
C631	C63	0.726400	0.141900	0.275300
H321	H32	0.687600	0.095000	0.270500
C641	C64	0.675000	0.238600	0.283600
O281	O28	0.104100	0.917300	0.218900
C651	C65	0.565700	0.268700	0.286800
H331	H33	0.526000	0.221000	0.285100
O291	O29	0.019900	0.415700	0.300800
C661	C66	0.109200	0.529000	0.158400
O301	O30	0.224400	0.670000	0.358800
C671	C67	0.059100	0.534900	0.098800
O311	O31	0.197200	0.772100	0.422100
C681	C68	0.078600	0.449200	0.074700
H341	H34	0.123000	0.386200	0.097100
O321	O32	0.282900	0.131400	0.318300
C691	C69	0.032200	0.457100	0.017500
O331	O33	0.301400	0.850300	0.289100
C701	C70	0.949000	0.632300	0.007900
H351	H35	0.905500	0.695400	0.985000
O341	O34	0.229200	0.993100	0.369800
C711	C71	0.992700	0.626600	0.063500
H361	H36	0.978400	0.685700	0.079200
O351	O35	0.050300	0.235600	0.260300
C721	C72	0.372500	0.773600	0.271300
O361	O36	0.046800	0.074400	0.268100
C731	C73	0.479800	0.797400	0.281300
C741	C74	0.560400	0.732200	0.260500
H371	H37	0.547800	0.681800	0.241700
C751	C75	0.666200	0.743100	0.268400
C761	C76	0.748600	0.676500	0.249100
H381	H38	0.736700	0.626200	0.230000
C771	C77	0.847500	0.685300	0.258300
H391	H39	0.904200	0.641400	0.244900
C781	C78	0.864400	0.759800	0.287900
C791	C79	0.782500	0.825800	0.306600
H401	H40	0.794800	0.876400	0.325400
C801	C80	0.681100	0.818000	0.297800
C811	C81	0.594800	0.884700	0.315200
H411	H41	0.605200	0.937800	0.332400
C821	C82	0.498500	0.874700	0.308000
H421	H42	0.442200	0.919800	0.320900
C831	C83	0.065200	0.462800	0.330400
C841	C84	0.020700	0.484300	0.390000
C851	C85	0.920800	0.468800	0.406400
H431	H43	0.878600	0.454400	0.377500
C861	C86	0.886300	0.475000	0.464300
H441	H44	0.818700	0.468300	0.474700
C871	C87	0.049000	0.509000	0.491700
C881	C88	0.080700	0.504600	0.431800
H451	H45	0.146300	0.516200	0.419900
C891	C89	0.975800	0.762300	0.306600
C901	C90	0.125800	0.866300	0.172500
C911	C91	0.077500	0.935100	0.110200
C921	C92	0.064400	0.889800	0.062500
H461	H46	0.089000	0.817500	0.069700
C931	C93	0.017800	0.945400	0.006000
C941	C94	0.993100	0.098400	0.042300
H471	H47	0.968600	0.170800	0.035000
C951	C95	0.037300	0.043000	0.100200
H481	H48	0.040900	0.075700	0.132400
C961	C96	0.247300	0.690900	0.408100
C971	C97	0.336700	0.625500	0.448900
C981	C98	0.405800	0.547400	0.432900
H491	H49	0.395000	0.533400	0.394200
C991	C99	0.492100	0.487200	0.471300
C1001	C100	0.433400	0.591600	0.545300
H501	H50	0.441100	0.605500	0.584500
C1011	C101	0.351700	0.647200	0.506600
H511	H51	0.303900	0.701300	0.518000
C1021	C102	0.287400	0.053400	0.363600
C1031	C103	0.369700	0.025800	0.414000
C1041	C104	0.372600	0.918200	0.460600
H521	H52	0.329100	0.875500	0.455500
C1051	C105	0.442800	0.892200	0.508600
H531	H53	0.454900	0.825000	0.535900
C1061	C106	0.505300	0.044900	0.480900
C1071	C107	0.430900	0.082100	0.420400
H541	H54	0.431300	0.144000	0.389700
C1081	C108	0.013400	0.161000	0.273300
