data_FOLLEZ_clean_PM
_symmetry_space_group_name_H-M	'P1'
_cell_length_a	17.616700
_cell_length_b	9.194600
_cell_length_c	10.700500
_cell_angle_alpha	90.000000
_cell_angle_beta	90.000000
_cell_angle_gamma	90.000000
_symmetry_Int_Tables_number 1

loop_
_symmetry_equiv_pos_as_xyz
'x,y,z'

loop_
_atom_site_label
_atom_site_type_symbol
_atom_site_fract_x
_atom_site_fract_y
_atom_site_fract_z
Cd11	Cd1	0.501040	0.786150	0.239000
Mg11	Mg1	0.470990	0.626700	0.707230
C11	C1	0.674700	0.559700	0.433300
O11	O1	0.930500	0.447600	0.622200
C21	C2	0.808400	0.436700	0.526000
O21	O2	0.934400	0.515300	0.342200
O31	O3	0.875600	0.233900	0.604400
C31	C3	0.876300	0.366900	0.586000
C41	C4	0.670700	0.452100	0.522800
O41	O4	0.564500	0.513700	0.640300
C51	C5	0.744700	0.607300	0.392000
H11	H1	0.746700	0.680700	0.332300
C61	C6	0.812500	0.548600	0.437300
C71	C7	0.737300	0.388300	0.565400
H21	H2	0.734400	0.311400	0.621700
C81	C8	0.885000	0.603300	0.379900
O51	O5	0.891600	0.738400	0.362800
O61	O6	0.508300	0.803900	0.606000
H31	H3	0.549700	0.785400	0.574700
C91	C9	0.596500	0.412500	0.586100
O71	O7	0.597100	0.764400	0.386200
C101	C10	0.604600	0.629100	0.376700
O81	O8	0.575000	0.283800	0.582700
O91	O9	0.556400	0.551100	0.319200
O101	O10	0.411000	0.549700	0.554500
H41	H4	0.438300	0.495600	0.513300
O111	O11	0.528900	0.719600	0.855900
H51	H5	0.572600	0.688900	0.857300
Cd21	Cd2	0.498960	0.213850	0.739000
Mg21	Mg2	0.529010	0.373300	0.207230
C111	C11	0.325300	0.440300	0.933300
O121	O12	0.069500	0.552400	0.122200
C121	C12	0.191600	0.563300	0.026000
O131	O13	0.065600	0.484700	0.842200
O141	O14	0.124400	0.766100	0.104400
C131	C13	0.123700	0.633100	0.086000
C141	C14	0.329300	0.547900	0.022800
O151	O15	0.435500	0.486300	0.140300
C151	C15	0.255300	0.392700	0.892000
H61	H6	0.253300	0.319300	0.832300
C161	C16	0.187500	0.451400	0.937300
C171	C17	0.262700	0.611700	0.065400
H71	H7	0.265600	0.688600	0.121700
C181	C18	0.115000	0.396700	0.879900
O161	O16	0.108400	0.261600	0.862800
O171	O17	0.491700	0.196100	0.106000
H81	H8	0.450300	0.214600	0.074700
C191	C19	0.403500	0.587500	0.086100
O181	O18	0.402900	0.235600	0.886200
C201	C20	0.395400	0.370900	0.876700
O191	O19	0.425000	0.716200	0.082700
O201	O20	0.443600	0.448900	0.819200
O211	O21	0.589000	0.450300	0.054500
H91	H9	0.561700	0.504400	0.013300
O221	O22	0.471100	0.280400	0.355900
H101	H10	0.427400	0.311100	0.357300
Cd31	Cd3	0.001040	0.713850	0.239000
Mg31	Mg3	0.970990	0.873300	0.707230
C211	C21	0.174700	0.940300	0.433300
O231	O23	0.430500	0.052400	0.622200
C221	C22	0.308400	0.063300	0.526000
O241	O24	0.434400	0.984700	0.342200
O251	O25	0.375600	0.266100	0.604400
C231	C23	0.376300	0.133100	0.586000
C241	C24	0.170700	0.047900	0.522800
O261	O26	0.064500	0.986300	0.640300
C251	C25	0.244700	0.892700	0.392000
H111	H11	0.246700	0.819300	0.332300
C261	C26	0.312500	0.951400	0.437300
C271	C27	0.237300	0.111700	0.565400
H121	H12	0.234400	0.188600	0.621700
C281	C28	0.385000	0.896700	0.379900
O271	O27	0.391600	0.761600	0.362800
O281	O28	0.008300	0.696100	0.606000
H131	H13	0.049700	0.714600	0.574700
C291	C29	0.096500	0.087500	0.586100
O291	O29	0.097100	0.735600	0.386200
C301	C30	0.104600	0.870900	0.376700
O301	O30	0.075000	0.216200	0.582700
O311	O31	0.056400	0.948900	0.319200
O321	O32	0.911000	0.950300	0.554500
H141	H14	0.938300	0.004400	0.513300
O331	O33	0.028900	0.780400	0.855900
H151	H15	0.072600	0.811100	0.857300
Cd41	Cd4	0.998960	0.286150	0.739000
Mg41	Mg4	0.029010	0.126700	0.207230
C311	C31	0.825300	0.059700	0.933300
O341	O34	0.569500	0.947600	0.122200
C321	C32	0.691600	0.936700	0.026000
O351	O35	0.565600	0.015300	0.842200
O361	O36	0.624400	0.733900	0.104400
C331	C33	0.623700	0.866900	0.086000
C341	C34	0.829300	0.952100	0.022800
O371	O37	0.935500	0.013700	0.140300
C351	C35	0.755300	0.107300	0.892000
H161	H16	0.753300	0.180700	0.832300
C361	C36	0.687500	0.048600	0.937300
C371	C37	0.762700	0.888300	0.065400
H171	H17	0.765600	0.811400	0.121700
C381	C38	0.615000	0.103300	0.879900
O381	O38	0.608400	0.238400	0.862800
O391	O39	0.991700	0.303900	0.106000
H181	H18	0.950300	0.285400	0.074700
C391	C39	0.903500	0.912500	0.086100
O401	O40	0.902900	0.264400	0.886200
C401	C40	0.895400	0.129100	0.876700
O411	O41	0.925000	0.783800	0.082700
O421	O42	0.943600	0.051100	0.819200
O431	O43	0.089000	0.049700	0.054500
H191	H19	0.061700	0.995600	0.013300
O441	O44	0.971100	0.219600	0.355900
H201	H20	0.927400	0.188900	0.357300
