data_FOPBAP_clean_PM
_symmetry_space_group_name_H-M	'P1'
_cell_length_a	16.646000
_cell_length_b	29.783000
_cell_length_c	17.274000
_cell_angle_alpha	90.000000
_cell_angle_beta	90.000000
_cell_angle_gamma	90.000000
_symmetry_Int_Tables_number 1

loop_
_symmetry_equiv_pos_as_xyz
'x,y,z'

loop_
_atom_site_label
_atom_site_type_symbol
_atom_site_fract_x
_atom_site_fract_y
_atom_site_fract_z
Cd11	Cd1	0.495830	0.249830	0.884060
Cd21	Cd2	0.249550	0.003560	0.134230
Cd31	Cd3	0.276870	0.245610	0.735110
N11	N1	0.491600	0.193700	0.789100
O11	O1	0.344400	0.254500	0.846400
C11	C1	0.008300	0.151400	0.192100
N21	N2	0.034400	0.170100	0.059900
C21	C2	0.473100	0.138100	0.889700
N31	N3	0.006900	0.194500	0.211000
C31	C3	0.048100	0.156900	0.986500
H11	H1	0.055800	0.178600	0.948400
N41	N4	0.458900	0.170300	0.938400
C41	C4	0.470500	0.094000	0.910500
H21	H2	0.479400	0.072600	0.872100
O21	O2	0.092300	0.265000	0.015600
C51	C5	0.245600	0.268000	0.945100
H31	H3	0.221000	0.293400	0.919200
H41	H4	0.216100	0.241300	0.929800
O31	O3	0.388800	0.268200	0.962600
O41	O4	0.351700	0.021800	0.223100
O51	O5	0.148300	0.988400	0.223100
N51	N5	0.245100	0.055400	0.032900
C61	C6	0.329700	0.263500	0.916600
C71	C7	0.153900	0.265900	0.058200
C81	C8	0.259300	0.097700	0.931100
N61	N6	0.213700	0.082800	0.184100
N71	N7	0.255600	0.053800	0.955000
O61	O6	0.142000	0.261300	0.130600
N81	N8	0.209600	0.174100	0.220200
O71	O7	0.399700	0.007500	0.105500
N91	N9	0.249400	0.127400	0.989300
C91	C9	0.273900	0.110100	0.850900
C101	C10	0.224400	0.160400	0.148500
H51	H5	0.234800	0.181600	0.110300
C111	C11	0.021400	0.138300	0.110200
C121	C12	0.239600	0.099400	0.052000
C131	C13	0.224700	0.115800	0.129200
C141	C14	0.197600	0.141600	0.275000
H61	H6	0.187500	0.149800	0.326000
C151	C15	0.023400	0.093400	0.089000
H71	H7	0.014500	0.072000	0.127200
N101	N10	0.037300	0.079400	0.018000
N111	N11	0.287600	0.076100	0.800300
N121	N12	0.456100	0.079500	0.981200
C161	C16	0.442600	0.156900	0.012700
H81	H8	0.433200	0.178500	0.050600
C171	C17	0.439800	0.112400	0.032300
H91	H9	0.426000	0.104500	0.082700
C181	C18	0.489800	0.150400	0.805500
C191	C19	0.051000	0.112300	0.966800
H101	H10	0.062900	0.104700	0.915900
C201	C20	0.112400	0.245600	0.723500
O81	O8	0.099200	0.995100	0.103800
C211	C21	0.236100	0.273900	0.027600
H111	H11	0.251800	0.304300	0.040700
H121	H12	0.272900	0.253700	0.053800
C221	C22	0.023700	0.245800	0.711700
H131	H13	0.008700	0.219600	0.681800
H141	H14	0.009100	0.272200	0.682000
O91	O9	0.145100	0.224900	0.780900
O101	O10	0.154600	0.265300	0.675600
C231	C23	0.200300	0.097100	0.255000
H151	H15	0.192100	0.075900	0.293600
N131	N13	0.289700	0.166300	0.755400
C241	C24	0.273500	0.154600	0.828600
H161	H16	0.261800	0.176700	0.864800
C251	C25	0.306300	0.133300	0.704300
H171	H17	0.319200	0.140600	0.653400
C261	C26	0.304000	0.087900	0.727800
H181	H18	0.314300	0.065600	0.691400
C271	C27	0.005200	0.981200	0.207300
H191	H19	0.972000	0.004900	0.185600
H201	H20	0.985400	0.952900	0.187100
C281	C28	0.497800	0.022300	0.203200
H211	H21	0.518700	0.050400	0.183000
H221	H22	0.530100	0.997900	0.182500
C291	C29	0.092500	0.988000	0.178800
C301	C30	0.408000	0.016300	0.178300
Cd41	Cd4	0.995830	0.749830	0.884060
Cd51	Cd5	0.749550	0.503560	0.134230
Cd61	Cd6	0.776870	0.745610	0.735110
N141	N14	0.991600	0.693700	0.789100
O111	O11	0.844400	0.754500	0.846400
C311	C31	0.508300	0.651400	0.192100
N151	N15	0.534400	0.670100	0.059900
C321	C32	0.973100	0.638100	0.889700
N161	N16	0.506900	0.694500	0.211000
C331	C33	0.548100	0.656900	0.986500
H231	H23	0.555800	0.678600	0.948400
N171	N17	0.958900	0.670300	0.938400
C341	C34	0.970500	0.594000	0.910500
H241	H24	0.979400	0.572600	0.872100
O121	O12	0.592300	0.765000	0.015600
C351	C35	0.745600	0.768000	0.945100
H251	H25	0.721000	0.793400	0.919200
H261	H26	0.716100	0.741300	0.929800
O131	O13	0.888800	0.768200	0.962600
O141	O14	0.851700	0.521800	0.223100
O151	O15	0.648300	0.488400	0.223100
N181	N18	0.745100	0.555400	0.032900
C361	C36	0.829700	0.763500	0.916600
C371	C37	0.653900	0.765900	0.058200
C381	C38	0.759300	0.597700	0.931100
N191	N19	0.713700	0.582800	0.184100
N201	N20	0.755600	0.553800	0.955000
O161	O16	0.642000	0.761300	0.130600
N211	N21	0.709600	0.674100	0.220200
O171	O17	0.899700	0.507500	0.105500
N221	N22	0.749400	0.627400	0.989300
C391	C39	0.773900	0.610100	0.850900
C401	C40	0.724400	0.660400	0.148500
H271	H27	0.734800	0.681600	0.110300
C411	C41	0.521400	0.638300	0.110200
C421	C42	0.739600	0.599400	0.052000
C431	C43	0.724700	0.615800	0.129200
C441	C44	0.697600	0.641600	0.275000
H281	H28	0.687500	0.649800	0.326000
C451	C45	0.523400	0.593400	0.089000
H291	H29	0.514500	0.572000	0.127200
N231	N23	0.537300	0.579400	0.018000
N241	N24	0.787600	0.576100	0.800300
N251	N25	0.956100	0.579500	0.981200
C461	C46	0.942600	0.656900	0.012700
H301	H30	0.933200	0.678500	0.050600
C471	C47	0.939800	0.612400	0.032300
H311	H31	0.926000	0.604500	0.082700
C481	C48	0.989800	0.650400	0.805500
C491	C49	0.551000	0.612300	0.966800
H321	H32	0.562900	0.604700	0.915900
C501	C50	0.612400	0.745600	0.723500
O181	O18	0.599200	0.495100	0.103800
C511	C51	0.736100	0.773900	0.027600
H331	H33	0.751800	0.804300	0.040700
H341	H34	0.772900	0.753700	0.053800
C521	C52	0.523700	0.745800	0.711700
H351	H35	0.508700	0.719600	0.681800
H361	H36	0.509100	0.772200	0.682000
O191	O19	0.645100	0.724900	0.780900
O201	O20	0.654600	0.765300	0.675600
C531	C53	0.700300	0.597100	0.255000
H371	H37	0.692100	0.575900	0.293600
N261	N26	0.789700	0.666300	0.755400
C541	C54	0.773500	0.654600	0.828600
H381	H38	0.761800	0.676700	0.864800
C551	C55	0.806300	0.633300	0.704300
H391	H39	0.819200	0.640600	0.653400
C561	C56	0.804000	0.587900	0.727800
H401	H40	0.814300	0.565600	0.691400
C571	C57	0.505200	0.481200	0.207300
H411	H41	0.472000	0.504900	0.185600
H421	H42	0.485400	0.452900	0.187100
C581	C58	0.997800	0.522300	0.203200
H431	H43	0.018700	0.550400	0.183000
H441	H44	0.030100	0.497900	0.182500
C591	C59	0.592500	0.488000	0.178800
C601	C60	0.908000	0.516300	0.178300
Cd71	Cd7	0.504170	0.750170	0.384060
Cd81	Cd8	0.750450	0.996440	0.634230
Cd91	Cd9	0.723130	0.754390	0.235110
N271	N27	0.508400	0.806300	0.289100
O211	O21	0.655600	0.745500	0.346400
C611	C61	0.991700	0.848600	0.692100
N281	N28	0.965600	0.829900	0.559900
C621	C62	0.526900	0.861900	0.389700
N291	N29	0.993100	0.805500	0.711000
C631	C63	0.951900	0.843100	0.486500
H451	H45	0.944200	0.821400	0.448400
N301	N30	0.541100	0.829700	0.438400
C641	C64	0.529500	0.906000	0.410500
H461	H46	0.520600	0.927400	0.372100
O221	O22	0.907700	0.735000	0.515600
C651	C65	0.754400	0.732000	0.445100
H471	H47	0.779000	0.706600	0.419200
H481	H48	0.783900	0.758700	0.429800
O231	O23	0.611200	0.731800	0.462600
O241	O24	0.648300	0.978200	0.723100
O251	O25	0.851700	0.011600	0.723100
N311	N31	0.754900	0.944600	0.532900
C661	C66	0.670300	0.736500	0.416600
C671	C67	0.846100	0.734100	0.558200
C681	C68	0.740700	0.902300	0.431100
N321	N32	0.786300	0.917200	0.684100
N331	N33	0.744400	0.946200	0.455000
O261	O26	0.858000	0.738700	0.630600
N341	N34	0.790400	0.825900	0.720200
O271	O27	0.600300	0.992500	0.605500
N351	N35	0.750600	0.872600	0.489300
C691	C69	0.726100	0.889900	0.350900
C701	C70	0.775600	0.839600	0.648500
H491	H49	0.765200	0.818400	0.610300
C711	C71	0.978600	0.861700	0.610200
C721	C72	0.760400	0.900600	0.552000
C731	C73	0.775300	0.884200	0.629200
C741	C74	0.802400	0.858400	0.775000
H501	H50	0.812500	0.850200	0.826000
C751	C75	0.976600	0.906600	0.589000
H511	H51	0.985500	0.928000	0.627200
N361	N36	0.962700	0.920600	0.518000
N371	N37	0.712400	0.923900	0.300300
N381	N38	0.543900	0.920500	0.481200
C761	C76	0.557400	0.843100	0.512700
H521	H52	0.566800	0.821500	0.550600
C771	C77	0.560200	0.887600	0.532300
H531	H53	0.574000	0.895500	0.582700
C781	C78	0.510200	0.849600	0.305500
C791	C79	0.949000	0.887700	0.466800
H541	H54	0.937100	0.895300	0.415900
C801	C80	0.887600	0.754400	0.223500
O281	O28	0.900800	0.004900	0.603800
C811	C81	0.763900	0.726100	0.527600
H551	H55	0.748200	0.695700	0.540700
H561	H56	0.727100	0.746300	0.553800
C821	C82	0.976300	0.754200	0.211700
H571	H57	0.991300	0.780400	0.181800
H581	H58	0.990900	0.727800	0.182000
O291	O29	0.854900	0.775100	0.280900
O301	O30	0.845400	0.734700	0.175600
C831	C83	0.799700	0.902900	0.755000
H591	H59	0.807900	0.924100	0.793600
N391	N39	0.710300	0.833700	0.255400
C841	C84	0.726500	0.845400	0.328600
H601	H60	0.738200	0.823300	0.364800
C851	C85	0.693700	0.866700	0.204300
H611	H61	0.680800	0.859400	0.153400
C861	C86	0.696000	0.912100	0.227800
H621	H62	0.685700	0.934400	0.191400
C871	C87	0.994800	0.018800	0.707300
H631	H63	0.028000	0.995100	0.685600
H641	H64	0.014600	0.047100	0.687100
C881	C88	0.502200	0.977700	0.703200
H651	H65	0.481300	0.949600	0.683000
H661	H66	0.469900	0.002100	0.682500
C891	C89	0.907500	0.012000	0.678800
C901	C90	0.592000	0.983700	0.678300
Cd101	Cd10	0.004170	0.250170	0.384060
Cd111	Cd11	0.250450	0.496440	0.634230
Cd121	Cd12	0.223130	0.254390	0.235110
N401	N40	0.008400	0.306300	0.289100
O311	O31	0.155600	0.245500	0.346400
C911	C91	0.491700	0.348600	0.692100
N411	N41	0.465600	0.329900	0.559900
C921	C92	0.026900	0.361900	0.389700
N421	N42	0.493100	0.305500	0.711000
C931	C93	0.451900	0.343100	0.486500
H671	H67	0.444200	0.321400	0.448400
N431	N43	0.041100	0.329700	0.438400
C941	C94	0.029500	0.406000	0.410500
H681	H68	0.020600	0.427400	0.372100
O321	O32	0.407700	0.235000	0.515600
C951	C95	0.254400	0.232000	0.445100
H691	H69	0.279000	0.206600	0.419200
H701	H70	0.283900	0.258700	0.429800
O331	O33	0.111200	0.231800	0.462600
O341	O34	0.148300	0.478200	0.723100
O351	O35	0.351700	0.511600	0.723100
N441	N44	0.254900	0.444600	0.532900
C961	C96	0.170300	0.236500	0.416600
C971	C97	0.346100	0.234100	0.558200
C981	C98	0.240700	0.402300	0.431100
N451	N45	0.286300	0.417200	0.684100
N461	N46	0.244400	0.446200	0.455000
O361	O36	0.358000	0.238700	0.630600
N471	N47	0.290400	0.325900	0.720200
O371	O37	0.100300	0.492500	0.605500
N481	N48	0.250600	0.372600	0.489300
C991	C99	0.226100	0.389900	0.350900
C1001	C100	0.275600	0.339600	0.648500
H711	H71	0.265200	0.318400	0.610300
C1011	C101	0.478600	0.361700	0.610200
C1021	C102	0.260400	0.400600	0.552000
C1031	C103	0.275300	0.384200	0.629200
C1041	C104	0.302400	0.358400	0.775000
H721	H72	0.312500	0.350200	0.826000
C1051	C105	0.476600	0.406600	0.589000
H731	H73	0.485500	0.428000	0.627200
N491	N49	0.462700	0.420600	0.518000
N501	N50	0.212400	0.423900	0.300300
N511	N51	0.043900	0.420500	0.481200
C1061	C106	0.057400	0.343100	0.512700
H741	H74	0.066800	0.321500	0.550600
C1071	C107	0.060200	0.387600	0.532300
H751	H75	0.074000	0.395500	0.582700
C1081	C108	0.010200	0.349600	0.305500
C1091	C109	0.449000	0.387700	0.466800
H761	H76	0.437100	0.395300	0.415900
C1101	C110	0.387600	0.254400	0.223500
O381	O38	0.400800	0.504900	0.603800
C1111	C111	0.263900	0.226100	0.527600
H771	H77	0.248200	0.195700	0.540700
H781	H78	0.227100	0.246300	0.553800
C1121	C112	0.476300	0.254200	0.211700
H791	H79	0.491300	0.280400	0.181800
H801	H80	0.490900	0.227800	0.182000
O391	O39	0.354900	0.275100	0.280900
O401	O40	0.345400	0.234700	0.175600
C1131	C113	0.299700	0.402900	0.755000
H811	H81	0.307900	0.424100	0.793600
N521	N52	0.210300	0.333700	0.255400
C1141	C114	0.226500	0.345400	0.328600
H821	H82	0.238200	0.323300	0.364800
C1151	C115	0.193700	0.366700	0.204300
H831	H83	0.180800	0.359400	0.153400
C1161	C116	0.196000	0.412100	0.227800
H841	H84	0.185700	0.434400	0.191400
C1171	C117	0.494800	0.518800	0.707300
H851	H85	0.528000	0.495100	0.685600
H861	H86	0.514600	0.547100	0.687100
C1181	C118	0.002200	0.477700	0.703200
H871	H87	0.981300	0.449600	0.683000
H881	H88	0.969900	0.502100	0.682500
C1191	C119	0.407500	0.512000	0.678800
C1201	C120	0.092000	0.483700	0.678300
Cd131	Cd13	0.504170	0.249830	0.615940
Cd141	Cd14	0.750450	0.003560	0.365770
Cd151	Cd15	0.723130	0.245610	0.764890
N531	N53	0.508400	0.193700	0.710900
O411	O41	0.655600	0.254500	0.653600
C1211	C121	0.991700	0.151400	0.307900
N541	N54	0.965600	0.170100	0.440100
C1221	C122	0.526900	0.138100	0.610300
N551	N55	0.993100	0.194500	0.289000
C1231	C123	0.951900	0.156900	0.513500
H891	H89	0.944200	0.178600	0.551600
N561	N56	0.541100	0.170300	0.561600
C1241	C124	0.529500	0.094000	0.589500
H901	H90	0.520600	0.072600	0.627900
O421	O42	0.907700	0.265000	0.484400
C1251	C125	0.754400	0.268000	0.554900
H911	H91	0.779000	0.293400	0.580800
H921	H92	0.783900	0.241300	0.570200
O431	O43	0.611200	0.268200	0.537400
O441	O44	0.648300	0.021800	0.276900
O451	O45	0.851700	0.988400	0.276900
N571	N57	0.754900	0.055400	0.467100
C1261	C126	0.670300	0.263500	0.583400
C1271	C127	0.846100	0.265900	0.441800
C1281	C128	0.740700	0.097700	0.568900
N581	N58	0.786300	0.082800	0.315900
N591	N59	0.744400	0.053800	0.545000
O461	O46	0.858000	0.261300	0.369400
N601	N60	0.790400	0.174100	0.279800
O471	O47	0.600300	0.007500	0.394500
N611	N61	0.750600	0.127400	0.510700
C1291	C129	0.726100	0.110100	0.649100
C1301	C130	0.775600	0.160400	0.351500
H931	H93	0.765200	0.181600	0.389700
C1311	C131	0.978600	0.138300	0.389800
C1321	C132	0.760400	0.099400	0.448000
C1331	C133	0.775300	0.115800	0.370800
C1341	C134	0.802400	0.141600	0.225000
H941	H94	0.812500	0.149800	0.174000
C1351	C135	0.976600	0.093400	0.411000
H951	H95	0.985500	0.072000	0.372800
N621	N62	0.962700	0.079400	0.482000
N631	N63	0.712400	0.076100	0.699700
N641	N64	0.543900	0.079500	0.518800
C1361	C136	0.557400	0.156900	0.487300
H961	H96	0.566800	0.178500	0.449400
C1371	C137	0.560200	0.112400	0.467700
H971	H97	0.574000	0.104500	0.417300
C1381	C138	0.510200	0.150400	0.694500
C1391	C139	0.949000	0.112300	0.533200
H981	H98	0.937100	0.104700	0.584100
C1401	C140	0.887600	0.245600	0.776500
O481	O48	0.900800	0.995100	0.396200
C1411	C141	0.763900	0.273900	0.472400
H991	H99	0.748200	0.304300	0.459300
H1001	H100	0.727100	0.253700	0.446200
C1421	C142	0.976300	0.245800	0.788300
H1011	H101	0.991300	0.219600	0.818200
H1021	H102	0.990900	0.272200	0.818000
O491	O49	0.854900	0.224900	0.719100
O501	O50	0.845400	0.265300	0.824400
C1431	C143	0.799700	0.097100	0.245000
H1031	H103	0.807900	0.075900	0.206400
N651	N65	0.710300	0.166300	0.744600
C1441	C144	0.726500	0.154600	0.671400
H1041	H104	0.738200	0.176700	0.635200
C1451	C145	0.693700	0.133300	0.795700
H1051	H105	0.680800	0.140600	0.846600
C1461	C146	0.696000	0.087900	0.772200
H1061	H106	0.685700	0.065600	0.808600
C1471	C147	0.994800	0.981200	0.292700
H1071	H107	0.028000	0.004900	0.314400
H1081	H108	0.014600	0.952900	0.312900
C1481	C148	0.502200	0.022300	0.296800
H1091	H109	0.481300	0.050400	0.317000
H1101	H110	0.469900	0.997900	0.317500
C1491	C149	0.907500	0.988000	0.321200
C1501	C150	0.592000	0.016300	0.321700
Cd161	Cd16	0.004170	0.749830	0.615940
Cd171	Cd17	0.250450	0.503560	0.365770
Cd181	Cd18	0.223130	0.745610	0.764890
N661	N66	0.008400	0.693700	0.710900
O511	O51	0.155600	0.754500	0.653600
C1511	C151	0.491700	0.651400	0.307900
N671	N67	0.465600	0.670100	0.440100
C1521	C152	0.026900	0.638100	0.610300
N681	N68	0.493100	0.694500	0.289000
C1531	C153	0.451900	0.656900	0.513500
H1111	H111	0.444200	0.678600	0.551600
N691	N69	0.041100	0.670300	0.561600
C1541	C154	0.029500	0.594000	0.589500
H1121	H112	0.020600	0.572600	0.627900
O521	O52	0.407700	0.765000	0.484400
C1551	C155	0.254400	0.768000	0.554900
H1131	H113	0.279000	0.793400	0.580800
H1141	H114	0.283900	0.741300	0.570200
O531	O53	0.111200	0.768200	0.537400
O541	O54	0.148300	0.521800	0.276900
O551	O55	0.351700	0.488400	0.276900
N701	N70	0.254900	0.555400	0.467100
C1561	C156	0.170300	0.763500	0.583400
C1571	C157	0.346100	0.765900	0.441800
C1581	C158	0.240700	0.597700	0.568900
N711	N71	0.286300	0.582800	0.315900
N721	N72	0.244400	0.553800	0.545000
O561	O56	0.358000	0.761300	0.369400
N731	N73	0.290400	0.674100	0.279800
O571	O57	0.100300	0.507500	0.394500
N741	N74	0.250600	0.627400	0.510700
C1591	C159	0.226100	0.610100	0.649100
C1601	C160	0.275600	0.660400	0.351500
H1151	H115	0.265200	0.681600	0.389700
C1611	C161	0.478600	0.638300	0.389800
C1621	C162	0.260400	0.599400	0.448000
C1631	C163	0.275300	0.615800	0.370800
C1641	C164	0.302400	0.641600	0.225000
H1161	H116	0.312500	0.649800	0.174000
C1651	C165	0.476600	0.593400	0.411000
H1171	H117	0.485500	0.572000	0.372800
N751	N75	0.462700	0.579400	0.482000
N761	N76	0.212400	0.576100	0.699700
N771	N77	0.043900	0.579500	0.518800
C1661	C166	0.057400	0.656900	0.487300
H1181	H118	0.066800	0.678500	0.449400
C1671	C167	0.060200	0.612400	0.467700
H1191	H119	0.074000	0.604500	0.417300
C1681	C168	0.010200	0.650400	0.694500
C1691	C169	0.449000	0.612300	0.533200
H1201	H120	0.437100	0.604700	0.584100
C1701	C170	0.387600	0.745600	0.776500
O581	O58	0.400800	0.495100	0.396200
C1711	C171	0.263900	0.773900	0.472400
H1211	H121	0.248200	0.804300	0.459300
H1221	H122	0.227100	0.753700	0.446200
C1721	C172	0.476300	0.745800	0.788300
H1231	H123	0.491300	0.719600	0.818200
H1241	H124	0.490900	0.772200	0.818000
O591	O59	0.354900	0.724900	0.719100
O601	O60	0.345400	0.765300	0.824400
C1731	C173	0.299700	0.597100	0.245000
H1251	H125	0.307900	0.575900	0.206400
N781	N78	0.210300	0.666300	0.744600
C1741	C174	0.226500	0.654600	0.671400
H1261	H126	0.238200	0.676700	0.635200
C1751	C175	0.193700	0.633300	0.795700
H1271	H127	0.180800	0.640600	0.846600
C1761	C176	0.196000	0.587900	0.772200
H1281	H128	0.185700	0.565600	0.808600
C1771	C177	0.494800	0.481200	0.292700
H1291	H129	0.528000	0.504900	0.314400
H1301	H130	0.514600	0.452900	0.312900
C1781	C178	0.002200	0.522300	0.296800
H1311	H131	0.981300	0.550400	0.317000
H1321	H132	0.969900	0.497900	0.317500
C1791	C179	0.407500	0.488000	0.321200
C1801	C180	0.092000	0.516300	0.321700
Cd191	Cd19	0.495830	0.750170	0.115940
Cd201	Cd20	0.249550	0.996440	0.865770
Cd211	Cd21	0.276870	0.754390	0.264890
N791	N79	0.491600	0.806300	0.210900
O611	O61	0.344400	0.745500	0.153600
C1811	C181	0.008300	0.848600	0.807900
N801	N80	0.034400	0.829900	0.940100
C1821	C182	0.473100	0.861900	0.110300
N811	N81	0.006900	0.805500	0.789000
C1831	C183	0.048100	0.843100	0.013500
H1331	H133	0.055800	0.821400	0.051600
N821	N82	0.458900	0.829700	0.061600
C1841	C184	0.470500	0.906000	0.089500
H1341	H134	0.479400	0.927400	0.127900
O621	O62	0.092300	0.735000	0.984400
C1851	C185	0.245600	0.732000	0.054900
H1351	H135	0.221000	0.706600	0.080800
H1361	H136	0.216100	0.758700	0.070200
O631	O63	0.388800	0.731800	0.037400
O641	O64	0.351700	0.978200	0.776900
O651	O65	0.148300	0.011600	0.776900
N831	N83	0.245100	0.944600	0.967100
C1861	C186	0.329700	0.736500	0.083400
C1871	C187	0.153900	0.734100	0.941800
C1881	C188	0.259300	0.902300	0.068900
N841	N84	0.213700	0.917200	0.815900
N851	N85	0.255600	0.946200	0.045000
O661	O66	0.142000	0.738700	0.869400
N861	N86	0.209600	0.825900	0.779800
O671	O67	0.399700	0.992500	0.894500
N871	N87	0.249400	0.872600	0.010700
C1891	C189	0.273900	0.889900	0.149100
C1901	C190	0.224400	0.839600	0.851500
H1371	H137	0.234800	0.818400	0.889700
C1911	C191	0.021400	0.861700	0.889800
C1921	C192	0.239600	0.900600	0.948000
C1931	C193	0.224700	0.884200	0.870800
C1941	C194	0.197600	0.858400	0.725000
H1381	H138	0.187500	0.850200	0.674000
C1951	C195	0.023400	0.906600	0.911000
H1391	H139	0.014500	0.928000	0.872800
N881	N88	0.037300	0.920600	0.982000
N891	N89	0.287600	0.923900	0.199700
N901	N90	0.456100	0.920500	0.018800
C1961	C196	0.442600	0.843100	0.987300
H1401	H140	0.433200	0.821500	0.949400
C1971	C197	0.439800	0.887600	0.967700
H1411	H141	0.426000	0.895500	0.917300
C1981	C198	0.489800	0.849600	0.194500
C1991	C199	0.051000	0.887700	0.033200
H1421	H142	0.062900	0.895300	0.084100
C2001	C200	0.112400	0.754400	0.276500
O681	O68	0.099200	0.004900	0.896200
C2011	C201	0.236100	0.726100	0.972400
H1431	H143	0.251800	0.695700	0.959300
H1441	H144	0.272900	0.746300	0.946200
C2021	C202	0.023700	0.754200	0.288300
H1451	H145	0.008700	0.780400	0.318200
H1461	H146	0.009100	0.727800	0.318000
O691	O69	0.145100	0.775100	0.219100
O701	O70	0.154600	0.734700	0.324400
C2031	C203	0.200300	0.902900	0.745000
H1471	H147	0.192100	0.924100	0.706400
N911	N91	0.289700	0.833700	0.244600
C2041	C204	0.273500	0.845400	0.171400
H1481	H148	0.261800	0.823300	0.135200
C2051	C205	0.306300	0.866700	0.295700
H1491	H149	0.319200	0.859400	0.346600
C2061	C206	0.304000	0.912100	0.272200
H1501	H150	0.314300	0.934400	0.308600
C2071	C207	0.005200	0.018800	0.792700
H1511	H151	0.972000	0.995100	0.814400
H1521	H152	0.985400	0.047100	0.812900
C2081	C208	0.497800	0.977700	0.796800
H1531	H153	0.518700	0.949600	0.817000
H1541	H154	0.530100	0.002100	0.817500
C2091	C209	0.092500	0.012000	0.821200
C2101	C210	0.408000	0.983700	0.821700
Cd221	Cd22	0.995830	0.250170	0.115940
Cd231	Cd23	0.749550	0.496440	0.865770
Cd241	Cd24	0.776870	0.254390	0.264890
N921	N92	0.991600	0.306300	0.210900
O711	O71	0.844400	0.245500	0.153600
C2111	C211	0.508300	0.348600	0.807900
N931	N93	0.534400	0.329900	0.940100
C2121	C212	0.973100	0.361900	0.110300
N941	N94	0.506900	0.305500	0.789000
C2131	C213	0.548100	0.343100	0.013500
H1551	H155	0.555800	0.321400	0.051600
N951	N95	0.958900	0.329700	0.061600
C2141	C214	0.970500	0.406000	0.089500
H1561	H156	0.979400	0.427400	0.127900
O721	O72	0.592300	0.235000	0.984400
C2151	C215	0.745600	0.232000	0.054900
H1571	H157	0.721000	0.206600	0.080800
H1581	H158	0.716100	0.258700	0.070200
O731	O73	0.888800	0.231800	0.037400
O741	O74	0.851700	0.478200	0.776900
O751	O75	0.648300	0.511600	0.776900
N961	N96	0.745100	0.444600	0.967100
C2161	C216	0.829700	0.236500	0.083400
C2171	C217	0.653900	0.234100	0.941800
C2181	C218	0.759300	0.402300	0.068900
N971	N97	0.713700	0.417200	0.815900
N981	N98	0.755600	0.446200	0.045000
O761	O76	0.642000	0.238700	0.869400
N991	N99	0.709600	0.325900	0.779800
O771	O77	0.899700	0.492500	0.894500
N1001	N100	0.749400	0.372600	0.010700
C2191	C219	0.773900	0.389900	0.149100
C2201	C220	0.724400	0.339600	0.851500
H1591	H159	0.734800	0.318400	0.889700
C2211	C221	0.521400	0.361700	0.889800
C2221	C222	0.739600	0.400600	0.948000
C2231	C223	0.724700	0.384200	0.870800
C2241	C224	0.697600	0.358400	0.725000
H1601	H160	0.687500	0.350200	0.674000
C2251	C225	0.523400	0.406600	0.911000
H1611	H161	0.514500	0.428000	0.872800
N1011	N101	0.537300	0.420600	0.982000
N1021	N102	0.787600	0.423900	0.199700
N1031	N103	0.956100	0.420500	0.018800
C2261	C226	0.942600	0.343100	0.987300
H1621	H162	0.933200	0.321500	0.949400
C2271	C227	0.939800	0.387600	0.967700
H1631	H163	0.926000	0.395500	0.917300
C2281	C228	0.989800	0.349600	0.194500
C2291	C229	0.551000	0.387700	0.033200
H1641	H164	0.562900	0.395300	0.084100
C2301	C230	0.612400	0.254400	0.276500
O781	O78	0.599200	0.504900	0.896200
C2311	C231	0.736100	0.226100	0.972400
H1651	H165	0.751800	0.195700	0.959300
H1661	H166	0.772900	0.246300	0.946200
C2321	C232	0.523700	0.254200	0.288300
H1671	H167	0.508700	0.280400	0.318200
H1681	H168	0.509100	0.227800	0.318000
O791	O79	0.645100	0.275100	0.219100
O801	O80	0.654600	0.234700	0.324400
C2331	C233	0.700300	0.402900	0.745000
H1691	H169	0.692100	0.424100	0.706400
N1041	N104	0.789700	0.333700	0.244600
C2341	C234	0.773500	0.345400	0.171400
H1701	H170	0.761800	0.323300	0.135200
C2351	C235	0.806300	0.366700	0.295700
H1711	H171	0.819200	0.359400	0.346600
C2361	C236	0.804000	0.412100	0.272200
H1721	H172	0.814300	0.434400	0.308600
C2371	C237	0.505200	0.518800	0.792700
H1731	H173	0.472000	0.495100	0.814400
H1741	H174	0.485400	0.547100	0.812900
C2381	C238	0.997800	0.477700	0.796800
H1751	H175	0.018700	0.449600	0.817000
H1761	H176	0.030100	0.502100	0.817500
C2391	C239	0.592500	0.512000	0.821200
C2401	C240	0.908000	0.483700	0.821700
Cd251	Cd25	0.471690	0.000000	0.000000
Cd261	Cd26	0.025450	0.000000	0.000000
Cd271	Cd27	0.971690	0.500000	0.000000
Cd281	Cd28	0.525450	0.500000	0.000000
Cd291	Cd29	0.528310	0.000000	0.500000
Cd301	Cd30	0.974550	0.000000	0.500000
Cd311	Cd31	0.028310	0.500000	0.500000
Cd321	Cd32	0.474550	0.500000	0.500000
N1051	N105	0.000000	0.122600	0.250000
N1061	N106	0.500000	0.622600	0.250000
N1071	N107	0.000000	0.877400	0.750000
N1081	N108	0.500000	0.377400	0.750000
N1091	N109	0.500000	0.121900	0.750000
N1101	N110	0.000000	0.621900	0.750000
N1111	N111	0.500000	0.878100	0.250000
N1121	N112	0.000000	0.378100	0.250000
