data_FOQPAE_clean_PM
_symmetry_space_group_name_H-M	'P1'
_cell_length_a	15.348000
_cell_length_b	32.866000
_cell_length_c	10.112200
_cell_angle_alpha	90.000000
_cell_angle_beta	106.642000
_cell_angle_gamma	90.000000
_symmetry_Int_Tables_number 1

loop_
_symmetry_equiv_pos_as_xyz
'x,y,z'

loop_
_atom_site_label
_atom_site_type_symbol
_atom_site_fract_x
_atom_site_fract_y
_atom_site_fract_z
Cu11	Cu1	0.154880	0.274670	0.460820
Cu21	Cu2	0.008230	0.217210	0.483990
Cu31	Cu3	0.081220	0.216670	0.225640
O11	O1	0.118700	0.218280	0.425400
H11	H1	0.158900	0.200900	0.464500
O21	O2	0.033000	0.157840	0.235300
O31	O3	0.973100	0.162480	0.415000
O41	O4	0.206700	0.228300	0.213200
O51	O5	0.263600	0.267130	0.401200
O61	O6	0.045300	0.225090	0.028900
H21	H2	0.005200	0.208200	0.985900
O71	O7	0.538600	0.340400	0.429100
O81	O8	0.645700	0.307800	0.401400
O91	O9	0.503600	0.309700	0.019000
O101	O10	0.611800	0.340800	0.977000
O111	O11	0.757900	0.999900	0.342200
O121	O12	0.801000	0.040100	0.490800
O131	O13	0.779900	0.015400	0.018400
O141	O14	0.814300	0.971400	0.880600
O151	O15	0.902300	0.278690	0.048800
O161	O16	0.955600	0.239740	0.236700
O171	O17	0.900500	0.819480	0.268300
O181	O18	0.836100	0.832670	0.046500
C11	C1	0.992900	0.143770	0.317000
C21	C2	0.966100	0.099780	0.300000
C31	C3	0.010900	0.073200	0.236900
H31	H3	0.058000	0.082800	0.204500
C41	C4	0.987300	0.032700	0.220700
H41	H4	0.020400	0.015300	0.181000
C51	C5	0.915500	0.017400	0.262200
C61	C6	0.870700	0.044900	0.325100
C71	C7	0.896700	0.084800	0.345500
H51	H5	0.866700	0.101900	0.391100
C81	C8	0.892900	0.973000	0.239800
C91	C9	0.850700	0.956400	0.110400
C101	C10	0.842000	0.915100	0.088200
H61	H6	0.813000	0.905200	0.000500
C111	C11	0.876100	0.888600	0.194700
C121	C12	0.921600	0.904300	0.323800
H71	H7	0.947000	0.886600	0.396600
C131	C13	0.929600	0.946100	0.345200
H81	H8	0.960200	0.956000	0.432300
C141	C14	0.871000	0.843300	0.171000
C151	C15	0.269500	0.247670	0.296700
C161	C16	0.360600	0.248300	0.270400
C171	C17	0.418200	0.280500	0.322900
H91	H9	0.400600	0.300800	0.373700
C181	C18	0.502300	0.282000	0.298800
C191	C19	0.531700	0.252200	0.221800
C201	C20	0.473300	0.219800	0.176000
H101	H10	0.491300	0.198700	0.128600
C211	C21	0.388800	0.218100	0.198900
H111	H11	0.350600	0.196200	0.165200
C221	C22	0.621500	0.253400	0.190700
C231	C23	0.685200	0.223500	0.247000
H121	H12	0.668400	0.202000	0.294200
C241	C24	0.772600	0.224500	0.235400
H131	H13	0.814000	0.204500	0.277600
C251	C25	0.798800	0.255200	0.161300
C261	C26	0.734000	0.284400	0.097100
H141	H14	0.749600	0.304600	0.043800
C271	C27	0.648200	0.283400	0.111600
C281	C28	0.893800	0.257940	0.149700
N11	N1	0.791700	0.032600	0.370400
N21	N2	0.563700	0.315300	0.362800
N31	N3	0.584300	0.314100	0.037900
N41	N4	0.812300	0.983500	0.993000
O191	O19	0.597300	0.337300	0.295000
O201	O20	0.739100	0.058300	0.389000
Cu41	Cu4	0.845120	0.774670	0.039180
Cu51	Cu5	0.991770	0.717210	0.016010
Cu61	Cu6	0.918780	0.716670	0.274360
O211	O21	0.881300	0.718280	0.074600
H151	H15	0.841100	0.700900	0.035500
O221	O22	0.967000	0.657840	0.264700
O231	O23	0.026900	0.662480	0.085000
O241	O24	0.793300	0.728300	0.286800
O251	O25	0.736400	0.767130	0.098800
O261	O26	0.954700	0.725090	0.471100
H161	H16	0.994800	0.708200	0.514100
O271	O27	0.461400	0.840400	0.070900
O281	O28	0.354300	0.807800	0.098600
O291	O29	0.496400	0.809700	0.481000
O301	O30	0.388200	0.840800	0.523000
O311	O31	0.242100	0.499900	0.157800
O321	O32	0.199000	0.540100	0.009200
O331	O33	0.220100	0.515400	0.481600
O341	O34	0.185700	0.471400	0.619400
O351	O35	0.097700	0.778690	0.451200
O361	O36	0.044400	0.739740	0.263300
O371	O37	0.099500	0.319480	0.231700
O381	O38	0.163900	0.332670	0.453500
C291	C29	0.007100	0.643770	0.183000
C301	C30	0.033900	0.599780	0.200000
C311	C31	0.989100	0.573200	0.263100
H171	H17	0.942000	0.582800	0.295500
C321	C32	0.012700	0.532700	0.279300
H181	H18	0.979600	0.515300	0.319000
C331	C33	0.084500	0.517400	0.237800
C341	C34	0.129300	0.544900	0.174900
C351	C35	0.103300	0.584800	0.154500
H191	H19	0.133300	0.601900	0.108900
C361	C36	0.107100	0.473000	0.260200
C371	C37	0.149300	0.456400	0.389600
C381	C38	0.158000	0.415100	0.411800
H201	H20	0.187000	0.405200	0.499500
C391	C39	0.123900	0.388600	0.305300
C401	C40	0.078400	0.404300	0.176200
H211	H21	0.053000	0.386600	0.103400
C411	C41	0.070400	0.446100	0.154800
H221	H22	0.039800	0.456000	0.067700
C421	C42	0.129000	0.343300	0.329000
C431	C43	0.730500	0.747670	0.203300
C441	C44	0.639400	0.748300	0.229600
C451	C45	0.581800	0.780500	0.177100
H231	H23	0.599400	0.800800	0.126300
C461	C46	0.497700	0.782000	0.201200
C471	C47	0.468300	0.752200	0.278200
C481	C48	0.526700	0.719800	0.324000
H241	H24	0.508700	0.698700	0.371400
C491	C49	0.611200	0.718100	0.301100
H251	H25	0.649400	0.696200	0.334800
C501	C50	0.378500	0.753400	0.309300
C511	C51	0.314800	0.723500	0.253000
H261	H26	0.331600	0.702000	0.205800
C521	C52	0.227400	0.724500	0.264600
H271	H27	0.186000	0.704500	0.222400
C531	C53	0.201200	0.755200	0.338700
C541	C54	0.266000	0.784400	0.402900
H281	H28	0.250400	0.804600	0.456200
C551	C55	0.351800	0.783400	0.388400
C561	C56	0.106200	0.757940	0.350300
N51	N5	0.208300	0.532600	0.129600
N61	N6	0.436300	0.815300	0.137200
N71	N7	0.415700	0.814100	0.462100
N81	N8	0.187700	0.483500	0.507000
O391	O39	0.402700	0.837300	0.205000
O401	O40	0.260900	0.558300	0.111000
Cu71	Cu7	0.845120	0.725330	0.539180
Cu81	Cu8	0.991770	0.782790	0.516010
Cu91	Cu9	0.918780	0.783330	0.774360
O411	O41	0.881300	0.781720	0.574600
H291	H29	0.841100	0.799100	0.535500
O421	O42	0.967000	0.842160	0.764700
O431	O43	0.026900	0.837520	0.585000
O441	O44	0.793300	0.771700	0.786800
O451	O45	0.736400	0.732870	0.598800
O461	O46	0.954700	0.774910	0.971100
H301	H30	0.994800	0.791800	0.014100
O471	O47	0.461400	0.659600	0.570900
O481	O48	0.354300	0.692200	0.598600
O491	O49	0.496400	0.690300	0.981000
O501	O50	0.388200	0.659200	0.023000
O511	O51	0.242100	0.000100	0.657800
O521	O52	0.199000	0.959900	0.509200
O531	O53	0.220100	0.984600	0.981600
O541	O54	0.185700	0.028600	0.119400
O551	O55	0.097700	0.721310	0.951200
O561	O56	0.044400	0.760260	0.763300
O571	O57	0.099500	0.180520	0.731700
O581	O58	0.163900	0.167330	0.953500
C571	C57	0.007100	0.856230	0.683000
C581	C58	0.033900	0.900220	0.700000
C591	C59	0.989100	0.926800	0.763100
H311	H31	0.942000	0.917200	0.795500
C601	C60	0.012700	0.967300	0.779300
H321	H32	0.979600	0.984700	0.819000
C611	C61	0.084500	0.982600	0.737800
C621	C62	0.129300	0.955100	0.674900
C631	C63	0.103300	0.915200	0.654500
H331	H33	0.133300	0.898100	0.608900
C641	C64	0.107100	0.027000	0.760200
C651	C65	0.149300	0.043600	0.889600
C661	C66	0.158000	0.084900	0.911800
H341	H34	0.187000	0.094800	0.999500
C671	C67	0.123900	0.111400	0.805300
C681	C68	0.078400	0.095700	0.676200
H351	H35	0.053000	0.113400	0.603400
C691	C69	0.070400	0.053900	0.654800
H361	H36	0.039800	0.044000	0.567700
C701	C70	0.129000	0.156700	0.829000
C711	C71	0.730500	0.752330	0.703300
C721	C72	0.639400	0.751700	0.729600
C731	C73	0.581800	0.719500	0.677100
H371	H37	0.599400	0.699200	0.626300
C741	C74	0.497700	0.718000	0.701200
C751	C75	0.468300	0.747800	0.778200
C761	C76	0.526700	0.780200	0.824000
H381	H38	0.508700	0.801300	0.871400
C771	C77	0.611200	0.781900	0.801100
H391	H39	0.649400	0.803800	0.834800
C781	C78	0.378500	0.746600	0.809300
C791	C79	0.314800	0.776500	0.753000
H401	H40	0.331600	0.798000	0.705800
C801	C80	0.227400	0.775500	0.764600
H411	H41	0.186000	0.795500	0.722400
C811	C81	0.201200	0.744800	0.838700
C821	C82	0.266000	0.715600	0.902900
H421	H42	0.250400	0.695400	0.956200
C831	C83	0.351800	0.716600	0.888400
C841	C84	0.106200	0.742060	0.850300
N91	N9	0.208300	0.967400	0.629600
N101	N10	0.436300	0.684700	0.637200
N111	N11	0.415700	0.685900	0.962100
N121	N12	0.187700	0.016500	0.007000
O591	O59	0.402700	0.662700	0.705000
O601	O60	0.260900	0.941700	0.611000
Cu101	Cu10	0.154880	0.225330	0.960820
Cu111	Cu11	0.008230	0.282790	0.983990
Cu121	Cu12	0.081220	0.283330	0.725640
O611	O61	0.118700	0.281720	0.925400
H431	H43	0.158900	0.299100	0.964500
O621	O62	0.033000	0.342160	0.735300
O631	O63	0.973100	0.337520	0.915000
O641	O64	0.206700	0.271700	0.713200
O651	O65	0.263600	0.232870	0.901200
O661	O66	0.045300	0.274910	0.528900
H441	H44	0.005200	0.291800	0.485900
O671	O67	0.538600	0.159600	0.929100
O681	O68	0.645700	0.192200	0.901400
O691	O69	0.503600	0.190300	0.519000
O701	O70	0.611800	0.159200	0.477000
O711	O71	0.757900	0.500100	0.842200
O721	O72	0.801000	0.459900	0.990800
O731	O73	0.779900	0.484600	0.518400
O741	O74	0.814300	0.528600	0.380600
O751	O75	0.902300	0.221310	0.548800
O761	O76	0.955600	0.260260	0.736700
O771	O77	0.900500	0.680520	0.768300
O781	O78	0.836100	0.667330	0.546500
C851	C85	0.992900	0.356230	0.817000
C861	C86	0.966100	0.400220	0.800000
C871	C87	0.010900	0.426800	0.736900
H451	H45	0.058000	0.417200	0.704500
C881	C88	0.987300	0.467300	0.720700
H461	H46	0.020400	0.484700	0.681000
C891	C89	0.915500	0.482600	0.762200
C901	C90	0.870700	0.455100	0.825100
C911	C91	0.896700	0.415200	0.845500
H471	H47	0.866700	0.398100	0.891100
C921	C92	0.892900	0.527000	0.739800
C931	C93	0.850700	0.543600	0.610400
C941	C94	0.842000	0.584900	0.588200
H481	H48	0.813000	0.594800	0.500500
C951	C95	0.876100	0.611400	0.694700
C961	C96	0.921600	0.595700	0.823800
H491	H49	0.947000	0.613400	0.896600
C971	C97	0.929600	0.553900	0.845200
H501	H50	0.960200	0.544000	0.932300
C981	C98	0.871000	0.656700	0.671000
C991	C99	0.269500	0.252330	0.796700
C1001	C100	0.360600	0.251700	0.770400
C1011	C101	0.418200	0.219500	0.822900
H511	H51	0.400600	0.199200	0.873700
C1021	C102	0.502300	0.218000	0.798800
C1031	C103	0.531700	0.247800	0.721800
C1041	C104	0.473300	0.280200	0.676000
H521	H52	0.491300	0.301300	0.628600
C1051	C105	0.388800	0.281900	0.698900
H531	H53	0.350600	0.303800	0.665200
C1061	C106	0.621500	0.246600	0.690700
C1071	C107	0.685200	0.276500	0.747000
H541	H54	0.668400	0.298000	0.794200
C1081	C108	0.772600	0.275500	0.735400
H551	H55	0.814000	0.295500	0.777600
C1091	C109	0.798800	0.244800	0.661300
C1101	C110	0.734000	0.215600	0.597100
H561	H56	0.749600	0.195400	0.543800
C1111	C111	0.648200	0.216600	0.611600
C1121	C112	0.893800	0.242060	0.649700
N131	N13	0.791700	0.467400	0.870400
N141	N14	0.563700	0.184700	0.862800
N151	N15	0.584300	0.185900	0.537900
N161	N16	0.812300	0.516500	0.493000
O791	O79	0.597300	0.162700	0.795000
O801	O80	0.739100	0.441700	0.889000
