data_FOQSUA_charged_PM
_symmetry_space_group_name_H-M	'P1'
_cell_length_a	7.215800
_cell_length_b	9.897400
_cell_length_c	10.811600
_cell_angle_alpha	112.950000
_cell_angle_beta	103.929000
_cell_angle_gamma	101.721000
_symmetry_Int_Tables_number 1

loop_
_symmetry_equiv_pos_as_xyz
'x,y,z'

loop_
_atom_site_label
_atom_site_type_symbol
_atom_site_fract_x
_atom_site_fract_y
_atom_site_fract_z
Cu11	Cu1	0.228310	0.978310	0.956620
Cu21	Cu2	0.771690	0.021690	0.043380
H11	H1	0.968700	0.664700	0.665400
H21	H2	0.510000	0.672600	0.799800
H31	H3	0.472700	0.406400	0.570200
H41	H4	0.645900	0.423200	0.505000
H51	H5	0.196700	0.000700	0.665400
H61	H6	0.789800	0.127200	0.799800
H71	H7	0.597500	0.163800	0.570200
H81	H8	0.359100	0.081800	0.505000
H91	H9	0.031300	0.335300	0.334600
H101	H10	0.490000	0.327400	0.200200
H111	H11	0.527300	0.593600	0.429800
H121	H12	0.354100	0.576800	0.495000
H131	H13	0.803300	0.999300	0.334600
H141	H14	0.210200	0.872800	0.200200
H151	H15	0.402500	0.836200	0.429800
H161	H16	0.640900	0.918200	0.495000
C11	C1	0.889020	0.694720	0.721440
C21	C2	0.639640	0.699440	0.794880
C31	C3	0.562310	0.477410	0.550220
C41	C4	0.332420	0.026720	0.721440
C51	C5	0.655240	0.095440	0.794880
C61	C6	0.487910	0.072810	0.550220
C71	C7	0.110980	0.305280	0.278560
C81	C8	0.360360	0.300560	0.205120
C91	C9	0.437690	0.522590	0.449780
C101	C10	0.667580	0.973280	0.278560
C111	C11	0.344760	0.904560	0.205120
C121	C12	0.512090	0.927190	0.449780
N11	N1	0.952960	0.818560	0.845400
N21	N2	0.791530	0.821730	0.892740
N31	N3	0.692920	0.616120	0.685240
N41	N4	0.392440	0.026840	0.845400
N51	N5	0.601210	0.071010	0.892740
N61	N6	0.492320	0.069120	0.685240
N71	N7	0.047040	0.181440	0.154600
N81	N8	0.208470	0.178270	0.107260
N91	N9	0.307080	0.383880	0.314760
N101	N10	0.607560	0.973160	0.154600
N111	N11	0.398790	0.928990	0.107260
N121	N12	0.507680	0.930880	0.314760
Cl11	Cl1	0.069680	0.319680	0.639360
O11	O1	0.891100	0.318600	0.531000
O21	O2	0.006900	0.276900	0.721400
O31	O3	0.139900	0.212400	0.531000
O41	O4	0.214500	0.444500	0.721400
Cl21	Cl2	0.930320	0.680320	0.360640
O51	O5	0.108900	0.681400	0.469000
O61	O6	0.993100	0.723100	0.278600
O71	O7	0.860100	0.787600	0.469000
O81	O8	0.785500	0.555500	0.278600
