data_FORPOS_clean_PM
_symmetry_space_group_name_H-M	'P1'
_cell_length_a	30.753000
_cell_length_b	15.728500
_cell_length_c	22.119000
_cell_angle_alpha	90.000000
_cell_angle_beta	133.118000
_cell_angle_gamma	90.000000
_symmetry_Int_Tables_number 1

loop_
_symmetry_equiv_pos_as_xyz
'x,y,z'

loop_
_atom_site_label
_atom_site_type_symbol
_atom_site_fract_x
_atom_site_fract_y
_atom_site_fract_z
Ce11	Ce1	0.890050	0.636920	0.327430
Ce21	Ce2	0.830610	0.628470	0.985770
N11	N1	0.838600	0.496400	0.242700
N21	N2	0.633400	0.731400	0.035400
O11	O1	0.865500	0.527200	0.381500
O21	O2	0.826100	0.402600	0.373900
O31	O3	0.875800	0.615400	0.203300
O41	O4	0.840500	0.546800	0.090400
O51	O5	0.747600	0.766200	0.127400
O61	O6	0.777000	0.650800	0.205800
O71	O7	0.559400	0.853700	0.931100
O81	O8	0.481000	0.782000	0.887800
C11	C1	0.838600	0.460000	0.346300
C21	C2	0.815000	0.442800	0.261800
C31	C3	0.775600	0.382000	0.208300
H11	H1	0.760300	0.345800	0.223300
C41	C4	0.757300	0.372700	0.131200
H21	H2	0.727500	0.334700	0.091800
C51	C5	0.786200	0.423500	0.116500
H31	H3	0.778900	0.415300	0.068600
C61	C6	0.825900	0.486500	0.172200
C71	C7	0.848900	0.551900	0.153600
C81	C8	0.737500	0.698500	0.146700
C91	C9	0.674500	0.676300	0.095900
C101	C10	0.655800	0.600000	0.105800
H41	H4	0.683400	0.560300	0.145600
C111	C11	0.595800	0.586100	0.055200
H51	H5	0.582800	0.536000	0.060800
C121	C12	0.553300	0.646100	0.994800
H61	H6	0.512500	0.637600	0.960700
C131	C13	0.576600	0.719100	0.989700
C141	C14	0.535200	0.789800	0.930700
Ce31	Ce3	0.390050	0.136920	0.327430
Ce41	Ce4	0.330610	0.128470	0.985770
N31	N3	0.338600	0.996400	0.242700
N41	N4	0.133400	0.231400	0.035400
O91	O9	0.365500	0.027200	0.381500
O101	O10	0.326100	0.902600	0.373900
O111	O11	0.375800	0.115400	0.203300
O121	O12	0.340500	0.046800	0.090400
O131	O13	0.247600	0.266200	0.127400
O141	O14	0.277000	0.150800	0.205800
O151	O15	0.059400	0.353700	0.931100
O161	O16	0.981000	0.282000	0.887800
C151	C15	0.338600	0.960000	0.346300
C161	C16	0.315000	0.942800	0.261800
C171	C17	0.275600	0.882000	0.208300
H71	H7	0.260300	0.845800	0.223300
C181	C18	0.257300	0.872700	0.131200
H81	H8	0.227500	0.834700	0.091800
C191	C19	0.286200	0.923500	0.116500
H91	H9	0.278900	0.915300	0.068600
C201	C20	0.325900	0.986500	0.172200
C211	C21	0.348900	0.051900	0.153600
C221	C22	0.237500	0.198500	0.146700
C231	C23	0.174500	0.176300	0.095900
C241	C24	0.155800	0.100000	0.105800
H101	H10	0.183400	0.060300	0.145600
C251	C25	0.095800	0.086100	0.055200
H111	H11	0.082800	0.036000	0.060800
C261	C26	0.053300	0.146100	0.994800
H121	H12	0.012500	0.137600	0.960700
C271	C27	0.076600	0.219100	0.989700
C281	C28	0.035200	0.289800	0.930700
Ce51	Ce5	0.109950	0.636920	0.172570
Ce61	Ce6	0.169390	0.628470	0.514230
N51	N5	0.161400	0.496400	0.257300
N61	N6	0.366600	0.731400	0.464600
O171	O17	0.134500	0.527200	0.118500
O181	O18	0.173900	0.402600	0.126100
O191	O19	0.124200	0.615400	0.296700
O201	O20	0.159500	0.546800	0.409600
O211	O21	0.252400	0.766200	0.372600
O221	O22	0.223000	0.650800	0.294200
O231	O23	0.440600	0.853700	0.568900
O241	O24	0.519000	0.782000	0.612200
C291	C29	0.161400	0.460000	0.153700
C301	C30	0.185000	0.442800	0.238200
C311	C31	0.224400	0.382000	0.291700
H131	H13	0.239700	0.345800	0.276700
C321	C32	0.242700	0.372700	0.368800
H141	H14	0.272500	0.334700	0.408200
C331	C33	0.213800	0.423500	0.383500
H151	H15	0.221100	0.415300	0.431400
C341	C34	0.174100	0.486500	0.327800
C351	C35	0.151100	0.551900	0.346400
C361	C36	0.262500	0.698500	0.353300
C371	C37	0.325500	0.676300	0.404100
C381	C38	0.344200	0.600000	0.394200
H161	H16	0.316600	0.560300	0.354400
C391	C39	0.404200	0.586100	0.444800
H171	H17	0.417200	0.536000	0.439200
C401	C40	0.446700	0.646100	0.505200
H181	H18	0.487500	0.637600	0.539300
C411	C41	0.423400	0.719100	0.510300
C421	C42	0.464800	0.789800	0.569300
Ce71	Ce7	0.609950	0.136920	0.172570
Ce81	Ce8	0.669390	0.128470	0.514230
N71	N7	0.661400	0.996400	0.257300
N81	N8	0.866600	0.231400	0.464600
O251	O25	0.634500	0.027200	0.118500
O261	O26	0.673900	0.902600	0.126100
O271	O27	0.624200	0.115400	0.296700
O281	O28	0.659500	0.046800	0.409600
O291	O29	0.752400	0.266200	0.372600
O301	O30	0.723000	0.150800	0.294200
O311	O31	0.940600	0.353700	0.568900
O321	O32	0.019000	0.282000	0.612200
C431	C43	0.661400	0.960000	0.153700
C441	C44	0.685000	0.942800	0.238200
C451	C45	0.724400	0.882000	0.291700
H191	H19	0.739700	0.845800	0.276700
C461	C46	0.742700	0.872700	0.368800
H201	H20	0.772500	0.834700	0.408200
C471	C47	0.713800	0.923500	0.383500
H211	H21	0.721100	0.915300	0.431400
C481	C48	0.674100	0.986500	0.327800
C491	C49	0.651100	0.051900	0.346400
C501	C50	0.762500	0.198500	0.353300
C511	C51	0.825500	0.176300	0.404100
C521	C52	0.844200	0.100000	0.394200
H221	H22	0.816600	0.060300	0.354400
C531	C53	0.904200	0.086100	0.444800
H231	H23	0.917200	0.036000	0.439200
C541	C54	0.946700	0.146100	0.505200
H241	H24	0.987500	0.137600	0.539300
C551	C55	0.923400	0.219100	0.510300
C561	C56	0.964800	0.289800	0.569300
Ce91	Ce9	0.109950	0.363080	0.672570
Ce101	Ce10	0.169390	0.371530	0.014230
N91	N9	0.161400	0.503600	0.757300
N101	N10	0.366600	0.268600	0.964600
O331	O33	0.134500	0.472800	0.618500
O341	O34	0.173900	0.597400	0.626100
O351	O35	0.124200	0.384600	0.796700
O361	O36	0.159500	0.453200	0.909600
O371	O37	0.252400	0.233800	0.872600
O381	O38	0.223000	0.349200	0.794200
O391	O39	0.440600	0.146300	0.068900
O401	O40	0.519000	0.218000	0.112200
C571	C57	0.161400	0.540000	0.653700
C581	C58	0.185000	0.557200	0.738200
C591	C59	0.224400	0.618000	0.791700
H251	H25	0.239700	0.654200	0.776700
C601	C60	0.242700	0.627300	0.868800
H261	H26	0.272500	0.665300	0.908200
C611	C61	0.213800	0.576500	0.883500
H271	H27	0.221100	0.584700	0.931400
C621	C62	0.174100	0.513500	0.827800
C631	C63	0.151100	0.448100	0.846400
C641	C64	0.262500	0.301500	0.853300
C651	C65	0.325500	0.323700	0.904100
C661	C66	0.344200	0.400000	0.894200
H281	H28	0.316600	0.439700	0.854400
C671	C67	0.404200	0.413900	0.944800
H291	H29	0.417200	0.464000	0.939200
C681	C68	0.446700	0.353900	0.005200
H301	H30	0.487500	0.362400	0.039300
C691	C69	0.423400	0.280900	0.010300
C701	C70	0.464800	0.210200	0.069300
Ce111	Ce11	0.609950	0.863080	0.672570
Ce121	Ce12	0.669390	0.871530	0.014230
N111	N11	0.661400	0.003600	0.757300
N121	N12	0.866600	0.768600	0.964600
O411	O41	0.634500	0.972800	0.618500
O421	O42	0.673900	0.097400	0.626100
O431	O43	0.624200	0.884600	0.796700
O441	O44	0.659500	0.953200	0.909600
O451	O45	0.752400	0.733800	0.872600
O461	O46	0.723000	0.849200	0.794200
O471	O47	0.940600	0.646300	0.068900
O481	O48	0.019000	0.718000	0.112200
C711	C71	0.661400	0.040000	0.653700
C721	C72	0.685000	0.057200	0.738200
C731	C73	0.724400	0.118000	0.791700
H311	H31	0.739700	0.154200	0.776700
C741	C74	0.742700	0.127300	0.868800
H321	H32	0.772500	0.165300	0.908200
C751	C75	0.713800	0.076500	0.883500
H331	H33	0.721100	0.084700	0.931400
C761	C76	0.674100	0.013500	0.827800
C771	C77	0.651100	0.948100	0.846400
C781	C78	0.762500	0.801500	0.853300
C791	C79	0.825500	0.823700	0.904100
C801	C80	0.844200	0.900000	0.894200
H341	H34	0.816600	0.939700	0.854400
C811	C81	0.904200	0.913900	0.944800
H351	H35	0.917200	0.964000	0.939200
C821	C82	0.946700	0.853900	0.005200
H361	H36	0.987500	0.862400	0.039300
C831	C83	0.923400	0.780900	0.010300
C841	C84	0.964800	0.710200	0.069300
Ce131	Ce13	0.890050	0.363080	0.827430
Ce141	Ce14	0.830610	0.371530	0.485770
N131	N13	0.838600	0.503600	0.742700
N141	N14	0.633400	0.268600	0.535400
O491	O49	0.865500	0.472800	0.881500
O501	O50	0.826100	0.597400	0.873900
O511	O51	0.875800	0.384600	0.703300
O521	O52	0.840500	0.453200	0.590400
O531	O53	0.747600	0.233800	0.627400
O541	O54	0.777000	0.349200	0.705800
O551	O55	0.559400	0.146300	0.431100
O561	O56	0.481000	0.218000	0.387800
C851	C85	0.838600	0.540000	0.846300
C861	C86	0.815000	0.557200	0.761800
C871	C87	0.775600	0.618000	0.708300
H371	H37	0.760300	0.654200	0.723300
C881	C88	0.757300	0.627300	0.631200
H381	H38	0.727500	0.665300	0.591800
C891	C89	0.786200	0.576500	0.616500
H391	H39	0.778900	0.584700	0.568600
C901	C90	0.825900	0.513500	0.672200
C911	C91	0.848900	0.448100	0.653600
C921	C92	0.737500	0.301500	0.646700
C931	C93	0.674500	0.323700	0.595900
C941	C94	0.655800	0.400000	0.605800
H401	H40	0.683400	0.439700	0.645600
C951	C95	0.595800	0.413900	0.555200
H411	H41	0.582800	0.464000	0.560800
C961	C96	0.553300	0.353900	0.494800
H421	H42	0.512500	0.362400	0.460700
C971	C97	0.576600	0.280900	0.489700
C981	C98	0.535200	0.210200	0.430700
Ce151	Ce15	0.390050	0.863080	0.827430
Ce161	Ce16	0.330610	0.871530	0.485770
N151	N15	0.338600	0.003600	0.742700
N161	N16	0.133400	0.768600	0.535400
O571	O57	0.365500	0.972800	0.881500
O581	O58	0.326100	0.097400	0.873900
O591	O59	0.375800	0.884600	0.703300
O601	O60	0.340500	0.953200	0.590400
O611	O61	0.247600	0.733800	0.627400
O621	O62	0.277000	0.849200	0.705800
O631	O63	0.059400	0.646300	0.431100
O641	O64	0.981000	0.718000	0.387800
C991	C99	0.338600	0.040000	0.846300
C1001	C100	0.315000	0.057200	0.761800
C1011	C101	0.275600	0.118000	0.708300
H431	H43	0.260300	0.154200	0.723300
C1021	C102	0.257300	0.127300	0.631200
H441	H44	0.227500	0.165300	0.591800
C1031	C103	0.286200	0.076500	0.616500
H451	H45	0.278900	0.084700	0.568600
C1041	C104	0.325900	0.013500	0.672200
C1051	C105	0.348900	0.948100	0.653600
C1061	C106	0.237500	0.801500	0.646700
C1071	C107	0.174500	0.823700	0.595900
C1081	C108	0.155800	0.900000	0.605800
H461	H46	0.183400	0.939700	0.645600
C1091	C109	0.095800	0.913900	0.555200
H471	H47	0.082800	0.964000	0.560800
C1101	C110	0.053300	0.853900	0.494800
H481	H48	0.012500	0.862400	0.460700
C1111	C111	0.076600	0.780900	0.489700
C1121	C112	0.035200	0.710200	0.430700
