data_FORPUY_clean_PM
_symmetry_space_group_name_H-M	'P1'
_cell_length_a	30.514000
_cell_length_b	15.671500
_cell_length_c	22.003000
_cell_angle_alpha	90.000000
_cell_angle_beta	133.025000
_cell_angle_gamma	90.000000
_symmetry_Int_Tables_number 1

loop_
_symmetry_equiv_pos_as_xyz
'x,y,z'

loop_
_atom_site_label
_atom_site_type_symbol
_atom_site_fract_x
_atom_site_fract_y
_atom_site_fract_z
Nd11	Nd1	0.890010	0.636190	0.325910
Nd21	Nd2	0.830780	0.627950	0.985480
N11	N1	0.838100	0.497400	0.241800
N21	N2	0.634000	0.734200	0.035800
O11	O1	0.866900	0.530300	0.382800
O21	O2	0.828100	0.404100	0.375500
O31	O3	0.876200	0.615400	0.203400
O41	O4	0.840400	0.547500	0.088800
O51	O5	0.749000	0.768700	0.129100
O61	O6	0.777200	0.653100	0.204100
O71	O7	0.560000	0.855800	0.930300
O81	O8	0.481000	0.784800	0.888000
O91	O9	0.841200	0.704200	0.368500
H11	H1	0.856900	0.750600	0.371300
H21	H2	0.803400	0.711400	0.333400
O101	O10	0.867500	0.781000	0.263600
H31	H3	0.830800	0.795000	0.232500
H41	H4	0.886200	0.802300	0.311300
C11	C1	0.838000	0.460500	0.347100
C21	C2	0.814700	0.444400	0.261700
C31	C3	0.774700	0.381800	0.208200
H51	H5	0.759400	0.345500	0.223400
C41	C4	0.757200	0.372600	0.132400
H61	H6	0.727400	0.334300	0.092900
C51	C5	0.787200	0.424800	0.117100
H71	H7	0.780600	0.416000	0.069600
C61	C6	0.825900	0.488300	0.172600
C71	C7	0.849400	0.553600	0.153400
C81	C8	0.737700	0.699100	0.146800
C91	C9	0.673800	0.678100	0.093200
C101	C10	0.655600	0.601200	0.105600
H81	H8	0.683500	0.562500	0.147000
C111	C11	0.594400	0.587000	0.053200
H91	H9	0.580900	0.536200	0.057500
C121	C12	0.552800	0.647500	0.994400
H101	H10	0.511800	0.639700	0.960800
C131	C13	0.576500	0.721100	0.988600
C141	C14	0.535700	0.792500	0.929100
Nd31	Nd3	0.390010	0.136190	0.325910
Nd41	Nd4	0.330780	0.127950	0.985480
N31	N3	0.338100	0.997400	0.241800
N41	N4	0.134000	0.234200	0.035800
O111	O11	0.366900	0.030300	0.382800
O121	O12	0.328100	0.904100	0.375500
O131	O13	0.376200	0.115400	0.203400
O141	O14	0.340400	0.047500	0.088800
O151	O15	0.249000	0.268700	0.129100
O161	O16	0.277200	0.153100	0.204100
O171	O17	0.060000	0.355800	0.930300
O181	O18	0.981000	0.284800	0.888000
O191	O19	0.341200	0.204200	0.368500
H111	H11	0.356900	0.250600	0.371300
H121	H12	0.303400	0.211400	0.333400
O201	O20	0.367500	0.281000	0.263600
H131	H13	0.330800	0.295000	0.232500
H141	H14	0.386200	0.302300	0.311300
C151	C15	0.338000	0.960500	0.347100
C161	C16	0.314700	0.944400	0.261700
C171	C17	0.274700	0.881800	0.208200
H151	H15	0.259400	0.845500	0.223400
C181	C18	0.257200	0.872600	0.132400
H161	H16	0.227400	0.834300	0.092900
C191	C19	0.287200	0.924800	0.117100
H171	H17	0.280600	0.916000	0.069600
C201	C20	0.325900	0.988300	0.172600
C211	C21	0.349400	0.053600	0.153400
C221	C22	0.237700	0.199100	0.146800
C231	C23	0.173800	0.178100	0.093200
C241	C24	0.155600	0.101200	0.105600
H181	H18	0.183500	0.062500	0.147000
C251	C25	0.094400	0.087000	0.053200
H191	H19	0.080900	0.036200	0.057500
C261	C26	0.052800	0.147500	0.994400
H201	H20	0.011800	0.139700	0.960800
C271	C27	0.076500	0.221100	0.988600
C281	C28	0.035700	0.292500	0.929100
Nd51	Nd5	0.109990	0.636190	0.174090
Nd61	Nd6	0.169220	0.627950	0.514520
N51	N5	0.161900	0.497400	0.258200
N61	N6	0.366000	0.734200	0.464200
O211	O21	0.133100	0.530300	0.117200
O221	O22	0.171900	0.404100	0.124500
O231	O23	0.123800	0.615400	0.296600
O241	O24	0.159600	0.547500	0.411200
O251	O25	0.251000	0.768700	0.370900
O261	O26	0.222800	0.653100	0.295900
O271	O27	0.440000	0.855800	0.569700
O281	O28	0.519000	0.784800	0.612000
O291	O29	0.158800	0.704200	0.131500
H211	H21	0.143100	0.750600	0.128700
H221	H22	0.196600	0.711400	0.166600
O301	O30	0.132500	0.781000	0.236400
H231	H23	0.169200	0.795000	0.267500
H241	H24	0.113800	0.802300	0.188700
C291	C29	0.162000	0.460500	0.152900
C301	C30	0.185300	0.444400	0.238300
C311	C31	0.225300	0.381800	0.291800
H251	H25	0.240600	0.345500	0.276600
C321	C32	0.242800	0.372600	0.367600
H261	H26	0.272600	0.334300	0.407100
C331	C33	0.212800	0.424800	0.382900
H271	H27	0.219400	0.416000	0.430400
C341	C34	0.174100	0.488300	0.327400
C351	C35	0.150600	0.553600	0.346600
C361	C36	0.262300	0.699100	0.353200
C371	C37	0.326200	0.678100	0.406800
C381	C38	0.344400	0.601200	0.394400
H281	H28	0.316500	0.562500	0.353000
C391	C39	0.405600	0.587000	0.446800
H291	H29	0.419100	0.536200	0.442500
C401	C40	0.447200	0.647500	0.505600
H301	H30	0.488200	0.639700	0.539200
C411	C41	0.423500	0.721100	0.511400
C421	C42	0.464300	0.792500	0.570900
Nd71	Nd7	0.609990	0.136190	0.174090
Nd81	Nd8	0.669220	0.127950	0.514520
N71	N7	0.661900	0.997400	0.258200
N81	N8	0.866000	0.234200	0.464200
O311	O31	0.633100	0.030300	0.117200
O321	O32	0.671900	0.904100	0.124500
O331	O33	0.623800	0.115400	0.296600
O341	O34	0.659600	0.047500	0.411200
O351	O35	0.751000	0.268700	0.370900
O361	O36	0.722800	0.153100	0.295900
O371	O37	0.940000	0.355800	0.569700
O381	O38	0.019000	0.284800	0.612000
O391	O39	0.658800	0.204200	0.131500
H311	H31	0.643100	0.250600	0.128700
H321	H32	0.696600	0.211400	0.166600
O401	O40	0.632500	0.281000	0.236400
H331	H33	0.669200	0.295000	0.267500
H341	H34	0.613800	0.302300	0.188700
C431	C43	0.662000	0.960500	0.152900
C441	C44	0.685300	0.944400	0.238300
C451	C45	0.725300	0.881800	0.291800
H351	H35	0.740600	0.845500	0.276600
C461	C46	0.742800	0.872600	0.367600
H361	H36	0.772600	0.834300	0.407100
C471	C47	0.712800	0.924800	0.382900
H371	H37	0.719400	0.916000	0.430400
C481	C48	0.674100	0.988300	0.327400
C491	C49	0.650600	0.053600	0.346600
C501	C50	0.762300	0.199100	0.353200
C511	C51	0.826200	0.178100	0.406800
C521	C52	0.844400	0.101200	0.394400
H381	H38	0.816500	0.062500	0.353000
C531	C53	0.905600	0.087000	0.446800
H391	H39	0.919100	0.036200	0.442500
C541	C54	0.947200	0.147500	0.505600
H401	H40	0.988200	0.139700	0.539200
C551	C55	0.923500	0.221100	0.511400
C561	C56	0.964300	0.292500	0.570900
Nd91	Nd9	0.109990	0.363810	0.674090
Nd101	Nd10	0.169220	0.372050	0.014520
N91	N9	0.161900	0.502600	0.758200
N101	N10	0.366000	0.265800	0.964200
O411	O41	0.133100	0.469700	0.617200
O421	O42	0.171900	0.595900	0.624500
O431	O43	0.123800	0.384600	0.796600
O441	O44	0.159600	0.452500	0.911200
O451	O45	0.251000	0.231300	0.870900
O461	O46	0.222800	0.346900	0.795900
O471	O47	0.440000	0.144200	0.069700
O481	O48	0.519000	0.215200	0.112000
O491	O49	0.158800	0.295800	0.631500
H411	H41	0.143100	0.249400	0.628700
H421	H42	0.196600	0.288600	0.666600
O501	O50	0.132500	0.219000	0.736400
H431	H43	0.169200	0.205000	0.767500
H441	H44	0.113800	0.197700	0.688700
C571	C57	0.162000	0.539500	0.652900
C581	C58	0.185300	0.555600	0.738300
C591	C59	0.225300	0.618200	0.791800
H451	H45	0.240600	0.654500	0.776600
C601	C60	0.242800	0.627400	0.867600
H461	H46	0.272600	0.665700	0.907100
C611	C61	0.212800	0.575200	0.882900
H471	H47	0.219400	0.584000	0.930400
C621	C62	0.174100	0.511700	0.827400
C631	C63	0.150600	0.446400	0.846600
C641	C64	0.262300	0.300900	0.853200
C651	C65	0.326200	0.321900	0.906800
C661	C66	0.344400	0.398800	0.894400
H481	H48	0.316500	0.437500	0.853000
C671	C67	0.405600	0.413000	0.946800
H491	H49	0.419100	0.463800	0.942500
C681	C68	0.447200	0.352500	0.005600
H501	H50	0.488200	0.360300	0.039200
C691	C69	0.423500	0.278900	0.011400
C701	C70	0.464300	0.207500	0.070900
Nd111	Nd11	0.609990	0.863810	0.674090
Nd121	Nd12	0.669220	0.872050	0.014520
N111	N11	0.661900	0.002600	0.758200
N121	N12	0.866000	0.765800	0.964200
O511	O51	0.633100	0.969700	0.617200
O521	O52	0.671900	0.095900	0.624500
O531	O53	0.623800	0.884600	0.796600
O541	O54	0.659600	0.952500	0.911200
O551	O55	0.751000	0.731300	0.870900
O561	O56	0.722800	0.846900	0.795900
O571	O57	0.940000	0.644200	0.069700
O581	O58	0.019000	0.715200	0.112000
O591	O59	0.658800	0.795800	0.631500
H511	H51	0.643100	0.749400	0.628700
H521	H52	0.696600	0.788600	0.666600
O601	O60	0.632500	0.719000	0.736400
H531	H53	0.669200	0.705000	0.767500
H541	H54	0.613800	0.697700	0.688700
C711	C71	0.662000	0.039500	0.652900
C721	C72	0.685300	0.055600	0.738300
C731	C73	0.725300	0.118200	0.791800
H551	H55	0.740600	0.154500	0.776600
C741	C74	0.742800	0.127400	0.867600
H561	H56	0.772600	0.165700	0.907100
C751	C75	0.712800	0.075200	0.882900
H571	H57	0.719400	0.084000	0.930400
C761	C76	0.674100	0.011700	0.827400
C771	C77	0.650600	0.946400	0.846600
C781	C78	0.762300	0.800900	0.853200
C791	C79	0.826200	0.821900	0.906800
C801	C80	0.844400	0.898800	0.894400
H581	H58	0.816500	0.937500	0.853000
C811	C81	0.905600	0.913000	0.946800
H591	H59	0.919100	0.963800	0.942500
C821	C82	0.947200	0.852500	0.005600
H601	H60	0.988200	0.860300	0.039200
C831	C83	0.923500	0.778900	0.011400
C841	C84	0.964300	0.707500	0.070900
Nd131	Nd13	0.890010	0.363810	0.825910
Nd141	Nd14	0.830780	0.372050	0.485480
N131	N13	0.838100	0.502600	0.741800
N141	N14	0.634000	0.265800	0.535800
O611	O61	0.866900	0.469700	0.882800
O621	O62	0.828100	0.595900	0.875500
O631	O63	0.876200	0.384600	0.703400
O641	O64	0.840400	0.452500	0.588800
O651	O65	0.749000	0.231300	0.629100
O661	O66	0.777200	0.346900	0.704100
O671	O67	0.560000	0.144200	0.430300
O681	O68	0.481000	0.215200	0.388000
O691	O69	0.841200	0.295800	0.868500
H611	H61	0.856900	0.249400	0.871300
H621	H62	0.803400	0.288600	0.833400
O701	O70	0.867500	0.219000	0.763600
H631	H63	0.830800	0.205000	0.732500
H641	H64	0.886200	0.197700	0.811300
C851	C85	0.838000	0.539500	0.847100
C861	C86	0.814700	0.555600	0.761700
C871	C87	0.774700	0.618200	0.708200
H651	H65	0.759400	0.654500	0.723400
C881	C88	0.757200	0.627400	0.632400
H661	H66	0.727400	0.665700	0.592900
C891	C89	0.787200	0.575200	0.617100
H671	H67	0.780600	0.584000	0.569600
C901	C90	0.825900	0.511700	0.672600
C911	C91	0.849400	0.446400	0.653400
C921	C92	0.737700	0.300900	0.646800
C931	C93	0.673800	0.321900	0.593200
C941	C94	0.655600	0.398800	0.605600
H681	H68	0.683500	0.437500	0.647000
C951	C95	0.594400	0.413000	0.553200
H691	H69	0.580900	0.463800	0.557500
C961	C96	0.552800	0.352500	0.494400
H701	H70	0.511800	0.360300	0.460800
C971	C97	0.576500	0.278900	0.488600
C981	C98	0.535700	0.207500	0.429100
Nd151	Nd15	0.390010	0.863810	0.825910
Nd161	Nd16	0.330780	0.872050	0.485480
N151	N15	0.338100	0.002600	0.741800
N161	N16	0.134000	0.765800	0.535800
O711	O71	0.366900	0.969700	0.882800
O721	O72	0.328100	0.095900	0.875500
O731	O73	0.376200	0.884600	0.703400
O741	O74	0.340400	0.952500	0.588800
O751	O75	0.249000	0.731300	0.629100
O761	O76	0.277200	0.846900	0.704100
O771	O77	0.060000	0.644200	0.430300
O781	O78	0.981000	0.715200	0.388000
O791	O79	0.341200	0.795800	0.868500
H711	H71	0.356900	0.749400	0.871300
H721	H72	0.303400	0.788600	0.833400
O801	O80	0.367500	0.719000	0.763600
H731	H73	0.330800	0.705000	0.732500
H741	H74	0.386200	0.697700	0.811300
C991	C99	0.338000	0.039500	0.847100
C1001	C100	0.314700	0.055600	0.761700
C1011	C101	0.274700	0.118200	0.708200
H751	H75	0.259400	0.154500	0.723400
C1021	C102	0.257200	0.127400	0.632400
H761	H76	0.227400	0.165700	0.592900
C1031	C103	0.287200	0.075200	0.617100
H771	H77	0.280600	0.084000	0.569600
C1041	C104	0.325900	0.011700	0.672600
C1051	C105	0.349400	0.946400	0.653400
C1061	C106	0.237700	0.800900	0.646800
C1071	C107	0.173800	0.821900	0.593200
C1081	C108	0.155600	0.898800	0.605600
H781	H78	0.183500	0.937500	0.647000
C1091	C109	0.094400	0.913000	0.553200
H791	H79	0.080900	0.963800	0.557500
C1101	C110	0.052800	0.852500	0.494400
H801	H80	0.011800	0.860300	0.460800
C1111	C111	0.076500	0.778900	0.488600
C1121	C112	0.035700	0.707500	0.429100
