data_FORQEJ_clean_PM
_symmetry_space_group_name_H-M	'P1'
_cell_length_a	30.727000
_cell_length_b	15.769000
_cell_length_c	22.110000
_cell_angle_alpha	90.000000
_cell_angle_beta	133.080000
_cell_angle_gamma	90.000000
_symmetry_Int_Tables_number 1

loop_
_symmetry_equiv_pos_as_xyz
'x,y,z'

loop_
_atom_site_label
_atom_site_type_symbol
_atom_site_fract_x
_atom_site_fract_y
_atom_site_fract_z
Ce11	Ce1	0.669450	0.371800	0.014420
Ce21	Ce2	0.889970	0.136890	0.327090
N11	N1	0.632900	0.232600	0.035600
N21	N2	0.662500	0.497600	0.259200
O11	O1	0.559700	0.353600	0.931200
O21	O2	0.480800	0.282100	0.888300
O31	O3	0.747000	0.266400	0.127000
O41	O4	0.776500	0.150300	0.205100
O51	O5	0.633600	0.528600	0.117100
O61	O6	0.673700	0.403400	0.126800
O71	O7	0.624200	0.615500	0.296000
O81	O8	0.659000	0.547100	0.409600
C11	C1	0.535300	0.291900	0.930700
C21	C2	0.575900	0.220100	0.988700
C31	C3	0.554000	0.146700	0.996200
H11	H1	0.513300	0.139300	0.963100
C41	C4	0.594100	0.085000	0.053800
H21	H2	0.580800	0.034800	0.058500
C51	C5	0.655900	0.101100	0.105100
H31	H3	0.684000	0.062100	0.145300
C61	C6	0.673600	0.176200	0.094200
C71	C7	0.737800	0.199700	0.147300
C81	C8	0.662200	0.459800	0.153400
C91	C9	0.684000	0.444000	0.238000
C101	C10	0.725900	0.383000	0.292900
H41	H4	0.743800	0.349500	0.280400
C111	C11	0.740000	0.374100	0.365700
H51	H5	0.767300	0.332800	0.403300
C121	C12	0.714700	0.424600	0.384400
H61	H6	0.723600	0.417000	0.433500
C131	C13	0.675500	0.487600	0.329300
C141	C14	0.650100	0.553600	0.345400
Ce31	Ce3	0.169450	0.871800	0.014420
Ce41	Ce4	0.389970	0.636890	0.327090
N31	N3	0.132900	0.732600	0.035600
N41	N4	0.162500	0.997600	0.259200
O91	O9	0.059700	0.853600	0.931200
O101	O10	0.980800	0.782100	0.888300
O111	O11	0.247000	0.766400	0.127000
O121	O12	0.276500	0.650300	0.205100
O131	O13	0.133600	0.028600	0.117100
O141	O14	0.173700	0.903400	0.126800
O151	O15	0.124200	0.115500	0.296000
O161	O16	0.159000	0.047100	0.409600
C151	C15	0.035300	0.791900	0.930700
C161	C16	0.075900	0.720100	0.988700
C171	C17	0.054000	0.646700	0.996200
H71	H7	0.013300	0.639300	0.963100
C181	C18	0.094100	0.585000	0.053800
H81	H8	0.080800	0.534800	0.058500
C191	C19	0.155900	0.601100	0.105100
H91	H9	0.184000	0.562100	0.145300
C201	C20	0.173600	0.676200	0.094200
C211	C21	0.237800	0.699700	0.147300
C221	C22	0.162200	0.959800	0.153400
C231	C23	0.184000	0.944000	0.238000
C241	C24	0.225900	0.883000	0.292900
H101	H10	0.243800	0.849500	0.280400
C251	C25	0.240000	0.874100	0.365700
H111	H11	0.267300	0.832800	0.403300
C261	C26	0.214700	0.924600	0.384400
H121	H12	0.223600	0.917000	0.433500
C271	C27	0.175500	0.987600	0.329300
C281	C28	0.150100	0.053600	0.345400
Ce51	Ce5	0.330550	0.371800	0.485580
Ce61	Ce6	0.110030	0.136890	0.172910
N51	N5	0.367100	0.232600	0.464400
N61	N6	0.337500	0.497600	0.240800
O171	O17	0.440300	0.353600	0.568800
O181	O18	0.519200	0.282100	0.611700
O191	O19	0.253000	0.266400	0.373000
O201	O20	0.223500	0.150300	0.294900
O211	O21	0.366400	0.528600	0.382900
O221	O22	0.326300	0.403400	0.373200
O231	O23	0.375800	0.615500	0.204000
O241	O24	0.341000	0.547100	0.090400
C291	C29	0.464700	0.291900	0.569300
C301	C30	0.424100	0.220100	0.511300
C311	C31	0.446000	0.146700	0.503800
H131	H13	0.486700	0.139300	0.536900
C321	C32	0.405900	0.085000	0.446200
H141	H14	0.419200	0.034800	0.441500
C331	C33	0.344100	0.101100	0.394900
H151	H15	0.316000	0.062100	0.354700
C341	C34	0.326400	0.176200	0.405800
C351	C35	0.262200	0.199700	0.352700
C361	C36	0.337800	0.459800	0.346600
C371	C37	0.316000	0.444000	0.262000
C381	C38	0.274100	0.383000	0.207100
H161	H16	0.256200	0.349500	0.219600
C391	C39	0.260000	0.374100	0.134300
H171	H17	0.232700	0.332800	0.096700
C401	C40	0.285300	0.424600	0.115600
H181	H18	0.276400	0.417000	0.066500
C411	C41	0.324500	0.487600	0.170700
C421	C42	0.349900	0.553600	0.154600
Ce71	Ce7	0.830550	0.871800	0.485580
Ce81	Ce8	0.610030	0.636890	0.172910
N71	N7	0.867100	0.732600	0.464400
N81	N8	0.837500	0.997600	0.240800
O251	O25	0.940300	0.853600	0.568800
O261	O26	0.019200	0.782100	0.611700
O271	O27	0.753000	0.766400	0.373000
O281	O28	0.723500	0.650300	0.294900
O291	O29	0.866400	0.028600	0.382900
O301	O30	0.826300	0.903400	0.373200
O311	O31	0.875800	0.115500	0.204000
O321	O32	0.841000	0.047100	0.090400
C431	C43	0.964700	0.791900	0.569300
C441	C44	0.924100	0.720100	0.511300
C451	C45	0.946000	0.646700	0.503800
H191	H19	0.986700	0.639300	0.536900
C461	C46	0.905900	0.585000	0.446200
H201	H20	0.919200	0.534800	0.441500
C471	C47	0.844100	0.601100	0.394900
H211	H21	0.816000	0.562100	0.354700
C481	C48	0.826400	0.676200	0.405800
C491	C49	0.762200	0.699700	0.352700
C501	C50	0.837800	0.959800	0.346600
C511	C51	0.816000	0.944000	0.262000
C521	C52	0.774100	0.883000	0.207100
H221	H22	0.756200	0.849500	0.219600
C531	C53	0.760000	0.874100	0.134300
H231	H23	0.732700	0.832800	0.096700
C541	C54	0.785300	0.924600	0.115600
H241	H24	0.776400	0.917000	0.066500
C551	C55	0.824500	0.987600	0.170700
C561	C56	0.849900	0.053600	0.154600
Ce91	Ce9	0.330550	0.628200	0.985580
Ce101	Ce10	0.110030	0.863110	0.672910
N91	N9	0.367100	0.767400	0.964400
N101	N10	0.337500	0.502400	0.740800
O331	O33	0.440300	0.646400	0.068800
O341	O34	0.519200	0.717900	0.111700
O351	O35	0.253000	0.733600	0.873000
O361	O36	0.223500	0.849700	0.794900
O371	O37	0.366400	0.471400	0.882900
O381	O38	0.326300	0.596600	0.873200
O391	O39	0.375800	0.384500	0.704000
O401	O40	0.341000	0.452900	0.590400
C571	C57	0.464700	0.708100	0.069300
C581	C58	0.424100	0.779900	0.011300
C591	C59	0.446000	0.853300	0.003800
H251	H25	0.486700	0.860700	0.036900
C601	C60	0.405900	0.915000	0.946200
H261	H26	0.419200	0.965200	0.941500
C611	C61	0.344100	0.898900	0.894900
H271	H27	0.316000	0.937900	0.854700
C621	C62	0.326400	0.823800	0.905800
C631	C63	0.262200	0.800300	0.852700
C641	C64	0.337800	0.540200	0.846600
C651	C65	0.316000	0.556000	0.762000
C661	C66	0.274100	0.617000	0.707100
H281	H28	0.256200	0.650500	0.719600
C671	C67	0.260000	0.625900	0.634300
H291	H29	0.232700	0.667200	0.596700
C681	C68	0.285300	0.575400	0.615600
H301	H30	0.276400	0.583000	0.566500
C691	C69	0.324500	0.512400	0.670700
C701	C70	0.349900	0.446400	0.654600
Ce111	Ce11	0.830550	0.128200	0.985580
Ce121	Ce12	0.610030	0.363110	0.672910
N111	N11	0.867100	0.267400	0.964400
N121	N12	0.837500	0.002400	0.740800
O411	O41	0.940300	0.146400	0.068800
O421	O42	0.019200	0.217900	0.111700
O431	O43	0.753000	0.233600	0.873000
O441	O44	0.723500	0.349700	0.794900
O451	O45	0.866400	0.971400	0.882900
O461	O46	0.826300	0.096600	0.873200
O471	O47	0.875800	0.884500	0.704000
O481	O48	0.841000	0.952900	0.590400
C711	C71	0.964700	0.208100	0.069300
C721	C72	0.924100	0.279900	0.011300
C731	C73	0.946000	0.353300	0.003800
H311	H31	0.986700	0.360700	0.036900
C741	C74	0.905900	0.415000	0.946200
H321	H32	0.919200	0.465200	0.941500
C751	C75	0.844100	0.398900	0.894900
H331	H33	0.816000	0.437900	0.854700
C761	C76	0.826400	0.323800	0.905800
C771	C77	0.762200	0.300300	0.852700
C781	C78	0.837800	0.040200	0.846600
C791	C79	0.816000	0.056000	0.762000
C801	C80	0.774100	0.117000	0.707100
H341	H34	0.756200	0.150500	0.719600
C811	C81	0.760000	0.125900	0.634300
H351	H35	0.732700	0.167200	0.596700
C821	C82	0.785300	0.075400	0.615600
H361	H36	0.776400	0.083000	0.566500
C831	C83	0.824500	0.012400	0.670700
C841	C84	0.849900	0.946400	0.654600
Ce131	Ce13	0.669450	0.628200	0.514420
Ce141	Ce14	0.889970	0.863110	0.827090
N131	N13	0.632900	0.767400	0.535600
N141	N14	0.662500	0.502400	0.759200
O491	O49	0.559700	0.646400	0.431200
O501	O50	0.480800	0.717900	0.388300
O511	O51	0.747000	0.733600	0.627000
O521	O52	0.776500	0.849700	0.705100
O531	O53	0.633600	0.471400	0.617100
O541	O54	0.673700	0.596600	0.626800
O551	O55	0.624200	0.384500	0.796000
O561	O56	0.659000	0.452900	0.909600
C851	C85	0.535300	0.708100	0.430700
C861	C86	0.575900	0.779900	0.488700
C871	C87	0.554000	0.853300	0.496200
H371	H37	0.513300	0.860700	0.463100
C881	C88	0.594100	0.915000	0.553800
H381	H38	0.580800	0.965200	0.558500
C891	C89	0.655900	0.898900	0.605100
H391	H39	0.684000	0.937900	0.645300
C901	C90	0.673600	0.823800	0.594200
C911	C91	0.737800	0.800300	0.647300
C921	C92	0.662200	0.540200	0.653400
C931	C93	0.684000	0.556000	0.738000
C941	C94	0.725900	0.617000	0.792900
H401	H40	0.743800	0.650500	0.780400
C951	C95	0.740000	0.625900	0.865700
H411	H41	0.767300	0.667200	0.903300
C961	C96	0.714700	0.575400	0.884400
H421	H42	0.723600	0.583000	0.933500
C971	C97	0.675500	0.512400	0.829300
C981	C98	0.650100	0.446400	0.845400
Ce151	Ce15	0.169450	0.128200	0.514420
Ce161	Ce16	0.389970	0.363110	0.827090
N151	N15	0.132900	0.267400	0.535600
N161	N16	0.162500	0.002400	0.759200
O571	O57	0.059700	0.146400	0.431200
O581	O58	0.980800	0.217900	0.388300
O591	O59	0.247000	0.233600	0.627000
O601	O60	0.276500	0.349700	0.705100
O611	O61	0.133600	0.971400	0.617100
O621	O62	0.173700	0.096600	0.626800
O631	O63	0.124200	0.884500	0.796000
O641	O64	0.159000	0.952900	0.909600
C991	C99	0.035300	0.208100	0.430700
C1001	C100	0.075900	0.279900	0.488700
C1011	C101	0.054000	0.353300	0.496200
H431	H43	0.013300	0.360700	0.463100
C1021	C102	0.094100	0.415000	0.553800
H441	H44	0.080800	0.465200	0.558500
C1031	C103	0.155900	0.398900	0.605100
H451	H45	0.184000	0.437900	0.645300
C1041	C104	0.173600	0.323800	0.594200
C1051	C105	0.237800	0.300300	0.647300
C1061	C106	0.162200	0.040200	0.653400
C1071	C107	0.184000	0.056000	0.738000
C1081	C108	0.225900	0.117000	0.792900
H461	H46	0.243800	0.150500	0.780400
C1091	C109	0.240000	0.125900	0.865700
H471	H47	0.267300	0.167200	0.903300
C1101	C110	0.214700	0.075400	0.884400
H481	H48	0.223600	0.083000	0.933500
C1111	C111	0.175500	0.012400	0.829300
C1121	C112	0.150100	0.946400	0.845400
