data_FORQIN_clean_PM
_symmetry_space_group_name_H-M	'P1'
_cell_length_a	30.573000
_cell_length_b	15.733000
_cell_length_c	22.013000
_cell_angle_alpha	90.000000
_cell_angle_beta	132.965000
_cell_angle_gamma	90.000000
_symmetry_Int_Tables_number 1

loop_
_symmetry_equiv_pos_as_xyz
'x,y,z'

loop_
_atom_site_label
_atom_site_type_symbol
_atom_site_fract_x
_atom_site_fract_y
_atom_site_fract_z
N11	N1	0.633500	0.265300	0.535200
N21	N2	0.661900	0.998200	0.258400
Nd11	Nd1	0.669180	0.127820	0.514680
Nd21	Nd2	0.889960	0.363980	0.825630
O11	O1	0.747700	0.230000	0.628300
O21	O2	0.776900	0.348100	0.703900
O31	O3	0.560300	0.143900	0.430800
O41	O4	0.480600	0.216000	0.387000
O51	O5	0.622900	0.115600	0.296300
O61	O6	0.658900	0.047200	0.411000
O71	O7	0.634200	0.030000	0.118300
O81	O8	0.672600	0.904300	0.125000
C11	C1	0.738600	0.298900	0.647600
C21	C2	0.673400	0.322700	0.593800
C31	C3	0.654900	0.398000	0.604200
H11	H1	0.682700	0.437500	0.644300
C41	C4	0.594100	0.412500	0.553300
H21	H2	0.580600	0.462400	0.558500
C51	C5	0.553300	0.351300	0.494100
H31	H3	0.512300	0.359500	0.459900
C61	C6	0.575500	0.278000	0.487700
C71	C7	0.535100	0.206800	0.429600
C81	C8	0.650500	0.053500	0.347200
C91	C9	0.674500	0.987800	0.328500
C101	C10	0.713400	0.924100	0.383100
H41	H4	0.721500	0.916100	0.431800
C111	C11	0.740200	0.872700	0.365900
H51	H5	0.767600	0.831400	0.403600
C121	C12	0.725700	0.883300	0.292300
H61	H6	0.743200	0.849900	0.278900
C131	C13	0.684100	0.945500	0.238100
C141	C14	0.661500	0.960800	0.153300
N31	N3	0.133500	0.765300	0.535200
N41	N4	0.161900	0.498200	0.258400
Nd31	Nd3	0.169180	0.627820	0.514680
Nd41	Nd4	0.389960	0.863980	0.825630
O91	O9	0.247700	0.730000	0.628300
O101	O10	0.276900	0.848100	0.703900
O111	O11	0.060300	0.643900	0.430800
O121	O12	0.980600	0.716000	0.387000
O131	O13	0.122900	0.615600	0.296300
O141	O14	0.158900	0.547200	0.411000
O151	O15	0.134200	0.530000	0.118300
O161	O16	0.172600	0.404300	0.125000
C151	C15	0.238600	0.798900	0.647600
C161	C16	0.173400	0.822700	0.593800
C171	C17	0.154900	0.898000	0.604200
H71	H7	0.182700	0.937500	0.644300
C181	C18	0.094100	0.912500	0.553300
H81	H8	0.080600	0.962400	0.558500
C191	C19	0.053300	0.851300	0.494100
H91	H9	0.012300	0.859500	0.459900
C201	C20	0.075500	0.778000	0.487700
C211	C21	0.035100	0.706800	0.429600
C221	C22	0.150500	0.553500	0.347200
C231	C23	0.174500	0.487800	0.328500
C241	C24	0.213400	0.424100	0.383100
H101	H10	0.221500	0.416100	0.431800
C251	C25	0.240200	0.372700	0.365900
H111	H11	0.267600	0.331400	0.403600
C261	C26	0.225700	0.383300	0.292300
H121	H12	0.243200	0.349900	0.278900
C271	C27	0.184100	0.445500	0.238100
C281	C28	0.161500	0.460800	0.153300
N51	N5	0.366500	0.265300	0.964800
N61	N6	0.338100	0.998200	0.241600
Nd51	Nd5	0.330820	0.127820	0.985320
Nd61	Nd6	0.110040	0.363980	0.674370
O171	O17	0.252300	0.230000	0.871700
O181	O18	0.223100	0.348100	0.796100
O191	O19	0.439700	0.143900	0.069200
O201	O20	0.519400	0.216000	0.113000
O211	O21	0.377100	0.115600	0.203700
O221	O22	0.341100	0.047200	0.089000
O231	O23	0.365800	0.030000	0.381700
O241	O24	0.327400	0.904300	0.375000
C291	C29	0.261400	0.298900	0.852400
C301	C30	0.326600	0.322700	0.906200
C311	C31	0.345100	0.398000	0.895800
H131	H13	0.317300	0.437500	0.855700
C321	C32	0.405900	0.412500	0.946700
H141	H14	0.419400	0.462400	0.941500
C331	C33	0.446700	0.351300	0.005900
H151	H15	0.487700	0.359500	0.040100
C341	C34	0.424500	0.278000	0.012300
C351	C35	0.464900	0.206800	0.070400
C361	C36	0.349500	0.053500	0.152800
C371	C37	0.325500	0.987800	0.171500
C381	C38	0.286600	0.924100	0.116900
H161	H16	0.278500	0.916100	0.068200
C391	C39	0.259800	0.872700	0.134100
H171	H17	0.232400	0.831400	0.096400
C401	C40	0.274300	0.883300	0.207700
H181	H18	0.256800	0.849900	0.221100
C411	C41	0.315900	0.945500	0.261900
C421	C42	0.338500	0.960800	0.346700
N71	N7	0.866500	0.765300	0.964800
N81	N8	0.838100	0.498200	0.241600
Nd71	Nd7	0.830820	0.627820	0.985320
Nd81	Nd8	0.610040	0.863980	0.674370
O251	O25	0.752300	0.730000	0.871700
O261	O26	0.723100	0.848100	0.796100
O271	O27	0.939700	0.643900	0.069200
O281	O28	0.019400	0.716000	0.113000
O291	O29	0.877100	0.615600	0.203700
O301	O30	0.841100	0.547200	0.089000
O311	O31	0.865800	0.530000	0.381700
O321	O32	0.827400	0.404300	0.375000
C431	C43	0.761400	0.798900	0.852400
C441	C44	0.826600	0.822700	0.906200
C451	C45	0.845100	0.898000	0.895800
H191	H19	0.817300	0.937500	0.855700
C461	C46	0.905900	0.912500	0.946700
H201	H20	0.919400	0.962400	0.941500
C471	C47	0.946700	0.851300	0.005900
H211	H21	0.987700	0.859500	0.040100
C481	C48	0.924500	0.778000	0.012300
C491	C49	0.964900	0.706800	0.070400
C501	C50	0.849500	0.553500	0.152800
C511	C51	0.825500	0.487800	0.171500
C521	C52	0.786600	0.424100	0.116900
H221	H22	0.778500	0.416100	0.068200
C531	C53	0.759800	0.372700	0.134100
H231	H23	0.732400	0.331400	0.096400
C541	C54	0.774300	0.383300	0.207700
H241	H24	0.756800	0.349900	0.221100
C551	C55	0.815900	0.445500	0.261900
C561	C56	0.838500	0.460800	0.346700
N91	N9	0.366500	0.734700	0.464800
N101	N10	0.338100	0.001800	0.741600
Nd91	Nd9	0.330820	0.872180	0.485320
Nd101	Nd10	0.110040	0.636020	0.174370
O331	O33	0.252300	0.770000	0.371700
O341	O34	0.223100	0.651900	0.296100
O351	O35	0.439700	0.856100	0.569200
O361	O36	0.519400	0.784000	0.613000
O371	O37	0.377100	0.884400	0.703700
O381	O38	0.341100	0.952800	0.589000
O391	O39	0.365800	0.970000	0.881700
O401	O40	0.327400	0.095700	0.875000
C571	C57	0.261400	0.701100	0.352400
C581	C58	0.326600	0.677300	0.406200
C591	C59	0.345100	0.602000	0.395800
H251	H25	0.317300	0.562500	0.355700
C601	C60	0.405900	0.587500	0.446700
H261	H26	0.419400	0.537600	0.441500
C611	C61	0.446700	0.648700	0.505900
H271	H27	0.487700	0.640500	0.540100
C621	C62	0.424500	0.722000	0.512300
C631	C63	0.464900	0.793200	0.570400
C641	C64	0.349500	0.946500	0.652800
C651	C65	0.325500	0.012200	0.671500
C661	C66	0.286600	0.075900	0.616900
H281	H28	0.278500	0.083900	0.568200
C671	C67	0.259800	0.127300	0.634100
H291	H29	0.232400	0.168600	0.596400
C681	C68	0.274300	0.116700	0.707700
H301	H30	0.256800	0.150100	0.721100
C691	C69	0.315900	0.054500	0.761900
C701	C70	0.338500	0.039200	0.846700
N111	N11	0.866500	0.234700	0.464800
N121	N12	0.838100	0.501800	0.741600
Nd111	Nd11	0.830820	0.372180	0.485320
Nd121	Nd12	0.610040	0.136020	0.174370
O411	O41	0.752300	0.270000	0.371700
O421	O42	0.723100	0.151900	0.296100
O431	O43	0.939700	0.356100	0.569200
O441	O44	0.019400	0.284000	0.613000
O451	O45	0.877100	0.384400	0.703700
O461	O46	0.841100	0.452800	0.589000
O471	O47	0.865800	0.470000	0.881700
O481	O48	0.827400	0.595700	0.875000
C711	C71	0.761400	0.201100	0.352400
C721	C72	0.826600	0.177300	0.406200
C731	C73	0.845100	0.102000	0.395800
H311	H31	0.817300	0.062500	0.355700
C741	C74	0.905900	0.087500	0.446700
H321	H32	0.919400	0.037600	0.441500
C751	C75	0.946700	0.148700	0.505900
H331	H33	0.987700	0.140500	0.540100
C761	C76	0.924500	0.222000	0.512300
C771	C77	0.964900	0.293200	0.570400
C781	C78	0.849500	0.446500	0.652800
C791	C79	0.825500	0.512200	0.671500
C801	C80	0.786600	0.575900	0.616900
H341	H34	0.778500	0.583900	0.568200
C811	C81	0.759800	0.627300	0.634100
H351	H35	0.732400	0.668600	0.596400
C821	C82	0.774300	0.616700	0.707700
H361	H36	0.756800	0.650100	0.721100
C831	C83	0.815900	0.554500	0.761900
C841	C84	0.838500	0.539200	0.846700
N131	N13	0.633500	0.734700	0.035200
N141	N14	0.661900	0.001800	0.758400
Nd131	Nd13	0.669180	0.872180	0.014680
Nd141	Nd14	0.889960	0.636020	0.325630
O491	O49	0.747700	0.770000	0.128300
O501	O50	0.776900	0.651900	0.203900
O511	O51	0.560300	0.856100	0.930800
O521	O52	0.480600	0.784000	0.887000
O531	O53	0.622900	0.884400	0.796300
O541	O54	0.658900	0.952800	0.911000
O551	O55	0.634200	0.970000	0.618300
O561	O56	0.672600	0.095700	0.625000
C851	C85	0.738600	0.701100	0.147600
C861	C86	0.673400	0.677300	0.093800
C871	C87	0.654900	0.602000	0.104200
H371	H37	0.682700	0.562500	0.144300
C881	C88	0.594100	0.587500	0.053300
H381	H38	0.580600	0.537600	0.058500
C891	C89	0.553300	0.648700	0.994100
H391	H39	0.512300	0.640500	0.959900
C901	C90	0.575500	0.722000	0.987700
C911	C91	0.535100	0.793200	0.929600
C921	C92	0.650500	0.946500	0.847200
C931	C93	0.674500	0.012200	0.828500
C941	C94	0.713400	0.075900	0.883100
H401	H40	0.721500	0.083900	0.931800
C951	C95	0.740200	0.127300	0.865900
H411	H41	0.767600	0.168600	0.903600
C961	C96	0.725700	0.116700	0.792300
H421	H42	0.743200	0.150100	0.778900
C971	C97	0.684100	0.054500	0.738100
C981	C98	0.661500	0.039200	0.653300
N151	N15	0.133500	0.234700	0.035200
N161	N16	0.161900	0.501800	0.758400
Nd151	Nd15	0.169180	0.372180	0.014680
Nd161	Nd16	0.389960	0.136020	0.325630
O571	O57	0.247700	0.270000	0.128300
O581	O58	0.276900	0.151900	0.203900
O591	O59	0.060300	0.356100	0.930800
O601	O60	0.980600	0.284000	0.887000
O611	O61	0.122900	0.384400	0.796300
O621	O62	0.158900	0.452800	0.911000
O631	O63	0.134200	0.470000	0.618300
O641	O64	0.172600	0.595700	0.625000
C991	C99	0.238600	0.201100	0.147600
C1001	C100	0.173400	0.177300	0.093800
C1011	C101	0.154900	0.102000	0.104200
H431	H43	0.182700	0.062500	0.144300
C1021	C102	0.094100	0.087500	0.053300
H441	H44	0.080600	0.037600	0.058500
C1031	C103	0.053300	0.148700	0.994100
H451	H45	0.012300	0.140500	0.959900
C1041	C104	0.075500	0.222000	0.987700
C1051	C105	0.035100	0.293200	0.929600
C1061	C106	0.150500	0.446500	0.847200
C1071	C107	0.174500	0.512200	0.828500
C1081	C108	0.213400	0.575900	0.883100
H461	H46	0.221500	0.583900	0.931800
C1091	C109	0.240200	0.627300	0.865900
H471	H47	0.267600	0.668600	0.903600
C1101	C110	0.225700	0.616700	0.792300
H481	H48	0.243200	0.650100	0.778900
C1111	C111	0.184100	0.554500	0.738100
C1121	C112	0.161500	0.539200	0.653300
