data_FOVPOX_clean_PM
_symmetry_space_group_name_H-M	'P1'
_cell_length_a	24.542000
_cell_length_b	12.641000
_cell_length_c	15.446000
_cell_angle_alpha	90.000000
_cell_angle_beta	90.000000
_cell_angle_gamma	90.000000
_symmetry_Int_Tables_number 1

loop_
_symmetry_equiv_pos_as_xyz
'x,y,z'

loop_
_atom_site_label
_atom_site_type_symbol
_atom_site_fract_x
_atom_site_fract_y
_atom_site_fract_z
C11	C1	0.625600	0.535400	0.026300
H11	H1	0.612800	0.517200	0.971700
C21	C2	0.590800	0.575700	0.086500
H21	H2	0.554200	0.585400	0.073200
C31	C3	0.610600	0.602200	0.168100
H31	H3	0.587100	0.630900	0.209100
C41	C4	0.664100	0.586800	0.188900
C51	C5	0.698500	0.545600	0.126300
C61	C6	0.757700	0.524200	0.139200
C71	C7	0.800600	0.588400	0.112800
C81	C8	0.852900	0.557400	0.130100
H41	H4	0.882200	0.599000	0.112300
C91	C9	0.862100	0.462400	0.174900
H51	H5	0.897400	0.442400	0.189300
C101	C10	0.819600	0.400000	0.197100
H61	H6	0.825800	0.335600	0.224400
C111	C11	0.685200	0.618000	0.277500
C121	C12	0.788000	0.687200	0.060400
C131	C13	0.843000	0.522900	0.411200
H71	H7	0.817200	0.476600	0.388400
C141	C14	0.896200	0.490300	0.412200
H81	H8	0.905800	0.425200	0.388700
C151	C15	0.934900	0.554100	0.447900
C161	C16	0.917900	0.652100	0.478600
H91	H9	0.942900	0.699900	0.501100
C171	C17	0.863000	0.677200	0.475300
H101	H10	0.851800	0.741200	0.499100
C181	C18	0.993600	0.523500	0.454600
H111	H11	0.016200	0.585200	0.444700
H121	H12	0.002100	0.471600	0.410400
Cd11	Cd1	0.735480	0.673650	0.432490
N11	N1	0.825400	0.615100	0.440100
N21	N2	0.767900	0.431000	0.179800
N31	N3	0.678000	0.522200	0.045700
O11	O1	0.733000	0.592100	0.296400
O21	O2	0.655800	0.668700	0.326500
O31	O3	0.827310	0.730700	0.020500
O41	O4	0.739890	0.718500	0.055100
O51	O5	0.712100	0.492700	0.984300
O61	O6	0.726600	0.370900	0.203700
C191	C19	0.874400	0.964600	0.526300
H131	H13	0.887200	0.982800	0.471700
C201	C20	0.909200	0.924300	0.586500
H141	H14	0.945800	0.914600	0.573200
C211	C21	0.889400	0.897800	0.668100
H151	H15	0.912900	0.869100	0.709100
C221	C22	0.835900	0.913200	0.688900
C231	C23	0.801500	0.954400	0.626300
C241	C24	0.742300	0.975800	0.639200
C251	C25	0.699400	0.911600	0.612800
C261	C26	0.647100	0.942600	0.630100
H161	H16	0.617800	0.901000	0.612300
C271	C27	0.637900	0.037600	0.674900
H171	H17	0.602600	0.057600	0.689300
C281	C28	0.680400	0.100000	0.697100
H181	H18	0.674200	0.164400	0.724400
C291	C29	0.814800	0.882000	0.777500
C301	C30	0.712000	0.812800	0.560400
C311	C31	0.657000	0.977100	0.911200
H191	H19	0.682800	0.023400	0.888400
C321	C32	0.603800	0.009700	0.912200
H201	H20	0.594200	0.074800	0.888700
C331	C33	0.565100	0.945900	0.947900
C341	C34	0.582100	0.847900	0.978600
H211	H21	0.557100	0.800100	0.001100
C351	C35	0.637000	0.822800	0.975300
H221	H22	0.648200	0.758800	0.999100
C361	C36	0.506400	0.976500	0.954600
H231	H23	0.483800	0.914800	0.944700
H241	H24	0.497900	0.028400	0.910400
Cd21	Cd2	0.764520	0.826350	0.932490
N41	N4	0.674600	0.884900	0.940100
N51	N5	0.732100	0.069000	0.679800
N61	N6	0.822000	0.977800	0.545700
O71	O7	0.767000	0.907900	0.796400
O81	O8	0.844200	0.831300	0.826500
O91	O9	0.672690	0.769300	0.520500
O101	O10	0.760110	0.781500	0.555100
O111	O11	0.787900	0.007300	0.484300
O121	O12	0.773400	0.129100	0.703700
C371	C37	0.374400	0.535400	0.473700
H251	H25	0.387200	0.517200	0.528300
C381	C38	0.409200	0.575700	0.413500
H261	H26	0.445800	0.585400	0.426800
C391	C39	0.389400	0.602200	0.331900
H271	H27	0.412900	0.630900	0.290900
C401	C40	0.335900	0.586800	0.311100
C411	C41	0.301500	0.545600	0.373700
C421	C42	0.242300	0.524200	0.360800
C431	C43	0.199400	0.588400	0.387200
C441	C44	0.147100	0.557400	0.369900
H281	H28	0.117800	0.599000	0.387700
C451	C45	0.137900	0.462400	0.325100
H291	H29	0.102600	0.442400	0.310700
C461	C46	0.180400	0.400000	0.302900
H301	H30	0.174200	0.335600	0.275600
C471	C47	0.314800	0.618000	0.222500
C481	C48	0.212000	0.687200	0.439600
C491	C49	0.157000	0.522900	0.088800
H311	H31	0.182800	0.476600	0.111600
C501	C50	0.103800	0.490300	0.087800
H321	H32	0.094200	0.425200	0.111300
C511	C51	0.065100	0.554100	0.052100
C521	C52	0.082100	0.652100	0.021400
H331	H33	0.057100	0.699900	0.998900
C531	C53	0.137000	0.677200	0.024700
H341	H34	0.148200	0.741200	0.000900
C541	C54	0.006400	0.523500	0.045400
H351	H35	0.983800	0.585200	0.055300
H361	H36	0.997900	0.471600	0.089600
Cd31	Cd3	0.264520	0.673650	0.067510
N71	N7	0.174600	0.615100	0.059900
N81	N8	0.232100	0.431000	0.320200
N91	N9	0.322000	0.522200	0.454300
O131	O13	0.267000	0.592100	0.203600
O141	O14	0.344200	0.668700	0.173500
O151	O15	0.172690	0.730700	0.479500
O161	O16	0.260110	0.718500	0.444900
O171	O17	0.287900	0.492700	0.515700
O181	O18	0.273400	0.370900	0.296300
C551	C55	0.125600	0.964600	0.973700
H371	H37	0.112800	0.982800	0.028300
C561	C56	0.090800	0.924300	0.913500
H381	H38	0.054200	0.914600	0.926800
C571	C57	0.110600	0.897800	0.831900
H391	H39	0.087100	0.869100	0.790900
C581	C58	0.164100	0.913200	0.811100
C591	C59	0.198500	0.954400	0.873700
C601	C60	0.257700	0.975800	0.860800
C611	C61	0.300600	0.911600	0.887200
C621	C62	0.352900	0.942600	0.869900
H401	H40	0.382200	0.901000	0.887700
C631	C63	0.362100	0.037600	0.825100
H411	H41	0.397400	0.057600	0.810700
C641	C64	0.319600	0.100000	0.802900
H421	H42	0.325800	0.164400	0.775600
C651	C65	0.185200	0.882000	0.722500
C661	C66	0.288000	0.812800	0.939600
C671	C67	0.343000	0.977100	0.588800
H431	H43	0.317200	0.023400	0.611600
C681	C68	0.396200	0.009700	0.587800
H441	H44	0.405800	0.074800	0.611300
C691	C69	0.434900	0.945900	0.552100
C701	C70	0.417900	0.847900	0.521400
H451	H45	0.442900	0.800100	0.498900
C711	C71	0.363000	0.822800	0.524700
H461	H46	0.351800	0.758800	0.500900
C721	C72	0.493600	0.976500	0.545400
H471	H47	0.516200	0.914800	0.555300
H481	H48	0.502100	0.028400	0.589600
Cd41	Cd4	0.235480	0.826350	0.567510
N101	N10	0.325400	0.884900	0.559900
N111	N11	0.267900	0.069000	0.820200
N121	N12	0.178000	0.977800	0.954300
O191	O19	0.233000	0.907900	0.703600
O201	O20	0.155800	0.831300	0.673500
O211	O21	0.327310	0.769300	0.979500
O221	O22	0.239890	0.781500	0.944900
O231	O23	0.212100	0.007300	0.015700
O241	O24	0.226600	0.129100	0.796300
C731	C73	0.374400	0.464600	0.973700
H491	H49	0.387200	0.482800	0.028300
C741	C74	0.409200	0.424300	0.913500
H501	H50	0.445800	0.414600	0.926800
C751	C75	0.389400	0.397800	0.831900
H511	H51	0.412900	0.369100	0.790900
C761	C76	0.335900	0.413200	0.811100
C771	C77	0.301500	0.454400	0.873700
C781	C78	0.242300	0.475800	0.860800
C791	C79	0.199400	0.411600	0.887200
C801	C80	0.147100	0.442600	0.869900
H521	H52	0.117800	0.401000	0.887700
C811	C81	0.137900	0.537600	0.825100
H531	H53	0.102600	0.557600	0.810700
C821	C82	0.180400	0.600000	0.802900
H541	H54	0.174200	0.664400	0.775600
C831	C83	0.314800	0.382000	0.722500
C841	C84	0.212000	0.312800	0.939600
C851	C85	0.157000	0.477100	0.588800
H551	H55	0.182800	0.523400	0.611600
C861	C86	0.103800	0.509700	0.587800
H561	H56	0.094200	0.574800	0.611300
C871	C87	0.065100	0.445900	0.552100
C881	C88	0.082100	0.347900	0.521400
H571	H57	0.057100	0.300100	0.498900
C891	C89	0.137000	0.322800	0.524700
H581	H58	0.148200	0.258800	0.500900
C901	C90	0.006400	0.476500	0.545400
H591	H59	0.983800	0.414800	0.555300
H601	H60	0.997900	0.528400	0.589600
Cd51	Cd5	0.264520	0.326350	0.567510
N131	N13	0.174600	0.384900	0.559900
N141	N14	0.232100	0.569000	0.820200
N151	N15	0.322000	0.477800	0.954300
O251	O25	0.267000	0.407900	0.703600
O261	O26	0.344200	0.331300	0.673500
O271	O27	0.172690	0.269300	0.979500
O281	O28	0.260110	0.281500	0.944900
O291	O29	0.287900	0.507300	0.015700
O301	O30	0.273400	0.629100	0.796300
C911	C91	0.125600	0.035400	0.473700
H611	H61	0.112800	0.017200	0.528300
C921	C92	0.090800	0.075700	0.413500
H621	H62	0.054200	0.085400	0.426800
C931	C93	0.110600	0.102200	0.331900
H631	H63	0.087100	0.130900	0.290900
C941	C94	0.164100	0.086800	0.311100
C951	C95	0.198500	0.045600	0.373700
C961	C96	0.257700	0.024200	0.360800
C971	C97	0.300600	0.088400	0.387200
C981	C98	0.352900	0.057400	0.369900
H641	H64	0.382200	0.099000	0.387700
C991	C99	0.362100	0.962400	0.325100
H651	H65	0.397400	0.942400	0.310700
C1001	C100	0.319600	0.900000	0.302900
H661	H66	0.325800	0.835600	0.275600
C1011	C101	0.185200	0.118000	0.222500
C1021	C102	0.288000	0.187200	0.439600
C1031	C103	0.343000	0.022900	0.088800
H671	H67	0.317200	0.976600	0.111600
C1041	C104	0.396200	0.990300	0.087800
H681	H68	0.405800	0.925200	0.111300
C1051	C105	0.434900	0.054100	0.052100
C1061	C106	0.417900	0.152100	0.021400
H691	H69	0.442900	0.199900	0.998900
C1071	C107	0.363000	0.177200	0.024700
H701	H70	0.351800	0.241200	0.000900
C1081	C108	0.493600	0.023500	0.045400
H711	H71	0.516200	0.085200	0.055300
H721	H72	0.502100	0.971600	0.089600
Cd61	Cd6	0.235480	0.173650	0.067510
N161	N16	0.325400	0.115100	0.059900
N171	N17	0.267900	0.931000	0.320200
N181	N18	0.178000	0.022200	0.454300
O311	O31	0.233000	0.092100	0.203600
O321	O32	0.155800	0.168700	0.173500
O331	O33	0.327310	0.230700	0.479500
O341	O34	0.239890	0.218500	0.444900
O351	O35	0.212100	0.992700	0.515700
O361	O36	0.226600	0.870900	0.296300
C1091	C109	0.625600	0.464600	0.526300
H731	H73	0.612800	0.482800	0.471700
C1101	C110	0.590800	0.424300	0.586500
H741	H74	0.554200	0.414600	0.573200
C1111	C111	0.610600	0.397800	0.668100
H751	H75	0.587100	0.369100	0.709100
C1121	C112	0.664100	0.413200	0.688900
C1131	C113	0.698500	0.454400	0.626300
C1141	C114	0.757700	0.475800	0.639200
C1151	C115	0.800600	0.411600	0.612800
C1161	C116	0.852900	0.442600	0.630100
H761	H76	0.882200	0.401000	0.612300
C1171	C117	0.862100	0.537600	0.674900
H771	H77	0.897400	0.557600	0.689300
C1181	C118	0.819600	0.600000	0.697100
H781	H78	0.825800	0.664400	0.724400
C1191	C119	0.685200	0.382000	0.777500
C1201	C120	0.788000	0.312800	0.560400
C1211	C121	0.843000	0.477100	0.911200
H791	H79	0.817200	0.523400	0.888400
C1221	C122	0.896200	0.509700	0.912200
H801	H80	0.905800	0.574800	0.888700
C1231	C123	0.934900	0.445900	0.947900
C1241	C124	0.917900	0.347900	0.978600
H811	H81	0.942900	0.300100	0.001100
C1251	C125	0.863000	0.322800	0.975300
H821	H82	0.851800	0.258800	0.999100
C1261	C126	0.993600	0.476500	0.954600
H831	H83	0.016200	0.414800	0.944700
H841	H84	0.002100	0.528400	0.910400
Cd71	Cd7	0.735480	0.326350	0.932490
N191	N19	0.825400	0.384900	0.940100
N201	N20	0.767900	0.569000	0.679800
N211	N21	0.678000	0.477800	0.545700
O371	O37	0.733000	0.407900	0.796400
O381	O38	0.655800	0.331300	0.826500
O391	O39	0.827310	0.269300	0.520500
O401	O40	0.739890	0.281500	0.555100
O411	O41	0.712100	0.507300	0.484300
O421	O42	0.726600	0.629100	0.703700
C1271	C127	0.874400	0.035400	0.026300
H851	H85	0.887200	0.017200	0.971700
C1281	C128	0.909200	0.075700	0.086500
H861	H86	0.945800	0.085400	0.073200
C1291	C129	0.889400	0.102200	0.168100
H871	H87	0.912900	0.130900	0.209100
C1301	C130	0.835900	0.086800	0.188900
C1311	C131	0.801500	0.045600	0.126300
C1321	C132	0.742300	0.024200	0.139200
C1331	C133	0.699400	0.088400	0.112800
C1341	C134	0.647100	0.057400	0.130100
H881	H88	0.617800	0.099000	0.112300
C1351	C135	0.637900	0.962400	0.174900
H891	H89	0.602600	0.942400	0.189300
C1361	C136	0.680400	0.900000	0.197100
H901	H90	0.674200	0.835600	0.224400
C1371	C137	0.814800	0.118000	0.277500
C1381	C138	0.712000	0.187200	0.060400
C1391	C139	0.657000	0.022900	0.411200
H911	H91	0.682800	0.976600	0.388400
C1401	C140	0.603800	0.990300	0.412200
H921	H92	0.594200	0.925200	0.388700
C1411	C141	0.565100	0.054100	0.447900
C1421	C142	0.582100	0.152100	0.478600
H931	H93	0.557100	0.199900	0.501100
C1431	C143	0.637000	0.177200	0.475300
H941	H94	0.648200	0.241200	0.499100
C1441	C144	0.506400	0.023500	0.454600
H951	H95	0.483800	0.085200	0.444700
H961	H96	0.497900	0.971600	0.410400
Cd81	Cd8	0.764520	0.173650	0.432490
N221	N22	0.674600	0.115100	0.440100
N231	N23	0.732100	0.931000	0.179800
N241	N24	0.822000	0.022200	0.045700
O431	O43	0.767000	0.092100	0.296400
O441	O44	0.844200	0.168700	0.326500
O451	O45	0.672690	0.230700	0.020500
O461	O46	0.760110	0.218500	0.055100
O471	O47	0.787900	0.992700	0.984300
O481	O48	0.773400	0.870900	0.203700
