data_FOVPUD_clean_PM
_symmetry_space_group_name_H-M	'P1'
_cell_length_a	24.641000
_cell_length_b	12.468000
_cell_length_c	15.427000
_cell_angle_alpha	90.000000
_cell_angle_beta	90.000000
_cell_angle_gamma	90.000000
_symmetry_Int_Tables_number 1

loop_
_symmetry_equiv_pos_as_xyz
'x,y,z'

loop_
_atom_site_label
_atom_site_type_symbol
_atom_site_fract_x
_atom_site_fract_y
_atom_site_fract_z
Cd11	Cd1	0.236020	0.825270	0.577560
N11	N1	0.232100	0.431400	0.325000
N21	N2	0.320800	0.519900	0.462500
N31	N3	0.325320	0.883500	0.572700
O11	O1	0.173810	0.735100	0.483800
O21	O2	0.260630	0.720500	0.453200
O31	O3	0.348200	0.666400	0.182100
O41	O4	0.270200	0.597900	0.211300
O51	O5	0.273700	0.368100	0.304800
O61	O6	0.284520	0.492800	0.524200
C11	C1	0.180700	0.401700	0.306800
H11	H1	0.174100	0.335900	0.280600
C21	C2	0.139100	0.467000	0.326600
H21	H2	0.104000	0.448200	0.310100
C31	C3	0.147900	0.564100	0.372100
H31	H3	0.118900	0.607600	0.388300
C41	C4	0.200300	0.592200	0.391700
C51	C5	0.242800	0.524800	0.366500
C61	C6	0.301300	0.545200	0.382300
C71	C7	0.337900	0.583800	0.320500
C81	C8	0.391900	0.595400	0.342700
H41	H4	0.416300	0.623100	0.302500
C91	C9	0.409900	0.565900	0.424400
H51	H5	0.446500	0.571200	0.438700
C101	C10	0.372900	0.528900	0.484100
H61	H6	0.384300	0.510100	0.539500
C111	C11	0.212800	0.691400	0.444900
C121	C12	0.317000	0.617200	0.230800
C131	C13	0.363400	0.823900	0.534200
H71	H7	0.354500	0.755000	0.515800
C141	C14	0.415700	0.861100	0.520800
H81	H8	0.441500	0.817000	0.495100
C151	C15	0.429300	0.964400	0.546000
C161	C16	0.390600	0.024500	0.585300
H91	H9	0.398400	0.093800	0.603600
C171	C17	0.340000	0.982100	0.597800
H101	H10	0.314100	0.024500	0.625400
C181	C18	0.483400	0.016000	0.525200
H111	H11	0.491700	0.079000	0.554600
Cd21	Cd2	0.263980	0.674730	0.077560
N41	N4	0.267900	0.068600	0.825000
N51	N5	0.179200	0.980100	0.962500
N61	N6	0.174680	0.616500	0.072700
O71	O7	0.326190	0.764900	0.983800
O81	O8	0.239370	0.779500	0.953200
O91	O9	0.151800	0.833600	0.682100
O101	O10	0.229800	0.902100	0.711300
O111	O11	0.226300	0.131900	0.804800
O121	O12	0.215480	0.007200	0.024200
C191	C19	0.319300	0.098300	0.806800
H121	H12	0.325900	0.164100	0.780600
C201	C20	0.360900	0.033000	0.826600
H131	H13	0.396000	0.051800	0.810100
C211	C21	0.352100	0.935900	0.872100
H141	H14	0.381100	0.892400	0.888300
C221	C22	0.299700	0.907800	0.891700
C231	C23	0.257200	0.975200	0.866500
C241	C24	0.198700	0.954800	0.882300
C251	C25	0.162100	0.916200	0.820500
C261	C26	0.108100	0.904600	0.842700
H151	H15	0.083700	0.876900	0.802500
C271	C27	0.090100	0.934100	0.924400
H161	H16	0.053500	0.928800	0.938700
C281	C28	0.127100	0.971100	0.984100
H171	H17	0.115700	0.989900	0.039500
C291	C29	0.287200	0.808600	0.944900
C301	C30	0.183000	0.882800	0.730800
C311	C31	0.136600	0.676100	0.034200
H181	H18	0.145500	0.745000	0.015800
C321	C32	0.084300	0.638900	0.020800
H191	H19	0.058500	0.683000	0.995100
C331	C33	0.070700	0.535600	0.046000
C341	C34	0.109400	0.475500	0.085300
H201	H20	0.101600	0.406200	0.103600
C351	C35	0.160000	0.517900	0.097800
H211	H21	0.185900	0.475500	0.125400
C361	C36	0.016600	0.484000	0.025200
H221	H22	0.008300	0.421000	0.054600
Cd31	Cd3	0.763980	0.825270	0.922440
N71	N7	0.767900	0.431400	0.175000
N81	N8	0.679200	0.519900	0.037500
N91	N9	0.674680	0.883500	0.927300
O131	O13	0.826190	0.735100	0.016200
O141	O14	0.739370	0.720500	0.046800
O151	O15	0.651800	0.666400	0.317900
O161	O16	0.729800	0.597900	0.288700
O171	O17	0.726300	0.368100	0.195200
O181	O18	0.715480	0.492800	0.975800
C371	C37	0.819300	0.401700	0.193200
H231	H23	0.825900	0.335900	0.219400
C381	C38	0.860900	0.467000	0.173400
H241	H24	0.896000	0.448200	0.189900
C391	C39	0.852100	0.564100	0.127900
H251	H25	0.881100	0.607600	0.111700
C401	C40	0.799700	0.592200	0.108300
C411	C41	0.757200	0.524800	0.133500
C421	C42	0.698700	0.545200	0.117700
C431	C43	0.662100	0.583800	0.179500
C441	C44	0.608100	0.595400	0.157300
H261	H26	0.583700	0.623100	0.197500
C451	C45	0.590100	0.565900	0.075600
H271	H27	0.553500	0.571200	0.061300
C461	C46	0.627100	0.528900	0.015900
H281	H28	0.615700	0.510100	0.960500
C471	C47	0.787200	0.691400	0.055100
C481	C48	0.683000	0.617200	0.269200
C491	C49	0.636600	0.823900	0.965800
H291	H29	0.645500	0.755000	0.984200
C501	C50	0.584300	0.861100	0.979200
H301	H30	0.558500	0.817000	0.004900
C511	C51	0.570700	0.964400	0.954000
C521	C52	0.609400	0.024500	0.914700
H311	H31	0.601600	0.093800	0.896400
C531	C53	0.660000	0.982100	0.902200
H321	H32	0.685900	0.024500	0.874600
C541	C54	0.516600	0.016000	0.974800
H331	H33	0.508300	0.079000	0.945400
Cd41	Cd4	0.736020	0.674730	0.422440
N101	N10	0.732100	0.068600	0.675000
N111	N11	0.820800	0.980100	0.537500
N121	N12	0.825320	0.616500	0.427300
O191	O19	0.673810	0.764900	0.516200
O201	O20	0.760630	0.779500	0.546800
O211	O21	0.848200	0.833600	0.817900
O221	O22	0.770200	0.902100	0.788700
O231	O23	0.773700	0.131900	0.695200
O241	O24	0.784520	0.007200	0.475800
C551	C55	0.680700	0.098300	0.693200
H341	H34	0.674100	0.164100	0.719400
C561	C56	0.639100	0.033000	0.673400
H351	H35	0.604000	0.051800	0.689900
C571	C57	0.647900	0.935900	0.627900
H361	H36	0.618900	0.892400	0.611700
C581	C58	0.700300	0.907800	0.608300
C591	C59	0.742800	0.975200	0.633500
C601	C60	0.801300	0.954800	0.617700
C611	C61	0.837900	0.916200	0.679500
C621	C62	0.891900	0.904600	0.657300
H371	H37	0.916300	0.876900	0.697500
C631	C63	0.909900	0.934100	0.575600
H381	H38	0.946500	0.928800	0.561300
C641	C64	0.872900	0.971100	0.515900
H391	H39	0.884300	0.989900	0.460500
C651	C65	0.712800	0.808600	0.555100
C661	C66	0.817000	0.882800	0.769200
C671	C67	0.863400	0.676100	0.465800
H401	H40	0.854500	0.745000	0.484200
C681	C68	0.915700	0.638900	0.479200
H411	H41	0.941500	0.683000	0.504900
C691	C69	0.929300	0.535600	0.454000
C701	C70	0.890600	0.475500	0.414700
H421	H42	0.898400	0.406200	0.396400
C711	C71	0.840000	0.517900	0.402200
H431	H43	0.814100	0.475500	0.374600
C721	C72	0.983400	0.484000	0.474800
H441	H44	0.991700	0.421000	0.445400
Cd51	Cd5	0.763980	0.174730	0.422440
N131	N13	0.767900	0.568600	0.675000
N141	N14	0.679200	0.480100	0.537500
N151	N15	0.674680	0.116500	0.427300
O251	O25	0.826190	0.264900	0.516200
O261	O26	0.739370	0.279500	0.546800
O271	O27	0.651800	0.333600	0.817900
O281	O28	0.729800	0.402100	0.788700
O291	O29	0.726300	0.631900	0.695200
O301	O30	0.715480	0.507200	0.475800
C731	C73	0.819300	0.598300	0.693200
H451	H45	0.825900	0.664100	0.719400
C741	C74	0.860900	0.533000	0.673400
H461	H46	0.896000	0.551800	0.689900
C751	C75	0.852100	0.435900	0.627900
H471	H47	0.881100	0.392400	0.611700
C761	C76	0.799700	0.407800	0.608300
C771	C77	0.757200	0.475200	0.633500
C781	C78	0.698700	0.454800	0.617700
C791	C79	0.662100	0.416200	0.679500
C801	C80	0.608100	0.404600	0.657300
H481	H48	0.583700	0.376900	0.697500
C811	C81	0.590100	0.434100	0.575600
H491	H49	0.553500	0.428800	0.561300
C821	C82	0.627100	0.471100	0.515900
H501	H50	0.615700	0.489900	0.460500
C831	C83	0.787200	0.308600	0.555100
C841	C84	0.683000	0.382800	0.769200
C851	C85	0.636600	0.176100	0.465800
H511	H51	0.645500	0.245000	0.484200
C861	C86	0.584300	0.138900	0.479200
H521	H52	0.558500	0.183000	0.504900
C871	C87	0.570700	0.035600	0.454000
C881	C88	0.609400	0.975500	0.414700
H531	H53	0.601600	0.906200	0.396400
C891	C89	0.660000	0.017900	0.402200
H541	H54	0.685900	0.975500	0.374600
C901	C90	0.516600	0.984000	0.474800
H551	H55	0.508300	0.921000	0.445400
Cd61	Cd6	0.736020	0.325270	0.922440
N161	N16	0.732100	0.931400	0.175000
N171	N17	0.820800	0.019900	0.037500
N181	N18	0.825320	0.383500	0.927300
O311	O31	0.673810	0.235100	0.016200
O321	O32	0.760630	0.220500	0.046800
O331	O33	0.848200	0.166400	0.317900
O341	O34	0.770200	0.097900	0.288700
O351	O35	0.773700	0.868100	0.195200
O361	O36	0.784520	0.992800	0.975800
C911	C91	0.680700	0.901700	0.193200
H561	H56	0.674100	0.835900	0.219400
C921	C92	0.639100	0.967000	0.173400
H571	H57	0.604000	0.948200	0.189900
C931	C93	0.647900	0.064100	0.127900
H581	H58	0.618900	0.107600	0.111700
C941	C94	0.700300	0.092200	0.108300
C951	C95	0.742800	0.024800	0.133500
C961	C96	0.801300	0.045200	0.117700
C971	C97	0.837900	0.083800	0.179500
C981	C98	0.891900	0.095400	0.157300
H591	H59	0.916300	0.123100	0.197500
C991	C99	0.909900	0.065900	0.075600
H601	H60	0.946500	0.071200	0.061300
C1001	C100	0.872900	0.028900	0.015900
H611	H61	0.884300	0.010100	0.960500
C1011	C101	0.712800	0.191400	0.055100
C1021	C102	0.817000	0.117200	0.269200
C1031	C103	0.863400	0.323900	0.965800
H621	H62	0.854500	0.255000	0.984200
C1041	C104	0.915700	0.361100	0.979200
H631	H63	0.941500	0.317000	0.004900
C1051	C105	0.929300	0.464400	0.954000
C1061	C106	0.890600	0.524500	0.914700
H641	H64	0.898400	0.593800	0.896400
C1071	C107	0.840000	0.482100	0.902200
H651	H65	0.814100	0.524500	0.874600
C1081	C108	0.983400	0.516000	0.974800
H661	H66	0.991700	0.579000	0.945400
Cd71	Cd7	0.236020	0.174730	0.077560
N191	N19	0.232100	0.568600	0.825000
N201	N20	0.320800	0.480100	0.962500
N211	N21	0.325320	0.116500	0.072700
O371	O37	0.173810	0.264900	0.983800
O381	O38	0.260630	0.279500	0.953200
O391	O39	0.348200	0.333600	0.682100
O401	O40	0.270200	0.402100	0.711300
O411	O41	0.273700	0.631900	0.804800
O421	O42	0.284520	0.507200	0.024200
C1091	C109	0.180700	0.598300	0.806800
H671	H67	0.174100	0.664100	0.780600
C1101	C110	0.139100	0.533000	0.826600
H681	H68	0.104000	0.551800	0.810100
C1111	C111	0.147900	0.435900	0.872100
H691	H69	0.118900	0.392400	0.888300
C1121	C112	0.200300	0.407800	0.891700
C1131	C113	0.242800	0.475200	0.866500
C1141	C114	0.301300	0.454800	0.882300
C1151	C115	0.337900	0.416200	0.820500
C1161	C116	0.391900	0.404600	0.842700
H701	H70	0.416300	0.376900	0.802500
C1171	C117	0.409900	0.434100	0.924400
H711	H71	0.446500	0.428800	0.938700
C1181	C118	0.372900	0.471100	0.984100
H721	H72	0.384300	0.489900	0.039500
C1191	C119	0.212800	0.308600	0.944900
C1201	C120	0.317000	0.382800	0.730800
C1211	C121	0.363400	0.176100	0.034200
H731	H73	0.354500	0.245000	0.015800
C1221	C122	0.415700	0.138900	0.020800
H741	H74	0.441500	0.183000	0.995100
C1231	C123	0.429300	0.035600	0.046000
C1241	C124	0.390600	0.975500	0.085300
H751	H75	0.398400	0.906200	0.103600
C1251	C125	0.340000	0.017900	0.097800
H761	H76	0.314100	0.975500	0.125400
C1261	C126	0.483400	0.984000	0.025200
H771	H77	0.491700	0.921000	0.054600
Cd81	Cd8	0.263980	0.325270	0.577560
N221	N22	0.267900	0.931400	0.325000
N231	N23	0.179200	0.019900	0.462500
N241	N24	0.174680	0.383500	0.572700
O431	O43	0.326190	0.235100	0.483800
O441	O44	0.239370	0.220500	0.453200
O451	O45	0.151800	0.166400	0.182100
O461	O46	0.229800	0.097900	0.211300
O471	O47	0.226300	0.868100	0.304800
O481	O48	0.215480	0.992800	0.524200
C1271	C127	0.319300	0.901700	0.306800
H781	H78	0.325900	0.835900	0.280600
C1281	C128	0.360900	0.967000	0.326600
H791	H79	0.396000	0.948200	0.310100
C1291	C129	0.352100	0.064100	0.372100
H801	H80	0.381100	0.107600	0.388300
C1301	C130	0.299700	0.092200	0.391700
C1311	C131	0.257200	0.024800	0.366500
C1321	C132	0.198700	0.045200	0.382300
C1331	C133	0.162100	0.083800	0.320500
C1341	C134	0.108100	0.095400	0.342700
H811	H81	0.083700	0.123100	0.302500
C1351	C135	0.090100	0.065900	0.424400
H821	H82	0.053500	0.071200	0.438700
C1361	C136	0.127100	0.028900	0.484100
H831	H83	0.115700	0.010100	0.539500
C1371	C137	0.287200	0.191400	0.444900
C1381	C138	0.183000	0.117200	0.230800
C1391	C139	0.136600	0.323900	0.534200
H841	H84	0.145500	0.255000	0.515800
C1401	C140	0.084300	0.361100	0.520800
H851	H85	0.058500	0.317000	0.495100
C1411	C141	0.070700	0.464400	0.546000
C1421	C142	0.109400	0.524500	0.585300
H861	H86	0.101600	0.593800	0.603600
C1431	C143	0.160000	0.482100	0.597800
H871	H87	0.185900	0.524500	0.625400
C1441	C144	0.016600	0.516000	0.525200
H881	H88	0.008300	0.579000	0.554600
