data_FOVPEN_clean_PM
_symmetry_space_group_name_H-M	'P1'
_cell_length_a	30.095400
_cell_length_b	15.504800
_cell_length_c	35.484300
_cell_angle_alpha	90.000000
_cell_angle_beta	107.185000
_cell_angle_gamma	90.000000
_symmetry_Int_Tables_number 1

loop_
_symmetry_equiv_pos_as_xyz
'x,y,z'

loop_
_atom_site_label
_atom_site_type_symbol
_atom_site_fract_x
_atom_site_fract_y
_atom_site_fract_z
Ag11	Ag1	0.768230	0.463310	0.026720
Ag21	Ag2	0.013510	0.216430	0.010190
Ag31	Ag3	0.270570	0.488750	0.272370
O11	O1	0.800300	0.640300	0.009770
O21	O2	0.771000	0.978200	0.906340
O31	O3	0.918360	0.039200	0.004960
O41	O4	0.074500	0.347100	0.018800
O51	O5	0.209600	0.731700	0.067550
O61	O6	0.234300	0.339800	0.114510
N11	N1	0.814100	0.418400	0.081350
N21	N2	0.855900	0.684000	0.063520
H11	H1	0.878000	0.721500	0.074100
N31	N3	0.705500	0.940400	0.758600
N41	N4	0.754900	0.839900	0.887700
H21	H2	0.762100	0.785700	0.893900
N51	N5	0.062100	0.162600	0.064660
N61	N6	0.949400	0.949900	0.055550
H31	H3	0.948900	0.898900	0.066300
N71	N7	0.960800	0.235800	0.952350
N81	N8	0.048500	0.461900	0.980070
H41	H4	0.054300	0.513400	0.972100
N91	N9	0.216700	0.981500	0.971080
N101	N10	0.159200	0.726800	0.006400
H51	H5	0.141000	0.693400	0.988200
N111	N11	0.339100	0.445200	0.271850
N121	N12	0.255700	0.465600	0.146100
H61	H6	0.251300	0.521700	0.146000
C11	C1	0.798700	0.352900	0.099100
H71	H7	0.770300	0.325600	0.085400
C21	C2	0.822400	0.323600	0.136300
H81	H8	0.811200	0.275600	0.147500
C31	C3	0.862400	0.365400	0.156900
H91	H9	0.878800	0.348200	0.183000
C41	C4	0.878400	0.432200	0.139300
H101	H10	0.905900	0.461900	0.153200
C51	C5	0.854100	0.456800	0.100900
C61	C6	0.870100	0.529800	0.080200
H111	H11	0.861600	0.517800	0.051500
H121	H12	0.904400	0.535200	0.090200
C71	C7	0.847600	0.612900	0.087300
H131	H13	0.813700	0.603800	0.081300
H141	H14	0.859900	0.628500	0.115600
C81	C8	0.830700	0.693100	0.026100
C91	C9	0.839800	0.772400	0.004900
C101	C10	0.876200	0.827400	0.021300
H151	H15	0.898700	0.811900	0.045300
C111	C11	0.671400	0.965600	0.726300
H161	H16	0.676300	0.015100	0.712200
C121	C12	0.630000	0.921900	0.713100
H171	H17	0.606300	0.941500	0.690600
C131	C13	0.623500	0.850400	0.732900
H181	H18	0.595100	0.819000	0.724200
C141	C14	0.658700	0.823100	0.766200
H191	H19	0.654700	0.772900	0.780200
C151	C15	0.699000	0.869800	0.778400
C161	C16	0.736500	0.845800	0.814900
H201	H20	0.764200	0.882300	0.817500
H211	H21	0.745600	0.784800	0.813300
C171	C17	0.719200	0.858200	0.850800
H221	H22	0.708400	0.918400	0.851300
H231	H23	0.692300	0.819700	0.848500
C181	C18	0.777500	0.900700	0.912600
C191	C19	0.811700	0.870700	0.950500
C201	C20	0.807900	0.793300	0.969200
H241	H24	0.783100	0.754700	0.957400
C211	C21	0.095600	0.215600	0.086600
H251	H25	0.096600	0.273700	0.078400
C221	C22	0.127800	0.188400	0.119600
H261	H26	0.150900	0.227300	0.134200
C231	C23	0.127500	0.106000	0.132200
H271	H27	0.150200	0.086400	0.155300
C241	C24	0.093600	0.051600	0.110500
H281	H28	0.092600	0.993400	0.118600
C251	C25	0.060900	0.081200	0.076900
C261	C26	0.021900	0.024000	0.054200
H291	H29	0.034600	0.966700	0.050700
H301	H30	0.007700	0.049000	0.027700
C271	C27	0.984700	0.013100	0.074800
H311	H31	0.999600	0.994900	0.102400
H321	H32	0.969500	0.069500	0.075400
C281	C28	0.918300	0.969700	0.021800
C291	C29	0.880400	0.904700	0.003500
C301	C30	0.847400	0.926600	0.968200
H331	H33	0.849400	0.980500	0.956100
C311	C31	0.920700	0.192000	0.945600
H341	H34	0.917200	0.153600	0.965400
C321	C32	0.884400	0.200000	0.911400
H351	H35	0.857100	0.166000	0.907100
C331	C33	0.888700	0.257500	0.883800
H361	H36	0.863900	0.266000	0.860300
C341	C34	0.930000	0.304200	0.890500
H371	H37	0.933700	0.344000	0.871300
C351	C35	0.965100	0.292800	0.924600
C361	C36	0.009200	0.344900	0.934600
H381	H38	0.014400	0.367400	0.910200
H391	H39	0.036000	0.308200	0.948300
C371	C37	0.004700	0.419800	0.961300
H401	H40	0.982700	0.462700	0.945400
H411	H41	0.991500	0.397800	0.981900
C381	C38	0.080300	0.422400	0.009600
C391	C39	0.123500	0.471200	0.031600
C401	C40	0.130600	0.557500	0.025000
H421	H42	0.107600	0.588600	0.005600
C411	C41	0.210900	0.060500	0.953600
H431	H43	0.230400	0.106300	0.966600
C421	C42	0.179000	0.077300	0.918900
H441	H44	0.176000	0.133600	0.907900
C431	C43	0.150500	0.010900	0.899500
H451	H45	0.127700	0.020900	0.874900
C441	C44	0.155800	0.930500	0.916300
H461	H46	0.136400	0.884300	0.903500
C451	C45	0.189400	0.916700	0.952100
C461	C46	0.194600	0.827900	0.970500
H471	H47	0.227300	0.818900	0.986400
H481	H48	0.186700	0.783700	0.949400
C471	C47	0.163000	0.817700	0.996500
H491	H49	0.175700	0.851400	0.021100
H501	H50	0.131800	0.840700	0.982600
C481	C48	0.181500	0.691500	0.041000
C491	C49	0.171300	0.598800	0.046500
C501	C50	0.203700	0.553000	0.075000
H511	H51	0.231800	0.580500	0.089500
C511	C51	0.367800	0.407900	0.304100
H521	H52	0.357000	0.399600	0.326400
C521	C52	0.411700	0.381400	0.306300
H531	H53	0.431400	0.356700	0.329800
C531	C53	0.427000	0.391600	0.272900
H541	H54	0.456900	0.371900	0.272900
C541	C54	0.398300	0.429900	0.240500
H551	H55	0.408300	0.438400	0.217800
C551	C55	0.354200	0.457000	0.240500
C561	C56	0.321200	0.496500	0.204200
H561	H56	0.339100	0.526100	0.188600
H571	H57	0.301500	0.539900	0.212100
C571	C57	0.290600	0.426700	0.179200
H581	H58	0.310100	0.386400	0.169300
H591	H59	0.275100	0.393500	0.195600
C581	C58	0.230200	0.418600	0.115700
C591	C59	0.196400	0.467700	0.083000
C601	C60	0.156300	0.426800	0.060400
H601	H60	0.151600	0.367500	0.064700
Ag41	Ag4	0.268230	0.963310	0.026720
Ag51	Ag5	0.513510	0.716430	0.010190
Ag61	Ag6	0.770570	0.988750	0.272370
O71	O7	0.300300	0.140300	0.009770
O81	O8	0.271000	0.478200	0.906340
O91	O9	0.418360	0.539200	0.004960
O101	O10	0.574500	0.847100	0.018800
O111	O11	0.709600	0.231700	0.067550
O121	O12	0.734300	0.839800	0.114510
N131	N13	0.314100	0.918400	0.081350
N141	N14	0.355900	0.184000	0.063520
H611	H61	0.378000	0.221500	0.074100
N151	N15	0.205500	0.440400	0.758600
N161	N16	0.254900	0.339900	0.887700
H621	H62	0.262100	0.285700	0.893900
N171	N17	0.562100	0.662600	0.064660
N181	N18	0.449400	0.449900	0.055550
H631	H63	0.448900	0.398900	0.066300
N191	N19	0.460800	0.735800	0.952350
N201	N20	0.548500	0.961900	0.980070
H641	H64	0.554300	0.013400	0.972100
N211	N21	0.716700	0.481500	0.971080
N221	N22	0.659200	0.226800	0.006400
H651	H65	0.641000	0.193400	0.988200
N231	N23	0.839100	0.945200	0.271850
N241	N24	0.755700	0.965600	0.146100
H661	H66	0.751300	0.021700	0.146000
C611	C61	0.298700	0.852900	0.099100
H671	H67	0.270300	0.825600	0.085400
C621	C62	0.322400	0.823600	0.136300
H681	H68	0.311200	0.775600	0.147500
C631	C63	0.362400	0.865400	0.156900
H691	H69	0.378800	0.848200	0.183000
C641	C64	0.378400	0.932200	0.139300
H701	H70	0.405900	0.961900	0.153200
C651	C65	0.354100	0.956800	0.100900
C661	C66	0.370100	0.029800	0.080200
H711	H71	0.361600	0.017800	0.051500
H721	H72	0.404400	0.035200	0.090200
C671	C67	0.347600	0.112900	0.087300
H731	H73	0.313700	0.103800	0.081300
H741	H74	0.359900	0.128500	0.115600
C681	C68	0.330700	0.193100	0.026100
C691	C69	0.339800	0.272400	0.004900
C701	C70	0.376200	0.327400	0.021300
H751	H75	0.398700	0.311900	0.045300
C711	C71	0.171400	0.465600	0.726300
H761	H76	0.176300	0.515100	0.712200
C721	C72	0.130000	0.421900	0.713100
H771	H77	0.106300	0.441500	0.690600
C731	C73	0.123500	0.350400	0.732900
H781	H78	0.095100	0.319000	0.724200
C741	C74	0.158700	0.323100	0.766200
H791	H79	0.154700	0.272900	0.780200
C751	C75	0.199000	0.369800	0.778400
C761	C76	0.236500	0.345800	0.814900
H801	H80	0.264200	0.382300	0.817500
H811	H81	0.245600	0.284800	0.813300
C771	C77	0.219200	0.358200	0.850800
H821	H82	0.208400	0.418400	0.851300
H831	H83	0.192300	0.319700	0.848500
C781	C78	0.277500	0.400700	0.912600
C791	C79	0.311700	0.370700	0.950500
C801	C80	0.307900	0.293300	0.969200
H841	H84	0.283100	0.254700	0.957400
C811	C81	0.595600	0.715600	0.086600
H851	H85	0.596600	0.773700	0.078400
C821	C82	0.627800	0.688400	0.119600
H861	H86	0.650900	0.727300	0.134200
C831	C83	0.627500	0.606000	0.132200
H871	H87	0.650200	0.586400	0.155300
C841	C84	0.593600	0.551600	0.110500
H881	H88	0.592600	0.493400	0.118600
C851	C85	0.560900	0.581200	0.076900
C861	C86	0.521900	0.524000	0.054200
H891	H89	0.534600	0.466700	0.050700
H901	H90	0.507700	0.549000	0.027700
C871	C87	0.484700	0.513100	0.074800
H911	H91	0.499600	0.494900	0.102400
H921	H92	0.469500	0.569500	0.075400
C881	C88	0.418300	0.469700	0.021800
C891	C89	0.380400	0.404700	0.003500
C901	C90	0.347400	0.426600	0.968200
H931	H93	0.349400	0.480500	0.956100
C911	C91	0.420700	0.692000	0.945600
H941	H94	0.417200	0.653600	0.965400
C921	C92	0.384400	0.700000	0.911400
H951	H95	0.357100	0.666000	0.907100
C931	C93	0.388700	0.757500	0.883800
H961	H96	0.363900	0.766000	0.860300
C941	C94	0.430000	0.804200	0.890500
H971	H97	0.433700	0.844000	0.871300
C951	C95	0.465100	0.792800	0.924600
C961	C96	0.509200	0.844900	0.934600
H981	H98	0.514400	0.867400	0.910200
H991	H99	0.536000	0.808200	0.948300
C971	C97	0.504700	0.919800	0.961300
H1001	H100	0.482700	0.962700	0.945400
H1011	H101	0.491500	0.897800	0.981900
C981	C98	0.580300	0.922400	0.009600
C991	C99	0.623500	0.971200	0.031600
C1001	C100	0.630600	0.057500	0.025000
H1021	H102	0.607600	0.088600	0.005600
C1011	C101	0.710900	0.560500	0.953600
H1031	H103	0.730400	0.606300	0.966600
C1021	C102	0.679000	0.577300	0.918900
H1041	H104	0.676000	0.633600	0.907900
C1031	C103	0.650500	0.510900	0.899500
H1051	H105	0.627700	0.520900	0.874900
C1041	C104	0.655800	0.430500	0.916300
H1061	H106	0.636400	0.384300	0.903500
C1051	C105	0.689400	0.416700	0.952100
C1061	C106	0.694600	0.327900	0.970500
H1071	H107	0.727300	0.318900	0.986400
H1081	H108	0.686700	0.283700	0.949400
C1071	C107	0.663000	0.317700	0.996500
H1091	H109	0.675700	0.351400	0.021100
H1101	H110	0.631800	0.340700	0.982600
C1081	C108	0.681500	0.191500	0.041000
C1091	C109	0.671300	0.098800	0.046500
C1101	C110	0.703700	0.053000	0.075000
H1111	H111	0.731800	0.080500	0.089500
C1111	C111	0.867800	0.907900	0.304100
H1121	H112	0.857000	0.899600	0.326400
C1121	C112	0.911700	0.881400	0.306300
H1131	H113	0.931400	0.856700	0.329800
C1131	C113	0.927000	0.891600	0.272900
H1141	H114	0.956900	0.871900	0.272900
C1141	C114	0.898300	0.929900	0.240500
H1151	H115	0.908300	0.938400	0.217800
C1151	C115	0.854200	0.957000	0.240500
C1161	C116	0.821200	0.996500	0.204200
H1161	H116	0.839100	0.026100	0.188600
H1171	H117	0.801500	0.039900	0.212100
C1171	C117	0.790600	0.926700	0.179200
H1181	H118	0.810100	0.886400	0.169300
H1191	H119	0.775100	0.893500	0.195600
C1181	C118	0.730200	0.918600	0.115700
C1191	C119	0.696400	0.967700	0.083000
C1201	C120	0.656300	0.926800	0.060400
H1201	H120	0.651600	0.867500	0.064700
Ag71	Ag7	0.768230	0.536690	0.526720
Ag81	Ag8	0.013510	0.783570	0.510190
Ag91	Ag9	0.270570	0.511250	0.772370
O131	O13	0.800300	0.359700	0.509770
O141	O14	0.771000	0.021800	0.406340
O151	O15	0.918360	0.960800	0.504960
O161	O16	0.074500	0.652900	0.518800
O171	O17	0.209600	0.268300	0.567550
O181	O18	0.234300	0.660200	0.614510
N251	N25	0.814100	0.581600	0.581350
N261	N26	0.855900	0.316000	0.563520
H1211	H121	0.878000	0.278500	0.574100
N271	N27	0.705500	0.059600	0.258600
N281	N28	0.754900	0.160100	0.387700
H1221	H122	0.762100	0.214300	0.393900
N291	N29	0.062100	0.837400	0.564660
N301	N30	0.949400	0.050100	0.555550
H1231	H123	0.948900	0.101100	0.566300
N311	N31	0.960800	0.764200	0.452350
N321	N32	0.048500	0.538100	0.480070
H1241	H124	0.054300	0.486600	0.472100
N331	N33	0.216700	0.018500	0.471080
N341	N34	0.159200	0.273200	0.506400
H1251	H125	0.141000	0.306600	0.488200
N351	N35	0.339100	0.554800	0.771850
N361	N36	0.255700	0.534400	0.646100
H1261	H126	0.251300	0.478300	0.646000
C1211	C121	0.798700	0.647100	0.599100
H1271	H127	0.770300	0.674400	0.585400
C1221	C122	0.822400	0.676400	0.636300
H1281	H128	0.811200	0.724400	0.647500
C1231	C123	0.862400	0.634600	0.656900
H1291	H129	0.878800	0.651800	0.683000
C1241	C124	0.878400	0.567800	0.639300
H1301	H130	0.905900	0.538100	0.653200
C1251	C125	0.854100	0.543200	0.600900
C1261	C126	0.870100	0.470200	0.580200
H1311	H131	0.861600	0.482200	0.551500
H1321	H132	0.904400	0.464800	0.590200
C1271	C127	0.847600	0.387100	0.587300
H1331	H133	0.813700	0.396200	0.581300
H1341	H134	0.859900	0.371500	0.615600
C1281	C128	0.830700	0.306900	0.526100
C1291	C129	0.839800	0.227600	0.504900
C1301	C130	0.876200	0.172600	0.521300
H1351	H135	0.898700	0.188100	0.545300
C1311	C131	0.671400	0.034400	0.226300
H1361	H136	0.676300	0.984900	0.212200
C1321	C132	0.630000	0.078100	0.213100
H1371	H137	0.606300	0.058500	0.190600
C1331	C133	0.623500	0.149600	0.232900
H1381	H138	0.595100	0.181000	0.224200
C1341	C134	0.658700	0.176900	0.266200
H1391	H139	0.654700	0.227100	0.280200
C1351	C135	0.699000	0.130200	0.278400
C1361	C136	0.736500	0.154200	0.314900
H1401	H140	0.764200	0.117700	0.317500
H1411	H141	0.745600	0.215200	0.313300
C1371	C137	0.719200	0.141800	0.350800
H1421	H142	0.708400	0.081600	0.351300
H1431	H143	0.692300	0.180300	0.348500
C1381	C138	0.777500	0.099300	0.412600
C1391	C139	0.811700	0.129300	0.450500
C1401	C140	0.807900	0.206700	0.469200
H1441	H144	0.783100	0.245300	0.457400
C1411	C141	0.095600	0.784400	0.586600
H1451	H145	0.096600	0.726300	0.578400
C1421	C142	0.127800	0.811600	0.619600
H1461	H146	0.150900	0.772700	0.634200
C1431	C143	0.127500	0.894000	0.632200
H1471	H147	0.150200	0.913600	0.655300
C1441	C144	0.093600	0.948400	0.610500
H1481	H148	0.092600	0.006600	0.618600
C1451	C145	0.060900	0.918800	0.576900
C1461	C146	0.021900	0.976000	0.554200
H1491	H149	0.034600	0.033300	0.550700
H1501	H150	0.007700	0.951000	0.527700
C1471	C147	0.984700	0.986900	0.574800
H1511	H151	0.999600	0.005100	0.602400
H1521	H152	0.969500	0.930500	0.575400
C1481	C148	0.918300	0.030300	0.521800
C1491	C149	0.880400	0.095300	0.503500
C1501	C150	0.847400	0.073400	0.468200
H1531	H153	0.849400	0.019500	0.456100
C1511	C151	0.920700	0.808000	0.445600
H1541	H154	0.917200	0.846400	0.465400
C1521	C152	0.884400	0.800000	0.411400
H1551	H155	0.857100	0.834000	0.407100
C1531	C153	0.888700	0.742500	0.383800
H1561	H156	0.863900	0.734000	0.360300
C1541	C154	0.930000	0.695800	0.390500
H1571	H157	0.933700	0.656000	0.371300
C1551	C155	0.965100	0.707200	0.424600
C1561	C156	0.009200	0.655100	0.434600
H1581	H158	0.014400	0.632600	0.410200
H1591	H159	0.036000	0.691800	0.448300
C1571	C157	0.004700	0.580200	0.461300
H1601	H160	0.982700	0.537300	0.445400
H1611	H161	0.991500	0.602200	0.481900
C1581	C158	0.080300	0.577600	0.509600
C1591	C159	0.123500	0.528800	0.531600
C1601	C160	0.130600	0.442500	0.525000
H1621	H162	0.107600	0.411400	0.505600
C1611	C161	0.210900	0.939500	0.453600
H1631	H163	0.230400	0.893700	0.466600
C1621	C162	0.179000	0.922700	0.418900
H1641	H164	0.176000	0.866400	0.407900
C1631	C163	0.150500	0.989100	0.399500
H1651	H165	0.127700	0.979100	0.374900
C1641	C164	0.155800	0.069500	0.416300
H1661	H166	0.136400	0.115700	0.403500
C1651	C165	0.189400	0.083300	0.452100
C1661	C166	0.194600	0.172100	0.470500
H1671	H167	0.227300	0.181100	0.486400
H1681	H168	0.186700	0.216300	0.449400
C1671	C167	0.163000	0.182300	0.496500
H1691	H169	0.175700	0.148600	0.521100
H1701	H170	0.131800	0.159300	0.482600
C1681	C168	0.181500	0.308500	0.541000
C1691	C169	0.171300	0.401200	0.546500
C1701	C170	0.203700	0.447000	0.575000
H1711	H171	0.231800	0.419500	0.589500
C1711	C171	0.367800	0.592100	0.804100
H1721	H172	0.357000	0.600400	0.826400
C1721	C172	0.411700	0.618600	0.806300
H1731	H173	0.431400	0.643300	0.829800
C1731	C173	0.427000	0.608400	0.772900
H1741	H174	0.456900	0.628100	0.772900
C1741	C174	0.398300	0.570100	0.740500
H1751	H175	0.408300	0.561600	0.717800
C1751	C175	0.354200	0.543000	0.740500
C1761	C176	0.321200	0.503500	0.704200
H1761	H176	0.339100	0.473900	0.688600
H1771	H177	0.301500	0.460100	0.712100
C1771	C177	0.290600	0.573300	0.679200
H1781	H178	0.310100	0.613600	0.669300
H1791	H179	0.275100	0.606500	0.695600
C1781	C178	0.230200	0.581400	0.615700
C1791	C179	0.196400	0.532300	0.583000
C1801	C180	0.156300	0.573200	0.560400
H1801	H180	0.151600	0.632500	0.564700
Ag101	Ag10	0.268230	0.036690	0.526720
Ag111	Ag11	0.513510	0.283570	0.510190
Ag121	Ag12	0.770570	0.011250	0.772370
O191	O19	0.300300	0.859700	0.509770
O201	O20	0.271000	0.521800	0.406340
O211	O21	0.418360	0.460800	0.504960
O221	O22	0.574500	0.152900	0.518800
O231	O23	0.709600	0.768300	0.567550
O241	O24	0.734300	0.160200	0.614510
N371	N37	0.314100	0.081600	0.581350
N381	N38	0.355900	0.816000	0.563520
H1811	H181	0.378000	0.778500	0.574100
N391	N39	0.205500	0.559600	0.258600
N401	N40	0.254900	0.660100	0.387700
H1821	H182	0.262100	0.714300	0.393900
N411	N41	0.562100	0.337400	0.564660
N421	N42	0.449400	0.550100	0.555550
H1831	H183	0.448900	0.601100	0.566300
N431	N43	0.460800	0.264200	0.452350
N441	N44	0.548500	0.038100	0.480070
H1841	H184	0.554300	0.986600	0.472100
N451	N45	0.716700	0.518500	0.471080
N461	N46	0.659200	0.773200	0.506400
H1851	H185	0.641000	0.806600	0.488200
N471	N47	0.839100	0.054800	0.771850
N481	N48	0.755700	0.034400	0.646100
H1861	H186	0.751300	0.978300	0.646000
C1811	C181	0.298700	0.147100	0.599100
H1871	H187	0.270300	0.174400	0.585400
C1821	C182	0.322400	0.176400	0.636300
H1881	H188	0.311200	0.224400	0.647500
C1831	C183	0.362400	0.134600	0.656900
H1891	H189	0.378800	0.151800	0.683000
C1841	C184	0.378400	0.067800	0.639300
H1901	H190	0.405900	0.038100	0.653200
C1851	C185	0.354100	0.043200	0.600900
C1861	C186	0.370100	0.970200	0.580200
H1911	H191	0.361600	0.982200	0.551500
H1921	H192	0.404400	0.964800	0.590200
C1871	C187	0.347600	0.887100	0.587300
H1931	H193	0.313700	0.896200	0.581300
H1941	H194	0.359900	0.871500	0.615600
C1881	C188	0.330700	0.806900	0.526100
C1891	C189	0.339800	0.727600	0.504900
C1901	C190	0.376200	0.672600	0.521300
H1951	H195	0.398700	0.688100	0.545300
C1911	C191	0.171400	0.534400	0.226300
H1961	H196	0.176300	0.484900	0.212200
C1921	C192	0.130000	0.578100	0.213100
H1971	H197	0.106300	0.558500	0.190600
C1931	C193	0.123500	0.649600	0.232900
H1981	H198	0.095100	0.681000	0.224200
C1941	C194	0.158700	0.676900	0.266200
H1991	H199	0.154700	0.727100	0.280200
C1951	C195	0.199000	0.630200	0.278400
C1961	C196	0.236500	0.654200	0.314900
H2001	H200	0.264200	0.617700	0.317500
H2011	H201	0.245600	0.715200	0.313300
C1971	C197	0.219200	0.641800	0.350800
H2021	H202	0.208400	0.581600	0.351300
H2031	H203	0.192300	0.680300	0.348500
C1981	C198	0.277500	0.599300	0.412600
C1991	C199	0.311700	0.629300	0.450500
C2001	C200	0.307900	0.706700	0.469200
H2041	H204	0.283100	0.745300	0.457400
C2011	C201	0.595600	0.284400	0.586600
H2051	H205	0.596600	0.226300	0.578400
C2021	C202	0.627800	0.311600	0.619600
H2061	H206	0.650900	0.272700	0.634200
C2031	C203	0.627500	0.394000	0.632200
H2071	H207	0.650200	0.413600	0.655300
C2041	C204	0.593600	0.448400	0.610500
H2081	H208	0.592600	0.506600	0.618600
C2051	C205	0.560900	0.418800	0.576900
C2061	C206	0.521900	0.476000	0.554200
H2091	H209	0.534600	0.533300	0.550700
H2101	H210	0.507700	0.451000	0.527700
C2071	C207	0.484700	0.486900	0.574800
H2111	H211	0.499600	0.505100	0.602400
H2121	H212	0.469500	0.430500	0.575400
C2081	C208	0.418300	0.530300	0.521800
C2091	C209	0.380400	0.595300	0.503500
C2101	C210	0.347400	0.573400	0.468200
H2131	H213	0.349400	0.519500	0.456100
C2111	C211	0.420700	0.308000	0.445600
H2141	H214	0.417200	0.346400	0.465400
C2121	C212	0.384400	0.300000	0.411400
H2151	H215	0.357100	0.334000	0.407100
C2131	C213	0.388700	0.242500	0.383800
H2161	H216	0.363900	0.234000	0.360300
C2141	C214	0.430000	0.195800	0.390500
H2171	H217	0.433700	0.156000	0.371300
C2151	C215	0.465100	0.207200	0.424600
C2161	C216	0.509200	0.155100	0.434600
H2181	H218	0.514400	0.132600	0.410200
H2191	H219	0.536000	0.191800	0.448300
C2171	C217	0.504700	0.080200	0.461300
H2201	H220	0.482700	0.037300	0.445400
H2211	H221	0.491500	0.102200	0.481900
C2181	C218	0.580300	0.077600	0.509600
C2191	C219	0.623500	0.028800	0.531600
C2201	C220	0.630600	0.942500	0.525000
H2221	H222	0.607600	0.911400	0.505600
C2211	C221	0.710900	0.439500	0.453600
H2231	H223	0.730400	0.393700	0.466600
C2221	C222	0.679000	0.422700	0.418900
H2241	H224	0.676000	0.366400	0.407900
C2231	C223	0.650500	0.489100	0.399500
H2251	H225	0.627700	0.479100	0.374900
C2241	C224	0.655800	0.569500	0.416300
H2261	H226	0.636400	0.615700	0.403500
C2251	C225	0.689400	0.583300	0.452100
C2261	C226	0.694600	0.672100	0.470500
H2271	H227	0.727300	0.681100	0.486400
H2281	H228	0.686700	0.716300	0.449400
C2271	C227	0.663000	0.682300	0.496500
H2291	H229	0.675700	0.648600	0.521100
H2301	H230	0.631800	0.659300	0.482600
C2281	C228	0.681500	0.808500	0.541000
C2291	C229	0.671300	0.901200	0.546500
C2301	C230	0.703700	0.947000	0.575000
H2311	H231	0.731800	0.919500	0.589500
C2311	C231	0.867800	0.092100	0.804100
H2321	H232	0.857000	0.100400	0.826400
C2321	C232	0.911700	0.118600	0.806300
H2331	H233	0.931400	0.143300	0.829800
C2331	C233	0.927000	0.108400	0.772900
H2341	H234	0.956900	0.128100	0.772900
C2341	C234	0.898300	0.070100	0.740500
H2351	H235	0.908300	0.061600	0.717800
C2351	C235	0.854200	0.043000	0.740500
C2361	C236	0.821200	0.003500	0.704200
H2361	H236	0.839100	0.973900	0.688600
H2371	H237	0.801500	0.960100	0.712100
C2371	C237	0.790600	0.073300	0.679200
H2381	H238	0.810100	0.113600	0.669300
H2391	H239	0.775100	0.106500	0.695600
C2381	C238	0.730200	0.081400	0.615700
C2391	C239	0.696400	0.032300	0.583000
C2401	C240	0.656300	0.073200	0.560400
H2401	H240	0.651600	0.132500	0.564700
Ag131	Ag13	0.231770	0.463310	0.473280
Ag141	Ag14	0.986490	0.216430	0.489810
Ag151	Ag15	0.729430	0.488750	0.227630
O251	O25	0.199700	0.640300	0.490230
O261	O26	0.229000	0.978200	0.593660
O271	O27	0.081640	0.039200	0.495040
O281	O28	0.925500	0.347100	0.481200
O291	O29	0.790400	0.731700	0.432450
O301	O30	0.765700	0.339800	0.385490
N491	N49	0.185900	0.418400	0.418650
N501	N50	0.144100	0.684000	0.436480
H2411	H241	0.122000	0.721500	0.425900
N511	N51	0.294500	0.940400	0.741400
N521	N52	0.245100	0.839900	0.612300
H2421	H242	0.237900	0.785700	0.606100
N531	N53	0.937900	0.162600	0.435340
N541	N54	0.050600	0.949900	0.444450
H2431	H243	0.051100	0.898900	0.433700
N551	N55	0.039200	0.235800	0.547650
N561	N56	0.951500	0.461900	0.519930
H2441	H244	0.945700	0.513400	0.527900
N571	N57	0.783300	0.981500	0.528920
N581	N58	0.840800	0.726800	0.493600
H2451	H245	0.859000	0.693400	0.511800
N591	N59	0.660900	0.445200	0.228150
N601	N60	0.744300	0.465600	0.353900
H2461	H246	0.748700	0.521700	0.354000
C2411	C241	0.201300	0.352900	0.400900
H2471	H247	0.229700	0.325600	0.414600
C2421	C242	0.177600	0.323600	0.363700
H2481	H248	0.188800	0.275600	0.352500
C2431	C243	0.137600	0.365400	0.343100
H2491	H249	0.121200	0.348200	0.317000
C2441	C244	0.121600	0.432200	0.360700
H2501	H250	0.094100	0.461900	0.346800
C2451	C245	0.145900	0.456800	0.399100
C2461	C246	0.129900	0.529800	0.419800
H2511	H251	0.138400	0.517800	0.448500
H2521	H252	0.095600	0.535200	0.409800
C2471	C247	0.152400	0.612900	0.412700
H2531	H253	0.186300	0.603800	0.418700
H2541	H254	0.140100	0.628500	0.384400
C2481	C248	0.169300	0.693100	0.473900
C2491	C249	0.160200	0.772400	0.495100
C2501	C250	0.123800	0.827400	0.478700
H2551	H255	0.101300	0.811900	0.454700
C2511	C251	0.328600	0.965600	0.773700
H2561	H256	0.323700	0.015100	0.787800
C2521	C252	0.370000	0.921900	0.786900
H2571	H257	0.393700	0.941500	0.809400
C2531	C253	0.376500	0.850400	0.767100
H2581	H258	0.404900	0.819000	0.775800
C2541	C254	0.341300	0.823100	0.733800
H2591	H259	0.345300	0.772900	0.719800
C2551	C255	0.301000	0.869800	0.721600
C2561	C256	0.263500	0.845800	0.685100
H2601	H260	0.235800	0.882300	0.682500
H2611	H261	0.254400	0.784800	0.686700
C2571	C257	0.280800	0.858200	0.649200
H2621	H262	0.291600	0.918400	0.648700
H2631	H263	0.307700	0.819700	0.651500
C2581	C258	0.222500	0.900700	0.587400
C2591	C259	0.188300	0.870700	0.549500
C2601	C260	0.192100	0.793300	0.530800
H2641	H264	0.216900	0.754700	0.542600
C2611	C261	0.904400	0.215600	0.413400
H2651	H265	0.903400	0.273700	0.421600
C2621	C262	0.872200	0.188400	0.380400
H2661	H266	0.849100	0.227300	0.365800
C2631	C263	0.872500	0.106000	0.367800
H2671	H267	0.849800	0.086400	0.344700
C2641	C264	0.906400	0.051600	0.389500
H2681	H268	0.907400	0.993400	0.381400
C2651	C265	0.939100	0.081200	0.423100
C2661	C266	0.978100	0.024000	0.445800
H2691	H269	0.965400	0.966700	0.449300
H2701	H270	0.992300	0.049000	0.472300
C2671	C267	0.015300	0.013100	0.425200
H2711	H271	0.000400	0.994900	0.397600
H2721	H272	0.030500	0.069500	0.424600
C2681	C268	0.081700	0.969700	0.478200
C2691	C269	0.119600	0.904700	0.496500
C2701	C270	0.152600	0.926600	0.531800
H2731	H273	0.150600	0.980500	0.543900
C2711	C271	0.079300	0.192000	0.554400
H2741	H274	0.082800	0.153600	0.534600
C2721	C272	0.115600	0.200000	0.588600
H2751	H275	0.142900	0.166000	0.592900
C2731	C273	0.111300	0.257500	0.616200
H2761	H276	0.136100	0.266000	0.639700
C2741	C274	0.070000	0.304200	0.609500
H2771	H277	0.066300	0.344000	0.628700
C2751	C275	0.034900	0.292800	0.575400
C2761	C276	0.990800	0.344900	0.565400
H2781	H278	0.985600	0.367400	0.589800
H2791	H279	0.964000	0.308200	0.551700
C2771	C277	0.995300	0.419800	0.538700
H2801	H280	0.017300	0.462700	0.554600
H2811	H281	0.008500	0.397800	0.518100
C2781	C278	0.919700	0.422400	0.490400
C2791	C279	0.876500	0.471200	0.468400
C2801	C280	0.869400	0.557500	0.475000
H2821	H282	0.892400	0.588600	0.494400
C2811	C281	0.789100	0.060500	0.546400
H2831	H283	0.769600	0.106300	0.533400
C2821	C282	0.821000	0.077300	0.581100
H2841	H284	0.824000	0.133600	0.592100
C2831	C283	0.849500	0.010900	0.600500
H2851	H285	0.872300	0.020900	0.625100
C2841	C284	0.844200	0.930500	0.583700
H2861	H286	0.863600	0.884300	0.596500
C2851	C285	0.810600	0.916700	0.547900
C2861	C286	0.805400	0.827900	0.529500
H2871	H287	0.772700	0.818900	0.513600
H2881	H288	0.813300	0.783700	0.550600
C2871	C287	0.837000	0.817700	0.503500
H2891	H289	0.824300	0.851400	0.478900
H2901	H290	0.868200	0.840700	0.517400
C2881	C288	0.818500	0.691500	0.459000
C2891	C289	0.828700	0.598800	0.453500
C2901	C290	0.796300	0.553000	0.425000
H2911	H291	0.768200	0.580500	0.410500
C2911	C291	0.632200	0.407900	0.195900
H2921	H292	0.643000	0.399600	0.173600
C2921	C292	0.588300	0.381400	0.193700
H2931	H293	0.568600	0.356700	0.170200
C2931	C293	0.573000	0.391600	0.227100
H2941	H294	0.543100	0.371900	0.227100
C2941	C294	0.601700	0.429900	0.259500
H2951	H295	0.591700	0.438400	0.282200
C2951	C295	0.645800	0.457000	0.259500
C2961	C296	0.678800	0.496500	0.295800
H2961	H296	0.660900	0.526100	0.311400
H2971	H297	0.698500	0.539900	0.287900
C2971	C297	0.709400	0.426700	0.320800
H2981	H298	0.689900	0.386400	0.330700
H2991	H299	0.724900	0.393500	0.304400
C2981	C298	0.769800	0.418600	0.384300
C2991	C299	0.803600	0.467700	0.417000
C3001	C300	0.843700	0.426800	0.439600
H3001	H300	0.848400	0.367500	0.435300
Ag161	Ag16	0.731770	0.963310	0.473280
Ag171	Ag17	0.486490	0.716430	0.489810
Ag181	Ag18	0.229430	0.988750	0.227630
O311	O31	0.699700	0.140300	0.490230
O321	O32	0.729000	0.478200	0.593660
O331	O33	0.581640	0.539200	0.495040
O341	O34	0.425500	0.847100	0.481200
O351	O35	0.290400	0.231700	0.432450
O361	O36	0.265700	0.839800	0.385490
N611	N61	0.685900	0.918400	0.418650
N621	N62	0.644100	0.184000	0.436480
H3011	H301	0.622000	0.221500	0.425900
N631	N63	0.794500	0.440400	0.741400
N641	N64	0.745100	0.339900	0.612300
H3021	H302	0.737900	0.285700	0.606100
N651	N65	0.437900	0.662600	0.435340
N661	N66	0.550600	0.449900	0.444450
H3031	H303	0.551100	0.398900	0.433700
N671	N67	0.539200	0.735800	0.547650
N681	N68	0.451500	0.961900	0.519930
H3041	H304	0.445700	0.013400	0.527900
N691	N69	0.283300	0.481500	0.528920
N701	N70	0.340800	0.226800	0.493600
H3051	H305	0.359000	0.193400	0.511800
N711	N71	0.160900	0.945200	0.228150
N721	N72	0.244300	0.965600	0.353900
H3061	H306	0.248700	0.021700	0.354000
C3011	C301	0.701300	0.852900	0.400900
H3071	H307	0.729700	0.825600	0.414600
C3021	C302	0.677600	0.823600	0.363700
H3081	H308	0.688800	0.775600	0.352500
C3031	C303	0.637600	0.865400	0.343100
H3091	H309	0.621200	0.848200	0.317000
C3041	C304	0.621600	0.932200	0.360700
H3101	H310	0.594100	0.961900	0.346800
C3051	C305	0.645900	0.956800	0.399100
C3061	C306	0.629900	0.029800	0.419800
H3111	H311	0.638400	0.017800	0.448500
H3121	H312	0.595600	0.035200	0.409800
C3071	C307	0.652400	0.112900	0.412700
H3131	H313	0.686300	0.103800	0.418700
H3141	H314	0.640100	0.128500	0.384400
C3081	C308	0.669300	0.193100	0.473900
C3091	C309	0.660200	0.272400	0.495100
C3101	C310	0.623800	0.327400	0.478700
H3151	H315	0.601300	0.311900	0.454700
C3111	C311	0.828600	0.465600	0.773700
H3161	H316	0.823700	0.515100	0.787800
C3121	C312	0.870000	0.421900	0.786900
H3171	H317	0.893700	0.441500	0.809400
C3131	C313	0.876500	0.350400	0.767100
H3181	H318	0.904900	0.319000	0.775800
C3141	C314	0.841300	0.323100	0.733800
H3191	H319	0.845300	0.272900	0.719800
C3151	C315	0.801000	0.369800	0.721600
C3161	C316	0.763500	0.345800	0.685100
H3201	H320	0.735800	0.382300	0.682500
H3211	H321	0.754400	0.284800	0.686700
C3171	C317	0.780800	0.358200	0.649200
H3221	H322	0.791600	0.418400	0.648700
H3231	H323	0.807700	0.319700	0.651500
C3181	C318	0.722500	0.400700	0.587400
C3191	C319	0.688300	0.370700	0.549500
C3201	C320	0.692100	0.293300	0.530800
H3241	H324	0.716900	0.254700	0.542600
C3211	C321	0.404400	0.715600	0.413400
H3251	H325	0.403400	0.773700	0.421600
C3221	C322	0.372200	0.688400	0.380400
H3261	H326	0.349100	0.727300	0.365800
C3231	C323	0.372500	0.606000	0.367800
H3271	H327	0.349800	0.586400	0.344700
C3241	C324	0.406400	0.551600	0.389500
H3281	H328	0.407400	0.493400	0.381400
C3251	C325	0.439100	0.581200	0.423100
C3261	C326	0.478100	0.524000	0.445800
H3291	H329	0.465400	0.466700	0.449300
H3301	H330	0.492300	0.549000	0.472300
C3271	C327	0.515300	0.513100	0.425200
H3311	H331	0.500400	0.494900	0.397600
H3321	H332	0.530500	0.569500	0.424600
C3281	C328	0.581700	0.469700	0.478200
C3291	C329	0.619600	0.404700	0.496500
C3301	C330	0.652600	0.426600	0.531800
H3331	H333	0.650600	0.480500	0.543900
C3311	C331	0.579300	0.692000	0.554400
H3341	H334	0.582800	0.653600	0.534600
C3321	C332	0.615600	0.700000	0.588600
H3351	H335	0.642900	0.666000	0.592900
C3331	C333	0.611300	0.757500	0.616200
H3361	H336	0.636100	0.766000	0.639700
C3341	C334	0.570000	0.804200	0.609500
H3371	H337	0.566300	0.844000	0.628700
C3351	C335	0.534900	0.792800	0.575400
C3361	C336	0.490800	0.844900	0.565400
H3381	H338	0.485600	0.867400	0.589800
H3391	H339	0.464000	0.808200	0.551700
C3371	C337	0.495300	0.919800	0.538700
H3401	H340	0.517300	0.962700	0.554600
H3411	H341	0.508500	0.897800	0.518100
C3381	C338	0.419700	0.922400	0.490400
C3391	C339	0.376500	0.971200	0.468400
C3401	C340	0.369400	0.057500	0.475000
H3421	H342	0.392400	0.088600	0.494400
C3411	C341	0.289100	0.560500	0.546400
H3431	H343	0.269600	0.606300	0.533400
C3421	C342	0.321000	0.577300	0.581100
H3441	H344	0.324000	0.633600	0.592100
C3431	C343	0.349500	0.510900	0.600500
H3451	H345	0.372300	0.520900	0.625100
C3441	C344	0.344200	0.430500	0.583700
H3461	H346	0.363600	0.384300	0.596500
C3451	C345	0.310600	0.416700	0.547900
C3461	C346	0.305400	0.327900	0.529500
H3471	H347	0.272700	0.318900	0.513600
H3481	H348	0.313300	0.283700	0.550600
C3471	C347	0.337000	0.317700	0.503500
H3491	H349	0.324300	0.351400	0.478900
H3501	H350	0.368200	0.340700	0.517400
C3481	C348	0.318500	0.191500	0.459000
C3491	C349	0.328700	0.098800	0.453500
C3501	C350	0.296300	0.053000	0.425000
H3511	H351	0.268200	0.080500	0.410500
C3511	C351	0.132200	0.907900	0.195900
H3521	H352	0.143000	0.899600	0.173600
C3521	C352	0.088300	0.881400	0.193700
H3531	H353	0.068600	0.856700	0.170200
C3531	C353	0.073000	0.891600	0.227100
H3541	H354	0.043100	0.871900	0.227100
C3541	C354	0.101700	0.929900	0.259500
H3551	H355	0.091700	0.938400	0.282200
C3551	C355	0.145800	0.957000	0.259500
C3561	C356	0.178800	0.996500	0.295800
H3561	H356	0.160900	0.026100	0.311400
H3571	H357	0.198500	0.039900	0.287900
C3571	C357	0.209400	0.926700	0.320800
H3581	H358	0.189900	0.886400	0.330700
H3591	H359	0.224900	0.893500	0.304400
C3581	C358	0.269800	0.918600	0.384300
C3591	C359	0.303600	0.967700	0.417000
C3601	C360	0.343700	0.926800	0.439600
H3601	H360	0.348400	0.867500	0.435300
Ag191	Ag19	0.231770	0.536690	0.973280
Ag201	Ag20	0.986490	0.783570	0.989810
Ag211	Ag21	0.729430	0.511250	0.727630
O371	O37	0.199700	0.359700	0.990230
O381	O38	0.229000	0.021800	0.093660
O391	O39	0.081640	0.960800	0.995040
O401	O40	0.925500	0.652900	0.981200
O411	O41	0.790400	0.268300	0.932450
O421	O42	0.765700	0.660200	0.885490
N731	N73	0.185900	0.581600	0.918650
N741	N74	0.144100	0.316000	0.936480
H3611	H361	0.122000	0.278500	0.925900
N751	N75	0.294500	0.059600	0.241400
N761	N76	0.245100	0.160100	0.112300
H3621	H362	0.237900	0.214300	0.106100
N771	N77	0.937900	0.837400	0.935340
N781	N78	0.050600	0.050100	0.944450
H3631	H363	0.051100	0.101100	0.933700
N791	N79	0.039200	0.764200	0.047650
N801	N80	0.951500	0.538100	0.019930
H3641	H364	0.945700	0.486600	0.027900
N811	N81	0.783300	0.018500	0.028920
N821	N82	0.840800	0.273200	0.993600
H3651	H365	0.859000	0.306600	0.011800
N831	N83	0.660900	0.554800	0.728150
N841	N84	0.744300	0.534400	0.853900
H3661	H366	0.748700	0.478300	0.854000
C3611	C361	0.201300	0.647100	0.900900
H3671	H367	0.229700	0.674400	0.914600
C3621	C362	0.177600	0.676400	0.863700
H3681	H368	0.188800	0.724400	0.852500
C3631	C363	0.137600	0.634600	0.843100
H3691	H369	0.121200	0.651800	0.817000
C3641	C364	0.121600	0.567800	0.860700
H3701	H370	0.094100	0.538100	0.846800
C3651	C365	0.145900	0.543200	0.899100
C3661	C366	0.129900	0.470200	0.919800
H3711	H371	0.138400	0.482200	0.948500
H3721	H372	0.095600	0.464800	0.909800
C3671	C367	0.152400	0.387100	0.912700
H3731	H373	0.186300	0.396200	0.918700
H3741	H374	0.140100	0.371500	0.884400
C3681	C368	0.169300	0.306900	0.973900
C3691	C369	0.160200	0.227600	0.995100
C3701	C370	0.123800	0.172600	0.978700
H3751	H375	0.101300	0.188100	0.954700
C3711	C371	0.328600	0.034400	0.273700
H3761	H376	0.323700	0.984900	0.287800
C3721	C372	0.370000	0.078100	0.286900
H3771	H377	0.393700	0.058500	0.309400
C3731	C373	0.376500	0.149600	0.267100
H3781	H378	0.404900	0.181000	0.275800
C3741	C374	0.341300	0.176900	0.233800
H3791	H379	0.345300	0.227100	0.219800
C3751	C375	0.301000	0.130200	0.221600
C3761	C376	0.263500	0.154200	0.185100
H3801	H380	0.235800	0.117700	0.182500
H3811	H381	0.254400	0.215200	0.186700
C3771	C377	0.280800	0.141800	0.149200
H3821	H382	0.291600	0.081600	0.148700
H3831	H383	0.307700	0.180300	0.151500
C3781	C378	0.222500	0.099300	0.087400
C3791	C379	0.188300	0.129300	0.049500
C3801	C380	0.192100	0.206700	0.030800
H3841	H384	0.216900	0.245300	0.042600
C3811	C381	0.904400	0.784400	0.913400
H3851	H385	0.903400	0.726300	0.921600
C3821	C382	0.872200	0.811600	0.880400
H3861	H386	0.849100	0.772700	0.865800
C3831	C383	0.872500	0.894000	0.867800
H3871	H387	0.849800	0.913600	0.844700
C3841	C384	0.906400	0.948400	0.889500
H3881	H388	0.907400	0.006600	0.881400
C3851	C385	0.939100	0.918800	0.923100
C3861	C386	0.978100	0.976000	0.945800
H3891	H389	0.965400	0.033300	0.949300
H3901	H390	0.992300	0.951000	0.972300
C3871	C387	0.015300	0.986900	0.925200
H3911	H391	0.000400	0.005100	0.897600
H3921	H392	0.030500	0.930500	0.924600
C3881	C388	0.081700	0.030300	0.978200
C3891	C389	0.119600	0.095300	0.996500
C3901	C390	0.152600	0.073400	0.031800
H3931	H393	0.150600	0.019500	0.043900
C3911	C391	0.079300	0.808000	0.054400
H3941	H394	0.082800	0.846400	0.034600
C3921	C392	0.115600	0.800000	0.088600
H3951	H395	0.142900	0.834000	0.092900
C3931	C393	0.111300	0.742500	0.116200
H3961	H396	0.136100	0.734000	0.139700
C3941	C394	0.070000	0.695800	0.109500
H3971	H397	0.066300	0.656000	0.128700
C3951	C395	0.034900	0.707200	0.075400
C3961	C396	0.990800	0.655100	0.065400
H3981	H398	0.985600	0.632600	0.089800
H3991	H399	0.964000	0.691800	0.051700
C3971	C397	0.995300	0.580200	0.038700
H4001	H400	0.017300	0.537300	0.054600
H4011	H401	0.008500	0.602200	0.018100
C3981	C398	0.919700	0.577600	0.990400
C3991	C399	0.876500	0.528800	0.968400
C4001	C400	0.869400	0.442500	0.975000
H4021	H402	0.892400	0.411400	0.994400
C4011	C401	0.789100	0.939500	0.046400
H4031	H403	0.769600	0.893700	0.033400
C4021	C402	0.821000	0.922700	0.081100
H4041	H404	0.824000	0.866400	0.092100
C4031	C403	0.849500	0.989100	0.100500
H4051	H405	0.872300	0.979100	0.125100
C4041	C404	0.844200	0.069500	0.083700
H4061	H406	0.863600	0.115700	0.096500
C4051	C405	0.810600	0.083300	0.047900
C4061	C406	0.805400	0.172100	0.029500
H4071	H407	0.772700	0.181100	0.013600
H4081	H408	0.813300	0.216300	0.050600
C4071	C407	0.837000	0.182300	0.003500
H4091	H409	0.824300	0.148600	0.978900
H4101	H410	0.868200	0.159300	0.017400
C4081	C408	0.818500	0.308500	0.959000
C4091	C409	0.828700	0.401200	0.953500
C4101	C410	0.796300	0.447000	0.925000
H4111	H411	0.768200	0.419500	0.910500
C4111	C411	0.632200	0.592100	0.695900
H4121	H412	0.643000	0.600400	0.673600
C4121	C412	0.588300	0.618600	0.693700
H4131	H413	0.568600	0.643300	0.670200
C4131	C413	0.573000	0.608400	0.727100
H4141	H414	0.543100	0.628100	0.727100
C4141	C414	0.601700	0.570100	0.759500
H4151	H415	0.591700	0.561600	0.782200
C4151	C415	0.645800	0.543000	0.759500
C4161	C416	0.678800	0.503500	0.795800
H4161	H416	0.660900	0.473900	0.811400
H4171	H417	0.698500	0.460100	0.787900
C4171	C417	0.709400	0.573300	0.820800
H4181	H418	0.689900	0.613600	0.830700
H4191	H419	0.724900	0.606500	0.804400
C4181	C418	0.769800	0.581400	0.884300
C4191	C419	0.803600	0.532300	0.917000
C4201	C420	0.843700	0.573200	0.939600
H4201	H420	0.848400	0.632500	0.935300
Ag221	Ag22	0.731770	0.036690	0.973280
Ag231	Ag23	0.486490	0.283570	0.989810
Ag241	Ag24	0.229430	0.011250	0.727630
O431	O43	0.699700	0.859700	0.990230
O441	O44	0.729000	0.521800	0.093660
O451	O45	0.581640	0.460800	0.995040
O461	O46	0.425500	0.152900	0.981200
O471	O47	0.290400	0.768300	0.932450
O481	O48	0.265700	0.160200	0.885490
N851	N85	0.685900	0.081600	0.918650
N861	N86	0.644100	0.816000	0.936480
H4211	H421	0.622000	0.778500	0.925900
N871	N87	0.794500	0.559600	0.241400
N881	N88	0.745100	0.660100	0.112300
H4221	H422	0.737900	0.714300	0.106100
N891	N89	0.437900	0.337400	0.935340
N901	N90	0.550600	0.550100	0.944450
H4231	H423	0.551100	0.601100	0.933700
N911	N91	0.539200	0.264200	0.047650
N921	N92	0.451500	0.038100	0.019930
H4241	H424	0.445700	0.986600	0.027900
N931	N93	0.283300	0.518500	0.028920
N941	N94	0.340800	0.773200	0.993600
H4251	H425	0.359000	0.806600	0.011800
N951	N95	0.160900	0.054800	0.728150
N961	N96	0.244300	0.034400	0.853900
H4261	H426	0.248700	0.978300	0.854000
C4211	C421	0.701300	0.147100	0.900900
H4271	H427	0.729700	0.174400	0.914600
C4221	C422	0.677600	0.176400	0.863700
H4281	H428	0.688800	0.224400	0.852500
C4231	C423	0.637600	0.134600	0.843100
H4291	H429	0.621200	0.151800	0.817000
C4241	C424	0.621600	0.067800	0.860700
H4301	H430	0.594100	0.038100	0.846800
C4251	C425	0.645900	0.043200	0.899100
C4261	C426	0.629900	0.970200	0.919800
H4311	H431	0.638400	0.982200	0.948500
H4321	H432	0.595600	0.964800	0.909800
C4271	C427	0.652400	0.887100	0.912700
H4331	H433	0.686300	0.896200	0.918700
H4341	H434	0.640100	0.871500	0.884400
C4281	C428	0.669300	0.806900	0.973900
C4291	C429	0.660200	0.727600	0.995100
C4301	C430	0.623800	0.672600	0.978700
H4351	H435	0.601300	0.688100	0.954700
C4311	C431	0.828600	0.534400	0.273700
H4361	H436	0.823700	0.484900	0.287800
C4321	C432	0.870000	0.578100	0.286900
H4371	H437	0.893700	0.558500	0.309400
C4331	C433	0.876500	0.649600	0.267100
H4381	H438	0.904900	0.681000	0.275800
C4341	C434	0.841300	0.676900	0.233800
H4391	H439	0.845300	0.727100	0.219800
C4351	C435	0.801000	0.630200	0.221600
C4361	C436	0.763500	0.654200	0.185100
H4401	H440	0.735800	0.617700	0.182500
H4411	H441	0.754400	0.715200	0.186700
C4371	C437	0.780800	0.641800	0.149200
H4421	H442	0.791600	0.581600	0.148700
H4431	H443	0.807700	0.680300	0.151500
C4381	C438	0.722500	0.599300	0.087400
C4391	C439	0.688300	0.629300	0.049500
C4401	C440	0.692100	0.706700	0.030800
H4441	H444	0.716900	0.745300	0.042600
C4411	C441	0.404400	0.284400	0.913400
H4451	H445	0.403400	0.226300	0.921600
C4421	C442	0.372200	0.311600	0.880400
H4461	H446	0.349100	0.272700	0.865800
C4431	C443	0.372500	0.394000	0.867800
H4471	H447	0.349800	0.413600	0.844700
C4441	C444	0.406400	0.448400	0.889500
H4481	H448	0.407400	0.506600	0.881400
C4451	C445	0.439100	0.418800	0.923100
C4461	C446	0.478100	0.476000	0.945800
H4491	H449	0.465400	0.533300	0.949300
H4501	H450	0.492300	0.451000	0.972300
C4471	C447	0.515300	0.486900	0.925200
H4511	H451	0.500400	0.505100	0.897600
H4521	H452	0.530500	0.430500	0.924600
C4481	C448	0.581700	0.530300	0.978200
C4491	C449	0.619600	0.595300	0.996500
C4501	C450	0.652600	0.573400	0.031800
H4531	H453	0.650600	0.519500	0.043900
C4511	C451	0.579300	0.308000	0.054400
H4541	H454	0.582800	0.346400	0.034600
C4521	C452	0.615600	0.300000	0.088600
H4551	H455	0.642900	0.334000	0.092900
C4531	C453	0.611300	0.242500	0.116200
H4561	H456	0.636100	0.234000	0.139700
C4541	C454	0.570000	0.195800	0.109500
H4571	H457	0.566300	0.156000	0.128700
C4551	C455	0.534900	0.207200	0.075400
C4561	C456	0.490800	0.155100	0.065400
H4581	H458	0.485600	0.132600	0.089800
H4591	H459	0.464000	0.191800	0.051700
C4571	C457	0.495300	0.080200	0.038700
H4601	H460	0.517300	0.037300	0.054600
H4611	H461	0.508500	0.102200	0.018100
C4581	C458	0.419700	0.077600	0.990400
C4591	C459	0.376500	0.028800	0.968400
C4601	C460	0.369400	0.942500	0.975000
H4621	H462	0.392400	0.911400	0.994400
C4611	C461	0.289100	0.439500	0.046400
H4631	H463	0.269600	0.393700	0.033400
C4621	C462	0.321000	0.422700	0.081100
H4641	H464	0.324000	0.366400	0.092100
C4631	C463	0.349500	0.489100	0.100500
H4651	H465	0.372300	0.479100	0.125100
C4641	C464	0.344200	0.569500	0.083700
H4661	H466	0.363600	0.615700	0.096500
C4651	C465	0.310600	0.583300	0.047900
C4661	C466	0.305400	0.672100	0.029500
H4671	H467	0.272700	0.681100	0.013600
H4681	H468	0.313300	0.716300	0.050600
C4671	C467	0.337000	0.682300	0.003500
H4691	H469	0.324300	0.648600	0.978900
H4701	H470	0.368200	0.659300	0.017400
C4681	C468	0.318500	0.808500	0.959000
C4691	C469	0.328700	0.901200	0.953500
C4701	C470	0.296300	0.947000	0.925000
H4711	H471	0.268200	0.919500	0.910500
C4711	C471	0.132200	0.092100	0.695900
H4721	H472	0.143000	0.100400	0.673600
C4721	C472	0.088300	0.118600	0.693700
H4731	H473	0.068600	0.143300	0.670200
C4731	C473	0.073000	0.108400	0.727100
H4741	H474	0.043100	0.128100	0.727100
C4741	C474	0.101700	0.070100	0.759500
H4751	H475	0.091700	0.061600	0.782200
C4751	C475	0.145800	0.043000	0.759500
C4761	C476	0.178800	0.003500	0.795800
H4761	H476	0.160900	0.973900	0.811400
H4771	H477	0.198500	0.960100	0.787900
C4771	C477	0.209400	0.073300	0.820800
H4781	H478	0.189900	0.113600	0.830700
H4791	H479	0.224900	0.106500	0.804400
C4781	C478	0.269800	0.081400	0.884300
C4791	C479	0.303600	0.032300	0.917000
C4801	C480	0.343700	0.073200	0.939600
H4801	H480	0.348400	0.132500	0.935300
