data_FUBDIQ_clean_PM
_symmetry_space_group_name_H-M	'P1'
_cell_length_a	13.816300
_cell_length_b	27.581400
_cell_length_c	44.236000
_cell_angle_alpha	90.000000
_cell_angle_beta	90.000000
_cell_angle_gamma	90.000000
_symmetry_Int_Tables_number 1

loop_
_symmetry_equiv_pos_as_xyz
'x,y,z'

loop_
_atom_site_label
_atom_site_type_symbol
_atom_site_fract_x
_atom_site_fract_y
_atom_site_fract_z
Zn11	Zn1	0.359040	0.043960	0.088310
Zn21	Zn2	0.381600	0.525150	0.085680
Zn31	Zn3	0.313580	0.239740	0.820260
Zn41	Zn4	0.640960	0.456040	0.588310
Zn51	Zn5	0.618400	0.974850	0.585680
Zn61	Zn6	0.686420	0.260260	0.320260
Zn71	Zn7	0.859040	0.956040	0.411690
Zn81	Zn8	0.881600	0.474850	0.414320
Zn91	Zn9	0.813580	0.760260	0.679740
Zn101	Zn10	0.140960	0.543960	0.911690
Zn111	Zn11	0.118400	0.025150	0.914320
Zn121	Zn12	0.186420	0.739740	0.179740
H11	H1	0.982700	0.037100	0.966500
H21	H2	0.822200	0.065700	0.975500
H31	H3	0.961300	0.080900	0.881700
H41	H4	0.806300	0.107200	0.888600
H51	H5	0.528600	0.218300	0.835800
H61	H6	0.613900	0.179100	0.872200
H71	H7	0.281900	0.188100	0.876300
H81	H8	0.366800	0.148100	0.916100
H91	H9	0.300200	0.073200	0.025900
H101	H10	0.369200	0.098300	0.981100
H111	H11	0.545100	0.022200	0.057800
H121	H12	0.628100	0.048400	0.013900
H131	H13	0.442400	0.082600	0.147700
H141	H14	0.474900	0.154800	0.169000
H151	H15	0.377500	0.148600	0.070100
H161	H16	0.408000	0.222700	0.091000
H171	H17	0.397100	0.417500	0.069400
H181	H18	0.424600	0.344500	0.093100
H191	H19	0.440800	0.488100	0.146500
H201	H20	0.473800	0.417500	0.170800
H211	H21	0.626400	0.338200	0.280300
H221	H22	0.564200	0.349800	0.230400
H231	H23	0.563300	0.201400	0.277400
H241	H24	0.506400	0.208400	0.227700
H251	H25	0.017300	0.462900	0.466500
H261	H26	0.177800	0.434300	0.475500
H271	H27	0.038700	0.419100	0.381700
H281	H28	0.193700	0.392800	0.388600
H291	H29	0.471400	0.281700	0.335800
H301	H30	0.386100	0.320900	0.372200
H311	H31	0.718100	0.311900	0.376300
H321	H32	0.633200	0.351900	0.416100
H331	H33	0.699800	0.426800	0.525900
H341	H34	0.630800	0.401700	0.481100
H351	H35	0.454900	0.477800	0.557800
H361	H36	0.371900	0.451600	0.513900
H371	H37	0.557600	0.417400	0.647700
H381	H38	0.525100	0.345200	0.669000
H391	H39	0.622500	0.351400	0.570100
H401	H40	0.592000	0.277300	0.591000
H411	H41	0.602900	0.082500	0.569400
H421	H42	0.575400	0.155500	0.593100
H431	H43	0.559200	0.011900	0.646500
H441	H44	0.526200	0.082500	0.670800
H451	H45	0.373600	0.161800	0.780300
H461	H46	0.435800	0.150200	0.730400
H471	H47	0.436700	0.298600	0.777400
H481	H48	0.493600	0.291600	0.727700
H491	H49	0.482700	0.962900	0.533500
H501	H50	0.322200	0.934300	0.524500
H511	H51	0.461300	0.919100	0.618300
H521	H52	0.306300	0.892800	0.611400
H531	H53	0.028600	0.781700	0.664200
H541	H54	0.113900	0.820900	0.627800
H551	H55	0.781900	0.811900	0.623700
H561	H56	0.866800	0.851900	0.583900
H571	H57	0.800200	0.926800	0.474100
H581	H58	0.869200	0.901700	0.518900
H591	H59	0.045100	0.977800	0.442200
H601	H60	0.128100	0.951600	0.486100
H611	H61	0.942400	0.917400	0.352300
H621	H62	0.974900	0.845200	0.331000
H631	H63	0.877500	0.851400	0.429900
H641	H64	0.908000	0.777300	0.409000
H651	H65	0.897100	0.582500	0.430600
H661	H66	0.924600	0.655500	0.406900
H671	H67	0.940800	0.511900	0.353500
H681	H68	0.973800	0.582500	0.329200
H691	H69	0.126400	0.661800	0.219700
H701	H70	0.064200	0.650200	0.269600
H711	H71	0.063300	0.798600	0.222600
H721	H72	0.006400	0.791600	0.272300
H731	H73	0.517300	0.537100	0.033500
H741	H74	0.677800	0.565700	0.024500
H751	H75	0.538700	0.580900	0.118300
H761	H76	0.693700	0.607200	0.111400
H771	H77	0.971400	0.718300	0.164200
H781	H78	0.886100	0.679100	0.127800
H791	H79	0.218100	0.688100	0.123700
H801	H80	0.133200	0.648100	0.083900
H811	H81	0.199800	0.573200	0.974100
H821	H82	0.130800	0.598300	0.018900
H831	H83	0.954900	0.522200	0.942200
H841	H84	0.871900	0.548400	0.986100
H851	H85	0.057600	0.582600	0.852300
H861	H86	0.025100	0.654800	0.831000
H871	H87	0.122500	0.648600	0.929900
H881	H88	0.092000	0.722700	0.909000
H891	H89	0.102900	0.917500	0.930600
H901	H90	0.075400	0.844500	0.906900
H911	H91	0.059200	0.988100	0.853500
H921	H92	0.026200	0.917500	0.829200
H931	H93	0.873600	0.838200	0.719700
H941	H94	0.935800	0.849800	0.769600
H951	H95	0.936700	0.701400	0.722600
H961	H96	0.993600	0.708400	0.772300
C11	C1	0.946600	0.051400	0.950500
C21	C2	0.850000	0.068500	0.955900
C31	C3	0.932200	0.077100	0.901000
C41	C4	0.840800	0.093100	0.905000
C51	C5	0.798300	0.088900	0.933000
C61	C6	0.694500	0.101800	0.937800
C71	C7	0.494200	0.203300	0.851900
C81	C8	0.545300	0.180300	0.873600
C91	C9	0.350400	0.186200	0.875300
C101	C10	0.399900	0.161900	0.899300
C111	C11	0.503400	0.159800	0.896300
C121	C12	0.556500	0.136500	0.920900
C131	C13	0.368000	0.069200	0.023300
C141	C14	0.407700	0.084000	0.996500
C151	C15	0.511700	0.039400	0.042400
C161	C16	0.560500	0.054100	0.015900
C171	C17	0.509600	0.076900	0.992500
C181	C18	0.557900	0.094600	0.965400
C191	C19	0.434700	0.111300	0.136100
C201	C20	0.452200	0.154700	0.148800
C211	C21	0.396600	0.150400	0.090700
C221	C22	0.413600	0.194600	0.103300
C231	C23	0.439900	0.200100	0.134600
C241	C24	0.452100	0.244200	0.150000
C251	C25	0.411200	0.417300	0.090400
C261	C26	0.426000	0.373500	0.104600
C271	C27	0.437400	0.458600	0.135500
C281	C28	0.454300	0.416600	0.150300
C291	C29	0.443100	0.371100	0.135500
C301	C30	0.455500	0.325600	0.151100
C311	C31	0.603000	0.310900	0.269400
C321	C32	0.565200	0.318600	0.239500
C331	C33	0.567200	0.232000	0.267500
C341	C34	0.530800	0.236200	0.237900
C351	C35	0.530500	0.278200	0.224500
C361	C36	0.493600	0.283900	0.192600
C371	C37	0.053400	0.448600	0.450500
C381	C38	0.150000	0.431500	0.455900
C391	C39	0.067800	0.422900	0.401000
C401	C40	0.159200	0.406900	0.405000
C411	C41	0.201700	0.411100	0.433000
C421	C42	0.305500	0.398200	0.437800
C431	C43	0.505800	0.296700	0.351900
C441	C44	0.454700	0.319700	0.373600
C451	C45	0.649600	0.313800	0.375300
C461	C46	0.600100	0.338100	0.399300
C471	C47	0.496600	0.340200	0.396300
C481	C48	0.443500	0.363500	0.420900
C491	C49	0.632000	0.430800	0.523300
C501	C50	0.592300	0.416000	0.496500
C511	C51	0.488300	0.460600	0.542400
C521	C52	0.439500	0.445900	0.515900
C531	C53	0.490400	0.423100	0.492500
C541	C54	0.442100	0.405400	0.465400
C551	C55	0.565300	0.388700	0.636100
C561	C56	0.547800	0.345300	0.648800
C571	C57	0.603400	0.349600	0.590700
C581	C58	0.586400	0.305400	0.603300
C591	C59	0.560100	0.299900	0.634600
C601	C60	0.547900	0.255800	0.650000
C611	C61	0.588800	0.082700	0.590400
C621	C62	0.574000	0.126500	0.604600
C631	C63	0.562600	0.041400	0.635500
C641	C64	0.545700	0.083400	0.650300
C651	C65	0.556900	0.128900	0.635500
C661	C66	0.544500	0.174400	0.651100
C671	C67	0.397000	0.189100	0.769400
C681	C68	0.434800	0.181400	0.739500
C691	C69	0.432800	0.268000	0.767500
C701	C70	0.469200	0.263800	0.737900
C711	C71	0.469500	0.221800	0.724500
C721	C72	0.506400	0.216100	0.692600
C731	C73	0.446600	0.948600	0.549500
C741	C74	0.350000	0.931500	0.544100
C751	C75	0.432200	0.922900	0.599000
C761	C76	0.340800	0.906900	0.595000
C771	C77	0.298300	0.911100	0.567000
C781	C78	0.194500	0.898200	0.562200
C791	C79	0.994200	0.796700	0.648100
C801	C80	0.045300	0.819700	0.626400
C811	C81	0.850400	0.813800	0.624700
C821	C82	0.899900	0.838100	0.600700
C831	C83	0.003400	0.840200	0.603700
C841	C84	0.056500	0.863500	0.579100
C851	C85	0.868000	0.930800	0.476700
C861	C86	0.907700	0.916000	0.503500
C871	C87	0.011700	0.960600	0.457600
C881	C88	0.060500	0.945900	0.484100
C891	C89	0.009600	0.923100	0.507500
C901	C90	0.057900	0.905400	0.534600
C911	C91	0.934700	0.888700	0.363900
C921	C92	0.952200	0.845300	0.351200
C931	C93	0.896600	0.849600	0.409300
C941	C94	0.913600	0.805400	0.396700
C951	C95	0.939900	0.799900	0.365400
C961	C96	0.952100	0.755800	0.350000
C971	C97	0.911200	0.582700	0.409600
C981	C98	0.926000	0.626500	0.395400
C991	C99	0.937400	0.541400	0.364500
C1001	C100	0.954300	0.583400	0.349700
C1011	C101	0.943100	0.628900	0.364500
C1021	C102	0.955500	0.674400	0.348900
C1031	C103	0.103000	0.689100	0.230600
C1041	C104	0.065200	0.681400	0.260500
C1051	C105	0.067200	0.768000	0.232500
C1061	C106	0.030800	0.763800	0.262100
C1071	C107	0.030500	0.721800	0.275500
C1081	C108	0.993600	0.716100	0.307400
C1091	C109	0.553400	0.551400	0.049500
C1101	C110	0.650000	0.568500	0.044100
C1111	C111	0.567800	0.577100	0.099000
C1121	C112	0.659200	0.593100	0.095000
C1131	C113	0.701700	0.588900	0.067000
C1141	C114	0.805500	0.601800	0.062200
C1151	C115	0.005800	0.703300	0.148100
C1161	C116	0.954700	0.680300	0.126400
C1171	C117	0.149600	0.686200	0.124700
C1181	C118	0.100100	0.661900	0.100700
C1191	C119	0.996600	0.659800	0.103700
C1201	C120	0.943500	0.636500	0.079100
C1211	C121	0.132000	0.569200	0.976700
C1221	C122	0.092300	0.584000	0.003500
C1231	C123	0.988300	0.539400	0.957600
C1241	C124	0.939500	0.554100	0.984100
C1251	C125	0.990400	0.576900	0.007500
C1261	C126	0.942100	0.594600	0.034600
C1271	C127	0.065300	0.611300	0.863900
C1281	C128	0.047800	0.654700	0.851200
C1291	C129	0.103400	0.650400	0.909300
C1301	C130	0.086400	0.694600	0.896700
C1311	C131	0.060100	0.700100	0.865400
C1321	C132	0.047900	0.744200	0.850000
C1331	C133	0.088800	0.917300	0.909600
C1341	C134	0.074000	0.873500	0.895400
C1351	C135	0.062600	0.958600	0.864500
C1361	C136	0.045700	0.916600	0.849700
C1371	C137	0.056900	0.871100	0.864500
C1381	C138	0.044500	0.825600	0.848900
C1391	C139	0.897000	0.810900	0.730600
C1401	C140	0.934800	0.818600	0.760500
C1411	C141	0.932800	0.732000	0.732500
C1421	C142	0.969200	0.736200	0.762100
C1431	C143	0.969500	0.778200	0.775500
C1441	C144	0.006400	0.783900	0.807400
I11	I1	0.446230	0.978490	0.117810
I21	I2	0.176690	0.052820	0.084660
I31	I3	0.305530	0.506860	0.034150
I41	I4	0.295420	0.573570	0.125870
I51	I5	0.305660	0.330400	0.831340
I61	I6	0.156610	0.193130	0.812870
I71	I7	0.553770	0.521510	0.617810
I81	I8	0.823310	0.447180	0.584660
I91	I9	0.694470	0.993140	0.534150
I101	I10	0.704580	0.926430	0.625870
I111	I11	0.694340	0.169600	0.331340
I121	I12	0.843390	0.306870	0.312870
I131	I13	0.946230	0.021510	0.382190
I141	I14	0.676690	0.947180	0.415340
I151	I15	0.805530	0.493140	0.465850
I161	I16	0.795420	0.426430	0.374130
I171	I17	0.805660	0.669600	0.668660
I181	I18	0.656610	0.806870	0.687130
I191	I19	0.053770	0.478490	0.882190
I201	I20	0.323310	0.552820	0.915340
I211	I21	0.194470	0.006860	0.965850
I221	I22	0.204580	0.073570	0.874130
I231	I23	0.194340	0.830400	0.168660
I241	I24	0.343390	0.693130	0.187130
N11	N1	0.985000	0.055600	0.923400
N21	N2	0.393600	0.206300	0.851900
N31	N3	0.417400	0.050000	0.045500
N41	N4	0.653200	0.128700	0.916600
N51	N5	0.505800	0.119200	0.944900
N61	N6	0.651100	0.083000	0.962500
N71	N7	0.406400	0.108200	0.107000
N81	N8	0.415900	0.460400	0.105400
N91	N9	0.606800	0.269000	0.282100
N101	N10	0.441900	0.285500	0.134600
N111	N11	0.484000	0.325900	0.180400
N121	N12	0.480100	0.241500	0.179000
N131	N13	0.015000	0.444400	0.423400
N141	N14	0.606400	0.293700	0.351900
N151	N15	0.582600	0.450000	0.545500
N161	N16	0.346800	0.371300	0.416600
N171	N17	0.494200	0.380800	0.444900
N181	N18	0.348900	0.417000	0.462500
N191	N19	0.593600	0.391800	0.607000
N201	N20	0.584100	0.039600	0.605400
N211	N21	0.393200	0.231000	0.782100
N221	N22	0.558100	0.214500	0.634600
N231	N23	0.516000	0.174100	0.680400
N241	N24	0.519900	0.258500	0.679000
N251	N25	0.485000	0.944400	0.576600
N261	N26	0.893600	0.793700	0.648100
N271	N27	0.917400	0.950000	0.454500
N281	N28	0.153200	0.871300	0.583400
N291	N29	0.005800	0.880800	0.555100
N301	N30	0.151100	0.917000	0.537500
N311	N31	0.906400	0.891800	0.393000
N321	N32	0.915900	0.539600	0.394600
N331	N33	0.106800	0.731000	0.217900
N341	N34	0.941900	0.714500	0.365400
N351	N35	0.984000	0.674100	0.319600
N361	N36	0.980100	0.758500	0.321000
N371	N37	0.515000	0.555600	0.076600
N381	N38	0.106400	0.706300	0.148100
N391	N39	0.082600	0.550000	0.954500
N401	N40	0.846800	0.628700	0.083400
N411	N41	0.994200	0.619200	0.055100
N421	N42	0.848900	0.583000	0.037500
N431	N43	0.093600	0.608200	0.893000
N441	N44	0.084100	0.960400	0.894600
N451	N45	0.893200	0.769000	0.717900
N461	N46	0.058100	0.785500	0.865400
N471	N47	0.016000	0.825900	0.819600
N481	N48	0.019900	0.741500	0.821000
Zn131	Zn13	0.640960	0.956040	0.911690
Zn141	Zn14	0.618400	0.474850	0.914320
Zn151	Zn15	0.686420	0.760260	0.179740
Zn161	Zn16	0.359040	0.543960	0.411690
Zn171	Zn17	0.381600	0.025150	0.414320
Zn181	Zn18	0.313580	0.739740	0.679740
Zn191	Zn19	0.140960	0.043960	0.588310
Zn201	Zn20	0.118400	0.525150	0.585680
Zn211	Zn21	0.186420	0.239740	0.320260
Zn221	Zn22	0.859040	0.456040	0.088310
Zn231	Zn23	0.881600	0.974850	0.085680
Zn241	Zn24	0.813580	0.260260	0.820260
H971	H97	0.017300	0.962900	0.033500
H981	H98	0.177800	0.934300	0.024500
H991	H99	0.038700	0.919100	0.118300
H1001	H100	0.193700	0.892800	0.111400
H1011	H101	0.471400	0.781700	0.164200
H1021	H102	0.386100	0.820900	0.127800
H1031	H103	0.718100	0.811900	0.123700
H1041	H104	0.633200	0.851900	0.083900
H1051	H105	0.699800	0.926800	0.974100
H1061	H106	0.630800	0.901700	0.018900
H1071	H107	0.454900	0.977800	0.942200
H1081	H108	0.371900	0.951600	0.986100
H1091	H109	0.557600	0.917400	0.852300
H1101	H110	0.525100	0.845200	0.831000
H1111	H111	0.622500	0.851400	0.929900
H1121	H112	0.592000	0.777300	0.909000
H1131	H113	0.602900	0.582500	0.930600
H1141	H114	0.575400	0.655500	0.906900
H1151	H115	0.559200	0.511900	0.853500
H1161	H116	0.526200	0.582500	0.829200
H1171	H117	0.373600	0.661800	0.719700
H1181	H118	0.435800	0.650200	0.769600
H1191	H119	0.436700	0.798600	0.722600
H1201	H120	0.493600	0.791600	0.772300
H1211	H121	0.982700	0.537100	0.533500
H1221	H122	0.822200	0.565700	0.524500
H1231	H123	0.961300	0.580900	0.618300
H1241	H124	0.806300	0.607200	0.611400
H1251	H125	0.528600	0.718300	0.664200
H1261	H126	0.613900	0.679100	0.627800
H1271	H127	0.281900	0.688100	0.623700
H1281	H128	0.366800	0.648100	0.583900
H1291	H129	0.300200	0.573200	0.474100
H1301	H130	0.369200	0.598300	0.518900
H1311	H131	0.545100	0.522200	0.442200
H1321	H132	0.628100	0.548400	0.486100
H1331	H133	0.442400	0.582600	0.352300
H1341	H134	0.474900	0.654800	0.331000
H1351	H135	0.377500	0.648600	0.429900
H1361	H136	0.408000	0.722700	0.409000
H1371	H137	0.397100	0.917500	0.430600
H1381	H138	0.424600	0.844500	0.406900
H1391	H139	0.440800	0.988100	0.353500
H1401	H140	0.473800	0.917500	0.329200
H1411	H141	0.626400	0.838200	0.219700
H1421	H142	0.564200	0.849800	0.269600
H1431	H143	0.563300	0.701400	0.222600
H1441	H144	0.506400	0.708400	0.272300
H1451	H145	0.517300	0.037100	0.466500
H1461	H146	0.677800	0.065700	0.475500
H1471	H147	0.538700	0.080900	0.381700
H1481	H148	0.693700	0.107200	0.388600
H1491	H149	0.971400	0.218300	0.335800
H1501	H150	0.886100	0.179100	0.372200
H1511	H151	0.218100	0.188100	0.376300
H1521	H152	0.133200	0.148100	0.416100
H1531	H153	0.199800	0.073200	0.525900
H1541	H154	0.130800	0.098300	0.481100
H1551	H155	0.954900	0.022200	0.557800
H1561	H156	0.871900	0.048400	0.513900
H1571	H157	0.057600	0.082600	0.647700
H1581	H158	0.025100	0.154800	0.669000
H1591	H159	0.122500	0.148600	0.570100
H1601	H160	0.092000	0.222700	0.591000
H1611	H161	0.102900	0.417500	0.569400
H1621	H162	0.075400	0.344500	0.593100
H1631	H163	0.059200	0.488100	0.646500
H1641	H164	0.026200	0.417500	0.670800
H1651	H165	0.873600	0.338200	0.780300
H1661	H166	0.935800	0.349800	0.730400
H1671	H167	0.936700	0.201400	0.777400
H1681	H168	0.993600	0.208400	0.727700
H1691	H169	0.482700	0.462900	0.966500
H1701	H170	0.322200	0.434300	0.975500
H1711	H171	0.461300	0.419100	0.881700
H1721	H172	0.306300	0.392800	0.888600
H1731	H173	0.028600	0.281700	0.835800
H1741	H174	0.113900	0.320900	0.872200
H1751	H175	0.781900	0.311900	0.876300
H1761	H176	0.866800	0.351900	0.916100
H1771	H177	0.800200	0.426800	0.025900
H1781	H178	0.869200	0.401700	0.981100
H1791	H179	0.045100	0.477800	0.057800
H1801	H180	0.128100	0.451600	0.013900
H1811	H181	0.942400	0.417400	0.147700
H1821	H182	0.974900	0.345200	0.169000
H1831	H183	0.877500	0.351400	0.070100
H1841	H184	0.908000	0.277300	0.091000
H1851	H185	0.897100	0.082500	0.069400
H1861	H186	0.924600	0.155500	0.093100
H1871	H187	0.940800	0.011900	0.146500
H1881	H188	0.973800	0.082500	0.170800
H1891	H189	0.126400	0.161800	0.280300
H1901	H190	0.064200	0.150200	0.230400
H1911	H191	0.063300	0.298600	0.277400
H1921	H192	0.006400	0.291600	0.227700
C1451	C145	0.053400	0.948600	0.049500
C1461	C146	0.150000	0.931500	0.044100
C1471	C147	0.067800	0.922900	0.099000
C1481	C148	0.159200	0.906900	0.095000
C1491	C149	0.201700	0.911100	0.067000
C1501	C150	0.305500	0.898200	0.062200
C1511	C151	0.505800	0.796700	0.148100
C1521	C152	0.454700	0.819700	0.126400
C1531	C153	0.649600	0.813800	0.124700
C1541	C154	0.600100	0.838100	0.100700
C1551	C155	0.496600	0.840200	0.103700
C1561	C156	0.443500	0.863500	0.079100
C1571	C157	0.632000	0.930800	0.976700
C1581	C158	0.592300	0.916000	0.003500
C1591	C159	0.488300	0.960600	0.957600
C1601	C160	0.439500	0.945900	0.984100
C1611	C161	0.490400	0.923100	0.007500
C1621	C162	0.442100	0.905400	0.034600
C1631	C163	0.565300	0.888700	0.863900
C1641	C164	0.547800	0.845300	0.851200
C1651	C165	0.603400	0.849600	0.909300
C1661	C166	0.586400	0.805400	0.896700
C1671	C167	0.560100	0.799900	0.865400
C1681	C168	0.547900	0.755800	0.850000
C1691	C169	0.588800	0.582700	0.909600
C1701	C170	0.574000	0.626500	0.895400
C1711	C171	0.562600	0.541400	0.864500
C1721	C172	0.545700	0.583400	0.849700
C1731	C173	0.556900	0.628900	0.864500
C1741	C174	0.544500	0.674400	0.848900
C1751	C175	0.397000	0.689100	0.730600
C1761	C176	0.434800	0.681400	0.760500
C1771	C177	0.432800	0.768000	0.732500
C1781	C178	0.469200	0.763800	0.762100
C1791	C179	0.469500	0.721800	0.775500
C1801	C180	0.506400	0.716100	0.807400
C1811	C181	0.946600	0.551400	0.549500
C1821	C182	0.850000	0.568500	0.544100
C1831	C183	0.932200	0.577100	0.599000
C1841	C184	0.840800	0.593100	0.595000
C1851	C185	0.798300	0.588900	0.567000
C1861	C186	0.694500	0.601800	0.562200
C1871	C187	0.494200	0.703300	0.648100
C1881	C188	0.545300	0.680300	0.626400
C1891	C189	0.350400	0.686200	0.624700
C1901	C190	0.399900	0.661900	0.600700
C1911	C191	0.503400	0.659800	0.603700
C1921	C192	0.556500	0.636500	0.579100
C1931	C193	0.368000	0.569200	0.476700
C1941	C194	0.407700	0.584000	0.503500
C1951	C195	0.511700	0.539400	0.457600
C1961	C196	0.560500	0.554100	0.484100
C1971	C197	0.509600	0.576900	0.507500
C1981	C198	0.557900	0.594600	0.534600
C1991	C199	0.434700	0.611300	0.363900
C2001	C200	0.452200	0.654700	0.351200
C2011	C201	0.396600	0.650400	0.409300
C2021	C202	0.413600	0.694600	0.396700
C2031	C203	0.439900	0.700100	0.365400
C2041	C204	0.452100	0.744200	0.350000
C2051	C205	0.411200	0.917300	0.409600
C2061	C206	0.426000	0.873500	0.395400
C2071	C207	0.437400	0.958600	0.364500
C2081	C208	0.454300	0.916600	0.349700
C2091	C209	0.443100	0.871100	0.364500
C2101	C210	0.455500	0.825600	0.348900
C2111	C211	0.603000	0.810900	0.230600
C2121	C212	0.565200	0.818600	0.260500
C2131	C213	0.567200	0.732000	0.232500
C2141	C214	0.530800	0.736200	0.262100
C2151	C215	0.530500	0.778200	0.275500
C2161	C216	0.493600	0.783900	0.307400
C2171	C217	0.553400	0.051400	0.450500
C2181	C218	0.650000	0.068500	0.455900
C2191	C219	0.567800	0.077100	0.401000
C2201	C220	0.659200	0.093100	0.405000
C2211	C221	0.701700	0.088900	0.433000
C2221	C222	0.805500	0.101800	0.437800
C2231	C223	0.005800	0.203300	0.351900
C2241	C224	0.954700	0.180300	0.373600
C2251	C225	0.149600	0.186200	0.375300
C2261	C226	0.100100	0.161900	0.399300
C2271	C227	0.996600	0.159800	0.396300
C2281	C228	0.943500	0.136500	0.420900
C2291	C229	0.132000	0.069200	0.523300
C2301	C230	0.092300	0.084000	0.496500
C2311	C231	0.988300	0.039400	0.542400
C2321	C232	0.939500	0.054100	0.515900
C2331	C233	0.990400	0.076900	0.492500
C2341	C234	0.942100	0.094600	0.465400
C2351	C235	0.065300	0.111300	0.636100
C2361	C236	0.047800	0.154700	0.648800
C2371	C237	0.103400	0.150400	0.590700
C2381	C238	0.086400	0.194600	0.603300
C2391	C239	0.060100	0.200100	0.634600
C2401	C240	0.047900	0.244200	0.650000
C2411	C241	0.088800	0.417300	0.590400
C2421	C242	0.074000	0.373500	0.604600
C2431	C243	0.062600	0.458600	0.635500
C2441	C244	0.045700	0.416600	0.650300
C2451	C245	0.056900	0.371100	0.635500
C2461	C246	0.044500	0.325600	0.651100
C2471	C247	0.897000	0.310900	0.769400
C2481	C248	0.934800	0.318600	0.739500
C2491	C249	0.932800	0.232000	0.767500
C2501	C250	0.969200	0.236200	0.737900
C2511	C251	0.969500	0.278200	0.724500
C2521	C252	0.006400	0.283900	0.692600
C2531	C253	0.446600	0.448600	0.950500
C2541	C254	0.350000	0.431500	0.955900
C2551	C255	0.432200	0.422900	0.901000
C2561	C256	0.340800	0.406900	0.905000
C2571	C257	0.298300	0.411100	0.933000
C2581	C258	0.194500	0.398200	0.937800
C2591	C259	0.994200	0.296700	0.851900
C2601	C260	0.045300	0.319700	0.873600
C2611	C261	0.850400	0.313800	0.875300
C2621	C262	0.899900	0.338100	0.899300
C2631	C263	0.003400	0.340200	0.896300
C2641	C264	0.056500	0.363500	0.920900
C2651	C265	0.868000	0.430800	0.023300
C2661	C266	0.907700	0.416000	0.996500
C2671	C267	0.011700	0.460600	0.042400
C2681	C268	0.060500	0.445900	0.015900
C2691	C269	0.009600	0.423100	0.992500
C2701	C270	0.057900	0.405400	0.965400
C2711	C271	0.934700	0.388700	0.136100
C2721	C272	0.952200	0.345300	0.148800
C2731	C273	0.896600	0.349600	0.090700
C2741	C274	0.913600	0.305400	0.103300
C2751	C275	0.939900	0.299900	0.134600
C2761	C276	0.952100	0.255800	0.150000
C2771	C277	0.911200	0.082700	0.090400
C2781	C278	0.926000	0.126500	0.104600
C2791	C279	0.937400	0.041400	0.135500
C2801	C280	0.954300	0.083400	0.150300
C2811	C281	0.943100	0.128900	0.135500
C2821	C282	0.955500	0.174400	0.151100
C2831	C283	0.103000	0.189100	0.269400
C2841	C284	0.065200	0.181400	0.239500
C2851	C285	0.067200	0.268000	0.267500
C2861	C286	0.030800	0.263800	0.237900
C2871	C287	0.030500	0.221800	0.224500
C2881	C288	0.993600	0.216100	0.192600
I251	I25	0.553770	0.021510	0.882190
I261	I26	0.823310	0.947180	0.915340
I271	I27	0.694470	0.493140	0.965850
I281	I28	0.704580	0.426430	0.874130
I291	I29	0.694340	0.669600	0.168660
I301	I30	0.843390	0.806870	0.187130
I311	I31	0.446230	0.478490	0.382190
I321	I32	0.176690	0.552820	0.415340
I331	I33	0.305530	0.006860	0.465850
I341	I34	0.295420	0.073570	0.374130
I351	I35	0.305660	0.830400	0.668660
I361	I36	0.156610	0.693130	0.687130
I371	I37	0.053770	0.978490	0.617810
I381	I38	0.323310	0.052820	0.584660
I391	I39	0.194470	0.506860	0.534150
I401	I40	0.204580	0.573570	0.625870
I411	I41	0.194340	0.330400	0.331340
I421	I42	0.343390	0.193130	0.312870
I431	I43	0.946230	0.521510	0.117810
I441	I44	0.676690	0.447180	0.084660
I451	I45	0.805530	0.993140	0.034150
I461	I46	0.795420	0.926430	0.125870
I471	I47	0.805660	0.169600	0.831340
I481	I48	0.656610	0.306870	0.812870
N491	N49	0.015000	0.944400	0.076600
N501	N50	0.606400	0.793700	0.148100
N511	N51	0.582600	0.950000	0.954500
N521	N52	0.346800	0.871300	0.083400
N531	N53	0.494200	0.880800	0.055100
N541	N54	0.348900	0.917000	0.037500
N551	N55	0.593600	0.891800	0.893000
N561	N56	0.584100	0.539600	0.894600
N571	N57	0.393200	0.731000	0.717900
N581	N58	0.558100	0.714500	0.865400
N591	N59	0.516000	0.674100	0.819600
N601	N60	0.519900	0.758500	0.821000
N611	N61	0.985000	0.555600	0.576600
N621	N62	0.393600	0.706300	0.648100
N631	N63	0.417400	0.550000	0.454500
N641	N64	0.653200	0.628700	0.583400
N651	N65	0.505800	0.619200	0.555100
N661	N66	0.651100	0.583000	0.537500
N671	N67	0.406400	0.608200	0.393000
N681	N68	0.415900	0.960400	0.394600
N691	N69	0.606800	0.769000	0.217900
N701	N70	0.441900	0.785500	0.365400
N711	N71	0.484000	0.825900	0.319600
N721	N72	0.480100	0.741500	0.321000
N731	N73	0.515000	0.055600	0.423400
N741	N74	0.106400	0.206300	0.351900
N751	N75	0.082600	0.050000	0.545500
N761	N76	0.846800	0.128700	0.416600
N771	N77	0.994200	0.119200	0.444900
N781	N78	0.848900	0.083000	0.462500
N791	N79	0.093600	0.108200	0.607000
N801	N80	0.084100	0.460400	0.605400
N811	N81	0.893200	0.269000	0.782100
N821	N82	0.058100	0.285500	0.634600
N831	N83	0.016000	0.325900	0.680400
N841	N84	0.019900	0.241500	0.679000
N851	N85	0.485000	0.444400	0.923400
N861	N86	0.893600	0.293700	0.851900
N871	N87	0.917400	0.450000	0.045500
N881	N88	0.153200	0.371300	0.916600
N891	N89	0.005800	0.380800	0.944900
N901	N90	0.151100	0.417000	0.962500
N911	N91	0.906400	0.391800	0.107000
N921	N92	0.915900	0.039600	0.105400
N931	N93	0.106800	0.231000	0.282100
N941	N94	0.941900	0.214500	0.134600
N951	N95	0.984000	0.174100	0.180400
N961	N96	0.980100	0.258500	0.179000
