data_FUBNOH_clean_PM
_symmetry_space_group_name_H-M	'P1'
_cell_length_a	16.844600
_cell_length_b	15.163800
_cell_length_c	8.370200
_cell_angle_alpha	90.000000
_cell_angle_beta	116.290000
_cell_angle_gamma	90.000000
_symmetry_Int_Tables_number 1

loop_
_symmetry_equiv_pos_as_xyz
'x,y,z'

loop_
_atom_site_label
_atom_site_type_symbol
_atom_site_fract_x
_atom_site_fract_y
_atom_site_fract_z
C11	C1	0.124870	0.941200	0.589600
C21	C2	0.205690	0.892700	0.723400
C31	C3	0.230000	0.811100	0.685000
H11	H1	0.197700	0.786100	0.573200
C41	C4	0.302000	0.766500	0.811600
H21	H2	0.317400	0.711700	0.784300
C51	C5	0.351630	0.802890	0.979600
C61	C6	0.326400	0.884700	0.016300
H31	H3	0.358700	0.910000	0.127900
C71	C7	0.254300	0.929100	0.890000
H41	H4	0.238400	0.983800	0.917300
C81	C8	0.433520	0.664720	0.122300
H51	H5	0.388100	0.633500	0.032400
C91	C9	0.429780	0.756360	0.118900
O11	O1	0.088360	0.909450	0.433500
O21	O2	0.100110	0.009240	0.637400
C101	C10	0.624870	0.441200	0.589600
C111	C11	0.705690	0.392700	0.723400
C121	C12	0.730000	0.311100	0.685000
H61	H6	0.697700	0.286100	0.573200
C131	C13	0.802000	0.266500	0.811600
H71	H7	0.817400	0.211700	0.784300
C141	C14	0.851630	0.302890	0.979600
C151	C15	0.826400	0.384700	0.016300
H81	H8	0.858700	0.410000	0.127900
C161	C16	0.754300	0.429100	0.890000
H91	H9	0.738400	0.483800	0.917300
C171	C17	0.933520	0.164720	0.122300
H101	H10	0.888100	0.133500	0.032400
C181	C18	0.929780	0.256360	0.118900
O31	O3	0.588360	0.409450	0.433500
O41	O4	0.600110	0.509240	0.637400
C191	C19	0.875130	0.941200	0.910400
C201	C20	0.794310	0.892700	0.776600
C211	C21	0.770000	0.811100	0.815000
H111	H11	0.802300	0.786100	0.926800
C221	C22	0.698000	0.766500	0.688400
H121	H12	0.682600	0.711700	0.715700
C231	C23	0.648370	0.802890	0.520400
C241	C24	0.673600	0.884700	0.483700
H131	H13	0.641300	0.910000	0.372100
C251	C25	0.745700	0.929100	0.610000
H141	H14	0.761600	0.983800	0.582700
C261	C26	0.566480	0.664720	0.377700
H151	H15	0.611900	0.633500	0.467600
C271	C27	0.570220	0.756360	0.381100
O51	O5	0.911640	0.909450	0.066500
O61	O6	0.899890	0.009240	0.862600
C281	C28	0.375130	0.441200	0.910400
C291	C29	0.294310	0.392700	0.776600
C301	C30	0.270000	0.311100	0.815000
H161	H16	0.302300	0.286100	0.926800
C311	C31	0.198000	0.266500	0.688400
H171	H17	0.182600	0.211700	0.715700
C321	C32	0.148370	0.302890	0.520400
C331	C33	0.173600	0.384700	0.483700
H181	H18	0.141300	0.410000	0.372100
C341	C34	0.245700	0.429100	0.610000
H191	H19	0.261600	0.483800	0.582700
C351	C35	0.066480	0.164720	0.377700
H201	H20	0.111900	0.133500	0.467600
C361	C36	0.070220	0.256360	0.381100
O71	O7	0.411640	0.409450	0.066500
O81	O8	0.399890	0.509240	0.862600
Zn11	Zn1	0.000000	0.983630	0.250000
Zn21	Zn2	0.500000	0.483630	0.250000
C371	C37	0.500000	0.801300	0.250000
H211	H21	0.500000	0.862700	0.250000
N11	N1	0.500000	0.619300	0.250000
C381	C38	0.000000	0.301300	0.250000
H221	H22	0.000000	0.362700	0.250000
N21	N2	0.000000	0.119300	0.250000
C391	C39	0.875130	0.058800	0.410400
C401	C40	0.794310	0.107300	0.276600
C411	C41	0.770000	0.188900	0.315000
H231	H23	0.802300	0.213900	0.426800
C421	C42	0.698000	0.233500	0.188400
H241	H24	0.682600	0.288300	0.215700
C431	C43	0.648370	0.197110	0.020400
C441	C44	0.673600	0.115300	0.983700
H251	H25	0.641300	0.090000	0.872100
C451	C45	0.745700	0.070900	0.110000
H261	H26	0.761600	0.016200	0.082700
C461	C46	0.566480	0.335280	0.877700
H271	H27	0.611900	0.366500	0.967600
C471	C47	0.570220	0.243640	0.881100
O91	O9	0.911640	0.090550	0.566500
O101	O10	0.899890	0.990760	0.362600
C481	C48	0.375130	0.558800	0.410400
C491	C49	0.294310	0.607300	0.276600
C501	C50	0.270000	0.688900	0.315000
H281	H28	0.302300	0.713900	0.426800
C511	C51	0.198000	0.733500	0.188400
H291	H29	0.182600	0.788300	0.215700
C521	C52	0.148370	0.697110	0.020400
C531	C53	0.173600	0.615300	0.983700
H301	H30	0.141300	0.590000	0.872100
C541	C54	0.245700	0.570900	0.110000
H311	H31	0.261600	0.516200	0.082700
C551	C55	0.066480	0.835280	0.877700
H321	H32	0.111900	0.866500	0.967600
C561	C56	0.070220	0.743640	0.881100
O111	O11	0.411640	0.590550	0.566500
O121	O12	0.399890	0.490760	0.362600
C571	C57	0.124870	0.058800	0.089600
C581	C58	0.205690	0.107300	0.223400
C591	C59	0.230000	0.188900	0.185000
H331	H33	0.197700	0.213900	0.073200
C601	C60	0.302000	0.233500	0.311600
H341	H34	0.317400	0.288300	0.284300
C611	C61	0.351630	0.197110	0.479600
C621	C62	0.326400	0.115300	0.516300
H351	H35	0.358700	0.090000	0.627900
C631	C63	0.254300	0.070900	0.390000
H361	H36	0.238400	0.016200	0.417300
C641	C64	0.433520	0.335280	0.622300
H371	H37	0.388100	0.366500	0.532400
C651	C65	0.429780	0.243640	0.618900
O131	O13	0.088360	0.090550	0.933500
O141	O14	0.100110	0.990760	0.137400
C661	C66	0.624870	0.558800	0.089600
C671	C67	0.705690	0.607300	0.223400
C681	C68	0.730000	0.688900	0.185000
H381	H38	0.697700	0.713900	0.073200
C691	C69	0.802000	0.733500	0.311600
H391	H39	0.817400	0.788300	0.284300
C701	C70	0.851630	0.697110	0.479600
C711	C71	0.826400	0.615300	0.516300
H401	H40	0.858700	0.590000	0.627900
C721	C72	0.754300	0.570900	0.390000
H411	H41	0.738400	0.516200	0.417300
C731	C73	0.933520	0.835280	0.622300
H421	H42	0.888100	0.866500	0.532400
C741	C74	0.929780	0.743640	0.618900
O151	O15	0.588360	0.590550	0.933500
O161	O16	0.600110	0.490760	0.137400
Zn31	Zn3	0.000000	0.016370	0.750000
Zn41	Zn4	0.500000	0.516370	0.750000
C751	C75	0.500000	0.198700	0.750000
H431	H43	0.500000	0.137300	0.750000
N31	N3	0.500000	0.380700	0.750000
C761	C76	0.000000	0.698700	0.750000
H441	H44	0.000000	0.637300	0.750000
N41	N4	0.000000	0.880700	0.750000
