data_FUFQUT_clean_PM
_symmetry_space_group_name_H-M	'P1'
_cell_length_a	8.968000
_cell_length_b	15.964000
_cell_length_c	19.737000
_cell_angle_alpha	77.560000
_cell_angle_beta	85.310000
_cell_angle_gamma	81.570000
_symmetry_Int_Tables_number 1

loop_
_symmetry_equiv_pos_as_xyz
'x,y,z'

loop_
_atom_site_label
_atom_site_type_symbol
_atom_site_fract_x
_atom_site_fract_y
_atom_site_fract_z
Cu11	Cu1	0.162690	0.917180	0.019370
Cu21	Cu2	0.305190	0.442840	0.674160
Cl11	Cl1	0.327150	0.966080	0.417150
N11	N1	0.076600	0.968310	0.924250
N21	N2	0.927300	0.006760	0.913500
N31	N3	0.039500	0.991890	0.813150
N41	N4	0.053900	0.001210	0.740260
N51	N5	0.383200	0.875460	0.004090
N61	N6	0.741800	0.693570	0.888070
N71	N7	0.745000	0.630200	0.847330
N81	N8	0.086900	0.480510	0.699520
N91	N9	0.053200	0.806140	0.058880
N101	N10	0.983200	0.526420	0.024560
N111	N11	0.454800	0.524550	0.629310
N121	N12	0.949400	0.523180	0.521300
N131	N13	0.401200	0.393940	0.770650
N141	N14	0.516300	0.465980	0.981790
N151	N15	0.321100	0.341900	0.628760
C11	C1	0.178000	0.964240	0.717580
H11	H1	0.250500	0.933400	0.749600
C21	C2	0.210600	0.968640	0.643080
C31	C3	0.336700	0.916200	0.622980
H21	H2	0.398500	0.880000	0.657500
C41	C4	0.373800	0.915500	0.553830
H31	H3	0.459600	0.879000	0.540600
C51	C5	0.284600	0.968620	0.504570
C61	C6	0.162300	0.024160	0.522360
H41	H4	0.104600	0.062700	0.487500
C71	C7	0.125000	0.022780	0.592350
H51	H5	0.039300	0.059600	0.605300
C81	C8	0.908900	0.019120	0.846830
H61	H6	0.817300	0.043600	0.825100
C91	C9	0.140000	0.960990	0.863410
H71	H7	0.241800	0.937400	0.855500
C101	C10	0.493100	0.902220	0.033330
H81	H8	0.465300	0.940500	0.064400
C111	C11	0.644600	0.876310	0.020140
H91	H9	0.719000	0.898200	0.040600
C121	C12	0.686800	0.818710	0.977230
H101	H10	0.790500	0.800900	0.967200
C131	C13	0.575400	0.786740	0.948510
C141	C14	0.426300	0.818630	0.962350
H111	H11	0.350000	0.799300	0.941200
C151	C15	0.607000	0.720870	0.905900
H121	H12	0.525600	0.698200	0.891400
C161	C16	0.874900	0.614960	0.817780
H131	H13	0.953800	0.645500	0.824600
C171	C17	0.904500	0.551330	0.773580
C181	C18	0.799100	0.499220	0.764720
H141	H14	0.701500	0.504500	0.787300
C191	C19	0.837900	0.439840	0.722780
H151	H15	0.766500	0.404500	0.715600
C201	C20	0.981900	0.431910	0.691130
H161	H16	0.007300	0.390600	0.662500
C211	C21	0.045200	0.539980	0.739460
H171	H17	0.116900	0.576300	0.744500
C221	C22	0.975400	0.793120	0.120580
H181	H18	0.962700	0.837700	0.146400
C231	C23	0.913000	0.718030	0.148460
H191	H19	0.858400	0.711800	0.192200
C241	C24	0.931100	0.652330	0.112000
H201	H20	0.890400	0.599900	0.130500
C251	C25	0.010500	0.664080	0.046970
C261	C26	0.067000	0.742350	0.023400
H211	H21	0.119000	0.751300	0.979100
C271	C27	0.033600	0.599170	0.003700
H221	H22	0.086600	0.611000	0.959700
C281	C28	0.467000	0.596000	0.652660
H231	H23	0.388300	0.615400	0.683200
C291	C29	0.586400	0.642950	0.635100
H241	H24	0.588800	0.693700	0.652600
C301	C30	0.703000	0.615020	0.591520
H251	H25	0.787500	0.645700	0.579100
C311	C31	0.694200	0.540920	0.566110
C321	C32	0.566600	0.498540	0.585660
H261	H26	0.558600	0.449100	0.567300
C331	C33	0.816600	0.502610	0.523610
H271	H27	0.796800	0.462200	0.497600
C341	C34	0.482400	0.315610	0.786870
H281	H28	0.482500	0.276500	0.756800
C351	C35	0.566000	0.289010	0.845390
H291	H29	0.625300	0.233700	0.853900
C361	C36	0.562700	0.343470	0.891400
H301	H30	0.619900	0.326600	0.931700
C371	C37	0.473200	0.423930	0.877300
C381	C38	0.398200	0.445860	0.815840
H311	H31	0.340800	0.501600	0.805100
C391	C39	0.455700	0.485300	0.923890
H321	H32	0.398000	0.540500	0.910300
C401	C40	0.330100	0.282630	0.605010
C411	C41	0.344200	0.206200	0.574450
H331	H33	0.447100	0.195200	0.554500
H341	H34	0.272300	0.215900	0.537800
H351	H35	0.322700	0.156100	0.610500
Cu31	Cu3	0.837310	0.082820	0.980630
Cu41	Cu4	0.694810	0.557160	0.325840
Cl21	Cl2	0.672850	0.033920	0.582850
N161	N16	0.923400	0.031690	0.075750
N171	N17	0.072700	0.993240	0.086500
N181	N18	0.960500	0.008110	0.186850
N191	N19	0.946100	0.998790	0.259740
N201	N20	0.616800	0.124540	0.995910
N211	N21	0.258200	0.306430	0.111930
N221	N22	0.255000	0.369800	0.152670
N231	N23	0.913100	0.519490	0.300480
N241	N24	0.946800	0.193860	0.941120
N251	N25	0.016800	0.473580	0.975440
N261	N26	0.545200	0.475450	0.370690
N271	N27	0.050600	0.476820	0.478700
N281	N28	0.598800	0.606060	0.229350
N291	N29	0.483700	0.534020	0.018210
N301	N30	0.678900	0.658100	0.371240
C421	C42	0.822000	0.035760	0.282420
H361	H36	0.749500	0.066600	0.250400
C431	C43	0.789400	0.031360	0.356920
C441	C44	0.663300	0.083800	0.377020
H371	H37	0.601500	0.120000	0.342500
C451	C45	0.626200	0.084500	0.446170
H381	H38	0.540400	0.121000	0.459400
C461	C46	0.715400	0.031380	0.495430
C471	C47	0.837700	0.975840	0.477640
H391	H39	0.895400	0.937300	0.512500
C481	C48	0.875000	0.977220	0.407650
H401	H40	0.960700	0.940400	0.394700
C491	C49	0.091100	0.980880	0.153170
H411	H41	0.182700	0.956400	0.174900
C501	C50	0.860000	0.039010	0.136590
H421	H42	0.758200	0.062600	0.144500
C511	C51	0.506900	0.097780	0.966670
H431	H43	0.534700	0.059500	0.935600
C521	C52	0.355400	0.123690	0.979860
H441	H44	0.281000	0.101800	0.959400
C531	C53	0.313200	0.181290	0.022770
H451	H45	0.209500	0.199100	0.032800
C541	C54	0.424600	0.213260	0.051490
C551	C55	0.573700	0.181370	0.037650
H461	H46	0.650000	0.200700	0.058800
C561	C56	0.393000	0.279130	0.094100
H471	H47	0.474400	0.301800	0.108600
C571	C57	0.125100	0.385040	0.182220
H481	H48	0.046200	0.354500	0.175400
C581	C58	0.095500	0.448670	0.226420
C591	C59	0.200900	0.500780	0.235280
H491	H49	0.298500	0.495500	0.212700
C601	C60	0.162100	0.560160	0.277220
H501	H50	0.233500	0.595500	0.284400
C611	C61	0.018100	0.568090	0.308870
H511	H51	0.992700	0.609400	0.337500
C621	C62	0.954800	0.460020	0.260540
H521	H52	0.883100	0.423700	0.255500
C631	C63	0.024600	0.206880	0.879420
H531	H53	0.037300	0.162300	0.853600
C641	C64	0.087000	0.281970	0.851540
H541	H54	0.141600	0.288200	0.807800
C651	C65	0.068900	0.347670	0.888000
H551	H55	0.109600	0.400100	0.869500
C661	C66	0.989500	0.335920	0.953030
C671	C67	0.933000	0.257650	0.976600
H561	H56	0.881000	0.248700	0.020900
C681	C68	0.966400	0.400830	0.996300
H571	H57	0.913400	0.389000	0.040300
C691	C69	0.533000	0.404000	0.347340
H581	H58	0.611700	0.384600	0.316800
C701	C70	0.413600	0.357050	0.364900
H591	H59	0.411200	0.306300	0.347400
C711	C71	0.297000	0.384980	0.408480
H601	H60	0.212500	0.354300	0.420900
C721	C72	0.305800	0.459080	0.433890
C731	C73	0.433400	0.501460	0.414340
H611	H61	0.441400	0.550900	0.432700
C741	C74	0.183400	0.497390	0.476390
H621	H62	0.203200	0.537800	0.502400
C751	C75	0.517600	0.684390	0.213130
H631	H63	0.517500	0.723500	0.243200
C761	C76	0.434000	0.710990	0.154610
H641	H64	0.374700	0.766300	0.146100
C771	C77	0.437300	0.656530	0.108600
H651	H65	0.380100	0.673400	0.068300
C781	C78	0.526800	0.576070	0.122700
C791	C79	0.601800	0.554140	0.184160
H661	H66	0.659200	0.498400	0.194900
C801	C80	0.544300	0.514700	0.076110
H671	H67	0.602000	0.459500	0.089700
C811	C81	0.669900	0.717370	0.394990
C821	C82	0.655800	0.793800	0.425550
H681	H68	0.552900	0.804800	0.445500
H691	H69	0.727700	0.784100	0.462200
H701	H70	0.677300	0.843900	0.389500
