data_FUFREE_clean_PM
_symmetry_space_group_name_H-M	'P1'
_cell_length_a	7.785000
_cell_length_b	10.238000
_cell_length_c	15.851000
_cell_angle_alpha	90.000000
_cell_angle_beta	90.000000
_cell_angle_gamma	90.000000
_symmetry_Int_Tables_number 1

loop_
_symmetry_equiv_pos_as_xyz
'x,y,z'

loop_
_atom_site_label
_atom_site_type_symbol
_atom_site_fract_x
_atom_site_fract_y
_atom_site_fract_z
Fe11	Fe1	0.638120	0.529830	0.901660
Fe21	Fe2	0.361880	0.470170	0.401660
Fe31	Fe3	0.138120	0.970170	0.901660
Fe41	Fe4	0.861880	0.029830	0.401660
H11	H1	0.586000	0.949300	0.710700
H21	H2	0.450800	0.411200	0.586400
H31	H3	0.342400	0.751600	0.485400
H41	H4	0.444300	0.859900	0.602700
H51	H5	0.563400	0.509100	0.704500
H61	H6	0.414000	0.050700	0.210700
H71	H7	0.549200	0.588800	0.086400
H81	H8	0.657600	0.248400	0.985400
H91	H9	0.555700	0.140100	0.102700
H101	H10	0.436600	0.490900	0.204500
H111	H11	0.086000	0.550700	0.710700
H121	H12	0.950800	0.088800	0.586400
H131	H13	0.842400	0.748400	0.485400
H141	H14	0.944300	0.640100	0.602700
H151	H15	0.063400	0.990900	0.704500
H161	H16	0.914000	0.449300	0.210700
H171	H17	0.049200	0.911200	0.086400
H181	H18	0.157600	0.251600	0.985400
H191	H19	0.055700	0.359900	0.102700
H201	H20	0.936600	0.009100	0.204500
C11	C1	0.453000	0.503900	0.589130
C21	C2	0.388900	0.701900	0.530560
C31	C3	0.450400	0.767400	0.599960
C41	C4	0.519300	0.561300	0.659910
C51	C5	0.521500	0.696700	0.666000
C61	C6	0.605400	0.759100	0.738150
C71	C7	0.732400	0.913000	0.812530
C81	C8	0.765000	0.791200	0.846980
C91	C9	0.780800	0.050200	0.835470
C101	C10	0.866800	0.751100	0.921640
C111	C11	0.547000	0.496100	0.089130
C121	C12	0.611100	0.298100	0.030560
C131	C13	0.549600	0.232600	0.099960
C141	C14	0.480700	0.438700	0.159910
C151	C15	0.478500	0.303300	0.166000
C161	C16	0.394600	0.240900	0.238150
C171	C17	0.267600	0.087000	0.312530
C181	C18	0.235000	0.208800	0.346980
C191	C19	0.219200	0.949800	0.335470
C201	C20	0.133200	0.248900	0.421640
C211	C21	0.953000	0.996100	0.589130
C221	C22	0.888900	0.798100	0.530560
C231	C23	0.950400	0.732600	0.599960
C241	C24	0.019300	0.938700	0.659910
C251	C25	0.021500	0.803300	0.666000
C261	C26	0.105400	0.740900	0.738150
C271	C27	0.232400	0.587000	0.812530
C281	C28	0.265000	0.708800	0.846980
C291	C29	0.280800	0.449800	0.835470
C301	C30	0.366800	0.748900	0.921640
C311	C31	0.047000	0.003900	0.089130
C321	C32	0.111100	0.201900	0.030560
C331	C33	0.049600	0.267400	0.099960
C341	C34	0.980700	0.061300	0.159910
C351	C35	0.978500	0.196700	0.166000
C361	C36	0.894600	0.259100	0.238150
C371	C37	0.767600	0.413000	0.312530
C381	C38	0.735000	0.291200	0.346980
C391	C39	0.719200	0.550200	0.335470
C401	C40	0.633200	0.251100	0.421640
N11	N1	0.391000	0.571800	0.523280
N21	N2	0.629400	0.889680	0.744550
N31	N3	0.682200	0.696040	0.800500
N41	N4	0.609000	0.428200	0.023280
N51	N5	0.370600	0.110320	0.244550
N61	N6	0.317800	0.303960	0.300500
N71	N7	0.891000	0.928200	0.523280
N81	N8	0.129400	0.610320	0.744550
N91	N9	0.182200	0.803960	0.800500
N101	N10	0.109000	0.071800	0.023280
N111	N11	0.870600	0.389680	0.244550
N121	N12	0.817800	0.196040	0.300500
O11	O1	0.665200	0.133320	0.828980
O21	O2	0.932200	0.074570	0.856730
O31	O3	0.970500	0.828710	0.954120
O41	O4	0.844800	0.635180	0.947650
O51	O5	0.334800	0.866680	0.328980
O61	O6	0.067800	0.925430	0.356730
O71	O7	0.029500	0.171290	0.454120
O81	O8	0.155200	0.364820	0.447650
O91	O9	0.165200	0.366680	0.828980
O101	O10	0.432200	0.425430	0.856730
O111	O11	0.470500	0.671290	0.954120
O121	O12	0.344800	0.864820	0.947650
O131	O13	0.834800	0.633320	0.328980
O141	O14	0.567800	0.574570	0.356730
O151	O15	0.529500	0.328710	0.454120
O161	O16	0.655200	0.135180	0.447650
