data_FUHMOM_clean_PM
_symmetry_space_group_name_H-M	'P1'
_cell_length_a	11.157700
_cell_length_b	17.494500
_cell_length_c	13.041900
_cell_angle_alpha	90.000000
_cell_angle_beta	102.316000
_cell_angle_gamma	90.000000
_symmetry_Int_Tables_number 1

loop_
_symmetry_equiv_pos_as_xyz
'x,y,z'

loop_
_atom_site_label
_atom_site_type_symbol
_atom_site_fract_x
_atom_site_fract_y
_atom_site_fract_z
Zn11	Zn1	0.368020	0.940080	0.645360
Ca11	Ca1	0.446250	0.131790	0.574410
C11	C1	0.745000	0.900370	0.152300
C21	C2	0.784100	0.824970	0.155900
H11	H1	0.788800	0.796600	0.216900
C31	C3	0.816200	0.791540	0.069100
C41	C4	0.808600	0.833600	0.977200
H21	H2	0.831200	0.811900	0.919000
C51	C5	0.766900	0.908300	0.974100
C61	C6	0.736300	0.942150	0.060700
H31	H3	0.710100	0.992700	0.057600
C71	C7	0.705000	0.935580	0.245200
C81	C8	0.854200	0.708500	0.073100
C91	C9	0.814900	0.952950	0.811100
C101	C10	0.754400	0.971970	0.710000
C111	C11	0.823700	0.983700	0.633800
C121	C12	0.950800	0.976100	0.660000
H41	H4	0.997000	0.984600	0.609600
C131	C13	0.008000	0.956000	0.760800
H51	H5	0.092700	0.950000	0.777500
C141	C14	0.940900	0.944700	0.837400
H61	H6	0.980100	0.931700	0.905400
C151	C15	0.618000	0.986010	0.687500
C161	C16	0.762100	0.008900	0.525200
O11	O1	0.681300	0.006620	0.238600
O21	O2	0.696700	0.893510	0.320340
O31	O3	0.835400	0.670820	0.150810
O41	O4	0.898700	0.681690	0.000800
O51	O5	0.740900	0.952170	0.883400
O61	O6	0.818600	0.047450	0.472400
O71	O7	0.649900	0.990840	0.491320
O81	O8	0.582100	0.053020	0.684060
O91	O9	0.549500	0.928220	0.675100
Zn21	Zn2	0.131980	0.440080	0.854640
Ca21	Ca2	0.053750	0.631790	0.925590
C171	C17	0.755000	0.400370	0.347700
C181	C18	0.715900	0.324970	0.344100
H71	H7	0.711200	0.296600	0.283100
C191	C19	0.683800	0.291540	0.430900
C201	C20	0.691400	0.333600	0.522800
H81	H8	0.668800	0.311900	0.581000
C211	C21	0.733100	0.408300	0.525900
C221	C22	0.763700	0.442150	0.439300
H91	H9	0.789900	0.492700	0.442400
C231	C23	0.795000	0.435580	0.254800
C241	C24	0.645800	0.208500	0.426900
C251	C25	0.685100	0.452950	0.688900
C261	C26	0.745600	0.471970	0.790000
C271	C27	0.676300	0.483700	0.866200
C281	C28	0.549200	0.476100	0.840000
H101	H10	0.503000	0.484600	0.890400
C291	C29	0.492000	0.456000	0.739200
H111	H11	0.407300	0.450000	0.722500
C301	C30	0.559100	0.444700	0.662600
H121	H12	0.519900	0.431700	0.594600
C311	C31	0.882000	0.486010	0.812500
C321	C32	0.737900	0.508900	0.974800
O101	O10	0.818700	0.506620	0.261400
O111	O11	0.803300	0.393510	0.179660
O121	O12	0.664600	0.170820	0.349190
O131	O13	0.601300	0.181690	0.499200
O141	O14	0.759100	0.452170	0.616600
O151	O15	0.681400	0.547450	0.027600
O161	O16	0.850100	0.490840	0.008680
O171	O17	0.917900	0.553020	0.815940
O181	O18	0.950500	0.428220	0.824900
Zn31	Zn3	0.631980	0.059920	0.354640
Ca31	Ca3	0.553750	0.868210	0.425590
C331	C33	0.255000	0.099630	0.847700
C341	C34	0.215900	0.175030	0.844100
H131	H13	0.211200	0.203400	0.783100
C351	C35	0.183800	0.208460	0.930900
C361	C36	0.191400	0.166400	0.022800
H141	H14	0.168800	0.188100	0.081000
C371	C37	0.233100	0.091700	0.025900
C381	C38	0.263700	0.057850	0.939300
H151	H15	0.289900	0.007300	0.942400
C391	C39	0.295000	0.064420	0.754800
C401	C40	0.145800	0.291500	0.926900
C411	C41	0.185100	0.047050	0.188900
C421	C42	0.245600	0.028030	0.290000
C431	C43	0.176300	0.016300	0.366200
C441	C44	0.049200	0.023900	0.340000
H161	H16	0.003000	0.015400	0.390400
C451	C45	0.992000	0.044000	0.239200
H171	H17	0.907300	0.050000	0.222500
C461	C46	0.059100	0.055300	0.162600
H181	H18	0.019900	0.068300	0.094600
C471	C47	0.382000	0.013990	0.312500
C481	C48	0.237900	0.991100	0.474800
O191	O19	0.318700	0.993380	0.761400
O201	O20	0.303300	0.106490	0.679660
O211	O21	0.164600	0.329180	0.849190
O221	O22	0.101300	0.318310	0.999200
O231	O23	0.259100	0.047830	0.116600
O241	O24	0.181400	0.952550	0.527600
O251	O25	0.350100	0.009160	0.508680
O261	O26	0.417900	0.946980	0.315940
O271	O27	0.450500	0.071780	0.324900
Zn41	Zn4	0.868020	0.559920	0.145360
Ca41	Ca4	0.946250	0.368210	0.074410
C491	C49	0.245000	0.599630	0.652300
C501	C50	0.284100	0.675030	0.655900
H191	H19	0.288800	0.703400	0.716900
C511	C51	0.316200	0.708460	0.569100
C521	C52	0.308600	0.666400	0.477200
H201	H20	0.331200	0.688100	0.419000
C531	C53	0.266900	0.591700	0.474100
C541	C54	0.236300	0.557850	0.560700
H211	H21	0.210100	0.507300	0.557600
C551	C55	0.205000	0.564420	0.745200
C561	C56	0.354200	0.791500	0.573100
C571	C57	0.314900	0.547050	0.311100
C581	C58	0.254400	0.528030	0.210000
C591	C59	0.323700	0.516300	0.133800
C601	C60	0.450800	0.523900	0.160000
H221	H22	0.497000	0.515400	0.109600
C611	C61	0.508000	0.544000	0.260800
H231	H23	0.592700	0.550000	0.277500
C621	C62	0.440900	0.555300	0.337400
H241	H24	0.480100	0.568300	0.405400
C631	C63	0.118000	0.513990	0.187500
C641	C64	0.262100	0.491100	0.025200
O281	O28	0.181300	0.493380	0.738600
O291	O29	0.196700	0.606490	0.820340
O301	O30	0.335400	0.829180	0.650810
O311	O31	0.398700	0.818310	0.500800
O321	O32	0.240900	0.547830	0.383400
O331	O33	0.318600	0.452550	0.972400
O341	O34	0.149900	0.509160	0.991320
O351	O35	0.082100	0.446980	0.184060
O361	O36	0.049500	0.571780	0.175100
