data_FUJKUS_clean_PM
_symmetry_space_group_name_H-M	'P1'
_cell_length_a	6.637400
_cell_length_b	9.571400
_cell_length_c	19.890000
_cell_angle_alpha	85.190000
_cell_angle_beta	82.971000
_cell_angle_gamma	88.016000
_symmetry_Int_Tables_number 1

loop_
_symmetry_equiv_pos_as_xyz
'x,y,z'

loop_
_atom_site_label
_atom_site_type_symbol
_atom_site_fract_x
_atom_site_fract_y
_atom_site_fract_z
C11	C1	0.257000	0.434100	0.026870
C21	C2	0.381500	0.331700	0.931720
C31	C3	0.363800	0.209900	0.034730
C41	C4	0.123600	0.587100	0.120370
C51	C5	0.122700	0.491400	0.177590
H11	H1	0.156600	0.395400	0.172200
C61	C6	0.072700	0.536200	0.241940
H21	H2	0.073900	0.470600	0.280500
C71	C7	0.020300	0.676400	0.251230
C81	C8	0.019500	0.771400	0.193620
H31	H3	0.982700	0.867000	0.199100
C91	C9	0.071300	0.728400	0.129290
H41	H4	0.071600	0.794400	0.090800
C101	C10	0.967500	0.726800	0.320340
C111	C11	0.416800	0.440300	0.811610
C121	C12	0.359600	0.578400	0.822690
H51	H5	0.330400	0.606000	0.867700
C131	C13	0.345200	0.676000	0.767470
H61	H6	0.300500	0.769300	0.775200
C141	C14	0.395100	0.639400	0.701020
C151	C15	0.459200	0.502600	0.689880
H71	H7	0.497600	0.477000	0.644900
C161	C16	0.467000	0.403000	0.744830
H81	H8	0.506800	0.308900	0.737000
C171	C17	0.373700	0.749200	0.644130
C181	C18	0.376900	0.070900	0.145380
C191	C19	0.528700	0.996700	0.176990
H91	H9	0.648000	0.965400	0.150500
C201	C20	0.506000	0.968400	0.247130
H101	H10	0.608700	0.916100	0.268200
C211	C21	0.333600	0.016200	0.286810
C221	C22	0.186000	0.094600	0.255150
H111	H11	0.070900	0.131100	0.281900
C231	C23	0.205300	0.119900	0.184960
H121	H12	0.101300	0.170700	0.163800
C241	C24	0.306900	0.979900	0.362260
N11	N1	0.304100	0.447400	0.958910
N21	N2	0.418000	0.206800	0.967690
N31	N3	0.279400	0.317600	0.067590
N41	N4	0.180900	0.554000	0.053490
H131	H13	0.164600	0.624000	0.022800
N51	N5	0.433500	0.332700	0.863610
H141	H14	0.486200	0.253100	0.849600
N61	N6	0.404000	0.089600	0.073620
H151	H15	0.451200	0.016800	0.051800
O11	O1	0.484700	0.741800	0.588040
O21	O2	0.241300	0.843900	0.656710
O31	O3	0.452300	0.915300	0.387810
O41	O4	0.140800	0.015000	0.396990
O51	O5	0.885400	0.848800	0.321590
O61	O6	0.002500	0.652100	0.372800
O71	O7	0.703600	0.969000	0.482340
H161	H16	0.787000	0.956000	0.510600
Co11	Co1	0.451590	0.841450	0.490750
Co21	Co2	0.844240	0.981860	0.390890
C251	C25	0.743000	0.565900	0.973130
C261	C26	0.618500	0.668300	0.068280
C271	C27	0.636200	0.790100	0.965270
C281	C28	0.876400	0.412900	0.879630
C291	C29	0.877300	0.508600	0.822410
H171	H17	0.843400	0.604600	0.827800
C301	C30	0.927300	0.463800	0.758060
H181	H18	0.926100	0.529400	0.719500
C311	C31	0.979700	0.323600	0.748770
C321	C32	0.980500	0.228600	0.806380
H191	H19	0.017300	0.133000	0.800900
C331	C33	0.928700	0.271600	0.870710
H201	H20	0.928400	0.205600	0.909200
C341	C34	0.032500	0.273200	0.679660
C351	C35	0.583200	0.559700	0.188390
C361	C36	0.640400	0.421600	0.177310
H211	H21	0.669600	0.394000	0.132300
C371	C37	0.654800	0.324000	0.232530
H221	H22	0.699500	0.230700	0.224800
C381	C38	0.604900	0.360600	0.298980
C391	C39	0.540800	0.497400	0.310120
H231	H23	0.502400	0.523000	0.355100
C401	C40	0.533000	0.597000	0.255170
H241	H24	0.493200	0.691100	0.263000
C411	C41	0.626300	0.250800	0.355870
C421	C42	0.623100	0.929100	0.854620
C431	C43	0.471300	0.003300	0.823010
H251	H25	0.352000	0.034600	0.849500
C441	C44	0.494000	0.031600	0.752870
H261	H26	0.391300	0.083900	0.731800
C451	C45	0.666400	0.983800	0.713190
C461	C46	0.814000	0.905400	0.744850
H271	H27	0.929100	0.868900	0.718100
C471	C47	0.794700	0.880100	0.815040
H281	H28	0.898700	0.829300	0.836200
C481	C48	0.693100	0.020100	0.637740
N71	N7	0.695900	0.552600	0.041090
N81	N8	0.582000	0.793200	0.032310
N91	N9	0.720600	0.682400	0.932410
N101	N10	0.819100	0.446000	0.946510
H291	H29	0.835400	0.376000	0.977200
N111	N11	0.566500	0.667300	0.136390
H301	H30	0.513800	0.746900	0.150400
N121	N12	0.596000	0.910400	0.926380
H311	H31	0.548800	0.983200	0.948200
O81	O8	0.515300	0.258200	0.411960
O91	O9	0.758700	0.156100	0.343290
O101	O10	0.547700	0.084700	0.612190
O111	O11	0.859200	0.985000	0.603010
O121	O12	0.114600	0.151200	0.678410
O131	O13	0.997500	0.347900	0.627200
O141	O14	0.296400	0.031000	0.517660
H321	H32	0.213000	0.044000	0.489400
Co31	Co3	0.548410	0.158550	0.509250
Co41	Co4	0.155760	0.018140	0.609110
