data_FULQOT_clean_PM
_symmetry_space_group_name_H-M	'P1'
_cell_length_a	10.803800
_cell_length_b	17.538700
_cell_length_c	17.728300
_cell_angle_alpha	104.793000
_cell_angle_beta	90.000000
_cell_angle_gamma	90.000000
_symmetry_Int_Tables_number 1

loop_
_symmetry_equiv_pos_as_xyz
'x,y,z'

loop_
_atom_site_label
_atom_site_type_symbol
_atom_site_fract_x
_atom_site_fract_y
_atom_site_fract_z
Gd11	Gd1	0.615050	0.583110	0.986980
Gd21	Gd2	0.573620	0.888330	0.012720
Gd31	Gd3	0.115050	0.916890	0.513020
Gd41	Gd4	0.073620	0.611670	0.487280
Gd51	Gd5	0.384950	0.416890	0.013020
Gd61	Gd6	0.426380	0.111670	0.987280
Gd71	Gd7	0.884950	0.083110	0.486980
Gd81	Gd8	0.926380	0.388330	0.512720
H11	H1	0.738000	0.793700	0.779600
H21	H2	0.852400	0.725400	0.661300
H31	H3	0.672100	0.176100	0.682700
H41	H4	0.578700	0.234100	0.811900
H51	H5	0.376300	0.587600	0.674500
H61	H6	0.458100	0.581500	0.802100
H71	H7	0.448000	0.750000	0.975000
H81	H8	0.238000	0.706300	0.720400
H91	H9	0.352400	0.774600	0.838700
H101	H10	0.172100	0.323900	0.817300
H111	H11	0.078700	0.265900	0.688100
H121	H12	0.876300	0.912400	0.825500
H131	H13	0.958100	0.918500	0.697900
H141	H14	0.948000	0.750000	0.525000
H151	H15	0.262000	0.206300	0.220400
H161	H16	0.147600	0.274600	0.338700
H171	H17	0.327900	0.823900	0.317300
H181	H18	0.421300	0.765900	0.188100
H191	H19	0.623700	0.412400	0.325500
H201	H20	0.541900	0.418500	0.197900
H211	H21	0.552000	0.250000	0.025000
H221	H22	0.762000	0.293700	0.279600
H231	H23	0.647600	0.225400	0.161300
H241	H24	0.827900	0.676100	0.182700
H251	H25	0.921300	0.734100	0.311900
H261	H26	0.123700	0.087600	0.174500
H271	H27	0.041900	0.081500	0.302100
H281	H28	0.052000	0.250000	0.475000
C11	C1	0.619500	0.710600	0.872300
C21	C2	0.690000	0.688900	0.798300
C31	C3	0.743300	0.737900	0.761600
C41	C4	0.808400	0.699000	0.693600
C51	C5	0.800500	0.619500	0.679800
C61	C6	0.854400	0.558100	0.614500
C71	C7	0.837600	0.265500	0.616600
C81	C8	0.766900	0.278800	0.691800
C91	C9	0.689000	0.228000	0.713400
C101	C10	0.635600	0.261300	0.787300
C111	C11	0.674200	0.336500	0.819400
C121	C12	0.635500	0.390500	0.893800
C131	C13	0.161600	0.502100	0.611900
C141	C14	0.235600	0.514000	0.685200
C151	C15	0.339100	0.557600	0.706000
C161	C16	0.386300	0.554000	0.778800
C171	C17	0.317600	0.507000	0.811700
C181	C18	0.334700	0.489400	0.888000
C191	C19	0.119500	0.789400	0.627700
C201	C20	0.190000	0.811100	0.701700
C211	C21	0.243300	0.762100	0.738400
C221	C22	0.308400	0.801000	0.806400
C231	C23	0.300500	0.880500	0.820200
C241	C24	0.354400	0.941900	0.885500
C251	C25	0.337600	0.234500	0.883400
C261	C26	0.266900	0.221200	0.808200
C271	C27	0.189000	0.272000	0.786600
C281	C28	0.135600	0.238700	0.712700
C291	C29	0.174200	0.163500	0.680600
C301	C30	0.135500	0.109500	0.606200
C311	C31	0.661600	0.997900	0.888100
C321	C32	0.735600	0.986000	0.814800
C331	C33	0.839100	0.942400	0.794000
C341	C34	0.886300	0.946000	0.721200
C351	C35	0.817600	0.993000	0.688300
C361	C36	0.834700	0.010600	0.612000
C371	C37	0.380500	0.289400	0.127700
C381	C38	0.310000	0.311100	0.201700
C391	C39	0.256700	0.262100	0.238400
C401	C40	0.191600	0.301000	0.306400
C411	C41	0.199500	0.380500	0.320200
C421	C42	0.145600	0.441900	0.385500
C431	C43	0.162400	0.734500	0.383400
C441	C44	0.233100	0.721200	0.308200
C451	C45	0.311000	0.772000	0.286600
C461	C46	0.364400	0.738700	0.212700
C471	C47	0.325800	0.663500	0.180600
C481	C48	0.364500	0.609500	0.106200
C491	C49	0.838400	0.497900	0.388100
C501	C50	0.764400	0.486000	0.314800
C511	C51	0.660900	0.442400	0.294000
C521	C52	0.613700	0.446000	0.221200
C531	C53	0.682400	0.493000	0.188300
C541	C54	0.665300	0.510600	0.112000
C551	C55	0.880500	0.210600	0.372300
C561	C56	0.810000	0.188900	0.298300
C571	C57	0.756700	0.237900	0.261600
C581	C58	0.691600	0.199000	0.193600
C591	C59	0.699500	0.119500	0.179800
C601	C60	0.645600	0.058100	0.114500
C611	C61	0.662400	0.765500	0.116600
C621	C62	0.733100	0.778800	0.191800
C631	C63	0.811000	0.728000	0.213400
C641	C64	0.864400	0.761300	0.287300
C651	C65	0.825800	0.836500	0.319400
C661	C66	0.864500	0.890500	0.393800
C671	C67	0.338400	0.002100	0.111900
C681	C68	0.264400	0.014000	0.185200
C691	C69	0.160900	0.057600	0.206000
C701	C70	0.113700	0.054000	0.278800
C711	C71	0.182400	0.007000	0.311700
C721	C72	0.165300	0.989400	0.388000
S11	S1	0.715340	0.591620	0.750110
S21	S2	0.777590	0.368030	0.759880
S31	S3	0.193500	0.466440	0.754200
S41	S4	0.215340	0.908380	0.749890
S51	S5	0.277590	0.131970	0.740120
S61	S6	0.693500	0.033560	0.745800
S71	S7	0.284660	0.408380	0.249890
S81	S8	0.222410	0.631970	0.240120
S91	S9	0.806500	0.533560	0.245800
S101	S10	0.784660	0.091620	0.250110
S111	S11	0.722410	0.868030	0.259880
S121	S12	0.306500	0.966440	0.254200
O11	O1	0.573700	0.656200	0.898700
O21	O2	0.608000	0.782300	0.903000
O31	O3	0.822800	0.487900	0.608600
O41	O4	0.927800	0.579600	0.568800
O51	O5	0.909200	0.320100	0.609800
O61	O6	0.818000	0.202600	0.566600
O71	O7	0.677700	0.458700	0.911700
O81	O8	0.555600	0.363500	0.934100
O91	O9	0.082900	0.447900	0.599700
O101	O10	0.186100	0.547400	0.569300
O111	O11	0.256300	0.450200	0.912900
O121	O12	0.437000	0.510900	0.926200
O131	O13	0.395000	0.783300	0.004100
O141	O14	0.073700	0.843800	0.601300
O151	O15	0.108000	0.717700	0.597000
O161	O16	0.322800	0.012100	0.891400
O171	O17	0.427800	0.920400	0.931200
O181	O18	0.409200	0.179900	0.890200
O191	O19	0.318000	0.297400	0.933400
O201	O20	0.177700	0.041300	0.588300
O211	O21	0.055600	0.136500	0.565900
O221	O22	0.582900	0.052100	0.900300
O231	O23	0.686100	0.952600	0.930700
O241	O24	0.756300	0.049800	0.587100
O251	O25	0.937000	0.989100	0.573800
O261	O26	0.895000	0.716700	0.495900
O271	O27	0.426300	0.343800	0.101300
O281	O28	0.392000	0.217700	0.097000
O291	O29	0.177200	0.512100	0.391400
O301	O30	0.072200	0.420400	0.431200
O311	O31	0.090800	0.679900	0.390200
O321	O32	0.182000	0.797400	0.433400
O331	O33	0.322300	0.541300	0.088300
O341	O34	0.444400	0.636500	0.065900
O351	O35	0.917100	0.552100	0.400300
O361	O36	0.813900	0.452600	0.430700
O371	O37	0.743700	0.549800	0.087100
O381	O38	0.563000	0.489100	0.073800
O391	O39	0.605000	0.216700	0.995900
O401	O40	0.926300	0.156200	0.398700
O411	O41	0.892000	0.282300	0.403000
O421	O42	0.677200	0.987900	0.108600
O431	O43	0.572200	0.079600	0.068800
O441	O44	0.590800	0.820100	0.109800
O451	O45	0.682000	0.702600	0.066600
O461	O46	0.822300	0.958700	0.411700
O471	O47	0.944400	0.863500	0.434100
O481	O48	0.417100	0.947900	0.099700
O491	O49	0.313900	0.047400	0.069300
O501	O50	0.243700	0.950200	0.412900
O511	O51	0.063000	0.010900	0.426200
O521	O52	0.105000	0.283300	0.504100
