data_FUNCAT_clean_PM
_symmetry_space_group_name_H-M	'P1'
_cell_length_a	11.585700
_cell_length_b	15.674000
_cell_length_c	18.118000
_cell_angle_alpha	90.000000
_cell_angle_beta	90.000000
_cell_angle_gamma	90.000000
_symmetry_Int_Tables_number 1

loop_
_symmetry_equiv_pos_as_xyz
'x,y,z'

loop_
_atom_site_label
_atom_site_type_symbol
_atom_site_fract_x
_atom_site_fract_y
_atom_site_fract_z
Zn11	Zn1	0.250740	0.507190	0.774150
Zn21	Zn2	0.257770	0.505730	0.935520
H11	H1	0.089800	0.477300	0.182400
H21	H2	0.427800	0.509700	0.184300
H31	H3	0.952700	0.010200	0.858000
H41	H4	0.561900	0.004000	0.823800
H51	H5	0.417500	0.761500	0.939000
H61	H6	0.074100	0.261300	0.950500
H71	H7	0.540000	0.875500	0.932400
H81	H8	0.963400	0.140700	0.951500
H91	H9	0.575600	0.669600	0.759900
H101	H10	0.952500	0.333100	0.759100
H111	H11	0.704100	0.779500	0.762300
H121	H12	0.837400	0.214400	0.753100
H131	H13	0.092600	0.491400	0.058400
H141	H14	0.425000	0.522100	0.060800
H151	H15	0.086200	0.753000	0.764700
H161	H16	0.430200	0.266200	0.750300
H171	H17	0.921200	0.668700	0.943700
H181	H18	0.568400	0.331400	0.946900
H191	H19	0.975200	0.876700	0.761900
H201	H20	0.554800	0.153800	0.737400
H211	H21	0.810900	0.791100	0.941400
H221	H22	0.685500	0.211500	0.935600
H231	H23	0.086500	0.479300	0.522200
H241	H24	0.422400	0.511300	0.519900
H251	H25	0.088600	0.487600	0.647400
H261	H26	0.422200	0.519200	0.645200
C11	C1	0.478200	0.702380	0.846650
C21	C2	0.030590	0.314650	0.855540
C31	C3	0.400600	0.626800	0.848300
C41	C4	0.099730	0.393630	0.850960
C51	C5	0.626800	0.851460	0.839590
C61	C6	0.886800	0.164530	0.851980
C71	C7	0.890000	0.849300	0.857620
C81	C8	0.623500	0.166420	0.839640
C91	C9	0.160500	0.487640	0.159730
C101	C10	0.356600	0.506250	0.160840
C111	C11	0.815600	0.925900	0.855000
C121	C12	0.689200	0.085600	0.836900
C131	C13	0.105900	0.628800	0.859600
C141	C14	0.406500	0.383200	0.855500
C151	C15	0.027100	0.703800	0.860070
C161	C16	0.486900	0.311900	0.847470
C171	C17	0.872900	0.008200	0.852800
C181	C18	0.640900	0.006200	0.832700
C191	C19	0.693900	0.932700	0.839900
C201	C20	0.808200	0.089900	0.842300
C211	C21	0.470500	0.765600	0.900600
C221	C22	0.026170	0.252440	0.910030
C231	C23	0.545000	0.835100	0.895000
C241	C24	0.959600	0.178700	0.912100
C251	C25	0.566300	0.711800	0.795500
C261	C26	0.955800	0.294830	0.798300
C271	C27	0.641500	0.780700	0.794500
C281	C28	0.884900	0.223060	0.793800
C291	C29	0.162500	0.494890	0.083480
C301	C30	0.355100	0.512800	0.084800
C311	C31	0.259000	0.494910	0.205100
C321	C32	0.034400	0.763300	0.802900
C331	C33	0.483600	0.255650	0.787540
C341	C34	0.936900	0.711700	0.909800
C351	C35	0.563500	0.295700	0.906000
C361	C36	0.258730	0.487660	0.286330
C371	C37	0.967900	0.837400	0.800100
C381	C38	0.553900	0.186300	0.780400
C391	C39	0.870800	0.785000	0.907600
C401	C40	0.631600	0.223000	0.898840
C411	C41	0.254860	0.490580	0.421460
C421	C42	0.253910	0.495200	0.502730
C431	C43	0.156900	0.487880	0.545710
C441	C44	0.352200	0.506470	0.544470
C451	C45	0.157700	0.492520	0.621630
C461	C46	0.352800	0.511020	0.620400
N11	N1	0.259260	0.506640	0.043100
N21	N2	0.359800	0.494640	0.318120
N31	N3	0.159300	0.475600	0.321080
N41	N4	0.356300	0.498060	0.388990
N51	N5	0.150200	0.478810	0.392300
N61	N6	0.255370	0.503920	0.658790
O11	O1	0.395500	0.585500	0.918400
O21	O2	0.139000	0.421800	0.923500
O31	O3	0.146000	0.603450	0.916130
O41	O4	0.382100	0.413580	0.911160
O51	O5	0.394700	0.586600	0.783500
O61	O6	0.114900	0.425200	0.789900
O71	O7	0.146100	0.609300	0.802130
O81	O8	0.355600	0.404500	0.793790
Zn31	Zn3	0.750740	0.492810	0.225850
Zn41	Zn4	0.757770	0.494270	0.064480
H271	H27	0.589800	0.522700	0.817600
H281	H28	0.927800	0.490300	0.815700
H291	H29	0.452700	0.989800	0.142000
H301	H30	0.061900	0.996000	0.176200
H311	H31	0.917500	0.238500	0.061000
H321	H32	0.574100	0.738700	0.049500
H331	H33	0.040000	0.124500	0.067600
H341	H34	0.463400	0.859300	0.048500
H351	H35	0.075600	0.330400	0.240100
H361	H36	0.452500	0.666900	0.240900
H371	H37	0.204100	0.220500	0.237700
H381	H38	0.337400	0.785600	0.246900
H391	H39	0.592600	0.508600	0.941600
H401	H40	0.925000	0.477900	0.939200
H411	H41	0.586200	0.247000	0.235300
H421	H42	0.930200	0.733800	0.249700
H431	H43	0.421200	0.331300	0.056300
H441	H44	0.068400	0.668600	0.053100
H451	H45	0.475200	0.123300	0.238100
H461	H46	0.054800	0.846200	0.262600
H471	H47	0.310900	0.208900	0.058600
H481	H48	0.185500	0.788500	0.064400
H491	H49	0.586500	0.520700	0.477800
H501	H50	0.922400	0.488700	0.480100
H511	H51	0.588600	0.512400	0.352600
H521	H52	0.922200	0.480800	0.354800
C471	C47	0.978200	0.297620	0.153350
C481	C48	0.530590	0.685350	0.144460
C491	C49	0.900600	0.373200	0.151700
C501	C50	0.599730	0.606370	0.149040
C511	C51	0.126800	0.148540	0.160410
C521	C52	0.386800	0.835470	0.148020
C531	C53	0.390000	0.150700	0.142380
C541	C54	0.123500	0.833580	0.160360
C551	C55	0.660500	0.512360	0.840270
C561	C56	0.856600	0.493750	0.839160
C571	C57	0.315600	0.074100	0.145000
C581	C58	0.189200	0.914400	0.163100
C591	C59	0.605900	0.371200	0.140400
C601	C60	0.906500	0.616800	0.144500
C611	C61	0.527100	0.296200	0.139930
C621	C62	0.986900	0.688100	0.152530
C631	C63	0.372900	0.991800	0.147200
C641	C64	0.140900	0.993800	0.167300
C651	C65	0.193900	0.067300	0.160100
C661	C66	0.308200	0.910100	0.157700
C671	C67	0.970500	0.234400	0.099400
C681	C68	0.526170	0.747560	0.089970
C691	C69	0.045000	0.164900	0.105000
C701	C70	0.459600	0.821300	0.087900
C711	C71	0.066300	0.288200	0.204500
C721	C72	0.455800	0.705170	0.201700
C731	C73	0.141500	0.219300	0.205500
C741	C74	0.384900	0.776940	0.206200
C751	C75	0.662500	0.505110	0.916520
C761	C76	0.855100	0.487200	0.915200
C771	C77	0.759000	0.505090	0.794900
C781	C78	0.534400	0.236700	0.197100
C791	C79	0.983600	0.744350	0.212460
C801	C80	0.436900	0.288300	0.090200
C811	C81	0.063500	0.704300	0.094000
C821	C82	0.758730	0.512340	0.713670
C831	C83	0.467900	0.162600	0.199900
C841	C84	0.053900	0.813700	0.219600
C851	C85	0.370800	0.215000	0.092400
C861	C86	0.131600	0.777000	0.101160
C871	C87	0.754860	0.509420	0.578540
C881	C88	0.753910	0.504800	0.497270
C891	C89	0.656900	0.512120	0.454290
C901	C90	0.852200	0.493530	0.455530
C911	C91	0.657700	0.507480	0.378370
C921	C92	0.852800	0.488980	0.379600
N71	N7	0.759260	0.493360	0.956900
N81	N8	0.859800	0.505360	0.681880
N91	N9	0.659300	0.524400	0.678920
N101	N10	0.856300	0.501940	0.611010
N111	N11	0.650200	0.521190	0.607700
N121	N12	0.755370	0.496080	0.341210
O91	O9	0.895500	0.414500	0.081600
O101	O10	0.639000	0.578200	0.076500
O111	O11	0.646000	0.396550	0.083870
O121	O12	0.882100	0.586420	0.088840
O131	O13	0.894700	0.413400	0.216500
O141	O14	0.614900	0.574800	0.210100
O151	O15	0.646100	0.390700	0.197870
O161	O16	0.855600	0.595500	0.206210
