data_FURFIJ01_clean_PM
_symmetry_space_group_name_H-M	'P1'
_cell_length_a	10.100000
_cell_length_b	30.138100
_cell_length_c	12.667900
_cell_angle_alpha	90.000000
_cell_angle_beta	126.597000
_cell_angle_gamma	90.000000
_symmetry_Int_Tables_number 1

loop_
_symmetry_equiv_pos_as_xyz
'x,y,z'

loop_
_atom_site_label
_atom_site_type_symbol
_atom_site_fract_x
_atom_site_fract_y
_atom_site_fract_z
Cd11	Cd1	0.128210	0.306770	0.079760
Cd21	Cd2	0.969670	0.408480	0.890170
C11	C1	0.381400	0.344580	0.908300
C21	C2	0.387900	0.373550	0.829800
H11	H1	0.302200	0.392700	0.771700
C31	C3	0.537100	0.371680	0.845000
H21	H2	0.560400	0.389300	0.797600
C41	C4	0.643700	0.341530	0.936100
C51	C5	0.246200	0.337620	0.921800
C61	C6	0.811700	0.330120	0.981400
C71	C7	0.511300	0.433350	0.536300
C81	C8	0.378700	0.457470	0.503300
H31	H3	0.377200	0.475000	0.563000
C91	C9	0.243900	0.453570	0.370500
H41	H4	0.144200	0.468300	0.332700
C101	C10	0.275300	0.425900	0.303500
C111	C11	0.675300	0.428060	0.663600
C121	C12	0.167700	0.413200	0.162900
C131	C13	0.043800	0.204750	0.089000
H51	H5	0.076400	0.214300	0.171100
C141	C14	0.985500	0.162190	0.051400
H61	H6	0.977600	0.144100	0.107000
C151	C15	0.938900	0.146340	0.932800
C161	C16	0.954100	0.175210	0.855400
H71	H7	0.925300	0.165900	0.774200
C171	C17	0.011600	0.217500	0.898500
H81	H8	0.019800	0.236300	0.844400
C181	C18	0.868900	0.100360	0.885100
H91	H9	0.946700	0.082800	0.881600
H101	H10	0.857200	0.086500	0.948300
C191	C19	0.705100	0.099520	0.752300
H111	H11	0.719500	0.111100	0.688300
H121	H12	0.630700	0.119400	0.754000
C201	C20	0.624400	0.054310	0.706500
H131	H13	0.616100	0.041700	0.772800
H141	H14	0.513300	0.057900	0.626500
C211	C21	0.717300	0.022290	0.680500
C221	C22	0.817500	0.989930	0.771100
H151	H15	0.829100	0.987500	0.849400
C231	C23	0.899600	0.961570	0.744100
H161	H16	0.965700	0.939700	0.805500
C241	C24	0.796100	0.995290	0.549700
H171	H17	0.789100	0.997900	0.473400
C251	C25	0.708500	0.024650	0.569400
H181	H18	0.643000	0.046200	0.506500
O11	O1	0.274000	0.307760	0.002700
O21	O2	0.120400	0.360530	0.853400
O31	O3	0.900500	0.307460	0.082000
O41	O4	0.860900	0.343370	0.914900
O51	O5	0.779200	0.405140	0.663600
O61	O6	0.701700	0.445280	0.763800
O71	O7	0.213900	0.381660	0.126700
O81	O8	0.039200	0.434800	0.085400
N11	N1	0.056500	0.233170	0.014900
N21	N2	0.890000	0.963500	0.634500
S11	S1	0.560180	0.314980	0.003820
S21	S2	0.470210	0.404970	0.402720
Cd31	Cd3	0.871790	0.806770	0.420240
Cd41	Cd4	0.030330	0.908480	0.609830
C261	C26	0.618600	0.844580	0.591700
C271	C27	0.612100	0.873550	0.670200
H191	H19	0.697800	0.892700	0.728300
C281	C28	0.462900	0.871680	0.655000
H201	H20	0.439600	0.889300	0.702400
C291	C29	0.356300	0.841530	0.563900
C301	C30	0.753800	0.837620	0.578200
C311	C31	0.188300	0.830120	0.518600
C321	C32	0.488700	0.933350	0.963700
C331	C33	0.621300	0.957470	0.996700
H211	H21	0.622800	0.975000	0.937000
C341	C34	0.756100	0.953570	0.129500
H221	H22	0.855800	0.968300	0.167300
C351	C35	0.724700	0.925900	0.196500
C361	C36	0.324700	0.928060	0.836400
C371	C37	0.832300	0.913200	0.337100
C381	C38	0.956200	0.704750	0.411000
H231	H23	0.923600	0.714300	0.328900
C391	C39	0.014500	0.662190	0.448600
H241	H24	0.022400	0.644100	0.393000
C401	C40	0.061100	0.646340	0.567200
C411	C41	0.045900	0.675210	0.644600
H251	H25	0.074700	0.665900	0.725800
C421	C42	0.988400	0.717500	0.601500
H261	H26	0.980200	0.736300	0.655600
C431	C43	0.131100	0.600360	0.614900
H271	H27	0.053300	0.582800	0.618400
H281	H28	0.142800	0.586500	0.551700
C441	C44	0.294900	0.599520	0.747700
H291	H29	0.280500	0.611100	0.811700
H301	H30	0.369300	0.619400	0.746000
C451	C45	0.375600	0.554310	0.793500
H311	H31	0.383900	0.541700	0.727200
H321	H32	0.486700	0.557900	0.873500
C461	C46	0.282700	0.522290	0.819500
C471	C47	0.182500	0.489930	0.728900
H331	H33	0.170900	0.487500	0.650600
C481	C48	0.100400	0.461570	0.755900
H341	H34	0.034300	0.439700	0.694500
C491	C49	0.203900	0.495290	0.950300
H351	H35	0.210900	0.497900	0.026600
C501	C50	0.291500	0.524650	0.930600
H361	H36	0.357000	0.546200	0.993500
O91	O9	0.726000	0.807760	0.497300
O101	O10	0.879600	0.860530	0.646600
O111	O11	0.099500	0.807460	0.418000
O121	O12	0.139100	0.843370	0.585100
O131	O13	0.220800	0.905140	0.836400
O141	O14	0.298300	0.945280	0.736200
O151	O15	0.786100	0.881660	0.373300
O161	O16	0.960800	0.934800	0.414600
N31	N3	0.943500	0.733170	0.485100
N41	N4	0.110000	0.463500	0.865500
S31	S3	0.439820	0.814980	0.496180
S41	S4	0.529790	0.904970	0.097280
Cd51	Cd5	0.871790	0.693230	0.920240
Cd61	Cd6	0.030330	0.591520	0.109830
C511	C51	0.618600	0.655420	0.091700
C521	C52	0.612100	0.626450	0.170200
H371	H37	0.697800	0.607300	0.228300
C531	C53	0.462900	0.628320	0.155000
H381	H38	0.439600	0.610700	0.202400
C541	C54	0.356300	0.658470	0.063900
C551	C55	0.753800	0.662380	0.078200
C561	C56	0.188300	0.669880	0.018600
C571	C57	0.488700	0.566650	0.463700
C581	C58	0.621300	0.542530	0.496700
H391	H39	0.622800	0.525000	0.437000
C591	C59	0.756100	0.546430	0.629500
H401	H40	0.855800	0.531700	0.667300
C601	C60	0.724700	0.574100	0.696500
C611	C61	0.324700	0.571940	0.336400
C621	C62	0.832300	0.586800	0.837100
C631	C63	0.956200	0.795250	0.911000
H411	H41	0.923600	0.785700	0.828900
C641	C64	0.014500	0.837810	0.948600
H421	H42	0.022400	0.855900	0.893000
C651	C65	0.061100	0.853660	0.067200
C661	C66	0.045900	0.824790	0.144600
H431	H43	0.074700	0.834100	0.225800
C671	C67	0.988400	0.782500	0.101500
H441	H44	0.980200	0.763700	0.155600
C681	C68	0.131100	0.899640	0.114900
H451	H45	0.053300	0.917200	0.118400
H461	H46	0.142800	0.913500	0.051700
C691	C69	0.294900	0.900480	0.247700
H471	H47	0.280500	0.888900	0.311700
H481	H48	0.369300	0.880600	0.246000
C701	C70	0.375600	0.945690	0.293500
H491	H49	0.383900	0.958300	0.227200
H501	H50	0.486700	0.942100	0.373500
C711	C71	0.282700	0.977710	0.319500
C721	C72	0.182500	0.010070	0.228900
H511	H51	0.170900	0.012500	0.150600
C731	C73	0.100400	0.038430	0.255900
H521	H52	0.034300	0.060300	0.194500
C741	C74	0.203900	0.004710	0.450300
H531	H53	0.210900	0.002100	0.526600
C751	C75	0.291500	0.975350	0.430600
H541	H54	0.357000	0.953800	0.493500
O171	O17	0.726000	0.692240	0.997300
O181	O18	0.879600	0.639470	0.146600
O191	O19	0.099500	0.692540	0.918000
O201	O20	0.139100	0.656630	0.085100
O211	O21	0.220800	0.594860	0.336400
O221	O22	0.298300	0.554720	0.236200
O231	O23	0.786100	0.618340	0.873300
O241	O24	0.960800	0.565200	0.914600
N51	N5	0.943500	0.766830	0.985100
N61	N6	0.110000	0.036500	0.365500
S51	S5	0.439820	0.685020	0.996180
S61	S6	0.529790	0.595030	0.597280
Cd71	Cd7	0.128210	0.193230	0.579760
Cd81	Cd8	0.969670	0.091520	0.390170
C761	C76	0.381400	0.155420	0.408300
C771	C77	0.387900	0.126450	0.329800
H551	H55	0.302200	0.107300	0.271700
C781	C78	0.537100	0.128320	0.345000
H561	H56	0.560400	0.110700	0.297600
C791	C79	0.643700	0.158470	0.436100
C801	C80	0.246200	0.162380	0.421800
C811	C81	0.811700	0.169880	0.481400
C821	C82	0.511300	0.066650	0.036300
C831	C83	0.378700	0.042530	0.003300
H571	H57	0.377200	0.025000	0.063000
C841	C84	0.243900	0.046430	0.870500
H581	H58	0.144200	0.031700	0.832700
C851	C85	0.275300	0.074100	0.803500
C861	C86	0.675300	0.071940	0.163600
C871	C87	0.167700	0.086800	0.662900
C881	C88	0.043800	0.295250	0.589000
H591	H59	0.076400	0.285700	0.671100
C891	C89	0.985500	0.337810	0.551400
H601	H60	0.977600	0.355900	0.607000
C901	C90	0.938900	0.353660	0.432800
C911	C91	0.954100	0.324790	0.355400
H611	H61	0.925300	0.334100	0.274200
C921	C92	0.011600	0.282500	0.398500
H621	H62	0.019800	0.263700	0.344400
C931	C93	0.868900	0.399640	0.385100
H631	H63	0.946700	0.417200	0.381600
H641	H64	0.857200	0.413500	0.448300
C941	C94	0.705100	0.400480	0.252300
H651	H65	0.719500	0.388900	0.188300
H661	H66	0.630700	0.380600	0.254000
C951	C95	0.624400	0.445690	0.206500
H671	H67	0.616100	0.458300	0.272800
H681	H68	0.513300	0.442100	0.126500
C961	C96	0.717300	0.477710	0.180500
C971	C97	0.817500	0.510070	0.271100
H691	H69	0.829100	0.512500	0.349400
C981	C98	0.899600	0.538430	0.244100
H701	H70	0.965700	0.560300	0.305500
C991	C99	0.796100	0.504710	0.049700
H711	H71	0.789100	0.502100	0.973400
C1001	C100	0.708500	0.475350	0.069400
H721	H72	0.643000	0.453800	0.006500
O251	O25	0.274000	0.192240	0.502700
O261	O26	0.120400	0.139470	0.353400
O271	O27	0.900500	0.192540	0.582000
O281	O28	0.860900	0.156630	0.414900
O291	O29	0.779200	0.094860	0.163600
O301	O30	0.701700	0.054720	0.263800
O311	O31	0.213900	0.118340	0.626700
O321	O32	0.039200	0.065200	0.585400
N71	N7	0.056500	0.266830	0.514900
N81	N8	0.890000	0.536500	0.134500
S71	S7	0.560180	0.185020	0.503820
S81	S8	0.470210	0.095030	0.902720
