data_FURRUG01_ion_b_PM
_symmetry_space_group_name_H-M	'P1'
_cell_length_a	34.565000
_cell_length_b	34.565000
_cell_length_c	8.333700
_cell_angle_alpha	90.000000
_cell_angle_beta	90.000000
_cell_angle_gamma	120.000000
_symmetry_Int_Tables_number 1

loop_
_symmetry_equiv_pos_as_xyz
'x,y,z'

loop_
_atom_site_label
_atom_site_type_symbol
_atom_site_fract_x
_atom_site_fract_y
_atom_site_fract_z
Ag11	Ag1	0.322850	0.140430	0.497540
O21	O2	0.011340	0.668800	0.645730
N31	N3	0.344020	0.200660	0.351000
N41	N4	0.209110	0.283240	0.393300
C51	C5	0.324000	0.225700	0.361700
H61	H6	0.298900	0.215900	0.426500
C71	C7	0.339940	0.265550	0.278000
C81	C8	0.043270	0.612730	0.510730
H91	H9	0.054970	0.639630	0.455230
C101	C10	0.062170	0.586030	0.494630
H111	H11	0.752530	0.927270	0.757670
C121	C12	0.378700	0.213900	0.251000
H131	H13	0.392000	0.196400	0.241400
C141	C14	0.320100	0.295150	0.301500
C151	C15	0.253000	0.297700	0.388900
H161	H16	0.272400	0.324100	0.441900
C171	C17	0.270900	0.274900	0.308400
C181	C18	0.908670	0.568830	0.560430
H191	H19	0.919570	0.552930	0.504730
C201	C20	0.196900	0.220800	0.231700
H211	H21	0.843570	0.528130	0.511330
C221	C22	0.181600	0.244900	0.316600
H231	H23	0.151000	0.234100	0.320700
C241	C24	0.416200	0.157400	0.549700
O251	O25	0.398000	0.139600	0.422200
O261	O26	0.731930	0.832070	0.329870
C271	C27	0.796930	0.842170	0.207570
F281	F28	0.480200	0.155600	0.453900
F291	F29	0.831230	0.890770	0.199670
C301	C30	0.814130	0.838670	0.370970
F311	F31	0.786830	0.794070	0.397970
F321	F32	0.808030	0.866270	0.481670
F331	F33	0.858630	0.855270	0.365670
Ag341	Ag34	0.989520	0.473760	0.830870
O351	O35	0.678000	0.002140	0.979070
N361	N36	0.010690	0.533990	0.684330
N371	N37	0.875780	0.616570	0.726630
C381	C38	0.990670	0.559030	0.695030
H391	H39	0.965570	0.549230	0.759830
C401	C40	0.006610	0.598880	0.611330
C411	C41	0.709930	0.946070	0.844070
H421	H42	0.721630	0.972970	0.788570
C431	C43	0.728830	0.919370	0.827970
H441	H44	0.419200	0.260600	0.091000
C451	C45	0.045370	0.547230	0.584330
H461	H46	0.058670	0.529730	0.574730
C471	C47	0.986770	0.628480	0.634830
C481	C48	0.919670	0.631030	0.722230
H491	H49	0.939070	0.657430	0.775230
C501	C50	0.937570	0.608230	0.641730
C511	C51	0.575330	0.902170	0.893770
H521	H52	0.586230	0.886270	0.838070
C531	C53	0.863570	0.554130	0.565030
H541	H54	0.510230	0.861470	0.844670
C551	C55	0.848270	0.578230	0.649930
H561	H56	0.817670	0.567430	0.654030
C571	C57	0.082870	0.490730	0.883030
O581	O58	0.064670	0.472930	0.755530
O591	O59	0.398600	0.165400	0.663200
C601	C60	0.463600	0.175500	0.540900
F611	F61	0.146870	0.488930	0.787230
F621	F62	0.497900	0.224100	0.533000
C631	C63	0.480800	0.172000	0.704300
F641	F64	0.453500	0.127400	0.731300
F651	F65	0.474700	0.199600	0.815000
F661	F66	0.525300	0.188600	0.699000
Ag671	Ag67	0.656180	0.807100	0.164210
O681	O68	0.344670	0.335470	0.312400
N691	N69	0.677350	0.867330	0.017670
N701	N70	0.542440	0.949910	0.059970
C711	C71	0.657330	0.892370	0.028370
H721	H72	0.632230	0.882570	0.093170
C731	C73	0.673270	0.932220	0.944670
C741	C74	0.376600	0.279400	0.177400
H751	H75	0.388300	0.306300	0.121900
C761	C76	0.395500	0.252700	0.161300
H771	H77	0.085870	0.593930	0.424330
C781	C78	0.712030	0.880570	0.917670
H791	H79	0.725330	0.863070	0.908070
C801	C80	0.653430	0.961820	0.968170
C811	C81	0.586330	0.964370	0.055570
H821	H82	0.605730	0.990770	0.108570
C831	C83	0.604230	0.941570	0.975070
C841	C84	0.242000	0.235500	0.227100
H851	H85	0.252900	0.219600	0.171400
C861	C86	0.530230	0.887470	0.898370
H871	H87	0.176900	0.194800	0.178000
C881	C88	0.514930	0.911570	0.983270
H891	H89	0.484330	0.900770	0.987370
C901	C90	0.749530	0.824070	0.216370
O911	O91	0.731330	0.806270	0.088870
O921	O92	0.065270	0.498730	0.996530
C931	C93	0.130270	0.508830	0.874230
F941	F94	0.813530	0.822270	0.120570
F951	F95	0.164570	0.557430	0.866330
C961	C96	0.147470	0.505330	0.037630
F971	F97	0.120170	0.460730	0.064630
F981	F98	0.141370	0.532930	0.148330
F991	F99	0.191970	0.521930	0.032330
Ag1001	Ag100	0.859570	0.182420	0.497540
O1011	O101	0.331200	0.342530	0.645730
N1021	N102	0.799340	0.143360	0.351000
N1031	N103	0.716760	0.925870	0.393300
C1041	C104	0.774300	0.098300	0.361700
H1051	H105	0.784100	0.083000	0.426500
C1061	C106	0.734450	0.074390	0.278000
C1071	C107	0.387270	0.430530	0.510730
H1081	H108	0.360370	0.415330	0.455230
C1091	C109	0.413970	0.476130	0.494630
H1101	H110	0.072730	0.825270	0.757670
C1111	C111	0.786100	0.164800	0.251000
H1121	H112	0.803600	0.195600	0.241400
C1131	C113	0.704850	0.024950	0.301500
C1141	C114	0.702300	0.955300	0.388900
H1151	H115	0.675900	0.948300	0.441900
C1161	C116	0.725100	0.996000	0.308400
C1171	C117	0.431170	0.339830	0.560430
H1181	H118	0.447070	0.366630	0.504730
C1191	C119	0.779200	0.976100	0.231700
H1201	H120	0.471870	0.315430	0.511330
C1211	C121	0.755100	0.936700	0.316600
H1221	H122	0.765900	0.916900	0.320700
C1231	C123	0.842600	0.258800	0.549700
O1241	O124	0.860400	0.258400	0.422200
O1251	O125	0.167930	0.899870	0.329870
C1261	C126	0.157830	0.954770	0.207570
F1271	F127	0.844400	0.324600	0.453900
F1281	F128	0.109230	0.940470	0.199670
C1291	C129	0.161330	0.975470	0.370970
F1301	F130	0.205930	0.992770	0.397970
F1311	F131	0.133730	0.941770	0.481670
F1321	F132	0.144730	0.003370	0.365670
Ag1331	Ag133	0.526240	0.515750	0.830870
O1341	O134	0.997860	0.675870	0.979070
N1351	N135	0.466010	0.476690	0.684330
N1361	N136	0.383430	0.259200	0.726630
C1371	C137	0.440970	0.431630	0.695030
H1381	H138	0.450770	0.416330	0.759830
C1391	C139	0.401120	0.407720	0.611330
C1401	C140	0.053930	0.763870	0.844070
H1411	H141	0.027030	0.748670	0.788570
C1421	C142	0.080630	0.809470	0.827970
H1431	H143	0.739400	0.158600	0.091000
C1441	C144	0.452770	0.498130	0.584330
H1451	H145	0.470270	0.528930	0.574730
C1461	C146	0.371520	0.358280	0.634830
C1471	C147	0.368970	0.288630	0.722230
H1481	H148	0.342570	0.281630	0.775230
C1491	C149	0.391770	0.329330	0.641730
C1501	C150	0.097830	0.673170	0.893770
H1511	H151	0.113730	0.699970	0.838070
C1521	C152	0.445870	0.309430	0.565030
H1531	H153	0.138530	0.648770	0.844670
C1541	C154	0.421770	0.270030	0.649930
H1551	H155	0.432570	0.250230	0.654030
C1561	C156	0.509270	0.592130	0.883030
O1571	O157	0.527070	0.591730	0.755530
O1581	O158	0.834600	0.233200	0.663200
C1591	C159	0.824500	0.288100	0.540900
F1601	F160	0.511070	0.657930	0.787230
F1611	F161	0.775900	0.273800	0.533000
C1621	C162	0.828000	0.308800	0.704300
F1631	F163	0.872600	0.326100	0.731300
F1641	F164	0.800400	0.275100	0.815000
F1651	F165	0.811400	0.336700	0.699000
Ag1661	Ag166	0.192900	0.849090	0.164210
O1671	O167	0.664530	0.009200	0.312400
N1681	N168	0.132670	0.810030	0.017670
N1691	N169	0.050090	0.592540	0.059970
C1701	C170	0.107630	0.764970	0.028370
H1711	H171	0.117430	0.749670	0.093170
C1721	C172	0.067780	0.741060	0.944670
C1731	C173	0.720600	0.097200	0.177400
H1741	H174	0.693700	0.082000	0.121900
C1751	C175	0.747300	0.142800	0.161300
H1761	H176	0.406070	0.491930	0.424330
C1771	C177	0.119430	0.831470	0.917670
H1781	H178	0.136930	0.862270	0.908070
C1791	C179	0.038180	0.691620	0.968170
C1801	C180	0.035630	0.621970	0.055570
H1811	H181	0.009230	0.614970	0.108570
C1821	C182	0.058430	0.662670	0.975070
C1831	C183	0.764500	0.006500	0.227100
H1841	H184	0.780400	0.033300	0.171400
C1851	C185	0.112530	0.642770	0.898370
H1861	H186	0.805200	0.982100	0.178000
C1871	C187	0.088430	0.603370	0.983270
H1881	H188	0.099230	0.583570	0.987370
C1891	C189	0.175930	0.925470	0.216370
O1901	O190	0.193730	0.925070	0.088870
O1911	O191	0.501270	0.566530	0.996530
C1921	C192	0.491170	0.621430	0.874230
F1931	F193	0.177730	0.991270	0.120570
F1941	F194	0.442570	0.607130	0.866330
C1951	C195	0.494670	0.642130	0.037630
F1961	F196	0.539270	0.659430	0.064630
F1971	F197	0.467070	0.608430	0.148330
F1981	F198	0.478070	0.670030	0.032330
Ag1991	Ag199	0.817580	0.677150	0.497540
O2001	O200	0.657470	0.988660	0.645730
N2011	N201	0.856640	0.655980	0.351000
N2021	N202	0.074130	0.790890	0.393300
C2031	C203	0.901700	0.676000	0.361700
H2041	H204	0.917000	0.701100	0.426500
C2051	C205	0.925610	0.660060	0.278000
C2061	C206	0.569470	0.956730	0.510730
H2071	H207	0.584670	0.945030	0.455230
C2081	C208	0.523870	0.937830	0.494630
H2091	H209	0.174730	0.247470	0.757670
C2101	C210	0.835200	0.621300	0.251000
H2111	H211	0.804400	0.608000	0.241400
C2121	C212	0.975050	0.679900	0.301500
C2131	C213	0.044700	0.747000	0.388900
H2141	H214	0.051700	0.727600	0.441900
C2151	C215	0.004000	0.729100	0.308400
C2161	C216	0.660170	0.091330	0.560430
H2171	H217	0.633370	0.080430	0.504730
C2181	C218	0.023900	0.803100	0.231700
H2191	H219	0.684570	0.156430	0.511330
C2201	C220	0.063300	0.818400	0.316600
H2211	H221	0.083100	0.849000	0.320700
C2221	C222	0.741200	0.583800	0.549700
O2231	O223	0.741600	0.602000	0.422200
O2241	O224	0.100130	0.268070	0.329870
C2251	C225	0.045230	0.203070	0.207570
F2261	F226	0.675400	0.519800	0.453900
F2271	F227	0.059530	0.168770	0.199670
C2281	C228	0.024530	0.185870	0.370970
F2291	F229	0.007230	0.213170	0.397970
F2301	F230	0.058230	0.191970	0.481670
F2311	F231	0.996630	0.141370	0.365670
Ag2321	Ag232	0.484250	0.010480	0.830870
O2331	O233	0.324130	0.322000	0.979070
N2341	N234	0.523310	0.989310	0.684330
N2351	N235	0.740800	0.124220	0.726630
C2361	C236	0.568370	0.009330	0.695030
H2371	H237	0.583670	0.034430	0.759830
C2381	C238	0.592280	0.993390	0.611330
C2391	C239	0.236130	0.290070	0.844070
H2401	H240	0.251330	0.278370	0.788570
C2411	C241	0.190530	0.271170	0.827970
H2421	H242	0.841400	0.580800	0.091000
C2431	C243	0.501870	0.954630	0.584330
H2441	H244	0.471070	0.941330	0.574730
C2451	C245	0.641720	0.013230	0.634830
C2461	C246	0.711370	0.080330	0.722230
H2471	H247	0.718370	0.060930	0.775230
C2481	C248	0.670670	0.062430	0.641730
C2491	C249	0.326830	0.424670	0.893770
H2501	H250	0.300030	0.413770	0.838070
C2511	C251	0.690570	0.136430	0.565030
H2521	H252	0.351230	0.489770	0.844670
C2531	C253	0.729970	0.151730	0.649930
H2541	H254	0.749770	0.182330	0.654030
C2551	C255	0.407870	0.917130	0.883030
O2561	O256	0.408270	0.935330	0.755530
O2571	O257	0.766800	0.601400	0.663200
C2581	C258	0.711900	0.536400	0.540900
F2591	F259	0.342070	0.853130	0.787230
F2601	F260	0.726200	0.502100	0.533000
C2611	C261	0.691200	0.519200	0.704300
F2621	F262	0.673900	0.546500	0.731300
F2631	F263	0.724900	0.525300	0.815000
F2641	F264	0.663300	0.474700	0.699000
Ag2651	Ag265	0.150910	0.343820	0.164210
O2661	O266	0.990800	0.655330	0.312400
N2671	N267	0.189970	0.322650	0.017670
N2681	N268	0.407460	0.457560	0.059970
C2691	C269	0.235030	0.342670	0.028370
H2701	H270	0.250330	0.367770	0.093170
C2711	C271	0.258940	0.326730	0.944670
C2721	C272	0.902800	0.623400	0.177400
H2731	H273	0.918000	0.611700	0.121900
C2741	C274	0.857200	0.604500	0.161300
H2751	H275	0.508070	0.914130	0.424330
C2761	C276	0.168530	0.287970	0.917670
H2771	H277	0.137730	0.274670	0.908070
C2781	C278	0.308380	0.346570	0.968170
C2791	C279	0.378030	0.413670	0.055570
H2801	H280	0.385030	0.394270	0.108570
C2811	C281	0.337330	0.395770	0.975070
C2821	C282	0.993500	0.758000	0.227100
H2831	H283	0.966700	0.747100	0.171400
C2841	C284	0.357230	0.469770	0.898370
H2851	H285	0.017900	0.823100	0.178000
C2861	C286	0.396630	0.485070	0.983270
H2871	H287	0.416430	0.515670	0.987370
C2881	C288	0.074530	0.250470	0.216370
O2891	O289	0.074930	0.268670	0.088870
O2901	O290	0.433470	0.934730	0.996530
C2911	C291	0.378570	0.869730	0.874230
F2921	F292	0.008730	0.186470	0.120570
F2931	F293	0.392870	0.835430	0.866330
C2941	C294	0.357870	0.852530	0.037630
F2951	F295	0.340570	0.879830	0.064630
F2961	F296	0.391570	0.858630	0.148330
F2971	F297	0.329970	0.808030	0.032330
Ag2981	Ag298	0.677150	0.859570	0.502460
O2991	O299	0.988660	0.331200	0.354270
N3001	N300	0.655980	0.799340	0.649000
N3011	N301	0.790890	0.716760	0.606700
C3021	C302	0.676000	0.774300	0.638300
H3031	H303	0.701100	0.784100	0.573500
C3041	C304	0.660060	0.734450	0.722000
C3051	C305	0.956730	0.387270	0.489270
H3061	H306	0.945030	0.360370	0.544770
C3071	C307	0.937830	0.413970	0.505370
H3081	H308	0.247470	0.072730	0.242330
C3091	C309	0.621300	0.786100	0.749000
H3101	H310	0.608000	0.803600	0.758600
C3111	C311	0.679900	0.704850	0.698500
C3121	C312	0.747000	0.702300	0.611100
H3131	H313	0.727600	0.675900	0.558100
C3141	C314	0.729100	0.725100	0.691600
C3151	C315	0.091330	0.431170	0.439570
H3161	H316	0.080430	0.447070	0.495270
C3171	C317	0.803100	0.779200	0.768300
H3181	H318	0.156430	0.471870	0.488670
C3191	C319	0.818400	0.755100	0.683400
H3201	H320	0.849000	0.765900	0.679300
C3211	C321	0.583800	0.842600	0.450300
O3221	O322	0.602000	0.860400	0.577800
O3231	O323	0.268070	0.167930	0.670130
C3241	C324	0.203070	0.157830	0.792430
F3251	F325	0.519800	0.844400	0.546100
F3261	F326	0.168770	0.109230	0.800330
C3271	C327	0.185870	0.161330	0.629030
F3281	F328	0.213170	0.205930	0.602030
F3291	F329	0.191970	0.133730	0.518330
F3301	F330	0.141370	0.144730	0.634330
Ag3311	Ag331	0.343820	0.192900	0.835790
O3321	O332	0.655330	0.664530	0.687600
N3331	N333	0.322650	0.132670	0.982330
N3341	N334	0.457560	0.050090	0.940030
C3351	C335	0.342670	0.107630	0.971630
H3361	H336	0.367770	0.117430	0.906830
C3371	C337	0.326730	0.067780	0.055330
C3381	C338	0.623400	0.720600	0.822600
H3391	H339	0.611700	0.693700	0.878100
C3401	C340	0.604500	0.747300	0.838700
H3411	H341	0.914130	0.406070	0.575670
C3421	C342	0.287970	0.119430	0.082330
H3431	H343	0.274670	0.136930	0.091930
C3441	C344	0.346570	0.038180	0.031830
C3451	C345	0.413670	0.035630	0.944430
H3461	H346	0.394270	0.009230	0.891430
C3471	C347	0.395770	0.058430	0.024930
C3481	C348	0.758000	0.764500	0.772900
H3491	H349	0.747100	0.780400	0.828600
C3501	C350	0.469770	0.112530	0.101630
H3511	H351	0.823100	0.805200	0.822000
C3521	C352	0.485070	0.088430	0.016730
H3531	H353	0.515670	0.099230	0.012630
C3541	C354	0.250470	0.175930	0.783630
O3551	O355	0.268670	0.193730	0.911130
O3561	O356	0.934730	0.501270	0.003470
C3571	C357	0.869730	0.491170	0.125770
F3581	F358	0.186470	0.177730	0.879430
F3591	F359	0.835430	0.442570	0.133670
C3601	C360	0.852530	0.494670	0.962370
F3611	F361	0.879830	0.539270	0.935370
F3621	F362	0.858630	0.467070	0.851670
F3631	F363	0.808030	0.478070	0.967670
Ag3641	Ag364	0.010480	0.526240	0.169130
O3651	O365	0.322000	0.997860	0.020930
N3661	N366	0.989310	0.466010	0.315670
N3671	N367	0.124220	0.383430	0.273370
C3681	C368	0.009330	0.440970	0.304970
H3691	H369	0.034430	0.450770	0.240170
C3701	C370	0.993390	0.401120	0.388670
C3711	C371	0.290070	0.053930	0.155930
H3721	H372	0.278370	0.027030	0.211430
C3731	C373	0.271170	0.080630	0.172030
H3741	H374	0.580800	0.739400	0.909000
C3751	C375	0.954630	0.452770	0.415670
H3761	H376	0.941330	0.470270	0.425270
C3771	C377	0.013230	0.371520	0.365170
C3781	C378	0.080330	0.368970	0.277770
H3791	H379	0.060930	0.342570	0.224770
C3801	C380	0.062430	0.391770	0.358270
C3811	C381	0.424670	0.097830	0.106230
H3821	H382	0.413770	0.113730	0.161930
C3831	C383	0.136430	0.445870	0.434970
H3841	H384	0.489770	0.138530	0.155330
C3851	C385	0.151730	0.421770	0.350070
H3861	H386	0.182330	0.432570	0.345970
C3871	C387	0.917130	0.509270	0.116970
O3881	O388	0.935330	0.527070	0.244470
O3891	O389	0.601400	0.834600	0.336800
C3901	C390	0.536400	0.824500	0.459100
F3911	F391	0.853130	0.511070	0.212770
F3921	F392	0.502100	0.775900	0.467000
C3931	C393	0.519200	0.828000	0.295700
F3941	F394	0.546500	0.872600	0.268700
F3951	F395	0.525300	0.800400	0.185000
F3961	F396	0.474700	0.811400	0.301000
Ag3971	Ag397	0.140430	0.817580	0.502460
O3981	O398	0.668800	0.657470	0.354270
N3991	N399	0.200660	0.856640	0.649000
N4001	N400	0.283240	0.074130	0.606700
C4011	C401	0.225700	0.901700	0.638300
H4021	H402	0.215900	0.917000	0.573500
C4031	C403	0.265550	0.925610	0.722000
C4041	C404	0.612730	0.569470	0.489270
H4051	H405	0.639630	0.584670	0.544770
C4061	C406	0.586030	0.523870	0.505370
H4071	H407	0.927270	0.174730	0.242330
C4081	C408	0.213900	0.835200	0.749000
H4091	H409	0.196400	0.804400	0.758600
C4101	C410	0.295150	0.975050	0.698500
C4111	C411	0.297700	0.044700	0.611100
H4121	H412	0.324100	0.051700	0.558100
C4131	C413	0.274900	0.004000	0.691600
C4141	C414	0.568830	0.660170	0.439570
H4151	H415	0.552930	0.633370	0.495270
C4161	C416	0.220800	0.023900	0.768300
H4171	H417	0.528130	0.684570	0.488670
C4181	C418	0.244900	0.063300	0.683400
H4191	H419	0.234100	0.083100	0.679300
C4201	C420	0.157400	0.741200	0.450300
O4211	O421	0.139600	0.741600	0.577800
O4221	O422	0.832070	0.100130	0.670130
C4231	C423	0.842170	0.045230	0.792430
F4241	F424	0.155600	0.675400	0.546100
F4251	F425	0.890770	0.059530	0.800330
C4261	C426	0.838670	0.024530	0.629030
F4271	F427	0.794070	0.007230	0.602030
F4281	F428	0.866270	0.058230	0.518330
F4291	F429	0.855270	0.996630	0.634330
Ag4301	Ag430	0.807100	0.150910	0.835790
O4311	O431	0.335470	0.990800	0.687600
N4321	N432	0.867330	0.189970	0.982330
N4331	N433	0.949910	0.407460	0.940030
C4341	C434	0.892370	0.235030	0.971630
H4351	H435	0.882570	0.250330	0.906830
C4361	C436	0.932220	0.258940	0.055330
C4371	C437	0.279400	0.902800	0.822600
H4381	H438	0.306300	0.918000	0.878100
C4391	C439	0.252700	0.857200	0.838700
H4401	H440	0.593930	0.508070	0.575670
C4411	C441	0.880570	0.168530	0.082330
H4421	H442	0.863070	0.137730	0.091930
C4431	C443	0.961820	0.308380	0.031830
C4441	C444	0.964370	0.378030	0.944430
H4451	H445	0.990770	0.385030	0.891430
C4461	C446	0.941570	0.337330	0.024930
C4471	C447	0.235500	0.993500	0.772900
H4481	H448	0.219600	0.966700	0.828600
C4491	C449	0.887470	0.357230	0.101630
H4501	H450	0.194800	0.017900	0.822000
C4511	C451	0.911570	0.396630	0.016730
H4521	H452	0.900770	0.416430	0.012630
C4531	C453	0.824070	0.074530	0.783630
O4541	O454	0.806270	0.074930	0.911130
O4551	O455	0.498730	0.433470	0.003470
C4561	C456	0.508830	0.378570	0.125770
F4571	F457	0.822270	0.008730	0.879430
F4581	F458	0.557430	0.392870	0.133670
C4591	C459	0.505330	0.357870	0.962370
F4601	F460	0.460730	0.340570	0.935370
F4611	F461	0.532930	0.391570	0.851670
F4621	F462	0.521930	0.329970	0.967670
Ag4631	Ag463	0.473760	0.484250	0.169130
O4641	O464	0.002140	0.324130	0.020930
N4651	N465	0.533990	0.523310	0.315670
N4661	N466	0.616570	0.740800	0.273370
C4671	C467	0.559030	0.568370	0.304970
H4681	H468	0.549230	0.583670	0.240170
C4691	C469	0.598880	0.592280	0.388670
C4701	C470	0.946070	0.236130	0.155930
H4711	H471	0.972970	0.251330	0.211430
C4721	C472	0.919370	0.190530	0.172030
H4731	H473	0.260600	0.841400	0.909000
C4741	C474	0.547230	0.501870	0.415670
H4751	H475	0.529730	0.471070	0.425270
C4761	C476	0.628480	0.641720	0.365170
C4771	C477	0.631030	0.711370	0.277770
H4781	H478	0.657430	0.718370	0.224770
C4791	C479	0.608230	0.670670	0.358270
C4801	C480	0.902170	0.326830	0.106230
H4811	H481	0.886270	0.300030	0.161930
C4821	C482	0.554130	0.690570	0.434970
H4831	H483	0.861470	0.351230	0.155330
C4841	C484	0.578230	0.729970	0.350070
H4851	H485	0.567430	0.749770	0.345970
C4861	C486	0.490730	0.407870	0.116970
O4871	O487	0.472930	0.408270	0.244470
O4881	O488	0.165400	0.766800	0.336800
C4891	C489	0.175500	0.711900	0.459100
F4901	F490	0.488930	0.342070	0.212770
F4911	F491	0.224100	0.726200	0.467000
C4921	C492	0.172000	0.691200	0.295700
F4931	F493	0.127400	0.673900	0.268700
F4941	F494	0.199600	0.724900	0.185000
F4951	F495	0.188600	0.663300	0.301000
Ag4961	Ag496	0.182420	0.322850	0.502460
O4971	O497	0.342530	0.011340	0.354270
N4981	N498	0.143360	0.344020	0.649000
N4991	N499	0.925870	0.209110	0.606700
C5001	C500	0.098300	0.324000	0.638300
H5011	H501	0.083000	0.298900	0.573500
C5021	C502	0.074390	0.339940	0.722000
C5031	C503	0.430530	0.043270	0.489270
H5041	H504	0.415330	0.054970	0.544770
C5051	C505	0.476130	0.062170	0.505370
H5061	H506	0.825270	0.752530	0.242330
C5071	C507	0.164800	0.378700	0.749000
H5081	H508	0.195600	0.392000	0.758600
C5091	C509	0.024950	0.320100	0.698500
C5101	C510	0.955300	0.253000	0.611100
H5111	H511	0.948300	0.272400	0.558100
C5121	C512	0.996000	0.270900	0.691600
C5131	C513	0.339830	0.908670	0.439570
H5141	H514	0.366630	0.919570	0.495270
C5151	C515	0.976100	0.196900	0.768300
H5161	H516	0.315430	0.843570	0.488670
C5171	C517	0.936700	0.181600	0.683400
H5181	H518	0.916900	0.151000	0.679300
C5191	C519	0.258800	0.416200	0.450300
O5201	O520	0.258400	0.398000	0.577800
O5211	O521	0.899870	0.731930	0.670130
C5221	C522	0.954770	0.796930	0.792430
F5231	F523	0.324600	0.480200	0.546100
F5241	F524	0.940470	0.831230	0.800330
C5251	C525	0.975470	0.814130	0.629030
F5261	F526	0.992770	0.786830	0.602030
F5271	F527	0.941770	0.808030	0.518330
F5281	F528	0.003370	0.858630	0.634330
Ag5291	Ag529	0.849090	0.656180	0.835790
O5301	O530	0.009200	0.344670	0.687600
N5311	N531	0.810030	0.677350	0.982330
N5321	N532	0.592540	0.542440	0.940030
C5331	C533	0.764970	0.657330	0.971630
H5341	H534	0.749670	0.632230	0.906830
C5351	C535	0.741060	0.673270	0.055330
C5361	C536	0.097200	0.376600	0.822600
H5371	H537	0.082000	0.388300	0.878100
C5381	C538	0.142800	0.395500	0.838700
H5391	H539	0.491930	0.085870	0.575670
C5401	C540	0.831470	0.712030	0.082330
H5411	H541	0.862270	0.725330	0.091930
C5421	C542	0.691620	0.653430	0.031830
C5431	C543	0.621970	0.586330	0.944430
H5441	H544	0.614970	0.605730	0.891430
C5451	C545	0.662670	0.604230	0.024930
C5461	C546	0.006500	0.242000	0.772900
H5471	H547	0.033300	0.252900	0.828600
C5481	C548	0.642770	0.530230	0.101630
H5491	H549	0.982100	0.176900	0.822000
C5501	C550	0.603370	0.514930	0.016730
H5511	H551	0.583570	0.484330	0.012630
C5521	C552	0.925470	0.749530	0.783630
O5531	O553	0.925070	0.731330	0.911130
O5541	O554	0.566530	0.065270	0.003470
C5551	C555	0.621430	0.130270	0.125770
F5561	F556	0.991270	0.813530	0.879430
F5571	F557	0.607130	0.164570	0.133670
C5581	C558	0.642130	0.147470	0.962370
F5591	F559	0.659430	0.120170	0.935370
F5601	F560	0.608430	0.141370	0.851670
F5611	F561	0.670030	0.191970	0.967670
Ag5621	Ag562	0.515750	0.989520	0.169130
O5631	O563	0.675870	0.678000	0.020930
N5641	N564	0.476690	0.010690	0.315670
N5651	N565	0.259200	0.875780	0.273370
C5661	C566	0.431630	0.990670	0.304970
H5671	H567	0.416330	0.965570	0.240170
C5681	C568	0.407720	0.006610	0.388670
C5691	C569	0.763870	0.709930	0.155930
H5701	H570	0.748670	0.721630	0.211430
C5711	C571	0.809470	0.728830	0.172030
H5721	H572	0.158600	0.419200	0.909000
C5731	C573	0.498130	0.045370	0.415670
H5741	H574	0.528930	0.058670	0.425270
C5751	C575	0.358280	0.986770	0.365170
C5761	C576	0.288630	0.919670	0.277770
H5771	H577	0.281630	0.939070	0.224770
C5781	C578	0.329330	0.937570	0.358270
C5791	C579	0.673170	0.575330	0.106230
H5801	H580	0.699970	0.586230	0.161930
C5811	C581	0.309430	0.863570	0.434970
H5821	H582	0.648770	0.510230	0.155330
C5831	C583	0.270030	0.848270	0.350070
H5841	H584	0.250230	0.817670	0.345970
C5851	C585	0.592130	0.082870	0.116970
O5861	O586	0.591730	0.064670	0.244470
O5871	O587	0.233200	0.398600	0.336800
C5881	C588	0.288100	0.463600	0.459100
F5891	F589	0.657930	0.146870	0.212770
F5901	F590	0.273800	0.497900	0.467000
C5911	C591	0.308800	0.480800	0.295700
F5921	F592	0.326100	0.453500	0.268700
F5931	F593	0.275100	0.474700	0.185000
F5941	F594	0.336700	0.525300	0.301000
