data_FURSES_clean_PM
_symmetry_space_group_name_H-M	'P1'
_cell_length_a	10.015000
_cell_length_b	6.612400
_cell_length_c	12.472100
_cell_angle_alpha	90.000000
_cell_angle_beta	109.412000
_cell_angle_gamma	90.000000
_symmetry_Int_Tables_number 1

loop_
_symmetry_equiv_pos_as_xyz
'x,y,z'

loop_
_atom_site_label
_atom_site_type_symbol
_atom_site_fract_x
_atom_site_fract_y
_atom_site_fract_z
N11	N1	0.875100	0.918000	0.248400
N21	N2	0.930500	0.848900	0.354400
N31	N3	0.124900	0.418000	0.751600
N41	N4	0.069500	0.348900	0.645600
N51	N5	0.124900	0.082000	0.751600
N61	N6	0.069500	0.151100	0.645600
N71	N7	0.875100	0.582000	0.248400
N81	N8	0.930500	0.651100	0.354400
Cu11	Cu1	0.135800	0.750000	0.767300
C11	C1	0.391400	0.750000	0.854700
C21	C2	0.550700	0.750000	0.899800
C31	C3	0.629400	0.750000	0.829200
H11	H1	0.581600	0.750000	0.751200
C41	C4	0.777900	0.750000	0.866700
C51	C5	0.846700	0.750000	0.984800
H21	H2	0.945100	0.750000	0.013700
C61	C6	0.769100	0.750000	0.059100
C71	C7	0.626700	0.750000	0.017000
H31	H3	0.576400	0.750000	0.067700
C81	C8	0.862100	0.750000	0.790200
C91	C9	0.838800	0.750000	0.187200
O11	O1	0.326600	0.750000	0.925200
O21	O2	0.326500	0.750000	0.748400
O31	O3	0.799900	0.750000	0.683700
O41	O4	0.996400	0.750000	0.836800
O51	O5	0.005000	0.750000	0.583500
H41	H4	0.922100	0.750000	0.587900
Cu21	Cu2	0.864200	0.250000	0.232700
C101	C10	0.608600	0.250000	0.145300
C111	C11	0.449300	0.250000	0.100200
C121	C12	0.370600	0.250000	0.170800
H51	H5	0.418400	0.250000	0.248800
C131	C13	0.222100	0.250000	0.133300
C141	C14	0.153300	0.250000	0.015200
H61	H6	0.054900	0.250000	0.986300
C151	C15	0.230900	0.250000	0.940900
C161	C16	0.373300	0.250000	0.983000
H71	H7	0.423600	0.250000	0.932300
C171	C17	0.137900	0.250000	0.209800
C181	C18	0.161200	0.250000	0.812800
O61	O6	0.673400	0.250000	0.074800
O71	O7	0.673500	0.250000	0.251600
O81	O8	0.200100	0.250000	0.316300
O91	O9	0.003600	0.250000	0.163200
O101	O10	0.995000	0.250000	0.416500
H81	H8	0.077900	0.250000	0.412100
Cu31	Cu3	0.000000	0.000000	0.500000
Cu41	Cu4	0.000000	0.500000	0.500000
