data_FUSNAJ_clean_PM
_symmetry_space_group_name_H-M	'P1'
_cell_length_a	34.471000
_cell_length_b	34.471000
_cell_length_c	8.463000
_cell_angle_alpha	90.000000
_cell_angle_beta	90.000000
_cell_angle_gamma	120.000000
_symmetry_Int_Tables_number 1

loop_
_symmetry_equiv_pos_as_xyz
'x,y,z'

loop_
_atom_site_label
_atom_site_type_symbol
_atom_site_fract_x
_atom_site_fract_y
_atom_site_fract_z
Ag11	Ag1	0.145700	0.318470	0.505220
O11	O1	0.333850	0.328900	0.757300
N11	N1	0.204900	0.338420	0.655000
N21	N2	0.276860	0.197660	0.607000
C11	C1	0.218910	0.373870	0.750800
H11	H1	0.202600	0.388700	0.753300
C21	C2	0.255700	0.389400	0.844600
H21	H2	0.264300	0.414200	0.908900
C31	C3	0.280200	0.367500	0.843000
H31	H3	0.305700	0.377600	0.905400
C41	C4	0.266230	0.330150	0.746500
C51	C5	0.228350	0.316970	0.654100
H41	H4	0.218800	0.292200	0.588700
C61	C6	0.293220	0.307460	0.738100
C71	C7	0.270850	0.258620	0.710900
C81	C8	0.229000	0.229100	0.771900
H51	H5	0.212700	0.239400	0.827200
C91	C9	0.212300	0.183900	0.748400
H61	H6	0.184500	0.163300	0.789700
C101	C10	0.236400	0.169800	0.665100
H71	H7	0.224100	0.139200	0.647700
C111	C11	0.293370	0.241150	0.631600
H81	H8	0.321800	0.260900	0.592900
Ag21	Ag2	0.812370	0.651800	0.838550
O21	O2	0.000520	0.662230	0.090630
N31	N3	0.871570	0.671750	0.988330
N41	N4	0.943530	0.530990	0.940330
C121	C12	0.885580	0.707200	0.084130
H91	H9	0.869270	0.722030	0.086630
C131	C13	0.922370	0.722730	0.177930
H101	H10	0.930970	0.747530	0.242230
C141	C14	0.946870	0.700830	0.176330
H111	H11	0.972370	0.710930	0.238730
C151	C15	0.932900	0.663480	0.079830
C161	C16	0.895020	0.650300	0.987430
H121	H12	0.885470	0.625530	0.922030
C171	C17	0.959890	0.640790	0.071430
C181	C18	0.937520	0.591950	0.044230
C191	C19	0.895670	0.562430	0.105230
H131	H13	0.879370	0.572730	0.160530
C201	C20	0.878970	0.517230	0.081730
H141	H14	0.851170	0.496630	0.123030
C211	C21	0.903070	0.503130	0.998430
H151	H15	0.890770	0.472530	0.981030
C221	C22	0.960040	0.574480	0.964930
H161	H16	0.988470	0.594230	0.926230
Ag31	Ag3	0.479040	0.985130	0.171890
O31	O3	0.667180	0.995570	0.423970
N51	N5	0.538230	0.005090	0.321670
N61	N6	0.610190	0.864330	0.273670
C231	C23	0.552240	0.040540	0.417470
H171	H17	0.535930	0.055370	0.419970
C241	C24	0.589030	0.056070	0.511270
H181	H18	0.597630	0.080870	0.575570
C251	C25	0.613530	0.034170	0.509670
H191	H19	0.639030	0.044270	0.572070
C261	C26	0.599560	0.996820	0.413170
C271	C27	0.561680	0.983640	0.320770
H201	H20	0.552130	0.958870	0.255370
C281	C28	0.626550	0.974130	0.404770
C291	C29	0.604180	0.925290	0.377570
C301	C30	0.562330	0.895770	0.438570
H211	H21	0.546030	0.906070	0.493870
C311	C31	0.545630	0.850570	0.415070
H221	H22	0.517830	0.829970	0.456370
C321	C32	0.569730	0.836470	0.331770
H231	H23	0.557430	0.805870	0.314370
C331	C33	0.626700	0.907820	0.298270
H241	H24	0.655130	0.927570	0.259570
Ag41	Ag4	0.681530	0.827230	0.505220
O41	O4	0.671100	0.004950	0.757300
N71	N7	0.661580	0.866480	0.655000
N81	N8	0.802340	0.079200	0.607000
C341	C34	0.626130	0.845040	0.750800
H251	H25	0.611300	0.813900	0.753300
C351	C35	0.610600	0.866300	0.844600
H261	H26	0.585800	0.850100	0.908900
C361	C36	0.632500	0.912700	0.843000
H271	H27	0.622400	0.928100	0.905400
C371	C37	0.669850	0.936080	0.746500
C381	C38	0.683030	0.911380	0.654100
H281	H28	0.707800	0.926600	0.588700
C391	C39	0.692540	0.985760	0.738100
C401	C40	0.741380	0.012230	0.710900
C411	C41	0.770900	0.999900	0.771900
H291	H29	0.760600	0.973300	0.827200
C421	C42	0.816100	0.028400	0.748400
H301	H30	0.836700	0.021200	0.789700
C431	C43	0.830200	0.066600	0.665100
H311	H31	0.860800	0.084900	0.647700
C441	C44	0.758850	0.052220	0.631600
H321	H32	0.739100	0.060900	0.592900
Ag51	Ag5	0.348200	0.160570	0.838550
O51	O5	0.337770	0.338280	0.090630
N91	N9	0.328250	0.199810	0.988330
N101	N10	0.469010	0.412530	0.940330
C451	C45	0.292800	0.178370	0.084130
H331	H33	0.277970	0.147230	0.086630
C461	C46	0.277270	0.199630	0.177930
H341	H34	0.252470	0.183430	0.242230
C471	C47	0.299170	0.246030	0.176330
H351	H35	0.289070	0.261430	0.238730
C481	C48	0.336520	0.269410	0.079830
C491	C49	0.349700	0.244710	0.987430
H361	H36	0.374470	0.259930	0.922030
C501	C50	0.359210	0.319090	0.071430
C511	C51	0.408050	0.345560	0.044230
C521	C52	0.437570	0.333230	0.105230
H371	H37	0.427270	0.306630	0.160530
C531	C53	0.482770	0.361730	0.081730
H381	H38	0.503370	0.354530	0.123030
C541	C54	0.496870	0.399930	0.998430
H391	H39	0.527470	0.418230	0.981030
C551	C55	0.425520	0.385550	0.964930
H401	H40	0.405770	0.394230	0.926230
Ag61	Ag6	0.014870	0.493900	0.171890
O61	O6	0.004430	0.671620	0.423970
N111	N11	0.994910	0.533150	0.321670
N121	N12	0.135670	0.745870	0.273670
C561	C56	0.959460	0.511710	0.417470
H411	H41	0.944630	0.480570	0.419970
C571	C57	0.943930	0.532970	0.511270
H421	H42	0.919130	0.516770	0.575570
C581	C58	0.965830	0.579370	0.509670
H431	H43	0.955730	0.594770	0.572070
C591	C59	0.003180	0.602750	0.413170
C601	C60	0.016360	0.578050	0.320770
H441	H44	0.041130	0.593270	0.255370
C611	C61	0.025870	0.652430	0.404770
C621	C62	0.074710	0.678900	0.377570
C631	C63	0.104230	0.666570	0.438570
H451	H45	0.093930	0.639970	0.493870
C641	C64	0.149430	0.695070	0.415070
H461	H46	0.170030	0.687870	0.456370
C651	C65	0.163530	0.733270	0.331770
H471	H47	0.194130	0.751570	0.314370
C661	C66	0.092180	0.718890	0.298270
H481	H48	0.072430	0.727570	0.259570
Ag71	Ag7	0.172770	0.854300	0.505220
O71	O7	0.995050	0.666150	0.757300
N131	N13	0.133520	0.795100	0.655000
N141	N14	0.920800	0.723140	0.607000
C671	C67	0.154960	0.781090	0.750800
H491	H49	0.186100	0.797400	0.753300
C681	C68	0.133700	0.744300	0.844600
H501	H50	0.149900	0.735700	0.908900
C691	C69	0.087300	0.719800	0.843000
H511	H51	0.071900	0.694300	0.905400
C701	C70	0.063920	0.733770	0.746500
C711	C71	0.088620	0.771650	0.654100
H521	H52	0.073400	0.781200	0.588700
C721	C72	0.014240	0.706780	0.738100
C731	C73	0.987770	0.729150	0.710900
C741	C74	0.000100	0.771000	0.771900
H531	H53	0.026700	0.787300	0.827200
C751	C75	0.971600	0.787700	0.748400
H541	H54	0.978800	0.815500	0.789700
C761	C76	0.933400	0.763600	0.665100
H551	H55	0.915100	0.775900	0.647700
C771	C77	0.947780	0.706630	0.631600
H561	H56	0.939100	0.678200	0.592900
Ag81	Ag8	0.839430	0.187630	0.838550
O81	O8	0.661720	0.999480	0.090630
N151	N15	0.800190	0.128430	0.988330
N161	N16	0.587470	0.056470	0.940330
C781	C78	0.821630	0.114420	0.084130
H571	H57	0.852770	0.130730	0.086630
C791	C79	0.800370	0.077630	0.177930
H581	H58	0.816570	0.069030	0.242230
C801	C80	0.753970	0.053130	0.176330
H591	H59	0.738570	0.027630	0.238730
C811	C81	0.730590	0.067100	0.079830
C821	C82	0.755290	0.104980	0.987430
H601	H60	0.740070	0.114530	0.922030
C831	C83	0.680910	0.040110	0.071430
C841	C84	0.654440	0.062480	0.044230
C851	C85	0.666770	0.104330	0.105230
H611	H61	0.693370	0.120630	0.160530
C861	C86	0.638270	0.121030	0.081730
H621	H62	0.645470	0.148830	0.123030
C871	C87	0.600070	0.096930	0.998430
H631	H63	0.581770	0.109230	0.981030
C881	C88	0.614450	0.039960	0.964930
H641	H64	0.605770	0.011530	0.926230
Ag91	Ag9	0.506100	0.520960	0.171890
O91	O9	0.328380	0.332820	0.423970
N171	N17	0.466850	0.461770	0.321670
N181	N18	0.254130	0.389810	0.273670
C891	C89	0.488290	0.447760	0.417470
H651	H65	0.519430	0.464070	0.419970
C901	C90	0.467030	0.410970	0.511270
H661	H66	0.483230	0.402370	0.575570
C911	C91	0.420630	0.386470	0.509670
H671	H67	0.405230	0.360970	0.572070
C921	C92	0.397250	0.400440	0.413170
C931	C93	0.421950	0.438320	0.320770
H681	H68	0.406730	0.447870	0.255370
C941	C94	0.347570	0.373450	0.404770
C951	C95	0.321100	0.395820	0.377570
C961	C96	0.333430	0.437670	0.438570
H691	H69	0.360030	0.453970	0.493870
C971	C97	0.304930	0.454370	0.415070
H701	H70	0.312130	0.482170	0.456370
C981	C98	0.266730	0.430270	0.331770
H711	H71	0.248430	0.442570	0.314370
C991	C99	0.281110	0.373300	0.298270
H721	H72	0.272430	0.344870	0.259570
Ag101	Ag10	0.854300	0.681530	0.494780
O101	O10	0.666150	0.671100	0.242700
N191	N19	0.795100	0.661580	0.345000
N201	N20	0.723140	0.802340	0.393000
C1001	C100	0.781090	0.626130	0.249200
H731	H73	0.797400	0.611300	0.246700
C1011	C101	0.744300	0.610600	0.155400
H741	H74	0.735700	0.585800	0.091100
C1021	C102	0.719800	0.632500	0.157000
H751	H75	0.694300	0.622400	0.094600
C1031	C103	0.733770	0.669850	0.253500
C1041	C104	0.771650	0.683030	0.345900
H761	H76	0.781200	0.707800	0.411300
C1051	C105	0.706780	0.692540	0.261900
C1061	C106	0.729150	0.741380	0.289100
C1071	C107	0.771000	0.770900	0.228100
H771	H77	0.787300	0.760600	0.172800
C1081	C108	0.787700	0.816100	0.251600
H781	H78	0.815500	0.836700	0.210300
C1091	C109	0.763600	0.830200	0.334900
H791	H79	0.775900	0.860800	0.352300
C1101	C110	0.706630	0.758850	0.368400
H801	H80	0.678200	0.739100	0.407100
Ag111	Ag11	0.520960	0.014870	0.828110
O111	O11	0.332820	0.004430	0.576030
N211	N21	0.461770	0.994910	0.678330
N221	N22	0.389810	0.135670	0.726330
C1111	C111	0.447760	0.959460	0.582530
H811	H81	0.464070	0.944630	0.580030
C1121	C112	0.410970	0.943930	0.488730
H821	H82	0.402370	0.919130	0.424430
C1131	C113	0.386470	0.965830	0.490330
H831	H83	0.360970	0.955730	0.427930
C1141	C114	0.400440	0.003180	0.586830
C1151	C115	0.438320	0.016360	0.679230
H841	H84	0.447870	0.041130	0.744630
C1161	C116	0.373450	0.025870	0.595230
C1171	C117	0.395820	0.074710	0.622430
C1181	C118	0.437670	0.104230	0.561430
H851	H85	0.453970	0.093930	0.506130
C1191	C119	0.454370	0.149430	0.584930
H861	H86	0.482170	0.170030	0.543630
C1201	C120	0.430270	0.163530	0.668230
H871	H87	0.442570	0.194130	0.685630
C1211	C121	0.373300	0.092180	0.701730
H881	H88	0.344870	0.072430	0.740430
Ag121	Ag12	0.187630	0.348200	0.161450
O121	O12	0.999480	0.337770	0.909370
N231	N23	0.128430	0.328250	0.011670
N241	N24	0.056470	0.469010	0.059670
C1221	C122	0.114420	0.292800	0.915870
H891	H89	0.130730	0.277970	0.913370
C1231	C123	0.077630	0.277270	0.822070
H901	H90	0.069030	0.252470	0.757770
C1241	C124	0.053130	0.299170	0.823670
H911	H91	0.027630	0.289070	0.761270
C1251	C125	0.067100	0.336520	0.920170
C1261	C126	0.104980	0.349700	0.012570
H921	H92	0.114530	0.374470	0.077970
C1271	C127	0.040110	0.359210	0.928570
C1281	C128	0.062480	0.408050	0.955770
C1291	C129	0.104330	0.437570	0.894770
H931	H93	0.120630	0.427270	0.839470
C1301	C130	0.121030	0.482770	0.918270
H941	H94	0.148830	0.503370	0.876970
C1311	C131	0.096930	0.496870	0.001570
H951	H95	0.109230	0.527470	0.018970
C1321	C132	0.039960	0.425520	0.035070
H961	H96	0.011530	0.405770	0.073770
Ag131	Ag13	0.318470	0.172770	0.494780
O131	O13	0.328900	0.995050	0.242700
N251	N25	0.338420	0.133520	0.345000
N261	N26	0.197660	0.920800	0.393000
C1331	C133	0.373870	0.154960	0.249200
H971	H97	0.388700	0.186100	0.246700
C1341	C134	0.389400	0.133700	0.155400
H981	H98	0.414200	0.149900	0.091100
C1351	C135	0.367500	0.087300	0.157000
H991	H99	0.377600	0.071900	0.094600
C1361	C136	0.330150	0.063920	0.253500
C1371	C137	0.316970	0.088620	0.345900
H1001	H100	0.292200	0.073400	0.411300
C1381	C138	0.307460	0.014240	0.261900
C1391	C139	0.258620	0.987770	0.289100
C1401	C140	0.229100	0.000100	0.228100
H1011	H101	0.239400	0.026700	0.172800
C1411	C141	0.183900	0.971600	0.251600
H1021	H102	0.163300	0.978800	0.210300
C1421	C142	0.169800	0.933400	0.334900
H1031	H103	0.139200	0.915100	0.352300
C1431	C143	0.241150	0.947780	0.368400
H1041	H104	0.260900	0.939100	0.407100
Ag141	Ag14	0.985130	0.506100	0.828110
O141	O14	0.995570	0.328380	0.576030
N271	N27	0.005090	0.466850	0.678330
N281	N28	0.864330	0.254130	0.726330
C1441	C144	0.040540	0.488290	0.582530
H1051	H105	0.055370	0.519430	0.580030
C1451	C145	0.056070	0.467030	0.488730
H1061	H106	0.080870	0.483230	0.424430
C1461	C146	0.034170	0.420630	0.490330
H1071	H107	0.044270	0.405230	0.427930
C1471	C147	0.996820	0.397250	0.586830
C1481	C148	0.983640	0.421950	0.679230
H1081	H108	0.958870	0.406730	0.744630
C1491	C149	0.974130	0.347570	0.595230
C1501	C150	0.925290	0.321100	0.622430
C1511	C151	0.895770	0.333430	0.561430
H1091	H109	0.906070	0.360030	0.506130
C1521	C152	0.850570	0.304930	0.584930
H1101	H110	0.829970	0.312130	0.543630
C1531	C153	0.836470	0.266730	0.668230
H1111	H111	0.805870	0.248430	0.685630
C1541	C154	0.907820	0.281110	0.701730
H1121	H112	0.927570	0.272430	0.740430
Ag151	Ag15	0.651800	0.839430	0.161450
O151	O15	0.662230	0.661720	0.909370
N291	N29	0.671750	0.800190	0.011670
N301	N30	0.530990	0.587470	0.059670
C1551	C155	0.707200	0.821630	0.915870
H1131	H113	0.722030	0.852770	0.913370
C1561	C156	0.722730	0.800370	0.822070
H1141	H114	0.747530	0.816570	0.757770
C1571	C157	0.700830	0.753970	0.823670
H1151	H115	0.710930	0.738570	0.761270
C1581	C158	0.663480	0.730590	0.920170
C1591	C159	0.650300	0.755290	0.012570
H1161	H116	0.625530	0.740070	0.077970
C1601	C160	0.640790	0.680910	0.928570
C1611	C161	0.591950	0.654440	0.955770
C1621	C162	0.562430	0.666770	0.894770
H1171	H117	0.572730	0.693370	0.839470
C1631	C163	0.517230	0.638270	0.918270
H1181	H118	0.496630	0.645470	0.876970
C1641	C164	0.503130	0.600070	0.001570
H1191	H119	0.472530	0.581770	0.018970
C1651	C165	0.574480	0.614450	0.035070
H1201	H120	0.594230	0.605770	0.073770
Ag161	Ag16	0.827230	0.145700	0.494780
O161	O16	0.004950	0.333850	0.242700
N311	N31	0.866480	0.204900	0.345000
N321	N32	0.079200	0.276860	0.393000
C1661	C166	0.845040	0.218910	0.249200
H1211	H121	0.813900	0.202600	0.246700
C1671	C167	0.866300	0.255700	0.155400
H1221	H122	0.850100	0.264300	0.091100
C1681	C168	0.912700	0.280200	0.157000
H1231	H123	0.928100	0.305700	0.094600
C1691	C169	0.936080	0.266230	0.253500
C1701	C170	0.911380	0.228350	0.345900
H1241	H124	0.926600	0.218800	0.411300
C1711	C171	0.985760	0.293220	0.261900
C1721	C172	0.012230	0.270850	0.289100
C1731	C173	0.999900	0.229000	0.228100
H1251	H125	0.973300	0.212700	0.172800
C1741	C174	0.028400	0.212300	0.251600
H1261	H126	0.021200	0.184500	0.210300
C1751	C175	0.066600	0.236400	0.334900
H1271	H127	0.084900	0.224100	0.352300
C1761	C176	0.052220	0.293370	0.368400
H1281	H128	0.060900	0.321800	0.407100
Ag171	Ag17	0.493900	0.479040	0.828110
O171	O17	0.671620	0.667180	0.576030
N331	N33	0.533150	0.538230	0.678330
N341	N34	0.745870	0.610190	0.726330
C1771	C177	0.511710	0.552240	0.582530
H1291	H129	0.480570	0.535930	0.580030
C1781	C178	0.532970	0.589030	0.488730
H1301	H130	0.516770	0.597630	0.424430
C1791	C179	0.579370	0.613530	0.490330
H1311	H131	0.594770	0.639030	0.427930
C1801	C180	0.602750	0.599560	0.586830
C1811	C181	0.578050	0.561680	0.679230
H1321	H132	0.593270	0.552130	0.744630
C1821	C182	0.652430	0.626550	0.595230
C1831	C183	0.678900	0.604180	0.622430
C1841	C184	0.666570	0.562330	0.561430
H1331	H133	0.639970	0.546030	0.506130
C1851	C185	0.695070	0.545630	0.584930
H1341	H134	0.687870	0.517830	0.543630
C1861	C186	0.733270	0.569730	0.668230
H1351	H135	0.751570	0.557430	0.685630
C1871	C187	0.718890	0.626700	0.701730
H1361	H136	0.727570	0.655130	0.740430
Ag181	Ag18	0.160570	0.812370	0.161450
O181	O18	0.338280	0.000520	0.909370
N351	N35	0.199810	0.871570	0.011670
N361	N36	0.412530	0.943530	0.059670
C1881	C188	0.178370	0.885580	0.915870
H1371	H137	0.147230	0.869270	0.913370
C1891	C189	0.199630	0.922370	0.822070
H1381	H138	0.183430	0.930970	0.757770
C1901	C190	0.246030	0.946870	0.823670
H1391	H139	0.261430	0.972370	0.761270
C1911	C191	0.269410	0.932900	0.920170
C1921	C192	0.244710	0.895020	0.012570
H1401	H140	0.259930	0.885470	0.077970
C1931	C193	0.319090	0.959890	0.928570
C1941	C194	0.345560	0.937520	0.955770
C1951	C195	0.333230	0.895670	0.894770
H1411	H141	0.306630	0.879370	0.839470
C1961	C196	0.361730	0.878970	0.918270
H1421	H142	0.354530	0.851170	0.876970
C1971	C197	0.399930	0.903070	0.001570
H1431	H143	0.418230	0.890770	0.018970
C1981	C198	0.385550	0.960040	0.035070
H1441	H144	0.394230	0.988470	0.073770
