data_FUSNIR_clean_PM
_symmetry_space_group_name_H-M	'P1'
_cell_length_a	34.561900
_cell_length_b	34.561900
_cell_length_c	8.334300
_cell_angle_alpha	90.000000
_cell_angle_beta	90.000000
_cell_angle_gamma	120.000000
_symmetry_Int_Tables_number 1

loop_
_symmetry_equiv_pos_as_xyz
'x,y,z'

loop_
_atom_site_label
_atom_site_type_symbol
_atom_site_fract_x
_atom_site_fract_y
_atom_site_fract_z
Ag11	Ag1	0.807380	0.150600	0.836470
O11	O1	0.002000	0.323940	0.019600
N11	N1	0.867560	0.190000	0.981400
N21	N2	0.951210	0.408320	0.939600
C11	C1	0.892700	0.235000	0.969400
H11	H1	0.883000	0.250500	0.901200
C21	C2	0.932200	0.258900	0.054100
C31	C3	0.946000	0.236700	0.157700
H21	H2	0.973300	0.252500	0.215100
C41	C4	0.918900	0.190900	0.175100
H31	H3	0.926700	0.174800	0.248000
C51	C5	0.880400	0.169100	0.084400
H41	H4	0.862100	0.137600	0.096000
C61	C6	0.962000	0.308500	0.030700
C71	C7	0.965000	0.378400	0.944300
H51	H5	0.992100	0.385400	0.891200
C81	C8	0.941800	0.337600	0.023000
C91	C9	0.902100	0.327200	0.100900
H61	H6	0.885400	0.299700	0.156300
C101	C10	0.887600	0.357300	0.096400
H71	H7	0.860700	0.351000	0.149300
C111	C11	0.912100	0.397100	0.014800
H81	H8	0.901100	0.417400	0.011000
Ag21	Ag2	0.849400	0.656780	0.836470
O21	O2	0.676060	0.678060	0.019600
N31	N3	0.810000	0.677560	0.981400
N41	N4	0.591680	0.542890	0.939600
C121	C12	0.765000	0.657700	0.969400
H91	H9	0.749500	0.632500	0.901200
C131	C13	0.741100	0.673300	0.054100
C141	C14	0.763300	0.709300	0.157700
H101	H10	0.747500	0.720800	0.215100
C151	C15	0.809100	0.728000	0.175100
H111	H11	0.825200	0.751900	0.248000
C161	C16	0.830900	0.711300	0.084400
H121	H12	0.862400	0.724500	0.096000
C171	C17	0.691500	0.653500	0.030700
C181	C18	0.621600	0.586600	0.944300
H131	H13	0.614600	0.606700	0.891200
C191	C19	0.662400	0.604200	0.023000
C201	C20	0.672800	0.574900	0.100900
H141	H14	0.700300	0.585700	0.156300
C211	C21	0.642700	0.530300	0.096400
H151	H15	0.649000	0.509700	0.149300
C221	C22	0.602900	0.515000	0.014800
H161	H16	0.582600	0.483700	0.011000
Ag31	Ag3	0.343220	0.192620	0.836470
O31	O3	0.321940	0.998000	0.019600
N51	N5	0.322440	0.132440	0.981400
N61	N6	0.457110	0.048790	0.939600
C231	C23	0.342300	0.107300	0.969400
H171	H17	0.367500	0.117000	0.901200
C241	C24	0.326700	0.067800	0.054100
C251	C25	0.290700	0.054000	0.157700
H181	H18	0.279200	0.026700	0.215100
C261	C26	0.272000	0.081100	0.175100
H191	H19	0.248100	0.073300	0.248000
C271	C27	0.288700	0.119600	0.084400
H201	H20	0.275500	0.137900	0.096000
C281	C28	0.346500	0.038000	0.030700
C291	C29	0.413400	0.035000	0.944300
H211	H21	0.393300	0.007900	0.891200
C301	C30	0.395800	0.058200	0.023000
C311	C31	0.425100	0.097900	0.100900
H221	H22	0.414300	0.114600	0.156300
C321	C32	0.469700	0.112400	0.096400
H231	H23	0.490300	0.139300	0.149300
C331	C33	0.485000	0.087900	0.014800
H241	H24	0.516300	0.098900	0.011000
Ag41	Ag4	0.525960	0.516060	0.830200
O41	O4	0.331330	0.342730	0.647070
N71	N7	0.465770	0.476670	0.685270
N81	N8	0.382120	0.258350	0.727070
C341	C34	0.440630	0.431670	0.697270
H251	H25	0.450330	0.416170	0.765470
C351	C35	0.401130	0.407770	0.612570
C361	C36	0.387330	0.429970	0.508970
H261	H26	0.360030	0.414170	0.451570
C371	C37	0.414430	0.475770	0.491570
H271	H27	0.406630	0.491870	0.418670
C381	C38	0.452930	0.497570	0.582270
H281	H28	0.471230	0.529070	0.570670
C391	C39	0.371330	0.358170	0.635970
C401	C40	0.368330	0.288270	0.722370
H291	H29	0.341230	0.281270	0.775470
C411	C41	0.391530	0.329070	0.643670
C421	C42	0.431230	0.339470	0.565770
H301	H30	0.447930	0.366970	0.510370
C431	C43	0.445730	0.309370	0.570270
H311	H31	0.472630	0.315670	0.517370
C441	C44	0.421230	0.269570	0.651870
H321	H32	0.432230	0.249270	0.655670
Ag51	Ag5	0.483940	0.009890	0.830200
O51	O5	0.657270	0.988610	0.647070
N91	N9	0.523330	0.989110	0.685270
N101	N10	0.741650	0.123780	0.727070
C451	C45	0.568330	0.008970	0.697270
H331	H33	0.583830	0.034170	0.765470
C461	C46	0.592230	0.993370	0.612570
C471	C47	0.570030	0.957370	0.508970
H341	H34	0.585830	0.945870	0.451570
C481	C48	0.524230	0.938670	0.491570
H351	H35	0.508130	0.914770	0.418670
C491	C49	0.502430	0.955370	0.582270
H361	H36	0.470930	0.942170	0.570670
C501	C50	0.641830	0.013170	0.635970
C511	C51	0.711730	0.080070	0.722370
H371	H37	0.718730	0.059970	0.775470
C521	C52	0.670930	0.062470	0.643670
C531	C53	0.660530	0.091770	0.565770
H381	H38	0.633030	0.080970	0.510370
C541	C54	0.690630	0.136370	0.570270
H391	H39	0.684330	0.156970	0.517370
C551	C55	0.730430	0.151670	0.651870
H401	H40	0.750730	0.182970	0.655670
Ag61	Ag6	0.990110	0.474040	0.830200
O61	O6	0.011390	0.668670	0.647070
N111	N11	0.010890	0.534230	0.685270
N121	N12	0.876220	0.617880	0.727070
C561	C56	0.991030	0.559370	0.697270
H411	H41	0.965830	0.549670	0.765470
C571	C57	0.006630	0.598870	0.612570
C581	C58	0.042630	0.612670	0.508970
H421	H42	0.054130	0.639970	0.451570
C591	C59	0.061330	0.585570	0.491570
H431	H43	0.085230	0.593370	0.418670
C601	C60	0.044630	0.547070	0.582270
H441	H44	0.057830	0.528770	0.570670
C611	C61	0.986830	0.628670	0.635970
C621	C62	0.919930	0.631670	0.722370
H451	H45	0.940030	0.658770	0.775470
C631	C63	0.937530	0.608470	0.643670
C641	C64	0.908230	0.568770	0.565770
H461	H46	0.919030	0.552070	0.510370
C651	C65	0.863630	0.554270	0.570270
H471	H47	0.843030	0.527370	0.517370
C661	C66	0.848330	0.578770	0.651870
H481	H48	0.817030	0.567770	0.655670
Ag71	Ag7	0.474040	0.483940	0.169800
O71	O7	0.668670	0.657270	0.352930
N131	N13	0.534230	0.523330	0.314730
N141	N14	0.617880	0.741650	0.272930
C671	C67	0.559370	0.568330	0.302730
H491	H49	0.549670	0.583830	0.234530
C681	C68	0.598870	0.592230	0.387430
C691	C69	0.612670	0.570030	0.491030
H501	H50	0.639970	0.585830	0.548430
C701	C70	0.585570	0.524230	0.508430
H511	H51	0.593370	0.508130	0.581330
C711	C71	0.547070	0.502430	0.417730
H521	H52	0.528770	0.470930	0.429330
C721	C72	0.628670	0.641830	0.364030
C731	C73	0.631670	0.711730	0.277630
H531	H53	0.658770	0.718730	0.224530
C741	C74	0.608470	0.670930	0.356330
C751	C75	0.568770	0.660530	0.434230
H541	H54	0.552070	0.633030	0.489630
C761	C76	0.554270	0.690630	0.429730
H551	H55	0.527370	0.684330	0.482630
C771	C77	0.578770	0.730430	0.348130
H561	H56	0.567770	0.750730	0.344330
Ag81	Ag8	0.516060	0.990110	0.169800
O81	O8	0.342730	0.011390	0.352930
N151	N15	0.476670	0.010890	0.314730
N161	N16	0.258350	0.876220	0.272930
C781	C78	0.431670	0.991030	0.302730
H571	H57	0.416170	0.965830	0.234530
C791	C79	0.407770	0.006630	0.387430
C801	C80	0.429970	0.042630	0.491030
H581	H58	0.414170	0.054130	0.548430
C811	C81	0.475770	0.061330	0.508430
H591	H59	0.491870	0.085230	0.581330
C821	C82	0.497570	0.044630	0.417730
H601	H60	0.529070	0.057830	0.429330
C831	C83	0.358170	0.986830	0.364030
C841	C84	0.288270	0.919930	0.277630
H611	H61	0.281270	0.940030	0.224530
C851	C85	0.329070	0.937530	0.356330
C861	C86	0.339470	0.908230	0.434230
H621	H62	0.366970	0.919030	0.489630
C871	C87	0.309370	0.863630	0.429730
H631	H63	0.315670	0.843030	0.482630
C881	C88	0.269570	0.848330	0.348130
H641	H64	0.249270	0.817030	0.344330
Ag91	Ag9	0.009890	0.525960	0.169800
O91	O9	0.988610	0.331330	0.352930
N171	N17	0.989110	0.465770	0.314730
N181	N18	0.123780	0.382120	0.272930
C891	C89	0.008970	0.440630	0.302730
H651	H65	0.034170	0.450330	0.234530
C901	C90	0.993370	0.401130	0.387430
C911	C91	0.957370	0.387330	0.491030
H661	H66	0.945870	0.360030	0.548430
C921	C92	0.938670	0.414430	0.508430
H671	H67	0.914770	0.406630	0.581330
C931	C93	0.955370	0.452930	0.417730
H681	H68	0.942170	0.471230	0.429330
C941	C94	0.013170	0.371330	0.364030
C951	C95	0.080070	0.368330	0.277630
H691	H69	0.059970	0.341230	0.224530
C961	C96	0.062470	0.391530	0.356330
C971	C97	0.091770	0.431230	0.434230
H701	H70	0.080970	0.447930	0.489630
C981	C98	0.136370	0.445730	0.429730
H711	H71	0.156970	0.472630	0.482630
C991	C99	0.151670	0.421230	0.348130
H721	H72	0.182970	0.432230	0.344330
Ag101	Ag10	0.192620	0.849400	0.163530
O101	O10	0.998000	0.676060	0.980400
N191	N19	0.132440	0.810000	0.018600
N201	N20	0.048790	0.591680	0.060400
C1001	C100	0.107300	0.765000	0.030600
H731	H73	0.117000	0.749500	0.098800
C1011	C101	0.067800	0.741100	0.945900
C1021	C102	0.054000	0.763300	0.842300
H741	H74	0.026700	0.747500	0.784900
C1031	C103	0.081100	0.809100	0.824900
H751	H75	0.073300	0.825200	0.752000
C1041	C104	0.119600	0.830900	0.915600
H761	H76	0.137900	0.862400	0.904000
C1051	C105	0.038000	0.691500	0.969300
C1061	C106	0.035000	0.621600	0.055700
H771	H77	0.007900	0.614600	0.108800
C1071	C107	0.058200	0.662400	0.977000
C1081	C108	0.097900	0.672800	0.899100
H781	H78	0.114600	0.700300	0.843700
C1091	C109	0.112400	0.642700	0.903600
H791	H79	0.139300	0.649000	0.850700
C1101	C110	0.087900	0.602900	0.985200
H801	H80	0.098900	0.582600	0.989000
Ag111	Ag11	0.150600	0.343220	0.163530
O111	O11	0.323940	0.321940	0.980400
N211	N21	0.190000	0.322440	0.018600
N221	N22	0.408320	0.457110	0.060400
C1111	C111	0.235000	0.342300	0.030600
H811	H81	0.250500	0.367500	0.098800
C1121	C112	0.258900	0.326700	0.945900
C1131	C113	0.236700	0.290700	0.842300
H821	H82	0.252500	0.279200	0.784900
C1141	C114	0.190900	0.272000	0.824900
H831	H83	0.174800	0.248100	0.752000
C1151	C115	0.169100	0.288700	0.915600
H841	H84	0.137600	0.275500	0.904000
C1161	C116	0.308500	0.346500	0.969300
C1171	C117	0.378400	0.413400	0.055700
H851	H85	0.385400	0.393300	0.108800
C1181	C118	0.337600	0.395800	0.977000
C1191	C119	0.327200	0.425100	0.899100
H861	H86	0.299700	0.414300	0.843700
C1201	C120	0.357300	0.469700	0.903600
H871	H87	0.351000	0.490300	0.850700
C1211	C121	0.397100	0.485000	0.985200
H881	H88	0.417400	0.516300	0.989000
Ag121	Ag12	0.656780	0.807380	0.163530
O121	O12	0.678060	0.002000	0.980400
N231	N23	0.677560	0.867560	0.018600
N241	N24	0.542890	0.951210	0.060400
C1221	C122	0.657700	0.892700	0.030600
H891	H89	0.632500	0.883000	0.098800
C1231	C123	0.673300	0.932200	0.945900
C1241	C124	0.709300	0.946000	0.842300
H901	H90	0.720800	0.973300	0.784900
C1251	C125	0.728000	0.918900	0.824900
H911	H91	0.751900	0.926700	0.752000
C1261	C126	0.711300	0.880400	0.915600
H921	H92	0.724500	0.862100	0.904000
C1271	C127	0.653500	0.962000	0.969300
C1281	C128	0.586600	0.965000	0.055700
H931	H93	0.606700	0.992100	0.108800
C1291	C129	0.604200	0.941800	0.977000
C1301	C130	0.574900	0.902100	0.899100
H941	H94	0.585700	0.885400	0.843700
C1311	C131	0.530300	0.887600	0.903600
H951	H95	0.509700	0.860700	0.850700
C1321	C132	0.515000	0.912100	0.985200
H961	H96	0.483700	0.901100	0.989000
Ag131	Ag13	0.140710	0.817270	0.503140
O131	O13	0.335330	0.990610	0.686270
N251	N25	0.200890	0.856670	0.648070
N261	N26	0.284540	0.074990	0.606270
C1331	C133	0.226030	0.901670	0.636070
H971	H97	0.216330	0.917170	0.567870
C1341	C134	0.265530	0.925570	0.720770
C1351	C135	0.279330	0.903370	0.824370
H981	H98	0.306630	0.919170	0.881770
C1361	C136	0.252230	0.857570	0.841770
H991	H99	0.260030	0.841470	0.914670
C1371	C137	0.213730	0.835770	0.751070
H1001	H100	0.195430	0.804270	0.762670
C1381	C138	0.295330	0.975170	0.697370
C1391	C139	0.298330	0.045070	0.610970
H1011	H101	0.325430	0.052070	0.557870
C1401	C140	0.275130	0.004270	0.689670
C1411	C141	0.235430	0.993870	0.767570
H1021	H102	0.218730	0.966370	0.822970
C1421	C142	0.220930	0.023970	0.763070
H1031	H103	0.194030	0.017670	0.815970
C1431	C143	0.245430	0.063770	0.681470
H1041	H104	0.234430	0.084070	0.677670
Ag141	Ag14	0.182730	0.323440	0.503140
O141	O14	0.009390	0.344730	0.686270
N271	N27	0.143330	0.344230	0.648070
N281	N28	0.925010	0.209560	0.606270
C1441	C144	0.098330	0.324370	0.636070
H1051	H105	0.082830	0.299170	0.567870
C1451	C145	0.074430	0.339970	0.720770
C1461	C146	0.096630	0.375970	0.824370
H1061	H106	0.080830	0.387470	0.881770
C1471	C147	0.142430	0.394670	0.841770
H1071	H107	0.158530	0.418570	0.914670
C1481	C148	0.164230	0.377970	0.751070
H1081	H108	0.195730	0.391170	0.762670
C1491	C149	0.024830	0.320170	0.697370
C1501	C150	0.954930	0.253270	0.610970
H1091	H109	0.947930	0.273370	0.557870
C1511	C151	0.995730	0.270870	0.689670
C1521	C152	0.006130	0.241570	0.767570
H1101	H110	0.033630	0.252370	0.822970
C1531	C153	0.976030	0.196970	0.763070
H1111	H111	0.982330	0.176370	0.815970
C1541	C154	0.936230	0.181670	0.681470
H1121	H112	0.915930	0.150370	0.677670
Ag151	Ag15	0.676560	0.859290	0.503140
O151	O15	0.655270	0.664670	0.686270
N291	N29	0.655770	0.799110	0.648070
N301	N30	0.790440	0.715460	0.606270
C1551	C155	0.675630	0.773970	0.636070
H1131	H113	0.700830	0.783670	0.567870
C1561	C156	0.660030	0.734470	0.720770
C1571	C157	0.624030	0.720670	0.824370
H1141	H114	0.612530	0.693370	0.881770
C1581	C158	0.605330	0.747770	0.841770
H1151	H115	0.581430	0.739970	0.914670
C1591	C159	0.622030	0.786270	0.751070
H1161	H116	0.608830	0.804570	0.762670
C1601	C160	0.679830	0.704670	0.697370
C1611	C161	0.746730	0.701670	0.610970
H1171	H117	0.726630	0.674570	0.557870
C1621	C162	0.729130	0.724870	0.689670
C1631	C163	0.758430	0.764570	0.767570
H1181	H118	0.747630	0.781270	0.822970
C1641	C164	0.803030	0.779070	0.763070
H1191	H119	0.823630	0.805970	0.815970
C1651	C165	0.818330	0.754570	0.681470
H1201	H120	0.849630	0.765570	0.677670
Ag161	Ag16	0.859290	0.182730	0.496860
O161	O16	0.664670	0.009390	0.313730
N311	N31	0.799110	0.143330	0.351930
N321	N32	0.715460	0.925010	0.393730
C1661	C166	0.773970	0.098330	0.363930
H1211	H121	0.783670	0.082830	0.432130
C1671	C167	0.734470	0.074430	0.279230
C1681	C168	0.720670	0.096630	0.175630
H1221	H122	0.693370	0.080830	0.118230
C1691	C169	0.747770	0.142430	0.158230
H1231	H123	0.739970	0.158530	0.085330
C1701	C170	0.786270	0.164230	0.248930
H1241	H124	0.804570	0.195730	0.237330
C1711	C171	0.704670	0.024830	0.302630
C1721	C172	0.701670	0.954930	0.389030
H1251	H125	0.674570	0.947930	0.442130
C1731	C173	0.724870	0.995730	0.310330
C1741	C174	0.764570	0.006130	0.232430
H1261	H126	0.781270	0.033630	0.177030
C1751	C175	0.779070	0.976030	0.236930
H1271	H127	0.805970	0.982330	0.184030
C1761	C176	0.754570	0.936230	0.318530
H1281	H128	0.765570	0.915930	0.322330
Ag171	Ag17	0.817270	0.676560	0.496860
O171	O17	0.990610	0.655270	0.313730
N331	N33	0.856670	0.655770	0.351930
N341	N34	0.074990	0.790440	0.393730
C1771	C177	0.901670	0.675630	0.363930
H1291	H129	0.917170	0.700830	0.432130
C1781	C178	0.925570	0.660030	0.279230
C1791	C179	0.903370	0.624030	0.175630
H1301	H130	0.919170	0.612530	0.118230
C1801	C180	0.857570	0.605330	0.158230
H1311	H131	0.841470	0.581430	0.085330
C1811	C181	0.835770	0.622030	0.248930
H1321	H132	0.804270	0.608830	0.237330
C1821	C182	0.975170	0.679830	0.302630
C1831	C183	0.045070	0.746730	0.389030
H1331	H133	0.052070	0.726630	0.442130
C1841	C184	0.004270	0.729130	0.310330
C1851	C185	0.993870	0.758430	0.232430
H1341	H134	0.966370	0.747630	0.177030
C1861	C186	0.023970	0.803030	0.236930
H1351	H135	0.017670	0.823630	0.184030
C1871	C187	0.063770	0.818330	0.318530
H1361	H136	0.084070	0.849630	0.322330
Ag181	Ag18	0.323440	0.140710	0.496860
O181	O18	0.344730	0.335330	0.313730
N351	N35	0.344230	0.200890	0.351930
N361	N36	0.209560	0.284540	0.393730
C1881	C188	0.324370	0.226030	0.363930
H1371	H137	0.299170	0.216330	0.432130
C1891	C189	0.339970	0.265530	0.279230
C1901	C190	0.375970	0.279330	0.175630
H1381	H138	0.387470	0.306630	0.118230
C1911	C191	0.394670	0.252230	0.158230
H1391	H139	0.418570	0.260030	0.085330
C1921	C192	0.377970	0.213730	0.248930
H1401	H140	0.391170	0.195430	0.237330
C1931	C193	0.320170	0.295330	0.302630
C1941	C194	0.253270	0.298330	0.389030
H1411	H141	0.273370	0.325430	0.442130
C1951	C195	0.270870	0.275130	0.310330
C1961	C196	0.241570	0.235430	0.232430
H1421	H142	0.252370	0.218730	0.177030
C1971	C197	0.196970	0.220930	0.236930
H1431	H143	0.176370	0.194030	0.184030
C1981	C198	0.181670	0.245430	0.318530
H1441	H144	0.150370	0.234430	0.322330
