data_FUTCAZ_clean_PM
_symmetry_space_group_name_H-M	'P1'
_cell_length_a	12.793000
_cell_length_b	14.740000
_cell_length_c	15.183000
_cell_angle_alpha	90.000000
_cell_angle_beta	90.000000
_cell_angle_gamma	90.000000
_symmetry_Int_Tables_number 1

loop_
_symmetry_equiv_pos_as_xyz
'x,y,z'

loop_
_atom_site_label
_atom_site_type_symbol
_atom_site_fract_x
_atom_site_fract_y
_atom_site_fract_z
Mn11	Mn1	0.257470	0.717860	0.774200
Mn21	Mn2	0.060080	0.586750	0.913270
Mn31	Mn3	0.242530	0.282140	0.274200
Mn41	Mn4	0.439920	0.413250	0.413270
Mn51	Mn5	0.742530	0.217860	0.725800
Mn61	Mn6	0.939920	0.086750	0.586730
Mn71	Mn7	0.757470	0.782140	0.225800
Mn81	Mn8	0.560080	0.913250	0.086730
H11	H1	0.458700	0.704400	0.005500
H21	H2	0.510800	0.561500	0.225100
H31	H3	0.285300	0.483200	0.059600
H41	H4	0.041300	0.295600	0.505500
H51	H5	0.989200	0.438500	0.725100
H61	H6	0.214700	0.516800	0.559600
H71	H7	0.541300	0.204400	0.494500
H81	H8	0.489200	0.061500	0.274900
H91	H9	0.714700	0.983200	0.440400
H101	H10	0.958700	0.795600	0.994500
H111	H11	0.010800	0.938500	0.774900
H121	H12	0.785300	0.016800	0.940400
C11	C1	0.302800	0.607900	0.934000
C21	C2	0.363400	0.595300	0.017400
C31	C3	0.442600	0.655500	0.041800
C41	C4	0.496800	0.643200	0.118900
C51	C5	0.473300	0.570300	0.173400
C61	C6	0.393900	0.510400	0.150600
C71	C7	0.339100	0.522900	0.074100
C81	C8	0.584200	0.706400	0.143500
C91	C9	0.370400	0.431400	0.210800
C101	C10	0.197200	0.392100	0.434000
C111	C11	0.136600	0.404700	0.517400
C121	C12	0.057400	0.344500	0.541800
C131	C13	0.003200	0.356800	0.618900
C141	C14	0.026700	0.429700	0.673400
C151	C15	0.106100	0.489600	0.650600
C161	C16	0.160900	0.477100	0.574100
C171	C17	0.915800	0.293600	0.643500
C181	C18	0.129600	0.568600	0.710800
C191	C19	0.697200	0.107900	0.566000
C201	C20	0.636600	0.095300	0.482600
C211	C21	0.557400	0.155500	0.458200
C221	C22	0.503200	0.143200	0.381100
C231	C23	0.526700	0.070300	0.326600
C241	C24	0.606100	0.010400	0.349400
C251	C25	0.660900	0.022900	0.425900
C261	C26	0.415800	0.206400	0.356500
C271	C27	0.629600	0.931400	0.289200
C281	C28	0.802800	0.892100	0.066000
C291	C29	0.863400	0.904700	0.982600
C301	C30	0.942600	0.844500	0.958200
C311	C31	0.996800	0.856800	0.881100
C321	C32	0.973300	0.929700	0.826600
C331	C33	0.893900	0.989600	0.849400
C341	C34	0.839100	0.977100	0.925900
C351	C35	0.084200	0.793600	0.856500
C361	C36	0.870400	0.068600	0.789200
Cl11	Cl1	0.387350	0.795910	0.695970
Cl21	Cl2	0.112650	0.204090	0.195970
Cl31	Cl3	0.612650	0.295910	0.804030
Cl41	Cl4	0.887350	0.704090	0.304030
O11	O1	0.336300	0.667800	0.881190
O21	O2	0.225100	0.558580	0.921300
O31	O3	0.603800	0.771570	0.093200
O41	O4	0.635400	0.690000	0.211400
O51	O5	0.429500	0.416900	0.272920
O61	O6	0.291900	0.384800	0.192000
O71	O7	0.163700	0.332200	0.381190
O81	O8	0.274900	0.441420	0.421300
O91	O9	0.896200	0.228430	0.593200
O101	O10	0.864600	0.310000	0.711400
O111	O11	0.070500	0.583100	0.772920
O121	O12	0.208100	0.615200	0.692000
O131	O13	0.663700	0.167800	0.618810
O141	O14	0.774900	0.058580	0.578700
O151	O15	0.396200	0.271570	0.406800
O161	O16	0.364600	0.190000	0.288600
O171	O17	0.570500	0.916900	0.227080
O181	O18	0.708100	0.884800	0.308000
O191	O19	0.836300	0.832200	0.118810
O201	O20	0.725100	0.941420	0.078700
O211	O21	0.103800	0.728430	0.906800
O221	O22	0.135400	0.810000	0.788600
O231	O23	0.929500	0.083100	0.727080
O241	O24	0.791900	0.115200	0.808000
