data_FUTKEL_manual_PM
_symmetry_space_group_name_H-M	'P1'
_cell_length_a	15.290400
_cell_length_b	15.290400
_cell_length_c	17.667600
_cell_angle_alpha	115.641000
_cell_angle_beta	115.641000
_cell_angle_gamma	90.000100
_symmetry_Int_Tables_number 1

loop_
_symmetry_equiv_pos_as_xyz
'x,y,z'

loop_
_atom_site_label
_atom_site_type_symbol
_atom_site_fract_x
_atom_site_fract_y
_atom_site_fract_z
Zn11	Zn1	0.055860	0.055870	0.111740
Zn21	Zn2	0.444230	0.444250	0.888460
Zn31	Zn3	0.944230	0.944210	0.888410
Zn41	Zn4	0.555690	0.555690	0.111400
H11	H1	0.018720	0.889290	0.180450
H21	H2	0.064210	0.866890	0.318220
H31	H3	0.192050	0.005420	0.256450
H41	H4	0.281480	0.090970	0.432630
H51	H5	0.162110	0.291120	0.180700
H61	H6	0.254300	0.451370	0.318350
H71	H7	0.064380	0.251010	0.256440
H81	H8	0.151140	0.341660	0.432610
H91	H9	0.823750	0.093100	0.125800
H101	H10	0.743320	0.128560	0.226130
H111	H11	0.302070	0.032710	0.126040
H121	H12	0.482810	0.097560	0.226560
H131	H13	0.339160	0.610420	0.820140
H141	H14	0.246580	0.631780	0.681790
H151	H15	0.481110	0.209830	0.820010
H161	H16	0.435460	0.050260	0.681580
H171	H17	0.197090	0.406240	0.873460
H181	H18	0.016240	0.370550	0.773390
H191	H19	0.241900	0.418270	0.744690
H201	H20	0.150970	0.331440	0.568250
H211	H21	0.676550	0.467230	0.873750
H221	H22	0.757170	0.402760	0.773540
H231	H23	0.502820	0.326480	0.744690
H241	H24	0.417300	0.236850	0.568250
H251	H25	0.967310	0.176540	0.874630
H261	H26	0.902250	0.256600	0.773970
H271	H27	0.830410	0.004070	0.744610
H281	H28	0.739700	0.918530	0.568550
H291	H29	0.907020	0.697980	0.874320
H301	H30	0.871480	0.517240	0.773800
H311	H31	0.914250	0.740570	0.744610
H321	H32	0.828860	0.650040	0.568550
H331	H33	0.110430	0.838160	0.819290
H341	H34	0.132480	0.745410	0.681370
H351	H35	0.708970	0.981270	0.819140
H361	H36	0.549130	0.936210	0.681140
H371	H37	0.593310	0.323330	0.125970
H381	H38	0.629000	0.242760	0.226220
H391	H39	0.584390	0.496240	0.255160
H401	H40	0.669740	0.581810	0.431240
H411	H41	0.532670	0.802660	0.126200
H421	H42	0.597210	0.983450	0.226640
H431	H43	0.670730	0.758910	0.255150
H441	H44	0.761460	0.849430	0.431220
H451	H45	0.790130	0.660810	0.179780
H461	H46	0.950080	0.752940	0.317890
H471	H47	0.389400	0.519100	0.179560
H481	H48	0.367760	0.565090	0.317780
H491	H49	0.737110	0.946340	0.953730
H501	H50	0.565580	0.961240	0.911800
H511	H51	0.216780	0.007470	0.953960
H521	H52	0.346320	0.950610	0.911940
H531	H53	0.992830	0.262970	0.046900
H541	H54	0.049920	0.434700	0.089460
H551	H55	0.053600	0.783450	0.046150
H561	H56	0.038240	0.653460	0.087510
H571	H57	0.282800	0.553410	0.045830
H581	H58	0.152770	0.538380	0.087260
H591	H59	0.763300	0.492700	0.046580
H601	H60	0.935150	0.549530	0.089220
H611	H61	0.446180	0.236810	0.953450
H621	H62	0.461040	0.065280	0.911710
H631	H63	0.507350	0.716780	0.953650
H641	H64	0.450700	0.846480	0.911790
C11	C1	0.865980	0.798990	0.098540
C21	C2	0.962160	0.845240	0.178240
C31	C3	0.990310	0.830600	0.257410
C41	C4	0.183830	0.079240	0.295750
C51	C5	0.234830	0.128110	0.395800
C61	C6	0.232640	0.299580	0.098580
C71	C7	0.216310	0.333010	0.178370
C81	C8	0.267290	0.426860	0.257490
C91	C9	0.111890	0.216490	0.295740
C101	C10	0.160960	0.267700	0.395800
C111	C11	0.759080	0.192190	0.069340
C121	C12	0.776690	0.145770	0.126250
C131	C13	0.730210	0.165100	0.182910
C141	C14	0.310270	0.877160	0.069510
C151	C15	0.349560	0.980480	0.126510
C161	C16	0.452700	0.017820	0.183280
C171	C17	0.267860	0.700790	0.901600
C181	C18	0.284580	0.654290	0.822050
C191	C19	0.233420	0.668350	0.742540
C201	C20	0.633860	0.200930	0.901520
C211	C21	0.537630	0.167920	0.821930
C221	C22	0.509320	0.074400	0.742350
C231	C23	0.189340	0.307300	0.930170
C241	C24	0.149750	0.353570	0.873170
C251	C25	0.046560	0.334170	0.816720
C261	C26	0.279550	0.378560	0.705110
C271	C27	0.228280	0.329500	0.605060
C281	C28	0.740840	0.622870	0.930220
C291	C29	0.723480	0.519580	0.873320
C301	C30	0.770140	0.482480	0.816790
C311	C31	0.425590	0.326600	0.705110
C321	C32	0.376800	0.275600	0.605060
C331	C33	0.122800	0.240760	0.930500
C341	C34	0.019450	0.223310	0.873830
C351	C35	0.982010	0.269640	0.817040
C361	C36	0.829100	0.926360	0.705010
C371	C37	0.778320	0.877680	0.604960
C381	C38	0.807640	0.689690	0.930450
C391	C39	0.854190	0.650440	0.873660
C401	C40	0.834870	0.547300	0.816950
C411	C41	0.875960	0.778680	0.705010
C421	C42	0.826660	0.727290	0.604960
C431	C43	0.200950	0.767460	0.901360
C441	C44	0.154530	0.783800	0.821570
C451	C45	0.168960	0.732540	0.742300
C461	C46	0.700530	0.134020	0.901280
C471	C47	0.667190	0.037930	0.821430
C481	C48	0.573540	0.009970	0.742110
C491	C49	0.692480	0.258990	0.069530
C501	C50	0.646080	0.276380	0.126420
C511	C51	0.665480	0.229770	0.182980
C521	C52	0.623230	0.573770	0.294770
C531	C53	0.672510	0.622450	0.394820
C541	C54	0.377060	0.810550	0.069700
C551	C55	0.480350	0.850050	0.126670
C561	C56	0.517490	0.953200	0.183330
C571	C57	0.671500	0.720990	0.294760
C581	C58	0.722280	0.772370	0.394820
C591	C59	0.799070	0.732080	0.098300
C601	C60	0.832140	0.715290	0.177820
C611	C61	0.925840	0.766220	0.257220
C621	C62	0.299220	0.366250	0.098260
C631	C63	0.345580	0.462620	0.177700
C641	C64	0.331380	0.491100	0.257160
C651	C65	0.223600	0.223600	0.447190
C661	C66	0.276840	0.276850	0.553670
C671	C67	0.776650	0.776650	0.553300
C681	C68	0.723230	0.723240	0.446480
C691	C69	0.828500	0.801290	0.002290
C701	C70	0.723580	0.821190	0.978650
C711	C71	0.896130	0.877080	0.999530
C721	C72	0.689410	0.895720	0.955000
C731	C73	0.591400	0.904610	0.931240
C741	C74	0.173840	0.201030	0.002350
C751	C75	0.255100	0.157480	0.978690
C761	C76	0.103440	0.122470	0.999580
C771	C77	0.265680	0.059330	0.955130
C781	C78	0.339890	0.026660	0.931320
C791	C79	0.798960	0.171410	0.997600
C801	C80	0.842620	0.276390	0.021460
C811	C81	0.877440	0.103740	0.000320
C821	C82	0.940940	0.310660	0.045520
C831	C83	0.973720	0.408770	0.069630
C841	C84	0.198680	0.826220	0.997610
C851	C85	0.178700	0.744930	0.021200
C861	C86	0.122910	0.896600	0.000330
C871	C87	0.104120	0.734390	0.044780
C881	C88	0.095000	0.659960	0.068260
C891	C89	0.326390	0.698880	0.998070
C901	C90	0.244820	0.678860	0.021330
C911	C91	0.397040	0.623400	0.001410
C921	C92	0.233960	0.604160	0.044670
C931	C93	0.159490	0.595200	0.068140
C941	C94	0.671700	0.299210	0.998060
C951	C95	0.776630	0.342580	0.021580
C961	C96	0.604380	0.378030	0.001410
C971	C97	0.810980	0.440780	0.045410
C981	C98	0.909130	0.473410	0.069510
C991	C99	0.301040	0.328280	0.001750
C1001	C100	0.321060	0.223440	0.978440
C1011	C101	0.376510	0.395590	0.998410
C1021	C102	0.395570	0.189180	0.954800
C1031	C103	0.404460	0.091200	0.931180
C1041	C104	0.700730	0.673510	0.001800
C1051	C105	0.657400	0.755020	0.978470
C1061	C106	0.621920	0.602850	0.998460
C1071	C107	0.559270	0.765690	0.954900
C1081	C108	0.526740	0.840010	0.931220
N11	N1	0.123870	0.123880	0.247770
N21	N2	0.376480	0.376490	0.752920
N31	N3	0.876450	0.876430	0.752840
N41	N4	0.623460	0.623470	0.246950
O11	O1	0.962080	0.950510	0.076950
O21	O2	0.114870	0.126460	0.076980
O31	O3	0.949280	0.117380	0.079930
O41	O4	0.130630	0.962540	0.079920
O51	O5	0.385840	0.549900	0.924230
O61	O6	0.538420	0.374380	0.924250
O71	O7	0.368550	0.381570	0.918590
O81	O8	0.550050	0.537070	0.918630
O91	O9	0.037610	0.050440	0.919840
O101	O10	0.882240	0.869370	0.919800
O111	O11	0.049430	0.885040	0.923020
O121	O12	0.873640	0.037990	0.923030
O131	O13	0.618430	0.449910	0.081240
O141	O14	0.462800	0.631320	0.081230
O151	O15	0.625560	0.614110	0.075630
O161	O16	0.450060	0.461500	0.075600
