data_FUTYOK_clean_PM
_symmetry_space_group_name_H-M	'P1'
_cell_length_a	9.509000
_cell_length_b	15.180000
_cell_length_c	12.246000
_cell_angle_alpha	90.000000
_cell_angle_beta	93.835000
_cell_angle_gamma	90.000000
_symmetry_Int_Tables_number 1

loop_
_symmetry_equiv_pos_as_xyz
'x,y,z'

loop_
_atom_site_label
_atom_site_type_symbol
_atom_site_fract_x
_atom_site_fract_y
_atom_site_fract_z
Zn11	Zn1	0.142150	0.078270	0.447610
O11	O1	0.976160	0.071060	0.342360
O21	O2	0.313800	0.066540	0.370700
O31	O3	0.821060	0.026450	0.459900
O41	O4	0.587760	0.325600	0.041850
C11	C1	0.519200	0.206450	0.203380
H11	H1	0.446900	0.240000	0.169400
C21	C2	0.340500	0.136000	0.317920
O51	O5	0.255480	0.196760	0.299210
C31	C3	0.488000	0.143990	0.281160
C41	C4	0.735600	0.108020	0.307240
C51	C5	0.596200	0.094590	0.332710
H21	H2	0.575700	0.052400	0.384400
C61	C6	0.657600	0.219420	0.175730
C71	C7	0.853000	0.063700	0.374210
O61	O6	0.816280	0.314150	0.089610
C81	C8	0.765400	0.169640	0.227810
H31	H3	0.857800	0.177600	0.209400
C91	C9	0.691900	0.290870	0.096800
Zn21	Zn2	0.357850	0.578270	0.052390
O71	O7	0.523840	0.571060	0.157640
O81	O8	0.186200	0.566540	0.129300
O91	O9	0.678940	0.526450	0.040100
O101	O10	0.912240	0.825600	0.458150
C101	C10	0.980800	0.706450	0.296620
H41	H4	0.053100	0.740000	0.330600
C111	C11	0.159500	0.636000	0.182080
O111	O11	0.244520	0.696760	0.200790
C121	C12	0.012000	0.643990	0.218840
C131	C13	0.764400	0.608020	0.192760
C141	C14	0.903800	0.594590	0.167290
H51	H5	0.924300	0.552400	0.115600
C151	C15	0.842400	0.719420	0.324270
C161	C16	0.647000	0.563700	0.125790
O121	O12	0.683720	0.814150	0.410390
C171	C17	0.734600	0.669640	0.272190
H61	H6	0.642200	0.677600	0.290600
C181	C18	0.808100	0.790870	0.403200
Zn31	Zn3	0.857850	0.921730	0.552390
O131	O13	0.023840	0.928940	0.657640
O141	O14	0.686200	0.933460	0.629300
O151	O15	0.178940	0.973550	0.540100
O161	O16	0.412240	0.674400	0.958150
C191	C19	0.480800	0.793550	0.796620
H71	H7	0.553100	0.760000	0.830600
C201	C20	0.659500	0.864000	0.682080
O171	O17	0.744520	0.803240	0.700790
C211	C21	0.512000	0.856010	0.718840
C221	C22	0.264400	0.891980	0.692760
C231	C23	0.403800	0.905410	0.667290
H81	H8	0.424300	0.947600	0.615600
C241	C24	0.342400	0.780580	0.824270
C251	C25	0.147000	0.936300	0.625790
O181	O18	0.183720	0.685850	0.910390
C261	C26	0.234600	0.830360	0.772190
H91	H9	0.142200	0.822400	0.790600
C271	C27	0.308100	0.709130	0.903200
Zn41	Zn4	0.642150	0.421730	0.947610
O191	O19	0.476160	0.428940	0.842360
O201	O20	0.813800	0.433460	0.870700
O211	O21	0.321060	0.473550	0.959900
O221	O22	0.087760	0.174400	0.541850
C281	C28	0.019200	0.293550	0.703380
H101	H10	0.946900	0.260000	0.669400
C291	C29	0.840500	0.364000	0.817920
O231	O23	0.755480	0.303240	0.799210
C301	C30	0.988000	0.356010	0.781160
C311	C31	0.235600	0.391980	0.807240
C321	C32	0.096200	0.405410	0.832710
H111	H11	0.075700	0.447600	0.884400
C331	C33	0.157600	0.280580	0.675730
C341	C34	0.353000	0.436300	0.874210
O241	O24	0.316280	0.185850	0.589610
C351	C35	0.265400	0.330360	0.727810
H121	H12	0.357800	0.322400	0.709400
C361	C36	0.191900	0.209130	0.596800
