data_FUTZOK_clean_PM
_symmetry_space_group_name_H-M	'P1'
_cell_length_a	10.577000
_cell_length_b	10.577000
_cell_length_c	14.768100
_cell_angle_alpha	90.597500
_cell_angle_beta	90.597500
_cell_angle_gamma	105.754000
_symmetry_Int_Tables_number 1

loop_
_symmetry_equiv_pos_as_xyz
'x,y,z'

loop_
_atom_site_label
_atom_site_type_symbol
_atom_site_fract_x
_atom_site_fract_y
_atom_site_fract_z
Gd11	Gd1	0.324770	0.427390	0.942540
Gd21	Gd2	0.072610	0.175230	0.557460
Gd31	Gd3	0.675230	0.572610	0.057460
Gd41	Gd4	0.927390	0.824770	0.442540
H11	H1	0.039100	0.674900	0.159400
H21	H2	0.155400	0.802800	0.169500
H31	H3	0.385500	0.676500	0.252900
H41	H4	0.359400	0.793600	0.199000
H51	H5	0.438200	0.210400	0.212500
H61	H6	0.446800	0.354400	0.244600
H71	H7	0.825100	0.460900	0.340600
H81	H8	0.697200	0.344600	0.330500
H91	H9	0.823500	0.114500	0.247100
H101	H10	0.706400	0.140600	0.301000
H111	H11	0.289600	0.061800	0.287500
H121	H12	0.145600	0.053200	0.255400
H131	H13	0.960900	0.325100	0.840600
H141	H14	0.844600	0.197200	0.830500
H151	H15	0.614500	0.323500	0.747100
H161	H16	0.640600	0.206400	0.801000
H171	H17	0.561800	0.789600	0.787500
H181	H18	0.553200	0.645600	0.755400
H191	H19	0.174900	0.539100	0.659400
H201	H20	0.302800	0.655400	0.669500
H211	H21	0.176500	0.885500	0.752900
H221	H22	0.293600	0.859400	0.699000
H231	H23	0.710400	0.938200	0.712500
H241	H24	0.854400	0.946800	0.744600
C11	C1	0.154300	0.514100	0.230700
C21	C2	0.110700	0.721700	0.199100
C31	C3	0.053400	0.755600	0.286200
C41	C4	0.341300	0.698700	0.200000
C51	C5	0.400000	0.653600	0.115400
C61	C6	0.394300	0.279700	0.210000
C71	C7	0.383700	0.319500	0.111600
C81	C8	0.985900	0.345700	0.269300
C91	C9	0.778300	0.389300	0.300900
C101	C10	0.744400	0.446600	0.213800
C111	C11	0.801300	0.158700	0.300000
C121	C12	0.846400	0.100000	0.384600
C131	C13	0.220300	0.105700	0.290000
C141	C14	0.180500	0.116300	0.388400
C151	C15	0.845700	0.485900	0.769300
C161	C16	0.889300	0.278300	0.800900
C171	C17	0.946600	0.244400	0.713800
C181	C18	0.658700	0.301300	0.800000
C191	C19	0.600000	0.346400	0.884600
C201	C20	0.605700	0.720300	0.790000
C211	C21	0.616300	0.680500	0.888400
C221	C22	0.014100	0.654300	0.730700
C231	C23	0.221700	0.610700	0.699100
C241	C24	0.255600	0.553400	0.786200
C251	C25	0.198700	0.841300	0.700000
C261	C26	0.153600	0.900000	0.615400
C271	C27	0.779700	0.894300	0.710000
C281	C28	0.819500	0.883700	0.611600
C291	C29	0.185800	0.314200	0.250000
C301	C30	0.814200	0.685800	0.750000
N11	N1	0.240900	0.440900	0.231200
N21	N2	0.201400	0.643000	0.209600
N31	N3	0.059100	0.259100	0.268800
N41	N4	0.857000	0.298600	0.290400
N51	N5	0.759100	0.559100	0.768800
N61	N6	0.798600	0.357000	0.790400
N71	N7	0.940900	0.740900	0.731200
N81	N8	0.143000	0.701400	0.709600
N91	N9	0.026700	0.473300	0.250000
N101	N10	0.265600	0.234400	0.250000
N111	N11	0.973300	0.526700	0.750000
N121	N12	0.734400	0.765600	0.750000
O11	O1	0.950500	0.795700	0.280100
O21	O2	0.105100	0.750900	0.361500
O31	O3	0.324200	0.592600	0.054200
O41	O4	0.524500	0.682300	0.115100
O51	O5	0.286100	0.263700	0.064000
O61	O6	0.476000	0.409800	0.079000
O71	O7	0.704300	0.549500	0.219900
O81	O8	0.749100	0.394900	0.138500
O91	O9	0.907400	0.175800	0.445800
O101	O10	0.817700	0.975500	0.384900
O111	O11	0.236300	0.213900	0.436000
O121	O12	0.090200	0.024000	0.421000
O131	O13	0.049500	0.204300	0.719900
O141	O14	0.894900	0.249100	0.638500
O151	O15	0.675800	0.407400	0.945800
O161	O16	0.475500	0.317700	0.884900
O171	O17	0.713900	0.736300	0.936000
O181	O18	0.524000	0.590200	0.921000
O191	O19	0.295700	0.450500	0.780100
O201	O20	0.250900	0.605100	0.861500
O211	O21	0.092600	0.824200	0.554200
O221	O22	0.182300	0.024500	0.615100
O231	O23	0.763700	0.786100	0.564000
O241	O24	0.909800	0.976000	0.579000
