data_FUXCOS_clean_PM
_symmetry_space_group_name_H-M	'P1'
_cell_length_a	12.773100
_cell_length_b	29.872000
_cell_length_c	33.792000
_cell_angle_alpha	90.000000
_cell_angle_beta	90.000000
_cell_angle_gamma	90.000000
_symmetry_Int_Tables_number 1

loop_
_symmetry_equiv_pos_as_xyz
'x,y,z'

loop_
_atom_site_label
_atom_site_type_symbol
_atom_site_fract_x
_atom_site_fract_y
_atom_site_fract_z
S11	S1	0.749930	0.197660	0.044970
S21	S2	0.491170	0.291840	0.036810
S31	S3	0.254200	0.292080	0.944190
N11	N1	0.999200	0.170160	0.096910
N21	N2	0.997200	0.340370	0.913680
C11	C1	0.926000	0.190800	0.090090
C21	C2	0.835500	0.216000	0.080800
C31	C3	0.804700	0.255600	0.096740
H11	H1	0.841900	0.270800	0.117100
C41	C4	0.711900	0.271700	0.079730
H21	H2	0.679400	0.298900	0.087400
C51	C5	0.672800	0.244200	0.051010
C61	C6	0.581200	0.250190	0.026310
C71	C7	0.552100	0.226200	0.993200
H31	H3	0.590600	0.201400	0.983200
C81	C8	0.458800	0.242300	0.975660
H41	H4	0.428600	0.229800	0.952500
C91	C9	0.416200	0.278100	0.995870
C101	C10	0.319600	0.302260	0.987890
C111	C11	0.268400	0.332800	0.010550
H51	H5	0.294000	0.343100	0.035300
C121	C12	0.174500	0.347500	0.993960
H61	H6	0.128200	0.367900	0.006400
C131	C13	0.157300	0.329000	0.957800
C141	C14	0.068100	0.335120	0.933310
S41	S4	0.749930	0.697660	0.544970
S51	S5	0.491170	0.791840	0.536810
S61	S6	0.254200	0.792080	0.444190
N31	N3	0.999200	0.670160	0.596910
N41	N4	0.997200	0.840370	0.413680
C151	C15	0.926000	0.690800	0.590090
C161	C16	0.835500	0.716000	0.580800
C171	C17	0.804700	0.755600	0.596740
H71	H7	0.841900	0.770800	0.617100
C181	C18	0.711900	0.771700	0.579730
H81	H8	0.679400	0.798900	0.587400
C191	C19	0.672800	0.744200	0.551010
C201	C20	0.581200	0.750190	0.526310
C211	C21	0.552100	0.726200	0.493200
H91	H9	0.590600	0.701400	0.483200
C221	C22	0.458800	0.742300	0.475660
H101	H10	0.428600	0.729800	0.452500
C231	C23	0.416200	0.778100	0.495870
C241	C24	0.319600	0.802260	0.487890
C251	C25	0.268400	0.832800	0.510550
H111	H11	0.294000	0.843100	0.535300
C261	C26	0.174500	0.847500	0.493960
H121	H12	0.128200	0.867900	0.506400
C271	C27	0.157300	0.829000	0.457800
C281	C28	0.068100	0.835120	0.433310
S71	S7	0.249930	0.197660	0.544970
S81	S8	0.991170	0.291840	0.536810
S91	S9	0.754200	0.292080	0.444190
N51	N5	0.499200	0.170160	0.596910
N61	N6	0.497200	0.340370	0.413680
C291	C29	0.426000	0.190800	0.590090
C301	C30	0.335500	0.216000	0.580800
C311	C31	0.304700	0.255600	0.596740
H131	H13	0.341900	0.270800	0.617100
C321	C32	0.211900	0.271700	0.579730
H141	H14	0.179400	0.298900	0.587400
C331	C33	0.172800	0.244200	0.551010
C341	C34	0.081200	0.250190	0.526310
C351	C35	0.052100	0.226200	0.493200
H151	H15	0.090600	0.201400	0.483200
C361	C36	0.958800	0.242300	0.475660
H161	H16	0.928600	0.229800	0.452500
C371	C37	0.916200	0.278100	0.495870
C381	C38	0.819600	0.302260	0.487890
C391	C39	0.768400	0.332800	0.510550
H171	H17	0.794000	0.343100	0.535300
C401	C40	0.674500	0.347500	0.493960
H181	H18	0.628200	0.367900	0.506400
C411	C41	0.657300	0.329000	0.457800
C421	C42	0.568100	0.335120	0.433310
S101	S10	0.249930	0.697660	0.044970
S111	S11	0.991170	0.791840	0.036810
S121	S12	0.754200	0.792080	0.944190
N71	N7	0.499200	0.670160	0.096910
N81	N8	0.497200	0.840370	0.913680
C431	C43	0.426000	0.690800	0.090090
C441	C44	0.335500	0.716000	0.080800
C451	C45	0.304700	0.755600	0.096740
H191	H19	0.341900	0.770800	0.117100
C461	C46	0.211900	0.771700	0.079730
H201	H20	0.179400	0.798900	0.087400
C471	C47	0.172800	0.744200	0.051010
C481	C48	0.081200	0.750190	0.026310
C491	C49	0.052100	0.726200	0.993200
H211	H21	0.090600	0.701400	0.983200
C501	C50	0.958800	0.742300	0.975660
H221	H22	0.928600	0.729800	0.952500
C511	C51	0.916200	0.778100	0.995870
C521	C52	0.819600	0.802260	0.987890
C531	C53	0.768400	0.832800	0.010550
H231	H23	0.794000	0.843100	0.035300
C541	C54	0.674500	0.847500	0.993960
H241	H24	0.628200	0.867900	0.006400
C551	C55	0.657300	0.829000	0.957800
C561	C56	0.568100	0.835120	0.933310
S131	S13	0.000070	0.552340	0.044970
S141	S14	0.258830	0.458160	0.036810
S151	S15	0.495800	0.457920	0.944190
N91	N9	0.750800	0.579840	0.096910
N101	N10	0.752800	0.409630	0.913680
C571	C57	0.824000	0.559200	0.090090
C581	C58	0.914500	0.534000	0.080800
C591	C59	0.945300	0.494400	0.096740
H251	H25	0.908100	0.479200	0.117100
C601	C60	0.038100	0.478300	0.079730
H261	H26	0.070600	0.451100	0.087400
C611	C61	0.077200	0.505800	0.051010
C621	C62	0.168800	0.499810	0.026310
C631	C63	0.197900	0.523800	0.993200
H271	H27	0.159400	0.548600	0.983200
C641	C64	0.291200	0.507700	0.975660
H281	H28	0.321400	0.520200	0.952500
C651	C65	0.333800	0.471900	0.995870
C661	C66	0.430400	0.447740	0.987890
C671	C67	0.481600	0.417200	0.010550
H291	H29	0.456000	0.406900	0.035300
C681	C68	0.575500	0.402500	0.993960
H301	H30	0.621800	0.382100	0.006400
C691	C69	0.592700	0.421000	0.957800
C701	C70	0.681900	0.414880	0.933310
S161	S16	0.000070	0.052340	0.544970
S171	S17	0.258830	0.958160	0.536810
S181	S18	0.495800	0.957920	0.444190
N111	N11	0.750800	0.079840	0.596910
N121	N12	0.752800	0.909630	0.413680
C711	C71	0.824000	0.059200	0.590090
C721	C72	0.914500	0.034000	0.580800
C731	C73	0.945300	0.994400	0.596740
H311	H31	0.908100	0.979200	0.617100
C741	C74	0.038100	0.978300	0.579730
H321	H32	0.070600	0.951100	0.587400
C751	C75	0.077200	0.005800	0.551010
C761	C76	0.168800	0.999810	0.526310
C771	C77	0.197900	0.023800	0.493200
H331	H33	0.159400	0.048600	0.483200
C781	C78	0.291200	0.007700	0.475660
H341	H34	0.321400	0.020200	0.452500
C791	C79	0.333800	0.971900	0.495870
C801	C80	0.430400	0.947740	0.487890
C811	C81	0.481600	0.917200	0.510550
H351	H35	0.456000	0.906900	0.535300
C821	C82	0.575500	0.902500	0.493960
H361	H36	0.621800	0.882100	0.506400
C831	C83	0.592700	0.921000	0.457800
C841	C84	0.681900	0.914880	0.433310
S191	S19	0.500070	0.552340	0.544970
S201	S20	0.758830	0.458160	0.536810
S211	S21	0.995800	0.457920	0.444190
N131	N13	0.250800	0.579840	0.596910
N141	N14	0.252800	0.409630	0.413680
C851	C85	0.324000	0.559200	0.590090
C861	C86	0.414500	0.534000	0.580800
C871	C87	0.445300	0.494400	0.596740
H371	H37	0.408100	0.479200	0.617100
C881	C88	0.538100	0.478300	0.579730
H381	H38	0.570600	0.451100	0.587400
C891	C89	0.577200	0.505800	0.551010
C901	C90	0.668800	0.499810	0.526310
C911	C91	0.697900	0.523800	0.493200
H391	H39	0.659400	0.548600	0.483200
C921	C92	0.791200	0.507700	0.475660
H401	H40	0.821400	0.520200	0.452500
C931	C93	0.833800	0.471900	0.495870
C941	C94	0.930400	0.447740	0.487890
C951	C95	0.981600	0.417200	0.510550
H411	H41	0.956000	0.406900	0.535300
C961	C96	0.075500	0.402500	0.493960
H421	H42	0.121800	0.382100	0.506400
C971	C97	0.092700	0.421000	0.457800
C981	C98	0.181900	0.414880	0.433310
S221	S22	0.500070	0.052340	0.044970
S231	S23	0.758830	0.958160	0.036810
S241	S24	0.995800	0.957920	0.944190
N151	N15	0.250800	0.079840	0.096910
N161	N16	0.252800	0.909630	0.913680
C991	C99	0.324000	0.059200	0.090090
C1001	C100	0.414500	0.034000	0.080800
C1011	C101	0.445300	0.994400	0.096740
H431	H43	0.408100	0.979200	0.117100
C1021	C102	0.538100	0.978300	0.079730
H441	H44	0.570600	0.951100	0.087400
C1031	C103	0.577200	0.005800	0.051010
C1041	C104	0.668800	0.999810	0.026310
C1051	C105	0.697900	0.023800	0.993200
H451	H45	0.659400	0.048600	0.983200
C1061	C106	0.791200	0.007700	0.975660
H461	H46	0.821400	0.020200	0.952500
C1071	C107	0.833800	0.971900	0.995870
C1081	C108	0.930400	0.947740	0.987890
C1091	C109	0.981600	0.917200	0.010550
H471	H47	0.956000	0.906900	0.035300
C1101	C110	0.075500	0.902500	0.993960
H481	H48	0.121800	0.882100	0.006400
C1111	C111	0.092700	0.921000	0.957800
C1121	C112	0.181900	0.914880	0.933310
S251	S25	0.000070	0.197660	0.705030
S261	S26	0.258830	0.291840	0.713190
S271	S27	0.495800	0.292080	0.805810
N171	N17	0.750800	0.170160	0.653090
N181	N18	0.752800	0.340370	0.836320
C1131	C113	0.824000	0.190800	0.659910
C1141	C114	0.914500	0.216000	0.669200
C1151	C115	0.945300	0.255600	0.653260
H491	H49	0.908100	0.270800	0.632900
C1161	C116	0.038100	0.271700	0.670270
H501	H50	0.070600	0.298900	0.662600
C1171	C117	0.077200	0.244200	0.698990
C1181	C118	0.168800	0.250190	0.723690
C1191	C119	0.197900	0.226200	0.756800
H511	H51	0.159400	0.201400	0.766800
C1201	C120	0.291200	0.242300	0.774340
H521	H52	0.321400	0.229800	0.797500
C1211	C121	0.333800	0.278100	0.754130
C1221	C122	0.430400	0.302260	0.762110
C1231	C123	0.481600	0.332800	0.739450
H531	H53	0.456000	0.343100	0.714700
C1241	C124	0.575500	0.347500	0.756040
H541	H54	0.621800	0.367900	0.743600
C1251	C125	0.592700	0.329000	0.792200
C1261	C126	0.681900	0.335120	0.816690
S281	S28	0.000070	0.697660	0.205030
S291	S29	0.258830	0.791840	0.213190
S301	S30	0.495800	0.792080	0.305810
N191	N19	0.750800	0.670160	0.153090
N201	N20	0.752800	0.840370	0.336320
C1271	C127	0.824000	0.690800	0.159910
C1281	C128	0.914500	0.716000	0.169200
C1291	C129	0.945300	0.755600	0.153260
H551	H55	0.908100	0.770800	0.132900
C1301	C130	0.038100	0.771700	0.170270
H561	H56	0.070600	0.798900	0.162600
C1311	C131	0.077200	0.744200	0.198990
C1321	C132	0.168800	0.750190	0.223690
C1331	C133	0.197900	0.726200	0.256800
H571	H57	0.159400	0.701400	0.266800
C1341	C134	0.291200	0.742300	0.274340
H581	H58	0.321400	0.729800	0.297500
C1351	C135	0.333800	0.778100	0.254130
C1361	C136	0.430400	0.802260	0.262110
C1371	C137	0.481600	0.832800	0.239450
H591	H59	0.456000	0.843100	0.214700
C1381	C138	0.575500	0.847500	0.256040
H601	H60	0.621800	0.867900	0.243600
C1391	C139	0.592700	0.829000	0.292200
C1401	C140	0.681900	0.835120	0.316690
S311	S31	0.500070	0.197660	0.205030
S321	S32	0.758830	0.291840	0.213190
S331	S33	0.995800	0.292080	0.305810
N211	N21	0.250800	0.170160	0.153090
N221	N22	0.252800	0.340370	0.336320
C1411	C141	0.324000	0.190800	0.159910
C1421	C142	0.414500	0.216000	0.169200
C1431	C143	0.445300	0.255600	0.153260
H611	H61	0.408100	0.270800	0.132900
C1441	C144	0.538100	0.271700	0.170270
H621	H62	0.570600	0.298900	0.162600
C1451	C145	0.577200	0.244200	0.198990
C1461	C146	0.668800	0.250190	0.223690
C1471	C147	0.697900	0.226200	0.256800
H631	H63	0.659400	0.201400	0.266800
C1481	C148	0.791200	0.242300	0.274340
H641	H64	0.821400	0.229800	0.297500
C1491	C149	0.833800	0.278100	0.254130
C1501	C150	0.930400	0.302260	0.262110
C1511	C151	0.981600	0.332800	0.239450
H651	H65	0.956000	0.343100	0.214700
C1521	C152	0.075500	0.347500	0.256040
H661	H66	0.121800	0.367900	0.243600
C1531	C153	0.092700	0.329000	0.292200
C1541	C154	0.181900	0.335120	0.316690
S341	S34	0.500070	0.697660	0.705030
S351	S35	0.758830	0.791840	0.713190
S361	S36	0.995800	0.792080	0.805810
N231	N23	0.250800	0.670160	0.653090
N241	N24	0.252800	0.840370	0.836320
C1551	C155	0.324000	0.690800	0.659910
C1561	C156	0.414500	0.716000	0.669200
C1571	C157	0.445300	0.755600	0.653260
H671	H67	0.408100	0.770800	0.632900
C1581	C158	0.538100	0.771700	0.670270
H681	H68	0.570600	0.798900	0.662600
C1591	C159	0.577200	0.744200	0.698990
C1601	C160	0.668800	0.750190	0.723690
C1611	C161	0.697900	0.726200	0.756800
H691	H69	0.659400	0.701400	0.766800
C1621	C162	0.791200	0.742300	0.774340
H701	H70	0.821400	0.729800	0.797500
C1631	C163	0.833800	0.778100	0.754130
C1641	C164	0.930400	0.802260	0.762110
C1651	C165	0.981600	0.832800	0.739450
H711	H71	0.956000	0.843100	0.714700
C1661	C166	0.075500	0.847500	0.756040
H721	H72	0.121800	0.867900	0.743600
C1671	C167	0.092700	0.829000	0.792200
C1681	C168	0.181900	0.835120	0.816690
S371	S37	0.749930	0.552340	0.705030
S381	S38	0.491170	0.458160	0.713190
S391	S39	0.254200	0.457920	0.805810
N251	N25	0.999200	0.579840	0.653090
N261	N26	0.997200	0.409630	0.836320
C1691	C169	0.926000	0.559200	0.659910
C1701	C170	0.835500	0.534000	0.669200
C1711	C171	0.804700	0.494400	0.653260
H731	H73	0.841900	0.479200	0.632900
C1721	C172	0.711900	0.478300	0.670270
H741	H74	0.679400	0.451100	0.662600
C1731	C173	0.672800	0.505800	0.698990
C1741	C174	0.581200	0.499810	0.723690
C1751	C175	0.552100	0.523800	0.756800
H751	H75	0.590600	0.548600	0.766800
C1761	C176	0.458800	0.507700	0.774340
H761	H76	0.428600	0.520200	0.797500
C1771	C177	0.416200	0.471900	0.754130
C1781	C178	0.319600	0.447740	0.762110
C1791	C179	0.268400	0.417200	0.739450
H771	H77	0.294000	0.406900	0.714700
C1801	C180	0.174500	0.402500	0.756040
H781	H78	0.128200	0.382100	0.743600
C1811	C181	0.157300	0.421000	0.792200
C1821	C182	0.068100	0.414880	0.816690
S401	S40	0.749930	0.052340	0.205030
S411	S41	0.491170	0.958160	0.213190
S421	S42	0.254200	0.957920	0.305810
N271	N27	0.999200	0.079840	0.153090
N281	N28	0.997200	0.909630	0.336320
C1831	C183	0.926000	0.059200	0.159910
C1841	C184	0.835500	0.034000	0.169200
C1851	C185	0.804700	0.994400	0.153260
H791	H79	0.841900	0.979200	0.132900
C1861	C186	0.711900	0.978300	0.170270
H801	H80	0.679400	0.951100	0.162600
C1871	C187	0.672800	0.005800	0.198990
C1881	C188	0.581200	0.999810	0.223690
C1891	C189	0.552100	0.023800	0.256800
H811	H81	0.590600	0.048600	0.266800
C1901	C190	0.458800	0.007700	0.274340
H821	H82	0.428600	0.020200	0.297500
C1911	C191	0.416200	0.971900	0.254130
C1921	C192	0.319600	0.947740	0.262110
C1931	C193	0.268400	0.917200	0.239450
H831	H83	0.294000	0.906900	0.214700
C1941	C194	0.174500	0.902500	0.256040
H841	H84	0.128200	0.882100	0.243600
C1951	C195	0.157300	0.921000	0.292200
C1961	C196	0.068100	0.914880	0.316690
S431	S43	0.249930	0.552340	0.205030
S441	S44	0.991170	0.458160	0.213190
S451	S45	0.754200	0.457920	0.305810
N291	N29	0.499200	0.579840	0.153090
N301	N30	0.497200	0.409630	0.336320
C1971	C197	0.426000	0.559200	0.159910
C1981	C198	0.335500	0.534000	0.169200
C1991	C199	0.304700	0.494400	0.153260
H851	H85	0.341900	0.479200	0.132900
C2001	C200	0.211900	0.478300	0.170270
H861	H86	0.179400	0.451100	0.162600
C2011	C201	0.172800	0.505800	0.198990
C2021	C202	0.081200	0.499810	0.223690
C2031	C203	0.052100	0.523800	0.256800
H871	H87	0.090600	0.548600	0.266800
C2041	C204	0.958800	0.507700	0.274340
H881	H88	0.928600	0.520200	0.297500
C2051	C205	0.916200	0.471900	0.254130
C2061	C206	0.819600	0.447740	0.262110
C2071	C207	0.768400	0.417200	0.239450
H891	H89	0.794000	0.406900	0.214700
C2081	C208	0.674500	0.402500	0.256040
H901	H90	0.628200	0.382100	0.243600
C2091	C209	0.657300	0.421000	0.292200
C2101	C210	0.568100	0.414880	0.316690
S461	S46	0.249930	0.052340	0.705030
S471	S47	0.991170	0.958160	0.713190
S481	S48	0.754200	0.957920	0.805810
N311	N31	0.499200	0.079840	0.653090
N321	N32	0.497200	0.909630	0.836320
C2111	C211	0.426000	0.059200	0.659910
C2121	C212	0.335500	0.034000	0.669200
C2131	C213	0.304700	0.994400	0.653260
H911	H91	0.341900	0.979200	0.632900
C2141	C214	0.211900	0.978300	0.670270
H921	H92	0.179400	0.951100	0.662600
C2151	C215	0.172800	0.005800	0.698990
C2161	C216	0.081200	0.999810	0.723690
C2171	C217	0.052100	0.023800	0.756800
H931	H93	0.090600	0.048600	0.766800
C2181	C218	0.958800	0.007700	0.774340
H941	H94	0.928600	0.020200	0.797500
C2191	C219	0.916200	0.971900	0.754130
C2201	C220	0.819600	0.947740	0.762110
C2211	C221	0.768400	0.917200	0.739450
H951	H95	0.794000	0.906900	0.714700
C2221	C222	0.674500	0.902500	0.756040
H961	H96	0.628200	0.882100	0.743600
C2231	C223	0.657300	0.921000	0.792200
C2241	C224	0.568100	0.914880	0.816690
Ag11	Ag1	0.125000	0.125000	0.125000
Ag21	Ag2	0.125000	0.625000	0.625000
Ag31	Ag3	0.625000	0.625000	0.125000
Ag41	Ag4	0.625000	0.125000	0.625000
Ag51	Ag5	0.875000	0.375000	0.875000
Ag61	Ag6	0.875000	0.875000	0.375000
Ag71	Ag7	0.375000	0.375000	0.375000
Ag81	Ag8	0.375000	0.875000	0.875000
S491	S49	0.250070	0.802340	0.955030
S501	S50	0.508830	0.708160	0.963190
S511	S51	0.745800	0.707920	0.055810
N331	N33	0.000800	0.829840	0.903090
N341	N34	0.002800	0.659630	0.086320
C2251	C225	0.074000	0.809200	0.909910
C2261	C226	0.164500	0.784000	0.919200
C2271	C227	0.195300	0.744400	0.903260
H971	H97	0.158100	0.729200	0.882900
C2281	C228	0.288100	0.728300	0.920270
H981	H98	0.320600	0.701100	0.912600
C2291	C229	0.327200	0.755800	0.948990
C2301	C230	0.418800	0.749810	0.973690
C2311	C231	0.447900	0.773800	0.006800
H991	H99	0.409400	0.798600	0.016800
C2321	C232	0.541200	0.757700	0.024340
H1001	H100	0.571400	0.770200	0.047500
C2331	C233	0.583800	0.721900	0.004130
C2341	C234	0.680400	0.697740	0.012110
C2351	C235	0.731600	0.667200	0.989450
H1011	H101	0.706000	0.656900	0.964700
C2361	C236	0.825500	0.652500	0.006040
H1021	H102	0.871800	0.632100	0.993600
C2371	C237	0.842700	0.671000	0.042200
C2381	C238	0.931900	0.664880	0.066690
S521	S52	0.250070	0.302340	0.455030
S531	S53	0.508830	0.208160	0.463190
S541	S54	0.745800	0.207920	0.555810
N351	N35	0.000800	0.329840	0.403090
N361	N36	0.002800	0.159630	0.586320
C2391	C239	0.074000	0.309200	0.409910
C2401	C240	0.164500	0.284000	0.419200
C2411	C241	0.195300	0.244400	0.403260
H1031	H103	0.158100	0.229200	0.382900
C2421	C242	0.288100	0.228300	0.420270
H1041	H104	0.320600	0.201100	0.412600
C2431	C243	0.327200	0.255800	0.448990
C2441	C244	0.418800	0.249810	0.473690
C2451	C245	0.447900	0.273800	0.506800
H1051	H105	0.409400	0.298600	0.516800
C2461	C246	0.541200	0.257700	0.524340
H1061	H106	0.571400	0.270200	0.547500
C2471	C247	0.583800	0.221900	0.504130
C2481	C248	0.680400	0.197740	0.512110
C2491	C249	0.731600	0.167200	0.489450
H1071	H107	0.706000	0.156900	0.464700
C2501	C250	0.825500	0.152500	0.506040
H1081	H108	0.871800	0.132100	0.493600
C2511	C251	0.842700	0.171000	0.542200
C2521	C252	0.931900	0.164880	0.566690
S551	S55	0.750070	0.802340	0.455030
S561	S56	0.008830	0.708160	0.463190
S571	S57	0.245800	0.707920	0.555810
N371	N37	0.500800	0.829840	0.403090
N381	N38	0.502800	0.659630	0.586320
C2531	C253	0.574000	0.809200	0.409910
C2541	C254	0.664500	0.784000	0.419200
C2551	C255	0.695300	0.744400	0.403260
H1091	H109	0.658100	0.729200	0.382900
C2561	C256	0.788100	0.728300	0.420270
H1101	H110	0.820600	0.701100	0.412600
C2571	C257	0.827200	0.755800	0.448990
C2581	C258	0.918800	0.749810	0.473690
C2591	C259	0.947900	0.773800	0.506800
H1111	H111	0.909400	0.798600	0.516800
C2601	C260	0.041200	0.757700	0.524340
H1121	H112	0.071400	0.770200	0.547500
C2611	C261	0.083800	0.721900	0.504130
C2621	C262	0.180400	0.697740	0.512110
C2631	C263	0.231600	0.667200	0.489450
H1131	H113	0.206000	0.656900	0.464700
C2641	C264	0.325500	0.652500	0.506040
H1141	H114	0.371800	0.632100	0.493600
C2651	C265	0.342700	0.671000	0.542200
C2661	C266	0.431900	0.664880	0.566690
S581	S58	0.750070	0.302340	0.955030
S591	S59	0.008830	0.208160	0.963190
S601	S60	0.245800	0.207920	0.055810
N391	N39	0.500800	0.329840	0.903090
N401	N40	0.502800	0.159630	0.086320
C2671	C267	0.574000	0.309200	0.909910
C2681	C268	0.664500	0.284000	0.919200
C2691	C269	0.695300	0.244400	0.903260
H1151	H115	0.658100	0.229200	0.882900
C2701	C270	0.788100	0.228300	0.920270
H1161	H116	0.820600	0.201100	0.912600
C2711	C271	0.827200	0.255800	0.948990
C2721	C272	0.918800	0.249810	0.973690
C2731	C273	0.947900	0.273800	0.006800
H1171	H117	0.909400	0.298600	0.016800
C2741	C274	0.041200	0.257700	0.024340
H1181	H118	0.071400	0.270200	0.047500
C2751	C275	0.083800	0.221900	0.004130
C2761	C276	0.180400	0.197740	0.012110
C2771	C277	0.231600	0.167200	0.989450
H1191	H119	0.206000	0.156900	0.964700
C2781	C278	0.325500	0.152500	0.006040
H1201	H120	0.371800	0.132100	0.993600
C2791	C279	0.342700	0.171000	0.042200
C2801	C280	0.431900	0.164880	0.066690
S611	S61	0.999930	0.447660	0.955030
S621	S62	0.741170	0.541840	0.963190
S631	S63	0.504200	0.542080	0.055810
N411	N41	0.249200	0.420160	0.903090
N421	N42	0.247200	0.590370	0.086320
C2811	C281	0.176000	0.440800	0.909910
C2821	C282	0.085500	0.466000	0.919200
C2831	C283	0.054700	0.505600	0.903260
H1211	H121	0.091900	0.520800	0.882900
C2841	C284	0.961900	0.521700	0.920270
H1221	H122	0.929400	0.548900	0.912600
C2851	C285	0.922800	0.494200	0.948990
C2861	C286	0.831200	0.500190	0.973690
C2871	C287	0.802100	0.476200	0.006800
H1231	H123	0.840600	0.451400	0.016800
C2881	C288	0.708800	0.492300	0.024340
H1241	H124	0.678600	0.479800	0.047500
C2891	C289	0.666200	0.528100	0.004130
C2901	C290	0.569600	0.552260	0.012110
C2911	C291	0.518400	0.582800	0.989450
H1251	H125	0.544000	0.593100	0.964700
C2921	C292	0.424500	0.597500	0.006040
H1261	H126	0.378200	0.617900	0.993600
C2931	C293	0.407300	0.579000	0.042200
C2941	C294	0.318100	0.585120	0.066690
S641	S64	0.999930	0.947660	0.455030
S651	S65	0.741170	0.041840	0.463190
S661	S66	0.504200	0.042080	0.555810
N431	N43	0.249200	0.920160	0.403090
N441	N44	0.247200	0.090370	0.586320
C2951	C295	0.176000	0.940800	0.409910
C2961	C296	0.085500	0.966000	0.419200
C2971	C297	0.054700	0.005600	0.403260
H1271	H127	0.091900	0.020800	0.382900
C2981	C298	0.961900	0.021700	0.420270
H1281	H128	0.929400	0.048900	0.412600
C2991	C299	0.922800	0.994200	0.448990
C3001	C300	0.831200	0.000190	0.473690
C3011	C301	0.802100	0.976200	0.506800
H1291	H129	0.840600	0.951400	0.516800
C3021	C302	0.708800	0.992300	0.524340
H1301	H130	0.678600	0.979800	0.547500
C3031	C303	0.666200	0.028100	0.504130
C3041	C304	0.569600	0.052260	0.512110
C3051	C305	0.518400	0.082800	0.489450
H1311	H131	0.544000	0.093100	0.464700
C3061	C306	0.424500	0.097500	0.506040
H1321	H132	0.378200	0.117900	0.493600
C3071	C307	0.407300	0.079000	0.542200
C3081	C308	0.318100	0.085120	0.566690
S671	S67	0.499930	0.447660	0.455030
S681	S68	0.241170	0.541840	0.463190
S691	S69	0.004200	0.542080	0.555810
N451	N45	0.749200	0.420160	0.403090
N461	N46	0.747200	0.590370	0.586320
C3091	C309	0.676000	0.440800	0.409910
C3101	C310	0.585500	0.466000	0.419200
C3111	C311	0.554700	0.505600	0.403260
H1331	H133	0.591900	0.520800	0.382900
C3121	C312	0.461900	0.521700	0.420270
H1341	H134	0.429400	0.548900	0.412600
C3131	C313	0.422800	0.494200	0.448990
C3141	C314	0.331200	0.500190	0.473690
C3151	C315	0.302100	0.476200	0.506800
H1351	H135	0.340600	0.451400	0.516800
C3161	C316	0.208800	0.492300	0.524340
H1361	H136	0.178600	0.479800	0.547500
C3171	C317	0.166200	0.528100	0.504130
C3181	C318	0.069600	0.552260	0.512110
C3191	C319	0.018400	0.582800	0.489450
H1371	H137	0.044000	0.593100	0.464700
C3201	C320	0.924500	0.597500	0.506040
H1381	H138	0.878200	0.617900	0.493600
C3211	C321	0.907300	0.579000	0.542200
C3221	C322	0.818100	0.585120	0.566690
S701	S70	0.499930	0.947660	0.955030
S711	S71	0.241170	0.041840	0.963190
S721	S72	0.004200	0.042080	0.055810
N471	N47	0.749200	0.920160	0.903090
N481	N48	0.747200	0.090370	0.086320
C3231	C323	0.676000	0.940800	0.909910
C3241	C324	0.585500	0.966000	0.919200
C3251	C325	0.554700	0.005600	0.903260
H1391	H139	0.591900	0.020800	0.882900
C3261	C326	0.461900	0.021700	0.920270
H1401	H140	0.429400	0.048900	0.912600
C3271	C327	0.422800	0.994200	0.948990
C3281	C328	0.331200	0.000190	0.973690
C3291	C329	0.302100	0.976200	0.006800
H1411	H141	0.340600	0.951400	0.016800
C3301	C330	0.208800	0.992300	0.024340
H1421	H142	0.178600	0.979800	0.047500
C3311	C331	0.166200	0.028100	0.004130
C3321	C332	0.069600	0.052260	0.012110
C3331	C333	0.018400	0.082800	0.989450
H1431	H143	0.044000	0.093100	0.964700
C3341	C334	0.924500	0.097500	0.006040
H1441	H144	0.878200	0.117900	0.993600
C3351	C335	0.907300	0.079000	0.042200
C3361	C336	0.818100	0.085120	0.066690
S731	S73	0.999930	0.802340	0.294970
S741	S74	0.741170	0.708160	0.286810
S751	S75	0.504200	0.707920	0.194190
N491	N49	0.249200	0.829840	0.346910
N501	N50	0.247200	0.659630	0.163680
C3371	C337	0.176000	0.809200	0.340090
C3381	C338	0.085500	0.784000	0.330800
C3391	C339	0.054700	0.744400	0.346740
H1451	H145	0.091900	0.729200	0.367100
C3401	C340	0.961900	0.728300	0.329730
H1461	H146	0.929400	0.701100	0.337400
C3411	C341	0.922800	0.755800	0.301010
C3421	C342	0.831200	0.749810	0.276310
C3431	C343	0.802100	0.773800	0.243200
H1471	H147	0.840600	0.798600	0.233200
C3441	C344	0.708800	0.757700	0.225660
H1481	H148	0.678600	0.770200	0.202500
C3451	C345	0.666200	0.721900	0.245870
C3461	C346	0.569600	0.697740	0.237890
C3471	C347	0.518400	0.667200	0.260550
H1491	H149	0.544000	0.656900	0.285300
C3481	C348	0.424500	0.652500	0.243960
H1501	H150	0.378200	0.632100	0.256400
C3491	C349	0.407300	0.671000	0.207800
C3501	C350	0.318100	0.664880	0.183310
S761	S76	0.999930	0.302340	0.794970
S771	S77	0.741170	0.208160	0.786810
S781	S78	0.504200	0.207920	0.694190
N511	N51	0.249200	0.329840	0.846910
N521	N52	0.247200	0.159630	0.663680
C3511	C351	0.176000	0.309200	0.840090
C3521	C352	0.085500	0.284000	0.830800
C3531	C353	0.054700	0.244400	0.846740
H1511	H151	0.091900	0.229200	0.867100
C3541	C354	0.961900	0.228300	0.829730
H1521	H152	0.929400	0.201100	0.837400
C3551	C355	0.922800	0.255800	0.801010
C3561	C356	0.831200	0.249810	0.776310
C3571	C357	0.802100	0.273800	0.743200
H1531	H153	0.840600	0.298600	0.733200
C3581	C358	0.708800	0.257700	0.725660
H1541	H154	0.678600	0.270200	0.702500
C3591	C359	0.666200	0.221900	0.745870
C3601	C360	0.569600	0.197740	0.737890
C3611	C361	0.518400	0.167200	0.760550
H1551	H155	0.544000	0.156900	0.785300
C3621	C362	0.424500	0.152500	0.743960
H1561	H156	0.378200	0.132100	0.756400
C3631	C363	0.407300	0.171000	0.707800
C3641	C364	0.318100	0.164880	0.683310
S791	S79	0.499930	0.802340	0.794970
S801	S80	0.241170	0.708160	0.786810
S811	S81	0.004200	0.707920	0.694190
N531	N53	0.749200	0.829840	0.846910
N541	N54	0.747200	0.659630	0.663680
C3651	C365	0.676000	0.809200	0.840090
C3661	C366	0.585500	0.784000	0.830800
C3671	C367	0.554700	0.744400	0.846740
H1571	H157	0.591900	0.729200	0.867100
C3681	C368	0.461900	0.728300	0.829730
H1581	H158	0.429400	0.701100	0.837400
C3691	C369	0.422800	0.755800	0.801010
C3701	C370	0.331200	0.749810	0.776310
C3711	C371	0.302100	0.773800	0.743200
H1591	H159	0.340600	0.798600	0.733200
C3721	C372	0.208800	0.757700	0.725660
H1601	H160	0.178600	0.770200	0.702500
C3731	C373	0.166200	0.721900	0.745870
C3741	C374	0.069600	0.697740	0.737890
C3751	C375	0.018400	0.667200	0.760550
H1611	H161	0.044000	0.656900	0.785300
C3761	C376	0.924500	0.652500	0.743960
H1621	H162	0.878200	0.632100	0.756400
C3771	C377	0.907300	0.671000	0.707800
C3781	C378	0.818100	0.664880	0.683310
S821	S82	0.499930	0.302340	0.294970
S831	S83	0.241170	0.208160	0.286810
S841	S84	0.004200	0.207920	0.194190
N551	N55	0.749200	0.329840	0.346910
N561	N56	0.747200	0.159630	0.163680
C3791	C379	0.676000	0.309200	0.340090
C3801	C380	0.585500	0.284000	0.330800
C3811	C381	0.554700	0.244400	0.346740
H1631	H163	0.591900	0.229200	0.367100
C3821	C382	0.461900	0.228300	0.329730
H1641	H164	0.429400	0.201100	0.337400
C3831	C383	0.422800	0.255800	0.301010
C3841	C384	0.331200	0.249810	0.276310
C3851	C385	0.302100	0.273800	0.243200
H1651	H165	0.340600	0.298600	0.233200
C3861	C386	0.208800	0.257700	0.225660
H1661	H166	0.178600	0.270200	0.202500
C3871	C387	0.166200	0.221900	0.245870
C3881	C388	0.069600	0.197740	0.237890
C3891	C389	0.018400	0.167200	0.260550
H1671	H167	0.044000	0.156900	0.285300
C3901	C390	0.924500	0.152500	0.243960
H1681	H168	0.878200	0.132100	0.256400
C3911	C391	0.907300	0.171000	0.207800
C3921	C392	0.818100	0.164880	0.183310
S851	S85	0.250070	0.447660	0.294970
S861	S86	0.508830	0.541840	0.286810
S871	S87	0.745800	0.542080	0.194190
N571	N57	0.000800	0.420160	0.346910
N581	N58	0.002800	0.590370	0.163680
C3931	C393	0.074000	0.440800	0.340090
C3941	C394	0.164500	0.466000	0.330800
C3951	C395	0.195300	0.505600	0.346740
H1691	H169	0.158100	0.520800	0.367100
C3961	C396	0.288100	0.521700	0.329730
H1701	H170	0.320600	0.548900	0.337400
C3971	C397	0.327200	0.494200	0.301010
C3981	C398	0.418800	0.500190	0.276310
C3991	C399	0.447900	0.476200	0.243200
H1711	H171	0.409400	0.451400	0.233200
C4001	C400	0.541200	0.492300	0.225660
H1721	H172	0.571400	0.479800	0.202500
C4011	C401	0.583800	0.528100	0.245870
C4021	C402	0.680400	0.552260	0.237890
C4031	C403	0.731600	0.582800	0.260550
H1731	H173	0.706000	0.593100	0.285300
C4041	C404	0.825500	0.597500	0.243960
H1741	H174	0.871800	0.617900	0.256400
C4051	C405	0.842700	0.579000	0.207800
C4061	C406	0.931900	0.585120	0.183310
S881	S88	0.250070	0.947660	0.794970
S891	S89	0.508830	0.041840	0.786810
S901	S90	0.745800	0.042080	0.694190
N591	N59	0.000800	0.920160	0.846910
N601	N60	0.002800	0.090370	0.663680
C4071	C407	0.074000	0.940800	0.840090
C4081	C408	0.164500	0.966000	0.830800
C4091	C409	0.195300	0.005600	0.846740
H1751	H175	0.158100	0.020800	0.867100
C4101	C410	0.288100	0.021700	0.829730
H1761	H176	0.320600	0.048900	0.837400
C4111	C411	0.327200	0.994200	0.801010
C4121	C412	0.418800	0.000190	0.776310
C4131	C413	0.447900	0.976200	0.743200
H1771	H177	0.409400	0.951400	0.733200
C4141	C414	0.541200	0.992300	0.725660
H1781	H178	0.571400	0.979800	0.702500
C4151	C415	0.583800	0.028100	0.745870
C4161	C416	0.680400	0.052260	0.737890
C4171	C417	0.731600	0.082800	0.760550
H1791	H179	0.706000	0.093100	0.785300
C4181	C418	0.825500	0.097500	0.743960
H1801	H180	0.871800	0.117900	0.756400
C4191	C419	0.842700	0.079000	0.707800
C4201	C420	0.931900	0.085120	0.683310
S911	S91	0.750070	0.447660	0.794970
S921	S92	0.008830	0.541840	0.786810
S931	S93	0.245800	0.542080	0.694190
N611	N61	0.500800	0.420160	0.846910
N621	N62	0.502800	0.590370	0.663680
C4211	C421	0.574000	0.440800	0.840090
C4221	C422	0.664500	0.466000	0.830800
C4231	C423	0.695300	0.505600	0.846740
H1811	H181	0.658100	0.520800	0.867100
C4241	C424	0.788100	0.521700	0.829730
H1821	H182	0.820600	0.548900	0.837400
C4251	C425	0.827200	0.494200	0.801010
C4261	C426	0.918800	0.500190	0.776310
C4271	C427	0.947900	0.476200	0.743200
H1831	H183	0.909400	0.451400	0.733200
C4281	C428	0.041200	0.492300	0.725660
H1841	H184	0.071400	0.479800	0.702500
C4291	C429	0.083800	0.528100	0.745870
C4301	C430	0.180400	0.552260	0.737890
C4311	C431	0.231600	0.582800	0.760550
H1851	H185	0.206000	0.593100	0.785300
C4321	C432	0.325500	0.597500	0.743960
H1861	H186	0.371800	0.617900	0.756400
C4331	C433	0.342700	0.579000	0.707800
C4341	C434	0.431900	0.585120	0.683310
S941	S94	0.750070	0.947660	0.294970
S951	S95	0.008830	0.041840	0.286810
S961	S96	0.245800	0.042080	0.194190
N631	N63	0.500800	0.920160	0.346910
N641	N64	0.502800	0.090370	0.163680
C4351	C435	0.574000	0.940800	0.340090
C4361	C436	0.664500	0.966000	0.330800
C4371	C437	0.695300	0.005600	0.346740
H1871	H187	0.658100	0.020800	0.367100
C4381	C438	0.788100	0.021700	0.329730
H1881	H188	0.820600	0.048900	0.337400
C4391	C439	0.827200	0.994200	0.301010
C4401	C440	0.918800	0.000190	0.276310
C4411	C441	0.947900	0.976200	0.243200
H1891	H189	0.909400	0.951400	0.233200
C4421	C442	0.041200	0.992300	0.225660
H1901	H190	0.071400	0.979800	0.202500
C4431	C443	0.083800	0.028100	0.245870
C4441	C444	0.180400	0.052260	0.237890
C4451	C445	0.231600	0.082800	0.260550
H1911	H191	0.206000	0.093100	0.285300
C4461	C446	0.325500	0.097500	0.243960
H1921	H192	0.371800	0.117900	0.256400
C4471	C447	0.342700	0.079000	0.207800
C4481	C448	0.431900	0.085120	0.183310
Ag91	Ag9	0.875000	0.875000	0.875000
Ag101	Ag10	0.875000	0.375000	0.375000
Ag111	Ag11	0.375000	0.375000	0.875000
Ag121	Ag12	0.375000	0.875000	0.375000
Ag131	Ag13	0.125000	0.625000	0.125000
Ag141	Ag14	0.125000	0.125000	0.625000
Ag151	Ag15	0.625000	0.625000	0.625000
Ag161	Ag16	0.625000	0.125000	0.125000
