data_FUYYAA_clean_PM
_symmetry_space_group_name_H-M	'P1'
_cell_length_a	8.823000
_cell_length_b	9.396000
_cell_length_c	14.546000
_cell_angle_alpha	81.850000
_cell_angle_beta	72.798000
_cell_angle_gamma	65.368000
_symmetry_Int_Tables_number 1

loop_
_symmetry_equiv_pos_as_xyz
'x,y,z'

loop_
_atom_site_label
_atom_site_type_symbol
_atom_site_fract_x
_atom_site_fract_y
_atom_site_fract_z
Nd11	Nd1	0.076470	0.187950	0.634370
Nd21	Nd2	0.923530	0.812050	0.365630
Cu11	Cu1	0.427030	0.382740	0.934460
Cu21	Cu2	0.572970	0.617260	0.065540
H11	H1	0.723800	0.297100	0.147400
H21	H2	0.978800	0.077700	0.111300
H31	H3	0.511800	0.896900	0.928200
H41	H4	0.041900	0.539100	0.774200
H51	H5	0.657700	0.964500	0.782200
H61	H6	0.921000	0.782600	0.702500
H71	H7	0.184400	0.077500	0.969900
H81	H8	0.276200	0.702900	0.852600
H91	H9	0.021200	0.922300	0.888700
H101	H10	0.488200	0.103100	0.071800
H111	H11	0.958100	0.460900	0.225800
H121	H12	0.342300	0.035500	0.217800
H131	H13	0.079000	0.217400	0.297500
H141	H14	0.815600	0.922500	0.030100
C11	C1	0.959800	0.468500	0.471700
C21	C2	0.898200	0.424700	0.949000
C31	C3	0.840600	0.576700	0.893400
C41	C4	0.691600	0.383700	0.783900
C51	C5	0.754000	0.220400	0.833300
C61	C6	0.807900	0.296200	0.090800
C71	C7	0.959600	0.164300	0.069600
C81	C8	0.619400	0.824800	0.896600
C91	C9	0.933900	0.611800	0.804700
C101	C10	0.705000	0.865500	0.809400
C111	C11	0.862000	0.757900	0.762700
C121	C12	0.053400	0.294000	0.922800
C131	C13	0.198700	0.276300	0.831100
C141	C14	0.081200	0.165200	0.985500
C151	C15	0.908000	0.021200	0.533300
C161	C16	0.040200	0.531500	0.528300
C171	C17	0.101800	0.575300	0.051000
C181	C18	0.159400	0.423300	0.106600
C191	C19	0.308400	0.616300	0.216100
C201	C20	0.246000	0.779600	0.166700
C211	C21	0.192100	0.703800	0.909200
C221	C22	0.040400	0.835700	0.930400
C231	C23	0.380600	0.175200	0.103400
C241	C24	0.066100	0.388200	0.195300
C251	C25	0.295000	0.134500	0.190600
C261	C26	0.138000	0.242100	0.237300
C271	C27	0.946600	0.706000	0.077200
C281	C28	0.801300	0.723700	0.168900
C291	C29	0.918800	0.834800	0.014500
C301	C30	0.092000	0.978800	0.466700
N11	N1	0.778700	0.422100	0.032200
N21	N2	0.686300	0.683700	0.937800
N31	N3	0.221300	0.577900	0.967800
N41	N4	0.313700	0.316300	0.062200
O11	O1	0.961200	0.334000	0.495800
O21	O2	0.649800	0.201500	0.911200
O31	O3	0.543600	0.481500	0.825800
O41	O4	0.788100	0.407100	0.707300
O51	O5	0.178700	0.241000	0.757600
O61	O6	0.898800	0.123800	0.795000
O71	O7	0.329600	0.290200	0.836600
O81	O8	0.898700	0.556300	0.407100
O91	O9	0.873200	0.088400	0.610500
O101	O10	0.806400	0.986600	0.505300
O111	O11	0.038800	0.666000	0.504200
O121	O12	0.350200	0.798500	0.088800
O131	O13	0.456400	0.518500	0.174200
O141	O14	0.211900	0.592900	0.292700
O151	O15	0.821300	0.759000	0.242400
O161	O16	0.101200	0.876200	0.205000
O171	O17	0.670400	0.709800	0.163400
O181	O18	0.101300	0.443700	0.592900
O191	O19	0.126800	0.911600	0.389500
O201	O20	0.193600	0.013400	0.494700
