data_FUZPUN_clean_PM
_symmetry_space_group_name_H-M	'P1'
_cell_length_a	21.969000
_cell_length_b	22.463000
_cell_length_c	8.786600
_cell_angle_alpha	90.000000
_cell_angle_beta	90.000000
_cell_angle_gamma	90.000000
_symmetry_Int_Tables_number 1

loop_
_symmetry_equiv_pos_as_xyz
'x,y,z'

loop_
_atom_site_label
_atom_site_type_symbol
_atom_site_fract_x
_atom_site_fract_y
_atom_site_fract_z
C11	C1	0.341900	0.168500	0.676000
C21	C2	0.398100	0.134900	0.645500
C31	C3	0.418400	0.089500	0.738400
H11	H1	0.394200	0.077600	0.819700
C41	C4	0.505700	0.078500	0.596600
H21	H2	0.542800	0.059500	0.580800
C51	C5	0.488600	0.122300	0.496300
H31	H3	0.513100	0.132300	0.413900
C61	C6	0.434300	0.151000	0.520700
H41	H4	0.421700	0.181000	0.454900
N11	N1	0.471890	0.061650	0.716000
N21	N2	0.298200	0.143800	0.759100
H51	H5	0.300900	0.107600	0.790600
N31	N3	0.247050	0.179600	0.793800
H61	H6	0.249800	0.194400	0.888700
H71	H7	0.212400	0.158600	0.785700
O11	O1	0.336370	0.218830	0.622000
C71	C7	0.341900	0.668500	0.176000
C81	C8	0.398100	0.634900	0.145500
C91	C9	0.418400	0.589500	0.238400
H81	H8	0.394200	0.577600	0.319700
C101	C10	0.505700	0.578500	0.096600
H91	H9	0.542800	0.559500	0.080800
C111	C11	0.488600	0.622300	0.996300
H101	H10	0.513100	0.632300	0.913900
C121	C12	0.434300	0.651000	0.020700
H111	H11	0.421700	0.681000	0.954900
N41	N4	0.471890	0.561650	0.216000
N51	N5	0.298200	0.643800	0.259100
H121	H12	0.300900	0.607600	0.290600
N61	N6	0.247050	0.679600	0.293800
H131	H13	0.249800	0.694400	0.388700
H141	H14	0.212400	0.658600	0.285700
O21	O2	0.336370	0.718830	0.122000
C131	C13	0.841900	0.168500	0.176000
C141	C14	0.898100	0.134900	0.145500
C151	C15	0.918400	0.089500	0.238400
H151	H15	0.894200	0.077600	0.319700
C161	C16	0.005700	0.078500	0.096600
H161	H16	0.042800	0.059500	0.080800
C171	C17	0.988600	0.122300	0.996300
H171	H17	0.013100	0.132300	0.913900
C181	C18	0.934300	0.151000	0.020700
H181	H18	0.921700	0.181000	0.954900
N71	N7	0.971890	0.061650	0.216000
N81	N8	0.798200	0.143800	0.259100
H191	H19	0.800900	0.107600	0.290600
N91	N9	0.747050	0.179600	0.293800
H201	H20	0.749800	0.194400	0.388700
H211	H21	0.712400	0.158600	0.285700
O31	O3	0.836370	0.218830	0.122000
C191	C19	0.841900	0.668500	0.676000
C201	C20	0.898100	0.634900	0.645500
C211	C21	0.918400	0.589500	0.738400
H221	H22	0.894200	0.577600	0.819700
C221	C22	0.005700	0.578500	0.596600
H231	H23	0.042800	0.559500	0.580800
C231	C23	0.988600	0.622300	0.496300
H241	H24	0.013100	0.632300	0.413900
C241	C24	0.934300	0.651000	0.520700
H251	H25	0.921700	0.681000	0.454900
N101	N10	0.971890	0.561650	0.716000
N111	N11	0.798200	0.643800	0.759100
H261	H26	0.800900	0.607600	0.790600
N121	N12	0.747050	0.679600	0.793800
H271	H27	0.749800	0.694400	0.888700
H281	H28	0.712400	0.658600	0.785700
O41	O4	0.836370	0.718830	0.622000
C251	C25	0.658100	0.831500	0.676000
C261	C26	0.601900	0.865100	0.645500
C271	C27	0.581600	0.910500	0.738400
H291	H29	0.605800	0.922400	0.819700
C281	C28	0.494300	0.921500	0.596600
H301	H30	0.457200	0.940500	0.580800
C291	C29	0.511400	0.877700	0.496300
H311	H31	0.486900	0.867700	0.413900
C301	C30	0.565700	0.849000	0.520700
H321	H32	0.578300	0.819000	0.454900
N131	N13	0.528110	0.938350	0.716000
N141	N14	0.701800	0.856200	0.759100
H331	H33	0.699100	0.892400	0.790600
N151	N15	0.752950	0.820400	0.793800
H341	H34	0.750200	0.805600	0.888700
H351	H35	0.787600	0.841400	0.785700
O51	O5	0.663630	0.781170	0.622000
C311	C31	0.658100	0.331500	0.176000
C321	C32	0.601900	0.365100	0.145500
C331	C33	0.581600	0.410500	0.238400
H361	H36	0.605800	0.422400	0.319700
C341	C34	0.494300	0.421500	0.096600
H371	H37	0.457200	0.440500	0.080800
C351	C35	0.511400	0.377700	0.996300
H381	H38	0.486900	0.367700	0.913900
C361	C36	0.565700	0.349000	0.020700
H391	H39	0.578300	0.319000	0.954900
N161	N16	0.528110	0.438350	0.216000
N171	N17	0.701800	0.356200	0.259100
H401	H40	0.699100	0.392400	0.290600
N181	N18	0.752950	0.320400	0.293800
H411	H41	0.750200	0.305600	0.388700
H421	H42	0.787600	0.341400	0.285700
O61	O6	0.663630	0.281170	0.122000
C371	C37	0.158100	0.831500	0.176000
C381	C38	0.101900	0.865100	0.145500
C391	C39	0.081600	0.910500	0.238400
H431	H43	0.105800	0.922400	0.319700
C401	C40	0.994300	0.921500	0.096600
H441	H44	0.957200	0.940500	0.080800
C411	C41	0.011400	0.877700	0.996300
H451	H45	0.986900	0.867700	0.913900
C421	C42	0.065700	0.849000	0.020700
H461	H46	0.078300	0.819000	0.954900
N191	N19	0.028110	0.938350	0.216000
N201	N20	0.201800	0.856200	0.259100
H471	H47	0.199100	0.892400	0.290600
N211	N21	0.252950	0.820400	0.293800
H481	H48	0.250200	0.805600	0.388700
H491	H49	0.287600	0.841400	0.285700
O71	O7	0.163630	0.781170	0.122000
C431	C43	0.158100	0.331500	0.676000
C441	C44	0.101900	0.365100	0.645500
C451	C45	0.081600	0.410500	0.738400
H501	H50	0.105800	0.422400	0.819700
C461	C46	0.994300	0.421500	0.596600
H511	H51	0.957200	0.440500	0.580800
C471	C47	0.011400	0.377700	0.496300
H521	H52	0.986900	0.367700	0.413900
C481	C48	0.065700	0.349000	0.520700
H531	H53	0.078300	0.319000	0.454900
N221	N22	0.028110	0.438350	0.716000
N231	N23	0.201800	0.356200	0.759100
H541	H54	0.199100	0.392400	0.790600
N241	N24	0.252950	0.320400	0.793800
H551	H55	0.250200	0.305600	0.888700
H561	H56	0.287600	0.341400	0.785700
O81	O8	0.163630	0.281170	0.622000
C491	C49	0.591900	0.081500	0.926000
C501	C50	0.648100	0.115100	0.895500
C511	C51	0.668400	0.160500	0.988400
H571	H57	0.644200	0.172400	0.069700
C521	C52	0.755700	0.171500	0.846600
H581	H58	0.792800	0.190500	0.830800
C531	C53	0.738600	0.127700	0.746300
H591	H59	0.763100	0.117700	0.663900
C541	C54	0.684300	0.099000	0.770700
H601	H60	0.671700	0.069000	0.704900
N251	N25	0.721890	0.188350	0.966000
N261	N26	0.548200	0.106200	0.009100
H611	H61	0.550900	0.142400	0.040600
N271	N27	0.497050	0.070400	0.043800
H621	H62	0.499800	0.055600	0.138700
H631	H63	0.462400	0.091400	0.035700
O91	O9	0.586370	0.031170	0.872000
C551	C55	0.591900	0.581500	0.426000
C561	C56	0.648100	0.615100	0.395500
C571	C57	0.668400	0.660500	0.488400
H641	H64	0.644200	0.672400	0.569700
C581	C58	0.755700	0.671500	0.346600
H651	H65	0.792800	0.690500	0.330800
C591	C59	0.738600	0.627700	0.246300
H661	H66	0.763100	0.617700	0.163900
C601	C60	0.684300	0.599000	0.270700
H671	H67	0.671700	0.569000	0.204900
N281	N28	0.721890	0.688350	0.466000
N291	N29	0.548200	0.606200	0.509100
H681	H68	0.550900	0.642400	0.540600
N301	N30	0.497050	0.570400	0.543800
H691	H69	0.499800	0.555600	0.638700
H701	H70	0.462400	0.591400	0.535700
O101	O10	0.586370	0.531170	0.372000
C611	C61	0.091900	0.081500	0.426000
C621	C62	0.148100	0.115100	0.395500
C631	C63	0.168400	0.160500	0.488400
H711	H71	0.144200	0.172400	0.569700
C641	C64	0.255700	0.171500	0.346600
H721	H72	0.292800	0.190500	0.330800
C651	C65	0.238600	0.127700	0.246300
H731	H73	0.263100	0.117700	0.163900
C661	C66	0.184300	0.099000	0.270700
H741	H74	0.171700	0.069000	0.204900
N311	N31	0.221890	0.188350	0.466000
N321	N32	0.048200	0.106200	0.509100
H751	H75	0.050900	0.142400	0.540600
N331	N33	0.997050	0.070400	0.543800
H761	H76	0.999800	0.055600	0.638700
H771	H77	0.962400	0.091400	0.535700
O111	O11	0.086370	0.031170	0.372000
C671	C67	0.091900	0.581500	0.926000
C681	C68	0.148100	0.615100	0.895500
C691	C69	0.168400	0.660500	0.988400
H781	H78	0.144200	0.672400	0.069700
C701	C70	0.255700	0.671500	0.846600
H791	H79	0.292800	0.690500	0.830800
C711	C71	0.238600	0.627700	0.746300
H801	H80	0.263100	0.617700	0.663900
C721	C72	0.184300	0.599000	0.770700
H811	H81	0.171700	0.569000	0.704900
N341	N34	0.221890	0.688350	0.966000
N351	N35	0.048200	0.606200	0.009100
H821	H82	0.050900	0.642400	0.040600
N361	N36	0.997050	0.570400	0.043800
H831	H83	0.999800	0.555600	0.138700
H841	H84	0.962400	0.591400	0.035700
O121	O12	0.086370	0.531170	0.872000
C731	C73	0.908100	0.418500	0.926000
C741	C74	0.851900	0.384900	0.895500
C751	C75	0.831600	0.339500	0.988400
H851	H85	0.855800	0.327600	0.069700
C761	C76	0.744300	0.328500	0.846600
H861	H86	0.707200	0.309500	0.830800
C771	C77	0.761400	0.372300	0.746300
H871	H87	0.736900	0.382300	0.663900
C781	C78	0.815700	0.401000	0.770700
H881	H88	0.828300	0.431000	0.704900
N371	N37	0.778110	0.311650	0.966000
N381	N38	0.951800	0.393800	0.009100
H891	H89	0.949100	0.357600	0.040600
N391	N39	0.002950	0.429600	0.043800
H901	H90	0.000200	0.444400	0.138700
H911	H91	0.037600	0.408600	0.035700
O131	O13	0.913630	0.468830	0.872000
C791	C79	0.908100	0.918500	0.426000
C801	C80	0.851900	0.884900	0.395500
C811	C81	0.831600	0.839500	0.488400
H921	H92	0.855800	0.827600	0.569700
C821	C82	0.744300	0.828500	0.346600
H931	H93	0.707200	0.809500	0.330800
C831	C83	0.761400	0.872300	0.246300
H941	H94	0.736900	0.882300	0.163900
C841	C84	0.815700	0.901000	0.270700
H951	H95	0.828300	0.931000	0.204900
N401	N40	0.778110	0.811650	0.466000
N411	N41	0.951800	0.893800	0.509100
H961	H96	0.949100	0.857600	0.540600
N421	N42	0.002950	0.929600	0.543800
H971	H97	0.000200	0.944400	0.638700
H981	H98	0.037600	0.908600	0.535700
O141	O14	0.913630	0.968830	0.372000
C851	C85	0.408100	0.418500	0.426000
C861	C86	0.351900	0.384900	0.395500
C871	C87	0.331600	0.339500	0.488400
H991	H99	0.355800	0.327600	0.569700
C881	C88	0.244300	0.328500	0.346600
H1001	H100	0.207200	0.309500	0.330800
C891	C89	0.261400	0.372300	0.246300
H1011	H101	0.236900	0.382300	0.163900
C901	C90	0.315700	0.401000	0.270700
H1021	H102	0.328300	0.431000	0.204900
N431	N43	0.278110	0.311650	0.466000
N441	N44	0.451800	0.393800	0.509100
H1031	H103	0.449100	0.357600	0.540600
N451	N45	0.502950	0.429600	0.543800
H1041	H104	0.500200	0.444400	0.638700
H1051	H105	0.537600	0.408600	0.535700
O151	O15	0.413630	0.468830	0.372000
C911	C91	0.408100	0.918500	0.926000
C921	C92	0.351900	0.884900	0.895500
C931	C93	0.331600	0.839500	0.988400
H1061	H106	0.355800	0.827600	0.069700
C941	C94	0.244300	0.828500	0.846600
H1071	H107	0.207200	0.809500	0.830800
C951	C95	0.261400	0.872300	0.746300
H1081	H108	0.236900	0.882300	0.663900
C961	C96	0.315700	0.901000	0.770700
H1091	H109	0.328300	0.931000	0.704900
N461	N46	0.278110	0.811650	0.966000
N471	N47	0.451800	0.893800	0.009100
H1101	H110	0.449100	0.857600	0.040600
N481	N48	0.502950	0.929600	0.043800
H1111	H111	0.500200	0.944400	0.138700
H1121	H112	0.537600	0.908600	0.035700
O161	O16	0.413630	0.968830	0.872000
Ni11	Ni1	0.250000	0.250000	0.627030
Ni21	Ni2	0.250000	0.750000	0.127030
Ni31	Ni3	0.750000	0.750000	0.627030
Ni41	Ni4	0.750000	0.250000	0.127030
Ni51	Ni5	0.500000	0.000000	0.877030
Ni61	Ni6	0.500000	0.500000	0.377030
Ni71	Ni7	0.000000	0.500000	0.877030
Ni81	Ni8	0.000000	0.000000	0.377030
