data_GACPUX_clean_PM
_symmetry_space_group_name_H-M	'P1'
_cell_length_a	10.136500
_cell_length_b	11.413400
_cell_length_c	29.279400
_cell_angle_alpha	90.000000
_cell_angle_beta	90.000000
_cell_angle_gamma	90.000000
_symmetry_Int_Tables_number 1

loop_
_symmetry_equiv_pos_as_xyz
'x,y,z'

loop_
_atom_site_label
_atom_site_type_symbol
_atom_site_fract_x
_atom_site_fract_y
_atom_site_fract_z
Zn11	Zn1	0.341390	0.315380	0.006980
Zn21	Zn2	0.034690	0.430190	0.006230
Zn31	Zn3	0.158610	0.684620	0.506980
Zn41	Zn4	0.465310	0.569810	0.506230
Zn51	Zn5	0.658610	0.815380	0.493020
Zn61	Zn6	0.965310	0.930190	0.493770
Zn71	Zn7	0.841390	0.184620	0.993020
Zn81	Zn8	0.534690	0.069810	0.993770
H11	H1	0.249200	0.018700	0.977900
H21	H2	0.133900	0.871700	0.020000
H31	H3	0.090200	0.773500	0.088800
H41	H4	0.164500	0.852500	0.157800
H51	H5	0.274100	0.032600	0.158800
H61	H6	0.314400	0.131800	0.089800
H71	H7	0.035300	0.487600	0.866300
H81	H8	0.050000	0.517200	0.787700
H91	H9	0.446900	0.475200	0.793700
H101	H10	0.432000	0.440900	0.872300
H111	H11	0.121200	0.646600	0.728400
H121	H12	0.135100	0.676300	0.649900
H131	H13	0.417000	0.425100	0.641800
H141	H14	0.397600	0.391900	0.720300
H151	H15	0.250800	0.981300	0.477900
H161	H16	0.366100	0.128300	0.520000
H171	H17	0.409800	0.226500	0.588800
H181	H18	0.335500	0.147500	0.657800
H191	H19	0.225900	0.967400	0.658800
H201	H20	0.185600	0.868200	0.589800
H211	H21	0.464700	0.512400	0.366300
H221	H22	0.450000	0.482800	0.287700
H231	H23	0.053100	0.524800	0.293700
H241	H24	0.068000	0.559100	0.372300
H251	H25	0.378800	0.353400	0.228400
H261	H26	0.364900	0.323700	0.149900
H271	H27	0.083000	0.574900	0.141800
H281	H28	0.102400	0.608100	0.220300
H291	H29	0.750800	0.518700	0.522100
H301	H30	0.866100	0.371700	0.480000
H311	H31	0.909800	0.273500	0.411200
H321	H32	0.835500	0.352500	0.342200
H331	H33	0.725900	0.532600	0.341200
H341	H34	0.685600	0.631800	0.410200
H351	H35	0.964700	0.987600	0.633700
H361	H36	0.950000	0.017200	0.712300
H371	H37	0.553100	0.975200	0.706300
H381	H38	0.568000	0.940900	0.627700
H391	H39	0.878800	0.146600	0.771600
H401	H40	0.864900	0.176300	0.850100
H411	H41	0.583000	0.925100	0.858200
H421	H42	0.602400	0.891900	0.779700
H431	H43	0.749200	0.481300	0.022100
H441	H44	0.633900	0.628300	0.980000
H451	H45	0.590200	0.726500	0.911200
H461	H46	0.664500	0.647500	0.842200
H471	H47	0.774100	0.467400	0.841200
H481	H48	0.814400	0.368200	0.910200
H491	H49	0.535300	0.012400	0.133700
H501	H50	0.550000	0.982800	0.212300
H511	H51	0.946900	0.024800	0.206300
H521	H52	0.932000	0.059100	0.127700
H531	H53	0.621200	0.853400	0.271600
H541	H54	0.635100	0.823700	0.350100
H551	H55	0.917000	0.074900	0.358200
H561	H56	0.897600	0.108100	0.279700
C11	C1	0.125500	0.155700	0.997600
C21	C2	0.247200	0.077200	0.003350
C31	C3	0.228500	0.012500	0.048600
C41	C4	0.161900	0.904700	0.048130
C51	C5	0.136700	0.845700	0.089050
C61	C6	0.179900	0.893300	0.130060
C71	C7	0.245500	0.999800	0.130710
C81	C8	0.269400	0.058800	0.089440
C91	C9	0.223300	0.436800	0.926840
C101	C10	0.232800	0.461000	0.876850
C111	C11	0.118600	0.484200	0.851550
C121	C12	0.127700	0.502200	0.804880
C131	C13	0.249100	0.498700	0.782810
C141	C14	0.363300	0.476700	0.808390
C151	C15	0.354500	0.457000	0.855190
C161	C16	0.257100	0.516800	0.732480
C171	C17	0.180900	0.600800	0.710840
C181	C18	0.189900	0.619600	0.664180
C191	C19	0.279300	0.555300	0.638360
C201	C20	0.356600	0.470000	0.659340
C211	C21	0.345200	0.450500	0.706130
C221	C22	0.290900	0.577000	0.588100
C231	C23	0.374500	0.844300	0.497600
C241	C24	0.252800	0.922800	0.503350
C251	C25	0.271500	0.987500	0.548600
C261	C26	0.338100	0.095300	0.548130
C271	C27	0.363300	0.154300	0.589050
C281	C28	0.320100	0.106700	0.630060
C291	C29	0.254500	0.000200	0.630710
C301	C30	0.230600	0.941200	0.589440
C311	C31	0.276700	0.563200	0.426840
C321	C32	0.267200	0.539000	0.376850
C331	C33	0.381400	0.515800	0.351550
C341	C34	0.372300	0.497800	0.304880
C351	C35	0.250900	0.501300	0.282810
C361	C36	0.136700	0.523300	0.308390
C371	C37	0.145500	0.543000	0.355190
C381	C38	0.242900	0.483200	0.232480
C391	C39	0.319100	0.399200	0.210840
C401	C40	0.310100	0.380400	0.164180
C411	C41	0.220700	0.444700	0.138360
C421	C42	0.143400	0.530000	0.159340
C431	C43	0.154800	0.549500	0.206130
C441	C44	0.209100	0.423000	0.088100
C451	C45	0.874500	0.655700	0.502400
C461	C46	0.752800	0.577200	0.496650
C471	C47	0.771500	0.512500	0.451400
C481	C48	0.838100	0.404700	0.451870
C491	C49	0.863300	0.345700	0.410950
C501	C50	0.820100	0.393300	0.369940
C511	C51	0.754500	0.499800	0.369290
C521	C52	0.730600	0.558800	0.410560
C531	C53	0.776700	0.936800	0.573160
C541	C54	0.767200	0.961000	0.623150
C551	C55	0.881400	0.984200	0.648450
C561	C56	0.872300	0.002200	0.695120
C571	C57	0.750900	0.998700	0.717190
C581	C58	0.636700	0.976700	0.691610
C591	C59	0.645500	0.957000	0.644810
C601	C60	0.742900	0.016800	0.767520
C611	C61	0.819100	0.100800	0.789160
C621	C62	0.810100	0.119600	0.835820
C631	C63	0.720700	0.055300	0.861640
C641	C64	0.643400	0.970000	0.840660
C651	C65	0.654800	0.950500	0.793870
C661	C66	0.709100	0.077000	0.911900
C671	C67	0.625500	0.344300	0.002400
C681	C68	0.747200	0.422800	0.996650
C691	C69	0.728500	0.487500	0.951400
C701	C70	0.661900	0.595300	0.951870
C711	C71	0.636700	0.654300	0.910950
C721	C72	0.679900	0.606700	0.869940
C731	C73	0.745500	0.500200	0.869290
C741	C74	0.769400	0.441200	0.910560
C751	C75	0.723300	0.063200	0.073160
C761	C76	0.732800	0.039000	0.123150
C771	C77	0.618600	0.015800	0.148450
C781	C78	0.627700	0.997800	0.195120
C791	C79	0.749100	0.001300	0.217190
C801	C80	0.863300	0.023300	0.191610
C811	C81	0.854500	0.043000	0.144810
C821	C82	0.757100	0.983200	0.267520
C831	C83	0.680900	0.899200	0.289160
C841	C84	0.689900	0.880400	0.335820
C851	C85	0.779300	0.944700	0.361640
C861	C86	0.856600	0.030000	0.340660
C871	C87	0.845200	0.049500	0.293870
C881	C88	0.790900	0.923000	0.411900
O11	O1	0.139200	0.264600	0.003910
O21	O2	0.019100	0.105700	0.987640
O31	O3	0.364100	0.145000	0.001870
O41	O4	0.320100	0.391300	0.945840
O51	O5	0.117300	0.468700	0.946620
O61	O6	0.193900	0.629100	0.569780
O71	O7	0.393700	0.542500	0.568100
O81	O8	0.360800	0.735400	0.503910
O91	O9	0.480900	0.894300	0.487640
O101	O10	0.135900	0.855000	0.501870
O111	O11	0.179900	0.608700	0.445840
O121	O12	0.382700	0.531300	0.446620
O131	O13	0.306100	0.370900	0.069780
O141	O14	0.106300	0.457500	0.068100
O151	O15	0.860800	0.764600	0.496090
O161	O16	0.980900	0.605700	0.512360
O171	O17	0.635900	0.645000	0.498130
O181	O18	0.679900	0.891300	0.554160
O191	O19	0.882700	0.968700	0.553380
O201	O20	0.806100	0.129100	0.930220
O211	O21	0.606300	0.042500	0.931900
O221	O22	0.639200	0.235400	0.996090
O231	O23	0.519100	0.394300	0.012360
O241	O24	0.864100	0.355000	0.998130
O251	O25	0.820100	0.108700	0.054160
O261	O26	0.617300	0.031300	0.053380
O271	O27	0.693900	0.870900	0.430220
O281	O28	0.893700	0.957500	0.431900
