data_GADMAA01_clean_PM
_symmetry_space_group_name_H-M	'P1'
_cell_length_a	14.510200
_cell_length_b	14.510200
_cell_length_c	15.832000
_cell_angle_alpha	90.000000
_cell_angle_beta	90.000000
_cell_angle_gamma	120.000000
_symmetry_Int_Tables_number 1

loop_
_symmetry_equiv_pos_as_xyz
'x,y,z'

loop_
_atom_site_label
_atom_site_type_symbol
_atom_site_fract_x
_atom_site_fract_y
_atom_site_fract_z
O11	O1	0.944200	0.383000	0.090700
C11	C1	0.868000	0.350200	0.139000
O21	O2	0.804500	0.385300	0.145800
C21	C2	0.850300	0.259500	0.194400
H11	H1	0.833700	0.196600	0.159200
H21	H2	0.915700	0.279000	0.227000
O31	O3	0.617000	0.561200	0.090700
C31	C3	0.649800	0.517800	0.139000
O41	O4	0.614700	0.419200	0.145800
C41	C4	0.740500	0.590800	0.194400
H31	H3	0.803400	0.637100	0.159200
H41	H4	0.721000	0.636700	0.227000
O51	O5	0.438800	0.055800	0.090700
C51	C5	0.482200	0.132000	0.139000
O61	O6	0.580800	0.195500	0.145800
C61	C6	0.409200	0.149700	0.194400
H51	H5	0.362900	0.166300	0.159200
H61	H6	0.363300	0.084300	0.227000
O71	O7	0.055800	0.617000	0.090700
C71	C7	0.132000	0.649800	0.139000
O81	O8	0.195500	0.614700	0.145800
C81	C8	0.149700	0.740500	0.194400
H71	H7	0.166300	0.803400	0.159200
H81	H8	0.084300	0.721000	0.227000
O91	O9	0.383000	0.438800	0.090700
C91	C9	0.350200	0.482200	0.139000
O101	O10	0.385300	0.580800	0.145800
C101	C10	0.259500	0.409200	0.194400
H91	H9	0.196600	0.362900	0.159200
H101	H10	0.279000	0.363300	0.227000
O111	O11	0.561200	0.944200	0.090700
C111	C11	0.517800	0.868000	0.139000
O121	O12	0.419200	0.804500	0.145800
C121	C12	0.590800	0.850300	0.194400
H111	H11	0.637100	0.833700	0.159200
H121	H12	0.636700	0.915700	0.227000
O131	O13	0.383000	0.944200	0.409300
C131	C13	0.350200	0.868000	0.361000
O141	O14	0.385300	0.804500	0.354200
C141	C14	0.259500	0.850300	0.305600
H131	H13	0.196600	0.833700	0.340800
H141	H14	0.279000	0.915700	0.273000
O151	O15	0.561200	0.617000	0.409300
C151	C15	0.517800	0.649800	0.361000
O161	O16	0.419200	0.614700	0.354200
C161	C16	0.590800	0.740500	0.305600
H151	H15	0.637100	0.803400	0.340800
H161	H16	0.636700	0.721000	0.273000
O171	O17	0.055800	0.438800	0.409300
C171	C17	0.132000	0.482200	0.361000
O181	O18	0.195500	0.580800	0.354200
C181	C18	0.149700	0.409200	0.305600
H171	H17	0.166300	0.362900	0.340800
H181	H18	0.084300	0.363300	0.273000
O191	O19	0.617000	0.055800	0.409300
C191	C19	0.649800	0.132000	0.361000
O201	O20	0.614700	0.195500	0.354200
C201	C20	0.740500	0.149700	0.305600
H191	H19	0.803400	0.166300	0.340800
H201	H20	0.721000	0.084300	0.273000
O211	O21	0.438800	0.383000	0.409300
C211	C21	0.482200	0.350200	0.361000
O221	O22	0.580800	0.385300	0.354200
C221	C22	0.409200	0.259500	0.305600
H211	H21	0.362900	0.196600	0.340800
H221	H22	0.363300	0.279000	0.273000
O231	O23	0.944200	0.561200	0.409300
C231	C23	0.868000	0.517800	0.361000
O241	O24	0.804500	0.419200	0.354200
C241	C24	0.850300	0.590800	0.305600
H231	H23	0.833700	0.637100	0.340800
H241	H24	0.915700	0.636700	0.273000
O251	O25	0.055800	0.617000	0.909300
C251	C25	0.132000	0.649800	0.861000
O261	O26	0.195500	0.614700	0.854200
C261	C26	0.149700	0.740500	0.805600
H251	H25	0.166300	0.803400	0.840800
H261	H26	0.084300	0.721000	0.773000
O271	O27	0.383000	0.438800	0.909300
C271	C27	0.350200	0.482200	0.861000
O281	O28	0.385300	0.580800	0.854200
C281	C28	0.259500	0.409200	0.805600
H271	H27	0.196600	0.362900	0.840800
H281	H28	0.279000	0.363300	0.773000
O291	O29	0.561200	0.944200	0.909300
C291	C29	0.517800	0.868000	0.861000
O301	O30	0.419200	0.804500	0.854200
C301	C30	0.590800	0.850300	0.805600
H291	H29	0.637100	0.833700	0.840800
H301	H30	0.636700	0.915700	0.773000
O311	O31	0.944200	0.383000	0.909300
C311	C31	0.868000	0.350200	0.861000
O321	O32	0.804500	0.385300	0.854200
C321	C32	0.850300	0.259500	0.805600
H311	H31	0.833700	0.196600	0.840800
H321	H32	0.915700	0.279000	0.773000
O331	O33	0.617000	0.561200	0.909300
C331	C33	0.649800	0.517800	0.861000
O341	O34	0.614700	0.419200	0.854200
C341	C34	0.740500	0.590800	0.805600
H331	H33	0.803400	0.637100	0.840800
H341	H34	0.721000	0.636700	0.773000
O351	O35	0.438800	0.055800	0.909300
C351	C35	0.482200	0.132000	0.861000
O361	O36	0.580800	0.195500	0.854200
C361	C36	0.409200	0.149700	0.805600
H351	H35	0.362900	0.166300	0.840800
H361	H36	0.363300	0.084300	0.773000
O371	O37	0.617000	0.055800	0.590700
C371	C37	0.649800	0.132000	0.639000
O381	O38	0.614700	0.195500	0.645800
C381	C38	0.740500	0.149700	0.694400
H371	H37	0.803400	0.166300	0.659200
H381	H38	0.721000	0.084300	0.727000
O391	O39	0.438800	0.383000	0.590700
C391	C39	0.482200	0.350200	0.639000
O401	O40	0.580800	0.385300	0.645800
C401	C40	0.409200	0.259500	0.694400
H391	H39	0.362900	0.196600	0.659200
H401	H40	0.363300	0.279000	0.727000
O411	O41	0.944200	0.561200	0.590700
C411	C41	0.868000	0.517800	0.639000
O421	O42	0.804500	0.419200	0.645800
C421	C42	0.850300	0.590800	0.694400
H411	H41	0.833700	0.637100	0.659200
H421	H42	0.915700	0.636700	0.727000
O431	O43	0.383000	0.944200	0.590700
C431	C43	0.350200	0.868000	0.639000
O441	O44	0.385300	0.804500	0.645800
C441	C44	0.259500	0.850300	0.694400
H431	H43	0.196600	0.833700	0.659200
H441	H44	0.279000	0.915700	0.727000
O451	O45	0.561200	0.617000	0.590700
C451	C45	0.517800	0.649800	0.639000
O461	O46	0.419200	0.614700	0.645800
C461	C46	0.590800	0.740500	0.694400
H451	H45	0.637100	0.803400	0.659200
H461	H46	0.636700	0.721000	0.727000
O471	O47	0.055800	0.438800	0.590700
C471	C47	0.132000	0.482200	0.639000
O481	O48	0.195500	0.580800	0.645800
C481	C48	0.149700	0.409200	0.694400
H471	H47	0.166300	0.362900	0.659200
H481	H48	0.084300	0.363300	0.727000
Gd11	Gd1	0.666670	0.333330	0.250000
Gd21	Gd2	0.333330	0.666670	0.250000
Gd31	Gd3	0.333330	0.666670	0.750000
Gd41	Gd4	0.666670	0.333330	0.750000
Zn11	Zn1	0.000000	0.500000	0.000000
Zn21	Zn2	0.500000	0.500000	0.000000
Zn31	Zn3	0.500000	0.000000	0.000000
Zn41	Zn4	0.500000	0.000000	0.500000
Zn51	Zn5	0.500000	0.500000	0.500000
Zn61	Zn6	0.000000	0.500000	0.500000
O491	O49	0.765300	0.234700	0.250000
O501	O50	0.765300	0.530600	0.250000
O511	O51	0.469400	0.234700	0.250000
O521	O52	0.234700	0.765300	0.250000
O531	O53	0.234700	0.469400	0.250000
O541	O54	0.530600	0.765300	0.250000
O551	O55	0.234700	0.765300	0.750000
O561	O56	0.234700	0.469400	0.750000
O571	O57	0.530600	0.765300	0.750000
O581	O58	0.765300	0.234700	0.750000
O591	O59	0.765300	0.530600	0.750000
O601	O60	0.469400	0.234700	0.750000
