data_GADNUX_clean_PM
_symmetry_space_group_name_H-M	'P1'
_cell_length_a	26.956000
_cell_length_b	26.956000
_cell_length_c	39.145000
_cell_angle_alpha	90.000000
_cell_angle_beta	90.000000
_cell_angle_gamma	90.000000
_symmetry_Int_Tables_number 1

loop_
_symmetry_equiv_pos_as_xyz
'x,y,z'

loop_
_atom_site_label
_atom_site_type_symbol
_atom_site_fract_x
_atom_site_fract_y
_atom_site_fract_z
Cu11	Cu1	0.751770	0.122430	0.195890
Cu21	Cu2	0.814880	0.091690	0.147670
O11	O1	0.831700	0.346400	0.035650
O21	O2	0.858000	0.267100	0.035540
O31	O3	0.751100	0.182480	0.166890
O41	O4	0.800300	0.154300	0.124830
O51	O5	0.736200	0.560800	0.281350
O61	O6	0.680300	0.535600	0.321460
O71	O7	0.645900	0.312900	0.284070
O81	O8	0.624600	0.364800	0.325770
O91	O9	0.926100	0.376800	0.035610
O101	O10	0.951900	0.295400	0.036170
O111	O11	0.090300	0.297200	0.166680
O121	O12	0.062400	0.242200	0.128280
N11	N1	0.760100	0.416200	0.143400
N21	N2	0.742800	0.442900	0.172500
H11	H1	0.742200	0.474500	0.175300
N31	N3	0.734600	0.364900	0.183100
N41	N4	0.003000	0.475200	0.164500
C11	C1	0.751000	0.368900	0.153400
C21	C2	0.727600	0.408200	0.194600
C31	C3	0.764200	0.328400	0.132200
C41	C4	0.785500	0.334000	0.098500
H21	H2	0.786300	0.365300	0.088400
C51	C5	0.805500	0.291800	0.080300
C61	C6	0.799700	0.245400	0.094200
H31	H3	0.811200	0.218300	0.081900
C71	C7	0.778200	0.237000	0.124600
C81	C8	0.759300	0.279900	0.143900
H41	H4	0.743400	0.274400	0.164600
C91	C9	0.835800	0.302000	0.046900
C101	C10	0.777200	0.185500	0.139400
C111	C11	0.710800	0.424900	0.228100
C121	C12	0.717700	0.471900	0.244000
H51	H5	0.735400	0.496900	0.233100
C131	C13	0.698300	0.479600	0.275300
C141	C14	0.672600	0.440500	0.292800
H61	H6	0.659200	0.446000	0.314400
C151	C15	0.667800	0.394900	0.277500
C161	C16	0.688000	0.389100	0.245600
H71	H7	0.685700	0.358000	0.235400
C171	C17	0.706500	0.531100	0.294900
C181	C18	0.643200	0.354000	0.298700
C191	C19	0.003800	0.461000	0.132400
C201	C20	0.006400	0.411600	0.120000
C211	C21	0.984300	0.400700	0.091500
H81	H8	0.968300	0.426100	0.079700
C221	C22	0.983000	0.352800	0.077200
C231	C23	0.011400	0.316600	0.092800
H91	H9	0.013100	0.285400	0.082800
C241	C24	0.038100	0.325100	0.123700
C251	C25	0.034300	0.376300	0.136800
H101	H10	0.051000	0.384900	0.156700
C261	C26	0.951200	0.339100	0.046700
C271	C27	0.066100	0.283200	0.140600
H111	H11	0.005600	0.456400	0.182100
Cu31	Cu3	0.248230	0.877570	0.195890
Cu41	Cu4	0.185120	0.908310	0.147670
O131	O13	0.168300	0.653600	0.035650
O141	O14	0.142000	0.732900	0.035540
O151	O15	0.248900	0.817520	0.166890
O161	O16	0.199700	0.845700	0.124830
O171	O17	0.263800	0.439200	0.281350
O181	O18	0.319700	0.464400	0.321460
O191	O19	0.354100	0.687100	0.284070
O201	O20	0.375400	0.635200	0.325770
O211	O21	0.073900	0.623200	0.035610
O221	O22	0.048100	0.704600	0.036170
O231	O23	0.909700	0.702800	0.166680
O241	O24	0.937600	0.757800	0.128280
N51	N5	0.239900	0.583800	0.143400
N61	N6	0.257200	0.557100	0.172500
H121	H12	0.257800	0.525500	0.175300
N71	N7	0.265400	0.635100	0.183100
N81	N8	0.997000	0.524800	0.164500
C281	C28	0.249000	0.631100	0.153400
C291	C29	0.272400	0.591800	0.194600
C301	C30	0.235800	0.671600	0.132200
C311	C31	0.214500	0.666000	0.098500
H131	H13	0.213700	0.634700	0.088400
C321	C32	0.194500	0.708200	0.080300
C331	C33	0.200300	0.754600	0.094200
H141	H14	0.188800	0.781700	0.081900
C341	C34	0.221800	0.763000	0.124600
C351	C35	0.240700	0.720100	0.143900
H151	H15	0.256600	0.725600	0.164600
C361	C36	0.164200	0.698000	0.046900
C371	C37	0.222800	0.814500	0.139400
C381	C38	0.289200	0.575100	0.228100
C391	C39	0.282300	0.528100	0.244000
H161	H16	0.264600	0.503100	0.233100
C401	C40	0.301700	0.520400	0.275300
C411	C41	0.327400	0.559500	0.292800
H171	H17	0.340800	0.554000	0.314400
C421	C42	0.332200	0.605100	0.277500
C431	C43	0.312000	0.610900	0.245600
H181	H18	0.314300	0.642000	0.235400
C441	C44	0.293500	0.468900	0.294900
C451	C45	0.356800	0.646000	0.298700
C461	C46	0.996200	0.539000	0.132400
C471	C47	0.993600	0.588400	0.120000
C481	C48	0.015700	0.599300	0.091500
H191	H19	0.031700	0.573900	0.079700
C491	C49	0.017000	0.647200	0.077200
C501	C50	0.988600	0.683400	0.092800
H201	H20	0.986900	0.714600	0.082800
C511	C51	0.961900	0.674900	0.123700
C521	C52	0.965700	0.623700	0.136800
H211	H21	0.949000	0.615100	0.156700
C531	C53	0.048800	0.660900	0.046700
C541	C54	0.933900	0.716800	0.140600
H221	H22	0.994400	0.543600	0.182100
Cu51	Cu5	0.877570	0.751770	0.195890
Cu61	Cu6	0.908310	0.814880	0.147670
O251	O25	0.653600	0.831700	0.035650
O261	O26	0.732900	0.858000	0.035540
O271	O27	0.817520	0.751100	0.166890
O281	O28	0.845700	0.800300	0.124830
O291	O29	0.439200	0.736200	0.281350
O301	O30	0.464400	0.680300	0.321460
O311	O31	0.687100	0.645900	0.284070
O321	O32	0.635200	0.624600	0.325770
O331	O33	0.623200	0.926100	0.035610
O341	O34	0.704600	0.951900	0.036170
O351	O35	0.702800	0.090300	0.166680
O361	O36	0.757800	0.062400	0.128280
N91	N9	0.583800	0.760100	0.143400
N101	N10	0.557100	0.742800	0.172500
H231	H23	0.525500	0.742200	0.175300
N111	N11	0.635100	0.734600	0.183100
N121	N12	0.524800	0.003000	0.164500
C551	C55	0.631100	0.751000	0.153400
C561	C56	0.591800	0.727600	0.194600
C571	C57	0.671600	0.764200	0.132200
C581	C58	0.666000	0.785500	0.098500
H241	H24	0.634700	0.786300	0.088400
C591	C59	0.708200	0.805500	0.080300
C601	C60	0.754600	0.799700	0.094200
H251	H25	0.781700	0.811200	0.081900
C611	C61	0.763000	0.778200	0.124600
C621	C62	0.720100	0.759300	0.143900
H261	H26	0.725600	0.743400	0.164600
C631	C63	0.698000	0.835800	0.046900
C641	C64	0.814500	0.777200	0.139400
C651	C65	0.575100	0.710800	0.228100
C661	C66	0.528100	0.717700	0.244000
H271	H27	0.503100	0.735400	0.233100
C671	C67	0.520400	0.698300	0.275300
C681	C68	0.559500	0.672600	0.292800
H281	H28	0.554000	0.659200	0.314400
C691	C69	0.605100	0.667800	0.277500
C701	C70	0.610900	0.688000	0.245600
H291	H29	0.642000	0.685700	0.235400
C711	C71	0.468900	0.706500	0.294900
C721	C72	0.646000	0.643200	0.298700
C731	C73	0.539000	0.003800	0.132400
C741	C74	0.588400	0.006400	0.120000
C751	C75	0.599300	0.984300	0.091500
H301	H30	0.573900	0.968300	0.079700
C761	C76	0.647200	0.983000	0.077200
C771	C77	0.683400	0.011400	0.092800
H311	H31	0.714600	0.013100	0.082800
C781	C78	0.674900	0.038100	0.123700
C791	C79	0.623700	0.034300	0.136800
H321	H32	0.615100	0.051000	0.156700
C801	C80	0.660900	0.951200	0.046700
C811	C81	0.716800	0.066100	0.140600
H331	H33	0.543600	0.005600	0.182100
Cu71	Cu7	0.122430	0.248230	0.195890
Cu81	Cu8	0.091690	0.185120	0.147670
O371	O37	0.346400	0.168300	0.035650
O381	O38	0.267100	0.142000	0.035540
O391	O39	0.182480	0.248900	0.166890
O401	O40	0.154300	0.199700	0.124830
O411	O41	0.560800	0.263800	0.281350
O421	O42	0.535600	0.319700	0.321460
O431	O43	0.312900	0.354100	0.284070
O441	O44	0.364800	0.375400	0.325770
O451	O45	0.376800	0.073900	0.035610
O461	O46	0.295400	0.048100	0.036170
O471	O47	0.297200	0.909700	0.166680
O481	O48	0.242200	0.937600	0.128280
N131	N13	0.416200	0.239900	0.143400
N141	N14	0.442900	0.257200	0.172500
H341	H34	0.474500	0.257800	0.175300
N151	N15	0.364900	0.265400	0.183100
N161	N16	0.475200	0.997000	0.164500
C821	C82	0.368900	0.249000	0.153400
C831	C83	0.408200	0.272400	0.194600
C841	C84	0.328400	0.235800	0.132200
C851	C85	0.334000	0.214500	0.098500
H351	H35	0.365300	0.213700	0.088400
C861	C86	0.291800	0.194500	0.080300
C871	C87	0.245400	0.200300	0.094200
H361	H36	0.218300	0.188800	0.081900
C881	C88	0.237000	0.221800	0.124600
C891	C89	0.279900	0.240700	0.143900
H371	H37	0.274400	0.256600	0.164600
C901	C90	0.302000	0.164200	0.046900
C911	C91	0.185500	0.222800	0.139400
C921	C92	0.424900	0.289200	0.228100
C931	C93	0.471900	0.282300	0.244000
H381	H38	0.496900	0.264600	0.233100
C941	C94	0.479600	0.301700	0.275300
C951	C95	0.440500	0.327400	0.292800
H391	H39	0.446000	0.340800	0.314400
C961	C96	0.394900	0.332200	0.277500
C971	C97	0.389100	0.312000	0.245600
H401	H40	0.358000	0.314300	0.235400
C981	C98	0.531100	0.293500	0.294900
C991	C99	0.354000	0.356800	0.298700
C1001	C100	0.461000	0.996200	0.132400
C1011	C101	0.411600	0.993600	0.120000
C1021	C102	0.400700	0.015700	0.091500
H411	H41	0.426100	0.031700	0.079700
C1031	C103	0.352800	0.017000	0.077200
C1041	C104	0.316600	0.988600	0.092800
H421	H42	0.285400	0.986900	0.082800
C1051	C105	0.325100	0.961900	0.123700
C1061	C106	0.376300	0.965700	0.136800
H431	H43	0.384900	0.949000	0.156700
C1071	C107	0.339100	0.048800	0.046700
C1081	C108	0.283200	0.933900	0.140600
H441	H44	0.456400	0.994400	0.182100
Cu91	Cu9	0.748230	0.622430	0.304110
Cu101	Cu10	0.685120	0.591690	0.352330
O491	O49	0.668300	0.846400	0.464350
O501	O50	0.642000	0.767100	0.464460
O511	O51	0.748900	0.682480	0.333110
O521	O52	0.699700	0.654300	0.375170
O531	O53	0.763800	0.060800	0.218650
O541	O54	0.819700	0.035600	0.178540
O551	O55	0.854100	0.812900	0.215930
O561	O56	0.875400	0.864800	0.174230
O571	O57	0.573900	0.876800	0.464390
O581	O58	0.548100	0.795400	0.463830
O591	O59	0.409700	0.797200	0.333320
O601	O60	0.437600	0.742200	0.371720
N171	N17	0.739900	0.916200	0.356600
N181	N18	0.757200	0.942900	0.327500
H451	H45	0.757800	0.974500	0.324700
N191	N19	0.765400	0.864900	0.316900
N201	N20	0.497000	0.975200	0.335500
C1091	C109	0.749000	0.868900	0.346600
C1101	C110	0.772400	0.908200	0.305400
C1111	C111	0.735800	0.828400	0.367800
C1121	C112	0.714500	0.834000	0.401500
H461	H46	0.713700	0.865300	0.411600
C1131	C113	0.694500	0.791800	0.419700
C1141	C114	0.700300	0.745400	0.405800
H471	H47	0.688800	0.718300	0.418100
C1151	C115	0.721800	0.737000	0.375400
C1161	C116	0.740700	0.779900	0.356100
H481	H48	0.756600	0.774400	0.335400
C1171	C117	0.664200	0.802000	0.453100
C1181	C118	0.722800	0.685500	0.360600
C1191	C119	0.789200	0.924900	0.271900
C1201	C120	0.782300	0.971900	0.256000
H491	H49	0.764600	0.996900	0.266900
C1211	C121	0.801700	0.979600	0.224700
C1221	C122	0.827400	0.940500	0.207200
H501	H50	0.840800	0.946000	0.185600
C1231	C123	0.832200	0.894900	0.222500
C1241	C124	0.812000	0.889100	0.254400
H511	H51	0.814300	0.858000	0.264600
C1251	C125	0.793500	0.031100	0.205100
C1261	C126	0.856800	0.854000	0.201300
C1271	C127	0.496200	0.961000	0.367600
C1281	C128	0.493600	0.911600	0.380000
C1291	C129	0.515700	0.900700	0.408500
H521	H52	0.531700	0.926100	0.420300
C1301	C130	0.517000	0.852800	0.422800
C1311	C131	0.488600	0.816600	0.407200
H531	H53	0.486900	0.785400	0.417200
C1321	C132	0.461900	0.825100	0.376300
C1331	C133	0.465700	0.876300	0.363200
H541	H54	0.449000	0.884900	0.343300
C1341	C134	0.548800	0.839100	0.453300
C1351	C135	0.433900	0.783200	0.359400
H551	H55	0.494400	0.956400	0.317900
Cu111	Cu11	0.251770	0.377570	0.304110
Cu121	Cu12	0.314880	0.408310	0.352330
O611	O61	0.331700	0.153600	0.464350
O621	O62	0.358000	0.232900	0.464460
O631	O63	0.251100	0.317520	0.333110
O641	O64	0.300300	0.345700	0.375170
O651	O65	0.236200	0.939200	0.218650
O661	O66	0.180300	0.964400	0.178540
O671	O67	0.145900	0.187100	0.215930
O681	O68	0.124600	0.135200	0.174230
O691	O69	0.426100	0.123200	0.464390
O701	O70	0.451900	0.204600	0.463830
O711	O71	0.590300	0.202800	0.333320
O721	O72	0.562400	0.257800	0.371720
N211	N21	0.260100	0.083800	0.356600
N221	N22	0.242800	0.057100	0.327500
H561	H56	0.242200	0.025500	0.324700
N231	N23	0.234600	0.135100	0.316900
N241	N24	0.503000	0.024800	0.335500
C1361	C136	0.251000	0.131100	0.346600
C1371	C137	0.227600	0.091800	0.305400
C1381	C138	0.264200	0.171600	0.367800
C1391	C139	0.285500	0.166000	0.401500
H571	H57	0.286300	0.134700	0.411600
C1401	C140	0.305500	0.208200	0.419700
C1411	C141	0.299700	0.254600	0.405800
H581	H58	0.311200	0.281700	0.418100
C1421	C142	0.278200	0.263000	0.375400
C1431	C143	0.259300	0.220100	0.356100
H591	H59	0.243400	0.225600	0.335400
C1441	C144	0.335800	0.198000	0.453100
C1451	C145	0.277200	0.314500	0.360600
C1461	C146	0.210800	0.075100	0.271900
C1471	C147	0.217700	0.028100	0.256000
H601	H60	0.235400	0.003100	0.266900
C1481	C148	0.198300	0.020400	0.224700
C1491	C149	0.172600	0.059500	0.207200
H611	H61	0.159200	0.054000	0.185600
C1501	C150	0.167800	0.105100	0.222500
C1511	C151	0.188000	0.110900	0.254400
H621	H62	0.185700	0.142000	0.264600
C1521	C152	0.206500	0.968900	0.205100
C1531	C153	0.143200	0.146000	0.201300
C1541	C154	0.503800	0.039000	0.367600
C1551	C155	0.506400	0.088400	0.380000
C1561	C156	0.484300	0.099300	0.408500
H631	H63	0.468300	0.073900	0.420300
C1571	C157	0.483000	0.147200	0.422800
C1581	C158	0.511400	0.183400	0.407200
H641	H64	0.513100	0.214600	0.417200
C1591	C159	0.538100	0.174900	0.376300
C1601	C160	0.534300	0.123700	0.363200
H651	H65	0.551000	0.115100	0.343300
C1611	C161	0.451200	0.160900	0.453300
C1621	C162	0.566100	0.216800	0.359400
H661	H66	0.505600	0.043600	0.317900
Cu131	Cu13	0.622430	0.251770	0.304110
Cu141	Cu14	0.591690	0.314880	0.352330
O731	O73	0.846400	0.331700	0.464350
O741	O74	0.767100	0.358000	0.464460
O751	O75	0.682480	0.251100	0.333110
O761	O76	0.654300	0.300300	0.375170
O771	O77	0.060800	0.236200	0.218650
O781	O78	0.035600	0.180300	0.178540
O791	O79	0.812900	0.145900	0.215930
O801	O80	0.864800	0.124600	0.174230
O811	O81	0.876800	0.426100	0.464390
O821	O82	0.795400	0.451900	0.463830
O831	O83	0.797200	0.590300	0.333320
O841	O84	0.742200	0.562400	0.371720
N251	N25	0.916200	0.260100	0.356600
N261	N26	0.942900	0.242800	0.327500
H671	H67	0.974500	0.242200	0.324700
N271	N27	0.864900	0.234600	0.316900
N281	N28	0.975200	0.503000	0.335500
C1631	C163	0.868900	0.251000	0.346600
C1641	C164	0.908200	0.227600	0.305400
C1651	C165	0.828400	0.264200	0.367800
C1661	C166	0.834000	0.285500	0.401500
H681	H68	0.865300	0.286300	0.411600
C1671	C167	0.791800	0.305500	0.419700
C1681	C168	0.745400	0.299700	0.405800
H691	H69	0.718300	0.311200	0.418100
C1691	C169	0.737000	0.278200	0.375400
C1701	C170	0.779900	0.259300	0.356100
H701	H70	0.774400	0.243400	0.335400
C1711	C171	0.802000	0.335800	0.453100
C1721	C172	0.685500	0.277200	0.360600
C1731	C173	0.924900	0.210800	0.271900
C1741	C174	0.971900	0.217700	0.256000
H711	H71	0.996900	0.235400	0.266900
C1751	C175	0.979600	0.198300	0.224700
C1761	C176	0.940500	0.172600	0.207200
H721	H72	0.946000	0.159200	0.185600
C1771	C177	0.894900	0.167800	0.222500
C1781	C178	0.889100	0.188000	0.254400
H731	H73	0.858000	0.185700	0.264600
C1791	C179	0.031100	0.206500	0.205100
C1801	C180	0.854000	0.143200	0.201300
C1811	C181	0.961000	0.503800	0.367600
C1821	C182	0.911600	0.506400	0.380000
C1831	C183	0.900700	0.484300	0.408500
H741	H74	0.926100	0.468300	0.420300
C1841	C184	0.852800	0.483000	0.422800
C1851	C185	0.816600	0.511400	0.407200
H751	H75	0.785400	0.513100	0.417200
C1861	C186	0.825100	0.538100	0.376300
C1871	C187	0.876300	0.534300	0.363200
H761	H76	0.884900	0.551000	0.343300
C1881	C188	0.839100	0.451200	0.453300
C1891	C189	0.783200	0.566100	0.359400
H771	H77	0.956400	0.505600	0.317900
Cu151	Cu15	0.377570	0.748230	0.304110
Cu161	Cu16	0.408310	0.685120	0.352330
O851	O85	0.153600	0.668300	0.464350
O861	O86	0.232900	0.642000	0.464460
O871	O87	0.317520	0.748900	0.333110
O881	O88	0.345700	0.699700	0.375170
O891	O89	0.939200	0.763800	0.218650
O901	O90	0.964400	0.819700	0.178540
O911	O91	0.187100	0.854100	0.215930
O921	O92	0.135200	0.875400	0.174230
O931	O93	0.123200	0.573900	0.464390
O941	O94	0.204600	0.548100	0.463830
O951	O95	0.202800	0.409700	0.333320
O961	O96	0.257800	0.437600	0.371720
N291	N29	0.083800	0.739900	0.356600
N301	N30	0.057100	0.757200	0.327500
H781	H78	0.025500	0.757800	0.324700
N311	N31	0.135100	0.765400	0.316900
N321	N32	0.024800	0.497000	0.335500
C1901	C190	0.131100	0.749000	0.346600
C1911	C191	0.091800	0.772400	0.305400
C1921	C192	0.171600	0.735800	0.367800
C1931	C193	0.166000	0.714500	0.401500
H791	H79	0.134700	0.713700	0.411600
C1941	C194	0.208200	0.694500	0.419700
C1951	C195	0.254600	0.700300	0.405800
H801	H80	0.281700	0.688800	0.418100
C1961	C196	0.263000	0.721800	0.375400
C1971	C197	0.220100	0.740700	0.356100
H811	H81	0.225600	0.756600	0.335400
C1981	C198	0.198000	0.664200	0.453100
C1991	C199	0.314500	0.722800	0.360600
C2001	C200	0.075100	0.789200	0.271900
C2011	C201	0.028100	0.782300	0.256000
H821	H82	0.003100	0.764600	0.266900
C2021	C202	0.020400	0.801700	0.224700
C2031	C203	0.059500	0.827400	0.207200
H831	H83	0.054000	0.840800	0.185600
C2041	C204	0.105100	0.832200	0.222500
C2051	C205	0.110900	0.812000	0.254400
H841	H84	0.142000	0.814300	0.264600
C2061	C206	0.968900	0.793500	0.205100
C2071	C207	0.146000	0.856800	0.201300
C2081	C208	0.039000	0.496200	0.367600
C2091	C209	0.088400	0.493600	0.380000
C2101	C210	0.099300	0.515700	0.408500
H851	H85	0.073900	0.531700	0.420300
C2111	C211	0.147200	0.517000	0.422800
C2121	C212	0.183400	0.488600	0.407200
H861	H86	0.214600	0.486900	0.417200
C2131	C213	0.174900	0.461900	0.376300
C2141	C214	0.123700	0.465700	0.363200
H871	H87	0.115100	0.449000	0.343300
C2151	C215	0.160900	0.548800	0.453300
C2161	C216	0.216800	0.433900	0.359400
H881	H88	0.043600	0.494400	0.317900
Cu171	Cu17	0.248230	0.877570	0.804110
Cu181	Cu18	0.185120	0.908310	0.852330
O971	O97	0.168300	0.653600	0.964350
O981	O98	0.142000	0.732900	0.964460
O991	O99	0.248900	0.817520	0.833110
O1001	O100	0.199700	0.845700	0.875170
O1011	O101	0.263800	0.439200	0.718650
O1021	O102	0.319700	0.464400	0.678540
O1031	O103	0.354100	0.687100	0.715930
O1041	O104	0.375400	0.635200	0.674230
O1051	O105	0.073900	0.623200	0.964390
O1061	O106	0.048100	0.704600	0.963830
O1071	O107	0.909700	0.702800	0.833320
O1081	O108	0.937600	0.757800	0.871720
N331	N33	0.239900	0.583800	0.856600
N341	N34	0.257200	0.557100	0.827500
H891	H89	0.257800	0.525500	0.824700
N351	N35	0.265400	0.635100	0.816900
N361	N36	0.997000	0.524800	0.835500
C2171	C217	0.249000	0.631100	0.846600
C2181	C218	0.272400	0.591800	0.805400
C2191	C219	0.235800	0.671600	0.867800
C2201	C220	0.214500	0.666000	0.901500
H901	H90	0.213700	0.634700	0.911600
C2211	C221	0.194500	0.708200	0.919700
C2221	C222	0.200300	0.754600	0.905800
H911	H91	0.188800	0.781700	0.918100
C2231	C223	0.221800	0.763000	0.875400
C2241	C224	0.240700	0.720100	0.856100
H921	H92	0.256600	0.725600	0.835400
C2251	C225	0.164200	0.698000	0.953100
C2261	C226	0.222800	0.814500	0.860600
C2271	C227	0.289200	0.575100	0.771900
C2281	C228	0.282300	0.528100	0.756000
H931	H93	0.264600	0.503100	0.766900
C2291	C229	0.301700	0.520400	0.724700
C2301	C230	0.327400	0.559500	0.707200
H941	H94	0.340800	0.554000	0.685600
C2311	C231	0.332200	0.605100	0.722500
C2321	C232	0.312000	0.610900	0.754400
H951	H95	0.314300	0.642000	0.764600
C2331	C233	0.293500	0.468900	0.705100
C2341	C234	0.356800	0.646000	0.701300
C2351	C235	0.996200	0.539000	0.867600
C2361	C236	0.993600	0.588400	0.880000
C2371	C237	0.015700	0.599300	0.908500
H961	H96	0.031700	0.573900	0.920300
C2381	C238	0.017000	0.647200	0.922800
C2391	C239	0.988600	0.683400	0.907200
H971	H97	0.986900	0.714600	0.917200
C2401	C240	0.961900	0.674900	0.876300
C2411	C241	0.965700	0.623700	0.863200
H981	H98	0.949000	0.615100	0.843300
C2421	C242	0.048800	0.660900	0.953300
C2431	C243	0.933900	0.716800	0.859400
H991	H99	0.994400	0.543600	0.817900
Cu191	Cu19	0.751770	0.122430	0.804110
Cu201	Cu20	0.814880	0.091690	0.852330
O1091	O109	0.831700	0.346400	0.964350
O1101	O110	0.858000	0.267100	0.964460
O1111	O111	0.751100	0.182480	0.833110
O1121	O112	0.800300	0.154300	0.875170
O1131	O113	0.736200	0.560800	0.718650
O1141	O114	0.680300	0.535600	0.678540
O1151	O115	0.645900	0.312900	0.715930
O1161	O116	0.624600	0.364800	0.674230
O1171	O117	0.926100	0.376800	0.964390
O1181	O118	0.951900	0.295400	0.963830
O1191	O119	0.090300	0.297200	0.833320
O1201	O120	0.062400	0.242200	0.871720
N371	N37	0.760100	0.416200	0.856600
N381	N38	0.742800	0.442900	0.827500
H1001	H100	0.742200	0.474500	0.824700
N391	N39	0.734600	0.364900	0.816900
N401	N40	0.003000	0.475200	0.835500
C2441	C244	0.751000	0.368900	0.846600
C2451	C245	0.727600	0.408200	0.805400
C2461	C246	0.764200	0.328400	0.867800
C2471	C247	0.785500	0.334000	0.901500
H1011	H101	0.786300	0.365300	0.911600
C2481	C248	0.805500	0.291800	0.919700
C2491	C249	0.799700	0.245400	0.905800
H1021	H102	0.811200	0.218300	0.918100
C2501	C250	0.778200	0.237000	0.875400
C2511	C251	0.759300	0.279900	0.856100
H1031	H103	0.743400	0.274400	0.835400
C2521	C252	0.835800	0.302000	0.953100
C2531	C253	0.777200	0.185500	0.860600
C2541	C254	0.710800	0.424900	0.771900
C2551	C255	0.717700	0.471900	0.756000
H1041	H104	0.735400	0.496900	0.766900
C2561	C256	0.698300	0.479600	0.724700
C2571	C257	0.672600	0.440500	0.707200
H1051	H105	0.659200	0.446000	0.685600
C2581	C258	0.667800	0.394900	0.722500
C2591	C259	0.688000	0.389100	0.754400
H1061	H106	0.685700	0.358000	0.764600
C2601	C260	0.706500	0.531100	0.705100
C2611	C261	0.643200	0.354000	0.701300
C2621	C262	0.003800	0.461000	0.867600
C2631	C263	0.006400	0.411600	0.880000
C2641	C264	0.984300	0.400700	0.908500
H1071	H107	0.968300	0.426100	0.920300
C2651	C265	0.983000	0.352800	0.922800
C2661	C266	0.011400	0.316600	0.907200
H1081	H108	0.013100	0.285400	0.917200
C2671	C267	0.038100	0.325100	0.876300
C2681	C268	0.034300	0.376300	0.863200
H1091	H109	0.051000	0.384900	0.843300
C2691	C269	0.951200	0.339100	0.953300
C2701	C270	0.066100	0.283200	0.859400
H1101	H110	0.005600	0.456400	0.817900
Cu211	Cu21	0.122430	0.248230	0.804110
Cu221	Cu22	0.091690	0.185120	0.852330
O1211	O121	0.346400	0.168300	0.964350
O1221	O122	0.267100	0.142000	0.964460
O1231	O123	0.182480	0.248900	0.833110
O1241	O124	0.154300	0.199700	0.875170
O1251	O125	0.560800	0.263800	0.718650
O1261	O126	0.535600	0.319700	0.678540
O1271	O127	0.312900	0.354100	0.715930
O1281	O128	0.364800	0.375400	0.674230
O1291	O129	0.376800	0.073900	0.964390
O1301	O130	0.295400	0.048100	0.963830
O1311	O131	0.297200	0.909700	0.833320
O1321	O132	0.242200	0.937600	0.871720
N411	N41	0.416200	0.239900	0.856600
N421	N42	0.442900	0.257200	0.827500
H1111	H111	0.474500	0.257800	0.824700
N431	N43	0.364900	0.265400	0.816900
N441	N44	0.475200	0.997000	0.835500
C2711	C271	0.368900	0.249000	0.846600
C2721	C272	0.408200	0.272400	0.805400
C2731	C273	0.328400	0.235800	0.867800
C2741	C274	0.334000	0.214500	0.901500
H1121	H112	0.365300	0.213700	0.911600
C2751	C275	0.291800	0.194500	0.919700
C2761	C276	0.245400	0.200300	0.905800
H1131	H113	0.218300	0.188800	0.918100
C2771	C277	0.237000	0.221800	0.875400
C2781	C278	0.279900	0.240700	0.856100
H1141	H114	0.274400	0.256600	0.835400
C2791	C279	0.302000	0.164200	0.953100
C2801	C280	0.185500	0.222800	0.860600
C2811	C281	0.424900	0.289200	0.771900
C2821	C282	0.471900	0.282300	0.756000
H1151	H115	0.496900	0.264600	0.766900
C2831	C283	0.479600	0.301700	0.724700
C2841	C284	0.440500	0.327400	0.707200
H1161	H116	0.446000	0.340800	0.685600
C2851	C285	0.394900	0.332200	0.722500
C2861	C286	0.389100	0.312000	0.754400
H1171	H117	0.358000	0.314300	0.764600
C2871	C287	0.531100	0.293500	0.705100
C2881	C288	0.354000	0.356800	0.701300
C2891	C289	0.461000	0.996200	0.867600
C2901	C290	0.411600	0.993600	0.880000
C2911	C291	0.400700	0.015700	0.908500
H1181	H118	0.426100	0.031700	0.920300
C2921	C292	0.352800	0.017000	0.922800
C2931	C293	0.316600	0.988600	0.907200
H1191	H119	0.285400	0.986900	0.917200
C2941	C294	0.325100	0.961900	0.876300
C2951	C295	0.376300	0.965700	0.863200
H1201	H120	0.384900	0.949000	0.843300
C2961	C296	0.339100	0.048800	0.953300
C2971	C297	0.283200	0.933900	0.859400
H1211	H121	0.456400	0.994400	0.817900
Cu231	Cu23	0.877570	0.751770	0.804110
Cu241	Cu24	0.908310	0.814880	0.852330
O1331	O133	0.653600	0.831700	0.964350
O1341	O134	0.732900	0.858000	0.964460
O1351	O135	0.817520	0.751100	0.833110
O1361	O136	0.845700	0.800300	0.875170
O1371	O137	0.439200	0.736200	0.718650
O1381	O138	0.464400	0.680300	0.678540
O1391	O139	0.687100	0.645900	0.715930
O1401	O140	0.635200	0.624600	0.674230
O1411	O141	0.623200	0.926100	0.964390
O1421	O142	0.704600	0.951900	0.963830
O1431	O143	0.702800	0.090300	0.833320
O1441	O144	0.757800	0.062400	0.871720
N451	N45	0.583800	0.760100	0.856600
N461	N46	0.557100	0.742800	0.827500
H1221	H122	0.525500	0.742200	0.824700
N471	N47	0.635100	0.734600	0.816900
N481	N48	0.524800	0.003000	0.835500
C2981	C298	0.631100	0.751000	0.846600
C2991	C299	0.591800	0.727600	0.805400
C3001	C300	0.671600	0.764200	0.867800
C3011	C301	0.666000	0.785500	0.901500
H1231	H123	0.634700	0.786300	0.911600
C3021	C302	0.708200	0.805500	0.919700
C3031	C303	0.754600	0.799700	0.905800
H1241	H124	0.781700	0.811200	0.918100
C3041	C304	0.763000	0.778200	0.875400
C3051	C305	0.720100	0.759300	0.856100
H1251	H125	0.725600	0.743400	0.835400
C3061	C306	0.698000	0.835800	0.953100
C3071	C307	0.814500	0.777200	0.860600
C3081	C308	0.575100	0.710800	0.771900
C3091	C309	0.528100	0.717700	0.756000
H1261	H126	0.503100	0.735400	0.766900
C3101	C310	0.520400	0.698300	0.724700
C3111	C311	0.559500	0.672600	0.707200
H1271	H127	0.554000	0.659200	0.685600
C3121	C312	0.605100	0.667800	0.722500
C3131	C313	0.610900	0.688000	0.754400
H1281	H128	0.642000	0.685700	0.764600
C3141	C314	0.468900	0.706500	0.705100
C3151	C315	0.646000	0.643200	0.701300
C3161	C316	0.539000	0.003800	0.867600
C3171	C317	0.588400	0.006400	0.880000
C3181	C318	0.599300	0.984300	0.908500
H1291	H129	0.573900	0.968300	0.920300
C3191	C319	0.647200	0.983000	0.922800
C3201	C320	0.683400	0.011400	0.907200
H1301	H130	0.714600	0.013100	0.917200
C3211	C321	0.674900	0.038100	0.876300
C3221	C322	0.623700	0.034300	0.863200
H1311	H131	0.615100	0.051000	0.843300
C3231	C323	0.660900	0.951200	0.953300
C3241	C324	0.716800	0.066100	0.859400
H1321	H132	0.543600	0.005600	0.817900
Cu251	Cu25	0.251770	0.377570	0.695890
Cu261	Cu26	0.314880	0.408310	0.647670
O1451	O145	0.331700	0.153600	0.535650
O1461	O146	0.358000	0.232900	0.535540
O1471	O147	0.251100	0.317520	0.666890
O1481	O148	0.300300	0.345700	0.624830
O1491	O149	0.236200	0.939200	0.781350
O1501	O150	0.180300	0.964400	0.821460
O1511	O151	0.145900	0.187100	0.784070
O1521	O152	0.124600	0.135200	0.825770
O1531	O153	0.426100	0.123200	0.535610
O1541	O154	0.451900	0.204600	0.536170
O1551	O155	0.590300	0.202800	0.666680
O1561	O156	0.562400	0.257800	0.628280
N491	N49	0.260100	0.083800	0.643400
N501	N50	0.242800	0.057100	0.672500
H1331	H133	0.242200	0.025500	0.675300
N511	N51	0.234600	0.135100	0.683100
N521	N52	0.503000	0.024800	0.664500
C3251	C325	0.251000	0.131100	0.653400
C3261	C326	0.227600	0.091800	0.694600
C3271	C327	0.264200	0.171600	0.632200
C3281	C328	0.285500	0.166000	0.598500
H1341	H134	0.286300	0.134700	0.588400
C3291	C329	0.305500	0.208200	0.580300
C3301	C330	0.299700	0.254600	0.594200
H1351	H135	0.311200	0.281700	0.581900
C3311	C331	0.278200	0.263000	0.624600
C3321	C332	0.259300	0.220100	0.643900
H1361	H136	0.243400	0.225600	0.664600
C3331	C333	0.335800	0.198000	0.546900
C3341	C334	0.277200	0.314500	0.639400
C3351	C335	0.210800	0.075100	0.728100
C3361	C336	0.217700	0.028100	0.744000
H1371	H137	0.235400	0.003100	0.733100
C3371	C337	0.198300	0.020400	0.775300
C3381	C338	0.172600	0.059500	0.792800
H1381	H138	0.159200	0.054000	0.814400
C3391	C339	0.167800	0.105100	0.777500
C3401	C340	0.188000	0.110900	0.745600
H1391	H139	0.185700	0.142000	0.735400
C3411	C341	0.206500	0.968900	0.794900
C3421	C342	0.143200	0.146000	0.798700
C3431	C343	0.503800	0.039000	0.632400
C3441	C344	0.506400	0.088400	0.620000
C3451	C345	0.484300	0.099300	0.591500
H1401	H140	0.468300	0.073900	0.579700
C3461	C346	0.483000	0.147200	0.577200
C3471	C347	0.511400	0.183400	0.592800
H1411	H141	0.513100	0.214600	0.582800
C3481	C348	0.538100	0.174900	0.623700
C3491	C349	0.534300	0.123700	0.636800
H1421	H142	0.551000	0.115100	0.656700
C3501	C350	0.451200	0.160900	0.546700
C3511	C351	0.566100	0.216800	0.640600
H1431	H143	0.505600	0.043600	0.682100
Cu271	Cu27	0.748230	0.622430	0.695890
Cu281	Cu28	0.685120	0.591690	0.647670
O1571	O157	0.668300	0.846400	0.535650
O1581	O158	0.642000	0.767100	0.535540
O1591	O159	0.748900	0.682480	0.666890
O1601	O160	0.699700	0.654300	0.624830
O1611	O161	0.763800	0.060800	0.781350
O1621	O162	0.819700	0.035600	0.821460
O1631	O163	0.854100	0.812900	0.784070
O1641	O164	0.875400	0.864800	0.825770
O1651	O165	0.573900	0.876800	0.535610
O1661	O166	0.548100	0.795400	0.536170
O1671	O167	0.409700	0.797200	0.666680
O1681	O168	0.437600	0.742200	0.628280
N531	N53	0.739900	0.916200	0.643400
N541	N54	0.757200	0.942900	0.672500
H1441	H144	0.757800	0.974500	0.675300
N551	N55	0.765400	0.864900	0.683100
N561	N56	0.497000	0.975200	0.664500
C3521	C352	0.749000	0.868900	0.653400
C3531	C353	0.772400	0.908200	0.694600
C3541	C354	0.735800	0.828400	0.632200
C3551	C355	0.714500	0.834000	0.598500
H1451	H145	0.713700	0.865300	0.588400
C3561	C356	0.694500	0.791800	0.580300
C3571	C357	0.700300	0.745400	0.594200
H1461	H146	0.688800	0.718300	0.581900
C3581	C358	0.721800	0.737000	0.624600
C3591	C359	0.740700	0.779900	0.643900
H1471	H147	0.756600	0.774400	0.664600
C3601	C360	0.664200	0.802000	0.546900
C3611	C361	0.722800	0.685500	0.639400
C3621	C362	0.789200	0.924900	0.728100
C3631	C363	0.782300	0.971900	0.744000
H1481	H148	0.764600	0.996900	0.733100
C3641	C364	0.801700	0.979600	0.775300
C3651	C365	0.827400	0.940500	0.792800
H1491	H149	0.840800	0.946000	0.814400
C3661	C366	0.832200	0.894900	0.777500
C3671	C367	0.812000	0.889100	0.745600
H1501	H150	0.814300	0.858000	0.735400
C3681	C368	0.793500	0.031100	0.794900
C3691	C369	0.856800	0.854000	0.798700
C3701	C370	0.496200	0.961000	0.632400
C3711	C371	0.493600	0.911600	0.620000
C3721	C372	0.515700	0.900700	0.591500
H1511	H151	0.531700	0.926100	0.579700
C3731	C373	0.517000	0.852800	0.577200
C3741	C374	0.488600	0.816600	0.592800
H1521	H152	0.486900	0.785400	0.582800
C3751	C375	0.461900	0.825100	0.623700
C3761	C376	0.465700	0.876300	0.636800
H1531	H153	0.449000	0.884900	0.656700
C3771	C377	0.548800	0.839100	0.546700
C3781	C378	0.433900	0.783200	0.640600
H1541	H154	0.494400	0.956400	0.682100
Cu291	Cu29	0.377570	0.748230	0.695890
Cu301	Cu30	0.408310	0.685120	0.647670
O1691	O169	0.153600	0.668300	0.535650
O1701	O170	0.232900	0.642000	0.535540
O1711	O171	0.317520	0.748900	0.666890
O1721	O172	0.345700	0.699700	0.624830
O1731	O173	0.939200	0.763800	0.781350
O1741	O174	0.964400	0.819700	0.821460
O1751	O175	0.187100	0.854100	0.784070
O1761	O176	0.135200	0.875400	0.825770
O1771	O177	0.123200	0.573900	0.535610
O1781	O178	0.204600	0.548100	0.536170
O1791	O179	0.202800	0.409700	0.666680
O1801	O180	0.257800	0.437600	0.628280
N571	N57	0.083800	0.739900	0.643400
N581	N58	0.057100	0.757200	0.672500
H1551	H155	0.025500	0.757800	0.675300
N591	N59	0.135100	0.765400	0.683100
N601	N60	0.024800	0.497000	0.664500
C3791	C379	0.131100	0.749000	0.653400
C3801	C380	0.091800	0.772400	0.694600
C3811	C381	0.171600	0.735800	0.632200
C3821	C382	0.166000	0.714500	0.598500
H1561	H156	0.134700	0.713700	0.588400
C3831	C383	0.208200	0.694500	0.580300
C3841	C384	0.254600	0.700300	0.594200
H1571	H157	0.281700	0.688800	0.581900
C3851	C385	0.263000	0.721800	0.624600
C3861	C386	0.220100	0.740700	0.643900
H1581	H158	0.225600	0.756600	0.664600
C3871	C387	0.198000	0.664200	0.546900
C3881	C388	0.314500	0.722800	0.639400
C3891	C389	0.075100	0.789200	0.728100
C3901	C390	0.028100	0.782300	0.744000
H1591	H159	0.003100	0.764600	0.733100
C3911	C391	0.020400	0.801700	0.775300
C3921	C392	0.059500	0.827400	0.792800
H1601	H160	0.054000	0.840800	0.814400
C3931	C393	0.105100	0.832200	0.777500
C3941	C394	0.110900	0.812000	0.745600
H1611	H161	0.142000	0.814300	0.735400
C3951	C395	0.968900	0.793500	0.794900
C3961	C396	0.146000	0.856800	0.798700
C3971	C397	0.039000	0.496200	0.632400
C3981	C398	0.088400	0.493600	0.620000
C3991	C399	0.099300	0.515700	0.591500
H1621	H162	0.073900	0.531700	0.579700
C4001	C400	0.147200	0.517000	0.577200
C4011	C401	0.183400	0.488600	0.592800
H1631	H163	0.214600	0.486900	0.582800
C4021	C402	0.174900	0.461900	0.623700
C4031	C403	0.123700	0.465700	0.636800
H1641	H164	0.115100	0.449000	0.656700
C4041	C404	0.160900	0.548800	0.546700
C4051	C405	0.216800	0.433900	0.640600
H1651	H165	0.043600	0.494400	0.682100
Cu311	Cu31	0.622430	0.251770	0.695890
Cu321	Cu32	0.591690	0.314880	0.647670
O1811	O181	0.846400	0.331700	0.535650
O1821	O182	0.767100	0.358000	0.535540
O1831	O183	0.682480	0.251100	0.666890
O1841	O184	0.654300	0.300300	0.624830
O1851	O185	0.060800	0.236200	0.781350
O1861	O186	0.035600	0.180300	0.821460
O1871	O187	0.812900	0.145900	0.784070
O1881	O188	0.864800	0.124600	0.825770
O1891	O189	0.876800	0.426100	0.535610
O1901	O190	0.795400	0.451900	0.536170
O1911	O191	0.797200	0.590300	0.666680
O1921	O192	0.742200	0.562400	0.628280
N611	N61	0.916200	0.260100	0.643400
N621	N62	0.942900	0.242800	0.672500
H1661	H166	0.974500	0.242200	0.675300
N631	N63	0.864900	0.234600	0.683100
N641	N64	0.975200	0.503000	0.664500
C4061	C406	0.868900	0.251000	0.653400
C4071	C407	0.908200	0.227600	0.694600
C4081	C408	0.828400	0.264200	0.632200
C4091	C409	0.834000	0.285500	0.598500
H1671	H167	0.865300	0.286300	0.588400
C4101	C410	0.791800	0.305500	0.580300
C4111	C411	0.745400	0.299700	0.594200
H1681	H168	0.718300	0.311200	0.581900
C4121	C412	0.737000	0.278200	0.624600
C4131	C413	0.779900	0.259300	0.643900
H1691	H169	0.774400	0.243400	0.664600
C4141	C414	0.802000	0.335800	0.546900
C4151	C415	0.685500	0.277200	0.639400
C4161	C416	0.924900	0.210800	0.728100
C4171	C417	0.971900	0.217700	0.744000
H1701	H170	0.996900	0.235400	0.733100
C4181	C418	0.979600	0.198300	0.775300
C4191	C419	0.940500	0.172600	0.792800
H1711	H171	0.946000	0.159200	0.814400
C4201	C420	0.894900	0.167800	0.777500
C4211	C421	0.889100	0.188000	0.745600
H1721	H172	0.858000	0.185700	0.735400
C4221	C422	0.031100	0.206500	0.794900
C4231	C423	0.854000	0.143200	0.798700
C4241	C424	0.961000	0.503800	0.632400
C4251	C425	0.911600	0.506400	0.620000
C4261	C426	0.900700	0.484300	0.591500
H1731	H173	0.926100	0.468300	0.579700
C4271	C427	0.852800	0.483000	0.577200
C4281	C428	0.816600	0.511400	0.592800
H1741	H174	0.785400	0.513100	0.582800
C4291	C429	0.825100	0.538100	0.623700
C4301	C430	0.876300	0.534300	0.636800
H1751	H175	0.884900	0.551000	0.656700
C4311	C431	0.839100	0.451200	0.546700
C4321	C432	0.783200	0.566100	0.640600
H1761	H176	0.956400	0.505600	0.682100
Cu331	Cu33	0.876040	0.368360	0.000000
Cu341	Cu34	0.906690	0.274440	0.000000
Cu351	Cu35	0.123960	0.631640	0.000000
Cu361	Cu36	0.093310	0.725560	0.000000
Cu371	Cu37	0.631640	0.876040	0.000000
Cu381	Cu38	0.725560	0.906690	0.000000
Cu391	Cu39	0.368360	0.123960	0.000000
Cu401	Cu40	0.274440	0.093310	0.000000
Cu411	Cu41	0.623960	0.868360	0.500000
Cu421	Cu42	0.593310	0.774440	0.500000
Cu431	Cu43	0.376040	0.131640	0.500000
Cu441	Cu44	0.406690	0.225560	0.500000
Cu451	Cu45	0.868360	0.376040	0.500000
Cu461	Cu46	0.774440	0.406690	0.500000
Cu471	Cu47	0.131640	0.623960	0.500000
Cu481	Cu48	0.225560	0.593310	0.500000
N651	N65	0.000000	0.500000	0.111700
N661	N66	0.500000	0.000000	0.111700
N671	N67	0.500000	0.000000	0.388300
N681	N68	0.000000	0.500000	0.388300
N691	N69	0.000000	0.500000	0.888300
N701	N70	0.500000	0.000000	0.888300
N711	N71	0.500000	0.000000	0.611700
N721	N72	0.000000	0.500000	0.611700
