data_GAFBEX_clean_PM
_symmetry_space_group_name_H-M	'P1'
_cell_length_a	8.594700
_cell_length_b	13.187000
_cell_length_c	9.646200
_cell_angle_alpha	90.000000
_cell_angle_beta	96.496000
_cell_angle_gamma	90.000000
_symmetry_Int_Tables_number 1

loop_
_symmetry_equiv_pos_as_xyz
'x,y,z'

loop_
_atom_site_label
_atom_site_type_symbol
_atom_site_fract_x
_atom_site_fract_y
_atom_site_fract_z
Nd11	Nd1	0.549560	0.265540	0.496580
C11	C1	0.544800	0.390500	0.747000
C21	C2	0.526700	0.451900	0.876100
C31	C3	0.620300	0.427300	0.000500
C41	C4	0.407300	0.525600	0.872900
C51	C5	0.760800	0.358300	0.996700
C61	C6	0.303100	0.551000	0.738400
O11	O1	0.546700	0.433500	0.630100
O21	O2	0.553700	0.294000	0.758500
O31	O3	0.788000	0.288300	0.085600
O41	O4	0.853200	0.376000	0.903700
O51	O5	0.351600	0.615800	0.658800
O61	O6	0.171700	0.507700	0.719000
Nd21	Nd2	0.950440	0.765540	0.003420
C71	C7	0.955200	0.890500	0.753000
C81	C8	0.973300	0.951900	0.623900
C91	C9	0.879700	0.927300	0.499500
C101	C10	0.092700	0.025600	0.627100
C111	C11	0.739200	0.858300	0.503300
C121	C12	0.196900	0.051000	0.761600
O71	O7	0.953300	0.933500	0.869900
O81	O8	0.946300	0.794000	0.741500
O91	O9	0.712000	0.788300	0.414400
O101	O10	0.646800	0.876000	0.596300
O111	O11	0.148400	0.115800	0.841200
O121	O12	0.328300	0.007700	0.781000
Nd31	Nd3	0.450440	0.734460	0.503420
C131	C13	0.455200	0.609500	0.253000
C141	C14	0.473300	0.548100	0.123900
C151	C15	0.379700	0.572700	0.999500
C161	C16	0.592700	0.474400	0.127100
C171	C17	0.239200	0.641700	0.003300
C181	C18	0.696900	0.449000	0.261600
O131	O13	0.453300	0.566500	0.369900
O141	O14	0.446300	0.706000	0.241500
O151	O15	0.212000	0.711700	0.914400
O161	O16	0.146800	0.624000	0.096300
O171	O17	0.648400	0.384200	0.341200
O181	O18	0.828300	0.492300	0.281000
Nd41	Nd4	0.049560	0.234460	0.996580
C191	C19	0.044800	0.109500	0.247000
C201	C20	0.026700	0.048100	0.376100
C211	C21	0.120300	0.072700	0.500500
C221	C22	0.907300	0.974400	0.372900
C231	C23	0.260800	0.141700	0.496700
C241	C24	0.803100	0.949000	0.238400
O191	O19	0.046700	0.066500	0.130100
O201	O20	0.053700	0.206000	0.258500
O211	O21	0.288000	0.211700	0.585600
O221	O22	0.353200	0.124000	0.403700
O231	O23	0.851600	0.884200	0.158800
O241	O24	0.671700	0.992300	0.219000
