data_GAFRUD_clean_PM
_symmetry_space_group_name_H-M	'P1'
_cell_length_a	18.448000
_cell_length_b	18.448000
_cell_length_c	23.939000
_cell_angle_alpha	90.000000
_cell_angle_beta	90.000000
_cell_angle_gamma	120.000000
_symmetry_Int_Tables_number 1

loop_
_symmetry_equiv_pos_as_xyz
'x,y,z'

loop_
_atom_site_label
_atom_site_type_symbol
_atom_site_fract_x
_atom_site_fract_y
_atom_site_fract_z
O11	O1	0.410790	0.972110	0.072000
C11	C1	0.275300	0.854860	0.069840
O21	O2	0.370790	0.890060	0.996310
C21	C2	0.358500	0.909910	0.044170
C31	C3	0.252740	0.875820	0.120340
H11	H1	0.290600	0.927200	0.138000
O31	O3	0.027890	0.438680	0.072000
C41	C4	0.145140	0.420440	0.069840
O41	O4	0.109940	0.480730	0.996310
C51	C5	0.090090	0.448590	0.044170
C61	C6	0.124180	0.376920	0.120340
H21	H2	0.072800	0.363400	0.138000
O51	O5	0.561320	0.589210	0.072000
C71	C7	0.579560	0.724700	0.069840
O61	O6	0.519270	0.629210	0.996310
C81	C8	0.551410	0.641500	0.044170
C91	C9	0.623080	0.747260	0.120340
H31	H3	0.636600	0.709400	0.138000
O71	O7	0.589210	0.027890	0.572000
C101	C10	0.724700	0.145140	0.569840
O81	O8	0.629210	0.109940	0.496310
C111	C11	0.641500	0.090090	0.544170
C121	C12	0.747260	0.124180	0.620340
H41	H4	0.709400	0.072800	0.638000
O91	O9	0.972110	0.561320	0.572000
C131	C13	0.854860	0.579560	0.569840
O101	O10	0.890060	0.519270	0.496310
C141	C14	0.909910	0.551410	0.544170
C151	C15	0.875820	0.623080	0.620340
H51	H5	0.927200	0.636600	0.638000
O111	O11	0.438680	0.410790	0.572000
C161	C16	0.420440	0.275300	0.569840
O121	O12	0.480730	0.370790	0.496310
C171	C17	0.448590	0.358500	0.544170
C181	C18	0.376920	0.252740	0.620340
H61	H6	0.363400	0.290600	0.638000
O131	O13	0.972110	0.410790	0.928000
C191	C19	0.854860	0.275300	0.930160
O141	O14	0.890060	0.370790	0.003690
C201	C20	0.909910	0.358500	0.955830
C211	C21	0.875820	0.252740	0.879660
H71	H7	0.927200	0.290600	0.862000
O151	O15	0.438680	0.027890	0.928000
C221	C22	0.420440	0.145140	0.930160
O161	O16	0.480730	0.109940	0.003690
C231	C23	0.448590	0.090090	0.955830
C241	C24	0.376920	0.124180	0.879660
H81	H8	0.363400	0.072800	0.862000
O171	O17	0.589210	0.561320	0.928000
C251	C25	0.724700	0.579560	0.930160
O181	O18	0.629210	0.519270	0.003690
C261	C26	0.641500	0.551410	0.955830
C271	C27	0.747260	0.623080	0.879660
H91	H9	0.709400	0.636600	0.862000
O191	O19	0.027890	0.589210	0.428000
C281	C28	0.145140	0.724700	0.430160
O201	O20	0.109940	0.629210	0.503690
C291	C29	0.090090	0.641500	0.455830
C301	C30	0.124180	0.747260	0.379660
H101	H10	0.072800	0.709400	0.362000
O211	O21	0.561320	0.972110	0.428000
C311	C31	0.579560	0.854860	0.430160
O221	O22	0.519270	0.890060	0.503690
C321	C32	0.551410	0.909910	0.455830
C331	C33	0.623080	0.875820	0.379660
H111	H11	0.636600	0.927200	0.362000
O231	O23	0.410790	0.438680	0.428000
C341	C34	0.275300	0.420440	0.430160
O241	O24	0.370790	0.480730	0.503690
C351	C35	0.358500	0.448590	0.455830
C361	C36	0.252740	0.376920	0.379660
H121	H12	0.290600	0.363400	0.362000
O251	O25	0.589210	0.027890	0.928000
C371	C37	0.724700	0.145140	0.930160
O261	O26	0.629210	0.109940	0.003690
C381	C38	0.641500	0.090090	0.955830
C391	C39	0.747260	0.124180	0.879660
H131	H13	0.709400	0.072800	0.862000
O271	O27	0.972110	0.561320	0.928000
C401	C40	0.854860	0.579560	0.930160
O281	O28	0.890060	0.519270	0.003690
C411	C41	0.909910	0.551410	0.955830
C421	C42	0.875820	0.623080	0.879660
H141	H14	0.927200	0.636600	0.862000
O291	O29	0.438680	0.410790	0.928000
C431	C43	0.420440	0.275300	0.930160
O301	O30	0.480730	0.370790	0.003690
C441	C44	0.448590	0.358500	0.955830
C451	C45	0.376920	0.252740	0.879660
H151	H15	0.363400	0.290600	0.862000
O311	O31	0.410790	0.972110	0.428000
C461	C46	0.275300	0.854860	0.430160
O321	O32	0.370790	0.890060	0.503690
C471	C47	0.358500	0.909910	0.455830
C481	C48	0.252740	0.875820	0.379660
H161	H16	0.290600	0.927200	0.362000
O331	O33	0.027890	0.438680	0.428000
C491	C49	0.145140	0.420440	0.430160
O341	O34	0.109940	0.480730	0.503690
C501	C50	0.090090	0.448590	0.455830
C511	C51	0.124180	0.376920	0.379660
H171	H17	0.072800	0.363400	0.362000
O351	O35	0.561320	0.589210	0.428000
C521	C52	0.579560	0.724700	0.430160
O361	O36	0.519270	0.629210	0.503690
C531	C53	0.551410	0.641500	0.455830
C541	C54	0.623080	0.747260	0.379660
H181	H18	0.636600	0.709400	0.362000
O371	O37	0.027890	0.589210	0.072000
C551	C55	0.145140	0.724700	0.069840
O381	O38	0.109940	0.629210	0.996310
C561	C56	0.090090	0.641500	0.044170
C571	C57	0.124180	0.747260	0.120340
H191	H19	0.072800	0.709400	0.138000
O391	O39	0.561320	0.972110	0.072000
C581	C58	0.579560	0.854860	0.069840
O401	O40	0.519270	0.890060	0.996310
C591	C59	0.551410	0.909910	0.044170
C601	C60	0.623080	0.875820	0.120340
H201	H20	0.636600	0.927200	0.138000
O411	O41	0.410790	0.438680	0.072000
C611	C61	0.275300	0.420440	0.069840
O421	O42	0.370790	0.480730	0.996310
C621	C62	0.358500	0.448590	0.044170
C631	C63	0.252740	0.376920	0.120340
H211	H21	0.290600	0.363400	0.138000
O431	O43	0.972110	0.410790	0.572000
C641	C64	0.854860	0.275300	0.569840
O441	O44	0.890060	0.370790	0.496310
C651	C65	0.909910	0.358500	0.544170
C661	C66	0.875820	0.252740	0.620340
H221	H22	0.927200	0.290600	0.638000
O451	O45	0.438680	0.027890	0.572000
C671	C67	0.420440	0.145140	0.569840
O461	O46	0.480730	0.109940	0.496310
C681	C68	0.448590	0.090090	0.544170
C691	C69	0.376920	0.124180	0.620340
H231	H23	0.363400	0.072800	0.638000
O471	O47	0.589210	0.561320	0.572000
C701	C70	0.724700	0.579560	0.569840
O481	O48	0.629210	0.519270	0.496310
C711	C71	0.641500	0.551410	0.544170
C721	C72	0.747260	0.623080	0.620340
H241	H24	0.709400	0.636600	0.638000
Cu11	Cu1	0.524290	0.048580	0.044940
Cu21	Cu2	0.951420	0.475710	0.044940
Cu31	Cu3	0.524290	0.475710	0.044940
Cu41	Cu4	0.475710	0.951420	0.544940
Cu51	Cu5	0.048580	0.524290	0.544940
Cu61	Cu6	0.475710	0.524290	0.544940
Cu71	Cu7	0.048580	0.524290	0.955060
Cu81	Cu8	0.475710	0.951420	0.955060
Cu91	Cu9	0.475710	0.524290	0.955060
Cu101	Cu10	0.951420	0.475710	0.455060
Cu111	Cu11	0.524290	0.048580	0.455060
Cu121	Cu12	0.524290	0.475710	0.455060
C731	C73	0.221040	0.778960	0.044690
H251	H25	0.235800	0.764200	0.010300
H261	H26	0.230700	0.769300	0.218200
C741	C74	0.176570	0.823430	0.145080
C751	C75	0.152870	0.847130	0.199310
C761	C76	0.109710	0.890290	0.199600
H271	H27	0.094700	0.905300	0.165400
C771	C77	0.221040	0.442080	0.044690
H281	H28	0.235800	0.471600	0.010300
H291	H29	0.230700	0.461400	0.218200
C781	C78	0.176570	0.353140	0.145080
C791	C79	0.152870	0.305740	0.199310
C801	C80	0.109710	0.219420	0.199600
H301	H30	0.094700	0.189400	0.165400
C811	C81	0.557920	0.778960	0.044690
H311	H31	0.528400	0.764200	0.010300
H321	H32	0.538600	0.769300	0.218200
C821	C82	0.646860	0.823430	0.145080
C831	C83	0.694260	0.847130	0.199310
C841	C84	0.780580	0.890290	0.199600
H331	H33	0.810600	0.905300	0.165400
C851	C85	0.778960	0.221040	0.544690
H341	H34	0.764200	0.235800	0.510300
H351	H35	0.769300	0.230700	0.718200
C861	C86	0.823430	0.176570	0.645080
C871	C87	0.847130	0.152870	0.699310
C881	C88	0.890290	0.109710	0.699600
H361	H36	0.905300	0.094700	0.665400
C891	C89	0.778960	0.557920	0.544690
H371	H37	0.764200	0.528400	0.510300
H381	H38	0.769300	0.538600	0.718200
C901	C90	0.823430	0.646860	0.645080
C911	C91	0.847130	0.694260	0.699310
C921	C92	0.890290	0.780580	0.699600
H391	H39	0.905300	0.810600	0.665400
C931	C93	0.442080	0.221040	0.544690
H401	H40	0.471600	0.235800	0.510300
H411	H41	0.461400	0.230700	0.718200
C941	C94	0.353140	0.176570	0.645080
C951	C95	0.305740	0.152870	0.699310
C961	C96	0.219420	0.109710	0.699600
H421	H42	0.189400	0.094700	0.665400
C971	C97	0.778960	0.221040	0.955310
H431	H43	0.764200	0.235800	0.989700
H441	H44	0.769300	0.230700	0.781800
C981	C98	0.823430	0.176570	0.854920
C991	C99	0.847130	0.152870	0.800690
C1001	C100	0.890290	0.109710	0.800400
H451	H45	0.905300	0.094700	0.834600
C1011	C101	0.442080	0.221040	0.955310
H461	H46	0.471600	0.235800	0.989700
H471	H47	0.461400	0.230700	0.781800
C1021	C102	0.353140	0.176570	0.854920
C1031	C103	0.305740	0.152870	0.800690
C1041	C104	0.219420	0.109710	0.800400
H481	H48	0.189400	0.094700	0.834600
C1051	C105	0.778960	0.557920	0.955310
H491	H49	0.764200	0.528400	0.989700
H501	H50	0.769300	0.538600	0.781800
C1061	C106	0.823430	0.646860	0.854920
C1071	C107	0.847130	0.694260	0.800690
C1081	C108	0.890290	0.780580	0.800400
H511	H51	0.905300	0.810600	0.834600
C1091	C109	0.221040	0.778960	0.455310
H521	H52	0.235800	0.764200	0.489700
H531	H53	0.230700	0.769300	0.281800
C1101	C110	0.176570	0.823430	0.354920
C1111	C111	0.152870	0.847130	0.300690
C1121	C112	0.109710	0.890290	0.300400
H541	H54	0.094700	0.905300	0.334600
C1131	C113	0.557920	0.778960	0.455310
H551	H55	0.528400	0.764200	0.489700
H561	H56	0.538600	0.769300	0.281800
C1141	C114	0.646860	0.823430	0.354920
C1151	C115	0.694260	0.847130	0.300690
C1161	C116	0.780580	0.890290	0.300400
H571	H57	0.810600	0.905300	0.334600
C1171	C117	0.221040	0.442080	0.455310
H581	H58	0.235800	0.471600	0.489700
H591	H59	0.230700	0.461400	0.281800
C1181	C118	0.176570	0.353140	0.354920
C1191	C119	0.152870	0.305740	0.300690
C1201	C120	0.109710	0.219420	0.300400
H601	H60	0.094700	0.189400	0.334600
C1211	C121	0.174400	0.825600	0.250000
N11	N1	0.216920	0.783080	0.250000
C1221	C122	0.088200	0.911800	0.250000
H611	H61	0.058400	0.941600	0.250000
C1231	C123	0.174400	0.348800	0.250000
N21	N2	0.216920	0.433840	0.250000
C1241	C124	0.088200	0.176400	0.250000
H621	H62	0.058400	0.116800	0.250000
C1251	C125	0.651200	0.825600	0.250000
N31	N3	0.566160	0.783080	0.250000
C1261	C126	0.823600	0.911800	0.250000
H631	H63	0.883200	0.941600	0.250000
C1271	C127	0.825600	0.174400	0.750000
N41	N4	0.783080	0.216920	0.750000
C1281	C128	0.911800	0.088200	0.750000
H641	H64	0.941600	0.058400	0.750000
C1291	C129	0.825600	0.651200	0.750000
N51	N5	0.783080	0.566160	0.750000
C1301	C130	0.911800	0.823600	0.750000
H651	H65	0.941600	0.883200	0.750000
C1311	C131	0.348800	0.174400	0.750000
N61	N6	0.433840	0.216920	0.750000
C1321	C132	0.176400	0.088200	0.750000
H661	H66	0.116800	0.058400	0.750000
