data_GAGTAM_clean_PM
_symmetry_space_group_name_H-M	'P1'
_cell_length_a	20.515800
_cell_length_b	10.001200
_cell_length_c	21.514500
_cell_angle_alpha	90.000000
_cell_angle_beta	99.156000
_cell_angle_gamma	90.000000
_symmetry_Int_Tables_number 1

loop_
_symmetry_equiv_pos_as_xyz
'x,y,z'

loop_
_atom_site_label
_atom_site_type_symbol
_atom_site_fract_x
_atom_site_fract_y
_atom_site_fract_z
Th11	Th1	0.148130	0.695280	0.415760
Th21	Th2	0.359520	0.703470	0.601210
O11	O1	0.264400	0.789000	0.921700
O21	O2	0.165200	0.617200	0.521500
O31	O3	0.109500	0.615300	0.840700
O41	O4	0.246600	0.641200	0.601500
O51	O5	0.946800	0.384000	0.665500
O61	O6	0.353800	0.472700	0.601000
C11	C1	0.220500	0.148700	0.455300
H11	H1	0.196500	0.103100	0.421500
O71	O7	0.172600	0.765000	0.807200
C21	C2	0.285800	0.146400	0.558700
H21	H2	0.305300	0.099200	0.594100
O81	O8	0.189000	0.883800	0.478600
O91	O9	0.285500	0.865700	0.543600
O101	O10	0.348000	0.852900	0.992100
C31	C3	0.140400	0.604800	0.624200
O111	O11	0.187900	0.484400	0.396700
O121	O12	0.364000	0.889400	0.671400
C41	C4	0.227400	0.287000	0.452700
C51	C5	0.318800	0.845700	0.937000
C61	C6	0.249400	0.079000	0.508500
O131	O13	0.533300	0.110000	0.927400
O141	O14	0.944100	0.469400	0.571100
O151	O15	0.533300	0.155200	0.827900
C71	C7	0.187200	0.623700	0.579300
C81	C8	0.078200	0.546800	0.603900
H31	H3	0.064300	0.528100	0.561500
O161	O16	0.347400	0.294100	0.661000
C91	C9	0.411900	0.973700	0.902500
H41	H4	0.431300	0.982200	0.944400
O171	O17	0.177800	0.294800	0.346400
C101	C10	0.293100	0.284300	0.556400
C111	C11	0.158300	0.643500	0.686700
H51	H5	0.198300	0.686600	0.699600
O181	O18	0.260000	0.924400	0.694900
C121	C12	0.442700	0.027700	0.854900
C131	C13	0.037700	0.517900	0.648400
C141	C14	0.415800	0.004800	0.792000
H61	H6	0.438400	0.033000	0.760200
C151	C15	0.133600	0.665300	0.796900
C161	C16	0.241800	0.932300	0.510800
C171	C17	0.115900	0.617400	0.730100
C181	C18	0.323000	0.890800	0.824600
H71	H7	0.282600	0.847500	0.814800
C191	C19	0.352200	0.907300	0.887000
C201	C20	0.264000	0.354600	0.503800
H81	H8	0.268700	0.446900	0.502400
C211	C21	0.355400	0.940200	0.776600
C221	C22	0.056600	0.549400	0.711000
H91	H9	0.030000	0.525600	0.740400
C231	C23	0.195000	0.358500	0.394100
C241	C24	0.973000	0.453000	0.627100
C251	C25	0.323600	0.914900	0.709500
C261	C26	0.333600	0.354800	0.611500
C271	C27	0.506000	0.101000	0.870800
Th31	Th3	0.851870	0.195280	0.084240
Th41	Th4	0.640480	0.203470	0.898790
O191	O19	0.735600	0.289000	0.578300
O201	O20	0.834800	0.117200	0.978500
O211	O21	0.890500	0.115300	0.659300
O221	O22	0.753400	0.141200	0.898500
O231	O23	0.053200	0.884000	0.834500
O241	O24	0.646200	0.972700	0.899000
C281	C28	0.779500	0.648700	0.044700
H101	H10	0.803500	0.603100	0.078500
O251	O25	0.827400	0.265000	0.692800
C291	C29	0.714200	0.646400	0.941300
H111	H11	0.694700	0.599200	0.905900
O261	O26	0.811000	0.383800	0.021400
O271	O27	0.714500	0.365700	0.956400
O281	O28	0.652000	0.352900	0.507900
C301	C30	0.859600	0.104800	0.875800
O291	O29	0.812100	0.984400	0.103300
O301	O30	0.636000	0.389400	0.828600
C311	C31	0.772600	0.787000	0.047300
C321	C32	0.681200	0.345700	0.563000
C331	C33	0.750600	0.579000	0.991500
O311	O31	0.466700	0.610000	0.572600
O321	O32	0.055900	0.969400	0.928900
O331	O33	0.466700	0.655200	0.672100
C341	C34	0.812800	0.123700	0.920700
C351	C35	0.921800	0.046800	0.896100
H121	H12	0.935700	0.028100	0.938500
O341	O34	0.652600	0.794100	0.839000
C361	C36	0.588100	0.473700	0.597500
H131	H13	0.568700	0.482200	0.555600
O351	O35	0.822200	0.794800	0.153600
C371	C37	0.706900	0.784300	0.943600
C381	C38	0.841700	0.143500	0.813300
H141	H14	0.801700	0.186600	0.800400
O361	O36	0.740000	0.424400	0.805100
C391	C39	0.557300	0.527700	0.645100
C401	C40	0.962300	0.017900	0.851600
C411	C41	0.584200	0.504800	0.708000
H151	H15	0.561600	0.533000	0.739800
C421	C42	0.866400	0.165300	0.703100
C431	C43	0.758200	0.432300	0.989200
C441	C44	0.884100	0.117400	0.769900
C451	C45	0.677000	0.390800	0.675400
H161	H16	0.717400	0.347500	0.685200
C461	C46	0.647800	0.407300	0.613000
C471	C47	0.736000	0.854600	0.996200
H171	H17	0.731300	0.946900	0.997600
C481	C48	0.644600	0.440200	0.723400
C491	C49	0.943400	0.049400	0.789000
H181	H18	0.970000	0.025600	0.759600
C501	C50	0.805000	0.858500	0.105900
C511	C51	0.027000	0.953000	0.872900
C521	C52	0.676400	0.414900	0.790500
C531	C53	0.666400	0.854800	0.888500
C541	C54	0.494000	0.601000	0.629200
Th51	Th5	0.851870	0.304720	0.584240
Th61	Th6	0.640480	0.296530	0.398790
O371	O37	0.735600	0.211000	0.078300
O381	O38	0.834800	0.382800	0.478500
O391	O39	0.890500	0.384700	0.159300
O401	O40	0.753400	0.358800	0.398500
O411	O41	0.053200	0.616000	0.334500
O421	O42	0.646200	0.527300	0.399000
C551	C55	0.779500	0.851300	0.544700
H191	H19	0.803500	0.896900	0.578500
O431	O43	0.827400	0.235000	0.192800
C561	C56	0.714200	0.853600	0.441300
H201	H20	0.694700	0.900800	0.405900
O441	O44	0.811000	0.116200	0.521400
O451	O45	0.714500	0.134300	0.456400
O461	O46	0.652000	0.147100	0.007900
C571	C57	0.859600	0.395200	0.375800
O471	O47	0.812100	0.515600	0.603300
O481	O48	0.636000	0.110600	0.328600
C581	C58	0.772600	0.713000	0.547300
C591	C59	0.681200	0.154300	0.063000
C601	C60	0.750600	0.921000	0.491500
O491	O49	0.466700	0.890000	0.072600
O501	O50	0.055900	0.530600	0.428900
O511	O51	0.466700	0.844800	0.172100
C611	C61	0.812800	0.376300	0.420700
C621	C62	0.921800	0.453200	0.396100
H211	H21	0.935700	0.471900	0.438500
O521	O52	0.652600	0.705900	0.339000
C631	C63	0.588100	0.026300	0.097500
H221	H22	0.568700	0.017800	0.055600
O531	O53	0.822200	0.705200	0.653600
C641	C64	0.706900	0.715700	0.443600
C651	C65	0.841700	0.356500	0.313300
H231	H23	0.801700	0.313400	0.300400
O541	O54	0.740000	0.075600	0.305100
C661	C66	0.557300	0.972300	0.145100
C671	C67	0.962300	0.482100	0.351600
C681	C68	0.584200	0.995200	0.208000
H241	H24	0.561600	0.967000	0.239800
C691	C69	0.866400	0.334700	0.203100
C701	C70	0.758200	0.067700	0.489200
C711	C71	0.884100	0.382600	0.269900
C721	C72	0.677000	0.109200	0.175400
H251	H25	0.717400	0.152500	0.185200
C731	C73	0.647800	0.092700	0.113000
C741	C74	0.736000	0.645400	0.496200
H261	H26	0.731300	0.553100	0.497600
C751	C75	0.644600	0.059800	0.223400
C761	C76	0.943400	0.450600	0.289000
H271	H27	0.970000	0.474400	0.259600
C771	C77	0.805000	0.641500	0.605900
C781	C78	0.027000	0.547000	0.372900
C791	C79	0.676400	0.085100	0.290500
C801	C80	0.666400	0.645200	0.388500
C811	C81	0.494000	0.899000	0.129200
Th71	Th7	0.148130	0.804720	0.915760
Th81	Th8	0.359520	0.796530	0.101210
O551	O55	0.264400	0.711000	0.421700
O561	O56	0.165200	0.882800	0.021500
O571	O57	0.109500	0.884700	0.340700
O581	O58	0.246600	0.858800	0.101500
O591	O59	0.946800	0.116000	0.165500
O601	O60	0.353800	0.027300	0.101000
C821	C82	0.220500	0.351300	0.955300
H281	H28	0.196500	0.396900	0.921500
O611	O61	0.172600	0.735000	0.307200
C831	C83	0.285800	0.353600	0.058700
H291	H29	0.305300	0.400800	0.094100
O621	O62	0.189000	0.616200	0.978600
O631	O63	0.285500	0.634300	0.043600
O641	O64	0.348000	0.647100	0.492100
C841	C84	0.140400	0.895200	0.124200
O651	O65	0.187900	0.015600	0.896700
O661	O66	0.364000	0.610600	0.171400
C851	C85	0.227400	0.213000	0.952700
C861	C86	0.318800	0.654300	0.437000
C871	C87	0.249400	0.421000	0.008500
O671	O67	0.533300	0.390000	0.427400
O681	O68	0.944100	0.030600	0.071100
O691	O69	0.533300	0.344800	0.327900
C881	C88	0.187200	0.876300	0.079300
C891	C89	0.078200	0.953200	0.103900
H301	H30	0.064300	0.971900	0.061500
O701	O70	0.347400	0.205900	0.161000
C901	C90	0.411900	0.526300	0.402500
H311	H31	0.431300	0.517800	0.444400
O711	O71	0.177800	0.205200	0.846400
C911	C91	0.293100	0.215700	0.056400
C921	C92	0.158300	0.856500	0.186700
H321	H32	0.198300	0.813400	0.199600
O721	O72	0.260000	0.575600	0.194900
C931	C93	0.442700	0.472300	0.354900
C941	C94	0.037700	0.982100	0.148400
C951	C95	0.415800	0.495200	0.292000
H331	H33	0.438400	0.467000	0.260200
C961	C96	0.133600	0.834700	0.296900
C971	C97	0.241800	0.567700	0.010800
C981	C98	0.115900	0.882600	0.230100
C991	C99	0.323000	0.609200	0.324600
H341	H34	0.282600	0.652500	0.314800
C1001	C100	0.352200	0.592700	0.387000
C1011	C101	0.264000	0.145400	0.003800
H351	H35	0.268700	0.053100	0.002400
C1021	C102	0.355400	0.559800	0.276600
C1031	C103	0.056600	0.950600	0.211000
H361	H36	0.030000	0.974400	0.240400
C1041	C104	0.195000	0.141500	0.894100
C1051	C105	0.973000	0.047000	0.127100
C1061	C106	0.323600	0.585100	0.209500
C1071	C107	0.333600	0.145200	0.111500
C1081	C108	0.506000	0.399000	0.370800
