data_GAGZEV_clean_PM
_symmetry_space_group_name_H-M	'P1'
_cell_length_a	42.335900
_cell_length_b	42.335900
_cell_length_c	42.335900
_cell_angle_alpha	60.000000
_cell_angle_beta	60.000000
_cell_angle_gamma	60.000000
_symmetry_Int_Tables_number 1

loop_
_symmetry_equiv_pos_as_xyz
'x,y,z'

loop_
_atom_site_label
_atom_site_type_symbol
_atom_site_fract_x
_atom_site_fract_y
_atom_site_fract_z
Cu11	Cu1	0.810730	0.000000	0.000000
Cu21	Cu2	0.748110	0.000000	0.000000
Cu31	Cu3	0.000000	0.810730	0.189270
Cu41	Cu4	0.000000	0.748110	0.251890
Cu51	Cu5	0.000000	0.189270	0.810730
Cu61	Cu6	0.000000	0.251890	0.748110
Cu71	Cu7	0.189270	0.000000	0.000000
Cu81	Cu8	0.251890	0.000000	0.000000
Cu91	Cu9	0.810730	0.000000	0.189270
Cu101	Cu10	0.748110	0.000000	0.251890
Cu111	Cu11	0.000000	0.189270	0.000000
Cu121	Cu12	0.000000	0.251890	0.000000
Cu131	Cu13	0.000000	0.810730	0.000000
Cu141	Cu14	0.000000	0.748110	0.000000
Cu151	Cu15	0.189270	0.000000	0.810730
Cu161	Cu16	0.251890	0.000000	0.748110
Cu171	Cu17	0.810730	0.189270	0.000000
Cu181	Cu18	0.748110	0.251890	0.000000
Cu191	Cu19	0.000000	0.000000	0.810730
Cu201	Cu20	0.000000	0.000000	0.748110
Cu211	Cu21	0.000000	0.000000	0.189270
Cu221	Cu22	0.000000	0.000000	0.251890
Cu231	Cu23	0.189270	0.810730	0.000000
Cu241	Cu24	0.251890	0.748110	0.000000
H11	H1	0.681700	0.980100	0.121100
H21	H2	0.561400	0.974200	0.185400
H31	H3	0.498300	0.968900	0.219300
H41	H4	0.980100	0.681700	0.217100
H51	H5	0.974200	0.561400	0.279000
H61	H6	0.968900	0.498300	0.313500
H71	H7	0.121100	0.217100	0.681700
H81	H8	0.185400	0.279000	0.561400
H91	H9	0.219300	0.313500	0.498300
H101	H10	0.217100	0.121100	0.980100
H111	H11	0.279000	0.185400	0.974200
H121	H12	0.313500	0.219300	0.968900
H131	H13	0.681700	0.121100	0.217100
H141	H14	0.561400	0.185400	0.279000
H151	H15	0.498300	0.219300	0.313500
H161	H16	0.980100	0.217100	0.121100
H171	H17	0.974200	0.279000	0.185400
H181	H18	0.968900	0.313500	0.219300
H191	H19	0.121100	0.681700	0.980100
H201	H20	0.185400	0.561400	0.974200
H211	H21	0.219300	0.498300	0.968900
H221	H22	0.217100	0.980100	0.681700
H231	H23	0.279000	0.974200	0.561400
H241	H24	0.313500	0.968900	0.498300
H251	H25	0.681700	0.217100	0.980100
H261	H26	0.561400	0.279000	0.974200
H271	H27	0.498300	0.313500	0.968900
H281	H28	0.980100	0.121100	0.681700
H291	H29	0.974200	0.185400	0.561400
H301	H30	0.968900	0.219300	0.498300
H311	H31	0.121100	0.980100	0.217100
H321	H32	0.185400	0.974200	0.279000
H331	H33	0.219300	0.968900	0.313500
H341	H34	0.217100	0.681700	0.121100
H351	H35	0.279000	0.561400	0.185400
H361	H36	0.313500	0.498300	0.219300
H371	H37	0.019900	0.318300	0.878900
H381	H38	0.025800	0.438600	0.814600
H391	H39	0.031100	0.501700	0.780700
H401	H40	0.318300	0.019900	0.782900
H411	H41	0.438600	0.025800	0.721000
H421	H42	0.501700	0.031100	0.686500
H431	H43	0.782900	0.878900	0.318300
H441	H44	0.721000	0.814600	0.438600
H451	H45	0.686500	0.780700	0.501700
H461	H46	0.878900	0.782900	0.019900
H471	H47	0.814600	0.721000	0.025800
H481	H48	0.780700	0.686500	0.031100
H491	H49	0.878900	0.318300	0.782900
H501	H50	0.814600	0.438600	0.721000
H511	H51	0.780700	0.501700	0.686500
H521	H52	0.782900	0.019900	0.878900
H531	H53	0.721000	0.025800	0.814600
H541	H54	0.686500	0.031100	0.780700
H551	H55	0.318300	0.878900	0.019900
H561	H56	0.438600	0.814600	0.025800
H571	H57	0.501700	0.780700	0.031100
H581	H58	0.019900	0.782900	0.318300
H591	H59	0.025800	0.721000	0.438600
H601	H60	0.031100	0.686500	0.501700
H611	H61	0.782900	0.318300	0.019900
H621	H62	0.721000	0.438600	0.025800
H631	H63	0.686500	0.501700	0.031100
H641	H64	0.878900	0.019900	0.318300
H651	H65	0.814600	0.025800	0.438600
H661	H66	0.780700	0.031100	0.501700
H671	H67	0.019900	0.878900	0.782900
H681	H68	0.025800	0.814600	0.721000
H691	H69	0.031100	0.780700	0.686500
H701	H70	0.318300	0.782900	0.878900
H711	H71	0.438600	0.721000	0.814600
H721	H72	0.501700	0.686500	0.780700
H731	H73	0.318300	0.019900	0.878900
H741	H74	0.438600	0.025800	0.814600
H751	H75	0.501700	0.031100	0.780700
H761	H76	0.019900	0.318300	0.782900
H771	H77	0.025800	0.438600	0.721000
H781	H78	0.031100	0.501700	0.686500
H791	H79	0.878900	0.782900	0.318300
H801	H80	0.814600	0.721000	0.438600
H811	H81	0.780700	0.686500	0.501700
H821	H82	0.782900	0.878900	0.019900
H831	H83	0.721000	0.814600	0.025800
H841	H84	0.686500	0.780700	0.031100
H851	H85	0.318300	0.878900	0.782900
H861	H86	0.438600	0.814600	0.721000
H871	H87	0.501700	0.780700	0.686500
H881	H88	0.019900	0.782900	0.878900
H891	H89	0.025800	0.721000	0.814600
H901	H90	0.031100	0.686500	0.780700
H911	H91	0.878900	0.318300	0.019900
H921	H92	0.814600	0.438600	0.025800
H931	H93	0.780700	0.501700	0.031100
H941	H94	0.782900	0.019900	0.318300
H951	H95	0.721000	0.025800	0.438600
H961	H96	0.686500	0.031100	0.501700
H971	H97	0.318300	0.782900	0.019900
H981	H98	0.438600	0.721000	0.025800
H991	H99	0.501700	0.686500	0.031100
H1001	H100	0.019900	0.878900	0.318300
H1011	H101	0.025800	0.814600	0.438600
H1021	H102	0.031100	0.780700	0.501700
H1031	H103	0.878900	0.019900	0.782900
H1041	H104	0.814600	0.025800	0.721000
H1051	H105	0.780700	0.031100	0.686500
H1061	H106	0.782900	0.318300	0.878900
H1071	H107	0.721000	0.438600	0.814600
H1081	H108	0.686500	0.501700	0.780700
H1091	H109	0.980100	0.681700	0.121100
H1101	H110	0.974200	0.561400	0.185400
H1111	H111	0.968900	0.498300	0.219300
H1121	H112	0.681700	0.980100	0.217100
H1131	H113	0.561400	0.974200	0.279000
H1141	H114	0.498300	0.968900	0.313500
H1151	H115	0.217100	0.121100	0.681700
H1161	H116	0.279000	0.185400	0.561400
H1171	H117	0.313500	0.219300	0.498300
H1181	H118	0.121100	0.217100	0.980100
H1191	H119	0.185400	0.279000	0.974200
H1201	H120	0.219300	0.313500	0.968900
H1211	H121	0.121100	0.681700	0.217100
H1221	H122	0.185400	0.561400	0.279000
H1231	H123	0.219300	0.498300	0.313500
H1241	H124	0.217100	0.980100	0.121100
H1251	H125	0.279000	0.974200	0.185400
H1261	H126	0.313500	0.968900	0.219300
H1271	H127	0.681700	0.121100	0.980100
H1281	H128	0.561400	0.185400	0.974200
H1291	H129	0.498300	0.219300	0.968900
H1301	H130	0.980100	0.217100	0.681700
H1311	H131	0.974200	0.279000	0.561400
H1321	H132	0.968900	0.313500	0.498300
H1331	H133	0.217100	0.681700	0.980100
H1341	H134	0.279000	0.561400	0.974200
H1351	H135	0.313500	0.498300	0.968900
H1361	H136	0.121100	0.980100	0.681700
H1371	H137	0.185400	0.974200	0.561400
H1381	H138	0.219300	0.968900	0.498300
H1391	H139	0.980100	0.121100	0.217100
H1401	H140	0.974200	0.185400	0.279000
H1411	H141	0.968900	0.219300	0.313500
H1421	H142	0.681700	0.217100	0.121100
H1431	H143	0.561400	0.279000	0.185400
H1441	H144	0.498300	0.313500	0.219300
H1451	H145	0.773600	0.988400	0.119000
H1461	H146	0.988400	0.773600	0.119000
H1471	H147	0.119000	0.119000	0.773600
H1481	H148	0.119000	0.119000	0.988400
H1491	H149	0.773600	0.119000	0.119000
H1501	H150	0.988400	0.119000	0.119000
H1511	H151	0.119000	0.773600	0.988400
H1521	H152	0.119000	0.988400	0.773600
H1531	H153	0.773600	0.119000	0.988400
H1541	H154	0.988400	0.119000	0.773600
H1551	H155	0.119000	0.988400	0.119000
H1561	H156	0.119000	0.773600	0.119000
H1571	H157	0.011600	0.226400	0.881000
H1581	H158	0.226400	0.011600	0.881000
H1591	H159	0.881000	0.881000	0.226400
H1601	H160	0.881000	0.881000	0.011600
H1611	H161	0.881000	0.226400	0.881000
H1621	H162	0.881000	0.011600	0.881000
H1631	H163	0.226400	0.881000	0.011600
H1641	H164	0.011600	0.881000	0.226400
H1651	H165	0.881000	0.226400	0.011600
H1661	H166	0.881000	0.011600	0.226400
H1671	H167	0.011600	0.881000	0.881000
H1681	H168	0.226400	0.881000	0.881000
H1691	H169	0.376000	0.966800	0.281200
H1701	H170	0.966800	0.376000	0.376000
H1711	H171	0.281200	0.376000	0.376000
H1721	H172	0.376000	0.281200	0.966800
H1731	H173	0.376000	0.281200	0.376000
H1741	H174	0.966800	0.376000	0.281200
H1751	H175	0.281200	0.376000	0.966800
H1761	H176	0.376000	0.966800	0.376000
H1771	H177	0.376000	0.376000	0.966800
H1781	H178	0.966800	0.281200	0.376000
H1791	H179	0.281200	0.966800	0.376000
H1801	H180	0.376000	0.376000	0.281200
H1811	H181	0.033200	0.624000	0.718800
H1821	H182	0.624000	0.033200	0.624000
H1831	H183	0.624000	0.718800	0.624000
H1841	H184	0.718800	0.624000	0.033200
H1851	H185	0.718800	0.624000	0.624000
H1861	H186	0.624000	0.033200	0.718800
H1871	H187	0.624000	0.718800	0.033200
H1881	H188	0.033200	0.624000	0.624000
H1891	H189	0.624000	0.624000	0.033200
H1901	H190	0.718800	0.033200	0.624000
H1911	H191	0.033200	0.718800	0.624000
H1921	H192	0.624000	0.624000	0.718800
C11	C1	0.747940	0.985980	0.075380
C21	C2	0.730760	0.985400	0.113300
C31	C3	0.694420	0.980820	0.133840
C41	C4	0.549000	0.971600	0.212000
C51	C5	0.511600	0.968600	0.232200
C61	C6	0.985980	0.747940	0.190700
C71	C7	0.985400	0.730760	0.170540
C81	C8	0.980820	0.694420	0.190920
C91	C9	0.971600	0.549000	0.267400
C101	C10	0.968600	0.511600	0.287600
C111	C11	0.075380	0.190700	0.747940
C121	C12	0.113300	0.170540	0.730760
C131	C13	0.133840	0.190920	0.694420
C141	C14	0.212000	0.267400	0.549000
C151	C15	0.232200	0.287600	0.511600
C161	C16	0.190700	0.075380	0.985980
C171	C17	0.170540	0.113300	0.985400
C181	C18	0.190920	0.133840	0.980820
C191	C19	0.267400	0.212000	0.971600
C201	C20	0.287600	0.232200	0.968600
C211	C21	0.747940	0.075380	0.190700
C221	C22	0.730760	0.113300	0.170540
C231	C23	0.694420	0.133840	0.190920
C241	C24	0.549000	0.212000	0.267400
C251	C25	0.511600	0.232200	0.287600
C261	C26	0.985980	0.190700	0.075380
C271	C27	0.985400	0.170540	0.113300
C281	C28	0.980820	0.190920	0.133840
C291	C29	0.971600	0.267400	0.212000
C301	C30	0.968600	0.287600	0.232200
C311	C31	0.075380	0.747940	0.985980
C321	C32	0.113300	0.730760	0.985400
C331	C33	0.133840	0.694420	0.980820
C341	C34	0.212000	0.549000	0.971600
C351	C35	0.232200	0.511600	0.968600
C361	C36	0.190700	0.985980	0.747940
C371	C37	0.170540	0.985400	0.730760
C381	C38	0.190920	0.980820	0.694420
C391	C39	0.267400	0.971600	0.549000
C401	C40	0.287600	0.968600	0.511600
C411	C41	0.747940	0.190700	0.985980
C421	C42	0.730760	0.170540	0.985400
C431	C43	0.694420	0.190920	0.980820
C441	C44	0.549000	0.267400	0.971600
C451	C45	0.511600	0.287600	0.968600
C461	C46	0.985980	0.075380	0.747940
C471	C47	0.985400	0.113300	0.730760
C481	C48	0.980820	0.133840	0.694420
C491	C49	0.971600	0.212000	0.549000
C501	C50	0.968600	0.232200	0.511600
C511	C51	0.075380	0.985980	0.190700
C521	C52	0.113300	0.985400	0.170540
C531	C53	0.133840	0.980820	0.190920
C541	C54	0.212000	0.971600	0.267400
C551	C55	0.232200	0.968600	0.287600
C561	C56	0.190700	0.747940	0.075380
C571	C57	0.170540	0.730760	0.113300
C581	C58	0.190920	0.694420	0.133840
C591	C59	0.267400	0.549000	0.212000
C601	C60	0.287600	0.511600	0.232200
C611	C61	0.014020	0.252060	0.924620
C621	C62	0.014600	0.269240	0.886700
C631	C63	0.019180	0.305580	0.866160
C641	C64	0.028400	0.451000	0.788000
C651	C65	0.031400	0.488400	0.767800
C661	C66	0.252060	0.014020	0.809300
C671	C67	0.269240	0.014600	0.829460
C681	C68	0.305580	0.019180	0.809080
C691	C69	0.451000	0.028400	0.732600
C701	C70	0.488400	0.031400	0.712400
C711	C71	0.809300	0.924620	0.252060
C721	C72	0.829460	0.886700	0.269240
C731	C73	0.809080	0.866160	0.305580
C741	C74	0.732600	0.788000	0.451000
C751	C75	0.712400	0.767800	0.488400
C761	C76	0.924620	0.809300	0.014020
C771	C77	0.886700	0.829460	0.014600
C781	C78	0.866160	0.809080	0.019180
C791	C79	0.788000	0.732600	0.028400
C801	C80	0.767800	0.712400	0.031400
C811	C81	0.924620	0.252060	0.809300
C821	C82	0.886700	0.269240	0.829460
C831	C83	0.866160	0.305580	0.809080
C841	C84	0.788000	0.451000	0.732600
C851	C85	0.767800	0.488400	0.712400
C861	C86	0.809300	0.014020	0.924620
C871	C87	0.829460	0.014600	0.886700
C881	C88	0.809080	0.019180	0.866160
C891	C89	0.732600	0.028400	0.788000
C901	C90	0.712400	0.031400	0.767800
C911	C91	0.252060	0.924620	0.014020
C921	C92	0.269240	0.886700	0.014600
C931	C93	0.305580	0.866160	0.019180
C941	C94	0.451000	0.788000	0.028400
C951	C95	0.488400	0.767800	0.031400
C961	C96	0.014020	0.809300	0.252060
C971	C97	0.014600	0.829460	0.269240
C981	C98	0.019180	0.809080	0.305580
C991	C99	0.028400	0.732600	0.451000
C1001	C100	0.031400	0.712400	0.488400
C1011	C101	0.809300	0.252060	0.014020
C1021	C102	0.829460	0.269240	0.014600
C1031	C103	0.809080	0.305580	0.019180
C1041	C104	0.732600	0.451000	0.028400
C1051	C105	0.712400	0.488400	0.031400
C1061	C106	0.924620	0.014020	0.252060
C1071	C107	0.886700	0.014600	0.269240
C1081	C108	0.866160	0.019180	0.305580
C1091	C109	0.788000	0.028400	0.451000
C1101	C110	0.767800	0.031400	0.488400
C1111	C111	0.014020	0.924620	0.809300
C1121	C112	0.014600	0.886700	0.829460
C1131	C113	0.019180	0.866160	0.809080
C1141	C114	0.028400	0.788000	0.732600
C1151	C115	0.031400	0.767800	0.712400
C1161	C116	0.252060	0.809300	0.924620
C1171	C117	0.269240	0.829460	0.886700
C1181	C118	0.305580	0.809080	0.866160
C1191	C119	0.451000	0.732600	0.788000
C1201	C120	0.488400	0.712400	0.767800
C1211	C121	0.252060	0.014020	0.924620
C1221	C122	0.269240	0.014600	0.886700
C1231	C123	0.305580	0.019180	0.866160
C1241	C124	0.451000	0.028400	0.788000
C1251	C125	0.488400	0.031400	0.767800
C1261	C126	0.014020	0.252060	0.809300
C1271	C127	0.014600	0.269240	0.829460
C1281	C128	0.019180	0.305580	0.809080
C1291	C129	0.028400	0.451000	0.732600
C1301	C130	0.031400	0.488400	0.712400
C1311	C131	0.924620	0.809300	0.252060
C1321	C132	0.886700	0.829460	0.269240
C1331	C133	0.866160	0.809080	0.305580
C1341	C134	0.788000	0.732600	0.451000
C1351	C135	0.767800	0.712400	0.488400
C1361	C136	0.809300	0.924620	0.014020
C1371	C137	0.829460	0.886700	0.014600
C1381	C138	0.809080	0.866160	0.019180
C1391	C139	0.732600	0.788000	0.028400
C1401	C140	0.712400	0.767800	0.031400
C1411	C141	0.252060	0.924620	0.809300
C1421	C142	0.269240	0.886700	0.829460
C1431	C143	0.305580	0.866160	0.809080
C1441	C144	0.451000	0.788000	0.732600
C1451	C145	0.488400	0.767800	0.712400
C1461	C146	0.014020	0.809300	0.924620
C1471	C147	0.014600	0.829460	0.886700
C1481	C148	0.019180	0.809080	0.866160
C1491	C149	0.028400	0.732600	0.788000
C1501	C150	0.031400	0.712400	0.767800
C1511	C151	0.924620	0.252060	0.014020
C1521	C152	0.886700	0.269240	0.014600
C1531	C153	0.866160	0.305580	0.019180
C1541	C154	0.788000	0.451000	0.028400
C1551	C155	0.767800	0.488400	0.031400
C1561	C156	0.809300	0.014020	0.252060
C1571	C157	0.829460	0.014600	0.269240
C1581	C158	0.809080	0.019180	0.305580
C1591	C159	0.732600	0.028400	0.451000
C1601	C160	0.712400	0.031400	0.488400
C1611	C161	0.252060	0.809300	0.014020
C1621	C162	0.269240	0.829460	0.014600
C1631	C163	0.305580	0.809080	0.019180
C1641	C164	0.451000	0.732600	0.028400
C1651	C165	0.488400	0.712400	0.031400
C1661	C166	0.014020	0.924620	0.252060
C1671	C167	0.014600	0.886700	0.269240
C1681	C168	0.019180	0.866160	0.305580
C1691	C169	0.028400	0.788000	0.451000
C1701	C170	0.031400	0.767800	0.488400
C1711	C171	0.924620	0.014020	0.809300
C1721	C172	0.886700	0.014600	0.829460
C1731	C173	0.866160	0.019180	0.809080
C1741	C174	0.788000	0.028400	0.732600
C1751	C175	0.767800	0.031400	0.712400
C1761	C176	0.809300	0.252060	0.924620
C1771	C177	0.829460	0.269240	0.886700
C1781	C178	0.809080	0.305580	0.866160
C1791	C179	0.732600	0.451000	0.788000
C1801	C180	0.712400	0.488400	0.767800
C1811	C181	0.985980	0.747940	0.075380
C1821	C182	0.985400	0.730760	0.113300
C1831	C183	0.980820	0.694420	0.133840
C1841	C184	0.971600	0.549000	0.212000
C1851	C185	0.968600	0.511600	0.232200
C1861	C186	0.747940	0.985980	0.190700
C1871	C187	0.730760	0.985400	0.170540
C1881	C188	0.694420	0.980820	0.190920
C1891	C189	0.549000	0.971600	0.267400
C1901	C190	0.511600	0.968600	0.287600
C1911	C191	0.190700	0.075380	0.747940
C1921	C192	0.170540	0.113300	0.730760
C1931	C193	0.190920	0.133840	0.694420
C1941	C194	0.267400	0.212000	0.549000
C1951	C195	0.287600	0.232200	0.511600
C1961	C196	0.075380	0.190700	0.985980
C1971	C197	0.113300	0.170540	0.985400
C1981	C198	0.133840	0.190920	0.980820
C1991	C199	0.212000	0.267400	0.971600
C2001	C200	0.232200	0.287600	0.968600
C2011	C201	0.075380	0.747940	0.190700
C2021	C202	0.113300	0.730760	0.170540
C2031	C203	0.133840	0.694420	0.190920
C2041	C204	0.212000	0.549000	0.267400
C2051	C205	0.232200	0.511600	0.287600
C2061	C206	0.190700	0.985980	0.075380
C2071	C207	0.170540	0.985400	0.113300
C2081	C208	0.190920	0.980820	0.133840
C2091	C209	0.267400	0.971600	0.212000
C2101	C210	0.287600	0.968600	0.232200
C2111	C211	0.747940	0.075380	0.985980
C2121	C212	0.730760	0.113300	0.985400
C2131	C213	0.694420	0.133840	0.980820
C2141	C214	0.549000	0.212000	0.971600
C2151	C215	0.511600	0.232200	0.968600
C2161	C216	0.985980	0.190700	0.747940
C2171	C217	0.985400	0.170540	0.730760
C2181	C218	0.980820	0.190920	0.694420
C2191	C219	0.971600	0.267400	0.549000
C2201	C220	0.968600	0.287600	0.511600
C2211	C221	0.190700	0.747940	0.985980
C2221	C222	0.170540	0.730760	0.985400
C2231	C223	0.190920	0.694420	0.980820
C2241	C224	0.267400	0.549000	0.971600
C2251	C225	0.287600	0.511600	0.968600
C2261	C226	0.075380	0.985980	0.747940
C2271	C227	0.113300	0.985400	0.730760
C2281	C228	0.133840	0.980820	0.694420
C2291	C229	0.212000	0.971600	0.549000
C2301	C230	0.232200	0.968600	0.511600
C2311	C231	0.985980	0.075380	0.190700
C2321	C232	0.985400	0.113300	0.170540
C2331	C233	0.980820	0.133840	0.190920
C2341	C234	0.971600	0.212000	0.267400
C2351	C235	0.968600	0.232200	0.287600
C2361	C236	0.747940	0.190700	0.075380
C2371	C237	0.730760	0.170540	0.113300
C2381	C238	0.694420	0.190920	0.133840
C2391	C239	0.549000	0.267400	0.212000
C2401	C240	0.511600	0.287600	0.232200
C2411	C241	0.748330	0.986610	0.132530
C2421	C242	0.676550	0.977390	0.173030
C2431	C243	0.637840	0.974960	0.193600
C2441	C244	0.607380	0.973020	0.209800
C2451	C245	0.566060	0.970340	0.231800
C2461	C246	0.494520	0.965480	0.270000
C2471	C247	0.454560	0.964240	0.290600
C2481	C248	0.420580	0.963220	0.308100
C2491	C249	0.383000	0.962000	0.327500
C2501	C250	0.986610	0.748330	0.132530
C2511	C251	0.977390	0.676550	0.173030
C2521	C252	0.974960	0.637840	0.193600
C2531	C253	0.973020	0.607380	0.209800
C2541	C254	0.970340	0.566060	0.231800
C2551	C255	0.965480	0.494520	0.270000
C2561	C256	0.964240	0.454560	0.290600
C2571	C257	0.963220	0.420580	0.308100
C2581	C258	0.962000	0.383000	0.327500
C2591	C259	0.132530	0.132530	0.748330
C2601	C260	0.173030	0.173030	0.676550
C2611	C261	0.193600	0.193600	0.637840
C2621	C262	0.209800	0.209800	0.607380
C2631	C263	0.231800	0.231800	0.566060
C2641	C264	0.270000	0.270000	0.494520
C2651	C265	0.290600	0.290600	0.454560
C2661	C266	0.308100	0.308100	0.420580
C2671	C267	0.327500	0.327500	0.383000
C2681	C268	0.132530	0.132530	0.986610
C2691	C269	0.173030	0.173030	0.977390
C2701	C270	0.193600	0.193600	0.974960
C2711	C271	0.209800	0.209800	0.973020
C2721	C272	0.231800	0.231800	0.970340
C2731	C273	0.270000	0.270000	0.965480
C2741	C274	0.290600	0.290600	0.964240
C2751	C275	0.308100	0.308100	0.963220
C2761	C276	0.327500	0.327500	0.962000
C2771	C277	0.748330	0.132530	0.132530
C2781	C278	0.676550	0.173030	0.173030
C2791	C279	0.637840	0.193600	0.193600
C2801	C280	0.607380	0.209800	0.209800
C2811	C281	0.566060	0.231800	0.231800
C2821	C282	0.494520	0.270000	0.270000
C2831	C283	0.454560	0.290600	0.290600
C2841	C284	0.420580	0.308100	0.308100
C2851	C285	0.383000	0.327500	0.327500
C2861	C286	0.986610	0.132530	0.132530
C2871	C287	0.977390	0.173030	0.173030
C2881	C288	0.974960	0.193600	0.193600
C2891	C289	0.973020	0.209800	0.209800
C2901	C290	0.970340	0.231800	0.231800
C2911	C291	0.965480	0.270000	0.270000
C2921	C292	0.964240	0.290600	0.290600
C2931	C293	0.963220	0.308100	0.308100
C2941	C294	0.962000	0.327500	0.327500
C2951	C295	0.132530	0.748330	0.986610
C2961	C296	0.173030	0.676550	0.977390
C2971	C297	0.193600	0.637840	0.974960
C2981	C298	0.209800	0.607380	0.973020
C2991	C299	0.231800	0.566060	0.970340
C3001	C300	0.270000	0.494520	0.965480
C3011	C301	0.290600	0.454560	0.964240
C3021	C302	0.308100	0.420580	0.963220
C3031	C303	0.327500	0.383000	0.962000
C3041	C304	0.132530	0.986610	0.748330
C3051	C305	0.173030	0.977390	0.676550
C3061	C306	0.193600	0.974960	0.637840
C3071	C307	0.209800	0.973020	0.607380
C3081	C308	0.231800	0.970340	0.566060
C3091	C309	0.270000	0.965480	0.494520
C3101	C310	0.290600	0.964240	0.454560
C3111	C311	0.308100	0.963220	0.420580
C3121	C312	0.327500	0.962000	0.383000
C3131	C313	0.748330	0.132530	0.986610
C3141	C314	0.676550	0.173030	0.977390
C3151	C315	0.637840	0.193600	0.974960
C3161	C316	0.607380	0.209800	0.973020
C3171	C317	0.566060	0.231800	0.970340
C3181	C318	0.494520	0.270000	0.965480
C3191	C319	0.454560	0.290600	0.964240
C3201	C320	0.420580	0.308100	0.963220
C3211	C321	0.383000	0.327500	0.962000
C3221	C322	0.986610	0.132530	0.748330
C3231	C323	0.977390	0.173030	0.676550
C3241	C324	0.974960	0.193600	0.637840
C3251	C325	0.973020	0.209800	0.607380
C3261	C326	0.970340	0.231800	0.566060
C3271	C327	0.965480	0.270000	0.494520
C3281	C328	0.964240	0.290600	0.454560
C3291	C329	0.963220	0.308100	0.420580
C3301	C330	0.962000	0.327500	0.383000
C3311	C331	0.132530	0.986610	0.132530
C3321	C332	0.173030	0.977390	0.173030
C3331	C333	0.193600	0.974960	0.193600
C3341	C334	0.209800	0.973020	0.209800
C3351	C335	0.231800	0.970340	0.231800
C3361	C336	0.270000	0.965480	0.270000
C3371	C337	0.290600	0.964240	0.290600
C3381	C338	0.308100	0.963220	0.308100
C3391	C339	0.327500	0.962000	0.327500
C3401	C340	0.132530	0.748330	0.132530
C3411	C341	0.173030	0.676550	0.173030
C3421	C342	0.193600	0.637840	0.193600
C3431	C343	0.209800	0.607380	0.209800
C3441	C344	0.231800	0.566060	0.231800
C3451	C345	0.270000	0.494520	0.270000
C3461	C346	0.290600	0.454560	0.290600
C3471	C347	0.308100	0.420580	0.308100
C3481	C348	0.327500	0.383000	0.327500
C3491	C349	0.013390	0.251670	0.867470
C3501	C350	0.022610	0.323450	0.826970
C3511	C351	0.025040	0.362160	0.806400
C3521	C352	0.026980	0.392620	0.790200
C3531	C353	0.029660	0.433940	0.768200
C3541	C354	0.034520	0.505480	0.730000
C3551	C355	0.035760	0.545440	0.709400
C3561	C356	0.036780	0.579420	0.691900
C3571	C357	0.038000	0.617000	0.672500
C3581	C358	0.251670	0.013390	0.867470
C3591	C359	0.323450	0.022610	0.826970
C3601	C360	0.362160	0.025040	0.806400
C3611	C361	0.392620	0.026980	0.790200
C3621	C362	0.433940	0.029660	0.768200
C3631	C363	0.505480	0.034520	0.730000
C3641	C364	0.545440	0.035760	0.709400
C3651	C365	0.579420	0.036780	0.691900
C3661	C366	0.617000	0.038000	0.672500
C3671	C367	0.867470	0.867470	0.251670
C3681	C368	0.826970	0.826970	0.323450
C3691	C369	0.806400	0.806400	0.362160
C3701	C370	0.790200	0.790200	0.392620
C3711	C371	0.768200	0.768200	0.433940
C3721	C372	0.730000	0.730000	0.505480
C3731	C373	0.709400	0.709400	0.545440
C3741	C374	0.691900	0.691900	0.579420
C3751	C375	0.672500	0.672500	0.617000
C3761	C376	0.867470	0.867470	0.013390
C3771	C377	0.826970	0.826970	0.022610
C3781	C378	0.806400	0.806400	0.025040
C3791	C379	0.790200	0.790200	0.026980
C3801	C380	0.768200	0.768200	0.029660
C3811	C381	0.730000	0.730000	0.034520
C3821	C382	0.709400	0.709400	0.035760
C3831	C383	0.691900	0.691900	0.036780
C3841	C384	0.672500	0.672500	0.038000
C3851	C385	0.867470	0.251670	0.867470
C3861	C386	0.826970	0.323450	0.826970
C3871	C387	0.806400	0.362160	0.806400
C3881	C388	0.790200	0.392620	0.790200
C3891	C389	0.768200	0.433940	0.768200
C3901	C390	0.730000	0.505480	0.730000
C3911	C391	0.709400	0.545440	0.709400
C3921	C392	0.691900	0.579420	0.691900
C3931	C393	0.672500	0.617000	0.672500
C3941	C394	0.867470	0.013390	0.867470
C3951	C395	0.826970	0.022610	0.826970
C3961	C396	0.806400	0.025040	0.806400
C3971	C397	0.790200	0.026980	0.790200
C3981	C398	0.768200	0.029660	0.768200
C3991	C399	0.730000	0.034520	0.730000
C4001	C400	0.709400	0.035760	0.709400
C4011	C401	0.691900	0.036780	0.691900
C4021	C402	0.672500	0.038000	0.672500
C4031	C403	0.251670	0.867470	0.013390
C4041	C404	0.323450	0.826970	0.022610
C4051	C405	0.362160	0.806400	0.025040
C4061	C406	0.392620	0.790200	0.026980
C4071	C407	0.433940	0.768200	0.029660
C4081	C408	0.505480	0.730000	0.034520
C4091	C409	0.545440	0.709400	0.035760
C4101	C410	0.579420	0.691900	0.036780
C4111	C411	0.617000	0.672500	0.038000
C4121	C412	0.013390	0.867470	0.251670
C4131	C413	0.022610	0.826970	0.323450
C4141	C414	0.025040	0.806400	0.362160
C4151	C415	0.026980	0.790200	0.392620
C4161	C416	0.029660	0.768200	0.433940
C4171	C417	0.034520	0.730000	0.505480
C4181	C418	0.035760	0.709400	0.545440
C4191	C419	0.036780	0.691900	0.579420
C4201	C420	0.038000	0.672500	0.617000
C4211	C421	0.867470	0.251670	0.013390
C4221	C422	0.826970	0.323450	0.022610
C4231	C423	0.806400	0.362160	0.025040
C4241	C424	0.790200	0.392620	0.026980
C4251	C425	0.768200	0.433940	0.029660
C4261	C426	0.730000	0.505480	0.034520
C4271	C427	0.709400	0.545440	0.035760
C4281	C428	0.691900	0.579420	0.036780
C4291	C429	0.672500	0.617000	0.038000
C4301	C430	0.867470	0.013390	0.251670
C4311	C431	0.826970	0.022610	0.323450
C4321	C432	0.806400	0.025040	0.362160
C4331	C433	0.790200	0.026980	0.392620
C4341	C434	0.768200	0.029660	0.433940
C4351	C435	0.730000	0.034520	0.505480
C4361	C436	0.709400	0.035760	0.545440
C4371	C437	0.691900	0.036780	0.579420
C4381	C438	0.672500	0.038000	0.617000
C4391	C439	0.013390	0.867470	0.867470
C4401	C440	0.022610	0.826970	0.826970
C4411	C441	0.025040	0.806400	0.806400
C4421	C442	0.026980	0.790200	0.790200
C4431	C443	0.029660	0.768200	0.768200
C4441	C444	0.034520	0.730000	0.730000
C4451	C445	0.035760	0.709400	0.709400
C4461	C446	0.036780	0.691900	0.691900
C4471	C447	0.038000	0.672500	0.672500
C4481	C448	0.251670	0.867470	0.867470
C4491	C449	0.323450	0.826970	0.826970
C4501	C450	0.362160	0.806400	0.806400
C4511	C451	0.392620	0.790200	0.790200
C4521	C452	0.433940	0.768200	0.768200
C4531	C453	0.505480	0.730000	0.730000
C4541	C454	0.545440	0.709400	0.709400
C4551	C455	0.579420	0.691900	0.691900
C4561	C456	0.617000	0.672500	0.672500
C4571	C457	0.364000	0.964040	0.307960
C4581	C458	0.964040	0.364000	0.364000
C4591	C459	0.307960	0.364000	0.364000
C4601	C460	0.364000	0.307960	0.964040
C4611	C461	0.364000	0.307960	0.364000
C4621	C462	0.964040	0.364000	0.307960
C4631	C463	0.307960	0.364000	0.964040
C4641	C464	0.364000	0.964040	0.364000
C4651	C465	0.364000	0.364000	0.964040
C4661	C466	0.964040	0.307960	0.364000
C4671	C467	0.307960	0.964040	0.364000
C4681	C468	0.364000	0.364000	0.307960
C4691	C469	0.035960	0.636000	0.692040
C4701	C470	0.636000	0.035960	0.636000
C4711	C471	0.636000	0.692040	0.636000
C4721	C472	0.692040	0.636000	0.035960
C4731	C473	0.692040	0.636000	0.636000
C4741	C474	0.636000	0.035960	0.692040
C4751	C475	0.636000	0.692040	0.035960
C4761	C476	0.035960	0.636000	0.636000
C4771	C477	0.636000	0.636000	0.035960
C4781	C478	0.692040	0.035960	0.636000
C4791	C479	0.035960	0.692040	0.636000
C4801	C480	0.636000	0.636000	0.692040
O11	O1	0.782190	0.991090	0.055630
O21	O2	0.730060	0.990420	0.056220
O31	O3	0.991090	0.782190	0.171090
O41	O4	0.990420	0.730060	0.223300
O51	O5	0.055630	0.171090	0.782190
O61	O6	0.056220	0.223300	0.730060
O71	O7	0.171090	0.055630	0.991090
O81	O8	0.223300	0.056220	0.990420
O91	O9	0.782190	0.055630	0.171090
O101	O10	0.730060	0.056220	0.223300
O111	O11	0.991090	0.171090	0.055630
O121	O12	0.990420	0.223300	0.056220
O131	O13	0.055630	0.782190	0.991090
O141	O14	0.056220	0.730060	0.990420
O151	O15	0.171090	0.991090	0.782190
O161	O16	0.223300	0.990420	0.730060
O171	O17	0.782190	0.171090	0.991090
O181	O18	0.730060	0.223300	0.990420
O191	O19	0.991090	0.055630	0.782190
O201	O20	0.990420	0.056220	0.730060
O211	O21	0.055630	0.991090	0.171090
O221	O22	0.056220	0.990420	0.223300
O231	O23	0.171090	0.782190	0.055630
O241	O24	0.223300	0.730060	0.056220
O251	O25	0.008910	0.217810	0.944370
O261	O26	0.009580	0.269940	0.943780
O271	O27	0.217810	0.008910	0.828910
O281	O28	0.269940	0.009580	0.776700
O291	O29	0.828910	0.944370	0.217810
O301	O30	0.776700	0.943780	0.269940
O311	O31	0.944370	0.828910	0.008910
O321	O32	0.943780	0.776700	0.009580
O331	O33	0.944370	0.217810	0.828910
O341	O34	0.943780	0.269940	0.776700
O351	O35	0.828910	0.008910	0.944370
O361	O36	0.776700	0.009580	0.943780
O371	O37	0.217810	0.944370	0.008910
O381	O38	0.269940	0.943780	0.009580
O391	O39	0.008910	0.828910	0.217810
O401	O40	0.009580	0.776700	0.269940
O411	O41	0.828910	0.217810	0.008910
O421	O42	0.776700	0.269940	0.009580
O431	O43	0.944370	0.008910	0.217810
O441	O44	0.943780	0.009580	0.269940
O451	O45	0.008910	0.944370	0.828910
O461	O46	0.009580	0.943780	0.776700
O471	O47	0.217810	0.828910	0.944370
O481	O48	0.269940	0.776700	0.943780
O491	O49	0.217810	0.008910	0.944370
O501	O50	0.269940	0.009580	0.943780
O511	O51	0.008910	0.217810	0.828910
O521	O52	0.009580	0.269940	0.776700
O531	O53	0.944370	0.828910	0.217810
O541	O54	0.943780	0.776700	0.269940
O551	O55	0.828910	0.944370	0.008910
O561	O56	0.776700	0.943780	0.009580
O571	O57	0.217810	0.944370	0.828910
O581	O58	0.269940	0.943780	0.776700
O591	O59	0.008910	0.828910	0.944370
O601	O60	0.009580	0.776700	0.943780
O611	O61	0.944370	0.217810	0.008910
O621	O62	0.943780	0.269940	0.009580
O631	O63	0.828910	0.008910	0.217810
O641	O64	0.776700	0.009580	0.269940
O651	O65	0.217810	0.828910	0.008910
O661	O66	0.269940	0.776700	0.009580
O671	O67	0.008910	0.944370	0.217810
O681	O68	0.009580	0.943780	0.269940
O691	O69	0.944370	0.008910	0.828910
O701	O70	0.943780	0.009580	0.776700
O711	O71	0.828910	0.217810	0.944370
O721	O72	0.776700	0.269940	0.943780
O731	O73	0.991090	0.782190	0.055630
O741	O74	0.990420	0.730060	0.056220
O751	O75	0.782190	0.991090	0.171090
O761	O76	0.730060	0.990420	0.223300
O771	O77	0.171090	0.055630	0.782190
O781	O78	0.223300	0.056220	0.730060
O791	O79	0.055630	0.171090	0.991090
O801	O80	0.056220	0.223300	0.990420
O811	O81	0.055630	0.782190	0.171090
O821	O82	0.056220	0.730060	0.223300
O831	O83	0.171090	0.991090	0.055630
O841	O84	0.223300	0.990420	0.056220
O851	O85	0.782190	0.055630	0.991090
O861	O86	0.730060	0.056220	0.990420
O871	O87	0.991090	0.171090	0.782190
O881	O88	0.990420	0.223300	0.730060
O891	O89	0.171090	0.782190	0.991090
O901	O90	0.223300	0.730060	0.990420
O911	O91	0.055630	0.991090	0.782190
O921	O92	0.056220	0.990420	0.730060
O931	O93	0.991090	0.055630	0.171090
O941	O94	0.990420	0.056220	0.223300
O951	O95	0.782190	0.171090	0.055630
O961	O96	0.730060	0.223300	0.056220
