data_GAHWIX_clean_PM
_symmetry_space_group_name_H-M	'P1'
_cell_length_a	27.033000
_cell_length_b	36.130000
_cell_length_c	34.291000
_cell_angle_alpha	108.810000
_cell_angle_beta	90.000000
_cell_angle_gamma	90.000000
_symmetry_Int_Tables_number 1

loop_
_symmetry_equiv_pos_as_xyz
'x,y,z'

loop_
_atom_site_label
_atom_site_type_symbol
_atom_site_fract_x
_atom_site_fract_y
_atom_site_fract_z
Zn11	Zn1	0.533120	0.599170	0.803170
Zn21	Zn2	0.501760	0.604860	0.716910
Zn31	Zn3	0.986900	0.681190	0.291050
Zn41	Zn4	0.423680	0.623490	0.789720
Zn51	Zn5	0.995680	0.127260	0.364340
Zn61	Zn6	0.011220	0.049850	0.290920
Zn71	Zn7	0.468360	0.133880	0.779910
Zn81	Zn8	0.922850	0.105750	0.288380
Zn91	Zn9	0.966880	0.599170	0.303170
Zn101	Zn10	0.998240	0.604860	0.216910
Zn111	Zn11	0.513100	0.681190	0.791050
Zn121	Zn12	0.076320	0.623490	0.289720
Zn131	Zn13	0.504320	0.127260	0.864340
Zn141	Zn14	0.488780	0.049850	0.790920
Zn151	Zn15	0.031640	0.133880	0.279910
Zn161	Zn16	0.577150	0.105750	0.788380
H11	H1	0.644000	0.376300	0.655200
H21	H2	0.718500	0.221300	0.482900
H31	H3	0.599300	0.265600	0.639100
H41	H4	0.869700	0.778100	0.119300
H51	H5	0.740000	0.733400	0.978200
H61	H6	0.894300	0.879500	0.096000
H71	H7	0.124500	0.855700	0.470200
H81	H8	0.154800	0.959200	0.451200
H91	H9	0.291100	0.993800	0.583700
H101	H10	0.404100	0.475300	0.952000
H111	H11	0.355100	0.354500	0.926800
H121	H12	0.217500	0.487200	0.057400
H131	H13	0.578100	0.508800	0.648500
H141	H14	0.599200	0.447300	0.611100
H151	H15	0.633300	0.426300	0.716600
H161	H16	0.607900	0.489400	0.752900
H171	H17	0.702200	0.339000	0.539600
H181	H18	0.713900	0.232400	0.554500
H191	H19	0.626800	0.315300	0.630100
H201	H20	0.843600	0.242800	0.482800
H211	H21	0.899600	0.206500	0.437500
H221	H22	0.793400	0.139300	0.369300
H231	H23	0.733600	0.174100	0.414200
H241	H24	0.672400	0.211500	0.682800
H251	H25	0.640900	0.173500	0.723100
H261	H26	0.507300	0.199100	0.704400
H271	H27	0.529600	0.237700	0.663700
H281	H28	0.944100	0.650400	0.124900
H291	H29	0.913400	0.681800	0.082600
H301	H30	0.886600	0.776000	0.180800
H311	H31	0.926400	0.745600	0.223800
H321	H32	0.811200	0.737500	0.001300
H331	H33	0.778500	0.850200	0.015000
H341	H34	0.867600	0.825000	0.096900
H351	H35	0.703500	0.762000	0.893400
H361	H36	0.647100	0.725600	0.842200
H371	H37	0.629300	0.650600	0.906200
H381	H38	0.678500	0.687200	0.957000
H391	H39	0.952600	0.919300	0.128900
H401	H40	0.979200	0.978200	0.179700
H411	H41	0.839500	0.013900	0.195100
H421	H42	0.814500	0.957200	0.143000
H431	H43	0.030400	0.774700	0.376500
H441	H44	0.066100	0.828700	0.427800
H451	H45	0.189900	0.765900	0.430400
H461	H46	0.152100	0.713600	0.383000
H471	H47	0.151600	0.911600	0.470200
H481	H48	0.217000	0.992600	0.565500
H491	H49	0.249400	0.878500	0.541600
H501	H50	0.122400	0.965600	0.390900
H511	H51	0.106300	0.012600	0.357700
H521	H52	0.056900	0.085300	0.462100
H531	H53	0.101100	0.049400	0.497600
H541	H54	0.328600	0.051500	0.616800
H551	H55	0.376000	0.088500	0.673200
H561	H56	0.382000	0.997700	0.717400
H571	H57	0.327900	0.962000	0.665600
H581	H58	0.498800	0.535200	0.885800
H591	H59	0.469200	0.501100	0.925800
H601	H60	0.331200	0.530800	0.910200
H611	H61	0.360700	0.563000	0.866900
H621	H62	0.371500	0.419000	0.950600
H631	H63	0.307100	0.395600	0.047800
H641	H64	0.286900	0.501000	0.032800
H651	H65	0.351800	0.299100	0.869800
H661	H66	0.383100	0.237600	0.833400
H671	H67	0.460200	0.237400	0.933200
H681	H68	0.424700	0.299100	0.971300
H691	H69	0.152800	0.526700	0.074100
H701	H70	0.088900	0.551100	0.122200
H711	H71	0.171600	0.531100	0.212000
H721	H72	0.224400	0.493800	0.158900
H731	H73	0.856000	0.376300	0.155200
H741	H74	0.781500	0.221300	0.982900
H751	H75	0.900700	0.265600	0.139100
H761	H76	0.630300	0.778100	0.619300
H771	H77	0.760000	0.733400	0.478200
H781	H78	0.605700	0.879500	0.596000
H791	H79	0.375500	0.855700	0.970200
H801	H80	0.345200	0.959200	0.951200
H811	H81	0.208900	0.993800	0.083700
H821	H82	0.095900	0.475300	0.452000
H831	H83	0.144900	0.354500	0.426800
H841	H84	0.282500	0.487200	0.557400
H851	H85	0.921900	0.508800	0.148500
H861	H86	0.900800	0.447300	0.111100
H871	H87	0.866700	0.426300	0.216600
H881	H88	0.892100	0.489400	0.252900
H891	H89	0.797800	0.339000	0.039600
H901	H90	0.786100	0.232400	0.054500
H911	H91	0.873200	0.315300	0.130100
H921	H92	0.656400	0.242800	0.982800
H931	H93	0.600400	0.206500	0.937500
H941	H94	0.706600	0.139300	0.869300
H951	H95	0.766400	0.174100	0.914200
H961	H96	0.827600	0.211500	0.182800
H971	H97	0.859100	0.173500	0.223100
H981	H98	0.992700	0.199100	0.204400
H991	H99	0.970400	0.237700	0.163700
H1001	H100	0.555900	0.650400	0.624900
H1011	H101	0.586600	0.681800	0.582600
H1021	H102	0.613400	0.776000	0.680800
H1031	H103	0.573600	0.745600	0.723800
H1041	H104	0.688800	0.737500	0.501300
H1051	H105	0.721500	0.850200	0.515000
H1061	H106	0.632400	0.825000	0.596900
H1071	H107	0.796500	0.762000	0.393400
H1081	H108	0.852900	0.725600	0.342200
H1091	H109	0.870700	0.650600	0.406200
H1101	H110	0.821500	0.687200	0.457000
H1111	H111	0.547400	0.919300	0.628900
H1121	H112	0.520800	0.978200	0.679700
H1131	H113	0.660500	0.013900	0.695100
H1141	H114	0.685500	0.957200	0.643000
H1151	H115	0.469600	0.774700	0.876500
H1161	H116	0.433900	0.828700	0.927800
H1171	H117	0.310100	0.765900	0.930400
H1181	H118	0.347900	0.713600	0.883000
H1191	H119	0.348400	0.911600	0.970200
H1201	H120	0.283000	0.992600	0.065500
H1211	H121	0.250600	0.878500	0.041600
H1221	H122	0.377600	0.965600	0.890900
H1231	H123	0.393700	0.012600	0.857700
H1241	H124	0.443100	0.085300	0.962100
H1251	H125	0.398900	0.049400	0.997600
H1261	H126	0.171400	0.051500	0.116800
H1271	H127	0.124000	0.088500	0.173200
H1281	H128	0.118000	0.997700	0.217400
H1291	H129	0.172100	0.962000	0.165600
H1301	H130	0.001200	0.535200	0.385800
H1311	H131	0.030800	0.501100	0.425800
H1321	H132	0.168800	0.530800	0.410200
H1331	H133	0.139300	0.563000	0.366900
H1341	H134	0.128500	0.419000	0.450600
H1351	H135	0.192900	0.395600	0.547800
H1361	H136	0.213100	0.501000	0.532800
H1371	H137	0.148200	0.299100	0.369800
H1381	H138	0.116900	0.237600	0.333400
H1391	H139	0.039800	0.237400	0.433200
H1401	H140	0.075300	0.299100	0.471300
H1411	H141	0.347200	0.526700	0.574100
H1421	H142	0.411100	0.551100	0.622200
H1431	H143	0.328400	0.531100	0.712000
H1441	H144	0.275600	0.493800	0.658900
C11	C1	0.567400	0.542900	0.727000
C21	C2	0.587500	0.504430	0.704100
C31	C3	0.588100	0.491300	0.662600
C41	C4	0.601500	0.455500	0.640300
C51	C5	0.619200	0.429980	0.660100
C61	C6	0.621300	0.442930	0.702200
C71	C7	0.605700	0.480400	0.723700
C81	C8	0.644400	0.374140	0.598600
C91	C9	0.661800	0.332560	0.586600
C101	C10	0.693200	0.321170	0.553500
C111	C11	0.712200	0.282210	0.540100
C121	C12	0.700400	0.258000	0.562100
C131	C13	0.668900	0.270730	0.595290
C141	C14	0.649100	0.307380	0.607460
C151	C15	0.747900	0.271200	0.506900
C161	C16	0.780700	0.213750	0.452800
C171	C17	0.832800	0.221970	0.459500
C181	C18	0.865400	0.200500	0.433170
C191	C19	0.851000	0.169110	0.399100
C201	C20	0.803000	0.160500	0.392700
C211	C21	0.767400	0.181440	0.419000
C221	C22	0.889500	0.146600	0.370600
C231	C23	0.659100	0.243140	0.619500
C241	C24	0.601700	0.225110	0.666400
C251	C25	0.637900	0.208600	0.686200
C261	C26	0.618100	0.187170	0.711700
C271	C27	0.572200	0.185170	0.720100
C281	C28	0.541600	0.202200	0.700500
C291	C29	0.553700	0.224400	0.674500
C301	C30	0.553600	0.162310	0.744640
C311	C31	0.959400	0.674300	0.204720
C321	C32	0.939900	0.694800	0.177510
C331	C33	0.934200	0.676900	0.136400
C341	C34	0.915100	0.695100	0.111400
C351	C35	0.898300	0.732400	0.127000
C361	C36	0.900500	0.750600	0.169200
C371	C37	0.923000	0.732400	0.195100
C381	C38	0.867300	0.745800	0.065200
C391	C39	0.845400	0.776000	0.048900
C401	C40	0.815100	0.764610	0.015900
C411	C41	0.789500	0.791590	0.002800
C421	C42	0.795800	0.831510	0.024000
C431	C43	0.825900	0.843900	0.056900
C441	C44	0.849400	0.816600	0.071900
C451	C45	0.758200	0.780800	0.965200
C461	C46	0.699400	0.726760	0.929100
C471	C47	0.688200	0.739200	0.895900
C481	C48	0.653800	0.717930	0.865700
C491	C49	0.630500	0.686150	0.870900
C501	C50	0.643100	0.674100	0.904100
C511	C51	0.673800	0.694580	0.933000
C521	C52	0.594700	0.663900	0.837800
C531	C53	0.831600	0.883700	0.081300
C541	C54	0.881000	0.933500	0.131700
C551	C55	0.929100	0.938800	0.142400
C561	C56	0.945000	0.973300	0.173700
C571	C57	0.909400	0.999500	0.195300
C581	C58	0.863300	0.994340	0.182500
C591	C59	0.848400	0.960600	0.150800
C601	C60	0.927700	0.034500	0.227700
C611	C61	0.070900	0.709100	0.340700
C621	C62	0.092300	0.739300	0.374300
C631	C63	0.062400	0.773300	0.387400
C641	C64	0.084100	0.804900	0.418100
C651	C65	0.129800	0.803500	0.434900
C661	C66	0.157600	0.768180	0.420500
C671	C67	0.135100	0.737940	0.391500
C681	C68	0.190800	0.846780	0.478100
C691	C69	0.197300	0.888880	0.503030
C701	C70	0.173200	0.917930	0.493290
C711	C71	0.180300	0.957720	0.517700
C721	C72	0.212400	0.966040	0.549330
C731	C73	0.238700	0.938040	0.559210
C741	C74	0.231300	0.898490	0.535520
C751	C75	0.155300	0.990100	0.508800
C761	C76	0.120600	0.005000	0.448500
C771	C77	0.115000	0.992000	0.406200
C781	C78	0.098500	0.017600	0.385900
C791	C79	0.071800	0.049000	0.406000
C801	C80	0.073100	0.061600	0.447100
C811	C81	0.099100	0.039460	0.468400
C821	C82	0.044400	0.070400	0.380400
C831	C83	0.271700	0.946940	0.593900
C841	C84	0.323800	0.003000	0.635700
C851	C85	0.338200	0.040900	0.637700
C861	C86	0.366900	0.062500	0.671100
C871	C87	0.381800	0.047900	0.700200
C881	C88	0.369400	0.008700	0.697800
C891	C89	0.338800	0.987300	0.666400
C901	C90	0.411600	0.072400	0.735100
C911	C91	0.452200	0.575050	0.844030
C921	C92	0.431800	0.552490	0.869970
C931	C93	0.464200	0.534030	0.889700
C941	C94	0.446500	0.514650	0.914070
C951	C95	0.399000	0.513470	0.922600
C961	C96	0.365600	0.531400	0.904900
C971	C97	0.383800	0.550400	0.879200
C981	C98	0.339900	0.494780	0.967190
C991	C99	0.332100	0.464510	0.987880
C1001	C100	0.351500	0.427430	0.974640
C1011	C101	0.340800	0.401510	0.997900
C1021	C102	0.312500	0.412730	0.032220
C1031	C103	0.291900	0.448900	0.044010
C1041	C104	0.301100	0.475600	0.023300
C1051	C105	0.364400	0.361710	0.984000
C1061	C106	0.386400	0.305090	0.924000
C1071	C107	0.373600	0.286400	0.883100
C1081	C108	0.391700	0.249880	0.861500
C1091	C109	0.421800	0.231930	0.881000
C1101	C110	0.436800	0.249690	0.920690
C1111	C111	0.416700	0.287080	0.943070
C1121	C112	0.441700	0.191100	0.858200
C1131	C113	0.262500	0.460700	0.083500
C1141	C114	0.192800	0.505900	0.113900
C1151	C115	0.154700	0.525800	0.101500
C1161	C116	0.120100	0.544000	0.130400
C1171	C117	0.131600	0.552300	0.174100
C1181	C118	0.167400	0.530900	0.184500
C1191	C119	0.198200	0.508200	0.152100
C1201	C120	0.095500	0.576600	0.203200
C1211	C121	0.932600	0.542900	0.227000
C1221	C122	0.912500	0.504430	0.204100
C1231	C123	0.911900	0.491300	0.162600
C1241	C124	0.898500	0.455500	0.140300
C1251	C125	0.880800	0.429980	0.160100
C1261	C126	0.878700	0.442930	0.202200
C1271	C127	0.894300	0.480400	0.223700
C1281	C128	0.855600	0.374140	0.098600
C1291	C129	0.838200	0.332560	0.086600
C1301	C130	0.806800	0.321170	0.053500
C1311	C131	0.787800	0.282210	0.040100
C1321	C132	0.799600	0.258000	0.062100
C1331	C133	0.831100	0.270730	0.095290
C1341	C134	0.850900	0.307380	0.107460
C1351	C135	0.752100	0.271200	0.006900
C1361	C136	0.719300	0.213750	0.952800
C1371	C137	0.667200	0.221970	0.959500
C1381	C138	0.634600	0.200500	0.933170
C1391	C139	0.649000	0.169110	0.899100
C1401	C140	0.697000	0.160500	0.892700
C1411	C141	0.732600	0.181440	0.919000
C1421	C142	0.610500	0.146600	0.870600
C1431	C143	0.840900	0.243140	0.119500
C1441	C144	0.898300	0.225110	0.166400
C1451	C145	0.862100	0.208600	0.186200
C1461	C146	0.881900	0.187170	0.211700
C1471	C147	0.927800	0.185170	0.220100
C1481	C148	0.958400	0.202200	0.200500
C1491	C149	0.946300	0.224400	0.174500
C1501	C150	0.946400	0.162310	0.244640
C1511	C151	0.540600	0.674300	0.704720
C1521	C152	0.560100	0.694800	0.677510
C1531	C153	0.565800	0.676900	0.636400
C1541	C154	0.584900	0.695100	0.611400
C1551	C155	0.601700	0.732400	0.627000
C1561	C156	0.599500	0.750600	0.669200
C1571	C157	0.577000	0.732400	0.695100
C1581	C158	0.632700	0.745800	0.565200
C1591	C159	0.654600	0.776000	0.548900
C1601	C160	0.684900	0.764610	0.515900
C1611	C161	0.710500	0.791590	0.502800
C1621	C162	0.704200	0.831510	0.524000
C1631	C163	0.674100	0.843900	0.556900
C1641	C164	0.650600	0.816600	0.571900
C1651	C165	0.741800	0.780800	0.465200
C1661	C166	0.800600	0.726760	0.429100
C1671	C167	0.811800	0.739200	0.395900
C1681	C168	0.846200	0.717930	0.365700
C1691	C169	0.869500	0.686150	0.370900
C1701	C170	0.856900	0.674100	0.404100
C1711	C171	0.826200	0.694580	0.433000
C1721	C172	0.905300	0.663900	0.337800
C1731	C173	0.668400	0.883700	0.581300
C1741	C174	0.619000	0.933500	0.631700
C1751	C175	0.570900	0.938800	0.642400
C1761	C176	0.555000	0.973300	0.673700
C1771	C177	0.590600	0.999500	0.695300
C1781	C178	0.636700	0.994340	0.682500
C1791	C179	0.651600	0.960600	0.650800
C1801	C180	0.572300	0.034500	0.727700
C1811	C181	0.429100	0.709100	0.840700
C1821	C182	0.407700	0.739300	0.874300
C1831	C183	0.437600	0.773300	0.887400
C1841	C184	0.415900	0.804900	0.918100
C1851	C185	0.370200	0.803500	0.934900
C1861	C186	0.342400	0.768180	0.920500
C1871	C187	0.364900	0.737940	0.891500
C1881	C188	0.309200	0.846780	0.978100
C1891	C189	0.302700	0.888880	0.003030
C1901	C190	0.326800	0.917930	0.993290
C1911	C191	0.319700	0.957720	0.017700
C1921	C192	0.287600	0.966040	0.049330
C1931	C193	0.261300	0.938040	0.059210
C1941	C194	0.268700	0.898490	0.035520
C1951	C195	0.344700	0.990100	0.008800
C1961	C196	0.379400	0.005000	0.948500
C1971	C197	0.385000	0.992000	0.906200
C1981	C198	0.401500	0.017600	0.885900
C1991	C199	0.428200	0.049000	0.906000
C2001	C200	0.426900	0.061600	0.947100
C2011	C201	0.400900	0.039460	0.968400
C2021	C202	0.455600	0.070400	0.880400
C2031	C203	0.228300	0.946940	0.093900
C2041	C204	0.176200	0.003000	0.135700
C2051	C205	0.161800	0.040900	0.137700
C2061	C206	0.133100	0.062500	0.171100
C2071	C207	0.118200	0.047900	0.200200
C2081	C208	0.130600	0.008700	0.197800
C2091	C209	0.161200	0.987300	0.166400
C2101	C210	0.088400	0.072400	0.235100
C2111	C211	0.047800	0.575050	0.344030
C2121	C212	0.068200	0.552490	0.369970
C2131	C213	0.035800	0.534030	0.389700
C2141	C214	0.053500	0.514650	0.414070
C2151	C215	0.101000	0.513470	0.422600
C2161	C216	0.134400	0.531400	0.404900
C2171	C217	0.116200	0.550400	0.379200
C2181	C218	0.160100	0.494780	0.467190
C2191	C219	0.167900	0.464510	0.487880
C2201	C220	0.148500	0.427430	0.474640
C2211	C221	0.159200	0.401510	0.497900
C2221	C222	0.187500	0.412730	0.532220
C2231	C223	0.208100	0.448900	0.544010
C2241	C224	0.198900	0.475600	0.523300
C2251	C225	0.135600	0.361710	0.484000
C2261	C226	0.113600	0.305090	0.424000
C2271	C227	0.126400	0.286400	0.383100
C2281	C228	0.108300	0.249880	0.361500
C2291	C229	0.078200	0.231930	0.381000
C2301	C230	0.063200	0.249690	0.420690
C2311	C231	0.083300	0.287080	0.443070
C2321	C232	0.058300	0.191100	0.358200
C2331	C233	0.237500	0.460700	0.583500
C2341	C234	0.307200	0.505900	0.613900
C2351	C235	0.345300	0.525800	0.601500
C2361	C236	0.379900	0.544000	0.630400
C2371	C237	0.368400	0.552300	0.674100
C2381	C238	0.332600	0.530900	0.684500
C2391	C239	0.301800	0.508200	0.652100
C2401	C240	0.404500	0.576600	0.703200
N11	N1	0.637100	0.390730	0.639510
N21	N2	0.745600	0.234230	0.481380
N31	N3	0.619100	0.246780	0.640660
N41	N4	0.877500	0.754090	0.104410
N51	N5	0.733400	0.745240	0.960060
N61	N6	0.869700	0.896340	0.101300
N71	N7	0.146800	0.837040	0.461900
N81	N8	0.144700	0.982090	0.467520
N91	N9	0.295100	0.982320	0.602500
N101	N10	0.382900	0.492340	0.948150
N111	N11	0.366980	0.342320	0.943200
N121	N12	0.223600	0.484800	0.081650
N131	N13	0.862900	0.390730	0.139510
N141	N14	0.754400	0.234230	0.981380
N151	N15	0.880900	0.246780	0.140660
N161	N16	0.622500	0.754090	0.604410
N171	N17	0.766600	0.745240	0.460060
N181	N18	0.630300	0.896340	0.601300
N191	N19	0.353200	0.837040	0.961900
N201	N20	0.355300	0.982090	0.967520
N211	N21	0.204900	0.982320	0.102500
N221	N22	0.117100	0.492340	0.448150
N231	N23	0.133020	0.342320	0.443200
N241	N24	0.276400	0.484800	0.581650
O11	O1	0.567160	0.554310	0.766620
O21	O2	0.549100	0.563630	0.705850
O31	O3	0.931900	0.148790	0.385540
O41	O4	0.875930	0.125180	0.333560
O51	O5	0.506130	0.161760	0.750650
O61	O6	0.584800	0.145340	0.760130
O71	O7	0.639500	0.390240	0.572970
O81	O8	0.779500	0.293660	0.502440
O91	O9	0.691000	0.219180	0.620080
O101	O10	0.969450	0.694610	0.242460
O111	O11	0.971130	0.639060	0.188910
O121	O12	0.579350	0.679200	0.812440
O131	O13	0.579190	0.631800	0.841270
O141	O14	0.896300	0.059260	0.246880
O151	O15	0.974000	0.036670	0.235590
O161	O16	0.877700	0.713310	0.039800
O171	O17	0.750700	0.800610	0.943890
O181	O18	0.795300	0.906070	0.082500
O191	O19	0.033200	0.712230	0.321000
O201	O20	0.096500	0.672990	0.328320
O211	O21	0.022180	0.100630	0.400090
O221	O22	0.052700	0.058600	0.343300
O231	O23	0.424200	0.056110	0.762010
O241	O24	0.424870	0.105280	0.737360
O251	O25	0.225280	0.822980	0.472610
O261	O26	0.143700	0.019940	0.533990
O271	O27	0.280550	0.924480	0.614110
O281	O28	0.497560	0.575830	0.838400
O291	O29	0.420000	0.590320	0.827280
O301	O30	0.434070	0.178260	0.820100
O311	O31	0.464940	0.174660	0.880060
O321	O32	0.055200	0.586200	0.188900
O331	O33	0.105100	0.584300	0.239200
O341	O34	0.308330	0.517470	0.966120
O351	O35	0.381180	0.348500	0.010180
O361	O36	0.271600	0.450950	0.112780
O371	O37	0.493430	0.626540	0.775690
O381	O38	0.989610	0.106320	0.305920
O391	O39	0.932840	0.554310	0.266620
O401	O40	0.950900	0.563630	0.205850
O411	O41	0.568100	0.148790	0.885540
O421	O42	0.624070	0.125180	0.833560
O431	O43	0.993870	0.161760	0.250650
O441	O44	0.915200	0.145340	0.260130
O451	O45	0.860500	0.390240	0.072970
O461	O46	0.720500	0.293660	0.002440
O471	O47	0.809000	0.219180	0.120080
O481	O48	0.530550	0.694610	0.742460
O491	O49	0.528870	0.639060	0.688910
O501	O50	0.920650	0.679200	0.312440
O511	O51	0.920810	0.631800	0.341270
O521	O52	0.603700	0.059260	0.746880
O531	O53	0.526000	0.036670	0.735590
O541	O54	0.622300	0.713310	0.539800
O551	O55	0.749300	0.800610	0.443890
O561	O56	0.704700	0.906070	0.582500
O571	O57	0.466800	0.712230	0.821000
O581	O58	0.403500	0.672990	0.828320
O591	O59	0.477820	0.100630	0.900090
O601	O60	0.447300	0.058600	0.843300
O611	O61	0.075800	0.056110	0.262010
O621	O62	0.075130	0.105280	0.237360
O631	O63	0.274720	0.822980	0.972610
O641	O64	0.356300	0.019940	0.033990
O651	O65	0.219450	0.924480	0.114110
O661	O66	0.002440	0.575830	0.338400
O671	O67	0.080000	0.590320	0.327280
O681	O68	0.065930	0.178260	0.320100
O691	O69	0.035060	0.174660	0.380060
O701	O70	0.444800	0.586200	0.688900
O711	O71	0.394900	0.584300	0.739200
O721	O72	0.191670	0.517470	0.466120
O731	O73	0.118820	0.348500	0.510180
O741	O74	0.228400	0.450950	0.612780
O751	O75	0.006570	0.626540	0.275690
O761	O76	0.510390	0.106320	0.805920
Zn171	Zn17	0.033120	0.400830	0.696830
Zn181	Zn18	0.001760	0.395140	0.783090
Zn191	Zn19	0.486900	0.318810	0.208950
Zn201	Zn20	0.923680	0.376510	0.710280
Zn211	Zn21	0.495680	0.872740	0.135660
Zn221	Zn22	0.511220	0.950150	0.209080
Zn231	Zn23	0.968360	0.866120	0.720090
Zn241	Zn24	0.422850	0.894250	0.211620
Zn251	Zn25	0.466880	0.400830	0.196830
Zn261	Zn26	0.498240	0.395140	0.283090
Zn271	Zn27	0.013100	0.318810	0.708950
Zn281	Zn28	0.576320	0.376510	0.210280
Zn291	Zn29	0.004320	0.872740	0.635660
Zn301	Zn30	0.988780	0.950150	0.709080
Zn311	Zn31	0.531640	0.866120	0.220090
Zn321	Zn32	0.077150	0.894250	0.711620
H1451	H145	0.144000	0.623700	0.844800
H1461	H146	0.218500	0.778700	0.017100
H1471	H147	0.099300	0.734400	0.860900
H1481	H148	0.369700	0.221900	0.380700
H1491	H149	0.240000	0.266600	0.521800
H1501	H150	0.394300	0.120500	0.404000
H1511	H151	0.624500	0.144300	0.029800
H1521	H152	0.654800	0.040800	0.048800
H1531	H153	0.791100	0.006200	0.916300
H1541	H154	0.904100	0.524700	0.548000
H1551	H155	0.855100	0.645500	0.573200
H1561	H156	0.717500	0.512800	0.442600
H1571	H157	0.078100	0.491200	0.851500
H1581	H158	0.099200	0.552700	0.888900
H1591	H159	0.133300	0.573700	0.783400
H1601	H160	0.107900	0.510600	0.747100
H1611	H161	0.202200	0.661000	0.960400
H1621	H162	0.213900	0.767600	0.945500
H1631	H163	0.126800	0.684700	0.869900
H1641	H164	0.343600	0.757200	0.017200
H1651	H165	0.399600	0.793500	0.062500
H1661	H166	0.293400	0.860700	0.130700
H1671	H167	0.233600	0.825900	0.085800
H1681	H168	0.172400	0.788500	0.817200
H1691	H169	0.140900	0.826500	0.776900
H1701	H170	0.007300	0.800900	0.795600
H1711	H171	0.029600	0.762300	0.836300
H1721	H172	0.444100	0.349600	0.375100
H1731	H173	0.413400	0.318200	0.417400
H1741	H174	0.386600	0.224000	0.319200
H1751	H175	0.426400	0.254400	0.276200
H1761	H176	0.311200	0.262500	0.498700
H1771	H177	0.278500	0.149800	0.485000
H1781	H178	0.367600	0.175000	0.403100
H1791	H179	0.203500	0.238000	0.606600
H1801	H180	0.147100	0.274400	0.657800
H1811	H181	0.129300	0.349400	0.593800
H1821	H182	0.178500	0.312800	0.543000
H1831	H183	0.452600	0.080700	0.371100
H1841	H184	0.479200	0.021800	0.320300
H1851	H185	0.339500	0.986100	0.304900
H1861	H186	0.314500	0.042800	0.357000
H1871	H187	0.530400	0.225300	0.123500
H1881	H188	0.566100	0.171300	0.072200
H1891	H189	0.689900	0.234100	0.069600
H1901	H190	0.652100	0.286400	0.117000
H1911	H191	0.651600	0.088400	0.029800
H1921	H192	0.717000	0.007400	0.934500
H1931	H193	0.749400	0.121500	0.958400
H1941	H194	0.622400	0.034400	0.109100
H1951	H195	0.606300	0.987400	0.142300
H1961	H196	0.556900	0.914700	0.037900
H1971	H197	0.601100	0.950600	0.002400
H1981	H198	0.828600	0.948500	0.883200
H1991	H199	0.876000	0.911500	0.826800
H2001	H200	0.882000	0.002300	0.782600
H2011	H201	0.827900	0.038000	0.834400
H2021	H202	0.998800	0.464800	0.614200
H2031	H203	0.969200	0.498900	0.574200
H2041	H204	0.831200	0.469200	0.589800
H2051	H205	0.860700	0.437000	0.633100
H2061	H206	0.871500	0.581000	0.549400
H2071	H207	0.807100	0.604400	0.452200
H2081	H208	0.786900	0.499000	0.467200
H2091	H209	0.851800	0.700900	0.630200
H2101	H210	0.883100	0.762400	0.666600
H2111	H211	0.960200	0.762600	0.566800
H2121	H212	0.924700	0.700900	0.528700
H2131	H213	0.652800	0.473300	0.425900
H2141	H214	0.588900	0.448900	0.377800
H2151	H215	0.671600	0.468900	0.288000
H2161	H216	0.724400	0.506200	0.341100
H2171	H217	0.356000	0.623700	0.344800
H2181	H218	0.281500	0.778700	0.517100
H2191	H219	0.400700	0.734400	0.360900
H2201	H220	0.130300	0.221900	0.880700
H2211	H221	0.260000	0.266600	0.021800
H2221	H222	0.105700	0.120500	0.904000
H2231	H223	0.875500	0.144300	0.529800
H2241	H224	0.845200	0.040800	0.548800
H2251	H225	0.708900	0.006200	0.416300
H2261	H226	0.595900	0.524700	0.048000
H2271	H227	0.644900	0.645500	0.073200
H2281	H228	0.782500	0.512800	0.942600
H2291	H229	0.421900	0.491200	0.351500
H2301	H230	0.400800	0.552700	0.388900
H2311	H231	0.366700	0.573700	0.283400
H2321	H232	0.392100	0.510600	0.247100
H2331	H233	0.297800	0.661000	0.460400
H2341	H234	0.286100	0.767600	0.445500
H2351	H235	0.373200	0.684700	0.369900
H2361	H236	0.156400	0.757200	0.517200
H2371	H237	0.100400	0.793500	0.562500
H2381	H238	0.206600	0.860700	0.630700
H2391	H239	0.266400	0.825900	0.585800
H2401	H240	0.327600	0.788500	0.317200
H2411	H241	0.359100	0.826500	0.276900
H2421	H242	0.492700	0.800900	0.295600
H2431	H243	0.470400	0.762300	0.336300
H2441	H244	0.055900	0.349600	0.875100
H2451	H245	0.086600	0.318200	0.917400
H2461	H246	0.113400	0.224000	0.819200
H2471	H247	0.073600	0.254400	0.776200
H2481	H248	0.188800	0.262500	0.998700
H2491	H249	0.221500	0.149800	0.985000
H2501	H250	0.132400	0.175000	0.903100
H2511	H251	0.296500	0.238000	0.106600
H2521	H252	0.352900	0.274400	0.157800
H2531	H253	0.370700	0.349400	0.093800
H2541	H254	0.321500	0.312800	0.043000
H2551	H255	0.047400	0.080700	0.871100
H2561	H256	0.020800	0.021800	0.820300
H2571	H257	0.160500	0.986100	0.804900
H2581	H258	0.185500	0.042800	0.857000
H2591	H259	0.969600	0.225300	0.623500
H2601	H260	0.933900	0.171300	0.572200
H2611	H261	0.810100	0.234100	0.569600
H2621	H262	0.847900	0.286400	0.617000
H2631	H263	0.848400	0.088400	0.529800
H2641	H264	0.783000	0.007400	0.434500
H2651	H265	0.750600	0.121500	0.458400
H2661	H266	0.877600	0.034400	0.609100
H2671	H267	0.893700	0.987400	0.642300
H2681	H268	0.943100	0.914700	0.537900
H2691	H269	0.898900	0.950600	0.502400
H2701	H270	0.671400	0.948500	0.383200
H2711	H271	0.624000	0.911500	0.326800
H2721	H272	0.618000	0.002300	0.282600
H2731	H273	0.672100	0.038000	0.334400
H2741	H274	0.501200	0.464800	0.114200
H2751	H275	0.530800	0.498900	0.074200
H2761	H276	0.668800	0.469200	0.089800
H2771	H277	0.639300	0.437000	0.133100
H2781	H278	0.628500	0.581000	0.049400
H2791	H279	0.692900	0.604400	0.952200
H2801	H280	0.713100	0.499000	0.967200
H2811	H281	0.648200	0.700900	0.130200
H2821	H282	0.616900	0.762400	0.166600
H2831	H283	0.539800	0.762600	0.066800
H2841	H284	0.575300	0.700900	0.028700
H2851	H285	0.847200	0.473300	0.925900
H2861	H286	0.911100	0.448900	0.877800
H2871	H287	0.828400	0.468900	0.788000
H2881	H288	0.775600	0.506200	0.841100
C2411	C241	0.067400	0.457100	0.773000
C2421	C242	0.087500	0.495570	0.795900
C2431	C243	0.088100	0.508700	0.837400
C2441	C244	0.101500	0.544500	0.859700
C2451	C245	0.119200	0.570020	0.839900
C2461	C246	0.121300	0.557070	0.797800
C2471	C247	0.105700	0.519600	0.776300
C2481	C248	0.144400	0.625860	0.901400
C2491	C249	0.161800	0.667440	0.913400
C2501	C250	0.193200	0.678830	0.946500
C2511	C251	0.212200	0.717790	0.959900
C2521	C252	0.200400	0.742000	0.937900
C2531	C253	0.168900	0.729270	0.904710
C2541	C254	0.149100	0.692620	0.892540
C2551	C255	0.247900	0.728800	0.993100
C2561	C256	0.280700	0.786250	0.047200
C2571	C257	0.332800	0.778030	0.040500
C2581	C258	0.365400	0.799500	0.066830
C2591	C259	0.351000	0.830890	0.100900
C2601	C260	0.303000	0.839500	0.107300
C2611	C261	0.267400	0.818560	0.081000
C2621	C262	0.389500	0.853400	0.129400
C2631	C263	0.159100	0.756860	0.880500
C2641	C264	0.101700	0.774890	0.833600
C2651	C265	0.137900	0.791400	0.813800
C2661	C266	0.118100	0.812830	0.788300
C2671	C267	0.072200	0.814830	0.779900
C2681	C268	0.041600	0.797800	0.799500
C2691	C269	0.053700	0.775600	0.825500
C2701	C270	0.053600	0.837690	0.755360
C2711	C271	0.459400	0.325700	0.295280
C2721	C272	0.439900	0.305200	0.322490
C2731	C273	0.434200	0.323100	0.363600
C2741	C274	0.415100	0.304900	0.388600
C2751	C275	0.398300	0.267600	0.373000
C2761	C276	0.400500	0.249400	0.330800
C2771	C277	0.423000	0.267600	0.304900
C2781	C278	0.367300	0.254200	0.434800
C2791	C279	0.345400	0.224000	0.451100
C2801	C280	0.315100	0.235390	0.484100
C2811	C281	0.289500	0.208410	0.497200
C2821	C282	0.295800	0.168490	0.476000
C2831	C283	0.325900	0.156100	0.443100
C2841	C284	0.349400	0.183400	0.428100
C2851	C285	0.258200	0.219200	0.534800
C2861	C286	0.199400	0.273240	0.570900
C2871	C287	0.188200	0.260800	0.604100
C2881	C288	0.153800	0.282070	0.634300
C2891	C289	0.130500	0.313850	0.629100
C2901	C290	0.143100	0.325900	0.595900
C2911	C291	0.173800	0.305420	0.567000
C2921	C292	0.094700	0.336100	0.662200
C2931	C293	0.331600	0.116300	0.418700
C2941	C294	0.381000	0.066500	0.368300
C2951	C295	0.429100	0.061200	0.357600
C2961	C296	0.445000	0.026700	0.326300
C2971	C297	0.409400	0.000500	0.304700
C2981	C298	0.363300	0.005660	0.317500
C2991	C299	0.348400	0.039400	0.349200
C3001	C300	0.427700	0.965500	0.272300
C3011	C301	0.570900	0.290900	0.159300
C3021	C302	0.592300	0.260700	0.125700
C3031	C303	0.562400	0.226700	0.112600
C3041	C304	0.584100	0.195100	0.081900
C3051	C305	0.629800	0.196500	0.065100
C3061	C306	0.657600	0.231820	0.079500
C3071	C307	0.635100	0.262060	0.108500
C3081	C308	0.690800	0.153220	0.021900
C3091	C309	0.697300	0.111120	0.996970
C3101	C310	0.673200	0.082070	0.006710
C3111	C311	0.680300	0.042280	0.982300
C3121	C312	0.712400	0.033960	0.950670
C3131	C313	0.738700	0.061960	0.940790
C3141	C314	0.731300	0.101510	0.964480
C3151	C315	0.655300	0.009900	0.991200
C3161	C316	0.620600	0.995000	0.051500
C3171	C317	0.615000	0.008000	0.093800
C3181	C318	0.598500	0.982400	0.114100
C3191	C319	0.571800	0.951000	0.094000
C3201	C320	0.573100	0.938400	0.052900
C3211	C321	0.599100	0.960540	0.031600
C3221	C322	0.544400	0.929600	0.119600
C3231	C323	0.771700	0.053060	0.906100
C3241	C324	0.823800	0.997000	0.864300
C3251	C325	0.838200	0.959100	0.862300
C3261	C326	0.866900	0.937500	0.828900
C3271	C327	0.881800	0.952100	0.799800
C3281	C328	0.869400	0.991300	0.802200
C3291	C329	0.838800	0.012700	0.833600
C3301	C330	0.911600	0.927600	0.764900
C3311	C331	0.952200	0.424950	0.655970
C3321	C332	0.931800	0.447510	0.630030
C3331	C333	0.964200	0.465970	0.610300
C3341	C334	0.946500	0.485350	0.585930
C3351	C335	0.899000	0.486530	0.577400
C3361	C336	0.865600	0.468600	0.595100
C3371	C337	0.883800	0.449600	0.620800
C3381	C338	0.839900	0.505220	0.532810
C3391	C339	0.832100	0.535490	0.512120
C3401	C340	0.851500	0.572570	0.525360
C3411	C341	0.840800	0.598490	0.502100
C3421	C342	0.812500	0.587270	0.467780
C3431	C343	0.791900	0.551100	0.455990
C3441	C344	0.801100	0.524400	0.476700
C3451	C345	0.864400	0.638290	0.516000
C3461	C346	0.886400	0.694910	0.576000
C3471	C347	0.873600	0.713600	0.616900
C3481	C348	0.891700	0.750120	0.638500
C3491	C349	0.921800	0.768070	0.619000
C3501	C350	0.936800	0.750310	0.579310
C3511	C351	0.916700	0.712920	0.556930
C3521	C352	0.941700	0.808900	0.641800
C3531	C353	0.762500	0.539300	0.416500
C3541	C354	0.692800	0.494100	0.386100
C3551	C355	0.654700	0.474200	0.398500
C3561	C356	0.620100	0.456000	0.369600
C3571	C357	0.631600	0.447700	0.325900
C3581	C358	0.667400	0.469100	0.315500
C3591	C359	0.698200	0.491800	0.347900
C3601	C360	0.595500	0.423400	0.296800
C3611	C361	0.432600	0.457100	0.273000
C3621	C362	0.412500	0.495570	0.295900
C3631	C363	0.411900	0.508700	0.337400
C3641	C364	0.398500	0.544500	0.359700
C3651	C365	0.380800	0.570020	0.339900
C3661	C366	0.378700	0.557070	0.297800
C3671	C367	0.394300	0.519600	0.276300
C3681	C368	0.355600	0.625860	0.401400
C3691	C369	0.338200	0.667440	0.413400
C3701	C370	0.306800	0.678830	0.446500
C3711	C371	0.287800	0.717790	0.459900
C3721	C372	0.299600	0.742000	0.437900
C3731	C373	0.331100	0.729270	0.404710
C3741	C374	0.350900	0.692620	0.392540
C3751	C375	0.252100	0.728800	0.493100
C3761	C376	0.219300	0.786250	0.547200
C3771	C377	0.167200	0.778030	0.540500
C3781	C378	0.134600	0.799500	0.566830
C3791	C379	0.149000	0.830890	0.600900
C3801	C380	0.197000	0.839500	0.607300
C3811	C381	0.232600	0.818560	0.581000
C3821	C382	0.110500	0.853400	0.629400
C3831	C383	0.340900	0.756860	0.380500
C3841	C384	0.398300	0.774890	0.333600
C3851	C385	0.362100	0.791400	0.313800
C3861	C386	0.381900	0.812830	0.288300
C3871	C387	0.427800	0.814830	0.279900
C3881	C388	0.458400	0.797800	0.299500
C3891	C389	0.446300	0.775600	0.325500
C3901	C390	0.446400	0.837690	0.255360
C3911	C391	0.040600	0.325700	0.795280
C3921	C392	0.060100	0.305200	0.822490
C3931	C393	0.065800	0.323100	0.863600
C3941	C394	0.084900	0.304900	0.888600
C3951	C395	0.101700	0.267600	0.873000
C3961	C396	0.099500	0.249400	0.830800
C3971	C397	0.077000	0.267600	0.804900
C3981	C398	0.132700	0.254200	0.934800
C3991	C399	0.154600	0.224000	0.951100
C4001	C400	0.184900	0.235390	0.984100
C4011	C401	0.210500	0.208410	0.997200
C4021	C402	0.204200	0.168490	0.976000
C4031	C403	0.174100	0.156100	0.943100
C4041	C404	0.150600	0.183400	0.928100
C4051	C405	0.241800	0.219200	0.034800
C4061	C406	0.300600	0.273240	0.070900
C4071	C407	0.311800	0.260800	0.104100
C4081	C408	0.346200	0.282070	0.134300
C4091	C409	0.369500	0.313850	0.129100
C4101	C410	0.356900	0.325900	0.095900
C4111	C411	0.326200	0.305420	0.067000
C4121	C412	0.405300	0.336100	0.162200
C4131	C413	0.168400	0.116300	0.918700
C4141	C414	0.119000	0.066500	0.868300
C4151	C415	0.070900	0.061200	0.857600
C4161	C416	0.055000	0.026700	0.826300
C4171	C417	0.090600	0.000500	0.804700
C4181	C418	0.136700	0.005660	0.817500
C4191	C419	0.151600	0.039400	0.849200
C4201	C420	0.072300	0.965500	0.772300
C4211	C421	0.929100	0.290900	0.659300
C4221	C422	0.907700	0.260700	0.625700
C4231	C423	0.937600	0.226700	0.612600
C4241	C424	0.915900	0.195100	0.581900
C4251	C425	0.870200	0.196500	0.565100
C4261	C426	0.842400	0.231820	0.579500
C4271	C427	0.864900	0.262060	0.608500
C4281	C428	0.809200	0.153220	0.521900
C4291	C429	0.802700	0.111120	0.496970
C4301	C430	0.826800	0.082070	0.506710
C4311	C431	0.819700	0.042280	0.482300
C4321	C432	0.787600	0.033960	0.450670
C4331	C433	0.761300	0.061960	0.440790
C4341	C434	0.768700	0.101510	0.464480
C4351	C435	0.844700	0.009900	0.491200
C4361	C436	0.879400	0.995000	0.551500
C4371	C437	0.885000	0.008000	0.593800
C4381	C438	0.901500	0.982400	0.614100
C4391	C439	0.928200	0.951000	0.594000
C4401	C440	0.926900	0.938400	0.552900
C4411	C441	0.900900	0.960540	0.531600
C4421	C442	0.955600	0.929600	0.619600
C4431	C443	0.728300	0.053060	0.406100
C4441	C444	0.676200	0.997000	0.364300
C4451	C445	0.661800	0.959100	0.362300
C4461	C446	0.633100	0.937500	0.328900
C4471	C447	0.618200	0.952100	0.299800
C4481	C448	0.630600	0.991300	0.302200
C4491	C449	0.661200	0.012700	0.333600
C4501	C450	0.588400	0.927600	0.264900
C4511	C451	0.547800	0.424950	0.155970
C4521	C452	0.568200	0.447510	0.130030
C4531	C453	0.535800	0.465970	0.110300
C4541	C454	0.553500	0.485350	0.085930
C4551	C455	0.601000	0.486530	0.077400
C4561	C456	0.634400	0.468600	0.095100
C4571	C457	0.616200	0.449600	0.120800
C4581	C458	0.660100	0.505220	0.032810
C4591	C459	0.667900	0.535490	0.012120
C4601	C460	0.648500	0.572570	0.025360
C4611	C461	0.659200	0.598490	0.002100
C4621	C462	0.687500	0.587270	0.967780
C4631	C463	0.708100	0.551100	0.955990
C4641	C464	0.698900	0.524400	0.976700
C4651	C465	0.635600	0.638290	0.016000
C4661	C466	0.613600	0.694910	0.076000
C4671	C467	0.626400	0.713600	0.116900
C4681	C468	0.608300	0.750120	0.138500
C4691	C469	0.578200	0.768070	0.119000
C4701	C470	0.563200	0.750310	0.079310
C4711	C471	0.583300	0.712920	0.056930
C4721	C472	0.558300	0.808900	0.141800
C4731	C473	0.737500	0.539300	0.916500
C4741	C474	0.807200	0.494100	0.886100
C4751	C475	0.845300	0.474200	0.898500
C4761	C476	0.879900	0.456000	0.869600
C4771	C477	0.868400	0.447700	0.825900
C4781	C478	0.832600	0.469100	0.815500
C4791	C479	0.801800	0.491800	0.847900
C4801	C480	0.904500	0.423400	0.796800
N251	N25	0.137100	0.609270	0.860490
N261	N26	0.245600	0.765770	0.018620
N271	N27	0.119100	0.753220	0.859340
N281	N28	0.377500	0.245910	0.395590
N291	N29	0.233400	0.254760	0.539940
N301	N30	0.369700	0.103660	0.398700
N311	N31	0.646800	0.162960	0.038100
N321	N32	0.644700	0.017910	0.032480
N331	N33	0.795100	0.017680	0.897500
N341	N34	0.882900	0.507660	0.551850
N351	N35	0.866980	0.657680	0.556800
N361	N36	0.723600	0.515200	0.418350
N371	N37	0.362900	0.609270	0.360490
N381	N38	0.254400	0.765770	0.518620
N391	N39	0.380900	0.753220	0.359340
N401	N40	0.122500	0.245910	0.895590
N411	N41	0.266600	0.254760	0.039940
N421	N42	0.130300	0.103660	0.898700
N431	N43	0.853200	0.162960	0.538100
N441	N44	0.855300	0.017910	0.532480
N451	N45	0.704900	0.017680	0.397500
N461	N46	0.617100	0.507660	0.051850
N471	N47	0.633020	0.657680	0.056800
N481	N48	0.776400	0.515200	0.918350
O771	O77	0.067160	0.445690	0.733380
O781	O78	0.049100	0.436370	0.794150
O791	O79	0.431900	0.851210	0.114460
O801	O80	0.375930	0.874820	0.166440
O811	O81	0.006130	0.838240	0.749350
O821	O82	0.084800	0.854660	0.739870
O831	O83	0.139500	0.609760	0.927030
O841	O84	0.279500	0.706340	0.997560
O851	O85	0.191000	0.780820	0.879920
O861	O86	0.469450	0.305390	0.257540
O871	O87	0.471130	0.360940	0.311090
O881	O88	0.079350	0.320800	0.687560
O891	O89	0.079190	0.368200	0.658730
O901	O90	0.396300	0.940740	0.253120
O911	O91	0.474000	0.963330	0.264410
O921	O92	0.377700	0.286690	0.460200
O931	O93	0.250700	0.199390	0.556110
O941	O94	0.295300	0.093930	0.417500
O951	O95	0.533200	0.287770	0.179000
O961	O96	0.596500	0.327010	0.171680
O971	O97	0.522180	0.899370	0.099910
O981	O98	0.552700	0.941400	0.156700
O991	O99	0.924200	0.943890	0.737990
O1001	O100	0.924870	0.894720	0.762640
O1011	O101	0.725280	0.177020	0.027390
O1021	O102	0.643700	0.980060	0.966010
O1031	O103	0.780550	0.075520	0.885890
O1041	O104	0.997560	0.424170	0.661600
O1051	O105	0.920000	0.409680	0.672720
O1061	O106	0.934070	0.821740	0.679900
O1071	O107	0.964940	0.825340	0.619940
O1081	O108	0.555200	0.413800	0.311100
O1091	O109	0.605100	0.415700	0.260800
O1101	O110	0.808330	0.482530	0.533880
O1111	O111	0.881180	0.651500	0.489820
O1121	O112	0.771600	0.549050	0.387220
O1131	O113	0.993430	0.373460	0.724310
O1141	O114	0.489610	0.893680	0.194080
O1151	O115	0.432840	0.445690	0.233380
O1161	O116	0.450900	0.436370	0.294150
O1171	O117	0.068100	0.851210	0.614460
O1181	O118	0.124070	0.874820	0.666440
O1191	O119	0.493870	0.838240	0.249350
O1201	O120	0.415200	0.854660	0.239870
O1211	O121	0.360500	0.609760	0.427030
O1221	O122	0.220500	0.706340	0.497560
O1231	O123	0.309000	0.780820	0.379920
O1241	O124	0.030550	0.305390	0.757540
O1251	O125	0.028870	0.360940	0.811090
O1261	O126	0.420650	0.320800	0.187560
O1271	O127	0.420810	0.368200	0.158730
O1281	O128	0.103700	0.940740	0.753120
O1291	O129	0.026000	0.963330	0.764410
O1301	O130	0.122300	0.286690	0.960200
O1311	O131	0.249300	0.199390	0.056110
O1321	O132	0.204700	0.093930	0.917500
O1331	O133	0.966800	0.287770	0.679000
O1341	O134	0.903500	0.327010	0.671680
O1351	O135	0.977820	0.899370	0.599910
O1361	O136	0.947300	0.941400	0.656700
O1371	O137	0.575800	0.943890	0.237990
O1381	O138	0.575130	0.894720	0.262640
O1391	O139	0.774720	0.177020	0.527390
O1401	O140	0.856300	0.980060	0.466010
O1411	O141	0.719450	0.075520	0.385890
O1421	O142	0.502440	0.424170	0.161600
O1431	O143	0.580000	0.409680	0.172720
O1441	O144	0.565930	0.821740	0.179900
O1451	O145	0.535060	0.825340	0.119940
O1461	O146	0.944800	0.413800	0.811100
O1471	O147	0.894900	0.415700	0.760800
O1481	O148	0.691670	0.482530	0.033880
O1491	O149	0.618820	0.651500	0.989820
O1501	O150	0.728400	0.549050	0.887220
O1511	O151	0.506570	0.373460	0.224310
O1521	O152	0.010390	0.893680	0.694080
