data_GAJVAQ_clean_PM
_symmetry_space_group_name_H-M	'P1'
_cell_length_a	12.804200
_cell_length_b	12.804200
_cell_length_c	34.635000
_cell_angle_alpha	82.425400
_cell_angle_beta	82.425400
_cell_angle_gamma	63.918400
_symmetry_Int_Tables_number 1

loop_
_symmetry_equiv_pos_as_xyz
'x,y,z'

loop_
_atom_site_label
_atom_site_type_symbol
_atom_site_fract_x
_atom_site_fract_y
_atom_site_fract_z
Er11	Er1	0.862450	0.703190	0.059030
Er21	Er2	0.848440	0.632220	0.183840
Er31	Er3	0.703190	0.862450	0.559030
Er41	Er4	0.632220	0.848440	0.683840
H11	H1	0.612900	0.087300	0.083700
H21	H2	0.452800	0.116000	0.209300
H31	H3	0.600000	0.942600	0.191000
H41	H4	0.405100	0.560500	0.067100
H51	H5	0.545700	0.630900	0.063700
H61	H6	0.601600	0.501800	0.173900
H71	H7	0.115300	0.827300	0.069700
H81	H8	0.253100	0.893500	0.069200
H91	H9	0.166400	0.700000	0.179500
H101	H10	0.253400	0.083200	0.152400
H111	H11	0.101900	0.262900	0.164700
H121	H12	0.131900	0.363100	0.051700
H131	H13	0.826900	0.050300	0.787500
H141	H14	0.005700	0.978900	0.812900
H151	H15	0.929100	0.744300	0.742800
H161	H16	0.110600	0.986800	0.905300
H171	H17	0.021300	0.954900	0.964400
H181	H18	0.114000	0.628600	0.938500
H191	H19	0.087300	0.612900	0.583700
H201	H20	0.116000	0.452800	0.709300
H211	H21	0.942600	0.600000	0.691000
H221	H22	0.560500	0.405100	0.567100
H231	H23	0.630900	0.545700	0.563700
H241	H24	0.501800	0.601600	0.673900
H251	H25	0.827300	0.115300	0.569700
H261	H26	0.893500	0.253100	0.569200
H271	H27	0.700000	0.166400	0.679500
H281	H28	0.083200	0.253400	0.652400
H291	H29	0.262900	0.101900	0.664700
H301	H30	0.363100	0.131900	0.551700
H311	H31	0.050300	0.826900	0.287500
H321	H32	0.978900	0.005700	0.312900
H331	H33	0.744300	0.929100	0.242800
H341	H34	0.986800	0.110600	0.405300
H351	H35	0.954900	0.021300	0.464400
H361	H36	0.628600	0.114000	0.438500
C11	C1	0.717800	0.883800	0.121700
C21	C2	0.622500	0.996300	0.134540
C31	C3	0.580300	0.093100	0.109410
C41	C4	0.451400	0.201000	0.156000
C51	C5	0.486800	0.108800	0.183800
C61	C6	0.573300	0.006700	0.172700
C71	C7	0.424600	0.495800	0.122600
C81	C8	0.445800	0.550600	0.088600
C91	C9	0.530000	0.591800	0.086700
C101	C10	0.590600	0.574800	0.118700
C111	C11	0.561000	0.515600	0.152000
C121	C12	0.683300	0.615300	0.119900
C131	C13	0.030600	0.714800	0.125000
C141	C14	0.124800	0.757400	0.124500
C151	C15	0.153700	0.814500	0.092100
C161	C16	0.235700	0.852900	0.091500
C171	C17	0.292500	0.831500	0.123900
C181	C18	0.184900	0.738700	0.157000
C191	C19	0.274200	0.122400	0.094200
C201	C20	0.226000	0.141600	0.132200
C211	C21	0.136900	0.248100	0.139500
C221	C22	0.099500	0.334100	0.108780
C231	C23	0.155300	0.306100	0.072400
C241	C24	0.004900	0.451100	0.116500
C251	C25	0.741100	0.943100	0.746900
C261	C26	0.856800	0.904000	0.762170
C271	C27	0.882400	0.974800	0.783500
C281	C28	0.989100	0.932900	0.798400
C291	C29	0.071500	0.820700	0.791300
C301	C30	0.943900	0.792700	0.756800
C311	C31	0.157700	0.830700	0.887900
C321	C32	0.108800	0.915000	0.912400
C331	C33	0.056700	0.895900	0.947500
C341	C34	0.056700	0.786900	0.958000
C351	C35	0.111700	0.702300	0.931900
C361	C36	0.994900	0.760100	0.995300
C371	C37	0.883800	0.717800	0.621700
C381	C38	0.996300	0.622500	0.634540
C391	C39	0.093100	0.580300	0.609410
C401	C40	0.201000	0.451400	0.656000
C411	C41	0.108800	0.486800	0.683800
C421	C42	0.006700	0.573300	0.672700
C431	C43	0.495800	0.424600	0.622600
C441	C44	0.550600	0.445800	0.588600
C451	C45	0.591800	0.530000	0.586700
C461	C46	0.574800	0.590600	0.618700
C471	C47	0.515600	0.561000	0.652000
C481	C48	0.615300	0.683300	0.619900
C491	C49	0.714800	0.030600	0.625000
C501	C50	0.757400	0.124800	0.624500
C511	C51	0.814500	0.153700	0.592100
C521	C52	0.852900	0.235700	0.591500
C531	C53	0.831500	0.292500	0.623900
C541	C54	0.738700	0.184900	0.657000
C551	C55	0.122400	0.274200	0.594200
C561	C56	0.141600	0.226000	0.632200
C571	C57	0.248100	0.136900	0.639500
C581	C58	0.334100	0.099500	0.608780
C591	C59	0.306100	0.155300	0.572400
C601	C60	0.451100	0.004900	0.616500
C611	C61	0.943100	0.741100	0.246900
C621	C62	0.904000	0.856800	0.262170
C631	C63	0.974800	0.882400	0.283500
C641	C64	0.932900	0.989100	0.298400
C651	C65	0.820700	0.071500	0.291300
C661	C66	0.792700	0.943900	0.256800
C671	C67	0.830700	0.157700	0.387900
C681	C68	0.915000	0.108800	0.412400
C691	C69	0.895900	0.056700	0.447500
C701	C70	0.786900	0.056700	0.458000
C711	C71	0.702300	0.111700	0.431900
C721	C72	0.760100	0.994900	0.495300
S11	S1	0.337900	0.333260	0.172290
S21	S2	0.310410	0.448150	0.124700
S31	S3	0.406110	0.875610	0.126620
S41	S4	0.391810	0.990350	0.079540
S51	S5	0.222500	0.861760	0.841150
S61	S6	0.213430	0.750450	0.806970
S71	S7	0.333260	0.337900	0.672290
S81	S8	0.448150	0.310410	0.624700
S91	S9	0.875610	0.406110	0.626620
S101	S10	0.990350	0.391810	0.579540
S111	S11	0.861760	0.222500	0.341150
S121	S12	0.750450	0.213430	0.306970
N11	N1	0.494900	0.196500	0.118680
N21	N2	0.479500	0.478100	0.154560
N31	N3	0.240700	0.202300	0.065010
N41	N4	0.269000	0.774600	0.157300
N51	N5	0.049200	0.751400	0.771080
N61	N6	0.163700	0.724900	0.896160
N71	N7	0.196500	0.494900	0.618680
N81	N8	0.478100	0.479500	0.654560
N91	N9	0.202300	0.240700	0.565010
N101	N10	0.774600	0.269000	0.657300
N111	N11	0.751400	0.049200	0.271080
N121	N12	0.724900	0.163700	0.396160
O11	O1	0.764600	0.803800	0.147360
O21	O2	0.744000	0.875200	0.085670
O31	O3	0.720900	0.604100	0.151890
O41	O4	0.714900	0.657300	0.088430
O51	O5	0.001200	0.674400	0.156700
O61	O6	0.989100	0.726900	0.093000
O71	O7	0.967800	0.472800	0.150480
O81	O8	0.969700	0.521500	0.086550
O91	O9	0.667300	0.046500	0.749880
O101	O10	0.724800	0.867600	0.732470
O111	O11	0.924600	0.842200	0.014880
O121	O12	0.012100	0.657700	0.006530
O131	O13	0.803800	0.764600	0.647360
O141	O14	0.875200	0.744000	0.585670
O151	O15	0.604100	0.720900	0.651890
O161	O16	0.657300	0.714900	0.588430
O171	O17	0.674400	0.001200	0.656700
O181	O18	0.726900	0.989100	0.593000
O191	O19	0.472800	0.967800	0.650480
O201	O20	0.521500	0.969700	0.586550
O211	O21	0.046500	0.667300	0.249880
O221	O22	0.867600	0.724800	0.232470
O231	O23	0.842200	0.924600	0.514880
O241	O24	0.657700	0.012100	0.506530
Er51	Er5	0.296810	0.137550	0.440970
Er61	Er6	0.367780	0.151560	0.316160
Er71	Er7	0.137550	0.296810	0.940970
Er81	Er8	0.151560	0.367780	0.816160
H371	H37	0.912700	0.387100	0.416300
H381	H38	0.884000	0.547200	0.290700
H391	H39	0.057400	0.400000	0.309000
H401	H40	0.439500	0.594900	0.432900
H411	H41	0.369100	0.454300	0.436300
H421	H42	0.498200	0.398400	0.326100
H431	H43	0.172700	0.884700	0.430300
H441	H44	0.106500	0.746900	0.430800
H451	H45	0.300000	0.833600	0.320500
H461	H46	0.916800	0.746600	0.347600
H471	H47	0.737100	0.898100	0.335300
H481	H48	0.636900	0.868100	0.448300
H491	H49	0.949700	0.173100	0.712500
H501	H50	0.021100	0.994300	0.687100
H511	H51	0.255700	0.070900	0.757200
H521	H52	0.013200	0.889400	0.594700
H531	H53	0.045100	0.978700	0.535600
H541	H54	0.371400	0.886000	0.561500
H551	H55	0.387100	0.912700	0.916300
H561	H56	0.547200	0.884000	0.790700
H571	H57	0.400000	0.057400	0.809000
H581	H58	0.594900	0.439500	0.932900
H591	H59	0.454300	0.369100	0.936300
H601	H60	0.398400	0.498200	0.826100
H611	H61	0.884700	0.172700	0.930300
H621	H62	0.746900	0.106500	0.930800
H631	H63	0.833600	0.300000	0.820500
H641	H64	0.746600	0.916800	0.847600
H651	H65	0.898100	0.737100	0.835300
H661	H66	0.868100	0.636900	0.948300
H671	H67	0.173100	0.949700	0.212500
H681	H68	0.994300	0.021100	0.187100
H691	H69	0.070900	0.255700	0.257200
H701	H70	0.889400	0.013200	0.094700
H711	H71	0.978700	0.045100	0.035600
H721	H72	0.886000	0.371400	0.061500
C731	C73	0.116200	0.282200	0.378300
C741	C74	0.003700	0.377500	0.365460
C751	C75	0.906900	0.419700	0.390590
C761	C76	0.799000	0.548600	0.344000
C771	C77	0.891200	0.513200	0.316200
C781	C78	0.993300	0.426700	0.327300
C791	C79	0.504200	0.575400	0.377400
C801	C80	0.449400	0.554200	0.411400
C811	C81	0.408200	0.470000	0.413300
C821	C82	0.425200	0.409400	0.381300
C831	C83	0.484400	0.439000	0.348000
C841	C84	0.384700	0.316700	0.380100
C851	C85	0.285200	0.969400	0.375000
C861	C86	0.242600	0.875200	0.375500
C871	C87	0.185500	0.846300	0.407900
C881	C88	0.147100	0.764300	0.408500
C891	C89	0.168500	0.707500	0.376100
C901	C90	0.261300	0.815100	0.343000
C911	C91	0.877600	0.725800	0.405800
C921	C92	0.858400	0.774000	0.367800
C931	C93	0.751900	0.863100	0.360500
C941	C94	0.665900	0.900500	0.391220
C951	C95	0.693900	0.844700	0.427600
C961	C96	0.548900	0.995100	0.383500
C971	C97	0.056900	0.258900	0.753100
C981	C98	0.096000	0.143200	0.737830
C991	C99	0.025200	0.117600	0.716500
C1001	C100	0.067100	0.010900	0.701600
C1011	C101	0.179300	0.928500	0.708700
C1021	C102	0.207300	0.056100	0.743200
C1031	C103	0.169300	0.842300	0.612100
C1041	C104	0.085000	0.891200	0.587600
C1051	C105	0.104100	0.943300	0.552500
C1061	C106	0.213100	0.943300	0.542000
C1071	C107	0.297700	0.888300	0.568100
C1081	C108	0.239900	0.005100	0.504700
C1091	C109	0.282200	0.116200	0.878300
C1101	C110	0.377500	0.003700	0.865460
C1111	C111	0.419700	0.906900	0.890590
C1121	C112	0.548600	0.799000	0.844000
C1131	C113	0.513200	0.891200	0.816200
C1141	C114	0.426700	0.993300	0.827300
C1151	C115	0.575400	0.504200	0.877400
C1161	C116	0.554200	0.449400	0.911400
C1171	C117	0.470000	0.408200	0.913300
C1181	C118	0.409400	0.425200	0.881300
C1191	C119	0.439000	0.484400	0.848000
C1201	C120	0.316700	0.384700	0.880100
C1211	C121	0.969400	0.285200	0.875000
C1221	C122	0.875200	0.242600	0.875500
C1231	C123	0.846300	0.185500	0.907900
C1241	C124	0.764300	0.147100	0.908500
C1251	C125	0.707500	0.168500	0.876100
C1261	C126	0.815100	0.261300	0.843000
C1271	C127	0.725800	0.877600	0.905800
C1281	C128	0.774000	0.858400	0.867800
C1291	C129	0.863100	0.751900	0.860500
C1301	C130	0.900500	0.665900	0.891220
C1311	C131	0.844700	0.693900	0.927600
C1321	C132	0.995100	0.548900	0.883500
C1331	C133	0.258900	0.056900	0.253100
C1341	C134	0.143200	0.096000	0.237830
C1351	C135	0.117600	0.025200	0.216500
C1361	C136	0.010900	0.067100	0.201600
C1371	C137	0.928500	0.179300	0.208700
C1381	C138	0.056100	0.207300	0.243200
C1391	C139	0.842300	0.169300	0.112100
C1401	C140	0.891200	0.085000	0.087600
C1411	C141	0.943300	0.104100	0.052500
C1421	C142	0.943300	0.213100	0.042000
C1431	C143	0.888300	0.297700	0.068100
C1441	C144	0.005100	0.239900	0.004700
S131	S13	0.666740	0.662100	0.327710
S141	S14	0.551850	0.689590	0.375300
S151	S15	0.124390	0.593890	0.373380
S161	S16	0.009650	0.608190	0.420460
S171	S17	0.138240	0.777500	0.658850
S181	S18	0.249550	0.786570	0.693030
S191	S19	0.662100	0.666740	0.827710
S201	S20	0.689590	0.551850	0.875300
S211	S21	0.593890	0.124390	0.873380
S221	S22	0.608190	0.009650	0.920460
S231	S23	0.777500	0.138240	0.158850
S241	S24	0.786570	0.249550	0.193030
N131	N13	0.803500	0.505100	0.381320
N141	N14	0.521900	0.520500	0.345440
N151	N15	0.797700	0.759300	0.434990
N161	N16	0.225400	0.731000	0.342700
N171	N17	0.248600	0.950800	0.728920
N181	N18	0.275100	0.836300	0.603840
N191	N19	0.505100	0.803500	0.881320
N201	N20	0.520500	0.521900	0.845440
N211	N21	0.759300	0.797700	0.934990
N221	N22	0.731000	0.225400	0.842700
N231	N23	0.950800	0.248600	0.228920
N241	N24	0.836300	0.275100	0.103840
O251	O25	0.196200	0.235400	0.352640
O261	O26	0.124800	0.256000	0.414330
O271	O27	0.395900	0.279100	0.348110
O281	O28	0.342700	0.285100	0.411570
O291	O29	0.325600	0.998800	0.343300
O301	O30	0.273100	0.010900	0.407000
O311	O31	0.527200	0.032200	0.349520
O321	O32	0.478500	0.030300	0.413450
O331	O33	0.953500	0.332700	0.750120
O341	O34	0.132400	0.275200	0.767530
O351	O35	0.157800	0.075400	0.485120
O361	O36	0.342300	0.987900	0.493470
O371	O37	0.235400	0.196200	0.852640
O381	O38	0.256000	0.124800	0.914330
O391	O39	0.279100	0.395900	0.848110
O401	O40	0.285100	0.342700	0.911570
O411	O41	0.998800	0.325600	0.843300
O421	O42	0.010900	0.273100	0.907000
O431	O43	0.032200	0.527200	0.849520
O441	O44	0.030300	0.478500	0.913450
O451	O45	0.332700	0.953500	0.250120
O461	O46	0.275200	0.132400	0.267530
O471	O47	0.075400	0.157800	0.985120
O481	O48	0.987900	0.342300	0.993470
