data_GAJVIY_charged_PM
_symmetry_space_group_name_H-M	'P1'
_cell_length_a	14.557500
_cell_length_b	24.674400
_cell_length_c	22.402100
_cell_angle_alpha	90.000000
_cell_angle_beta	90.000000
_cell_angle_gamma	90.000000
_symmetry_Int_Tables_number 1

loop_
_symmetry_equiv_pos_as_xyz
'x,y,z'

loop_
_atom_site_label
_atom_site_type_symbol
_atom_site_fract_x
_atom_site_fract_y
_atom_site_fract_z
Zn11	Zn1	0.959170	0.343830	0.386780
Zn21	Zn2	0.996430	0.344020	0.229020
Zn31	Zn3	0.039220	0.339720	0.064820
Zn41	Zn4	0.540830	0.843830	0.386780
Zn51	Zn5	0.503570	0.844020	0.229020
Zn61	Zn6	0.460780	0.839720	0.064820
H11	H1	0.037100	0.384600	0.563000
H21	H2	0.073300	0.394000	0.663000
H31	H3	0.927700	0.258800	0.701200
H41	H4	0.889800	0.249700	0.599900
H51	H5	0.045600	0.416500	0.754500
H61	H6	0.074800	0.429000	0.855200
H71	H7	0.037700	0.269100	0.883600
H81	H8	0.016600	0.255900	0.781100
H91	H9	0.096500	0.493700	0.410200
H101	H10	0.181500	0.573200	0.410500
H111	H11	0.199900	0.566200	0.229900
H121	H12	0.108100	0.489000	0.230400
H131	H13	0.321600	0.611800	0.400700
H141	H14	0.413100	0.689000	0.402400
H151	H15	0.303500	0.738400	0.245700
H161	H16	0.211100	0.660600	0.242900
H171	H17	0.667100	0.383800	0.359300
H181	H18	0.519100	0.391700	0.321500
H191	H19	0.602400	0.324700	0.165100
H201	H20	0.750300	0.316900	0.204100
H211	H21	0.384600	0.358400	0.294400
H221	H22	0.234600	0.360400	0.258000
H231	H23	0.336000	0.366800	0.089900
H241	H24	0.484800	0.370500	0.127400
H251	H25	0.855900	0.207500	0.222500
H261	H26	0.764600	0.129500	0.217800
H271	H27	0.859800	0.098700	0.052000
H281	H28	0.945500	0.177400	0.054200
H291	H29	0.756000	0.036100	0.220000
H301	H30	0.673500	0.955400	0.214900
H311	H31	0.628100	0.981800	0.038600
H321	H32	0.716000	0.060100	0.042800
H331	H33	0.462900	0.884600	0.563000
H341	H34	0.426700	0.894000	0.663000
H351	H35	0.572300	0.758800	0.701200
H361	H36	0.610200	0.749700	0.599900
H371	H37	0.454400	0.916500	0.754500
H381	H38	0.425200	0.929000	0.855200
H391	H39	0.462300	0.769100	0.883600
H401	H40	0.483400	0.755900	0.781100
H411	H41	0.403500	0.993700	0.410200
H421	H42	0.318500	0.073200	0.410500
H431	H43	0.300100	0.066200	0.229900
H441	H44	0.391900	0.989000	0.230400
H451	H45	0.178400	0.111800	0.400700
H461	H46	0.086900	0.189000	0.402400
H471	H47	0.196500	0.238400	0.245700
H481	H48	0.288900	0.160600	0.242900
H491	H49	0.832900	0.883800	0.359300
H501	H50	0.980900	0.891700	0.321500
H511	H51	0.897600	0.824700	0.165100
H521	H52	0.749700	0.816900	0.204100
H531	H53	0.115400	0.858400	0.294400
H541	H54	0.265400	0.860400	0.258000
H551	H55	0.164000	0.866800	0.089900
H561	H56	0.015200	0.870500	0.127400
H571	H57	0.644100	0.707500	0.222500
H581	H58	0.735400	0.629500	0.217800
H591	H59	0.640200	0.598700	0.052000
H601	H60	0.554500	0.677400	0.054200
H611	H61	0.744000	0.536100	0.220000
H621	H62	0.826500	0.455400	0.214900
H631	H63	0.871900	0.481800	0.038600
H641	H64	0.784000	0.560100	0.042800
C11	C1	0.938300	0.309910	0.506010
C21	C2	0.959300	0.317150	0.571900
C31	C3	0.014000	0.359180	0.591080
C41	C4	0.035600	0.364660	0.650580
C51	C5	0.003300	0.328080	0.693060
C61	C6	0.949400	0.284760	0.673260
C71	C7	0.926800	0.279120	0.612910
C81	C8	0.024700	0.334770	0.757620
C91	C9	0.043700	0.386290	0.780720
C101	C10	0.059800	0.393930	0.840670
C111	C11	0.054300	0.350820	0.879890
C121	C12	0.039000	0.299330	0.857280
C131	C13	0.025400	0.291500	0.796170
C141	C14	0.063300	0.360930	0.945890
C151	C15	0.037400	0.432350	0.320070
C161	C16	0.094000	0.483810	0.320010
C171	C17	0.116500	0.508950	0.373490
C181	C18	0.167700	0.555840	0.373700
C191	C19	0.199700	0.578190	0.320010
C201	C20	0.177900	0.552130	0.266690
C211	C21	0.124200	0.505810	0.267120
C221	C22	0.257500	0.628020	0.320950
C231	C23	0.317900	0.637250	0.368980
C241	C24	0.372100	0.683330	0.370040
C251	C25	0.367200	0.721300	0.324620
C261	C26	0.307100	0.712630	0.277030
C271	C27	0.252100	0.666160	0.275270
C281	C28	0.424700	0.771610	0.327330
C291	C29	0.818200	0.341440	0.309300
C301	C30	0.722800	0.348480	0.285120
C311	C31	0.653800	0.371540	0.320070
C321	C32	0.566100	0.376500	0.297340
C331	C33	0.545240	0.359570	0.239580
C341	C34	0.615100	0.336760	0.204570
C351	C35	0.702900	0.331940	0.228030
C361	C36	0.449800	0.363560	0.215460
C371	C37	0.374800	0.360720	0.252590
C381	C38	0.285200	0.361170	0.231280
C391	C39	0.271200	0.362780	0.169620
C401	C40	0.345600	0.365720	0.131790
C411	C41	0.434300	0.367100	0.154020
C421	C42	0.175800	0.360360	0.145450
C431	C43	0.965100	0.251350	0.140530
C441	C44	0.909800	0.200220	0.138650
C451	C45	0.855900	0.185730	0.187560
C461	C46	0.802200	0.139120	0.184760
C471	C47	0.802800	0.106390	0.134150
C481	C48	0.857900	0.121130	0.086390
C491	C49	0.909600	0.167510	0.087870
C501	C50	0.747500	0.056210	0.131870
C511	C51	0.731600	0.024610	0.182790
C521	C52	0.681100	0.977010	0.180230
C531	C53	0.641100	0.961000	0.125610
C541	C54	0.654900	0.992410	0.075470
C551	C55	0.707200	0.039170	0.077920
C561	C56	0.585120	0.909930	0.123470
C571	C57	0.561700	0.809910	0.506010
C581	C58	0.540700	0.817150	0.571900
C591	C59	0.486000	0.859180	0.591080
C601	C60	0.464400	0.864660	0.650580
C611	C61	0.496700	0.828080	0.693060
C621	C62	0.550600	0.784760	0.673260
C631	C63	0.573200	0.779120	0.612910
C641	C64	0.475300	0.834770	0.757620
C651	C65	0.456300	0.886290	0.780720
C661	C66	0.440200	0.893930	0.840670
C671	C67	0.445700	0.850820	0.879890
C681	C68	0.461000	0.799330	0.857280
C691	C69	0.474600	0.791500	0.796170
C701	C70	0.436700	0.860930	0.945890
C711	C71	0.462600	0.932350	0.320070
C721	C72	0.406000	0.983810	0.320010
C731	C73	0.383500	0.008950	0.373490
C741	C74	0.332300	0.055840	0.373700
C751	C75	0.300300	0.078190	0.320010
C761	C76	0.322100	0.052130	0.266690
C771	C77	0.375800	0.005810	0.267120
C781	C78	0.242500	0.128020	0.320950
C791	C79	0.182100	0.137250	0.368980
C801	C80	0.127900	0.183330	0.370040
C811	C81	0.132800	0.221300	0.324620
C821	C82	0.192900	0.212630	0.277030
C831	C83	0.247900	0.166160	0.275270
C841	C84	0.075300	0.271610	0.327330
C851	C85	0.681800	0.841440	0.309300
C861	C86	0.777200	0.848480	0.285120
C871	C87	0.846200	0.871540	0.320070
C881	C88	0.933900	0.876500	0.297340
C891	C89	0.954760	0.859570	0.239580
C901	C90	0.884900	0.836760	0.204570
C911	C91	0.797100	0.831940	0.228030
C921	C92	0.050200	0.863560	0.215460
C931	C93	0.125200	0.860720	0.252590
C941	C94	0.214800	0.861170	0.231280
C951	C95	0.228800	0.862780	0.169620
C961	C96	0.154400	0.865720	0.131790
C971	C97	0.065700	0.867100	0.154020
C981	C98	0.324200	0.860360	0.145450
C991	C99	0.534900	0.751350	0.140530
C1001	C100	0.590200	0.700220	0.138650
C1011	C101	0.644100	0.685730	0.187560
C1021	C102	0.697800	0.639120	0.184760
C1031	C103	0.697200	0.606390	0.134150
C1041	C104	0.642100	0.621130	0.086390
C1051	C105	0.590400	0.667510	0.087870
C1061	C106	0.752500	0.556210	0.131870
C1071	C107	0.768400	0.524610	0.182790
C1081	C108	0.818900	0.477010	0.180230
C1091	C109	0.858900	0.461000	0.125610
C1101	C110	0.845100	0.492410	0.075470
C1111	C111	0.792800	0.539170	0.077920
C1121	C112	0.914880	0.409930	0.123470
O11	O1	0.965850	0.348680	0.473270
O21	O2	0.898680	0.268530	0.488900
O31	O3	0.091100	0.405110	0.963990
O41	O4	0.041540	0.321650	0.979700
O51	O5	0.031120	0.408500	0.370150
O61	O6	0.001900	0.417980	0.272160
O71	O7	0.483040	0.774050	0.369750
O81	O8	0.411250	0.807790	0.289610
O91	O9	0.831800	0.356200	0.363410
O101	O10	0.877480	0.319410	0.277430
O111	O11	0.110500	0.370830	0.179970
O121	O12	0.166510	0.348510	0.091070
O131	O13	0.990070	0.268810	0.190090
O141	O14	0.980940	0.272300	0.090100
O151	O15	0.592350	0.877450	0.165750
O161	O16	0.536880	0.903720	0.077020
O171	O17	0.534150	0.848680	0.473270
O181	O18	0.601320	0.768530	0.488900
O191	O19	0.408900	0.905110	0.963990
O201	O20	0.458460	0.821650	0.979700
O211	O21	0.468880	0.908500	0.370150
O221	O22	0.498100	0.917980	0.272160
O231	O23	0.016960	0.274050	0.369750
O241	O24	0.088750	0.307790	0.289610
O251	O25	0.668200	0.856200	0.363410
O261	O26	0.622520	0.819410	0.277430
O271	O27	0.389500	0.870830	0.179970
O281	O28	0.333490	0.848510	0.091070
O291	O29	0.509930	0.768810	0.190090
O301	O30	0.519060	0.772300	0.090100
O311	O31	0.907650	0.377450	0.165750
O321	O32	0.963120	0.403720	0.077020
Zn71	Zn7	0.040830	0.656170	0.886780
Zn81	Zn8	0.003570	0.655980	0.729020
Zn91	Zn9	0.960780	0.660280	0.564820
Zn101	Zn10	0.459170	0.156170	0.886780
Zn111	Zn11	0.496430	0.155980	0.729020
Zn121	Zn12	0.539220	0.160280	0.564820
H651	H65	0.962900	0.615400	0.063000
H661	H66	0.926700	0.606000	0.163000
H671	H67	0.072300	0.741200	0.201200
H681	H68	0.110200	0.750300	0.099900
H691	H69	0.954400	0.583500	0.254500
H701	H70	0.925200	0.571000	0.355200
H711	H71	0.962300	0.730900	0.383600
H721	H72	0.983400	0.744100	0.281100
H731	H73	0.903500	0.506300	0.910200
H741	H74	0.818500	0.426800	0.910500
H751	H75	0.800100	0.433800	0.729900
H761	H76	0.891900	0.511000	0.730400
H771	H77	0.678400	0.388200	0.900700
H781	H78	0.586900	0.311000	0.902400
H791	H79	0.696500	0.261600	0.745700
H801	H80	0.788900	0.339400	0.742900
H811	H81	0.332900	0.616200	0.859300
H821	H82	0.480900	0.608300	0.821500
H831	H83	0.397600	0.675300	0.665100
H841	H84	0.249700	0.683100	0.704100
H851	H85	0.615400	0.641600	0.794400
H861	H86	0.765400	0.639600	0.758000
H871	H87	0.664000	0.633200	0.589900
H881	H88	0.515200	0.629500	0.627400
H891	H89	0.144100	0.792500	0.722500
H901	H90	0.235400	0.870500	0.717800
H911	H91	0.140200	0.901300	0.552000
H921	H92	0.054500	0.822600	0.554200
H931	H93	0.244000	0.963900	0.720000
H941	H94	0.326500	0.044600	0.714900
H951	H95	0.371900	0.018200	0.538600
H961	H96	0.284000	0.939900	0.542800
H971	H97	0.537100	0.115400	0.063000
H981	H98	0.573300	0.106000	0.163000
H991	H99	0.427700	0.241200	0.201200
H1001	H100	0.389800	0.250300	0.099900
H1011	H101	0.545600	0.083500	0.254500
H1021	H102	0.574800	0.071000	0.355200
H1031	H103	0.537700	0.230900	0.383600
H1041	H104	0.516600	0.244100	0.281100
H1051	H105	0.596500	0.006300	0.910200
H1061	H106	0.681500	0.926800	0.910500
H1071	H107	0.699900	0.933800	0.729900
H1081	H108	0.608100	0.011000	0.730400
H1091	H109	0.821600	0.888200	0.900700
H1101	H110	0.913100	0.811000	0.902400
H1111	H111	0.803500	0.761600	0.745700
H1121	H112	0.711100	0.839400	0.742900
H1131	H113	0.167100	0.116200	0.859300
H1141	H114	0.019100	0.108300	0.821500
H1151	H115	0.102400	0.175300	0.665100
H1161	H116	0.250300	0.183100	0.704100
H1171	H117	0.884600	0.141600	0.794400
H1181	H118	0.734600	0.139600	0.758000
H1191	H119	0.836000	0.133200	0.589900
H1201	H120	0.984800	0.129500	0.627400
H1211	H121	0.355900	0.292500	0.722500
H1221	H122	0.264600	0.370500	0.717800
H1231	H123	0.359800	0.401300	0.552000
H1241	H124	0.445500	0.322600	0.554200
H1251	H125	0.256000	0.463900	0.720000
H1261	H126	0.173500	0.544600	0.714900
H1271	H127	0.128100	0.518200	0.538600
H1281	H128	0.216000	0.439900	0.542800
C1131	C113	0.061700	0.690090	0.006010
C1141	C114	0.040700	0.682850	0.071900
C1151	C115	0.986000	0.640820	0.091080
C1161	C116	0.964400	0.635340	0.150580
C1171	C117	0.996700	0.671920	0.193060
C1181	C118	0.050600	0.715240	0.173260
C1191	C119	0.073200	0.720880	0.112910
C1201	C120	0.975300	0.665230	0.257620
C1211	C121	0.956300	0.613710	0.280720
C1221	C122	0.940200	0.606070	0.340670
C1231	C123	0.945700	0.649180	0.379890
C1241	C124	0.961000	0.700670	0.357280
C1251	C125	0.974600	0.708500	0.296170
C1261	C126	0.936700	0.639070	0.445890
C1271	C127	0.962600	0.567650	0.820070
C1281	C128	0.906000	0.516190	0.820010
C1291	C129	0.883500	0.491050	0.873490
C1301	C130	0.832300	0.444160	0.873700
C1311	C131	0.800300	0.421810	0.820010
C1321	C132	0.822100	0.447870	0.766690
C1331	C133	0.875800	0.494190	0.767120
C1341	C134	0.742500	0.371980	0.820950
C1351	C135	0.682100	0.362750	0.868980
C1361	C136	0.627900	0.316670	0.870040
C1371	C137	0.632800	0.278700	0.824620
C1381	C138	0.692900	0.287370	0.777030
C1391	C139	0.747900	0.333840	0.775270
C1401	C140	0.575300	0.228390	0.827330
C1411	C141	0.181800	0.658560	0.809300
C1421	C142	0.277200	0.651520	0.785120
C1431	C143	0.346200	0.628460	0.820070
C1441	C144	0.433900	0.623500	0.797340
C1451	C145	0.454760	0.640430	0.739580
C1461	C146	0.384900	0.663240	0.704570
C1471	C147	0.297100	0.668060	0.728030
C1481	C148	0.550200	0.636440	0.715460
C1491	C149	0.625200	0.639280	0.752590
C1501	C150	0.714800	0.638830	0.731280
C1511	C151	0.728800	0.637220	0.669620
C1521	C152	0.654400	0.634280	0.631790
C1531	C153	0.565700	0.632900	0.654020
C1541	C154	0.824200	0.639640	0.645450
C1551	C155	0.034900	0.748650	0.640530
C1561	C156	0.090200	0.799780	0.638650
C1571	C157	0.144100	0.814270	0.687560
C1581	C158	0.197800	0.860880	0.684760
C1591	C159	0.197200	0.893610	0.634150
C1601	C160	0.142100	0.878870	0.586390
C1611	C161	0.090400	0.832490	0.587870
C1621	C162	0.252500	0.943790	0.631870
C1631	C163	0.268400	0.975390	0.682790
C1641	C164	0.318900	0.022990	0.680230
C1651	C165	0.358900	0.039000	0.625610
C1661	C166	0.345100	0.007590	0.575470
C1671	C167	0.292800	0.960830	0.577920
C1681	C168	0.414880	0.090070	0.623470
C1691	C169	0.438300	0.190090	0.006010
C1701	C170	0.459300	0.182850	0.071900
C1711	C171	0.514000	0.140820	0.091080
C1721	C172	0.535600	0.135340	0.150580
C1731	C173	0.503300	0.171920	0.193060
C1741	C174	0.449400	0.215240	0.173260
C1751	C175	0.426800	0.220880	0.112910
C1761	C176	0.524700	0.165230	0.257620
C1771	C177	0.543700	0.113710	0.280720
C1781	C178	0.559800	0.106070	0.340670
C1791	C179	0.554300	0.149180	0.379890
C1801	C180	0.539000	0.200670	0.357280
C1811	C181	0.525400	0.208500	0.296170
C1821	C182	0.563300	0.139070	0.445890
C1831	C183	0.537400	0.067650	0.820070
C1841	C184	0.594000	0.016190	0.820010
C1851	C185	0.616500	0.991050	0.873490
C1861	C186	0.667700	0.944160	0.873700
C1871	C187	0.699700	0.921810	0.820010
C1881	C188	0.677900	0.947870	0.766690
C1891	C189	0.624200	0.994190	0.767120
C1901	C190	0.757500	0.871980	0.820950
C1911	C191	0.817900	0.862750	0.868980
C1921	C192	0.872100	0.816670	0.870040
C1931	C193	0.867200	0.778700	0.824620
C1941	C194	0.807100	0.787370	0.777030
C1951	C195	0.752100	0.833840	0.775270
C1961	C196	0.924700	0.728390	0.827330
C1971	C197	0.318200	0.158560	0.809300
C1981	C198	0.222800	0.151520	0.785120
C1991	C199	0.153800	0.128460	0.820070
C2001	C200	0.066100	0.123500	0.797340
C2011	C201	0.045240	0.140430	0.739580
C2021	C202	0.115100	0.163240	0.704570
C2031	C203	0.202900	0.168060	0.728030
C2041	C204	0.949800	0.136440	0.715460
C2051	C205	0.874800	0.139280	0.752590
C2061	C206	0.785200	0.138830	0.731280
C2071	C207	0.771200	0.137220	0.669620
C2081	C208	0.845600	0.134280	0.631790
C2091	C209	0.934300	0.132900	0.654020
C2101	C210	0.675800	0.139640	0.645450
C2111	C211	0.465100	0.248650	0.640530
C2121	C212	0.409800	0.299780	0.638650
C2131	C213	0.355900	0.314270	0.687560
C2141	C214	0.302200	0.360880	0.684760
C2151	C215	0.302800	0.393610	0.634150
C2161	C216	0.357900	0.378870	0.586390
C2171	C217	0.409600	0.332490	0.587870
C2181	C218	0.247500	0.443790	0.631870
C2191	C219	0.231600	0.475390	0.682790
C2201	C220	0.181100	0.522990	0.680230
C2211	C221	0.141100	0.539000	0.625610
C2221	C222	0.154900	0.507590	0.575470
C2231	C223	0.207200	0.460830	0.577920
C2241	C224	0.085120	0.590070	0.623470
O331	O33	0.034150	0.651320	0.973270
O341	O34	0.101320	0.731470	0.988900
O351	O35	0.908900	0.594890	0.463990
O361	O36	0.958460	0.678350	0.479700
O371	O37	0.968880	0.591500	0.870150
O381	O38	0.998100	0.582020	0.772160
O391	O39	0.516960	0.225950	0.869750
O401	O40	0.588750	0.192210	0.789610
O411	O41	0.168200	0.643800	0.863410
O421	O42	0.122520	0.680590	0.777430
O431	O43	0.889500	0.629170	0.679970
O441	O44	0.833490	0.651490	0.591070
O451	O45	0.009930	0.731190	0.690090
O461	O46	0.019060	0.727700	0.590100
O471	O47	0.407650	0.122550	0.665750
O481	O48	0.463120	0.096280	0.577020
O491	O49	0.465850	0.151320	0.973270
O501	O50	0.398680	0.231470	0.988900
O511	O51	0.591100	0.094890	0.463990
O521	O52	0.541540	0.178350	0.479700
O531	O53	0.531120	0.091500	0.870150
O541	O54	0.501900	0.082020	0.772160
O551	O55	0.983040	0.725950	0.869750
O561	O56	0.911250	0.692210	0.789610
O571	O57	0.331800	0.143800	0.863410
O581	O58	0.377480	0.180590	0.777430
O591	O59	0.610500	0.129170	0.679970
O601	O60	0.666510	0.151490	0.591070
O611	O61	0.490070	0.231190	0.690090
O621	O62	0.480940	0.227700	0.590100
O631	O63	0.092350	0.622550	0.665750
O641	O64	0.036880	0.596280	0.577020
H1291	H129	0.894600	0.215400	0.426400
H1301	H130	0.907300	0.168400	0.385800
H1311	H131	0.825300	0.232400	0.338600
H1321	H132	0.751000	0.230200	0.391200
H1331	H133	0.763900	0.179300	0.347700
H1341	H134	0.881600	0.137800	0.479000
H1351	H135	0.799500	0.119600	0.435900
H1361	H136	0.786300	0.170200	0.479800
C2251	C225	0.795600	0.209030	0.368200
C2261	C226	0.830200	0.150660	0.454500
N11	N1	0.864700	0.186960	0.408200
H1371	H137	0.115800	0.454900	0.024200
H1381	H138	0.204100	0.484600	0.030900
H1391	H139	0.144200	0.469300	0.123100
H1401	H140	0.052800	0.500500	0.103200
H1411	H141	0.147300	0.533000	0.110200
H1421	H142	0.124600	0.521100	0.953300
H1431	H143	0.135100	0.565000	0.005500
H1441	H144	0.040600	0.532700	0.997600
C2271	C227	0.119600	0.498490	0.098200
C2281	C228	0.107600	0.530200	0.994500
N21	N2	0.141400	0.487570	0.035070
H1451	H145	0.105400	0.784600	0.926400
H1461	H146	0.092700	0.831600	0.885800
H1471	H147	0.174700	0.767600	0.838600
H1481	H148	0.249000	0.769800	0.891200
H1491	H149	0.236100	0.820700	0.847700
H1501	H150	0.118400	0.862200	0.979000
H1511	H151	0.200500	0.880400	0.935900
H1521	H152	0.213700	0.829800	0.979800
C2291	C229	0.204400	0.790970	0.868200
C2301	C230	0.169800	0.849340	0.954500
N31	N3	0.135300	0.813040	0.908200
H1531	H153	0.884200	0.545100	0.524200
H1541	H154	0.795900	0.515400	0.530900
H1551	H155	0.855800	0.530700	0.623100
H1561	H156	0.947200	0.499500	0.603200
H1571	H157	0.852700	0.467000	0.610200
H1581	H158	0.875400	0.478900	0.453300
H1591	H159	0.864900	0.435000	0.505500
H1601	H160	0.959400	0.467300	0.497600
C2311	C231	0.880400	0.501510	0.598200
C2321	C232	0.892400	0.469800	0.494500
N41	N4	0.858600	0.512430	0.535070
H1611	H161	0.605400	0.715400	0.426400
H1621	H162	0.592700	0.668400	0.385800
H1631	H163	0.674700	0.732400	0.338600
H1641	H164	0.749000	0.730200	0.391200
H1651	H165	0.736100	0.679300	0.347700
H1661	H166	0.618400	0.637800	0.479000
H1671	H167	0.700500	0.619600	0.435900
H1681	H168	0.713700	0.670200	0.479800
C2331	C233	0.704400	0.709030	0.368200
C2341	C234	0.669800	0.650660	0.454500
N51	N5	0.635300	0.686960	0.408200
H1691	H169	0.384200	0.954900	0.024200
H1701	H170	0.295900	0.984600	0.030900
H1711	H171	0.355800	0.969300	0.123100
H1721	H172	0.447200	0.000500	0.103200
H1731	H173	0.352700	0.033000	0.110200
H1741	H174	0.375400	0.021100	0.953300
H1751	H175	0.364900	0.065000	0.005500
H1761	H176	0.459400	0.032700	0.997600
C2351	C235	0.380400	0.998490	0.098200
C2361	C236	0.392400	0.030200	0.994500
N61	N6	0.358600	0.987570	0.035070
H1771	H177	0.394600	0.284600	0.926400
H1781	H178	0.407300	0.331600	0.885800
H1791	H179	0.325300	0.267600	0.838600
H1801	H180	0.251000	0.269800	0.891200
H1811	H181	0.263900	0.320700	0.847700
H1821	H182	0.381600	0.362200	0.979000
H1831	H183	0.299500	0.380400	0.935900
H1841	H184	0.286300	0.329800	0.979800
C2371	C237	0.295600	0.290970	0.868200
C2381	C238	0.330200	0.349340	0.954500
N71	N7	0.364700	0.313040	0.908200
H1851	H185	0.615800	0.045100	0.524200
H1861	H186	0.704100	0.015400	0.530900
H1871	H187	0.644200	0.030700	0.623100
H1881	H188	0.552800	0.999500	0.603200
H1891	H189	0.647300	0.967000	0.610200
H1901	H190	0.624600	0.978900	0.453300
H1911	H191	0.635100	0.935000	0.505500
H1921	H192	0.540600	0.967300	0.497600
C2391	C239	0.619600	0.001510	0.598200
C2401	C240	0.607600	0.969800	0.494500
N81	N8	0.641400	0.012430	0.535070
