data_GAJVEU_charged_PM
_symmetry_space_group_name_H-M	'P1'
_cell_length_a	9.595900
_cell_length_b	17.253200
_cell_length_c	18.495000
_cell_angle_alpha	90.448600
_cell_angle_beta	90.000000
_cell_angle_gamma	106.146000
_symmetry_Int_Tables_number 1

loop_
_symmetry_equiv_pos_as_xyz
'x,y,z'

loop_
_atom_site_label
_atom_site_type_symbol
_atom_site_fract_x
_atom_site_fract_y
_atom_site_fract_z
Zn11	Zn1	0.557200	0.693300	0.995680
Zn21	Zn2	0.863900	0.306700	0.504320
Zn31	Zn3	0.442800	0.306700	0.004320
Zn41	Zn4	0.136100	0.693300	0.495680
Zn51	Zn5	0.500000	0.500000	0.000000
Zn61	Zn6	0.000000	0.500000	0.500000
H11	H1	0.840900	0.735000	0.815400
H21	H2	0.952000	0.740800	0.701500
H31	H3	0.759000	0.502800	0.669200
H41	H4	0.651300	0.496200	0.783300
H51	H5	0.334000	0.920600	0.079200
H61	H6	0.661000	0.943400	0.937700
H71	H7	0.040000	0.564800	0.887700
H81	H8	0.192100	0.514200	0.082000
H91	H9	0.105900	0.265000	0.684600
H101	H10	0.211200	0.259200	0.798500
H111	H11	0.256200	0.497200	0.830800
H121	H12	0.155100	0.503800	0.716700
H131	H13	0.413400	0.079400	0.420800
H141	H14	0.717600	0.056600	0.562300
H151	H15	0.475200	0.435200	0.612300
H161	H16	0.677900	0.485800	0.418000
H171	H17	0.159100	0.265000	0.184600
H181	H18	0.048000	0.259200	0.298500
H191	H19	0.241000	0.497200	0.330800
H201	H20	0.348700	0.503800	0.216700
H211	H21	0.666000	0.079400	0.920800
H221	H22	0.339000	0.056600	0.062300
H231	H23	0.960000	0.435200	0.112300
H241	H24	0.807900	0.485800	0.918000
H251	H25	0.894100	0.735000	0.315400
H261	H26	0.788800	0.740800	0.201500
H271	H27	0.743800	0.502800	0.169200
H281	H28	0.844900	0.496200	0.283300
H291	H29	0.586600	0.920600	0.579200
H301	H30	0.282400	0.943400	0.437700
H311	H31	0.524800	0.564800	0.387700
H321	H32	0.322100	0.514200	0.582000
C11	C1	0.663200	0.611200	0.881930
C21	C2	0.736580	0.615160	0.810000
C31	C3	0.825020	0.687840	0.786200
C41	C4	0.890850	0.691100	0.718300
C51	C5	0.867620	0.622440	0.675400
C61	C6	0.776810	0.549620	0.699000
C71	C7	0.712310	0.546020	0.766500
C81	C8	0.938790	0.626780	0.602690
C91	C9	0.482300	0.830200	0.016600
C101	C10	0.491000	0.918600	0.008000
C111	C11	0.401100	0.952800	0.046100
C121	C12	0.594400	0.965800	0.962600
C131	C13	0.285830	0.598460	0.961500
C141	C14	0.138320	0.546240	0.982400
C151	C15	0.023240	0.538280	0.933000
C161	C16	0.114140	0.508280	0.048800
C171	C17	0.052000	0.388800	0.618070
C181	C18	0.121420	0.384840	0.690000
C191	C19	0.137180	0.312160	0.713800
C201	C20	0.199750	0.308900	0.781700
C211	C21	0.245180	0.377560	0.824600
C221	C22	0.227190	0.450380	0.801000
C231	C23	0.166290	0.453980	0.733500
C241	C24	0.312010	0.373220	0.897310
C251	C25	0.652100	0.169800	0.483400
C261	C26	0.572400	0.081400	0.492000
C271	C27	0.448300	0.047200	0.453900
C281	C28	0.628600	0.034200	0.537400
C291	C29	0.687370	0.401540	0.538500
C301	C30	0.592080	0.453760	0.517600
C311	C31	0.484960	0.461720	0.567000
C321	C32	0.605860	0.491720	0.451200
C331	C33	0.336800	0.388800	0.118070
C341	C34	0.263420	0.384840	0.190000
C351	C35	0.174980	0.312160	0.213800
C361	C36	0.109150	0.308900	0.281700
C371	C37	0.132380	0.377560	0.324600
C381	C38	0.223190	0.450380	0.301000
C391	C39	0.287690	0.453980	0.233500
C401	C40	0.061210	0.373220	0.397310
C411	C41	0.517700	0.169800	0.983400
C421	C42	0.509000	0.081400	0.992000
C431	C43	0.598900	0.047200	0.953900
C441	C44	0.405600	0.034200	0.037400
C451	C45	0.714170	0.401540	0.038500
C461	C46	0.861680	0.453760	0.017600
C471	C47	0.976760	0.461720	0.067000
C481	C48	0.885860	0.491720	0.951200
C491	C49	0.948000	0.611200	0.381930
C501	C50	0.878580	0.615160	0.310000
C511	C51	0.862820	0.687840	0.286200
C521	C52	0.800250	0.691100	0.218300
C531	C53	0.754820	0.622440	0.175400
C541	C54	0.772810	0.549620	0.199000
C551	C55	0.833710	0.546020	0.266500
C561	C56	0.687990	0.626780	0.102690
C571	C57	0.347900	0.830200	0.516600
C581	C58	0.427600	0.918600	0.508000
C591	C59	0.551700	0.952800	0.546100
C601	C60	0.371400	0.965800	0.462600
C611	C61	0.312630	0.598460	0.461500
C621	C62	0.407920	0.546240	0.482400
C631	C63	0.515040	0.538280	0.433000
C641	C64	0.394140	0.508280	0.548800
O11	O1	0.676810	0.678220	0.914420
O21	O2	0.590540	0.542680	0.903230
O31	O3	0.033300	0.691400	0.588330
O41	O4	0.898460	0.568120	0.560750
O51	O5	0.562590	0.803780	0.977000
O61	O6	0.422100	0.792600	0.072100
O71	O7	0.391610	0.597020	0.006120
O81	O8	0.304820	0.640240	0.907800
O91	O9	0.998590	0.321780	0.585580
O101	O10	0.047860	0.457320	0.596770
O111	O11	0.341900	0.308600	0.911670
O121	O12	0.330340	0.431880	0.939250
O131	O13	0.758810	0.196220	0.523000
O141	O14	0.629500	0.207400	0.427900
O151	O15	0.794590	0.402980	0.493880
O161	O16	0.664580	0.359760	0.592200
O171	O17	0.323190	0.321780	0.085580
O181	O18	0.409460	0.457320	0.096770
O191	O19	0.966700	0.308600	0.411670
O201	O20	0.101540	0.431880	0.439250
O211	O21	0.437410	0.196220	0.023000
O221	O22	0.577900	0.207400	0.927900
O231	O23	0.608390	0.402980	0.993880
O241	O24	0.695180	0.359760	0.092200
O251	O25	0.001410	0.678220	0.414420
O261	O26	0.952140	0.542680	0.403230
O271	O27	0.658100	0.691400	0.088330
O281	O28	0.669660	0.568120	0.060750
O291	O29	0.241190	0.803780	0.477000
O301	O30	0.370500	0.792600	0.572100
O311	O31	0.205410	0.597020	0.506120
O321	O32	0.335420	0.640240	0.407800
H331	H33	0.272400	0.743600	0.336400
H341	H34	0.356900	0.832400	0.310600
H351	H35	0.188500	0.796000	0.291800
H361	H36	0.434500	0.676400	0.262100
H371	H37	0.493100	0.719000	0.187100
H381	H38	0.523100	0.770000	0.261000
C651	C65	0.281600	0.783200	0.297800
C661	C66	0.453300	0.726600	0.234600
N11	N1	0.322100	0.747600	0.225400
H391	H39	0.528800	0.256400	0.163600
H401	H40	0.524500	0.167600	0.189400
H411	H41	0.392500	0.204000	0.208200
H421	H42	0.758100	0.323600	0.237900
H431	H43	0.774100	0.281000	0.312900
H441	H44	0.753100	0.230000	0.239000
C671	C67	0.498400	0.216800	0.202200
C681	C68	0.726700	0.273400	0.265400
N21	N2	0.574500	0.252400	0.274600
H451	H45	0.727600	0.256400	0.663600
H461	H46	0.643100	0.167600	0.689400
H471	H47	0.811500	0.204000	0.708200
H481	H48	0.565500	0.323600	0.737900
H491	H49	0.506900	0.281000	0.812900
H501	H50	0.476900	0.230000	0.739000
C691	C69	0.718400	0.216800	0.702200
C701	C70	0.546700	0.273400	0.765400
N31	N3	0.677900	0.252400	0.774600
H511	H51	0.471200	0.743600	0.836400
H521	H52	0.475500	0.832400	0.810600
H531	H53	0.607500	0.796000	0.791800
H541	H54	0.241900	0.676400	0.762100
H551	H55	0.225900	0.719000	0.687100
H561	H56	0.246900	0.770000	0.761000
C711	C71	0.501600	0.783200	0.797800
C721	C72	0.273300	0.726600	0.734600
N41	N4	0.425500	0.747600	0.725400
