data_GAJYUN_clean_PM
_symmetry_space_group_name_H-M	'P1'
_cell_length_a	5.690600
_cell_length_b	12.800000
_cell_length_c	21.550000
_cell_angle_alpha	90.000000
_cell_angle_beta	95.392000
_cell_angle_gamma	90.000000
_symmetry_Int_Tables_number 1

loop_
_symmetry_equiv_pos_as_xyz
'x,y,z'

loop_
_atom_site_label
_atom_site_type_symbol
_atom_site_fract_x
_atom_site_fract_y
_atom_site_fract_z
Ce11	Ce1	0.631550	0.143760	0.969000
Ce21	Ce2	0.368450	0.643760	0.531000
Ce31	Ce3	0.368450	0.856240	0.031000
Ce41	Ce4	0.631550	0.356240	0.469000
P11	P1	0.904600	0.025000	0.084040
P21	P2	0.095400	0.525000	0.415960
P31	P3	0.095400	0.975000	0.915960
P41	P4	0.904600	0.475000	0.584040
H11	H1	0.734600	0.979800	0.174800
H21	H2	0.667300	0.094800	0.156400
H31	H3	0.742400	0.114900	0.273100
H41	H4	0.844500	0.001300	0.278800
H51	H5	0.197500	0.062100	0.328700
H61	H6	0.990400	0.104900	0.364600
H71	H7	0.009800	0.267600	0.316100
H81	H8	0.276700	0.301000	0.245300
H91	H9	0.373200	0.186500	0.251800
H101	H10	0.114400	0.199100	0.161000
H111	H11	0.912100	0.239600	0.199600
H121	H12	0.265400	0.479800	0.325200
H131	H13	0.332700	0.594800	0.343600
H141	H14	0.257600	0.614900	0.226900
H151	H15	0.155500	0.501300	0.221200
H161	H16	0.802500	0.562100	0.171300
H171	H17	0.009600	0.604900	0.135400
H181	H18	0.990200	0.767600	0.183900
H191	H19	0.723300	0.801000	0.254700
H201	H20	0.626800	0.686500	0.248200
H211	H21	0.885600	0.699100	0.339000
H221	H22	0.087900	0.739600	0.300400
H231	H23	0.265400	0.020200	0.825200
H241	H24	0.332700	0.905200	0.843600
H251	H25	0.257600	0.885100	0.726900
H261	H26	0.155500	0.998700	0.721200
H271	H27	0.802500	0.937900	0.671300
H281	H28	0.009600	0.895100	0.635400
H291	H29	0.990200	0.732400	0.683900
H301	H30	0.723300	0.699000	0.754700
H311	H31	0.626800	0.813500	0.748200
H321	H32	0.885600	0.800900	0.839000
H331	H33	0.087900	0.760400	0.800400
H341	H34	0.734600	0.520200	0.674800
H351	H35	0.667300	0.405200	0.656400
H361	H36	0.742400	0.385100	0.773100
H371	H37	0.844500	0.498700	0.778800
H381	H38	0.197500	0.437900	0.828700
H391	H39	0.990400	0.395100	0.864600
H401	H40	0.009800	0.232400	0.816100
H411	H41	0.276700	0.199000	0.745300
H421	H42	0.373200	0.313500	0.751800
H431	H43	0.114400	0.300900	0.661000
H441	H44	0.912100	0.260400	0.699600
C11	C1	0.797100	0.045500	0.161100
C21	C2	0.885000	0.073800	0.272400
C31	C3	0.063000	0.108800	0.325700
C41	C4	0.148000	0.221800	0.315900
C51	C5	0.233000	0.229200	0.252900
C61	C6	0.049000	0.194000	0.200800
C71	C7	0.323000	0.256900	0.367000
C81	C8	0.202900	0.545500	0.338900
C91	C9	0.115000	0.573800	0.227600
C101	C10	0.937000	0.608800	0.174300
C111	C11	0.852000	0.721800	0.184100
C121	C12	0.767000	0.729200	0.247100
C131	C13	0.951000	0.694000	0.299200
C141	C14	0.677000	0.756900	0.133000
C151	C15	0.202900	0.954500	0.838900
C161	C16	0.115000	0.926200	0.727600
C171	C17	0.937000	0.891200	0.674300
C181	C18	0.852000	0.778200	0.684100
C191	C19	0.767000	0.770800	0.747100
C201	C20	0.951000	0.806000	0.799200
C211	C21	0.677000	0.743100	0.633000
C221	C22	0.797100	0.454500	0.661100
C231	C23	0.885000	0.426200	0.772400
C241	C24	0.063000	0.391200	0.825700
C251	C25	0.148000	0.278200	0.815900
C261	C26	0.233000	0.270800	0.752900
C271	C27	0.049000	0.306000	0.700800
C281	C28	0.323000	0.243100	0.867000
N11	N1	0.974000	0.084500	0.210900
N21	N2	0.026000	0.584500	0.289100
N31	N3	0.026000	0.915500	0.789100
N41	N4	0.974000	0.415500	0.710900
O11	O1	0.684500	0.981700	0.046000
O21	O2	0.958400	0.129100	0.055000
O31	O3	0.109100	0.952200	0.092100
O41	O4	0.298600	0.235900	0.423200
O51	O5	0.499000	0.311800	0.354900
O61	O6	0.315500	0.481700	0.454000
O71	O7	0.041600	0.629100	0.445000
O81	O8	0.890900	0.452200	0.407900
O91	O9	0.701400	0.735900	0.076800
O101	O10	0.501000	0.811800	0.145100
O111	O11	0.315500	0.018300	0.954000
O121	O12	0.041600	0.870900	0.945000
O131	O13	0.890900	0.047800	0.907900
O141	O14	0.701400	0.764100	0.576800
O151	O15	0.501000	0.688200	0.645100
O161	O16	0.684500	0.518300	0.546000
O171	O17	0.958400	0.370900	0.555000
O181	O18	0.109100	0.547800	0.592100
O191	O19	0.298600	0.264100	0.923200
O201	O20	0.499000	0.188200	0.854900
