data_GAJZAU_clean_PM
_symmetry_space_group_name_H-M	'P1'
_cell_length_a	5.606800
_cell_length_b	13.382000
_cell_length_c	21.192000
_cell_angle_alpha	90.000000
_cell_angle_beta	95.892000
_cell_angle_gamma	90.000000
_symmetry_Int_Tables_number 1

loop_
_symmetry_equiv_pos_as_xyz
'x,y,z'

loop_
_atom_site_label
_atom_site_type_symbol
_atom_site_fract_x
_atom_site_fract_y
_atom_site_fract_z
Pr11	Pr1	0.629690	0.135960	0.971050
Pr21	Pr2	0.370310	0.635960	0.528950
Pr31	Pr3	0.370310	0.864040	0.028950
Pr41	Pr4	0.629690	0.364040	0.471050
P11	P1	0.910400	0.023030	0.086610
P21	P2	0.089600	0.523030	0.413390
P31	P3	0.089600	0.976970	0.913390
P41	P4	0.910400	0.476970	0.586610
H11	H1	0.756900	0.976000	0.179600
H21	H2	0.672700	0.084400	0.161000
H31	H3	0.758000	0.104400	0.279600
H41	H4	0.880300	0.999000	0.285800
H51	H5	0.026300	0.100600	0.370600
H61	H6	0.235700	0.070200	0.330700
H71	H7	0.994800	0.256800	0.321400
H81	H8	0.242500	0.302200	0.245700
H91	H9	0.370400	0.197900	0.251400
H101	H10	0.085500	0.197700	0.161300
H111	H11	0.880900	0.225500	0.203500
H121	H12	0.243100	0.476000	0.320400
H131	H13	0.327300	0.584400	0.339000
H141	H14	0.242000	0.604400	0.220400
H151	H15	0.119700	0.499000	0.214200
H161	H16	0.973700	0.600600	0.129400
H171	H17	0.764300	0.570200	0.169300
H181	H18	0.005200	0.756800	0.178600
H191	H19	0.757500	0.802200	0.254300
H201	H20	0.629600	0.697900	0.248600
H211	H21	0.914500	0.697700	0.338700
H221	H22	0.119100	0.725500	0.296500
H231	H23	0.243100	0.024000	0.820400
H241	H24	0.327300	0.915600	0.839000
H251	H25	0.242000	0.895600	0.720400
H261	H26	0.119700	0.001000	0.714200
H271	H27	0.973700	0.899400	0.629400
H281	H28	0.764300	0.929800	0.669300
H291	H29	0.005200	0.743200	0.678600
H301	H30	0.757500	0.697800	0.754300
H311	H31	0.629600	0.802100	0.748600
H321	H32	0.914500	0.802300	0.838700
H331	H33	0.119100	0.774500	0.796500
H341	H34	0.756900	0.524000	0.679600
H351	H35	0.672700	0.415600	0.661000
H361	H36	0.758000	0.395600	0.779600
H371	H37	0.880300	0.501000	0.785800
H381	H38	0.026300	0.399400	0.870600
H391	H39	0.235700	0.429800	0.830700
H401	H40	0.994800	0.243200	0.821400
H411	H41	0.242500	0.197800	0.745700
H421	H42	0.370400	0.302100	0.751400
H431	H43	0.085500	0.302300	0.661300
H441	H44	0.880900	0.274500	0.703500
C11	C1	0.810500	0.040200	0.165100
C21	C2	0.908600	0.069300	0.278200
C31	C3	0.088800	0.108700	0.329900
C41	C4	0.144500	0.219500	0.319700
C51	C5	0.219000	0.231800	0.253900
C61	C6	0.030000	0.189200	0.202800
C71	C7	0.325700	0.261700	0.370400
C81	C8	0.189500	0.540200	0.334900
C91	C9	0.091400	0.569300	0.221800
C101	C10	0.911200	0.608700	0.170100
C111	C11	0.855500	0.719500	0.180300
C121	C12	0.781000	0.731800	0.246100
C131	C13	0.970000	0.689200	0.297200
C141	C14	0.674300	0.761700	0.129600
C151	C15	0.189500	0.959800	0.834900
C161	C16	0.091400	0.930700	0.721800
C171	C17	0.911200	0.891300	0.670100
C181	C18	0.855500	0.780500	0.680300
C191	C19	0.781000	0.768200	0.746100
C201	C20	0.970000	0.810800	0.797200
C211	C21	0.674300	0.738300	0.629600
C221	C22	0.810500	0.459800	0.665100
C231	C23	0.908600	0.430700	0.778200
C241	C24	0.088800	0.391300	0.829900
C251	C25	0.144500	0.280500	0.819700
C261	C26	0.219000	0.268200	0.753900
C271	C27	0.030000	0.310800	0.702800
C281	C28	0.325700	0.238300	0.870400
N11	N1	0.989700	0.081300	0.214700
N21	N2	0.010300	0.581300	0.285300
N31	N3	0.010300	0.918700	0.785300
N41	N4	0.989700	0.418700	0.714700
O11	O1	0.685700	0.982600	0.047000
O21	O2	0.961600	0.123100	0.057400
O31	O3	0.120100	0.952500	0.092600
O41	O4	0.301900	0.243000	0.428200
O51	O5	0.494900	0.314800	0.356800
O61	O6	0.314300	0.482600	0.453000
O71	O7	0.038400	0.623100	0.442600
O81	O8	0.879900	0.452500	0.407400
O91	O9	0.698100	0.743000	0.071800
O101	O10	0.505100	0.814800	0.143200
O111	O11	0.314300	0.017400	0.953000
O121	O12	0.038400	0.876900	0.942600
O131	O13	0.879900	0.047500	0.907400
O141	O14	0.698100	0.757000	0.571800
O151	O15	0.505100	0.685200	0.643200
O161	O16	0.685700	0.517400	0.547000
O171	O17	0.961600	0.376900	0.557400
O181	O18	0.120100	0.547500	0.592600
O191	O19	0.301900	0.257000	0.928200
O201	O20	0.494900	0.185200	0.856800
