data_GAJZUO_clean_PM
_symmetry_space_group_name_H-M	'P1'
_cell_length_a	5.523400
_cell_length_b	13.349000
_cell_length_c	20.586000
_cell_angle_alpha	90.000000
_cell_angle_beta	95.290000
_cell_angle_gamma	90.000000
_symmetry_Int_Tables_number 1

loop_
_symmetry_equiv_pos_as_xyz
'x,y,z'

loop_
_atom_site_label
_atom_site_type_symbol
_atom_site_fract_x
_atom_site_fract_y
_atom_site_fract_z
Y11	Y1	0.626400	0.131750	0.972100
Y21	Y2	0.373600	0.631750	0.527900
Y31	Y3	0.373600	0.868250	0.027900
Y41	Y4	0.626400	0.368250	0.472100
P11	P1	0.908400	0.020470	0.085100
P21	P2	0.091600	0.520470	0.414900
P31	P3	0.091600	0.979530	0.914900
P41	P4	0.908400	0.479530	0.585100
H11	H1	0.765200	0.971800	0.182600
H21	H2	0.666400	0.078400	0.163200
H31	H3	0.756600	0.104100	0.285400
H41	H4	0.884000	0.999000	0.291100
H51	H5	0.038300	0.102100	0.377500
H61	H6	0.247400	0.073500	0.334200
H71	H7	0.990200	0.257100	0.326000
H81	H8	0.230200	0.307100	0.246100
H91	H9	0.373500	0.205600	0.251300
H101	H10	0.090700	0.198200	0.161200
H111	H11	0.879800	0.226100	0.204000
H121	H12	0.234800	0.471800	0.317400
H131	H13	0.333600	0.578400	0.336800
H141	H14	0.243400	0.604100	0.214600
H151	H15	0.116000	0.499000	0.208900
H161	H16	0.961700	0.602100	0.122500
H171	H17	0.752600	0.573500	0.165800
H181	H18	0.009800	0.757100	0.174000
H191	H19	0.769800	0.807100	0.253900
H201	H20	0.626500	0.705600	0.248700
H211	H21	0.909300	0.698200	0.338800
H221	H22	0.120200	0.726100	0.296000
H231	H23	0.234800	0.028200	0.817400
H241	H24	0.333600	0.921600	0.836800
H251	H25	0.243400	0.895900	0.714600
H261	H26	0.116000	0.001000	0.708900
H271	H27	0.961700	0.897900	0.622500
H281	H28	0.752600	0.926500	0.665800
H291	H29	0.009800	0.742900	0.674000
H301	H30	0.769800	0.692900	0.753900
H311	H31	0.626500	0.794400	0.748700
H321	H32	0.909300	0.801800	0.838800
H331	H33	0.120200	0.773900	0.796000
H341	H34	0.765200	0.528200	0.682600
H351	H35	0.666400	0.421600	0.663200
H361	H36	0.756600	0.395900	0.785400
H371	H37	0.884000	0.501000	0.791100
H381	H38	0.038300	0.397900	0.877500
H391	H39	0.247400	0.426500	0.834200
H401	H40	0.990200	0.242900	0.826000
H411	H41	0.230200	0.192900	0.746100
H421	H42	0.373500	0.294400	0.751300
H431	H43	0.090700	0.301800	0.661200
H441	H44	0.879800	0.273900	0.704000
C11	C1	0.811100	0.036900	0.166600
C21	C2	0.910000	0.069600	0.283000
C31	C3	0.096700	0.110700	0.334900
C41	C4	0.144200	0.221600	0.323200
C51	C5	0.215700	0.236000	0.254700
C61	C6	0.032800	0.190400	0.204000
C71	C7	0.327900	0.266200	0.374900
C81	C8	0.188900	0.536900	0.333400
C91	C9	0.090000	0.569600	0.217000
C101	C10	0.903300	0.610700	0.165100
C111	C11	0.855800	0.721600	0.176800
C121	C12	0.784300	0.736000	0.245300
C131	C13	0.967200	0.690400	0.296000
C141	C14	0.672100	0.766200	0.125100
C151	C15	0.188900	0.963100	0.833400
C161	C16	0.090000	0.930400	0.717000
C171	C17	0.903300	0.889300	0.665100
C181	C18	0.855800	0.778400	0.676800
C191	C19	0.784300	0.764000	0.745300
C201	C20	0.967200	0.809600	0.796000
C211	C21	0.672100	0.733800	0.625100
C221	C22	0.811100	0.463100	0.666600
C231	C23	0.910000	0.430400	0.783000
C241	C24	0.096700	0.389300	0.834900
C251	C25	0.144200	0.278400	0.823200
C261	C26	0.215700	0.264000	0.754700
C271	C27	0.032800	0.309600	0.704000
C281	C28	0.327900	0.233800	0.874900
N11	N1	0.991500	0.082500	0.216400
N21	N2	0.008500	0.582500	0.283600
N31	N3	0.008500	0.917500	0.783600
N41	N4	0.991500	0.417500	0.716400
O11	O1	0.679800	0.979900	0.045500
O21	O2	0.957500	0.121900	0.054100
O31	O3	0.122600	0.950400	0.090700
O41	O4	0.302700	0.248800	0.434200
O51	O5	0.495100	0.321000	0.359400
O61	O6	0.320200	0.479900	0.454500
O71	O7	0.042500	0.621900	0.445900
O81	O8	0.877400	0.450400	0.409300
O91	O9	0.697300	0.748800	0.065800
O101	O10	0.504900	0.821000	0.140600
O111	O11	0.320200	0.020100	0.954500
O121	O12	0.042500	0.878100	0.945900
O131	O13	0.877400	0.049600	0.909300
O141	O14	0.697300	0.751200	0.565800
O151	O15	0.504900	0.679000	0.640600
O161	O16	0.679800	0.520100	0.545500
O171	O17	0.957500	0.378100	0.554100
O181	O18	0.122600	0.549600	0.590700
O191	O19	0.302700	0.251200	0.934200
O201	O20	0.495100	0.179000	0.859400
