data_GAMSOD_clean_PM
_symmetry_space_group_name_H-M	'P1'
_cell_length_a	10.710800
_cell_length_b	13.261600
_cell_length_c	20.792600
_cell_angle_alpha	90.000000
_cell_angle_beta	92.503400
_cell_angle_gamma	90.000000
_symmetry_Int_Tables_number 1

loop_
_symmetry_equiv_pos_as_xyz
'x,y,z'

loop_
_atom_site_label
_atom_site_type_symbol
_atom_site_fract_x
_atom_site_fract_y
_atom_site_fract_z
Ag11	Ag1	0.194700	0.190070	0.069070
Ag21	Ag2	0.098970	0.994140	0.401100
S11	S1	0.956850	0.236400	0.104170
S21	S2	0.023880	0.123820	0.483660
N11	N1	0.183940	0.141700	0.180230
N21	N2	0.139380	0.059430	0.300210
N31	N3	0.713220	0.147240	0.031610
N41	N4	0.753910	0.956940	0.979280
N51	N5	0.028290	0.138050	0.637120
N61	N6	0.197180	0.281500	0.687440
N71	N7	0.965730	0.353920	0.531980
N81	N8	0.196800	0.449820	0.554990
C11	C1	0.253600	0.067100	0.205410
H11	H1	0.319000	0.041000	0.182100
C21	C2	0.231200	0.025250	0.264560
H21	H2	0.278000	0.969500	0.281200
C31	C3	0.069100	0.134670	0.275100
H31	H3	0.002000	0.157600	0.299900
C41	C4	0.089940	0.175210	0.214940
C51	C5	0.008100	0.258120	0.187660
H41	H4	0.937000	0.265300	0.212300
H51	H5	0.055000	0.319000	0.186900
C61	C6	0.873600	0.118330	0.116450
H61	H6	0.815000	0.128800	0.151300
H71	H7	0.930000	0.068100	0.129300
C71	C7	0.802080	0.085960	0.056340
C81	C8	0.824300	0.992300	0.029020
H81	H8	0.887000	0.950500	0.043900
C91	C9	0.662300	0.017250	0.956620
H91	H9	0.611000	0.994000	0.921800
C101	C10	0.643400	0.112940	0.981370
H101	H10	0.586000	0.155400	0.964400
C111	C11	0.012500	0.183030	0.693970
H111	H11	0.948000	0.162700	0.716400
C121	C12	0.095800	0.254710	0.718570
H121	H12	0.082000	0.285100	0.757100
C131	C13	0.213620	0.234340	0.631730
H131	H13	0.286000	0.250800	0.608600
C141	C14	0.130210	0.164190	0.605610
C151	C15	0.153430	0.112710	0.542870
H141	H14	0.160000	0.040500	0.550600
H151	H15	0.232000	0.135900	0.524300
C161	C16	0.053200	0.247490	0.448900
H161	H16	0.984000	0.260700	0.420300
H171	H17	0.128000	0.243500	0.424200
C171	C17	0.066170	0.329300	0.498450
C181	C18	0.180190	0.377820	0.510060
H181	H18	0.253000	0.358400	0.484500
C191	C19	0.096200	0.475130	0.587400
H191	H19	0.105000	0.527400	0.620100
C201	C20	0.981900	0.427150	0.575530
H201	H20	0.914000	0.443000	0.599300
Ag31	Ag3	0.305300	0.690070	0.930930
Ag41	Ag4	0.401030	0.494140	0.598900
S31	S3	0.543150	0.736400	0.895830
S41	S4	0.476120	0.623820	0.516340
N91	N9	0.316060	0.641700	0.819770
N101	N10	0.360620	0.559430	0.699790
N111	N11	0.786780	0.647240	0.968390
N121	N12	0.746090	0.456940	0.020720
N131	N13	0.471710	0.638050	0.362880
N141	N14	0.302820	0.781500	0.312560
N151	N15	0.534270	0.853920	0.468020
N161	N16	0.303200	0.949820	0.445010
C211	C21	0.246400	0.567100	0.794590
H211	H21	0.181000	0.541000	0.817900
C221	C22	0.268800	0.525250	0.735440
H221	H22	0.222000	0.469500	0.718800
C231	C23	0.430900	0.634670	0.724900
H231	H23	0.498000	0.657600	0.700100
C241	C24	0.410060	0.675210	0.785060
C251	C25	0.491900	0.758120	0.812340
H241	H24	0.563000	0.765300	0.787700
H251	H25	0.445000	0.819000	0.813100
C261	C26	0.626400	0.618330	0.883550
H261	H26	0.685000	0.628800	0.848700
H271	H27	0.570000	0.568100	0.870700
C271	C27	0.697920	0.585960	0.943660
C281	C28	0.675700	0.492300	0.970980
H281	H28	0.613000	0.450500	0.956100
C291	C29	0.837700	0.517250	0.043380
H291	H29	0.889000	0.494000	0.078200
C301	C30	0.856600	0.612940	0.018630
H301	H30	0.914000	0.655400	0.035600
C311	C31	0.487500	0.683030	0.306030
H311	H31	0.552000	0.662700	0.283600
C321	C32	0.404200	0.754710	0.281430
H321	H32	0.418000	0.785100	0.242900
C331	C33	0.286380	0.734340	0.368270
H331	H33	0.214000	0.750800	0.391400
C341	C34	0.369790	0.664190	0.394390
C351	C35	0.346570	0.612710	0.457130
H341	H34	0.340000	0.540500	0.449400
H351	H35	0.268000	0.635900	0.475700
C361	C36	0.446800	0.747490	0.551100
H361	H36	0.516000	0.760700	0.579700
H371	H37	0.372000	0.743500	0.575800
C371	C37	0.433830	0.829300	0.501550
C381	C38	0.319810	0.877820	0.489940
H381	H38	0.247000	0.858400	0.515500
C391	C39	0.403800	0.975130	0.412600
H391	H39	0.395000	0.027400	0.379900
C401	C40	0.518100	0.927150	0.424470
H401	H40	0.586000	0.943000	0.400700
Ag51	Ag5	0.805290	0.809930	0.930930
Ag61	Ag6	0.901030	0.005860	0.598900
S51	S5	0.043150	0.763600	0.895830
S61	S6	0.976120	0.876180	0.516340
N171	N17	0.816060	0.858300	0.819770
N181	N18	0.860620	0.940570	0.699790
N191	N19	0.286780	0.852760	0.968390
N201	N20	0.246090	0.043060	0.020720
N211	N21	0.971710	0.861950	0.362880
N221	N22	0.802820	0.718500	0.312560
N231	N23	0.034270	0.646080	0.468020
N241	N24	0.803200	0.550180	0.445010
C411	C41	0.746400	0.932900	0.794590
H411	H41	0.681000	0.959000	0.817900
C421	C42	0.768800	0.974750	0.735440
H421	H42	0.722000	0.030500	0.718800
C431	C43	0.930900	0.865330	0.724900
H431	H43	0.998000	0.842400	0.700100
C441	C44	0.910060	0.824790	0.785060
C451	C45	0.991900	0.741880	0.812340
H441	H44	0.063000	0.734700	0.787700
H451	H45	0.945000	0.681000	0.813100
C461	C46	0.126400	0.881670	0.883550
H461	H46	0.185000	0.871200	0.848700
H471	H47	0.070000	0.931900	0.870700
C471	C47	0.197920	0.914040	0.943660
C481	C48	0.175700	0.007700	0.970980
H481	H48	0.113000	0.049500	0.956100
C491	C49	0.337700	0.982750	0.043380
H491	H49	0.389000	0.006000	0.078200
C501	C50	0.356600	0.887060	0.018630
H501	H50	0.414000	0.844600	0.035600
C511	C51	0.987500	0.816970	0.306030
H511	H51	0.052000	0.837300	0.283600
C521	C52	0.904200	0.745290	0.281430
H521	H52	0.918000	0.714900	0.242900
C531	C53	0.786380	0.765660	0.368270
H531	H53	0.714000	0.749200	0.391400
C541	C54	0.869790	0.835810	0.394390
C551	C55	0.846570	0.887290	0.457130
H541	H54	0.840000	0.959500	0.449400
H551	H55	0.768000	0.864100	0.475700
C561	C56	0.946800	0.752510	0.551100
H561	H56	0.016000	0.739300	0.579700
H571	H57	0.872000	0.756500	0.575800
C571	C57	0.933830	0.670700	0.501550
C581	C58	0.819810	0.622180	0.489940
H581	H58	0.747000	0.641600	0.515500
C591	C59	0.903800	0.524870	0.412600
H591	H59	0.895000	0.472600	0.379900
C601	C60	0.018100	0.572850	0.424470
H601	H60	0.086000	0.557000	0.400700
Ag71	Ag7	0.694700	0.309930	0.069070
Ag81	Ag8	0.598970	0.505860	0.401100
S71	S7	0.456850	0.263600	0.104170
S81	S8	0.523880	0.376180	0.483660
N251	N25	0.683940	0.358300	0.180230
N261	N26	0.639380	0.440570	0.300210
N271	N27	0.213220	0.352760	0.031610
N281	N28	0.253910	0.543060	0.979280
N291	N29	0.528290	0.361950	0.637120
N301	N30	0.697180	0.218500	0.687440
N311	N31	0.465730	0.146080	0.531980
N321	N32	0.696800	0.050180	0.554990
C611	C61	0.753600	0.432900	0.205410
H611	H61	0.819000	0.459000	0.182100
C621	C62	0.731200	0.474750	0.264560
H621	H62	0.778000	0.530500	0.281200
C631	C63	0.569100	0.365330	0.275100
H631	H63	0.502000	0.342400	0.299900
C641	C64	0.589940	0.324790	0.214940
C651	C65	0.508100	0.241880	0.187660
H641	H64	0.437000	0.234700	0.212300
H651	H65	0.555000	0.181000	0.186900
C661	C66	0.373600	0.381670	0.116450
H661	H66	0.315000	0.371200	0.151300
H671	H67	0.430000	0.431900	0.129300
C671	C67	0.302080	0.414040	0.056340
C681	C68	0.324300	0.507700	0.029020
H681	H68	0.387000	0.549500	0.043900
C691	C69	0.162300	0.482750	0.956620
H691	H69	0.111000	0.506000	0.921800
C701	C70	0.143400	0.387060	0.981370
H701	H70	0.086000	0.344600	0.964400
C711	C71	0.512500	0.316970	0.693970
H711	H71	0.448000	0.337300	0.716400
C721	C72	0.595800	0.245290	0.718570
H721	H72	0.582000	0.214900	0.757100
C731	C73	0.713620	0.265660	0.631730
H731	H73	0.786000	0.249200	0.608600
C741	C74	0.630210	0.335810	0.605610
C751	C75	0.653430	0.387290	0.542870
H741	H74	0.660000	0.459500	0.550600
H751	H75	0.732000	0.364100	0.524300
C761	C76	0.553200	0.252510	0.448900
H761	H76	0.484000	0.239300	0.420300
H771	H77	0.628000	0.256500	0.424200
C771	C77	0.566170	0.170700	0.498450
C781	C78	0.680190	0.122180	0.510060
H781	H78	0.753000	0.141600	0.484500
C791	C79	0.596200	0.024870	0.587400
H791	H79	0.605000	0.972600	0.620100
C801	C80	0.481900	0.072850	0.575530
H801	H80	0.414000	0.057000	0.599300
