data_GAMTIY_clean_PM
_symmetry_space_group_name_H-M	'P1'
_cell_length_a	8.541000
_cell_length_b	10.909000
_cell_length_c	11.198000
_cell_angle_alpha	64.153000
_cell_angle_beta	79.902000
_cell_angle_gamma	73.711000
_symmetry_Int_Tables_number 1

loop_
_symmetry_equiv_pos_as_xyz
'x,y,z'

loop_
_atom_site_label
_atom_site_type_symbol
_atom_site_fract_x
_atom_site_fract_y
_atom_site_fract_z
Pr11	Pr1	0.751920	0.497040	0.496580
Pr21	Pr2	0.248080	0.502960	0.503420
H11	H1	0.749600	0.552700	0.977100
H21	H2	0.406800	0.889500	0.987600
H31	H3	0.735600	0.933600	0.675200
H41	H4	0.965700	0.744100	0.684400
H51	H5	0.984400	0.597600	0.811100
H61	H6	0.378500	0.670000	0.144700
H71	H7	0.480500	0.531400	0.126700
H81	H8	0.565300	0.141400	0.705200
H91	H9	0.434100	0.122400	0.828600
H101	H10	0.250400	0.447300	0.022900
H111	H11	0.593200	0.110500	0.012400
H121	H12	0.264400	0.066400	0.324800
H131	H13	0.034300	0.255900	0.315600
H141	H14	0.015600	0.402400	0.188900
H151	H15	0.621500	0.330000	0.855300
H161	H16	0.519500	0.468600	0.873300
H171	H17	0.434700	0.858600	0.294800
H181	H18	0.565900	0.877600	0.171400
C11	C1	0.767600	0.733200	0.815000
C21	C2	0.700900	0.650000	0.937100
C31	C3	0.566300	0.705600	0.000800
C41	C4	0.497600	0.849600	0.943200
C51	C5	0.561300	0.934900	0.821100
C61	C6	0.693300	0.875700	0.759000
C71	C7	0.907500	0.670500	0.744700
C81	C8	0.862100	0.604900	0.663200
C91	C9	0.490400	0.617300	0.131800
C101	C10	0.584800	0.574300	0.253800
C111	C11	0.479800	0.090100	0.756900
C121	C12	0.345800	0.130900	0.666500
C131	C13	0.232400	0.266800	0.185000
C141	C14	0.299100	0.350000	0.062900
C151	C15	0.433700	0.294400	0.999200
C161	C16	0.502400	0.150400	0.056800
C171	C17	0.438700	0.065100	0.178900
C181	C18	0.306700	0.124300	0.241000
C191	C19	0.092500	0.329500	0.255300
C201	C20	0.137900	0.395100	0.336800
C211	C21	0.509600	0.382700	0.868200
C221	C22	0.415200	0.425700	0.746200
C231	C23	0.520200	0.909900	0.243100
C241	C24	0.654200	0.869100	0.333500
O11	O1	0.969500	0.562900	0.588400
O21	O2	0.718000	0.592400	0.673500
O31	O3	0.734500	0.563500	0.244000
O41	O4	0.503300	0.547900	0.366200
O51	O5	0.276000	0.259400	0.615100
O61	O6	0.305400	0.038500	0.650100
O71	O7	0.030500	0.437100	0.411600
O81	O8	0.282000	0.407600	0.326500
O91	O9	0.265500	0.436500	0.756000
O101	O10	0.496700	0.452100	0.633800
O111	O11	0.724000	0.740600	0.384900
O121	O12	0.694600	0.961500	0.349900
