data_GAPDUX_clean_PM
_symmetry_space_group_name_H-M	'P1'
_cell_length_a	12.565000
_cell_length_b	10.594300
_cell_length_c	10.755600
_cell_angle_alpha	90.000000
_cell_angle_beta	90.000000
_cell_angle_gamma	90.000000
_symmetry_Int_Tables_number 1

loop_
_symmetry_equiv_pos_as_xyz
'x,y,z'

loop_
_atom_site_label
_atom_site_type_symbol
_atom_site_fract_x
_atom_site_fract_y
_atom_site_fract_z
C11	C1	0.809400	0.011000	0.647800
C21	C2	0.711900	0.947300	0.694300
H11	H1	0.663900	0.936900	0.624400
H21	H2	0.732100	0.863400	0.721700
C31	C3	0.648600	0.009200	0.800200
O11	O1	0.822700	0.125200	0.650100
O21	O2	0.876600	0.936600	0.599600
O31	O3	0.652600	0.126100	0.817100
O41	O4	0.589500	0.560300	0.861900
C41	C4	0.690600	0.989000	0.147800
C51	C5	0.788100	0.052700	0.194300
H31	H3	0.836100	0.063100	0.124400
H41	H4	0.767900	0.136600	0.221700
C61	C6	0.851400	0.990800	0.300200
O51	O5	0.677300	0.874800	0.150100
O61	O6	0.623400	0.063400	0.099600
O71	O7	0.847400	0.873900	0.317100
O81	O8	0.910500	0.439700	0.361900
C71	C7	0.190600	0.511000	0.352200
C81	C8	0.288100	0.447300	0.305700
H51	H5	0.336100	0.436900	0.375600
H61	H6	0.267900	0.363400	0.278300
C91	C9	0.351400	0.509200	0.199800
O91	O9	0.177300	0.625200	0.349900
O101	O10	0.123400	0.436600	0.400400
O111	O11	0.347400	0.626100	0.182900
O121	O12	0.410500	0.060300	0.138100
C101	C10	0.309400	0.489000	0.852200
C111	C11	0.211900	0.552700	0.805700
H71	H7	0.163900	0.563100	0.875600
H81	H8	0.232100	0.636600	0.778300
C121	C12	0.148600	0.490800	0.699800
O131	O13	0.322700	0.374800	0.849900
O141	O14	0.376600	0.563400	0.900400
O151	O15	0.152600	0.373900	0.682900
O161	O16	0.089500	0.939700	0.638100
C131	C13	0.190600	0.989000	0.352200
C141	C14	0.288100	0.052700	0.305700
H91	H9	0.336100	0.063100	0.375600
H101	H10	0.267900	0.136600	0.278300
C151	C15	0.351400	0.990800	0.199800
O171	O17	0.177300	0.874800	0.349900
O181	O18	0.123400	0.063400	0.400400
O191	O19	0.347400	0.873900	0.182900
O201	O20	0.410500	0.439700	0.138100
C161	C16	0.309400	0.011000	0.852200
C171	C17	0.211900	0.947300	0.805700
H111	H11	0.163900	0.936900	0.875600
H121	H12	0.232100	0.863400	0.778300
C181	C18	0.148600	0.009200	0.699800
O211	O21	0.322700	0.125200	0.849900
O221	O22	0.376600	0.936600	0.900400
O231	O23	0.152600	0.126100	0.682900
O241	O24	0.089500	0.560300	0.638100
C191	C19	0.809400	0.489000	0.647800
C201	C20	0.711900	0.552700	0.694300
H131	H13	0.663900	0.563100	0.624400
H141	H14	0.732100	0.636600	0.721700
C211	C21	0.648600	0.490800	0.800200
O251	O25	0.822700	0.374800	0.650100
O261	O26	0.876600	0.563400	0.599600
O271	O27	0.652600	0.373900	0.817100
O281	O28	0.589500	0.939700	0.861900
C221	C22	0.690600	0.511000	0.147800
C231	C23	0.788100	0.447300	0.194300
H151	H15	0.836100	0.436900	0.124400
H161	H16	0.767900	0.363400	0.221700
C241	C24	0.851400	0.509200	0.300200
O291	O29	0.677300	0.625200	0.150100
O301	O30	0.623400	0.436600	0.099600
O311	O31	0.847400	0.626100	0.317100
O321	O32	0.910500	0.060300	0.361900
Cu11	Cu1	0.736060	0.250000	0.730970
Cu21	Cu2	0.763940	0.750000	0.230970
Cu31	Cu3	0.263940	0.750000	0.269030
Cu41	Cu4	0.236060	0.250000	0.769030
Cu51	Cu5	0.500000	0.000000	0.000000
Cu61	Cu6	0.000000	0.000000	0.500000
Cu71	Cu7	0.500000	0.500000	0.000000
Cu81	Cu8	0.000000	0.500000	0.500000
Na11	Na1	0.980300	0.750000	0.670900
Na21	Na2	0.519700	0.250000	0.170900
Na31	Na3	0.019700	0.250000	0.329100
Na41	Na4	0.480300	0.750000	0.829100
