data_GAQYIH_clean_PM
_symmetry_space_group_name_H-M	'P1'
_cell_length_a	34.606600
_cell_length_b	34.606600
_cell_length_c	34.606600
_cell_angle_alpha	60.000000
_cell_angle_beta	60.000000
_cell_angle_gamma	60.000000
_symmetry_Int_Tables_number 1

loop_
_symmetry_equiv_pos_as_xyz
'x,y,z'

loop_
_atom_site_label
_atom_site_type_symbol
_atom_site_fract_x
_atom_site_fract_y
_atom_site_fract_z
Cd11	Cd1	0.205600	0.705600	0.196630
Cd21	Cd2	0.205600	0.705600	0.892170
Cd31	Cd3	0.696630	0.892170	0.705600
Cd41	Cd4	0.392170	0.196630	0.705600
Cd51	Cd5	0.205600	0.196630	0.892170
Cd61	Cd6	0.205600	0.892170	0.196630
Cd71	Cd7	0.696630	0.705600	0.705600
Cd81	Cd8	0.392170	0.705600	0.705600
Cd91	Cd9	0.205600	0.892170	0.705600
Cd101	Cd10	0.205600	0.196630	0.705600
Cd111	Cd11	0.696630	0.705600	0.892170
Cd121	Cd12	0.392170	0.705600	0.196630
Cd131	Cd13	0.794400	0.294400	0.803370
Cd141	Cd14	0.794400	0.294400	0.107830
Cd151	Cd15	0.607830	0.803370	0.294400
Cd161	Cd16	0.303370	0.107830	0.294400
Cd171	Cd17	0.303370	0.294400	0.107830
Cd181	Cd18	0.607830	0.294400	0.803370
Cd191	Cd19	0.794400	0.803370	0.294400
Cd201	Cd20	0.794400	0.107830	0.294400
Cd211	Cd21	0.607830	0.294400	0.294400
Cd221	Cd22	0.303370	0.294400	0.294400
Cd231	Cd23	0.794400	0.803370	0.107830
Cd241	Cd24	0.794400	0.107830	0.803370
Cd251	Cd25	0.000000	0.689640	0.310360
Cd261	Cd26	0.189640	0.500000	0.000000
Cd271	Cd27	0.810360	0.000000	0.500000
Cd281	Cd28	0.500000	0.310360	0.689640
Cd291	Cd29	0.000000	0.310360	0.000000
Cd301	Cd30	0.189640	0.000000	0.310360
Cd311	Cd31	0.810360	0.500000	0.689640
Cd321	Cd32	0.500000	0.689640	0.500000
Cd331	Cd33	0.000000	0.000000	0.689640
Cd341	Cd34	0.189640	0.310360	0.500000
Cd351	Cd35	0.810360	0.689640	0.000000
Cd361	Cd36	0.500000	0.500000	0.310360
Cd371	Cd37	0.000000	0.310360	0.689640
Cd381	Cd38	0.810360	0.500000	0.000000
Cd391	Cd39	0.189640	0.000000	0.500000
Cd401	Cd40	0.500000	0.689640	0.310360
Cd411	Cd41	0.000000	0.689640	0.000000
Cd421	Cd42	0.810360	0.000000	0.689640
Cd431	Cd43	0.189640	0.500000	0.310360
Cd441	Cd44	0.500000	0.310360	0.500000
Cd451	Cd45	0.000000	0.000000	0.310360
Cd461	Cd46	0.810360	0.689640	0.500000
Cd471	Cd47	0.189640	0.310360	0.000000
Cd481	Cd48	0.500000	0.500000	0.689640
H11	H1	0.291300	0.745700	0.103900
H21	H2	0.144900	0.690500	0.154700
H31	H3	0.095300	0.711500	0.229900
H41	H4	0.109000	0.681200	0.276000
H51	H5	0.061900	0.633700	0.227500
H61	H6	0.070200	0.682600	0.200200
H71	H7	0.245700	0.791300	0.859100
H81	H8	0.190500	0.644900	0.009900
H91	H9	0.211500	0.595300	0.963300
H101	H10	0.181200	0.609000	0.933800
H111	H11	0.133700	0.561900	0.076900
H121	H12	0.182600	0.570200	0.047000
H131	H13	0.603900	0.859100	0.791300
H141	H14	0.654700	0.009900	0.644900
H151	H15	0.729900	0.963300	0.595300
H161	H16	0.776000	0.933800	0.609000
H171	H17	0.727500	0.076900	0.561900
H181	H18	0.700200	0.047000	0.570200
H191	H19	0.359100	0.103900	0.745700
H201	H20	0.509900	0.154700	0.690500
H211	H21	0.463300	0.229900	0.711500
H221	H22	0.433800	0.276000	0.681200
H231	H23	0.576900	0.227500	0.633700
H241	H24	0.547000	0.200200	0.682600
H251	H25	0.291300	0.103900	0.859100
H261	H26	0.144900	0.154700	0.009900
H271	H27	0.095300	0.229900	0.963300
H281	H28	0.109000	0.276000	0.933800
H291	H29	0.061900	0.227500	0.076900
H301	H30	0.070200	0.200200	0.047000
H311	H31	0.245700	0.859100	0.103900
H321	H32	0.190500	0.009900	0.154700
H331	H33	0.211500	0.963300	0.229900
H341	H34	0.181200	0.933800	0.276000
H351	H35	0.133700	0.076900	0.227500
H361	H36	0.182600	0.047000	0.200200
H371	H37	0.603900	0.791300	0.745700
H381	H38	0.654700	0.644900	0.690500
H391	H39	0.729900	0.595300	0.711500
H401	H40	0.776000	0.609000	0.681200
H411	H41	0.727500	0.561900	0.633700
H421	H42	0.700200	0.570200	0.682600
H431	H43	0.359100	0.745700	0.791300
H441	H44	0.509900	0.690500	0.644900
H451	H45	0.463300	0.711500	0.595300
H461	H46	0.433800	0.681200	0.609000
H471	H47	0.576900	0.633700	0.561900
H481	H48	0.547000	0.682600	0.570200
H491	H49	0.291300	0.859100	0.745700
H501	H50	0.144900	0.009900	0.690500
H511	H51	0.095300	0.963300	0.711500
H521	H52	0.109000	0.933800	0.681200
H531	H53	0.061900	0.076900	0.633700
H541	H54	0.070200	0.047000	0.682600
H551	H55	0.245700	0.103900	0.791300
H561	H56	0.190500	0.154700	0.644900
H571	H57	0.211500	0.229900	0.595300
H581	H58	0.181200	0.276000	0.609000
H591	H59	0.133700	0.227500	0.561900
H601	H60	0.182600	0.200200	0.570200
H611	H61	0.603900	0.745700	0.859100
H621	H62	0.654700	0.690500	0.009900
H631	H63	0.729900	0.711500	0.963300
H641	H64	0.776000	0.681200	0.933800
H651	H65	0.727500	0.633700	0.076900
H661	H66	0.700200	0.682600	0.047000
H671	H67	0.359100	0.791300	0.103900
H681	H68	0.509900	0.644900	0.154700
H691	H69	0.463300	0.595300	0.229900
H701	H70	0.433800	0.609000	0.276000
H711	H71	0.576900	0.561900	0.227500
H721	H72	0.547000	0.570200	0.200200
H731	H73	0.754300	0.208700	0.896100
H741	H74	0.809500	0.355100	0.845300
H751	H75	0.788500	0.404700	0.770100
H761	H76	0.818800	0.391000	0.724000
H771	H77	0.866300	0.438100	0.772500
H781	H78	0.817400	0.429800	0.799800
H791	H79	0.708700	0.254300	0.140900
H801	H80	0.855100	0.309500	0.990100
H811	H81	0.904700	0.288500	0.036700
H821	H82	0.891000	0.318800	0.066200
H831	H83	0.938100	0.366300	0.923100
H841	H84	0.929800	0.317400	0.953000
H851	H85	0.640900	0.896100	0.208700
H861	H86	0.490100	0.845300	0.355100
H871	H87	0.536700	0.770100	0.404700
H881	H88	0.566200	0.724000	0.391000
H891	H89	0.423100	0.772500	0.438100
H901	H90	0.453000	0.799800	0.429800
H911	H91	0.396100	0.140900	0.254300
H921	H92	0.345300	0.990100	0.309500
H931	H93	0.270100	0.036700	0.288500
H941	H94	0.224000	0.066200	0.318800
H951	H95	0.272500	0.923100	0.366300
H961	H96	0.299800	0.953000	0.317400
H971	H97	0.396100	0.208700	0.140900
H981	H98	0.345300	0.355100	0.990100
H991	H99	0.270100	0.404700	0.036700
H1001	H100	0.224000	0.391000	0.066200
H1011	H101	0.272500	0.438100	0.923100
H1021	H102	0.299800	0.429800	0.953000
H1031	H103	0.640900	0.254300	0.896100
H1041	H104	0.490100	0.309500	0.845300
H1051	H105	0.536700	0.288500	0.770100
H1061	H106	0.566200	0.318800	0.724000
H1071	H107	0.423100	0.366300	0.772500
H1081	H108	0.453000	0.317400	0.799800
H1091	H109	0.708700	0.896100	0.254300
H1101	H110	0.855100	0.845300	0.309500
H1111	H111	0.904700	0.770100	0.288500
H1121	H112	0.891000	0.724000	0.318800
H1131	H113	0.938100	0.772500	0.366300
H1141	H114	0.929800	0.799800	0.317400
H1151	H115	0.754300	0.140900	0.208700
H1161	H116	0.809500	0.990100	0.355100
H1171	H117	0.788500	0.036700	0.404700
H1181	H118	0.818800	0.066200	0.391000
H1191	H119	0.866300	0.923100	0.438100
H1201	H120	0.817400	0.953000	0.429800
H1211	H121	0.640900	0.208700	0.254300
H1221	H122	0.490100	0.355100	0.309500
H1231	H123	0.536700	0.404700	0.288500
H1241	H124	0.566200	0.391000	0.318800
H1251	H125	0.423100	0.438100	0.366300
H1261	H126	0.453000	0.429800	0.317400
H1271	H127	0.396100	0.254300	0.208700
H1281	H128	0.345300	0.309500	0.355100
H1291	H129	0.270100	0.288500	0.404700
H1301	H130	0.224000	0.318800	0.391000
H1311	H131	0.272500	0.366300	0.438100
H1321	H132	0.299800	0.317400	0.429800
H1331	H133	0.754300	0.896100	0.140900
H1341	H134	0.809500	0.845300	0.990100
H1351	H135	0.788500	0.770100	0.036700
H1361	H136	0.818800	0.724000	0.066200
H1371	H137	0.866300	0.772500	0.923100
H1381	H138	0.817400	0.799800	0.953000
H1391	H139	0.708700	0.140900	0.896100
H1401	H140	0.855100	0.990100	0.845300
H1411	H141	0.904700	0.036700	0.770100
H1421	H142	0.891000	0.066200	0.724000
H1431	H143	0.938100	0.923100	0.772500
H1441	H144	0.929800	0.953000	0.799800
H1451	H145	0.708700	0.254300	0.896100
H1461	H146	0.855100	0.309500	0.845300
H1471	H147	0.904700	0.288500	0.770100
H1481	H148	0.891000	0.318800	0.724000
H1491	H149	0.938100	0.366300	0.772500
H1501	H150	0.929800	0.317400	0.799800
H1511	H151	0.754300	0.208700	0.140900
H1521	H152	0.809500	0.355100	0.990100
H1531	H153	0.788500	0.404700	0.036700
H1541	H154	0.818800	0.391000	0.066200
H1551	H155	0.866300	0.438100	0.923100
H1561	H156	0.817400	0.429800	0.953000
H1571	H157	0.396100	0.140900	0.208700
H1581	H158	0.345300	0.990100	0.355100
H1591	H159	0.270100	0.036700	0.404700
H1601	H160	0.224000	0.066200	0.391000
H1611	H161	0.272500	0.923100	0.438100
H1621	H162	0.299800	0.953000	0.429800
H1631	H163	0.640900	0.896100	0.254300
H1641	H164	0.490100	0.845300	0.309500
H1651	H165	0.536700	0.770100	0.288500
H1661	H166	0.566200	0.724000	0.318800
H1671	H167	0.423100	0.772500	0.366300
H1681	H168	0.453000	0.799800	0.317400
H1691	H169	0.708700	0.896100	0.140900
H1701	H170	0.855100	0.845300	0.990100
H1711	H171	0.904700	0.770100	0.036700
H1721	H172	0.891000	0.724000	0.066200
H1731	H173	0.938100	0.772500	0.923100
H1741	H174	0.929800	0.799800	0.953000
H1751	H175	0.754300	0.140900	0.896100
H1761	H176	0.809500	0.990100	0.845300
H1771	H177	0.788500	0.036700	0.770100
H1781	H178	0.818800	0.066200	0.724000
H1791	H179	0.866300	0.923100	0.772500
H1801	H180	0.817400	0.953000	0.799800
H1811	H181	0.396100	0.208700	0.254300
H1821	H182	0.345300	0.355100	0.309500
H1831	H183	0.270100	0.404700	0.288500
H1841	H184	0.224000	0.391000	0.318800
H1851	H185	0.272500	0.438100	0.366300
H1861	H186	0.299800	0.429800	0.317400
H1871	H187	0.640900	0.254300	0.208700
H1881	H188	0.490100	0.309500	0.355100
H1891	H189	0.536700	0.288500	0.404700
H1901	H190	0.566200	0.318800	0.391000
H1911	H191	0.423100	0.366300	0.438100
H1921	H192	0.453000	0.317400	0.429800
H1931	H193	0.708700	0.140900	0.254300
H1941	H194	0.855100	0.990100	0.309500
H1951	H195	0.904700	0.036700	0.288500
H1961	H196	0.891000	0.066200	0.318800
H1971	H197	0.938100	0.923100	0.366300
H1981	H198	0.929800	0.953000	0.317400
H1991	H199	0.754300	0.896100	0.208700
H2001	H200	0.809500	0.845300	0.355100
H2011	H201	0.788500	0.770100	0.404700
H2021	H202	0.818800	0.724000	0.391000
H2031	H203	0.866300	0.772500	0.438100
H2041	H204	0.817400	0.799800	0.429800
H2051	H205	0.396100	0.254300	0.140900
H2061	H206	0.345300	0.309500	0.990100
H2071	H207	0.270100	0.288500	0.036700
H2081	H208	0.224000	0.318800	0.066200
H2091	H209	0.272500	0.366300	0.923100
H2101	H210	0.299800	0.317400	0.953000
H2111	H211	0.640900	0.208700	0.896100
H2121	H212	0.490100	0.355100	0.845300
H2131	H213	0.536700	0.404700	0.770100
H2141	H214	0.566200	0.391000	0.724000
H2151	H215	0.423100	0.438100	0.772500
H2161	H216	0.453000	0.429800	0.799800
H2171	H217	0.245700	0.791300	0.103900
H2181	H218	0.190500	0.644900	0.154700
H2191	H219	0.211500	0.595300	0.229900
H2201	H220	0.181200	0.609000	0.276000
H2211	H221	0.133700	0.561900	0.227500
H2221	H222	0.182600	0.570200	0.200200
H2231	H223	0.291300	0.745700	0.859100
H2241	H224	0.144900	0.690500	0.009900
H2251	H225	0.095300	0.711500	0.963300
H2261	H226	0.109000	0.681200	0.933800
H2271	H227	0.061900	0.633700	0.076900
H2281	H228	0.070200	0.682600	0.047000
H2291	H229	0.359100	0.103900	0.791300
H2301	H230	0.509900	0.154700	0.644900
H2311	H231	0.463300	0.229900	0.595300
H2321	H232	0.433800	0.276000	0.609000
H2331	H233	0.576900	0.227500	0.561900
H2341	H234	0.547000	0.200200	0.570200
H2351	H235	0.603900	0.859100	0.745700
H2361	H236	0.654700	0.009900	0.690500
H2371	H237	0.729900	0.963300	0.711500
H2381	H238	0.776000	0.933800	0.681200
H2391	H239	0.727500	0.076900	0.633700
H2401	H240	0.700200	0.047000	0.682600
H2411	H241	0.603900	0.791300	0.859100
H2421	H242	0.654700	0.644900	0.009900
H2431	H243	0.729900	0.595300	0.963300
H2441	H244	0.776000	0.609000	0.933800
H2451	H245	0.727500	0.561900	0.076900
H2461	H246	0.700200	0.570200	0.047000
H2471	H247	0.359100	0.745700	0.103900
H2481	H248	0.509900	0.690500	0.154700
H2491	H249	0.463300	0.711500	0.229900
H2501	H250	0.433800	0.681200	0.276000
H2511	H251	0.576900	0.633700	0.227500
H2521	H252	0.547000	0.682600	0.200200
H2531	H253	0.291300	0.103900	0.745700
H2541	H254	0.144900	0.154700	0.690500
H2551	H255	0.095300	0.229900	0.711500
H2561	H256	0.109000	0.276000	0.681200
H2571	H257	0.061900	0.227500	0.633700
H2581	H258	0.070200	0.200200	0.682600
H2591	H259	0.245700	0.859100	0.791300
H2601	H260	0.190500	0.009900	0.644900
H2611	H261	0.211500	0.963300	0.595300
H2621	H262	0.181200	0.933800	0.609000
H2631	H263	0.133700	0.076900	0.561900
H2641	H264	0.182600	0.047000	0.570200
H2651	H265	0.359100	0.791300	0.745700
H2661	H266	0.509900	0.644900	0.690500
H2671	H267	0.463300	0.595300	0.711500
H2681	H268	0.433800	0.609000	0.681200
H2691	H269	0.576900	0.561900	0.633700
H2701	H270	0.547000	0.570200	0.682600
H2711	H271	0.603900	0.745700	0.791300
H2721	H272	0.654700	0.690500	0.644900
H2731	H273	0.729900	0.711500	0.595300
H2741	H274	0.776000	0.681200	0.609000
H2751	H275	0.727500	0.633700	0.561900
H2761	H276	0.700200	0.682600	0.570200
H2771	H277	0.245700	0.103900	0.859100
H2781	H278	0.190500	0.154700	0.009900
H2791	H279	0.211500	0.229900	0.963300
H2801	H280	0.181200	0.276000	0.933800
H2811	H281	0.133700	0.227500	0.076900
H2821	H282	0.182600	0.200200	0.047000
H2831	H283	0.291300	0.859100	0.103900
H2841	H284	0.144900	0.009900	0.154700
H2851	H285	0.095300	0.963300	0.229900
H2861	H286	0.109000	0.933800	0.276000
H2871	H287	0.061900	0.076900	0.227500
H2881	H288	0.070200	0.047000	0.200200
H2891	H289	0.082300	0.582300	0.306100
H2901	H290	0.102600	0.602600	0.320800
H2911	H291	0.082300	0.582300	0.029300
H2921	H292	0.102600	0.602600	0.974000
H2931	H293	0.806100	0.029300	0.582300
H2941	H294	0.820800	0.974000	0.602600
H2951	H295	0.529300	0.306100	0.582300
H2961	H296	0.474000	0.320800	0.602600
H2971	H297	0.082300	0.306100	0.029300
H2981	H298	0.102600	0.320800	0.974000
H2991	H299	0.082300	0.029300	0.306100
H3001	H300	0.102600	0.974000	0.320800
H3011	H301	0.806100	0.582300	0.582300
H3021	H302	0.820800	0.602600	0.602600
H3031	H303	0.529300	0.582300	0.582300
H3041	H304	0.474000	0.602600	0.602600
H3051	H305	0.082300	0.029300	0.582300
H3061	H306	0.102600	0.974000	0.602600
H3071	H307	0.082300	0.306100	0.582300
H3081	H308	0.102600	0.320800	0.602600
H3091	H309	0.806100	0.582300	0.029300
H3101	H310	0.820800	0.602600	0.974000
H3111	H311	0.529300	0.582300	0.306100
H3121	H312	0.474000	0.602600	0.320800
H3131	H313	0.917700	0.417700	0.693900
H3141	H314	0.897400	0.397400	0.679200
H3151	H315	0.917700	0.417700	0.970700
H3161	H316	0.897400	0.397400	0.026000
H3171	H317	0.470700	0.693900	0.417700
H3181	H318	0.526000	0.679200	0.397400
H3191	H319	0.193900	0.970700	0.417700
H3201	H320	0.179200	0.026000	0.397400
H3211	H321	0.193900	0.417700	0.970700
H3221	H322	0.179200	0.397400	0.026000
H3231	H323	0.470700	0.417700	0.693900
H3241	H324	0.526000	0.397400	0.679200
H3251	H325	0.917700	0.693900	0.417700
H3261	H326	0.897400	0.679200	0.397400
H3271	H327	0.917700	0.970700	0.417700
H3281	H328	0.897400	0.026000	0.397400
H3291	H329	0.470700	0.417700	0.417700
H3301	H330	0.526000	0.397400	0.397400
H3311	H331	0.193900	0.417700	0.417700
H3321	H332	0.179200	0.397400	0.397400
H3331	H333	0.917700	0.693900	0.970700
H3341	H334	0.897400	0.679200	0.026000
H3351	H335	0.917700	0.970700	0.693900
H3361	H336	0.897400	0.026000	0.679200
H3371	H337	0.314100	0.694700	0.177100
H3381	H338	0.283500	0.710700	0.222300
H3391	H339	0.194700	0.814100	0.814100
H3401	H340	0.210700	0.783500	0.783500
H3411	H341	0.677100	0.814100	0.814100
H3421	H342	0.722300	0.783500	0.783500
H3431	H343	0.314100	0.177100	0.694700
H3441	H344	0.283500	0.222300	0.710700
H3451	H345	0.314100	0.177100	0.814100
H3461	H346	0.283500	0.222300	0.783500
H3471	H347	0.194700	0.814100	0.177100
H3481	H348	0.210700	0.783500	0.222300
H3491	H349	0.677100	0.814100	0.694700
H3501	H350	0.722300	0.783500	0.710700
H3511	H351	0.314100	0.694700	0.814100
H3521	H352	0.283500	0.710700	0.783500
H3531	H353	0.314100	0.814100	0.694700
H3541	H354	0.283500	0.783500	0.710700
H3551	H355	0.194700	0.177100	0.814100
H3561	H356	0.210700	0.222300	0.783500
H3571	H357	0.677100	0.694700	0.814100
H3581	H358	0.722300	0.710700	0.783500
H3591	H359	0.314100	0.814100	0.177100
H3601	H360	0.283500	0.783500	0.222300
H3611	H361	0.805300	0.185900	0.822900
H3621	H362	0.789300	0.216500	0.777700
H3631	H363	0.685900	0.305300	0.185900
H3641	H364	0.716500	0.289300	0.216500
H3651	H365	0.685900	0.822900	0.185900
H3661	H366	0.716500	0.777700	0.216500
H3671	H367	0.322900	0.185900	0.305300
H3681	H368	0.277700	0.216500	0.289300
H3691	H369	0.322900	0.185900	0.185900
H3701	H370	0.277700	0.216500	0.216500
H3711	H371	0.685900	0.305300	0.822900
H3721	H372	0.716500	0.289300	0.777700
H3731	H373	0.685900	0.822900	0.305300
H3741	H374	0.716500	0.777700	0.289300
H3751	H375	0.805300	0.185900	0.185900
H3761	H376	0.789300	0.216500	0.216500
H3771	H377	0.685900	0.185900	0.305300
H3781	H378	0.716500	0.216500	0.289300
H3791	H379	0.322900	0.305300	0.185900
H3801	H380	0.277700	0.289300	0.216500
H3811	H381	0.805300	0.822900	0.185900
H3821	H382	0.789300	0.777700	0.216500
H3831	H383	0.685900	0.185900	0.822900
H3841	H384	0.716500	0.216500	0.777700
C11	C1	0.109280	0.679600	0.248720
C21	C2	0.081920	0.650280	0.219720
C31	C3	0.179600	0.609280	0.962400
C41	C4	0.150280	0.581920	0.048080
C51	C5	0.748720	0.962400	0.609280
C61	C6	0.719720	0.048080	0.581920
C71	C7	0.462400	0.248720	0.679600
C81	C8	0.548080	0.219720	0.650280
C91	C9	0.109280	0.248720	0.962400
C101	C10	0.081920	0.219720	0.048080
C111	C11	0.179600	0.962400	0.248720
C121	C12	0.150280	0.048080	0.219720
C131	C13	0.748720	0.609280	0.679600
C141	C14	0.719720	0.581920	0.650280
C151	C15	0.462400	0.679600	0.609280
C161	C16	0.548080	0.650280	0.581920
C171	C17	0.109280	0.962400	0.679600
C181	C18	0.081920	0.048080	0.650280
C191	C19	0.179600	0.248720	0.609280
C201	C20	0.150280	0.219720	0.581920
C211	C21	0.748720	0.679600	0.962400
C221	C22	0.719720	0.650280	0.048080
C231	C23	0.462400	0.609280	0.248720
C241	C24	0.548080	0.581920	0.219720
C251	C25	0.820400	0.390720	0.751280
C261	C26	0.849720	0.418080	0.780280
C271	C27	0.890720	0.320400	0.037600
C281	C28	0.918080	0.349720	0.951920
C291	C29	0.537600	0.751280	0.390720
C301	C30	0.451920	0.780280	0.418080
C311	C31	0.251280	0.037600	0.320400
C321	C32	0.280280	0.951920	0.349720
C331	C33	0.251280	0.390720	0.037600
C341	C34	0.280280	0.418080	0.951920
C351	C35	0.537600	0.320400	0.751280
C361	C36	0.451920	0.349720	0.780280
C371	C37	0.890720	0.751280	0.320400
C381	C38	0.918080	0.780280	0.349720
C391	C39	0.820400	0.037600	0.390720
C401	C40	0.849720	0.951920	0.418080
C411	C41	0.537600	0.390720	0.320400
C421	C42	0.451920	0.418080	0.349720
C431	C43	0.251280	0.320400	0.390720
C441	C44	0.280280	0.349720	0.418080
C451	C45	0.820400	0.751280	0.037600
C461	C46	0.849720	0.780280	0.951920
C471	C47	0.890720	0.037600	0.751280
C481	C48	0.918080	0.951920	0.780280
C491	C49	0.890720	0.320400	0.751280
C501	C50	0.918080	0.349720	0.780280
C511	C51	0.820400	0.390720	0.037600
C521	C52	0.849720	0.418080	0.951920
C531	C53	0.251280	0.037600	0.390720
C541	C54	0.280280	0.951920	0.418080
C551	C55	0.537600	0.751280	0.320400
C561	C56	0.451920	0.780280	0.349720
C571	C57	0.890720	0.751280	0.037600
C581	C58	0.918080	0.780280	0.951920
C591	C59	0.820400	0.037600	0.751280
C601	C60	0.849720	0.951920	0.780280
C611	C61	0.251280	0.390720	0.320400
C621	C62	0.280280	0.418080	0.349720
C631	C63	0.537600	0.320400	0.390720
C641	C64	0.451920	0.349720	0.418080
C651	C65	0.890720	0.037600	0.320400
C661	C66	0.918080	0.951920	0.349720
C671	C67	0.820400	0.751280	0.390720
C681	C68	0.849720	0.780280	0.418080
C691	C69	0.251280	0.320400	0.037600
C701	C70	0.280280	0.349720	0.951920
C711	C71	0.537600	0.390720	0.751280
C721	C72	0.451920	0.418080	0.780280
C731	C73	0.179600	0.609280	0.248720
C741	C74	0.150280	0.581920	0.219720
C751	C75	0.109280	0.679600	0.962400
C761	C76	0.081920	0.650280	0.048080
C771	C77	0.462400	0.248720	0.609280
C781	C78	0.548080	0.219720	0.581920
C791	C79	0.748720	0.962400	0.679600
C801	C80	0.719720	0.048080	0.650280
C811	C81	0.748720	0.609280	0.962400
C821	C82	0.719720	0.581920	0.048080
C831	C83	0.462400	0.679600	0.248720
C841	C84	0.548080	0.650280	0.219720
C851	C85	0.109280	0.248720	0.679600
C861	C86	0.081920	0.219720	0.650280
C871	C87	0.179600	0.962400	0.609280
C881	C88	0.150280	0.048080	0.581920
C891	C89	0.462400	0.609280	0.679600
C901	C90	0.548080	0.581920	0.650280
C911	C91	0.748720	0.679600	0.609280
C921	C92	0.719720	0.650280	0.581920
C931	C93	0.179600	0.248720	0.962400
C941	C94	0.150280	0.219720	0.048080
C951	C95	0.109280	0.962400	0.248720
C961	C96	0.081920	0.048080	0.219720
C971	C97	0.271900	0.771900	0.116100
C981	C98	0.158700	0.658700	0.173900
C991	C99	0.101430	0.601430	0.294050
C1001	C100	0.271900	0.771900	0.840100
C1011	C101	0.158700	0.658700	0.008700
C1021	C102	0.101430	0.601430	0.003090
C1031	C103	0.616100	0.840100	0.771900
C1041	C104	0.673900	0.008700	0.658700
C1051	C105	0.794050	0.003090	0.601430
C1061	C106	0.340100	0.116100	0.771900
C1071	C107	0.508700	0.173900	0.658700
C1081	C108	0.503090	0.294050	0.601430
C1091	C109	0.271900	0.116100	0.840100
C1101	C110	0.158700	0.173900	0.008700
C1111	C111	0.101430	0.294050	0.003090
C1121	C112	0.271900	0.840100	0.116100
C1131	C113	0.158700	0.008700	0.173900
C1141	C114	0.101430	0.003090	0.294050
C1151	C115	0.616100	0.771900	0.771900
C1161	C116	0.673900	0.658700	0.658700
C1171	C117	0.794050	0.601430	0.601430
C1181	C118	0.340100	0.771900	0.771900
C1191	C119	0.508700	0.658700	0.658700
C1201	C120	0.503090	0.601430	0.601430
C1211	C121	0.271900	0.840100	0.771900
C1221	C122	0.158700	0.008700	0.658700
C1231	C123	0.101430	0.003090	0.601430
C1241	C124	0.271900	0.116100	0.771900
C1251	C125	0.158700	0.173900	0.658700
C1261	C126	0.101430	0.294050	0.601430
C1271	C127	0.616100	0.771900	0.840100
C1281	C128	0.673900	0.658700	0.008700
C1291	C129	0.794050	0.601430	0.003090
C1301	C130	0.340100	0.771900	0.116100
C1311	C131	0.508700	0.658700	0.173900
C1321	C132	0.503090	0.601430	0.294050
C1331	C133	0.728100	0.228100	0.883900
C1341	C134	0.841300	0.341300	0.826100
C1351	C135	0.898570	0.398570	0.705950
C1361	C136	0.728100	0.228100	0.159900
C1371	C137	0.841300	0.341300	0.991300
C1381	C138	0.898570	0.398570	0.996910
C1391	C139	0.659900	0.883900	0.228100
C1401	C140	0.491300	0.826100	0.341300
C1411	C141	0.496910	0.705950	0.398570
C1421	C142	0.383900	0.159900	0.228100
C1431	C143	0.326100	0.991300	0.341300
C1441	C144	0.205950	0.996910	0.398570
C1451	C145	0.383900	0.228100	0.159900
C1461	C146	0.326100	0.341300	0.991300
C1471	C147	0.205950	0.398570	0.996910
C1481	C148	0.659900	0.228100	0.883900
C1491	C149	0.491300	0.341300	0.826100
C1501	C150	0.496910	0.398570	0.705950
C1511	C151	0.728100	0.883900	0.228100
C1521	C152	0.841300	0.826100	0.341300
C1531	C153	0.898570	0.705950	0.398570
C1541	C154	0.728100	0.159900	0.228100
C1551	C155	0.841300	0.991300	0.341300
C1561	C156	0.898570	0.996910	0.398570
C1571	C157	0.659900	0.228100	0.228100
C1581	C158	0.491300	0.341300	0.341300
C1591	C159	0.496910	0.398570	0.398570
C1601	C160	0.383900	0.228100	0.228100
C1611	C161	0.326100	0.341300	0.341300
C1621	C162	0.205950	0.398570	0.398570
C1631	C163	0.728100	0.883900	0.159900
C1641	C164	0.841300	0.826100	0.991300
C1651	C165	0.898570	0.705950	0.996910
C1661	C166	0.728100	0.159900	0.883900
C1671	C167	0.841300	0.991300	0.826100
C1681	C168	0.898570	0.996910	0.705950
C1691	C169	0.295100	0.721880	0.187920
C1701	C170	0.221880	0.795100	0.795100
C1711	C171	0.687920	0.795100	0.795100
C1721	C172	0.295100	0.187920	0.721880
C1731	C173	0.295100	0.187920	0.795100
C1741	C174	0.221880	0.795100	0.187920
C1751	C175	0.687920	0.795100	0.721880
C1761	C176	0.295100	0.721880	0.795100
C1771	C177	0.295100	0.795100	0.721880
C1781	C178	0.221880	0.187920	0.795100
C1791	C179	0.687920	0.721880	0.795100
C1801	C180	0.295100	0.795100	0.187920
C1811	C181	0.778120	0.204900	0.812080
C1821	C182	0.704900	0.278120	0.204900
C1831	C183	0.704900	0.812080	0.204900
C1841	C184	0.312080	0.204900	0.278120
C1851	C185	0.312080	0.204900	0.204900
C1861	C186	0.704900	0.278120	0.812080
C1871	C187	0.704900	0.812080	0.278120
C1881	C188	0.778120	0.204900	0.204900
C1891	C189	0.704900	0.204900	0.278120
C1901	C190	0.312080	0.278120	0.204900
C1911	C191	0.778120	0.812080	0.204900
C1921	C192	0.704900	0.204900	0.812080
N11	N1	0.079460	0.649900	0.265480
N21	N2	0.149900	0.579460	0.005160
N31	N3	0.765480	0.005160	0.579460
N41	N4	0.505160	0.265480	0.649900
N51	N5	0.079460	0.265480	0.005160
N61	N6	0.149900	0.005160	0.265480
N71	N7	0.765480	0.579460	0.649900
N81	N8	0.505160	0.649900	0.579460
N91	N9	0.079460	0.005160	0.649900
N101	N10	0.149900	0.265480	0.579460
N111	N11	0.765480	0.649900	0.005160
N121	N12	0.505160	0.579460	0.265480
N131	N13	0.850100	0.420540	0.734520
N141	N14	0.920540	0.350100	0.994840
N151	N15	0.494840	0.734520	0.420540
N161	N16	0.234520	0.994840	0.350100
N171	N17	0.234520	0.420540	0.994840
N181	N18	0.494840	0.350100	0.734520
N191	N19	0.920540	0.734520	0.350100
N201	N20	0.850100	0.994840	0.420540
N211	N21	0.494840	0.420540	0.350100
N221	N22	0.234520	0.350100	0.420540
N231	N23	0.850100	0.734520	0.994840
N241	N24	0.920540	0.994840	0.734520
N251	N25	0.920540	0.350100	0.734520
N261	N26	0.850100	0.420540	0.994840
N271	N27	0.234520	0.994840	0.420540
N281	N28	0.494840	0.734520	0.350100
N291	N29	0.920540	0.734520	0.994840
N301	N30	0.850100	0.994840	0.734520
N311	N31	0.234520	0.420540	0.350100
N321	N32	0.494840	0.350100	0.420540
N331	N33	0.920540	0.994840	0.350100
N341	N34	0.850100	0.734520	0.420540
N351	N35	0.234520	0.350100	0.994840
N361	N36	0.494840	0.420540	0.734520
N371	N37	0.149900	0.579460	0.265480
N381	N38	0.079460	0.649900	0.005160
N391	N39	0.505160	0.265480	0.579460
N401	N40	0.765480	0.005160	0.649900
N411	N41	0.765480	0.579460	0.005160
N421	N42	0.505160	0.649900	0.265480
N431	N43	0.079460	0.265480	0.649900
N441	N44	0.149900	0.005160	0.579460
N451	N45	0.505160	0.579460	0.649900
N461	N46	0.765480	0.649900	0.579460
N471	N47	0.149900	0.265480	0.005160
N481	N48	0.079460	0.005160	0.265480
N491	N49	0.253550	0.753550	0.168530
N501	N50	0.159490	0.659490	0.219770
N511	N51	0.128620	0.628620	0.193860
N521	N52	0.253550	0.753550	0.824370
N531	N53	0.159490	0.659490	0.961250
N541	N54	0.128620	0.628620	0.048900
N551	N55	0.668530	0.824370	0.753550
N561	N56	0.719770	0.961250	0.659490
N571	N57	0.693860	0.048900	0.628620
N581	N58	0.324370	0.168530	0.753550
N591	N59	0.461250	0.219770	0.659490
N601	N60	0.548900	0.193860	0.628620
N611	N61	0.253550	0.168530	0.824370
N621	N62	0.159490	0.219770	0.961250
N631	N63	0.128620	0.193860	0.048900
N641	N64	0.253550	0.824370	0.168530
N651	N65	0.159490	0.961250	0.219770
N661	N66	0.128620	0.048900	0.193860
N671	N67	0.668530	0.753550	0.753550
N681	N68	0.719770	0.659490	0.659490
N691	N69	0.693860	0.628620	0.628620
N701	N70	0.324370	0.753550	0.753550
N711	N71	0.461250	0.659490	0.659490
N721	N72	0.548900	0.628620	0.628620
N731	N73	0.253550	0.824370	0.753550
N741	N74	0.159490	0.961250	0.659490
N751	N75	0.128620	0.048900	0.628620
N761	N76	0.253550	0.168530	0.753550
N771	N77	0.159490	0.219770	0.659490
N781	N78	0.128620	0.193860	0.628620
N791	N79	0.668530	0.753550	0.824370
N801	N80	0.719770	0.659490	0.961250
N811	N81	0.693860	0.628620	0.048900
N821	N82	0.324370	0.753550	0.168530
N831	N83	0.461250	0.659490	0.219770
N841	N84	0.548900	0.628620	0.193860
N851	N85	0.746450	0.246450	0.831470
N861	N86	0.840510	0.340510	0.780230
N871	N87	0.871380	0.371380	0.806140
N881	N88	0.746450	0.246450	0.175630
N891	N89	0.840510	0.340510	0.038750
N901	N90	0.871380	0.371380	0.951100
N911	N91	0.675630	0.831470	0.246450
N921	N92	0.538750	0.780230	0.340510
N931	N93	0.451100	0.806140	0.371380
N941	N94	0.331470	0.175630	0.246450
N951	N95	0.280230	0.038750	0.340510
N961	N96	0.306140	0.951100	0.371380
N971	N97	0.331470	0.246450	0.175630
N981	N98	0.280230	0.340510	0.038750
N991	N99	0.306140	0.371380	0.951100
N1001	N100	0.675630	0.246450	0.831470
N1011	N101	0.538750	0.340510	0.780230
N1021	N102	0.451100	0.371380	0.806140
N1031	N103	0.746450	0.831470	0.246450
N1041	N104	0.840510	0.780230	0.340510
N1051	N105	0.871380	0.806140	0.371380
N1061	N106	0.746450	0.175630	0.246450
N1071	N107	0.840510	0.038750	0.340510
N1081	N108	0.871380	0.951100	0.371380
N1091	N109	0.675630	0.246450	0.246450
N1101	N110	0.538750	0.340510	0.340510
N1111	N111	0.451100	0.371380	0.371380
N1121	N112	0.331470	0.246450	0.246450
N1131	N113	0.280230	0.340510	0.340510
N1141	N114	0.306140	0.371380	0.371380
N1151	N115	0.746450	0.831470	0.175630
N1161	N116	0.840510	0.780230	0.038750
N1171	N117	0.871380	0.806140	0.951100
N1181	N118	0.746450	0.175630	0.831470
N1191	N119	0.840510	0.038750	0.780230
N1201	N120	0.871380	0.951100	0.806140
N1211	N121	0.299600	0.799600	0.101200
N1221	N122	0.299600	0.799600	0.799600
N1231	N123	0.601200	0.799600	0.799600
N1241	N124	0.299600	0.101200	0.799600
N1251	N125	0.700400	0.200400	0.898800
N1261	N126	0.700400	0.200400	0.200400
N1271	N127	0.700400	0.898800	0.200400
N1281	N128	0.398800	0.200400	0.200400
