data_GARLET_clean_PM
_symmetry_space_group_name_H-M	'P1'
_cell_length_a	15.837000
_cell_length_b	10.568000
_cell_length_c	21.099000
_cell_angle_alpha	90.000000
_cell_angle_beta	107.098000
_cell_angle_gamma	90.000000
_symmetry_Int_Tables_number 1

loop_
_symmetry_equiv_pos_as_xyz
'x,y,z'

loop_
_atom_site_label
_atom_site_type_symbol
_atom_site_fract_x
_atom_site_fract_y
_atom_site_fract_z
Pr11	Pr1	0.399190	0.081180	0.546970
O11	O1	0.542800	0.172200	0.564600
O21	O2	0.505300	0.921800	0.592800
O31	O3	0.390100	0.172700	0.439600
O41	O4	0.238000	0.136200	0.489300
O51	O5	0.344400	0.912700	0.461300
O61	O6	0.393100	0.064400	0.663800
O71	O7	0.309800	0.929000	0.594000
C11	C1	0.578500	0.865000	0.604200
C21	C2	0.631100	0.842800	0.675900
C31	C3	0.697300	0.750100	0.690600
C41	C4	0.614700	0.911700	0.726600
C51	C5	0.748400	0.726200	0.754100
H11	H1	0.706900	0.703200	0.656100
C61	C6	0.667200	0.889600	0.791300
H21	H2	0.569600	0.971400	0.717800
C71	C7	0.732600	0.798000	0.804400
N11	N1	0.811800	0.631000	0.766800
C81	C8	0.653500	0.965900	0.847500
H31	H3	0.766700	0.784400	0.847900
C91	C9	0.865000	0.599400	0.833900
C101	C10	0.841200	0.575200	0.714000
C111	C11	0.947900	0.676800	0.858900
H41	H4	0.881100	0.510700	0.835200
H51	H5	0.829200	0.610900	0.863800
H61	H6	0.840900	0.640000	0.681300
C121	C12	0.784300	0.464300	0.679200
H71	H7	0.901600	0.546200	0.732300
C131	C13	0.963600	0.783000	0.827100
C141	C14	0.012500	0.639200	0.916600
C151	C15	0.706900	0.431900	0.690800
C161	C16	0.812100	0.396400	0.633500
H81	H8	0.922000	0.808000	0.788000
C171	C17	0.039900	0.854500	0.851400
C181	C18	0.088700	0.708100	0.941300
H91	H9	0.003800	0.566300	0.938700
C191	C19	0.654700	0.333200	0.655800
H101	H10	0.688400	0.476000	0.722600
C201	C20	0.760800	0.299000	0.597600
H111	H11	0.865900	0.415900	0.626400
C211	C21	0.102700	0.817300	0.909400
H121	H12	0.048900	0.926600	0.828900
H131	H13	0.131100	0.681400	0.979600
C221	C22	0.680900	0.267900	0.608300
H141	H14	0.602300	0.311800	0.664600
H151	H15	0.780000	0.254600	0.566400
C231	C23	0.184200	0.891000	0.937100
C241	C24	0.622200	0.168900	0.567800
O81	O8	0.193200	0.988500	0.900800
Pr21	Pr2	0.600810	0.081180	0.953030
O91	O9	0.457200	0.172200	0.935400
O101	O10	0.494700	0.921800	0.907200
O111	O11	0.609900	0.172700	0.060400
O121	O12	0.762000	0.136200	0.010700
O131	O13	0.655600	0.912700	0.038700
O141	O14	0.606900	0.064400	0.836200
O151	O15	0.690200	0.929000	0.906000
C251	C25	0.421500	0.865000	0.895800
C261	C26	0.368900	0.842800	0.824100
C271	C27	0.302700	0.750100	0.809400
C281	C28	0.385300	0.911700	0.773400
C291	C29	0.251600	0.726200	0.745900
H161	H16	0.293100	0.703200	0.843900
C301	C30	0.332800	0.889600	0.708700
H171	H17	0.430400	0.971400	0.782200
C311	C31	0.267400	0.798000	0.695600
N21	N2	0.188200	0.631000	0.733200
C321	C32	0.346500	0.965900	0.652500
H181	H18	0.233300	0.784400	0.652100
C331	C33	0.135000	0.599400	0.666100
C341	C34	0.158800	0.575200	0.786000
C351	C35	0.052100	0.676800	0.641100
H191	H19	0.118900	0.510700	0.664800
H201	H20	0.170800	0.610900	0.636200
H211	H21	0.159100	0.640000	0.818700
C361	C36	0.215700	0.464300	0.820800
H221	H22	0.098400	0.546200	0.767700
C371	C37	0.036400	0.783000	0.672900
C381	C38	0.987500	0.639200	0.583400
C391	C39	0.293100	0.431900	0.809200
C401	C40	0.187900	0.396400	0.866500
H231	H23	0.078000	0.808000	0.712000
C411	C41	0.960100	0.854500	0.648600
C421	C42	0.911300	0.708100	0.558700
H241	H24	0.996200	0.566300	0.561300
C431	C43	0.345300	0.333200	0.844200
H251	H25	0.311600	0.476000	0.777400
C441	C44	0.239200	0.299000	0.902400
H261	H26	0.134100	0.415900	0.873600
C451	C45	0.897300	0.817300	0.590600
H271	H27	0.951100	0.926600	0.671100
H281	H28	0.868900	0.681400	0.520400
C461	C46	0.319100	0.267900	0.891700
H291	H29	0.397700	0.311800	0.835400
H301	H30	0.220000	0.254600	0.933600
C471	C47	0.815800	0.891000	0.562900
C481	C48	0.377800	0.168900	0.932200
O161	O16	0.806800	0.988500	0.599200
Pr31	Pr3	0.600810	0.918820	0.453030
O171	O17	0.457200	0.827800	0.435400
O181	O18	0.494700	0.078200	0.407200
O191	O19	0.609900	0.827300	0.560400
O201	O20	0.762000	0.863800	0.510700
O211	O21	0.655600	0.087300	0.538700
O221	O22	0.606900	0.935600	0.336200
O231	O23	0.690200	0.071000	0.406000
C491	C49	0.421500	0.135000	0.395800
C501	C50	0.368900	0.157200	0.324100
C511	C51	0.302700	0.249900	0.309400
C521	C52	0.385300	0.088300	0.273400
C531	C53	0.251600	0.273800	0.245900
H311	H31	0.293100	0.296800	0.343900
C541	C54	0.332800	0.110400	0.208700
H321	H32	0.430400	0.028600	0.282200
C551	C55	0.267400	0.202000	0.195600
N31	N3	0.188200	0.369000	0.233200
C561	C56	0.346500	0.034100	0.152500
H331	H33	0.233300	0.215600	0.152100
C571	C57	0.135000	0.400600	0.166100
C581	C58	0.158800	0.424800	0.286000
C591	C59	0.052100	0.323200	0.141100
H341	H34	0.118900	0.489300	0.164800
H351	H35	0.170800	0.389100	0.136200
H361	H36	0.159100	0.360000	0.318700
C601	C60	0.215700	0.535700	0.320800
H371	H37	0.098400	0.453800	0.267700
C611	C61	0.036400	0.217000	0.172900
C621	C62	0.987500	0.360800	0.083400
C631	C63	0.293100	0.568100	0.309200
C641	C64	0.187900	0.603600	0.366500
H381	H38	0.078000	0.192000	0.212000
C651	C65	0.960100	0.145500	0.148600
C661	C66	0.911300	0.291900	0.058700
H391	H39	0.996200	0.433700	0.061300
C671	C67	0.345300	0.666800	0.344200
H401	H40	0.311600	0.524000	0.277400
C681	C68	0.239200	0.701000	0.402400
H411	H41	0.134100	0.584100	0.373600
C691	C69	0.897300	0.182700	0.090600
H421	H42	0.951100	0.073400	0.171100
H431	H43	0.868900	0.318600	0.020400
C701	C70	0.319100	0.732100	0.391700
H441	H44	0.397700	0.688200	0.335400
H451	H45	0.220000	0.745400	0.433600
C711	C71	0.815800	0.109000	0.062900
C721	C72	0.377800	0.831100	0.432200
O241	O24	0.806800	0.011500	0.099200
Pr41	Pr4	0.399190	0.918820	0.046970
O251	O25	0.542800	0.827800	0.064600
O261	O26	0.505300	0.078200	0.092800
O271	O27	0.390100	0.827300	0.939600
O281	O28	0.238000	0.863800	0.989300
O291	O29	0.344400	0.087300	0.961300
O301	O30	0.393100	0.935600	0.163800
O311	O31	0.309800	0.071000	0.094000
C731	C73	0.578500	0.135000	0.104200
C741	C74	0.631100	0.157200	0.175900
C751	C75	0.697300	0.249900	0.190600
C761	C76	0.614700	0.088300	0.226600
C771	C77	0.748400	0.273800	0.254100
H461	H46	0.706900	0.296800	0.156100
C781	C78	0.667200	0.110400	0.291300
H471	H47	0.569600	0.028600	0.217800
C791	C79	0.732600	0.202000	0.304400
N41	N4	0.811800	0.369000	0.266800
C801	C80	0.653500	0.034100	0.347500
H481	H48	0.766700	0.215600	0.347900
C811	C81	0.865000	0.400600	0.333900
C821	C82	0.841200	0.424800	0.214000
C831	C83	0.947900	0.323200	0.358900
H491	H49	0.881100	0.489300	0.335200
H501	H50	0.829200	0.389100	0.363800
H511	H51	0.840900	0.360000	0.181300
C841	C84	0.784300	0.535700	0.179200
H521	H52	0.901600	0.453800	0.232300
C851	C85	0.963600	0.217000	0.327100
C861	C86	0.012500	0.360800	0.416600
C871	C87	0.706900	0.568100	0.190800
C881	C88	0.812100	0.603600	0.133500
H531	H53	0.922000	0.192000	0.288000
C891	C89	0.039900	0.145500	0.351400
C901	C90	0.088700	0.291900	0.441300
H541	H54	0.003800	0.433700	0.438700
C911	C91	0.654700	0.666800	0.155800
H551	H55	0.688400	0.524000	0.222600
C921	C92	0.760800	0.701000	0.097600
H561	H56	0.865900	0.584100	0.126400
C931	C93	0.102700	0.182700	0.409400
H571	H57	0.048900	0.073400	0.328900
H581	H58	0.131100	0.318600	0.479600
C941	C94	0.680900	0.732100	0.108300
H591	H59	0.602300	0.688200	0.164600
H601	H60	0.780000	0.745400	0.066400
C951	C95	0.184200	0.109000	0.437100
C961	C96	0.622200	0.831100	0.067800
O321	O32	0.193200	0.011500	0.400800
