data_GARLAP_clean_PM
_symmetry_space_group_name_H-M	'P1'
_cell_length_a	15.861000
_cell_length_b	10.599000
_cell_length_c	21.235000
_cell_angle_alpha	90.000000
_cell_angle_beta	106.914000
_cell_angle_gamma	90.000000
_symmetry_Int_Tables_number 1

loop_
_symmetry_equiv_pos_as_xyz
'x,y,z'

loop_
_atom_site_label
_atom_site_type_symbol
_atom_site_fract_x
_atom_site_fract_y
_atom_site_fract_z
C11	C1	0.316800	0.391600	0.563700
C21	C2	0.398900	0.316300	0.591800
C31	C3	0.412800	0.209100	0.559800
H11	H1	0.371100	0.184100	0.521200
C41	C4	0.488700	0.137800	0.584700
H21	H2	0.497400	0.064400	0.563400
C51	C5	0.551700	0.177100	0.642000
C61	C6	0.536000	0.280900	0.673900
H31	H3	0.576900	0.305200	0.713100
C71	C7	0.459500	0.352000	0.649100
H41	H4	0.449800	0.423300	0.671500
C81	C8	0.635600	0.100800	0.667500
H51	H5	0.620100	0.012100	0.665100
H61	H6	0.672000	0.114500	0.638500
C91	C9	0.659000	0.073000	0.786000
H71	H7	0.598700	0.044100	0.768000
H81	H8	0.659000	0.138000	0.818100
C101	C10	0.714100	0.963900	0.820900
C111	C11	0.686400	0.894900	0.866400
H91	H9	0.632800	0.914200	0.873700
C121	C12	0.736900	0.798000	0.901200
H101	H10	0.716600	0.751600	0.931100
C131	C13	0.817900	0.769300	0.892000
C141	C14	0.875700	0.669700	0.931900
C151	C15	0.844100	0.836200	0.845100
H111	H11	0.897000	0.816000	0.836900
C161	C16	0.792900	0.932200	0.810400
H121	H12	0.812000	0.976500	0.779200
C171	C17	0.919600	0.363700	0.895200
C181	C18	0.868200	0.340700	0.824500
C191	C19	0.801600	0.250200	0.811100
H131	H13	0.790500	0.205900	0.845700
C201	C20	0.751400	0.225100	0.746900
C211	C21	0.766700	0.296300	0.696400
H141	H14	0.732700	0.282700	0.653200
C221	C22	0.832600	0.387800	0.709900
C231	C23	0.884100	0.409700	0.774000
H151	H15	0.928600	0.469900	0.782700
C241	C24	0.845200	0.464300	0.654000
N11	N1	0.687100	0.128700	0.733400
O11	O1	0.308000	0.488800	0.599100
O21	O2	0.264100	0.366200	0.510700
O31	O3	0.992100	0.422300	0.906700
O41	O4	0.888900	0.323800	0.939100
O51	O5	0.955200	0.674200	0.936200
O61	O6	0.842200	0.587400	0.960700
O71	O7	0.891700	0.562900	0.665900
La11	La1	0.899250	0.418340	0.047560
O81	O8	0.808800	0.428600	0.596000
C251	C25	0.683200	0.391600	0.936300
C261	C26	0.601100	0.316300	0.908200
C271	C27	0.587200	0.209100	0.940200
H161	H16	0.628900	0.184100	0.978800
C281	C28	0.511300	0.137800	0.915300
H171	H17	0.502600	0.064400	0.936600
C291	C29	0.448300	0.177100	0.858000
C301	C30	0.464000	0.280900	0.826100
H181	H18	0.423100	0.305200	0.786900
C311	C31	0.540500	0.352000	0.850900
H191	H19	0.550200	0.423300	0.828500
C321	C32	0.364400	0.100800	0.832500
H201	H20	0.379900	0.012100	0.834900
H211	H21	0.328000	0.114500	0.861500
C331	C33	0.341000	0.073000	0.714000
H221	H22	0.401300	0.044100	0.732000
H231	H23	0.341000	0.138000	0.681900
C341	C34	0.285900	0.963900	0.679100
C351	C35	0.313600	0.894900	0.633600
H241	H24	0.367200	0.914200	0.626300
C361	C36	0.263100	0.798000	0.598800
H251	H25	0.283400	0.751600	0.568900
C371	C37	0.182100	0.769300	0.608000
C381	C38	0.124300	0.669700	0.568100
C391	C39	0.155900	0.836200	0.654900
H261	H26	0.103000	0.816000	0.663100
C401	C40	0.207100	0.932200	0.689600
H271	H27	0.188000	0.976500	0.720800
C411	C41	0.080400	0.363700	0.604800
C421	C42	0.131800	0.340700	0.675500
C431	C43	0.198400	0.250200	0.688900
H281	H28	0.209500	0.205900	0.654300
C441	C44	0.248600	0.225100	0.753100
C451	C45	0.233300	0.296300	0.803600
H291	H29	0.267300	0.282700	0.846800
C461	C46	0.167400	0.387800	0.790100
C471	C47	0.115900	0.409700	0.726000
H301	H30	0.071400	0.469900	0.717300
C481	C48	0.154800	0.464300	0.846000
N21	N2	0.312900	0.128700	0.766600
O91	O9	0.692000	0.488800	0.900900
O101	O10	0.735900	0.366200	0.989300
O111	O11	0.007900	0.422300	0.593300
O121	O12	0.111100	0.323800	0.560900
O131	O13	0.044800	0.674200	0.563800
O141	O14	0.157800	0.587400	0.539300
O151	O15	0.108300	0.562900	0.834100
La21	La2	0.100750	0.418340	0.452440
O161	O16	0.191200	0.428600	0.904000
C491	C49	0.683200	0.608400	0.436300
C501	C50	0.601100	0.683700	0.408200
C511	C51	0.587200	0.790900	0.440200
H311	H31	0.628900	0.815900	0.478800
C521	C52	0.511300	0.862200	0.415300
H321	H32	0.502600	0.935600	0.436600
C531	C53	0.448300	0.822900	0.358000
C541	C54	0.464000	0.719100	0.326100
H331	H33	0.423100	0.694800	0.286900
C551	C55	0.540500	0.648000	0.350900
H341	H34	0.550200	0.576700	0.328500
C561	C56	0.364400	0.899200	0.332500
H351	H35	0.379900	0.987900	0.334900
H361	H36	0.328000	0.885500	0.361500
C571	C57	0.341000	0.927000	0.214000
H371	H37	0.401300	0.955900	0.232000
H381	H38	0.341000	0.862000	0.181900
C581	C58	0.285900	0.036100	0.179100
C591	C59	0.313600	0.105100	0.133600
H391	H39	0.367200	0.085800	0.126300
C601	C60	0.263100	0.202000	0.098800
H401	H40	0.283400	0.248400	0.068900
C611	C61	0.182100	0.230700	0.108000
C621	C62	0.124300	0.330300	0.068100
C631	C63	0.155900	0.163800	0.154900
H411	H41	0.103000	0.184000	0.163100
C641	C64	0.207100	0.067800	0.189600
H421	H42	0.188000	0.023500	0.220800
C651	C65	0.080400	0.636300	0.104800
C661	C66	0.131800	0.659300	0.175500
C671	C67	0.198400	0.749800	0.188900
H431	H43	0.209500	0.794100	0.154300
C681	C68	0.248600	0.774900	0.253100
C691	C69	0.233300	0.703700	0.303600
H441	H44	0.267300	0.717300	0.346800
C701	C70	0.167400	0.612200	0.290100
C711	C71	0.115900	0.590300	0.226000
H451	H45	0.071400	0.530100	0.217300
C721	C72	0.154800	0.535700	0.346000
N31	N3	0.312900	0.871300	0.266600
O171	O17	0.692000	0.511200	0.400900
O181	O18	0.735900	0.633800	0.489300
O191	O19	0.007900	0.577700	0.093300
O201	O20	0.111100	0.676200	0.060900
O211	O21	0.044800	0.325800	0.063800
O221	O22	0.157800	0.412600	0.039300
O231	O23	0.108300	0.437100	0.334100
La31	La3	0.100750	0.581660	0.952440
O241	O24	0.191200	0.571400	0.404000
C731	C73	0.316800	0.608400	0.063700
C741	C74	0.398900	0.683700	0.091800
C751	C75	0.412800	0.790900	0.059800
H461	H46	0.371100	0.815900	0.021200
C761	C76	0.488700	0.862200	0.084700
H471	H47	0.497400	0.935600	0.063400
C771	C77	0.551700	0.822900	0.142000
C781	C78	0.536000	0.719100	0.173900
H481	H48	0.576900	0.694800	0.213100
C791	C79	0.459500	0.648000	0.149100
H491	H49	0.449800	0.576700	0.171500
C801	C80	0.635600	0.899200	0.167500
H501	H50	0.620100	0.987900	0.165100
H511	H51	0.672000	0.885500	0.138500
C811	C81	0.659000	0.927000	0.286000
H521	H52	0.598700	0.955900	0.268000
H531	H53	0.659000	0.862000	0.318100
C821	C82	0.714100	0.036100	0.320900
C831	C83	0.686400	0.105100	0.366400
H541	H54	0.632800	0.085800	0.373700
C841	C84	0.736900	0.202000	0.401200
H551	H55	0.716600	0.248400	0.431100
C851	C85	0.817900	0.230700	0.392000
C861	C86	0.875700	0.330300	0.431900
C871	C87	0.844100	0.163800	0.345100
H561	H56	0.897000	0.184000	0.336900
C881	C88	0.792900	0.067800	0.310400
H571	H57	0.812000	0.023500	0.279200
C891	C89	0.919600	0.636300	0.395200
C901	C90	0.868200	0.659300	0.324500
C911	C91	0.801600	0.749800	0.311100
H581	H58	0.790500	0.794100	0.345700
C921	C92	0.751400	0.774900	0.246900
C931	C93	0.766700	0.703700	0.196400
H591	H59	0.732700	0.717300	0.153200
C941	C94	0.832600	0.612200	0.209900
C951	C95	0.884100	0.590300	0.274000
H601	H60	0.928600	0.530100	0.282700
C961	C96	0.845200	0.535700	0.154000
N41	N4	0.687100	0.871300	0.233400
O251	O25	0.308000	0.511200	0.099100
O261	O26	0.264100	0.633800	0.010700
O271	O27	0.992100	0.577700	0.406700
O281	O28	0.888900	0.676200	0.439100
O291	O29	0.955200	0.325800	0.436200
O301	O30	0.842200	0.412600	0.460700
O311	O31	0.891700	0.437100	0.165900
La41	La4	0.899250	0.581660	0.547560
O321	O32	0.808800	0.571400	0.096000
