data_GARMAQ_clean_PM
_symmetry_space_group_name_H-M	'P1'
_cell_length_a	15.894000
_cell_length_b	10.491000
_cell_length_c	20.909000
_cell_angle_alpha	90.000000
_cell_angle_beta	107.841000
_cell_angle_gamma	90.000000
_symmetry_Int_Tables_number 1

loop_
_symmetry_equiv_pos_as_xyz
'x,y,z'

loop_
_atom_site_label
_atom_site_type_symbol
_atom_site_fract_x
_atom_site_fract_y
_atom_site_fract_z
C11	C1	0.866100	0.602500	0.836100
H11	H1	0.881500	0.512800	0.837800
H21	H2	0.831400	0.615700	0.866500
C21	C2	0.950400	0.680300	0.860600
C31	C3	0.015800	0.641000	0.917500
H31	H3	0.008000	0.567300	0.939700
C41	C4	0.093200	0.710900	0.941800
H41	H4	0.136800	0.683600	0.980100
C51	C5	0.105900	0.820600	0.909500
C61	C6	0.042300	0.856800	0.851200
H51	H5	0.051100	0.928200	0.827700
C71	C7	0.964900	0.786500	0.827600
H61	H6	0.922000	0.812300	0.788500
C81	C8	0.187600	0.894800	0.936500
C91	C9	0.748200	0.728200	0.755800
C101	C10	0.731500	0.801000	0.807000
H71	H7	0.765500	0.787500	0.851300
C111	C11	0.666000	0.891900	0.792800
C121	C12	0.613000	0.914300	0.727800
H81	H8	0.568000	0.974600	0.718800
C131	C13	0.628800	0.844300	0.676000
C141	C14	0.695600	0.753900	0.689400
H91	H9	0.705900	0.709500	0.654000
C151	C15	0.575000	0.867300	0.603700
C161	C16	0.653100	0.968400	0.850900
C171	C17	0.838800	0.577000	0.714900
H101	H10	0.899200	0.547200	0.733200
H111	H11	0.838200	0.642400	0.682000
C181	C18	0.705200	0.432800	0.692600
H121	H12	0.688300	0.476200	0.725400
C191	C19	0.782000	0.467300	0.679700
C201	C20	0.652800	0.334800	0.657500
H131	H13	0.600700	0.313800	0.666500
C211	C21	0.677300	0.268600	0.609500
C221	C22	0.617900	0.167100	0.568800
C231	C23	0.755500	0.298300	0.597800
H141	H14	0.773900	0.250800	0.567000
C241	C24	0.807400	0.398900	0.631800
H151	H15	0.859100	0.420400	0.622300
N11	N1	0.811900	0.633500	0.768400
O11	O1	0.605100	0.066500	0.838800
O21	O2	0.539300	0.168600	0.567900
O31	O3	0.651000	0.087300	0.538600
O41	O4	0.607200	0.831300	0.559300
O51	O5	0.500900	0.920500	0.592500
O61	O6	0.688400	0.929900	0.909500
O71	O7	0.196400	0.990700	0.899600
O81	O8	0.243300	0.866400	0.989200
Gd11	Gd1	0.399370	0.078180	0.545540
C251	C25	0.133900	0.602500	0.663900
H161	H16	0.118500	0.512800	0.662200
H171	H17	0.168600	0.615700	0.633500
C261	C26	0.049600	0.680300	0.639400
C271	C27	0.984200	0.641000	0.582500
H181	H18	0.992000	0.567300	0.560300
C281	C28	0.906800	0.710900	0.558200
H191	H19	0.863200	0.683600	0.519900
C291	C29	0.894100	0.820600	0.590500
C301	C30	0.957700	0.856800	0.648800
H201	H20	0.948900	0.928200	0.672300
C311	C31	0.035100	0.786500	0.672400
H211	H21	0.078000	0.812300	0.711500
C321	C32	0.812400	0.894800	0.563500
C331	C33	0.251800	0.728200	0.744200
C341	C34	0.268500	0.801000	0.693000
H221	H22	0.234500	0.787500	0.648700
C351	C35	0.334000	0.891900	0.707200
C361	C36	0.387000	0.914300	0.772200
H231	H23	0.432000	0.974600	0.781200
C371	C37	0.371200	0.844300	0.824000
C381	C38	0.304400	0.753900	0.810600
H241	H24	0.294100	0.709500	0.846000
C391	C39	0.425000	0.867300	0.896300
C401	C40	0.346900	0.968400	0.649100
C411	C41	0.161200	0.577000	0.785100
H251	H25	0.100800	0.547200	0.766800
H261	H26	0.161800	0.642400	0.818000
C421	C42	0.294800	0.432800	0.807400
H271	H27	0.311700	0.476200	0.774600
C431	C43	0.218000	0.467300	0.820300
C441	C44	0.347200	0.334800	0.842500
H281	H28	0.399300	0.313800	0.833500
C451	C45	0.322700	0.268600	0.890500
C461	C46	0.382100	0.167100	0.931200
C471	C47	0.244500	0.298300	0.902200
H291	H29	0.226100	0.250800	0.933000
C481	C48	0.192600	0.398900	0.868200
H301	H30	0.140900	0.420400	0.877700
N21	N2	0.188100	0.633500	0.731600
O91	O9	0.394900	0.066500	0.661200
O101	O10	0.460700	0.168600	0.932100
O111	O11	0.349000	0.087300	0.961400
O121	O12	0.392800	0.831300	0.940700
O131	O13	0.499100	0.920500	0.907500
O141	O14	0.311600	0.929900	0.590500
O151	O15	0.803600	0.990700	0.600400
O161	O16	0.756700	0.866400	0.510800
Gd21	Gd2	0.600620	0.078180	0.954460
C491	C49	0.133900	0.397500	0.163900
H311	H31	0.118500	0.487200	0.162200
H321	H32	0.168600	0.384300	0.133500
C501	C50	0.049600	0.319700	0.139400
C511	C51	0.984200	0.359000	0.082500
H331	H33	0.992000	0.432700	0.060300
C521	C52	0.906800	0.289100	0.058200
H341	H34	0.863200	0.316400	0.019900
C531	C53	0.894100	0.179400	0.090500
C541	C54	0.957700	0.143200	0.148800
H351	H35	0.948900	0.071800	0.172300
C551	C55	0.035100	0.213500	0.172400
H361	H36	0.078000	0.187700	0.211500
C561	C56	0.812400	0.105200	0.063500
C571	C57	0.251800	0.271800	0.244200
C581	C58	0.268500	0.199000	0.193000
H371	H37	0.234500	0.212500	0.148700
C591	C59	0.334000	0.108100	0.207200
C601	C60	0.387000	0.085700	0.272200
H381	H38	0.432000	0.025400	0.281200
C611	C61	0.371200	0.155700	0.324000
C621	C62	0.304400	0.246100	0.310600
H391	H39	0.294100	0.290500	0.346000
C631	C63	0.425000	0.132700	0.396300
C641	C64	0.346900	0.031600	0.149100
C651	C65	0.161200	0.423000	0.285100
H401	H40	0.100800	0.452800	0.266800
H411	H41	0.161800	0.357600	0.318000
C661	C66	0.294800	0.567200	0.307400
H421	H42	0.311700	0.523800	0.274600
C671	C67	0.218000	0.532700	0.320300
C681	C68	0.347200	0.665200	0.342500
H431	H43	0.399300	0.686200	0.333500
C691	C69	0.322700	0.731400	0.390500
C701	C70	0.382100	0.832900	0.431200
C711	C71	0.244500	0.701700	0.402200
H441	H44	0.226100	0.749200	0.433000
C721	C72	0.192600	0.601100	0.368200
H451	H45	0.140900	0.579600	0.377700
N31	N3	0.188100	0.366500	0.231600
O171	O17	0.394900	0.933500	0.161200
O181	O18	0.460700	0.831400	0.432100
O191	O19	0.349000	0.912700	0.461400
O201	O20	0.392800	0.168700	0.440700
O211	O21	0.499100	0.079500	0.407500
O221	O22	0.311600	0.070100	0.090500
O231	O23	0.803600	0.009300	0.100400
O241	O24	0.756700	0.133600	0.010800
Gd31	Gd3	0.600620	0.921820	0.454460
C731	C73	0.866100	0.397500	0.336100
H461	H46	0.881500	0.487200	0.337800
H471	H47	0.831400	0.384300	0.366500
C741	C74	0.950400	0.319700	0.360600
C751	C75	0.015800	0.359000	0.417500
H481	H48	0.008000	0.432700	0.439700
C761	C76	0.093200	0.289100	0.441800
H491	H49	0.136800	0.316400	0.480100
C771	C77	0.105900	0.179400	0.409500
C781	C78	0.042300	0.143200	0.351200
H501	H50	0.051100	0.071800	0.327700
C791	C79	0.964900	0.213500	0.327600
H511	H51	0.922000	0.187700	0.288500
C801	C80	0.187600	0.105200	0.436500
C811	C81	0.748200	0.271800	0.255800
C821	C82	0.731500	0.199000	0.307000
H521	H52	0.765500	0.212500	0.351300
C831	C83	0.666000	0.108100	0.292800
C841	C84	0.613000	0.085700	0.227800
H531	H53	0.568000	0.025400	0.218800
C851	C85	0.628800	0.155700	0.176000
C861	C86	0.695600	0.246100	0.189400
H541	H54	0.705900	0.290500	0.154000
C871	C87	0.575000	0.132700	0.103700
C881	C88	0.653100	0.031600	0.350900
C891	C89	0.838800	0.423000	0.214900
H551	H55	0.899200	0.452800	0.233200
H561	H56	0.838200	0.357600	0.182000
C901	C90	0.705200	0.567200	0.192600
H571	H57	0.688300	0.523800	0.225400
C911	C91	0.782000	0.532700	0.179700
C921	C92	0.652800	0.665200	0.157500
H581	H58	0.600700	0.686200	0.166500
C931	C93	0.677300	0.731400	0.109500
C941	C94	0.617900	0.832900	0.068800
C951	C95	0.755500	0.701700	0.097800
H591	H59	0.773900	0.749200	0.067000
C961	C96	0.807400	0.601100	0.131800
H601	H60	0.859100	0.579600	0.122300
N41	N4	0.811900	0.366500	0.268400
O251	O25	0.605100	0.933500	0.338800
O261	O26	0.539300	0.831400	0.067900
O271	O27	0.651000	0.912700	0.038600
O281	O28	0.607200	0.168700	0.059300
O291	O29	0.500900	0.079500	0.092500
O301	O30	0.688400	0.070100	0.409500
O311	O31	0.196400	0.009300	0.399600
O321	O32	0.243300	0.133600	0.489200
Gd41	Gd4	0.399370	0.921820	0.045540
