data_GARPAR_clean_PM
_symmetry_space_group_name_H-M	'P1'
_cell_length_a	10.348300
_cell_length_b	12.574600
_cell_length_c	45.802000
_cell_angle_alpha	90.000000
_cell_angle_beta	90.000000
_cell_angle_gamma	90.000000
_symmetry_Int_Tables_number 1

loop_
_symmetry_equiv_pos_as_xyz
'x,y,z'

loop_
_atom_site_label
_atom_site_type_symbol
_atom_site_fract_x
_atom_site_fract_y
_atom_site_fract_z
N11	N1	0.368200	0.470200	0.214140
C11	C1	0.237700	0.472900	0.217900
H11	H1	0.203700	0.483600	0.236900
N21	N2	0.470800	0.400300	0.031050
C21	C2	0.149200	0.460100	0.193600
H21	H2	0.058300	0.460000	0.196500
Ag11	Ag1	0.331440	0.383140	0.996010
N31	N3	0.656300	0.257500	0.218880
C31	C3	0.200000	0.448200	0.166700
H31	H3	0.144800	0.439600	0.150300
N41	N4	0.679500	0.116700	0.037240
C41	C4	0.334700	0.448600	0.162980
C51	C5	0.412900	0.458600	0.187100
H41	H4	0.503900	0.457100	0.184300
C61	C6	0.394300	0.439700	0.134000
C71	C7	0.443600	0.434400	0.111200
C81	C8	0.502900	0.426500	0.082600
C91	C9	0.423600	0.413800	0.058400
H51	H5	0.332600	0.414700	0.061100
C101	C10	0.636400	0.424300	0.078500
H61	H6	0.693900	0.432400	0.094500
C111	C11	0.682800	0.409900	0.050200
H71	H7	0.773100	0.407900	0.046600
C121	C12	0.600300	0.398900	0.028500
H81	H8	0.635100	0.389300	0.009500
C131	C13	0.779700	0.265100	0.227100
H91	H9	0.798400	0.280600	0.246900
C141	C14	0.884900	0.251000	0.207200
H101	H10	0.971700	0.253600	0.213900
C151	C15	0.858800	0.234000	0.178900
H111	H11	0.927300	0.229200	0.165200
C161	C16	0.730800	0.223400	0.169700
C171	C17	0.632000	0.236200	0.190200
H121	H12	0.544900	0.229900	0.183900
C181	C18	0.696000	0.201000	0.141100
C191	C19	0.660500	0.177100	0.115800
C201	C20	0.620100	0.153800	0.087200
C211	C21	0.714200	0.137800	0.065400
H131	H13	0.803200	0.141900	0.070300
C221	C22	0.489700	0.146600	0.078900
H141	H14	0.423600	0.158500	0.093000
C231	C23	0.457400	0.122500	0.050600
H151	H15	0.369700	0.112700	0.045100
C241	C24	0.555200	0.112700	0.030300
H161	H16	0.532400	0.102800	0.010300
N51	N5	0.868200	0.970200	0.214140
C251	C25	0.737700	0.972900	0.217900
H171	H17	0.703700	0.983600	0.236900
N61	N6	0.970800	0.900300	0.031050
C261	C26	0.649200	0.960100	0.193600
H181	H18	0.558300	0.960000	0.196500
Ag21	Ag2	0.831440	0.883140	0.996010
N71	N7	0.156300	0.757500	0.218880
C271	C27	0.700000	0.948200	0.166700
H191	H19	0.644800	0.939600	0.150300
N81	N8	0.179500	0.616700	0.037240
C281	C28	0.834700	0.948600	0.162980
C291	C29	0.912900	0.958600	0.187100
H201	H20	0.003900	0.957100	0.184300
C301	C30	0.894300	0.939700	0.134000
C311	C31	0.943600	0.934400	0.111200
C321	C32	0.002900	0.926500	0.082600
C331	C33	0.923600	0.913800	0.058400
H211	H21	0.832600	0.914700	0.061100
C341	C34	0.136400	0.924300	0.078500
H221	H22	0.193900	0.932400	0.094500
C351	C35	0.182800	0.909900	0.050200
H231	H23	0.273100	0.907900	0.046600
C361	C36	0.100300	0.898900	0.028500
H241	H24	0.135100	0.889300	0.009500
C371	C37	0.279700	0.765100	0.227100
H251	H25	0.298400	0.780600	0.246900
C381	C38	0.384900	0.751000	0.207200
H261	H26	0.471700	0.753600	0.213900
C391	C39	0.358800	0.734000	0.178900
H271	H27	0.427300	0.729200	0.165200
C401	C40	0.230800	0.723400	0.169700
C411	C41	0.132000	0.736200	0.190200
H281	H28	0.044900	0.729900	0.183900
C421	C42	0.196000	0.701000	0.141100
C431	C43	0.160500	0.677100	0.115800
C441	C44	0.120100	0.653800	0.087200
C451	C45	0.214200	0.637800	0.065400
H291	H29	0.303200	0.641900	0.070300
C461	C46	0.989700	0.646600	0.078900
H301	H30	0.923600	0.658500	0.093000
C471	C47	0.957400	0.622500	0.050600
H311	H31	0.869700	0.612700	0.045100
C481	C48	0.055200	0.612700	0.030300
H321	H32	0.032400	0.602800	0.010300
N91	N9	0.631800	0.529800	0.714140
C491	C49	0.762300	0.527100	0.717900
H331	H33	0.796300	0.516400	0.736900
N101	N10	0.529200	0.599700	0.531050
C501	C50	0.850800	0.539900	0.693600
H341	H34	0.941700	0.540000	0.696500
Ag31	Ag3	0.668560	0.616860	0.496010
N111	N11	0.343700	0.742500	0.718880
C511	C51	0.800000	0.551800	0.666700
H351	H35	0.855200	0.560400	0.650300
N121	N12	0.320500	0.883300	0.537240
C521	C52	0.665300	0.551400	0.662980
C531	C53	0.587100	0.541400	0.687100
H361	H36	0.496100	0.542900	0.684300
C541	C54	0.605700	0.560300	0.634000
C551	C55	0.556400	0.565600	0.611200
C561	C56	0.497100	0.573500	0.582600
C571	C57	0.576400	0.586200	0.558400
H371	H37	0.667400	0.585300	0.561100
C581	C58	0.363600	0.575700	0.578500
H381	H38	0.306100	0.567600	0.594500
C591	C59	0.317200	0.590100	0.550200
H391	H39	0.226900	0.592100	0.546600
C601	C60	0.399700	0.601100	0.528500
H401	H40	0.364900	0.610700	0.509500
C611	C61	0.220300	0.734900	0.727100
H411	H41	0.201600	0.719400	0.746900
C621	C62	0.115100	0.749000	0.707200
H421	H42	0.028300	0.746400	0.713900
C631	C63	0.141200	0.766000	0.678900
H431	H43	0.072700	0.770800	0.665200
C641	C64	0.269200	0.776600	0.669700
C651	C65	0.368000	0.763800	0.690200
H441	H44	0.455100	0.770100	0.683900
C661	C66	0.304000	0.799000	0.641100
C671	C67	0.339500	0.822900	0.615800
C681	C68	0.379900	0.846200	0.587200
C691	C69	0.285800	0.862200	0.565400
H451	H45	0.196800	0.858100	0.570300
C701	C70	0.510300	0.853400	0.578900
H461	H46	0.576400	0.841500	0.593000
C711	C71	0.542600	0.877500	0.550600
H471	H47	0.630300	0.887300	0.545100
C721	C72	0.444800	0.887300	0.530300
H481	H48	0.467600	0.897200	0.510300
N131	N13	0.131800	0.029800	0.714140
C731	C73	0.262300	0.027100	0.717900
H491	H49	0.296300	0.016400	0.736900
N141	N14	0.029200	0.099700	0.531050
C741	C74	0.350800	0.039900	0.693600
H501	H50	0.441700	0.040000	0.696500
Ag41	Ag4	0.168560	0.116860	0.496010
N151	N15	0.843700	0.242500	0.718880
C751	C75	0.300000	0.051800	0.666700
H511	H51	0.355200	0.060400	0.650300
N161	N16	0.820500	0.383300	0.537240
C761	C76	0.165300	0.051400	0.662980
C771	C77	0.087100	0.041400	0.687100
H521	H52	0.996100	0.042900	0.684300
C781	C78	0.105700	0.060300	0.634000
C791	C79	0.056400	0.065600	0.611200
C801	C80	0.997100	0.073500	0.582600
C811	C81	0.076400	0.086200	0.558400
H531	H53	0.167400	0.085300	0.561100
C821	C82	0.863600	0.075700	0.578500
H541	H54	0.806100	0.067600	0.594500
C831	C83	0.817200	0.090100	0.550200
H551	H55	0.726900	0.092100	0.546600
C841	C84	0.899700	0.101100	0.528500
H561	H56	0.864900	0.110700	0.509500
C851	C85	0.720300	0.234900	0.727100
H571	H57	0.701600	0.219400	0.746900
C861	C86	0.615100	0.249000	0.707200
H581	H58	0.528300	0.246400	0.713900
C871	C87	0.641200	0.266000	0.678900
H591	H59	0.572700	0.270800	0.665200
C881	C88	0.769200	0.276600	0.669700
C891	C89	0.868000	0.263800	0.690200
H601	H60	0.955100	0.270100	0.683900
C901	C90	0.804000	0.299000	0.641100
C911	C91	0.839500	0.322900	0.615800
C921	C92	0.879900	0.346200	0.587200
C931	C93	0.785800	0.362200	0.565400
H611	H61	0.696800	0.358100	0.570300
C941	C94	0.010300	0.353400	0.578900
H621	H62	0.076400	0.341500	0.593000
C951	C95	0.042600	0.377500	0.550600
H631	H63	0.130300	0.387300	0.545100
C961	C96	0.944800	0.387300	0.530300
H641	H64	0.967600	0.397200	0.510300
N171	N17	0.631800	0.470200	0.285860
C971	C97	0.762300	0.472900	0.282100
H651	H65	0.796300	0.483600	0.263100
N181	N18	0.529200	0.400300	0.468950
C981	C98	0.850800	0.460100	0.306400
H661	H66	0.941700	0.460000	0.303500
Ag51	Ag5	0.668560	0.383140	0.503990
N191	N19	0.343700	0.257500	0.281120
C991	C99	0.800000	0.448200	0.333300
H671	H67	0.855200	0.439600	0.349700
N201	N20	0.320500	0.116700	0.462760
C1001	C100	0.665300	0.448600	0.337020
C1011	C101	0.587100	0.458600	0.312900
H681	H68	0.496100	0.457100	0.315700
C1021	C102	0.605700	0.439700	0.366000
C1031	C103	0.556400	0.434400	0.388800
C1041	C104	0.497100	0.426500	0.417400
C1051	C105	0.576400	0.413800	0.441600
H691	H69	0.667400	0.414700	0.438900
C1061	C106	0.363600	0.424300	0.421500
H701	H70	0.306100	0.432400	0.405500
C1071	C107	0.317200	0.409900	0.449800
H711	H71	0.226900	0.407900	0.453400
C1081	C108	0.399700	0.398900	0.471500
H721	H72	0.364900	0.389300	0.490500
C1091	C109	0.220300	0.265100	0.272900
H731	H73	0.201600	0.280600	0.253100
C1101	C110	0.115100	0.251000	0.292800
H741	H74	0.028300	0.253600	0.286100
C1111	C111	0.141200	0.234000	0.321100
H751	H75	0.072700	0.229200	0.334800
C1121	C112	0.269200	0.223400	0.330300
C1131	C113	0.368000	0.236200	0.309800
H761	H76	0.455100	0.229900	0.316100
C1141	C114	0.304000	0.201000	0.358900
C1151	C115	0.339500	0.177100	0.384200
C1161	C116	0.379900	0.153800	0.412800
C1171	C117	0.285800	0.137800	0.434600
H771	H77	0.196800	0.141900	0.429700
C1181	C118	0.510300	0.146600	0.421100
H781	H78	0.576400	0.158500	0.407000
C1191	C119	0.542600	0.122500	0.449400
H791	H79	0.630300	0.112700	0.454900
C1201	C120	0.444800	0.112700	0.469700
H801	H80	0.467600	0.102800	0.489700
N211	N21	0.131800	0.970200	0.285860
C1211	C121	0.262300	0.972900	0.282100
H811	H81	0.296300	0.983600	0.263100
N221	N22	0.029200	0.900300	0.468950
C1221	C122	0.350800	0.960100	0.306400
H821	H82	0.441700	0.960000	0.303500
Ag61	Ag6	0.168560	0.883140	0.503990
N231	N23	0.843700	0.757500	0.281120
C1231	C123	0.300000	0.948200	0.333300
H831	H83	0.355200	0.939600	0.349700
N241	N24	0.820500	0.616700	0.462760
C1241	C124	0.165300	0.948600	0.337020
C1251	C125	0.087100	0.958600	0.312900
H841	H84	0.996100	0.957100	0.315700
C1261	C126	0.105700	0.939700	0.366000
C1271	C127	0.056400	0.934400	0.388800
C1281	C128	0.997100	0.926500	0.417400
C1291	C129	0.076400	0.913800	0.441600
H851	H85	0.167400	0.914700	0.438900
C1301	C130	0.863600	0.924300	0.421500
H861	H86	0.806100	0.932400	0.405500
C1311	C131	0.817200	0.909900	0.449800
H871	H87	0.726900	0.907900	0.453400
C1321	C132	0.899700	0.898900	0.471500
H881	H88	0.864900	0.889300	0.490500
C1331	C133	0.720300	0.765100	0.272900
H891	H89	0.701600	0.780600	0.253100
C1341	C134	0.615100	0.751000	0.292800
H901	H90	0.528300	0.753600	0.286100
C1351	C135	0.641200	0.734000	0.321100
H911	H91	0.572700	0.729200	0.334800
C1361	C136	0.769200	0.723400	0.330300
C1371	C137	0.868000	0.736200	0.309800
H921	H92	0.955100	0.729900	0.316100
C1381	C138	0.804000	0.701000	0.358900
C1391	C139	0.839500	0.677100	0.384200
C1401	C140	0.879900	0.653800	0.412800
C1411	C141	0.785800	0.637800	0.434600
H931	H93	0.696800	0.641900	0.429700
C1421	C142	0.010300	0.646600	0.421100
H941	H94	0.076400	0.658500	0.407000
C1431	C143	0.042600	0.622500	0.449400
H951	H95	0.130300	0.612700	0.454900
C1441	C144	0.944800	0.612700	0.469700
H961	H96	0.967600	0.602800	0.489700
N251	N25	0.368200	0.529800	0.785860
C1451	C145	0.237700	0.527100	0.782100
H971	H97	0.203700	0.516400	0.763100
N261	N26	0.470800	0.599700	0.968950
C1461	C146	0.149200	0.539900	0.806400
H981	H98	0.058300	0.540000	0.803500
Ag71	Ag7	0.331440	0.616860	0.003990
N271	N27	0.656300	0.742500	0.781120
C1471	C147	0.200000	0.551800	0.833300
H991	H99	0.144800	0.560400	0.849700
N281	N28	0.679500	0.883300	0.962760
C1481	C148	0.334700	0.551400	0.837020
C1491	C149	0.412900	0.541400	0.812900
H1001	H100	0.503900	0.542900	0.815700
C1501	C150	0.394300	0.560300	0.866000
C1511	C151	0.443600	0.565600	0.888800
C1521	C152	0.502900	0.573500	0.917400
C1531	C153	0.423600	0.586200	0.941600
H1011	H101	0.332600	0.585300	0.938900
C1541	C154	0.636400	0.575700	0.921500
H1021	H102	0.693900	0.567600	0.905500
C1551	C155	0.682800	0.590100	0.949800
H1031	H103	0.773100	0.592100	0.953400
C1561	C156	0.600300	0.601100	0.971500
H1041	H104	0.635100	0.610700	0.990500
C1571	C157	0.779700	0.734900	0.772900
H1051	H105	0.798400	0.719400	0.753100
C1581	C158	0.884900	0.749000	0.792800
H1061	H106	0.971700	0.746400	0.786100
C1591	C159	0.858800	0.766000	0.821100
H1071	H107	0.927300	0.770800	0.834800
C1601	C160	0.730800	0.776600	0.830300
C1611	C161	0.632000	0.763800	0.809800
H1081	H108	0.544900	0.770100	0.816100
C1621	C162	0.696000	0.799000	0.858900
C1631	C163	0.660500	0.822900	0.884200
C1641	C164	0.620100	0.846200	0.912800
C1651	C165	0.714200	0.862200	0.934600
H1091	H109	0.803200	0.858100	0.929700
C1661	C166	0.489700	0.853400	0.921100
H1101	H110	0.423600	0.841500	0.907000
C1671	C167	0.457400	0.877500	0.949400
H1111	H111	0.369700	0.887300	0.954900
C1681	C168	0.555200	0.887300	0.969700
H1121	H112	0.532400	0.897200	0.989700
N291	N29	0.868200	0.029800	0.785860
C1691	C169	0.737700	0.027100	0.782100
H1131	H113	0.703700	0.016400	0.763100
N301	N30	0.970800	0.099700	0.968950
C1701	C170	0.649200	0.039900	0.806400
H1141	H114	0.558300	0.040000	0.803500
Ag81	Ag8	0.831440	0.116860	0.003990
N311	N31	0.156300	0.242500	0.781120
C1711	C171	0.700000	0.051800	0.833300
H1151	H115	0.644800	0.060400	0.849700
N321	N32	0.179500	0.383300	0.962760
C1721	C172	0.834700	0.051400	0.837020
C1731	C173	0.912900	0.041400	0.812900
H1161	H116	0.003900	0.042900	0.815700
C1741	C174	0.894300	0.060300	0.866000
C1751	C175	0.943600	0.065600	0.888800
C1761	C176	0.002900	0.073500	0.917400
C1771	C177	0.923600	0.086200	0.941600
H1171	H117	0.832600	0.085300	0.938900
C1781	C178	0.136400	0.075700	0.921500
H1181	H118	0.193900	0.067600	0.905500
C1791	C179	0.182800	0.090100	0.949800
H1191	H119	0.273100	0.092100	0.953400
C1801	C180	0.100300	0.101100	0.971500
H1201	H120	0.135100	0.110700	0.990500
C1811	C181	0.279700	0.234900	0.772900
H1211	H121	0.298400	0.219400	0.753100
C1821	C182	0.384900	0.249000	0.792800
H1221	H122	0.471700	0.246400	0.786100
C1831	C183	0.358800	0.266000	0.821100
H1231	H123	0.427300	0.270800	0.834800
C1841	C184	0.230800	0.276600	0.830300
C1851	C185	0.132000	0.263800	0.809800
H1241	H124	0.044900	0.270100	0.816100
C1861	C186	0.196000	0.299000	0.858900
C1871	C187	0.160500	0.322900	0.884200
C1881	C188	0.120100	0.346200	0.912800
C1891	C189	0.214200	0.362200	0.934600
H1251	H125	0.303200	0.358100	0.929700
C1901	C190	0.989700	0.353400	0.921100
H1261	H126	0.923600	0.341500	0.907000
C1911	C191	0.957400	0.377500	0.949400
H1271	H127	0.869700	0.387300	0.954900
C1921	C192	0.055200	0.387300	0.969700
H1281	H128	0.032400	0.397200	0.989700
Ag91	Ag9	0.500000	0.487170	0.250000
Ag101	Ag10	0.500000	0.251790	0.250000
Ag111	Ag11	0.000000	0.987170	0.250000
Ag121	Ag12	0.000000	0.751790	0.250000
Ag131	Ag13	0.500000	0.512830	0.750000
Ag141	Ag14	0.500000	0.748210	0.750000
Ag151	Ag15	0.000000	0.012830	0.750000
Ag161	Ag16	0.000000	0.248210	0.750000
