data_GARQAU_clean_PM
_symmetry_space_group_name_H-M	'P1'
_cell_length_a	36.635000
_cell_length_b	36.635000
_cell_length_c	12.127800
_cell_angle_alpha	90.000000
_cell_angle_beta	90.000000
_cell_angle_gamma	120.000000
_symmetry_Int_Tables_number 1

loop_
_symmetry_equiv_pos_as_xyz
'x,y,z'

loop_
_atom_site_label
_atom_site_type_symbol
_atom_site_fract_x
_atom_site_fract_y
_atom_site_fract_z
Zn11	Zn1	0.135300	0.648830	0.443340
O11	O1	0.028130	0.789120	0.888580
O21	O2	0.968740	0.755060	0.988460
O31	O3	0.457110	0.855660	0.442460
O41	O4	0.443750	0.852050	0.261100
N11	N1	0.110480	0.656620	0.305670
N21	N2	0.110550	0.638380	0.208190
H11	H1	0.121100	0.621700	0.198900
N31	N3	0.193610	0.730580	0.546560
H21	H2	0.172800	0.728200	0.587900
N41	N4	0.190310	0.700450	0.475680
C11	C1	0.059850	0.697010	0.120000
C21	C2	0.004530	0.762740	0.962300
C31	C3	0.023900	0.739930	0.018500
C41	C4	0.062580	0.745880	0.982500
H31	H3	0.077000	0.764800	0.923700
C51	C5	0.080040	0.724180	0.032200
H41	H4	0.106100	0.727900	0.006200
C61	C6	0.021370	0.691620	0.156900
H51	H5	0.007400	0.673400	0.217300
C71	C7	0.003320	0.712670	0.105600
H61	H6	0.976900	0.708400	0.130200
C81	C8	0.079820	0.675460	0.175100
C91	C9	0.091610	0.679150	0.286300
C101	C10	0.092420	0.649100	0.127600
C111	C11	0.085890	0.704500	0.374400
H71	H7	0.071400	0.718600	0.343500
H81	H8	0.069000	0.685800	0.434500
H91	H9	0.113500	0.725700	0.402900
C121	C12	0.088190	0.633180	0.012300
H101	H10	0.074200	0.644700	0.966900
H111	H11	0.116200	0.642100	0.982100
H121	H12	0.071400	0.602300	0.012300
C131	C13	0.432650	0.847100	0.359200
C141	C14	0.386670	0.827560	0.387100
C151	C15	0.373630	0.823700	0.496300
H131	H13	0.393900	0.836000	0.553400
C161	C16	0.331300	0.802050	0.522100
H141	H14	0.322900	0.800100	0.597000
C171	C17	0.300650	0.783010	0.440800
C181	C18	0.314000	0.788760	0.331200
H151	H15	0.293700	0.777300	0.273700
C191	C19	0.356610	0.810990	0.305200
H161	H16	0.365100	0.814800	0.230100
C201	C20	0.255740	0.756390	0.469600
C211	C21	0.232530	0.764560	0.546000
C221	C22	0.228170	0.715970	0.428100
C231	C23	0.243840	0.801850	0.616700
H171	H17	0.273400	0.823100	0.604400
H181	H18	0.225900	0.813700	0.597800
H191	H19	0.239700	0.793300	0.694300
C241	C24	0.235990	0.689230	0.347700
H201	H20	0.235700	0.665800	0.387100
H211	H21	0.263500	0.706400	0.312300
H221	H22	0.213800	0.678100	0.291400
Zn21	Zn2	0.801970	0.982160	0.776670
O51	O5	0.694800	0.122450	0.221910
O61	O6	0.635410	0.088390	0.321790
O71	O7	0.123780	0.188990	0.775790
O81	O8	0.110420	0.185380	0.594430
N51	N5	0.777150	0.989950	0.639000
N61	N6	0.777220	0.971710	0.541520
H231	H23	0.787770	0.955030	0.532230
N71	N7	0.860280	0.063910	0.879890
H241	H24	0.839470	0.061530	0.921230
N81	N8	0.856980	0.033780	0.809010
C251	C25	0.726520	0.030340	0.453330
C261	C26	0.671200	0.096070	0.295630
C271	C27	0.690570	0.073260	0.351830
C281	C28	0.729250	0.079210	0.315830
H251	H25	0.743670	0.098130	0.257030
C291	C29	0.746710	0.057510	0.365530
H261	H26	0.772770	0.061230	0.339530
C301	C30	0.688040	0.024950	0.490230
H271	H27	0.674070	0.006730	0.550630
C311	C31	0.669990	0.046000	0.438930
H281	H28	0.643570	0.041730	0.463530
C321	C32	0.746490	0.008790	0.508430
C331	C33	0.758280	0.012480	0.619630
C341	C34	0.759090	0.982430	0.460930
C351	C35	0.752560	0.037830	0.707730
H291	H29	0.738070	0.051930	0.676830
H301	H30	0.735670	0.019130	0.767830
H311	H31	0.780170	0.059030	0.736230
C361	C36	0.754860	0.966510	0.345630
H321	H32	0.740870	0.978030	0.300230
H331	H33	0.782870	0.975430	0.315430
H341	H34	0.738070	0.935630	0.345630
C371	C37	0.099320	0.180430	0.692530
C381	C38	0.053340	0.160890	0.720430
C391	C39	0.040300	0.157030	0.829630
H351	H35	0.060570	0.169330	0.886730
C401	C40	0.997970	0.135380	0.855430
H361	H36	0.989570	0.133430	0.930330
C411	C41	0.967320	0.116340	0.774130
C421	C42	0.980670	0.122090	0.664530
H371	H37	0.960370	0.110630	0.607030
C431	C43	0.023280	0.144320	0.638530
H381	H38	0.031770	0.148130	0.563430
C441	C44	0.922410	0.089720	0.802930
C451	C45	0.899200	0.097890	0.879330
C461	C46	0.894840	0.049300	0.761430
C471	C47	0.910510	0.135180	0.950030
H391	H39	0.940070	0.156430	0.937730
H401	H40	0.892570	0.147030	0.931130
H411	H41	0.906370	0.126630	0.027630
C481	C48	0.902660	0.022560	0.681030
H421	H42	0.902370	0.999130	0.720430
H431	H43	0.930170	0.039730	0.645630
H441	H44	0.880470	0.011430	0.624730
Zn31	Zn3	0.468630	0.315500	0.110010
O91	O9	0.361460	0.455790	0.555250
O101	O10	0.302070	0.421730	0.655130
O111	O11	0.790440	0.522330	0.109130
O121	O12	0.777080	0.518720	0.927770
N91	N9	0.443810	0.323290	0.972340
N101	N10	0.443880	0.305050	0.874860
H451	H45	0.454430	0.288370	0.865570
N111	N11	0.526940	0.397250	0.213230
H461	H46	0.506130	0.394870	0.254570
N121	N12	0.523640	0.367120	0.142350
C491	C49	0.393180	0.363680	0.786670
C501	C50	0.337860	0.429410	0.628970
C511	C51	0.357230	0.406600	0.685170
C521	C52	0.395910	0.412550	0.649170
H471	H47	0.410330	0.431470	0.590370
C531	C53	0.413370	0.390850	0.698870
H481	H48	0.439430	0.394570	0.672870
C541	C54	0.354700	0.358290	0.823570
H491	H49	0.340730	0.340070	0.883970
C551	C55	0.336650	0.379340	0.772270
H501	H50	0.310230	0.375070	0.796870
C561	C56	0.413150	0.342130	0.841770
C571	C57	0.424940	0.345820	0.952970
C581	C58	0.425750	0.315770	0.794270
C591	C59	0.419220	0.371170	0.041070
H511	H51	0.404730	0.385270	0.010170
H521	H52	0.402330	0.352470	0.101170
H531	H53	0.446830	0.392370	0.069570
C601	C60	0.421520	0.299850	0.678970
H541	H54	0.407530	0.311370	0.633570
H551	H55	0.449530	0.308770	0.648770
H561	H56	0.404730	0.268970	0.678970
C611	C61	0.765980	0.513770	0.025870
C621	C62	0.720000	0.494230	0.053770
C631	C63	0.706960	0.490370	0.162970
H571	H57	0.727230	0.502670	0.220070
C641	C64	0.664630	0.468720	0.188770
H581	H58	0.656230	0.466770	0.263670
C651	C65	0.633980	0.449680	0.107470
C661	C66	0.647330	0.455430	0.997870
H591	H59	0.627030	0.443970	0.940370
C671	C67	0.689940	0.477660	0.971870
H601	H60	0.698430	0.481470	0.896770
C681	C68	0.589070	0.423060	0.136270
C691	C69	0.565860	0.431230	0.212670
C701	C70	0.561500	0.382640	0.094770
C711	C71	0.577170	0.468520	0.283370
H611	H61	0.606730	0.489770	0.271070
H621	H62	0.559230	0.480370	0.264470
H631	H63	0.573030	0.459970	0.360970
C721	C72	0.569320	0.355900	0.014370
H641	H64	0.569030	0.332470	0.053770
H651	H65	0.596830	0.373070	0.978970
H661	H66	0.547130	0.344770	0.958070
Zn41	Zn4	0.351170	0.486470	0.443340
O131	O13	0.210880	0.239010	0.888580
O141	O14	0.244940	0.213680	0.988460
O151	O15	0.144340	0.601450	0.442460
O161	O16	0.147950	0.591700	0.261100
N131	N13	0.343380	0.453860	0.305670
N141	N14	0.361620	0.472170	0.208190
H671	H67	0.378300	0.499400	0.198900
N151	N15	0.269420	0.463030	0.546560
H681	H68	0.271800	0.444600	0.587900
N161	N16	0.299550	0.489860	0.475680
C731	C73	0.302990	0.362840	0.120000
C741	C74	0.237260	0.241790	0.962300
C751	C75	0.260070	0.283970	0.018500
C761	C76	0.254120	0.316700	0.982500
H691	H69	0.235200	0.312200	0.923700
C771	C77	0.275820	0.355860	0.032200
H701	H70	0.272100	0.378200	0.006200
C781	C78	0.308380	0.329750	0.156900
H711	H71	0.326600	0.334000	0.217300
C791	C79	0.287330	0.290650	0.105600
H721	H72	0.291600	0.268500	0.130200
C801	C80	0.324540	0.404360	0.175100
C811	C81	0.320850	0.412460	0.286300
C821	C82	0.350900	0.443320	0.127600
C831	C83	0.295500	0.381390	0.374400
H731	H73	0.281400	0.352800	0.343500
H741	H74	0.314200	0.383200	0.434500
H751	H75	0.274300	0.387800	0.402900
C841	C84	0.366820	0.455010	0.012300
H761	H76	0.355300	0.429500	0.966900
H771	H77	0.357900	0.474100	0.982100
H781	H78	0.397700	0.469100	0.012300
C851	C85	0.152900	0.585550	0.359200
C861	C86	0.172440	0.559110	0.387100
C871	C87	0.176300	0.549930	0.496300
H791	H79	0.164000	0.557900	0.553400
C881	C88	0.197950	0.529250	0.522100
H801	H80	0.199900	0.522800	0.597000
C891	C89	0.216990	0.517640	0.440800
C901	C90	0.211240	0.525240	0.331200
H811	H81	0.222700	0.516400	0.273700
C911	C91	0.189010	0.545620	0.305200
H821	H82	0.185200	0.550300	0.230100
C921	C92	0.243610	0.499350	0.469600
C931	C93	0.235440	0.467970	0.546000
C941	C94	0.284030	0.512200	0.428100
C951	C95	0.198150	0.441990	0.616700
H831	H83	0.176900	0.450300	0.604400
H841	H84	0.186300	0.412200	0.597800
H851	H85	0.206700	0.446400	0.694300
C961	C96	0.310770	0.546760	0.347700
H861	H86	0.334200	0.569900	0.387100
H871	H87	0.293600	0.557100	0.312300
H881	H88	0.321900	0.535700	0.291400
Zn51	Zn5	0.017840	0.819800	0.776670
O171	O17	0.877550	0.572340	0.221910
O181	O18	0.911610	0.547010	0.321790
O191	O19	0.811010	0.934780	0.775790
O201	O20	0.814620	0.925030	0.594430
N171	N17	0.010050	0.787190	0.639000
N181	N18	0.028290	0.805500	0.541520
H891	H89	0.044970	0.832730	0.532230
N191	N19	0.936090	0.796360	0.879890
H901	H90	0.938470	0.777930	0.921230
N201	N20	0.966220	0.823190	0.809010
C971	C97	0.969660	0.696170	0.453330
C981	C98	0.903930	0.575120	0.295630
C991	C99	0.926740	0.617300	0.351830
C1001	C100	0.920790	0.650030	0.315830
H911	H91	0.901870	0.645530	0.257030
C1011	C101	0.942490	0.689190	0.365530
H921	H92	0.938770	0.711530	0.339530
C1021	C102	0.975050	0.663080	0.490230
H931	H93	0.993270	0.667330	0.550630
C1031	C103	0.954000	0.623980	0.438930
H941	H94	0.958270	0.601830	0.463530
C1041	C104	0.991210	0.737690	0.508430
C1051	C105	0.987520	0.745790	0.619630
C1061	C106	0.017570	0.776650	0.460930
C1071	C107	0.962170	0.714720	0.707730
H951	H95	0.948070	0.686130	0.676830
H961	H96	0.980870	0.716530	0.767830
H971	H97	0.940970	0.721130	0.736230
C1081	C108	0.033490	0.788340	0.345630
H981	H98	0.021970	0.762830	0.300230
H991	H99	0.024570	0.807430	0.315430
H1001	H100	0.064370	0.802430	0.345630
C1091	C109	0.819570	0.918880	0.692530
C1101	C110	0.839110	0.892440	0.720430
C1111	C111	0.842970	0.883260	0.829630
H1011	H101	0.830670	0.891230	0.886730
C1121	C112	0.864620	0.862580	0.855430
H1021	H102	0.866570	0.856130	0.930330
C1131	C113	0.883660	0.850970	0.774130
C1141	C114	0.877910	0.858570	0.664530
H1031	H103	0.889370	0.849730	0.607030
C1151	C115	0.855680	0.878950	0.638530
H1041	H104	0.851870	0.883630	0.563430
C1161	C116	0.910280	0.832680	0.802930
C1171	C117	0.902110	0.801300	0.879330
C1181	C118	0.950700	0.845530	0.761430
C1191	C119	0.864820	0.775320	0.950030
H1051	H105	0.843570	0.783630	0.937730
H1061	H106	0.852970	0.745530	0.931130
H1071	H107	0.873370	0.779730	0.027630
C1201	C120	0.977440	0.880090	0.681030
H1081	H108	0.000870	0.903230	0.720430
H1091	H109	0.960270	0.890430	0.645630
H1101	H110	0.988570	0.869030	0.624730
Zn61	Zn6	0.684500	0.153140	0.110010
O211	O21	0.544210	0.905680	0.555250
O221	O22	0.578270	0.880350	0.655130
O231	O23	0.477670	0.268120	0.109130
O241	O24	0.481280	0.258370	0.927770
N211	N21	0.676710	0.120530	0.972340
N221	N22	0.694950	0.138840	0.874860
H1111	H111	0.711630	0.166070	0.865570
N231	N23	0.602750	0.129700	0.213230
H1121	H112	0.605130	0.111270	0.254570
N241	N24	0.632880	0.156530	0.142350
C1211	C121	0.636320	0.029510	0.786670
C1221	C122	0.570590	0.908460	0.628970
C1231	C123	0.593400	0.950640	0.685170
C1241	C124	0.587450	0.983370	0.649170
H1131	H113	0.568530	0.978870	0.590370
C1251	C125	0.609150	0.022530	0.698870
H1141	H114	0.605430	0.044870	0.672870
C1261	C126	0.641710	0.996420	0.823570
H1151	H115	0.659930	0.000670	0.883970
C1271	C127	0.620660	0.957320	0.772270
H1161	H116	0.624930	0.935170	0.796870
C1281	C128	0.657870	0.071030	0.841770
C1291	C129	0.654180	0.079130	0.952970
C1301	C130	0.684230	0.109990	0.794270
C1311	C131	0.628830	0.048060	0.041070
H1171	H117	0.614730	0.019470	0.010170
H1181	H118	0.647530	0.049870	0.101170
H1191	H119	0.607630	0.054470	0.069570
C1321	C132	0.700150	0.121680	0.678970
H1201	H120	0.688630	0.096170	0.633570
H1211	H121	0.691230	0.140770	0.648770
H1221	H122	0.731030	0.135770	0.678970
C1331	C133	0.486230	0.252220	0.025870
C1341	C134	0.505770	0.225780	0.053770
C1351	C135	0.509630	0.216600	0.162970
H1231	H123	0.497330	0.224570	0.220070
C1361	C136	0.531280	0.195920	0.188770
H1241	H124	0.533230	0.189470	0.263670
C1371	C137	0.550320	0.184310	0.107470
C1381	C138	0.544570	0.191910	0.997870
H1251	H125	0.556030	0.183070	0.940370
C1391	C139	0.522340	0.212290	0.971870
H1261	H126	0.518530	0.216970	0.896770
C1401	C140	0.576940	0.166020	0.136270
C1411	C141	0.568770	0.134640	0.212670
C1421	C142	0.617360	0.178870	0.094770
C1431	C143	0.531480	0.108660	0.283370
H1271	H127	0.510230	0.116970	0.271070
H1281	H128	0.519630	0.078870	0.264470
H1291	H129	0.540030	0.113070	0.360970
C1441	C144	0.644100	0.213430	0.014370
H1301	H130	0.667530	0.236570	0.053770
H1311	H131	0.626930	0.223770	0.978970
H1321	H132	0.655230	0.202370	0.958070
Zn71	Zn7	0.513530	0.864700	0.443340
O251	O25	0.760990	0.971870	0.888580
O261	O26	0.786320	0.031260	0.988460
O271	O27	0.398550	0.542890	0.442460
O281	O28	0.408300	0.556250	0.261100
N251	N25	0.546140	0.889520	0.305670
N261	N26	0.527830	0.889450	0.208190
H1331	H133	0.500600	0.878900	0.198900
N271	N27	0.536970	0.806390	0.546560
H1341	H134	0.555400	0.827200	0.587900
N281	N28	0.510140	0.809690	0.475680
C1451	C145	0.637160	0.940150	0.120000
C1461	C146	0.758210	0.995470	0.962300
C1471	C147	0.716030	0.976100	0.018500
C1481	C148	0.683300	0.937420	0.982500
H1351	H135	0.687800	0.923000	0.923700
C1491	C149	0.644140	0.919960	0.032200
H1361	H136	0.621800	0.893900	0.006200
C1501	C150	0.670250	0.978630	0.156900
H1371	H137	0.666000	0.992600	0.217300
C1511	C151	0.709350	0.996680	0.105600
H1381	H138	0.731500	0.023100	0.130200
C1521	C152	0.595640	0.920180	0.175100
C1531	C153	0.587540	0.908390	0.286300
C1541	C154	0.556680	0.907580	0.127600
C1551	C155	0.618610	0.914110	0.374400
H1391	H139	0.647200	0.928600	0.343500
H1401	H140	0.616800	0.931000	0.434500
H1411	H141	0.612200	0.886500	0.402900
C1561	C156	0.544990	0.911810	0.012300
H1421	H142	0.570500	0.925800	0.966900
H1431	H143	0.525900	0.883800	0.982100
H1441	H144	0.530900	0.928600	0.012300
C1571	C157	0.414450	0.567350	0.359200
C1581	C158	0.440890	0.613330	0.387100
C1591	C159	0.450070	0.626370	0.496300
H1451	H145	0.442100	0.606100	0.553400
C1601	C160	0.470750	0.668700	0.522100
H1461	H146	0.477200	0.677100	0.597000
C1611	C161	0.482360	0.699350	0.440800
C1621	C162	0.474760	0.686000	0.331200
H1471	H147	0.483600	0.706300	0.273700
C1631	C163	0.454380	0.643390	0.305200
H1481	H148	0.449700	0.634900	0.230100
C1641	C164	0.500650	0.744260	0.469600
C1651	C165	0.532030	0.767470	0.546000
C1661	C166	0.487800	0.771830	0.428100
C1671	C167	0.558010	0.756160	0.616700
H1491	H149	0.549700	0.726600	0.604400
H1501	H150	0.587800	0.774100	0.597800
H1511	H151	0.553600	0.760300	0.694300
C1681	C168	0.453240	0.764010	0.347700
H1521	H152	0.430100	0.764300	0.387100
H1531	H153	0.442900	0.736500	0.312300
H1541	H154	0.464300	0.786200	0.291400
Zn81	Zn8	0.180200	0.198030	0.776670
O291	O29	0.427660	0.305200	0.221910
O301	O30	0.452990	0.364590	0.321790
O311	O31	0.065220	0.876220	0.775790
O321	O32	0.074970	0.889580	0.594430
N291	N29	0.212810	0.222850	0.639000
N301	N30	0.194500	0.222780	0.541520
H1551	H155	0.167270	0.212230	0.532230
N311	N31	0.203640	0.139720	0.879890
H1561	H156	0.222070	0.160530	0.921230
N321	N32	0.176810	0.143020	0.809010
C1691	C169	0.303830	0.273480	0.453330
C1701	C170	0.424880	0.328800	0.295630
C1711	C171	0.382700	0.309430	0.351830
C1721	C172	0.349970	0.270750	0.315830
H1571	H157	0.354470	0.256330	0.257030
C1731	C173	0.310810	0.253290	0.365530
H1581	H158	0.288470	0.227230	0.339530
C1741	C174	0.336920	0.311960	0.490230
H1591	H159	0.332670	0.325930	0.550630
C1751	C175	0.376020	0.330010	0.438930
H1601	H160	0.398170	0.356430	0.463530
C1761	C176	0.262310	0.253510	0.508430
C1771	C177	0.254210	0.241720	0.619630
C1781	C178	0.223350	0.240910	0.460930
C1791	C179	0.285280	0.247440	0.707730
H1611	H161	0.313870	0.261930	0.676830
H1621	H162	0.283470	0.264330	0.767830
H1631	H163	0.278870	0.219830	0.736230
C1801	C180	0.211660	0.245140	0.345630
H1641	H164	0.237170	0.259130	0.300230
H1651	H165	0.192570	0.217130	0.315430
H1661	H166	0.197570	0.261930	0.345630
C1811	C181	0.081120	0.900680	0.692530
C1821	C182	0.107560	0.946660	0.720430
C1831	C183	0.116740	0.959700	0.829630
H1671	H167	0.108770	0.939430	0.886730
C1841	C184	0.137420	0.002030	0.855430
H1681	H168	0.143870	0.010430	0.930330
C1851	C185	0.149030	0.032680	0.774130
C1861	C186	0.141430	0.019330	0.664530
H1691	H169	0.150270	0.039630	0.607030
C1871	C187	0.121050	0.976720	0.638530
H1701	H170	0.116370	0.968230	0.563430
C1881	C188	0.167320	0.077590	0.802930
C1891	C189	0.198700	0.100800	0.879330
C1901	C190	0.154470	0.105160	0.761430
C1911	C191	0.224680	0.089490	0.950030
H1711	H171	0.216370	0.059930	0.937730
H1721	H172	0.254470	0.107430	0.931130
H1731	H173	0.220270	0.093630	0.027630
C1921	C192	0.119910	0.097340	0.681030
H1741	H174	0.096770	0.097630	0.720430
H1751	H175	0.109570	0.069830	0.645630
H1761	H176	0.130970	0.119530	0.624730
Zn91	Zn9	0.846860	0.531370	0.110010
O331	O33	0.094320	0.638540	0.555250
O341	O34	0.119650	0.697930	0.655130
O351	O35	0.731880	0.209560	0.109130
O361	O36	0.741630	0.222920	0.927770
N331	N33	0.879470	0.556190	0.972340
N341	N34	0.861160	0.556120	0.874860
H1771	H177	0.833930	0.545570	0.865570
N351	N35	0.870300	0.473060	0.213230
H1781	H178	0.888730	0.493870	0.254570
N361	N36	0.843470	0.476360	0.142350
C1931	C193	0.970490	0.606820	0.786670
C1941	C194	0.091540	0.662140	0.628970
C1951	C195	0.049360	0.642770	0.685170
C1961	C196	0.016630	0.604090	0.649170
H1791	H179	0.021130	0.589670	0.590370
C1971	C197	0.977470	0.586630	0.698870
H1801	H180	0.955130	0.560570	0.672870
C1981	C198	0.003580	0.645300	0.823570
H1811	H181	0.999330	0.659270	0.883970
C1991	C199	0.042680	0.663350	0.772270
H1821	H182	0.064830	0.689770	0.796870
C2001	C200	0.928970	0.586850	0.841770
C2011	C201	0.920870	0.575060	0.952970
C2021	C202	0.890010	0.574250	0.794270
C2031	C203	0.951940	0.580780	0.041070
H1831	H183	0.980530	0.595270	0.010170
H1841	H184	0.950130	0.597670	0.101170
H1851	H185	0.945530	0.553170	0.069570
C2041	C204	0.878320	0.578480	0.678970
H1861	H186	0.903830	0.592470	0.633570
H1871	H187	0.859230	0.550470	0.648770
H1881	H188	0.864230	0.595270	0.678970
C2051	C205	0.747780	0.234020	0.025870
C2061	C206	0.774220	0.280000	0.053770
C2071	C207	0.783400	0.293040	0.162970
H1891	H189	0.775430	0.272770	0.220070
C2081	C208	0.804080	0.335370	0.188770
H1901	H190	0.810530	0.343770	0.263670
C2091	C209	0.815690	0.366020	0.107470
C2101	C210	0.808090	0.352670	0.997870
H1911	H191	0.816930	0.372970	0.940370
C2111	C211	0.787710	0.310060	0.971870
H1921	H192	0.783030	0.301570	0.896770
C2121	C212	0.833980	0.410930	0.136270
C2131	C213	0.865360	0.434140	0.212670
C2141	C214	0.821130	0.438500	0.094770
C2151	C215	0.891340	0.422830	0.283370
H1931	H193	0.883030	0.393270	0.271070
H1941	H194	0.921130	0.440770	0.264470
H1951	H195	0.886930	0.426970	0.360970
C2161	C216	0.786570	0.430680	0.014370
H1961	H196	0.763430	0.430970	0.053770
H1971	H197	0.776230	0.403170	0.978970
H1981	H198	0.797630	0.452870	0.958070
Zn101	Zn10	0.864700	0.351170	0.556660
O371	O37	0.971870	0.210880	0.111420
O381	O38	0.031260	0.244940	0.011540
O391	O39	0.542890	0.144340	0.557540
O401	O40	0.556250	0.147950	0.738900
N371	N37	0.889520	0.343380	0.694330
N381	N38	0.889450	0.361620	0.791810
H1991	H199	0.878900	0.378300	0.801100
N391	N39	0.806390	0.269420	0.453440
H2001	H200	0.827200	0.271800	0.412100
N401	N40	0.809690	0.299550	0.524320
C2171	C217	0.940150	0.302990	0.880000
C2181	C218	0.995470	0.237260	0.037700
C2191	C219	0.976100	0.260070	0.981500
C2201	C220	0.937420	0.254120	0.017500
H2011	H201	0.923000	0.235200	0.076300
C2211	C221	0.919960	0.275820	0.967800
H2021	H202	0.893900	0.272100	0.993800
C2221	C222	0.978630	0.308380	0.843100
H2031	H203	0.992600	0.326600	0.782700
C2231	C223	0.996680	0.287330	0.894400
H2041	H204	0.023100	0.291600	0.869800
C2241	C224	0.920180	0.324540	0.824900
C2251	C225	0.908390	0.320850	0.713700
C2261	C226	0.907580	0.350900	0.872400
C2271	C227	0.914110	0.295500	0.625600
H2051	H205	0.928600	0.281400	0.656500
H2061	H206	0.931000	0.314200	0.565500
H2071	H207	0.886500	0.274300	0.597100
C2281	C228	0.911810	0.366820	0.987700
H2081	H208	0.925800	0.355300	0.033100
H2091	H209	0.883800	0.357900	0.017900
H2101	H210	0.928600	0.397700	0.987700
C2291	C229	0.567350	0.152900	0.640800
C2301	C230	0.613330	0.172440	0.612900
C2311	C231	0.626370	0.176300	0.503700
H2111	H211	0.606100	0.164000	0.446600
C2321	C232	0.668700	0.197950	0.477900
H2121	H212	0.677100	0.199900	0.403000
C2331	C233	0.699350	0.216990	0.559200
C2341	C234	0.686000	0.211240	0.668800
H2131	H213	0.706300	0.222700	0.726300
C2351	C235	0.643390	0.189010	0.694800
H2141	H214	0.634900	0.185200	0.769900
C2361	C236	0.744260	0.243610	0.530400
C2371	C237	0.767470	0.235440	0.454000
C2381	C238	0.771830	0.284030	0.571900
C2391	C239	0.756160	0.198150	0.383300
H2151	H215	0.726600	0.176900	0.395600
H2161	H216	0.774100	0.186300	0.402200
H2171	H217	0.760300	0.206700	0.305700
C2401	C240	0.764010	0.310770	0.652300
H2181	H218	0.764300	0.334200	0.612900
H2191	H219	0.736500	0.293600	0.687700
H2201	H220	0.786200	0.321900	0.708600
Zn111	Zn11	0.531370	0.684500	0.889990
O411	O41	0.638540	0.544210	0.444750
O421	O42	0.697930	0.578270	0.344870
O431	O43	0.209560	0.477670	0.890870
O441	O44	0.222920	0.481280	0.072230
N411	N41	0.556190	0.676710	0.027660
N421	N42	0.556120	0.694950	0.125140
H2211	H221	0.545570	0.711630	0.134430
N431	N43	0.473060	0.602750	0.786770
H2221	H222	0.493870	0.605130	0.745430
N441	N44	0.476360	0.632880	0.857650
C2411	C241	0.606820	0.636320	0.213330
C2421	C242	0.662140	0.570590	0.371030
C2431	C243	0.642770	0.593400	0.314830
C2441	C244	0.604090	0.587450	0.350830
H2231	H223	0.589670	0.568530	0.409630
C2451	C245	0.586630	0.609150	0.301130
H2241	H224	0.560570	0.605430	0.327130
C2461	C246	0.645300	0.641710	0.176430
H2251	H225	0.659270	0.659930	0.116030
C2471	C247	0.663350	0.620660	0.227730
H2261	H226	0.689770	0.624930	0.203130
C2481	C248	0.586850	0.657870	0.158230
C2491	C249	0.575060	0.654180	0.047030
C2501	C250	0.574250	0.684230	0.205730
C2511	C251	0.580780	0.628830	0.958930
H2271	H227	0.595270	0.614730	0.989830
H2281	H228	0.597670	0.647530	0.898830
H2291	H229	0.553170	0.607630	0.930430
C2521	C252	0.578480	0.700150	0.321030
H2301	H230	0.592470	0.688630	0.366430
H2311	H231	0.550470	0.691230	0.351230
H2321	H232	0.595270	0.731030	0.321030
C2531	C253	0.234020	0.486230	0.974130
C2541	C254	0.280000	0.505770	0.946230
C2551	C255	0.293040	0.509630	0.837030
H2331	H233	0.272770	0.497330	0.779930
C2561	C256	0.335370	0.531280	0.811230
H2341	H234	0.343770	0.533230	0.736330
C2571	C257	0.366020	0.550320	0.892530
C2581	C258	0.352670	0.544570	0.002130
H2351	H235	0.372970	0.556030	0.059630
C2591	C259	0.310060	0.522340	0.028130
H2361	H236	0.301570	0.518530	0.103230
C2601	C260	0.410930	0.576940	0.863730
C2611	C261	0.434140	0.568770	0.787330
C2621	C262	0.438500	0.617360	0.905230
C2631	C263	0.422830	0.531480	0.716630
H2371	H237	0.393270	0.510230	0.728930
H2381	H238	0.440770	0.519630	0.735530
H2391	H239	0.426970	0.540030	0.639030
C2641	C264	0.430680	0.644100	0.985630
H2401	H240	0.430970	0.667530	0.946230
H2411	H241	0.403170	0.626930	0.021030
H2421	H242	0.452870	0.655230	0.041930
Zn121	Zn12	0.198030	0.017840	0.223330
O451	O45	0.305200	0.877550	0.778090
O461	O46	0.364590	0.911610	0.678210
O471	O47	0.876220	0.811010	0.224210
O481	O48	0.889580	0.814620	0.405570
N451	N45	0.222850	0.010050	0.361000
N461	N46	0.222780	0.028290	0.458480
H2431	H243	0.212230	0.044970	0.467770
N471	N47	0.139720	0.936090	0.120110
H2441	H244	0.160530	0.938470	0.078770
N481	N48	0.143020	0.966220	0.190990
C2651	C265	0.273480	0.969660	0.546670
C2661	C266	0.328800	0.903930	0.704370
C2671	C267	0.309430	0.926740	0.648170
C2681	C268	0.270750	0.920790	0.684170
H2451	H245	0.256330	0.901870	0.742970
C2691	C269	0.253290	0.942490	0.634470
H2461	H246	0.227230	0.938770	0.660470
C2701	C270	0.311960	0.975050	0.509770
H2471	H247	0.325930	0.993270	0.449370
C2711	C271	0.330010	0.954000	0.561070
H2481	H248	0.356430	0.958270	0.536470
C2721	C272	0.253510	0.991210	0.491570
C2731	C273	0.241720	0.987520	0.380370
C2741	C274	0.240910	0.017570	0.539070
C2751	C275	0.247440	0.962170	0.292270
H2491	H249	0.261930	0.948070	0.323170
H2501	H250	0.264330	0.980870	0.232170
H2511	H251	0.219830	0.940970	0.263770
C2761	C276	0.245140	0.033490	0.654370
H2521	H252	0.259130	0.021970	0.699770
H2531	H253	0.217130	0.024570	0.684570
H2541	H254	0.261930	0.064370	0.654370
C2771	C277	0.900680	0.819570	0.307470
C2781	C278	0.946660	0.839110	0.279570
C2791	C279	0.959700	0.842970	0.170370
H2551	H255	0.939430	0.830670	0.113270
C2801	C280	0.002030	0.864620	0.144570
H2561	H256	0.010430	0.866570	0.069670
C2811	C281	0.032680	0.883660	0.225870
C2821	C282	0.019330	0.877910	0.335470
H2571	H257	0.039630	0.889370	0.392970
C2831	C283	0.976720	0.855680	0.361470
H2581	H258	0.968230	0.851870	0.436570
C2841	C284	0.077590	0.910280	0.197070
C2851	C285	0.100800	0.902110	0.120670
C2861	C286	0.105160	0.950700	0.238570
C2871	C287	0.089490	0.864820	0.049970
H2591	H259	0.059930	0.843570	0.062270
H2601	H260	0.107430	0.852970	0.068870
H2611	H261	0.093630	0.873370	0.972370
C2881	C288	0.097340	0.977440	0.318970
H2621	H262	0.097630	0.000870	0.279570
H2631	H263	0.069830	0.960270	0.354370
H2641	H264	0.119530	0.988570	0.375270
Zn131	Zn13	0.648830	0.513530	0.556660
O491	O49	0.789120	0.760990	0.111420
O501	O50	0.755060	0.786320	0.011540
O511	O51	0.855660	0.398550	0.557540
O521	O52	0.852050	0.408300	0.738900
N491	N49	0.656620	0.546140	0.694330
N501	N50	0.638380	0.527830	0.791810
H2651	H265	0.621700	0.500600	0.801100
N511	N51	0.730580	0.536970	0.453440
H2661	H266	0.728200	0.555400	0.412100
N521	N52	0.700450	0.510140	0.524320
C2891	C289	0.697010	0.637160	0.880000
C2901	C290	0.762740	0.758210	0.037700
C2911	C291	0.739930	0.716030	0.981500
C2921	C292	0.745880	0.683300	0.017500
H2671	H267	0.764800	0.687800	0.076300
C2931	C293	0.724180	0.644140	0.967800
H2681	H268	0.727900	0.621800	0.993800
C2941	C294	0.691620	0.670250	0.843100
H2691	H269	0.673400	0.666000	0.782700
C2951	C295	0.712670	0.709350	0.894400
H2701	H270	0.708400	0.731500	0.869800
C2961	C296	0.675460	0.595640	0.824900
C2971	C297	0.679150	0.587540	0.713700
C2981	C298	0.649100	0.556680	0.872400
C2991	C299	0.704500	0.618610	0.625600
H2711	H271	0.718600	0.647200	0.656500
H2721	H272	0.685800	0.616800	0.565500
H2731	H273	0.725700	0.612200	0.597100
C3001	C300	0.633180	0.544990	0.987700
H2741	H274	0.644700	0.570500	0.033100
H2751	H275	0.642100	0.525900	0.017900
H2761	H276	0.602300	0.530900	0.987700
C3011	C301	0.847100	0.414450	0.640800
C3021	C302	0.827560	0.440890	0.612900
C3031	C303	0.823700	0.450070	0.503700
H2771	H277	0.836000	0.442100	0.446600
C3041	C304	0.802050	0.470750	0.477900
H2781	H278	0.800100	0.477200	0.403000
C3051	C305	0.783010	0.482360	0.559200
C3061	C306	0.788760	0.474760	0.668800
H2791	H279	0.777300	0.483600	0.726300
C3071	C307	0.810990	0.454380	0.694800
H2801	H280	0.814800	0.449700	0.769900
C3081	C308	0.756390	0.500650	0.530400
C3091	C309	0.764560	0.532030	0.454000
C3101	C310	0.715970	0.487800	0.571900
C3111	C311	0.801850	0.558010	0.383300
H2811	H281	0.823100	0.549700	0.395600
H2821	H282	0.813700	0.587800	0.402200
H2831	H283	0.793300	0.553600	0.305700
C3121	C312	0.689230	0.453240	0.652300
H2841	H284	0.665800	0.430100	0.612900
H2851	H285	0.706400	0.442900	0.687700
H2861	H286	0.678100	0.464300	0.708600
Zn141	Zn14	0.315500	0.846860	0.889990
O531	O53	0.455790	0.094320	0.444750
O541	O54	0.421730	0.119650	0.344870
O551	O55	0.522330	0.731880	0.890870
O561	O56	0.518720	0.741630	0.072230
N531	N53	0.323290	0.879470	0.027660
N541	N54	0.305050	0.861160	0.125140
H2871	H287	0.288370	0.833930	0.134430
N551	N55	0.397250	0.870300	0.786770
H2881	H288	0.394870	0.888730	0.745430
N561	N56	0.367120	0.843470	0.857650
C3131	C313	0.363680	0.970490	0.213330
C3141	C314	0.429410	0.091540	0.371030
C3151	C315	0.406600	0.049360	0.314830
C3161	C316	0.412550	0.016630	0.350830
H2891	H289	0.431470	0.021130	0.409630
C3171	C317	0.390850	0.977470	0.301130
H2901	H290	0.394570	0.955130	0.327130
C3181	C318	0.358290	0.003580	0.176430
H2911	H291	0.340070	0.999330	0.116030
C3191	C319	0.379340	0.042680	0.227730
H2921	H292	0.375070	0.064830	0.203130
C3201	C320	0.342130	0.928970	0.158230
C3211	C321	0.345820	0.920870	0.047030
C3221	C322	0.315770	0.890010	0.205730
C3231	C323	0.371170	0.951940	0.958930
H2931	H293	0.385270	0.980530	0.989830
H2941	H294	0.352470	0.950130	0.898830
H2951	H295	0.392370	0.945530	0.930430
C3241	C324	0.299850	0.878320	0.321030
H2961	H296	0.311370	0.903830	0.366430
H2971	H297	0.308770	0.859230	0.351230
H2981	H298	0.268970	0.864230	0.321030
C3251	C325	0.513770	0.747780	0.974130
C3261	C326	0.494230	0.774220	0.946230
C3271	C327	0.490370	0.783400	0.837030
H2991	H299	0.502670	0.775430	0.779930
C3281	C328	0.468720	0.804080	0.811230
H3001	H300	0.466770	0.810530	0.736330
C3291	C329	0.449680	0.815690	0.892530
C3301	C330	0.455430	0.808090	0.002130
H3011	H301	0.443970	0.816930	0.059630
C3311	C331	0.477660	0.787710	0.028130
H3021	H302	0.481470	0.783030	0.103230
C3321	C332	0.423060	0.833980	0.863730
C3331	C333	0.431230	0.865360	0.787330
C3341	C334	0.382640	0.821130	0.905230
C3351	C335	0.468520	0.891340	0.716630
H3031	H303	0.489770	0.883030	0.728930
H3041	H304	0.480370	0.921130	0.735530
H3051	H305	0.459970	0.886930	0.639030
C3361	C336	0.355900	0.786570	0.985630
H3061	H306	0.332470	0.763430	0.946230
H3071	H307	0.373070	0.776230	0.021030
H3081	H308	0.344770	0.797630	0.041930
Zn151	Zn15	0.982160	0.180200	0.223330
O571	O57	0.122450	0.427660	0.778090
O581	O58	0.088390	0.452990	0.678210
O591	O59	0.188990	0.065220	0.224210
O601	O60	0.185380	0.074970	0.405570
N571	N57	0.989950	0.212810	0.361000
N581	N58	0.971710	0.194500	0.458480
H3091	H309	0.955030	0.167270	0.467770
N591	N59	0.063910	0.203640	0.120110
H3101	H310	0.061530	0.222070	0.078770
N601	N60	0.033780	0.176810	0.190990
C3371	C337	0.030340	0.303830	0.546670
C3381	C338	0.096070	0.424880	0.704370
C3391	C339	0.073260	0.382700	0.648170
C3401	C340	0.079210	0.349970	0.684170
H3111	H311	0.098130	0.354470	0.742970
C3411	C341	0.057510	0.310810	0.634470
H3121	H312	0.061230	0.288470	0.660470
C3421	C342	0.024950	0.336920	0.509770
H3131	H313	0.006730	0.332670	0.449370
C3431	C343	0.046000	0.376020	0.561070
H3141	H314	0.041730	0.398170	0.536470
C3441	C344	0.008790	0.262310	0.491570
C3451	C345	0.012480	0.254210	0.380370
C3461	C346	0.982430	0.223350	0.539070
C3471	C347	0.037830	0.285280	0.292270
H3151	H315	0.051930	0.313870	0.323170
H3161	H316	0.019130	0.283470	0.232170
H3171	H317	0.059030	0.278870	0.263770
C3481	C348	0.966510	0.211660	0.654370
H3181	H318	0.978030	0.237170	0.699770
H3191	H319	0.975430	0.192570	0.684570
H3201	H320	0.935630	0.197570	0.654370
C3491	C349	0.180430	0.081120	0.307470
C3501	C350	0.160890	0.107560	0.279570
C3511	C351	0.157030	0.116740	0.170370
H3211	H321	0.169330	0.108770	0.113270
C3521	C352	0.135380	0.137420	0.144570
H3221	H322	0.133430	0.143870	0.069670
C3531	C353	0.116340	0.149030	0.225870
C3541	C354	0.122090	0.141430	0.335470
H3231	H323	0.110630	0.150270	0.392970
C3551	C355	0.144320	0.121050	0.361470
H3241	H324	0.148130	0.116370	0.436570
C3561	C356	0.089720	0.167320	0.197070
C3571	C357	0.097890	0.198700	0.120670
C3581	C358	0.049300	0.154470	0.238570
C3591	C359	0.135180	0.224680	0.049970
H3251	H325	0.156430	0.216370	0.062270
H3261	H326	0.147030	0.254470	0.068870
H3271	H327	0.126630	0.220270	0.972370
C3601	C360	0.022560	0.119910	0.318970
H3281	H328	0.999130	0.096770	0.279570
H3291	H329	0.039730	0.109570	0.354370
H3301	H330	0.011430	0.130970	0.375270
Zn161	Zn16	0.486470	0.135300	0.556660
O611	O61	0.239010	0.028130	0.111420
O621	O62	0.213680	0.968740	0.011540
O631	O63	0.601450	0.457110	0.557540
O641	O64	0.591700	0.443750	0.738900
N611	N61	0.453860	0.110480	0.694330
N621	N62	0.472170	0.110550	0.791810
H3311	H331	0.499400	0.121100	0.801100
N631	N63	0.463030	0.193610	0.453440
H3321	H332	0.444600	0.172800	0.412100
N641	N64	0.489860	0.190310	0.524320
C3611	C361	0.362840	0.059850	0.880000
C3621	C362	0.241790	0.004530	0.037700
C3631	C363	0.283970	0.023900	0.981500
C3641	C364	0.316700	0.062580	0.017500
H3331	H333	0.312200	0.077000	0.076300
C3651	C365	0.355860	0.080040	0.967800
H3341	H334	0.378200	0.106100	0.993800
C3661	C366	0.329750	0.021370	0.843100
H3351	H335	0.334000	0.007400	0.782700
C3671	C367	0.290650	0.003320	0.894400
H3361	H336	0.268500	0.976900	0.869800
C3681	C368	0.404360	0.079820	0.824900
C3691	C369	0.412460	0.091610	0.713700
C3701	C370	0.443320	0.092420	0.872400
C3711	C371	0.381390	0.085890	0.625600
H3371	H337	0.352800	0.071400	0.656500
H3381	H338	0.383200	0.069000	0.565500
H3391	H339	0.387800	0.113500	0.597100
C3721	C372	0.455010	0.088190	0.987700
H3401	H340	0.429500	0.074200	0.033100
H3411	H341	0.474100	0.116200	0.017900
H3421	H342	0.469100	0.071400	0.987700
C3731	C373	0.585550	0.432650	0.640800
C3741	C374	0.559110	0.386670	0.612900
C3751	C375	0.549930	0.373630	0.503700
H3431	H343	0.557900	0.393900	0.446600
C3761	C376	0.529250	0.331300	0.477900
H3441	H344	0.522800	0.322900	0.403000
C3771	C377	0.517640	0.300650	0.559200
C3781	C378	0.525240	0.314000	0.668800
H3451	H345	0.516400	0.293700	0.726300
C3791	C379	0.545620	0.356610	0.694800
H3461	H346	0.550300	0.365100	0.769900
C3801	C380	0.499350	0.255740	0.530400
C3811	C381	0.467970	0.232530	0.454000
C3821	C382	0.512200	0.228170	0.571900
C3831	C383	0.441990	0.243840	0.383300
H3471	H347	0.450300	0.273400	0.395600
H3481	H348	0.412200	0.225900	0.402200
H3491	H349	0.446400	0.239700	0.305700
C3841	C384	0.546760	0.235990	0.652300
H3501	H350	0.569900	0.235700	0.612900
H3511	H351	0.557100	0.263500	0.687700
H3521	H352	0.535700	0.213800	0.708600
Zn171	Zn17	0.153140	0.468630	0.889990
O651	O65	0.905680	0.361460	0.444750
O661	O66	0.880350	0.302070	0.344870
O671	O67	0.268120	0.790440	0.890870
O681	O68	0.258370	0.777080	0.072230
N651	N65	0.120530	0.443810	0.027660
N661	N66	0.138840	0.443880	0.125140
H3531	H353	0.166070	0.454430	0.134430
N671	N67	0.129700	0.526940	0.786770
H3541	H354	0.111270	0.506130	0.745430
N681	N68	0.156530	0.523640	0.857650
C3851	C385	0.029510	0.393180	0.213330
C3861	C386	0.908460	0.337860	0.371030
C3871	C387	0.950640	0.357230	0.314830
C3881	C388	0.983370	0.395910	0.350830
H3551	H355	0.978870	0.410330	0.409630
C3891	C389	0.022530	0.413370	0.301130
H3561	H356	0.044870	0.439430	0.327130
C3901	C390	0.996420	0.354700	0.176430
H3571	H357	0.000670	0.340730	0.116030
C3911	C391	0.957320	0.336650	0.227730
H3581	H358	0.935170	0.310230	0.203130
C3921	C392	0.071030	0.413150	0.158230
C3931	C393	0.079130	0.424940	0.047030
C3941	C394	0.109990	0.425750	0.205730
C3951	C395	0.048060	0.419220	0.958930
H3591	H359	0.019470	0.404730	0.989830
H3601	H360	0.049870	0.402330	0.898830
H3611	H361	0.054470	0.446830	0.930430
C3961	C396	0.121680	0.421520	0.321030
H3621	H362	0.096170	0.407530	0.366430
H3631	H363	0.140770	0.449530	0.351230
H3641	H364	0.135770	0.404730	0.321030
C3971	C397	0.252220	0.765980	0.974130
C3981	C398	0.225780	0.720000	0.946230
C3991	C399	0.216600	0.706960	0.837030
H3651	H365	0.224570	0.727230	0.779930
C4001	C400	0.195920	0.664630	0.811230
H3661	H366	0.189470	0.656230	0.736330
C4011	C401	0.184310	0.633980	0.892530
C4021	C402	0.191910	0.647330	0.002130
H3671	H367	0.183070	0.627030	0.059630
C4031	C403	0.212290	0.689940	0.028130
H3681	H368	0.216970	0.698430	0.103230
C4041	C404	0.166020	0.589070	0.863730
C4051	C405	0.134640	0.565860	0.787330
C4061	C406	0.178870	0.561500	0.905230
C4071	C407	0.108660	0.577170	0.716630
H3691	H369	0.116970	0.606730	0.728930
H3701	H370	0.078870	0.559230	0.735530
H3711	H371	0.113070	0.573030	0.639030
C4081	C408	0.213430	0.569320	0.985630
H3721	H372	0.236570	0.569030	0.946230
H3731	H373	0.223770	0.596830	0.021030
H3741	H374	0.202370	0.547130	0.041930
Zn181	Zn18	0.819800	0.801970	0.223330
O691	O69	0.572340	0.694800	0.778090
O701	O70	0.547010	0.635410	0.678210
O711	O71	0.934780	0.123780	0.224210
O721	O72	0.925030	0.110420	0.405570
N691	N69	0.787190	0.777150	0.361000
N701	N70	0.805500	0.777220	0.458480
H3751	H375	0.832730	0.787770	0.467770
N711	N71	0.796360	0.860280	0.120110
H3761	H376	0.777930	0.839470	0.078770
N721	N72	0.823190	0.856980	0.190990
C4091	C409	0.696170	0.726520	0.546670
C4101	C410	0.575120	0.671200	0.704370
C4111	C411	0.617300	0.690570	0.648170
C4121	C412	0.650030	0.729250	0.684170
H3771	H377	0.645530	0.743670	0.742970
C4131	C413	0.689190	0.746710	0.634470
H3781	H378	0.711530	0.772770	0.660470
C4141	C414	0.663080	0.688040	0.509770
H3791	H379	0.667330	0.674070	0.449370
C4151	C415	0.623980	0.669990	0.561070
H3801	H380	0.601830	0.643570	0.536470
C4161	C416	0.737690	0.746490	0.491570
C4171	C417	0.745790	0.758280	0.380370
C4181	C418	0.776650	0.759090	0.539070
C4191	C419	0.714720	0.752560	0.292270
H3811	H381	0.686130	0.738070	0.323170
H3821	H382	0.716530	0.735670	0.232170
H3831	H383	0.721130	0.780170	0.263770
C4201	C420	0.788340	0.754860	0.654370
H3841	H384	0.762830	0.740870	0.699770
H3851	H385	0.807430	0.782870	0.684570
H3861	H386	0.802430	0.738070	0.654370
C4211	C421	0.918880	0.099320	0.307470
C4221	C422	0.892440	0.053340	0.279570
C4231	C423	0.883260	0.040300	0.170370
H3871	H387	0.891230	0.060570	0.113270
C4241	C424	0.862580	0.997970	0.144570
H3881	H388	0.856130	0.989570	0.069670
C4251	C425	0.850970	0.967320	0.225870
C4261	C426	0.858570	0.980670	0.335470
H3891	H389	0.849730	0.960370	0.392970
C4271	C427	0.878950	0.023280	0.361470
H3901	H390	0.883630	0.031770	0.436570
C4281	C428	0.832680	0.922410	0.197070
C4291	C429	0.801300	0.899200	0.120670
C4301	C430	0.845530	0.894840	0.238570
C4311	C431	0.775320	0.910510	0.049970
H3911	H391	0.783630	0.940070	0.062270
H3921	H392	0.745530	0.892570	0.068870
H3931	H393	0.779730	0.906370	0.972370
C4321	C432	0.880090	0.902660	0.318970
H3941	H394	0.903230	0.902370	0.279570
H3951	H395	0.890430	0.930170	0.354370
H3961	H396	0.869030	0.880470	0.375270
