data_GARTAX_clean_PM
_symmetry_space_group_name_H-M	'P1'
_cell_length_a	9.128300
_cell_length_b	9.660300
_cell_length_c	11.548200
_cell_angle_alpha	106.829000
_cell_angle_beta	93.772000
_cell_angle_gamma	108.027000
_symmetry_Int_Tables_number 1

loop_
_symmetry_equiv_pos_as_xyz
'x,y,z'

loop_
_atom_site_label
_atom_site_type_symbol
_atom_site_fract_x
_atom_site_fract_y
_atom_site_fract_z
Gd11	Gd1	0.278490	0.528760	0.990840
O11	O1	0.130900	0.681400	0.043300
O21	O2	0.422800	0.389800	0.051300
O31	O3	0.119000	0.486100	0.789400
O41	O4	0.911200	0.731400	0.079500
O51	O5	0.304000	0.383000	0.785400
O61	O6	0.572900	0.256200	0.080600
C11	C1	0.011000	0.335000	0.534400
H11	H1	0.968000	0.409680	0.576150
C21	C2	0.960000	0.259000	0.410700
H21	H2	0.884960	0.284140	0.367600
N11	N1	0.092000	0.056400	0.147200
C31	C3	0.444500	0.275400	0.077000
N21	N2	0.190200	0.190700	0.145700
C41	C4	0.053500	0.771700	0.073700
C51	C5	0.122000	0.304000	0.598400
C61	C6	0.311800	0.154800	0.099600
C71	C7	0.286400	0.000800	0.069600
H31	H3	0.353480	0.948190	0.034560
C81	C8	0.146800	0.938900	0.099900
C91	C9	0.958900	0.061100	0.212100
H41	H4	0.889190	0.954710	0.199800
H51	H5	0.897970	0.113040	0.177460
C101	C10	0.015100	0.146700	0.348500
C111	C11	0.189500	0.399600	0.730800
C121	C12	0.182000	0.194200	0.535400
H61	H6	0.262310	0.174260	0.577600
C131	C13	0.128000	0.114000	0.412400
H71	H7	0.166550	0.035690	0.371130
Gd21	Gd2	0.721510	0.471240	0.009160
O71	O7	0.869100	0.318600	0.956700
O81	O8	0.577200	0.610200	0.948700
O91	O9	0.881000	0.513900	0.210600
O101	O10	0.088800	0.268600	0.920500
O111	O11	0.696000	0.617000	0.214600
O121	O12	0.427100	0.743800	0.919400
C141	C14	0.989000	0.665000	0.465600
H81	H8	0.032000	0.590320	0.423850
C151	C15	0.040000	0.741000	0.589300
H91	H9	0.115040	0.715860	0.632400
N31	N3	0.908000	0.943600	0.852800
C161	C16	0.555500	0.724600	0.923000
N41	N4	0.809800	0.809300	0.854300
C171	C17	0.946500	0.228300	0.926300
C181	C18	0.878000	0.696000	0.401600
C191	C19	0.688200	0.845200	0.900400
C201	C20	0.713600	0.999200	0.930400
H101	H10	0.646520	0.051810	0.965440
C211	C21	0.853200	0.061100	0.900100
C221	C22	0.041100	0.938900	0.787900
H111	H11	0.110810	0.045290	0.800200
H121	H12	0.102030	0.886960	0.822540
C231	C23	0.984900	0.853300	0.651500
C241	C24	0.810500	0.600400	0.269200
C251	C25	0.818000	0.805800	0.464600
H131	H13	0.737690	0.825740	0.422400
C261	C26	0.872000	0.886000	0.587600
H141	H14	0.833450	0.964310	0.628870
