data_GARTIF_clean_PM
_symmetry_space_group_name_H-M	'P1'
_cell_length_a	9.091200
_cell_length_b	9.644500
_cell_length_c	11.513500
_cell_angle_alpha	106.894000
_cell_angle_beta	93.993000
_cell_angle_gamma	108.215000
_symmetry_Int_Tables_number 1

loop_
_symmetry_equiv_pos_as_xyz
'x,y,z'

loop_
_atom_site_label
_atom_site_type_symbol
_atom_site_fract_x
_atom_site_fract_y
_atom_site_fract_z
Dy11	Dy1	0.278980	0.528250	0.991420
O11	O1	0.136300	0.681500	0.045100
O21	O2	0.117900	0.486300	0.789900
O31	O3	0.418900	0.388700	0.047400
O41	O4	0.914600	0.726500	0.078600
O51	O5	0.572300	0.258500	0.077600
O61	O6	0.304100	0.385100	0.788100
C11	C1	0.285800	0.997600	0.069600
C21	C2	0.145000	0.937800	0.098700
N11	N1	0.091100	0.053200	0.145100
C31	C3	0.053900	0.766000	0.072400
N21	N2	0.188100	0.187600	0.144600
C41	C4	0.442000	0.276000	0.073500
C51	C5	0.956000	0.254000	0.407600
C61	C6	0.313800	0.155800	0.096600
C71	C7	0.014200	0.143500	0.349200
C81	C8	0.010000	0.334000	0.534000
C91	C9	0.125700	0.308100	0.599000
C101	C10	0.188600	0.399700	0.732900
C111	C11	0.958600	0.056300	0.212000
C121	C12	0.126600	0.108500	0.413300
C131	C13	0.183900	0.191900	0.538800
H11	H1	0.359000	0.965000	0.001000
H21	H2	0.880000	0.960000	0.184000
H31	H3	0.164000	0.025000	0.345000
H41	H4	0.954000	0.391000	0.607000
H51	H5	0.278000	0.194000	0.606000
H61	H6	0.930000	0.292000	0.329000
H71	H7	0.890000	0.106000	0.163000
Dy21	Dy2	0.721020	0.471750	0.008580
O71	O7	0.863700	0.318500	0.954900
O81	O8	0.882100	0.513700	0.210100
O91	O9	0.581100	0.611300	0.952600
O101	O10	0.085400	0.273500	0.921400
O111	O11	0.427700	0.741500	0.922400
O121	O12	0.695900	0.614900	0.211900
C141	C14	0.714200	0.002400	0.930400
C151	C15	0.855000	0.062200	0.901300
N31	N3	0.908900	0.946800	0.854900
C161	C16	0.946100	0.234000	0.927600
N41	N4	0.811900	0.812400	0.855400
C171	C17	0.558000	0.724000	0.926500
C181	C18	0.044000	0.746000	0.592400
C191	C19	0.686200	0.844200	0.903400
C201	C20	0.985800	0.856500	0.650800
C211	C21	0.990000	0.666000	0.466000
C221	C22	0.874300	0.691900	0.401000
C231	C23	0.811400	0.600300	0.267100
C241	C24	0.041400	0.943700	0.788000
C251	C25	0.873400	0.891500	0.586700
C261	C26	0.816100	0.808100	0.461200
H81	H8	0.641000	0.035000	0.999000
H91	H9	0.120000	0.040000	0.816000
H101	H10	0.836000	0.975000	0.655000
H111	H11	0.046000	0.609000	0.393000
H121	H12	0.722000	0.806000	0.394000
H131	H13	0.070000	0.708000	0.671000
H141	H14	0.110000	0.894000	0.837000
