data_GATJIV_charged_PM
_symmetry_space_group_name_H-M	'P1'
_cell_length_a	12.751700
_cell_length_b	26.209000
_cell_length_c	26.209000
_cell_angle_alpha	120.000000
_cell_angle_beta	90.000000
_cell_angle_gamma	90.000000
_symmetry_Int_Tables_number 1

loop_
_symmetry_equiv_pos_as_xyz
'x,y,z'

loop_
_atom_site_label
_atom_site_type_symbol
_atom_site_fract_x
_atom_site_fract_y
_atom_site_fract_z
Cd11	Cd1	0.000000	0.301140	0.301140
Cd21	Cd2	0.000000	0.000000	0.698860
Cd31	Cd3	0.000000	0.698860	0.000000
H11	H1	0.065600	0.234200	0.186700
H21	H2	0.174000	0.259200	0.218600
H31	H3	0.828600	0.275200	0.377600
H41	H4	0.702000	0.315200	0.445800
H51	H5	0.795800	0.475300	0.480200
H61	H6	0.914300	0.428600	0.401900
H71	H7	0.768900	0.476100	0.582500
H81	H8	0.320700	0.445500	0.582100
H91	H9	0.259500	0.380100	0.489300
H101	H10	0.555400	0.361200	0.421400
H111	H11	0.806600	0.554800	0.672500
H121	H12	0.795700	0.495600	0.676200
H131	H13	0.858700	0.571500	0.768600
H141	H14	0.742300	0.555000	0.778200
H151	H15	0.762400	0.613000	0.773900
H161	H16	0.643500	0.426700	0.785200
H171	H17	0.676500	0.436800	0.732100
H181	H18	0.601000	0.383200	0.720200
H191	H19	0.550800	0.501500	0.788900
H201	H20	0.475200	0.447600	0.776300
H211	H21	0.355100	0.518800	0.786200
H221	H22	0.197600	0.659300	0.752300
H231	H23	0.335300	0.638700	0.606200
H241	H24	0.425700	0.561400	0.596900
H251	H25	0.162100	0.732400	0.929800
H261	H26	0.279800	0.690200	0.849200
H271	H27	0.148100	0.530400	0.798700
H281	H28	0.042800	0.576800	0.880200
H291	H29	0.065600	0.952500	0.765800
H301	H30	0.174000	0.959400	0.740800
H311	H31	0.828600	0.102400	0.724800
H321	H32	0.702000	0.130600	0.684800
H331	H33	0.795800	0.004900	0.524700
H341	H34	0.914300	0.973300	0.571400
H351	H35	0.768900	0.106400	0.523900
H361	H36	0.320700	0.136600	0.554500
H371	H37	0.259500	0.109200	0.619900
H381	H38	0.555400	0.060200	0.638800
H391	H39	0.806600	0.117700	0.445200
H401	H40	0.795700	0.180600	0.504400
H411	H41	0.858700	0.197100	0.428500
H421	H42	0.742300	0.223200	0.445000
H431	H43	0.762400	0.160900	0.387000
H441	H44	0.643500	0.358500	0.573300
H451	H45	0.676500	0.295300	0.563200
H461	H46	0.601000	0.337000	0.616800
H471	H47	0.550800	0.287400	0.498500
H481	H48	0.475200	0.328700	0.552400
H491	H49	0.355100	0.267400	0.481200
H501	H50	0.197600	0.093000	0.340700
H511	H51	0.335300	0.967500	0.361300
H521	H52	0.425700	0.035500	0.438600
H531	H53	0.162100	0.197400	0.267600
H541	H54	0.279800	0.159000	0.309800
H551	H55	0.148100	0.268300	0.469600
H561	H56	0.042800	0.303400	0.423200
H571	H57	0.065600	0.813300	0.047500
H581	H58	0.174000	0.781400	0.040600
H591	H59	0.828600	0.622400	0.897600
H601	H60	0.702000	0.554200	0.869400
H611	H61	0.795800	0.519800	0.995100
H621	H62	0.914300	0.598100	0.026700
H631	H63	0.768900	0.417500	0.893600
H641	H64	0.320700	0.417900	0.863400
H651	H65	0.259500	0.510700	0.890800
H661	H66	0.555400	0.578600	0.939800
H671	H67	0.806600	0.327500	0.882300
H681	H68	0.795700	0.323800	0.819400
H691	H69	0.858700	0.231400	0.802900
H701	H70	0.742300	0.221800	0.776800
H711	H71	0.762400	0.226100	0.839100
H721	H72	0.643500	0.214800	0.641500
H731	H73	0.676500	0.267900	0.704700
H741	H74	0.601000	0.279800	0.663000
H751	H75	0.550800	0.211100	0.712600
H761	H76	0.475200	0.223700	0.671300
H771	H77	0.355100	0.213800	0.732600
H781	H78	0.197600	0.247700	0.907000
H791	H79	0.335300	0.393800	0.032500
H801	H80	0.425700	0.403100	0.964500
H811	H81	0.162100	0.070200	0.802600
H821	H82	0.279800	0.150800	0.841000
H831	H83	0.148100	0.201300	0.731700
H841	H84	0.042800	0.119800	0.696600
H851	H85	0.934400	0.047500	0.813300
H861	H86	0.826000	0.040600	0.781400
H871	H87	0.171400	0.897600	0.622400
H881	H88	0.298000	0.869400	0.554200
H891	H89	0.204200	0.995100	0.519800
H901	H90	0.085700	0.026700	0.598100
H911	H91	0.231100	0.893600	0.417500
H921	H92	0.679300	0.863400	0.417900
H931	H93	0.740500	0.890800	0.510700
H941	H94	0.444600	0.939800	0.578600
H951	H95	0.193400	0.882300	0.327500
H961	H96	0.204300	0.819400	0.323800
H971	H97	0.141300	0.802900	0.231400
H981	H98	0.257700	0.776800	0.221800
H991	H99	0.237600	0.839100	0.226100
H1001	H100	0.356500	0.641500	0.214800
H1011	H101	0.323500	0.704700	0.267900
H1021	H102	0.399000	0.663000	0.279800
H1031	H103	0.449200	0.712600	0.211100
H1041	H104	0.524800	0.671300	0.223700
H1051	H105	0.644900	0.732600	0.213800
H1061	H106	0.802400	0.907000	0.247700
H1071	H107	0.664700	0.032500	0.393800
H1081	H108	0.574300	0.964500	0.403100
H1091	H109	0.837900	0.802600	0.070200
H1101	H110	0.720200	0.841000	0.150800
H1111	H111	0.851900	0.731700	0.201300
H1121	H112	0.957200	0.696600	0.119800
H1131	H113	0.934400	0.186700	0.234200
H1141	H114	0.826000	0.218600	0.259200
H1151	H115	0.171400	0.377600	0.275200
H1161	H116	0.298000	0.445800	0.315200
H1171	H117	0.204200	0.480200	0.475300
H1181	H118	0.085700	0.401900	0.428600
H1191	H119	0.231100	0.582500	0.476100
H1201	H120	0.679300	0.582100	0.445500
H1211	H121	0.740500	0.489300	0.380100
H1221	H122	0.444600	0.421400	0.361200
H1231	H123	0.193400	0.672500	0.554800
H1241	H124	0.204300	0.676200	0.495600
H1251	H125	0.141300	0.768600	0.571500
H1261	H126	0.257700	0.778200	0.555000
H1271	H127	0.237600	0.773900	0.613000
H1281	H128	0.356500	0.785200	0.426700
H1291	H129	0.323500	0.732100	0.436800
H1301	H130	0.399000	0.720200	0.383200
H1311	H131	0.449200	0.788900	0.501500
H1321	H132	0.524800	0.776300	0.447600
H1331	H133	0.644900	0.786200	0.518800
H1341	H134	0.802400	0.752300	0.659300
H1351	H135	0.664700	0.606200	0.638700
H1361	H136	0.574300	0.596900	0.561400
H1371	H137	0.837900	0.929800	0.732400
H1381	H138	0.720200	0.849200	0.690200
H1391	H139	0.851900	0.798700	0.530400
H1401	H140	0.957200	0.880200	0.576800
H1411	H141	0.934400	0.765800	0.952500
H1421	H142	0.826000	0.740800	0.959400
H1431	H143	0.171400	0.724800	0.102400
H1441	H144	0.298000	0.684800	0.130600
H1451	H145	0.204200	0.524700	0.004900
H1461	H146	0.085700	0.571400	0.973300
H1471	H147	0.231100	0.523900	0.106400
H1481	H148	0.679300	0.554500	0.136600
H1491	H149	0.740500	0.619900	0.109200
H1501	H150	0.444600	0.638800	0.060200
H1511	H151	0.193400	0.445200	0.117700
H1521	H152	0.204300	0.504400	0.180600
H1531	H153	0.141300	0.428500	0.197100
H1541	H154	0.257700	0.445000	0.223200
H1551	H155	0.237600	0.387000	0.160900
H1561	H156	0.356500	0.573300	0.358500
H1571	H157	0.323500	0.563200	0.295300
H1581	H158	0.399000	0.616800	0.337000
H1591	H159	0.449200	0.498500	0.287400
H1601	H160	0.524800	0.552400	0.328700
H1611	H161	0.644900	0.481200	0.267400
H1621	H162	0.802400	0.340700	0.093000
H1631	H163	0.664700	0.361300	0.967500
H1641	H164	0.574300	0.438600	0.035500
H1651	H165	0.837900	0.267600	0.197400
H1661	H166	0.720200	0.309800	0.159000
H1671	H167	0.851900	0.469600	0.268300
H1681	H168	0.957200	0.423200	0.303400
C11	C1	0.820900	0.316800	0.397800
C21	C2	0.747300	0.340200	0.439400
C31	C3	0.736600	0.400000	0.472800
C41	C4	0.800500	0.433600	0.458800
C51	C5	0.872100	0.405500	0.412500
C61	C6	0.657400	0.428700	0.521600
C71	C7	0.695900	0.468100	0.577000
C81	C8	0.626300	0.496200	0.625200
C91	C9	0.516700	0.484000	0.616900
C101	C10	0.479300	0.443900	0.560900
C111	C11	0.368300	0.428600	0.549900
C121	C12	0.331300	0.391100	0.495200
C131	C13	0.400700	0.369000	0.447800
C141	C14	0.509600	0.379100	0.454500
C151	C15	0.548500	0.416700	0.512000
C161	C16	0.768800	0.536100	0.691900
C171	C17	0.784500	0.572200	0.759300
C181	C18	0.619900	0.424000	0.748400
C191	C19	0.532200	0.460400	0.759600
C201	C20	0.443200	0.517200	0.669000
C211	C21	0.430700	0.501100	0.711300
C221	C22	0.360800	0.530400	0.757300
C231	C23	0.298900	0.576100	0.762600
C241	C24	0.308000	0.593900	0.718800
C251	C25	0.249100	0.640800	0.722300
C261	C26	0.263400	0.659300	0.685500
C271	C27	0.329900	0.627600	0.635500
C281	C28	0.383000	0.582800	0.630800
C291	C29	0.381000	0.564100	0.672900
C301	C30	0.161100	0.691000	0.903400
C311	C31	0.230200	0.665900	0.854100
C321	C32	0.225300	0.605400	0.812900
C331	C33	0.153700	0.571700	0.824400
C341	C34	0.092000	0.600300	0.873800
C351	C35	0.820900	0.081000	0.683200
C361	C36	0.747300	0.099200	0.659800
C371	C37	0.736600	0.072800	0.600000
C381	C38	0.800500	0.025200	0.566400
C391	C39	0.872100	0.007000	0.594500
C401	C40	0.657400	0.092900	0.571300
C411	C41	0.695900	0.108900	0.531900
C421	C42	0.626300	0.129000	0.503800
C431	C43	0.516700	0.132900	0.516000
C441	C44	0.479300	0.117000	0.556100
C451	C45	0.368300	0.121300	0.571400
C461	C46	0.331300	0.104100	0.608900
C471	C47	0.400700	0.078800	0.631000
C481	C48	0.509600	0.075400	0.620900
C491	C49	0.548500	0.095300	0.583300
C501	C50	0.768800	0.155800	0.463900
C511	C51	0.784500	0.187100	0.427800
C521	C52	0.619900	0.324400	0.576000
C531	C53	0.532200	0.299200	0.539600
C541	C54	0.443200	0.151800	0.482800
C551	C55	0.430700	0.210200	0.498900
C561	C56	0.360800	0.226900	0.469600
C571	C57	0.298900	0.186500	0.423900
C581	C58	0.308000	0.124900	0.406100
C591	C59	0.249100	0.081500	0.359200
C601	C60	0.263400	0.026200	0.340700
C611	C61	0.329900	0.007900	0.372400
C621	C62	0.383000	0.048000	0.417200
C631	C63	0.381000	0.108800	0.435900
C641	C64	0.161100	0.212400	0.309000
C651	C65	0.230200	0.188200	0.334100
C661	C66	0.225300	0.207500	0.394600
C671	C67	0.153700	0.252700	0.428300
C681	C68	0.092000	0.273500	0.399700
C691	C69	0.820900	0.602200	0.919000
C701	C70	0.747300	0.560600	0.900800
C711	C71	0.736600	0.527200	0.927200
C721	C72	0.800500	0.541200	0.974800
C731	C73	0.872100	0.587500	0.993000
C741	C74	0.657400	0.478400	0.907100
C751	C75	0.695900	0.423000	0.891100
C761	C76	0.626300	0.374800	0.871000
C771	C77	0.516700	0.383100	0.867100
C781	C78	0.479300	0.439100	0.883000
C791	C79	0.368300	0.450100	0.878700
C801	C80	0.331300	0.504800	0.895900
C811	C81	0.400700	0.552200	0.921200
C821	C82	0.509600	0.545500	0.924600
C831	C83	0.548500	0.488000	0.904700
C841	C84	0.768800	0.308100	0.844200
C851	C85	0.784500	0.240700	0.812900
C861	C86	0.619900	0.251600	0.675600
C871	C87	0.532200	0.240400	0.700800
C881	C88	0.443200	0.331000	0.848200
C891	C89	0.430700	0.288700	0.789800
C901	C90	0.360800	0.242700	0.773100
C911	C91	0.298900	0.237400	0.813500
C921	C92	0.308000	0.281200	0.875100
C931	C93	0.249100	0.277700	0.918500
C941	C94	0.263400	0.314500	0.973800
C951	C95	0.329900	0.364500	0.992100
C961	C96	0.383000	0.369200	0.952000
C971	C97	0.381000	0.327100	0.891200
C981	C98	0.161100	0.096600	0.787600
C991	C99	0.230200	0.145900	0.811800
C1001	C100	0.225300	0.187100	0.792500
C1011	C101	0.153700	0.175600	0.747300
C1021	C102	0.092000	0.126200	0.726500
C1031	C103	0.179100	0.919000	0.602200
C1041	C104	0.252700	0.900800	0.560600
C1051	C105	0.263400	0.927200	0.527200
C1061	C106	0.199500	0.974800	0.541200
C1071	C107	0.127900	0.993000	0.587500
C1081	C108	0.342600	0.907100	0.478400
C1091	C109	0.304100	0.891100	0.423000
C1101	C110	0.373700	0.871000	0.374800
C1111	C111	0.483300	0.867100	0.383100
C1121	C112	0.520700	0.883000	0.439100
C1131	C113	0.631700	0.878700	0.450100
C1141	C114	0.668700	0.895900	0.504800
C1151	C115	0.599300	0.921200	0.552200
C1161	C116	0.490400	0.924600	0.545500
C1171	C117	0.451500	0.904700	0.488000
C1181	C118	0.231200	0.844200	0.308100
C1191	C119	0.215500	0.812900	0.240700
C1201	C120	0.380100	0.675600	0.251600
C1211	C121	0.467800	0.700800	0.240400
C1221	C122	0.556800	0.848200	0.331000
C1231	C123	0.569300	0.789800	0.288700
C1241	C124	0.639200	0.773100	0.242700
C1251	C125	0.701100	0.813500	0.237400
C1261	C126	0.692000	0.875100	0.281200
C1271	C127	0.750900	0.918500	0.277700
C1281	C128	0.736600	0.973800	0.314500
C1291	C129	0.670100	0.992100	0.364500
C1301	C130	0.617000	0.952000	0.369200
C1311	C131	0.619000	0.891200	0.327100
C1321	C132	0.838900	0.787600	0.096600
C1331	C133	0.769800	0.811800	0.145900
C1341	C134	0.774700	0.792500	0.187100
C1351	C135	0.846300	0.747300	0.175600
C1361	C136	0.908000	0.726500	0.126200
C1371	C137	0.179100	0.397800	0.316800
C1381	C138	0.252700	0.439400	0.340200
C1391	C139	0.263400	0.472800	0.400000
C1401	C140	0.199500	0.458800	0.433600
C1411	C141	0.127900	0.412500	0.405500
C1421	C142	0.342600	0.521600	0.428700
C1431	C143	0.304100	0.577000	0.468100
C1441	C144	0.373700	0.625200	0.496200
C1451	C145	0.483300	0.616900	0.484000
C1461	C146	0.520700	0.560900	0.443900
C1471	C147	0.631700	0.549900	0.428600
C1481	C148	0.668700	0.495200	0.391100
C1491	C149	0.599300	0.447800	0.369000
C1501	C150	0.490400	0.454500	0.379100
C1511	C151	0.451500	0.512000	0.416700
C1521	C152	0.231200	0.691900	0.536100
C1531	C153	0.215500	0.759300	0.572200
C1541	C154	0.380100	0.748400	0.424000
C1551	C155	0.467800	0.759600	0.460400
C1561	C156	0.556800	0.669000	0.517200
C1571	C157	0.569300	0.711300	0.501100
C1581	C158	0.639200	0.757300	0.530400
C1591	C159	0.701100	0.762600	0.576100
C1601	C160	0.692000	0.718800	0.593900
C1611	C161	0.750900	0.722300	0.640800
C1621	C162	0.736600	0.685500	0.659300
C1631	C163	0.670100	0.635500	0.627600
C1641	C164	0.617000	0.630800	0.582800
C1651	C165	0.619000	0.672900	0.564100
C1661	C166	0.838900	0.903400	0.691000
C1671	C167	0.769800	0.854100	0.665900
C1681	C168	0.774700	0.812900	0.605400
C1691	C169	0.846300	0.824400	0.571700
C1701	C170	0.908000	0.873800	0.600300
C1711	C171	0.179100	0.683200	0.081000
C1721	C172	0.252700	0.659800	0.099200
C1731	C173	0.263400	0.600000	0.072800
C1741	C174	0.199500	0.566400	0.025200
C1751	C175	0.127900	0.594500	0.007000
C1761	C176	0.342600	0.571300	0.092900
C1771	C177	0.304100	0.531900	0.108900
C1781	C178	0.373700	0.503800	0.129000
C1791	C179	0.483300	0.516000	0.132900
C1801	C180	0.520700	0.556100	0.117000
C1811	C181	0.631700	0.571400	0.121300
C1821	C182	0.668700	0.608900	0.104100
C1831	C183	0.599300	0.631000	0.078800
C1841	C184	0.490400	0.620900	0.075400
C1851	C185	0.451500	0.583300	0.095300
C1861	C186	0.231200	0.463900	0.155800
C1871	C187	0.215500	0.427800	0.187100
C1881	C188	0.380100	0.576000	0.324400
C1891	C189	0.467800	0.539600	0.299200
C1901	C190	0.556800	0.482800	0.151800
C1911	C191	0.569300	0.498900	0.210200
C1921	C192	0.639200	0.469600	0.226900
C1931	C193	0.701100	0.423900	0.186500
C1941	C194	0.692000	0.406100	0.124900
C1951	C195	0.750900	0.359200	0.081500
C1961	C196	0.736600	0.340700	0.026200
C1971	C197	0.670100	0.372400	0.007900
C1981	C198	0.617000	0.417200	0.048000
C1991	C199	0.619000	0.435900	0.108800
C2001	C200	0.838900	0.309000	0.212400
C2011	C201	0.769800	0.334100	0.188200
C2021	C202	0.774700	0.394600	0.207500
C2031	C203	0.846300	0.428300	0.252700
C2041	C204	0.908000	0.399700	0.273500
N11	N1	0.883000	0.346400	0.382700
N21	N2	0.094200	0.657000	0.913200
N31	N3	0.883000	0.036300	0.653600
N41	N4	0.094200	0.256200	0.343000
N51	N5	0.883000	0.617300	0.963700
N61	N6	0.094200	0.086800	0.743800
N71	N7	0.117000	0.963700	0.617300
N81	N8	0.905800	0.743800	0.086800
N91	N9	0.117000	0.382700	0.346400
N101	N10	0.905800	0.913200	0.657000
N111	N11	0.117000	0.653600	0.036300
N121	N12	0.905800	0.343000	0.256200
Cl11	Cl1	0.352830	0.322180	0.376990
Cl21	Cl2	0.178600	0.713000	0.685470
Cl31	Cl3	0.352830	0.054810	0.677820
Cl41	Cl4	0.178600	0.972470	0.287000
Cl51	Cl5	0.352830	0.623010	0.945190
Cl61	Cl6	0.178600	0.314530	0.027530
Cl71	Cl7	0.647170	0.945190	0.623010
Cl81	Cl8	0.821400	0.027530	0.314530
Cl91	Cl9	0.647170	0.376990	0.322180
Cl101	Cl10	0.821400	0.685470	0.713000
Cl111	Cl11	0.647170	0.677820	0.054810
Cl121	Cl12	0.821400	0.287000	0.972470
O11	O1	0.657900	0.535100	0.681400
O21	O2	0.495600	0.458100	0.706400
O31	O3	0.104000	0.254200	0.216100
O41	O4	0.657900	0.146300	0.464900
O51	O5	0.495600	0.248300	0.541900
O61	O6	0.104000	0.961900	0.745800
O71	O7	0.657900	0.318600	0.853700
O81	O8	0.495600	0.293600	0.751700
O91	O9	0.104000	0.783900	0.038100
O101	O10	0.342100	0.853700	0.318600
O111	O11	0.504400	0.751700	0.293600
O121	O12	0.896000	0.038100	0.783900
O131	O13	0.342100	0.681400	0.535100
O141	O14	0.504400	0.706400	0.458100
O151	O15	0.896000	0.216100	0.254200
O161	O16	0.342100	0.464900	0.146300
O171	O17	0.504400	0.541900	0.248300
O181	O18	0.896000	0.745800	0.961900
Cl131	Cl13	0.989300	0.606800	0.164900
O191	O19	0.960200	0.597500	0.112100
O201	O20	0.051000	0.558900	0.157500
O211	O21	0.051000	0.655500	0.194300
O221	O22	0.906000	0.612000	0.199600
Cl141	Cl14	0.989300	0.558100	0.393200
O231	O23	0.960200	0.514600	0.402500
O241	O24	0.051000	0.598600	0.441100
O251	O25	0.051000	0.538800	0.344500
O261	O26	0.906000	0.587600	0.388000
Cl151	Cl15	0.989300	0.835100	0.441900
O271	O27	0.960200	0.887900	0.485400
O281	O28	0.051000	0.842500	0.401400
O291	O29	0.051000	0.805700	0.461200
O301	O30	0.906000	0.800400	0.412400
Cl161	Cl16	0.010700	0.441900	0.835100
O311	O31	0.039800	0.485400	0.887900
O321	O32	0.949000	0.401400	0.842500
O331	O33	0.949000	0.461200	0.805700
O341	O34	0.094000	0.412400	0.800400
Cl171	Cl17	0.010700	0.164900	0.606800
O351	O35	0.039800	0.112100	0.597500
O361	O36	0.949000	0.157500	0.558900
O371	O37	0.949000	0.194300	0.655500
O381	O38	0.094000	0.199600	0.612000
Cl181	Cl18	0.010700	0.393200	0.558100
O391	O39	0.039800	0.402500	0.514600
O401	O40	0.949000	0.441100	0.598600
O411	O41	0.949000	0.344500	0.538800
O421	O42	0.094000	0.388000	0.587600
