data_GAWBEM_clean_PM
_symmetry_space_group_name_H-M	'P1'
_cell_length_a	9.618900
_cell_length_b	10.639000
_cell_length_c	10.986000
_cell_angle_alpha	79.523000
_cell_angle_beta	64.995000
_cell_angle_gamma	70.574000
_symmetry_Int_Tables_number 1

loop_
_symmetry_equiv_pos_as_xyz
'x,y,z'

loop_
_atom_site_label
_atom_site_type_symbol
_atom_site_fract_x
_atom_site_fract_y
_atom_site_fract_z
Cu11	Cu1	0.651740	0.157080	0.545790
Cu21	Cu2	0.348260	0.842920	0.454210
Cu31	Cu3	0.000000	0.500000	0.500000
Mo11	Mo1	0.353290	0.208410	0.406150
Mo21	Mo2	0.646710	0.791590	0.593850
H11	H1	0.561100	0.209800	0.833800
H21	H2	0.363700	0.203200	0.041000
H31	H3	0.214100	0.113500	0.228300
H41	H4	0.003400	0.121700	0.428500
H51	H5	0.708300	0.201100	0.251900
H61	H6	0.910400	0.192500	0.046900
H71	H7	0.139300	0.080800	0.873900
H81	H8	0.349100	0.079300	0.673600
H91	H9	0.235100	0.479800	0.825000
H101	H10	0.229700	0.481000	0.619100
H111	H11	0.767000	0.521500	0.988200
H121	H12	0.772000	0.529300	0.778600
H131	H13	0.438900	0.790200	0.166200
H141	H14	0.636300	0.796800	0.959000
H151	H15	0.785900	0.886500	0.771700
H161	H16	0.996600	0.878300	0.571500
H171	H17	0.291700	0.798900	0.748100
H181	H18	0.089600	0.807500	0.953100
H191	H19	0.860700	0.919200	0.126100
H201	H20	0.650900	0.920700	0.326400
H211	H21	0.764900	0.520200	0.175000
H221	H22	0.770300	0.519000	0.380900
H231	H23	0.233000	0.478500	0.011800
H241	H24	0.228000	0.470700	0.221400
C11	C1	0.474500	0.183300	0.842100
C21	C2	0.355500	0.181200	0.966600
C31	C3	0.223900	0.146600	0.981300
C41	C4	0.088300	0.151800	0.112600
C51	C5	0.111800	0.131300	0.230300
C61	C6	0.984200	0.137000	0.350100
C71	C7	0.812000	0.183000	0.247000
C81	C8	0.932400	0.178200	0.123800
C91	C9	0.224500	0.107700	0.868300
C101	C10	0.349900	0.108700	0.748000
C111	C11	0.139000	0.489000	0.818300
C121	C12	0.134600	0.491000	0.694900
C131	C13	0.000400	0.500500	0.932600
C141	C14	0.863300	0.514500	0.914100
C151	C15	0.867000	0.518200	0.788200
C161	C16	0.525500	0.816700	0.157900
C171	C17	0.644500	0.818800	0.033400
C181	C18	0.776100	0.853400	0.018700
C191	C19	0.911700	0.848200	0.887400
C201	C20	0.888200	0.868700	0.769700
C211	C21	0.015800	0.863000	0.649900
C221	C22	0.188000	0.817000	0.753000
C231	C23	0.067600	0.821800	0.876200
C241	C24	0.775500	0.892300	0.131700
C251	C25	0.650100	0.891300	0.252000
C261	C26	0.861000	0.511000	0.181700
C271	C27	0.865400	0.509000	0.305100
C281	C28	0.999600	0.499500	0.067400
C291	C29	0.136700	0.485500	0.085900
C301	C30	0.133000	0.481800	0.211800
N11	N1	0.473100	0.149300	0.731900
N21	N2	0.834600	0.163000	0.361900
N31	N3	0.000700	0.506500	0.679000
N41	N4	0.526900	0.850700	0.268100
N51	N5	0.165400	0.837000	0.638100
N61	N6	0.999300	0.493500	0.321000
O11	O1	0.497900	0.208500	0.464800
O21	O2	0.293400	0.065800	0.465800
O31	O3	0.188600	0.349200	0.460200
O41	O4	0.502100	0.791500	0.535200
O51	O5	0.706600	0.934200	0.534200
O61	O6	0.811400	0.650800	0.539800
