data_GAWCUF_clean_PM
_symmetry_space_group_name_H-M	'P1'
_cell_length_a	18.363800
_cell_length_b	10.913500
_cell_length_c	18.894200
_cell_angle_alpha	90.000000
_cell_angle_beta	108.374000
_cell_angle_gamma	90.000000
_symmetry_Int_Tables_number 1

loop_
_symmetry_equiv_pos_as_xyz
'x,y,z'

loop_
_atom_site_label
_atom_site_type_symbol
_atom_site_fract_x
_atom_site_fract_y
_atom_site_fract_z
Co11	Co1	0.186350	0.294720	0.470690
Co21	Co2	0.285470	0.297750	0.376670
O11	O1	0.111720	0.301500	0.363970
O21	O2	0.185440	0.305700	0.289950
O31	O3	0.259620	0.117700	0.387310
O41	O4	0.187820	0.110600	0.462270
O51	O5	0.281310	0.481500	0.392620
O61	O6	0.204430	0.479100	0.464150
O71	O7	0.789040	0.214900	0.052850
O81	O8	0.864670	0.217900	0.980650
N11	N1	0.105280	0.325700	0.521980
N21	N2	0.041640	0.404700	0.591590
N31	N3	0.926510	0.226200	0.739420
N41	N4	0.860570	0.187300	0.815850
C11	C1	0.121690	0.296800	0.301300
C21	C2	0.225080	0.061400	0.424560
C31	C3	0.230380	0.925000	0.425730
C41	C4	0.209200	0.858500	0.479640
H11	H1	0.190500	0.899600	0.514100
C51	C5	0.257120	0.863100	0.374730
H21	H2	0.271400	0.907500	0.338600
C61	C6	0.243530	0.532800	0.429870
C71	C7	0.242150	0.669900	0.430740
C81	C8	0.215840	0.732100	0.482000
H31	H3	0.202400	0.687900	0.518700
C91	C9	0.262920	0.736100	0.376620
H41	H4	0.280700	0.694800	0.341600
C101	C10	0.051390	0.279300	0.234780
C111	C11	0.056230	0.291400	0.162880
H51	H5	0.103600	0.310700	0.156300
C121	C12	0.991720	0.275300	0.101060
H61	H6	0.995600	0.283900	0.052900
C131	C13	0.921270	0.246400	0.110010
C141	C14	0.853340	0.225000	0.042170
C151	C15	0.916330	0.235600	0.181260
H71	H7	0.868900	0.216600	0.187800
C161	C16	0.980670	0.252500	0.243220
H81	H8	0.976300	0.245800	0.291300
C171	C17	0.111660	0.387800	0.584260
C181	C18	0.988500	0.352100	0.531130
H91	H9	0.935100	0.350400	0.521100
C191	C19	0.028170	0.303800	0.489180
H101	H10	0.006500	0.261400	0.444100
C201	C20	0.024400	0.467800	0.653020
H111	H11	0.976200	0.513000	0.633100
H121	H12	0.065100	0.527500	0.675300
C211	C21	0.017700	0.380000	0.713640
H131	H13	0.065800	0.334300	0.733600
H141	H14	0.009300	0.427000	0.754500
C221	C22	0.951900	0.290600	0.683080
H151	H15	0.908100	0.335500	0.650000
H161	H16	0.967500	0.229400	0.652700
C231	C23	0.883300	0.274100	0.778450
C241	C24	0.890600	0.078300	0.799020
H171	H17	0.883600	0.000700	0.817500
C251	C25	0.931200	0.100600	0.752300
H181	H18	0.957500	0.042900	0.732500
C261	C26	0.863800	0.406400	0.778300
H191	H19	0.856000	0.440200	0.728900
H201	H20	0.905500	0.449600	0.814200
H211	H21	0.817300	0.415800	0.791600
C271	C27	0.183800	0.434300	0.637500
H221	H22	0.194800	0.390100	0.684200
H231	H23	0.178500	0.521000	0.646200
H241	H24	0.225500	0.422400	0.617000
Co31	Co3	0.686350	0.205280	0.970690
Co41	Co4	0.785470	0.202250	0.876670
O91	O9	0.611720	0.198500	0.863970
O101	O10	0.685440	0.194300	0.789950
O111	O11	0.759620	0.382300	0.887310
O121	O12	0.687820	0.389400	0.962270
O131	O13	0.781310	0.018500	0.892620
O141	O14	0.704430	0.020900	0.964150
O151	O15	0.289040	0.285100	0.552850
O161	O16	0.364670	0.282100	0.480650
N51	N5	0.605280	0.174300	0.021980
N61	N6	0.541640	0.095300	0.091590
N71	N7	0.426510	0.273800	0.239420
N81	N8	0.360570	0.312700	0.315850
C281	C28	0.621690	0.203200	0.801300
C291	C29	0.725080	0.438600	0.924560
C301	C30	0.730380	0.575000	0.925730
C311	C31	0.709200	0.641500	0.979640
H251	H25	0.690500	0.600400	0.014100
C321	C32	0.757120	0.636900	0.874730
H261	H26	0.771400	0.592500	0.838600
C331	C33	0.743530	0.967200	0.929870
C341	C34	0.742150	0.830100	0.930740
C351	C35	0.715840	0.767900	0.982000
H271	H27	0.702400	0.812100	0.018700
C361	C36	0.762920	0.763900	0.876620
H281	H28	0.780700	0.805200	0.841600
C371	C37	0.551390	0.220700	0.734780
C381	C38	0.556230	0.208600	0.662880
H291	H29	0.603600	0.189300	0.656300
C391	C39	0.491720	0.224700	0.601060
H301	H30	0.495600	0.216100	0.552900
C401	C40	0.421270	0.253600	0.610010
C411	C41	0.353340	0.275000	0.542170
C421	C42	0.416330	0.264400	0.681260
H311	H31	0.368900	0.283400	0.687800
C431	C43	0.480670	0.247500	0.743220
H321	H32	0.476300	0.254200	0.791300
C441	C44	0.611660	0.112200	0.084260
C451	C45	0.488500	0.147900	0.031130
H331	H33	0.435100	0.149600	0.021100
C461	C46	0.528170	0.196200	0.989180
H341	H34	0.506500	0.238600	0.944100
C471	C47	0.524400	0.032200	0.153020
H351	H35	0.476200	0.987000	0.133100
H361	H36	0.565100	0.972500	0.175300
C481	C48	0.517700	0.120000	0.213640
H371	H37	0.565800	0.165700	0.233600
H381	H38	0.509300	0.073000	0.254500
C491	C49	0.451900	0.209400	0.183080
H391	H39	0.408100	0.164500	0.150000
H401	H40	0.467500	0.270600	0.152700
C501	C50	0.383300	0.225900	0.278450
C511	C51	0.390600	0.421700	0.299020
H411	H41	0.383600	0.499300	0.317500
C521	C52	0.431200	0.399400	0.252300
H421	H42	0.457500	0.457100	0.232500
C531	C53	0.363800	0.093600	0.278300
H431	H43	0.356000	0.059800	0.228900
H441	H44	0.405500	0.050400	0.314200
H451	H45	0.317300	0.084200	0.291600
C541	C54	0.683800	0.065700	0.137500
H461	H46	0.694800	0.109900	0.184200
H471	H47	0.678500	0.979000	0.146200
H481	H48	0.725500	0.077600	0.117000
Co51	Co5	0.313650	0.794720	0.029310
Co61	Co6	0.214530	0.797750	0.123330
O171	O17	0.388280	0.801500	0.136030
O181	O18	0.314560	0.805700	0.210050
O191	O19	0.240380	0.617700	0.112690
O201	O20	0.312180	0.610600	0.037730
O211	O21	0.218690	0.981500	0.107380
O221	O22	0.295570	0.979100	0.035850
O231	O23	0.710960	0.714900	0.447150
O241	O24	0.635330	0.717900	0.519350
N91	N9	0.394720	0.825700	0.978020
N101	N10	0.458360	0.904700	0.908410
N111	N11	0.573490	0.726200	0.760580
N121	N12	0.639430	0.687300	0.684150
C551	C55	0.378310	0.796800	0.198700
C561	C56	0.274920	0.561400	0.075440
C571	C57	0.269620	0.425000	0.074270
C581	C58	0.290800	0.358500	0.020360
H491	H49	0.309500	0.399600	0.985900
C591	C59	0.242880	0.363100	0.125270
H501	H50	0.228600	0.407500	0.161400
C601	C60	0.256470	0.032800	0.070130
C611	C61	0.257850	0.169900	0.069260
C621	C62	0.284160	0.232100	0.018000
H511	H51	0.297600	0.187900	0.981300
C631	C63	0.237080	0.236100	0.123380
H521	H52	0.219300	0.194800	0.158400
C641	C64	0.448610	0.779300	0.265220
C651	C65	0.443770	0.791400	0.337120
H531	H53	0.396400	0.810700	0.343700
C661	C66	0.508280	0.775300	0.398940
H541	H54	0.504400	0.783900	0.447100
C671	C67	0.578730	0.746400	0.389990
C681	C68	0.646660	0.725000	0.457830
C691	C69	0.583670	0.735600	0.318740
H551	H55	0.631100	0.716600	0.312200
C701	C70	0.519330	0.752500	0.256780
H561	H56	0.523700	0.745800	0.208700
C711	C71	0.388340	0.887800	0.915740
C721	C72	0.511500	0.852100	0.968870
H571	H57	0.564900	0.850400	0.978900
C731	C73	0.471830	0.803800	0.010820
H581	H58	0.493500	0.761400	0.055900
C741	C74	0.475600	0.967800	0.846980
H591	H59	0.523800	0.013000	0.866900
H601	H60	0.434900	0.027500	0.824700
C751	C75	0.482300	0.880000	0.786360
H611	H61	0.434200	0.834300	0.766400
H621	H62	0.490700	0.927000	0.745500
C761	C76	0.548100	0.790600	0.816920
H631	H63	0.591900	0.835500	0.850000
H641	H64	0.532500	0.729400	0.847300
C771	C77	0.616700	0.774100	0.721550
C781	C78	0.609400	0.578300	0.700980
H651	H65	0.616400	0.500700	0.682500
C791	C79	0.568800	0.600600	0.747700
H661	H66	0.542500	0.542900	0.767500
C801	C80	0.636200	0.906400	0.721700
H671	H67	0.644000	0.940200	0.771100
H681	H68	0.594500	0.949600	0.685800
H691	H69	0.682700	0.915800	0.708400
C811	C81	0.316200	0.934300	0.862500
H701	H70	0.305200	0.890100	0.815800
H711	H71	0.321500	0.021000	0.853800
H721	H72	0.274500	0.922400	0.883000
Co71	Co7	0.813650	0.705280	0.529310
Co81	Co8	0.714530	0.702250	0.623330
O251	O25	0.888280	0.698500	0.636030
O261	O26	0.814560	0.694300	0.710050
O271	O27	0.740380	0.882300	0.612690
O281	O28	0.812180	0.889400	0.537730
O291	O29	0.718690	0.518500	0.607380
O301	O30	0.795570	0.520900	0.535850
O311	O31	0.210960	0.785100	0.947150
O321	O32	0.135330	0.782100	0.019350
N131	N13	0.894720	0.674300	0.478020
N141	N14	0.958360	0.595300	0.408410
N151	N15	0.073490	0.773800	0.260580
N161	N16	0.139430	0.812700	0.184150
C821	C82	0.878310	0.703200	0.698700
C831	C83	0.774920	0.938600	0.575440
C841	C84	0.769620	0.075000	0.574270
C851	C85	0.790800	0.141500	0.520360
H731	H73	0.809500	0.100400	0.485900
C861	C86	0.742880	0.136900	0.625270
H741	H74	0.728600	0.092500	0.661400
C871	C87	0.756470	0.467200	0.570130
C881	C88	0.757850	0.330100	0.569260
C891	C89	0.784160	0.267900	0.518000
H751	H75	0.797600	0.312100	0.481300
C901	C90	0.737080	0.263900	0.623380
H761	H76	0.719300	0.305200	0.658400
C911	C91	0.948610	0.720700	0.765220
C921	C92	0.943770	0.708600	0.837120
H771	H77	0.896400	0.689300	0.843700
C931	C93	0.008280	0.724700	0.898940
H781	H78	0.004400	0.716100	0.947100
C941	C94	0.078730	0.753600	0.889990
C951	C95	0.146660	0.775000	0.957830
C961	C96	0.083670	0.764400	0.818740
H791	H79	0.131100	0.783400	0.812200
C971	C97	0.019330	0.747500	0.756780
H801	H80	0.023700	0.754200	0.708700
C981	C98	0.888340	0.612200	0.415740
C991	C99	0.011500	0.647900	0.468870
H811	H81	0.064900	0.649600	0.478900
C1001	C100	0.971830	0.696200	0.510820
H821	H82	0.993500	0.738600	0.555900
C1011	C101	0.975600	0.532200	0.346980
H831	H83	0.023800	0.487000	0.366900
H841	H84	0.934900	0.472500	0.324700
C1021	C102	0.982300	0.620000	0.286360
H851	H85	0.934200	0.665700	0.266400
H861	H86	0.990700	0.573000	0.245500
C1031	C103	0.048100	0.709400	0.316920
H871	H87	0.091900	0.664500	0.350000
H881	H88	0.032500	0.770600	0.347300
C1041	C104	0.116700	0.725900	0.221550
C1051	C105	0.109400	0.921700	0.200980
H891	H89	0.116400	0.999300	0.182500
C1061	C106	0.068800	0.899400	0.247700
H901	H90	0.042500	0.957100	0.267500
C1071	C107	0.136200	0.593600	0.221700
H911	H91	0.144000	0.559800	0.271100
H921	H92	0.094500	0.550400	0.185800
H931	H93	0.182700	0.584200	0.208400
C1081	C108	0.816200	0.565700	0.362500
H941	H94	0.805200	0.609900	0.315800
H951	H95	0.821500	0.479000	0.353800
H961	H96	0.774500	0.577600	0.383000
