data_GAWJEV_clean_PM
_symmetry_space_group_name_H-M	'P1'
_cell_length_a	10.621100
_cell_length_b	12.659700
_cell_length_c	25.689400
_cell_angle_alpha	84.707600
_cell_angle_beta	78.069600
_cell_angle_gamma	65.197900
_symmetry_Int_Tables_number 1

loop_
_symmetry_equiv_pos_as_xyz
'x,y,z'

loop_
_atom_site_label
_atom_site_type_symbol
_atom_site_fract_x
_atom_site_fract_y
_atom_site_fract_z
Zn11	Zn1	0.247780	0.462920	0.116320
Zn21	Zn2	0.711040	0.755120	0.043020
Zn31	Zn3	0.827020	0.037080	0.383680
Zn41	Zn4	0.509180	0.744880	0.456980
Zn51	Zn5	0.752220	0.537080	0.883680
Zn61	Zn6	0.288960	0.244880	0.956980
Zn71	Zn7	0.172980	0.962920	0.616320
Zn81	Zn8	0.490820	0.255120	0.543020
Zn91	Zn9	0.063030	0.250000	0.750000
Zn101	Zn10	0.936970	0.750000	0.250000
Zn111	Zn11	0.500000	0.000000	0.000000
Zn121	Zn12	0.500000	0.500000	0.500000
H11	H1	0.543400	0.924900	0.777900
H21	H2	0.056100	0.992300	0.078100
H31	H3	0.078900	0.802900	0.093500
H41	H4	0.802400	0.940700	0.857900
H51	H5	0.663200	0.798800	0.839200
H61	H6	0.589700	0.276900	0.822500
H71	H7	0.183600	0.022700	0.886500
H81	H8	0.246200	0.575100	0.722100
H91	H9	0.126500	0.507700	0.421900
H101	H10	0.975300	0.697100	0.406500
H111	H11	0.601000	0.559300	0.642100
H121	H12	0.301200	0.701200	0.660800
H131	H13	0.689100	0.223100	0.677500
H141	H14	0.092800	0.477300	0.613500
H151	H15	0.456600	0.075100	0.222100
H161	H16	0.943900	0.007700	0.921900
H171	H17	0.921100	0.197100	0.906500
H181	H18	0.197600	0.059300	0.142100
H191	H19	0.336800	0.201200	0.160800
H201	H20	0.410300	0.723100	0.177500
H211	H21	0.816400	0.977300	0.113500
H221	H22	0.753800	0.424900	0.277900
H231	H23	0.873500	0.492300	0.578100
H241	H24	0.024700	0.302900	0.593500
H251	H25	0.399000	0.440700	0.357900
H261	H26	0.698800	0.298800	0.339200
H271	H27	0.310900	0.776900	0.322500
H281	H28	0.907200	0.522700	0.386500
C11	C1	0.893900	0.994270	0.790730
C21	C2	0.997620	0.075110	0.710650
C31	C3	0.497460	0.837740	0.900540
C41	C4	0.495960	0.920110	0.812170
C51	C5	0.677440	0.110950	0.847570
C61	C6	0.564450	0.119880	0.894820
C71	C7	0.184920	0.084110	0.003450
C81	C8	0.223800	0.616190	0.030810
C91	C9	0.586320	0.771000	0.940360
C101	C10	0.113680	0.935360	0.052880
C111	C11	0.350350	0.902390	0.914910
C121	C12	0.124940	0.822730	0.061790
C131	C13	0.269880	0.881550	0.967490
C141	C14	0.766770	0.198620	0.769040
C151	C15	0.205750	0.739700	0.023000
C161	C16	0.352460	0.988750	0.826730
C171	C17	0.793360	0.004520	0.835560
C181	C18	0.567270	0.845130	0.848930
C191	C19	0.666560	0.206070	0.814210
C201	C20	0.280250	0.978110	0.877590
C211	C21	0.275700	0.074530	0.787470
C221	C22	0.276110	0.768620	0.975160
C231	C23	0.881960	0.091690	0.757590
C241	C24	0.187060	0.964860	0.006820
C251	C25	0.678900	0.505730	0.709270
C261	C26	0.783380	0.424890	0.789350
C271	C27	0.235740	0.662260	0.599460
C281	C28	0.228240	0.579890	0.687830
C291	C29	0.635960	0.389050	0.652430
C301	C30	0.579150	0.380120	0.605180
C311	C31	0.272480	0.415890	0.496550
C321	C32	0.870800	0.883810	0.469190
C331	C33	0.297680	0.729000	0.559640
C341	C34	0.101920	0.564640	0.447120
C351	C35	0.167650	0.597610	0.585090
C361	C36	0.009460	0.677270	0.438210
C371	C37	0.118920	0.618450	0.532510
C381	C38	0.734430	0.301380	0.730960
C391	C39	0.968450	0.760300	0.477000
C401	C40	0.167940	0.511250	0.673270
C411	C41	0.633440	0.495480	0.664440
C421	C42	0.261330	0.654870	0.651070
C431	C43	0.686840	0.293930	0.685790
C441	C44	0.135950	0.521890	0.622410
C451	C45	0.137700	0.425470	0.712530
C461	C46	0.019890	0.731380	0.524840
C471	C47	0.731240	0.408310	0.742410
C481	C48	0.158740	0.535140	0.493180
C491	C49	0.106100	0.005730	0.209270
C501	C50	0.002380	0.924890	0.289350
C511	C51	0.502540	0.162260	0.099460
C521	C52	0.504040	0.079890	0.187830
C531	C53	0.322560	0.889050	0.152430
C541	C54	0.435550	0.880120	0.105180
C551	C55	0.815080	0.915890	0.996550
C561	C56	0.776200	0.383810	0.969190
C571	C57	0.413680	0.229000	0.059640
C581	C58	0.886320	0.064640	0.947120
C591	C59	0.649650	0.097610	0.085090
C601	C60	0.875060	0.177270	0.938210
C611	C61	0.730120	0.118450	0.032510
C621	C62	0.233230	0.801380	0.230960
C631	C63	0.794250	0.260300	0.977000
C641	C64	0.647540	0.011250	0.173270
C651	C65	0.206640	0.995480	0.164440
C661	C66	0.432730	0.154870	0.151070
C671	C67	0.333440	0.793930	0.185790
C681	C68	0.719750	0.021890	0.122410
C691	C69	0.724300	0.925470	0.212530
C701	C70	0.723890	0.231380	0.024840
C711	C71	0.118040	0.908310	0.242410
C721	C72	0.812940	0.035140	0.993180
C731	C73	0.321100	0.494270	0.290730
C741	C74	0.216620	0.575110	0.210650
C751	C75	0.764260	0.337740	0.400540
C761	C76	0.771760	0.420110	0.312170
C771	C77	0.364040	0.610950	0.347570
C781	C78	0.420850	0.619880	0.394820
C791	C79	0.727520	0.584110	0.503450
C801	C80	0.129200	0.116190	0.530810
C811	C81	0.702320	0.271000	0.440360
C821	C82	0.898080	0.435360	0.552880
C831	C83	0.832350	0.402390	0.414910
C841	C84	0.990540	0.322730	0.561790
C851	C85	0.881080	0.381550	0.467490
C861	C86	0.265570	0.698620	0.269040
C871	C87	0.031550	0.239700	0.523000
C881	C88	0.832060	0.488750	0.326730
C891	C89	0.366560	0.504520	0.335560
C901	C90	0.738670	0.345130	0.348930
C911	C91	0.313160	0.706070	0.314210
C921	C92	0.864050	0.478110	0.377590
C931	C93	0.862300	0.574530	0.287470
C941	C94	0.980110	0.268620	0.475160
C951	C95	0.268760	0.591690	0.257590
C961	C96	0.841260	0.464860	0.506820
O11	O1	0.145400	0.594480	0.072120
O21	O2	0.561310	0.818290	0.984770
O31	O3	0.044700	0.981140	0.685660
O41	O4	0.159080	0.157830	0.806810
O51	O5	0.044520	0.152470	0.698490
O61	O6	0.451680	0.211590	0.898450
O71	O7	0.589720	0.034540	0.926620
O81	O8	0.085260	0.168950	0.025330
O91	O9	0.324380	0.063320	0.739120
O101	O10	0.312900	0.541120	0.998880
O111	O11	0.687930	0.675240	0.928500
O121	O12	0.300310	0.088570	0.975890
O131	O13	0.812000	0.905520	0.427880
O141	O14	0.364370	0.681710	0.515230
O151	O15	0.711500	0.518860	0.814340
O161	O16	0.123720	0.342170	0.693190
O171	O17	0.895480	0.347530	0.801510
O181	O18	0.561720	0.288410	0.601550
O191	O19	0.550880	0.465460	0.573380
O201	O20	0.279540	0.331050	0.474670
O211	O21	0.126820	0.436680	0.760880
O221	O22	0.852900	0.958880	0.501120
O231	O23	0.291670	0.824760	0.571500
O241	O24	0.364770	0.411430	0.524110
O251	O25	0.854600	0.405520	0.927880
O261	O26	0.438690	0.181710	0.015230
O271	O27	0.955300	0.018860	0.314340
O281	O28	0.840920	0.842170	0.193190
O291	O29	0.955480	0.847530	0.301510
O301	O30	0.548320	0.788410	0.101550
O311	O31	0.410280	0.965460	0.073380
O321	O32	0.914740	0.831050	0.974670
O331	O33	0.675620	0.936680	0.260880
O341	O34	0.687100	0.458880	0.001120
O351	O35	0.312070	0.324760	0.071500
O361	O36	0.699690	0.911430	0.024110
O371	O37	0.188000	0.094480	0.572120
O381	O38	0.635630	0.318290	0.484770
O391	O39	0.288500	0.481140	0.185660
O401	O40	0.876280	0.657830	0.306810
O411	O41	0.104520	0.652470	0.198490
O421	O42	0.438280	0.711590	0.398450
O431	O43	0.449120	0.534540	0.426620
O441	O44	0.720460	0.668950	0.525330
O451	O45	0.873180	0.563320	0.239120
O461	O46	0.147100	0.041120	0.498880
O471	O47	0.708330	0.175240	0.428500
O481	O48	0.635230	0.588570	0.475890
