data_GAWKAS_clean_PM
_symmetry_space_group_name_H-M	'P1'
_cell_length_a	13.932000
_cell_length_b	18.156000
_cell_length_c	23.801000
_cell_angle_alpha	90.000000
_cell_angle_beta	90.000000
_cell_angle_gamma	99.420000
_symmetry_Int_Tables_number 1

loop_
_symmetry_equiv_pos_as_xyz
'x,y,z'

loop_
_atom_site_label
_atom_site_type_symbol
_atom_site_fract_x
_atom_site_fract_y
_atom_site_fract_z
Sm11	Sm1	0.142600	0.980570	0.406580
Sm21	Sm2	0.363930	0.014900	0.602390
Sm31	Sm3	0.357400	0.019430	0.906580
Sm41	Sm4	0.136070	0.985100	0.102390
Sm51	Sm5	0.857400	0.019430	0.593420
Sm61	Sm6	0.636070	0.985100	0.397610
Sm71	Sm7	0.642600	0.980570	0.093420
Sm81	Sm8	0.863930	0.014900	0.897610
Cu11	Cu1	0.065400	0.456530	0.488230
Cu21	Cu2	0.163250	0.554200	0.579750
Cu31	Cu3	0.124070	0.444170	0.688940
Cu41	Cu4	0.141200	0.570690	0.748870
Cu51	Cu5	0.375340	0.553540	0.311970
Cu61	Cu6	0.338380	0.440430	0.420770
Cu71	Cu7	0.430500	0.540320	0.510490
Cu81	Cu8	0.434600	0.543470	0.988230
Cu91	Cu9	0.336750	0.445800	0.079750
Cu101	Cu10	0.375930	0.555830	0.188940
Cu111	Cu11	0.358800	0.429310	0.248870
Cu121	Cu12	0.124660	0.446460	0.811970
Cu131	Cu13	0.161620	0.559570	0.920770
Cu141	Cu14	0.069500	0.459680	0.010490
Cu151	Cu15	0.934600	0.543470	0.511770
Cu161	Cu16	0.836750	0.445800	0.420250
Cu171	Cu17	0.875930	0.555830	0.311060
Cu181	Cu18	0.858800	0.429310	0.251130
Cu191	Cu19	0.624660	0.446460	0.688030
Cu201	Cu20	0.661620	0.559570	0.579230
Cu211	Cu21	0.569500	0.459680	0.489510
Cu221	Cu22	0.565400	0.456530	0.011770
Cu231	Cu23	0.663250	0.554200	0.920250
Cu241	Cu24	0.624070	0.444170	0.811060
Cu251	Cu25	0.641200	0.570690	0.751130
Cu261	Cu26	0.875340	0.553540	0.188030
Cu271	Cu27	0.838380	0.440430	0.079230
Cu281	Cu28	0.930500	0.540320	0.989510
H11	H1	0.098700	0.322000	0.547800
H21	H2	0.108100	0.197800	0.532700
H31	H3	0.049900	0.229800	0.370200
H41	H4	0.042900	0.354200	0.392500
H51	H5	0.209400	0.698300	0.640400
H61	H6	0.213400	0.825100	0.626600
H71	H7	0.144700	0.779200	0.464600
H81	H8	0.146600	0.654800	0.484600
H91	H9	0.307200	0.395100	0.652800
H101	H10	0.366400	0.286100	0.634800
H111	H11	0.105700	0.171000	0.669500
H121	H12	0.050700	0.280900	0.686600
H131	H13	0.179000	0.732500	0.747900
H141	H14	0.094600	0.833500	0.752800
H151	H15	0.845600	0.688100	0.751400
H161	H16	0.943500	0.594600	0.749000
H171	H17	0.450200	0.717400	0.325100
H181	H18	0.394600	0.823300	0.342400
H191	H19	0.124800	0.708200	0.359900
H201	H20	0.188900	0.601400	0.340500
H211	H21	0.359200	0.343400	0.517600
H221	H22	0.361600	0.218900	0.537100
H231	H23	0.293200	0.172000	0.376100
H241	H24	0.297100	0.296200	0.360600
H251	H25	0.451900	0.639800	0.609400
H261	H26	0.454100	0.764200	0.631900
H271	H27	0.397000	0.802500	0.470600
H281	H28	0.398500	0.678500	0.452700
H291	H29	0.401300	0.678000	0.047800
H301	H30	0.391900	0.802200	0.032700
H311	H31	0.450100	0.770200	0.870200
H321	H32	0.457100	0.645800	0.892500
H331	H33	0.290600	0.301700	0.140400
H341	H34	0.286600	0.174900	0.126600
H351	H35	0.355300	0.220800	0.964600
H361	H36	0.353400	0.345200	0.984600
H371	H37	0.192800	0.604900	0.152800
H381	H38	0.133600	0.713900	0.134800
H391	H39	0.394300	0.829000	0.169500
H401	H40	0.449300	0.719100	0.186600
H411	H41	0.321000	0.267500	0.247900
H421	H42	0.405400	0.166500	0.252800
H431	H43	0.654400	0.311900	0.251400
H441	H44	0.556500	0.405400	0.249000
H451	H45	0.049800	0.282600	0.825100
H461	H46	0.105400	0.176700	0.842400
H471	H47	0.375200	0.291800	0.859900
H481	H48	0.311100	0.398600	0.840500
H491	H49	0.140800	0.656600	0.017600
H501	H50	0.138400	0.781100	0.037100
H511	H51	0.206800	0.828000	0.876100
H521	H52	0.202900	0.703800	0.860600
H531	H53	0.048100	0.360200	0.109400
H541	H54	0.045900	0.235800	0.131900
H551	H55	0.103000	0.197500	0.970600
H561	H56	0.101500	0.321500	0.952700
H571	H57	0.901300	0.678000	0.452200
H581	H58	0.891900	0.802200	0.467300
H591	H59	0.950100	0.770200	0.629800
H601	H60	0.957100	0.645800	0.607500
H611	H61	0.790600	0.301700	0.359600
H621	H62	0.786600	0.174900	0.373400
H631	H63	0.855300	0.220800	0.535400
H641	H64	0.853400	0.345200	0.515400
H651	H65	0.692800	0.604900	0.347200
H661	H66	0.633600	0.713900	0.365200
H671	H67	0.894300	0.829000	0.330500
H681	H68	0.949300	0.719100	0.313400
H691	H69	0.821000	0.267500	0.252100
H701	H70	0.905400	0.166500	0.247200
H711	H71	0.154400	0.311900	0.248600
H721	H72	0.056500	0.405400	0.251000
H731	H73	0.549800	0.282600	0.674900
H741	H74	0.605400	0.176700	0.657600
H751	H75	0.875200	0.291800	0.640100
H761	H76	0.811100	0.398600	0.659500
H771	H77	0.640800	0.656600	0.482400
H781	H78	0.638400	0.781100	0.462900
H791	H79	0.706800	0.828000	0.623900
H801	H80	0.702900	0.703800	0.639400
H811	H81	0.548100	0.360200	0.390600
H821	H82	0.545900	0.235800	0.368100
H831	H83	0.603000	0.197500	0.529400
H841	H84	0.601500	0.321500	0.547300
H851	H85	0.598700	0.322000	0.952200
H861	H86	0.608100	0.197800	0.967300
H871	H87	0.549900	0.229800	0.129800
H881	H88	0.542900	0.354200	0.107500
H891	H89	0.709400	0.698300	0.859600
H901	H90	0.713400	0.825100	0.873400
H911	H91	0.644700	0.779200	0.035400
H921	H92	0.646600	0.654800	0.015400
H931	H93	0.807200	0.395100	0.847200
H941	H94	0.866400	0.286100	0.865200
H951	H95	0.605700	0.171000	0.830500
H961	H96	0.550700	0.280900	0.813400
H971	H97	0.679000	0.732500	0.752100
H981	H98	0.594600	0.833500	0.747200
H991	H99	0.345600	0.688100	0.748600
H1001	H100	0.443500	0.594600	0.751000
H1011	H101	0.950200	0.717400	0.174900
H1021	H102	0.894600	0.823300	0.157600
H1031	H103	0.624800	0.708200	0.140100
H1041	H104	0.688900	0.601400	0.159500
H1051	H105	0.859200	0.343400	0.982400
H1061	H106	0.861600	0.218900	0.962900
H1071	H107	0.793200	0.172000	0.123900
H1081	H108	0.797100	0.296200	0.139400
H1091	H109	0.951900	0.639800	0.890600
H1101	H110	0.954100	0.764200	0.868100
H1111	H111	0.897000	0.802500	0.029400
H1121	H112	0.898500	0.678500	0.047300
C11	C1	0.088500	0.303100	0.511500
C21	C2	0.093600	0.227800	0.503200
C31	C3	0.076800	0.200200	0.451400
C41	C4	0.059000	0.247200	0.406800
C51	C5	0.055900	0.322100	0.420900
C61	C6	0.085600	0.120100	0.436200
C71	C7	0.195600	0.714500	0.604700
C81	C8	0.197600	0.791500	0.597200
C91	C9	0.174800	0.815500	0.543700
C101	C10	0.157100	0.764400	0.500900
C111	C11	0.158500	0.689200	0.513800
C121	C12	0.176700	0.898600	0.533300
C131	C13	0.265700	0.349700	0.656300
C141	C14	0.301900	0.283800	0.645700
C151	C15	0.244600	0.217200	0.651200
C161	C16	0.147900	0.216100	0.666200
C171	C17	0.115300	0.282400	0.676100
C181	C18	0.284600	0.146700	0.638100
C191	C19	0.111400	0.724300	0.749200
C201	C20	0.060400	0.785100	0.751700
C211	C21	0.963400	0.773800	0.752600
C221	C22	0.913200	0.699700	0.751200
C231	C23	0.974500	0.644000	0.749500
C241	C24	0.902800	0.837400	0.756500
C251	C25	0.384000	0.715400	0.331800
C261	C26	0.351000	0.778600	0.342000
C271	C27	0.253100	0.779800	0.352200
C281	C28	0.190800	0.711000	0.352400
C291	C29	0.230000	0.647300	0.341000
C301	C30	0.215100	0.851100	0.365600
C311	C31	0.346100	0.308400	0.488900
C321	C32	0.346500	0.233400	0.501100
C331	C33	0.323900	0.179800	0.458400
C341	C34	0.306600	0.205500	0.405800
C351	C35	0.308900	0.280000	0.396600
C361	C36	0.318900	0.097300	0.471100
C371	C37	0.442300	0.672900	0.580900
C381	C38	0.442300	0.747900	0.595100
C391	C39	0.424300	0.797500	0.553400
C401	C40	0.408700	0.770800	0.499600
C411	C41	0.410700	0.696000	0.489100
C421	C42	0.415500	0.876100	0.569700
C431	C43	0.411500	0.696900	0.011500
C441	C44	0.406400	0.772200	0.003200
C451	C45	0.423200	0.799800	0.951400
C461	C46	0.441000	0.752800	0.906800
C471	C47	0.444100	0.677900	0.920900
C481	C48	0.414400	0.879900	0.936200
C491	C49	0.304400	0.285500	0.104700
C501	C50	0.302400	0.208500	0.097200
C511	C51	0.325200	0.184500	0.043700
C521	C52	0.342900	0.235600	0.000900
C531	C53	0.341500	0.310800	0.013800
C541	C54	0.323300	0.101400	0.033300
C551	C55	0.234300	0.650300	0.156300
C561	C56	0.198100	0.716200	0.145700
C571	C57	0.255400	0.782800	0.151200
C581	C58	0.352100	0.783900	0.166200
C591	C59	0.384700	0.717600	0.176100
C601	C60	0.215400	0.853300	0.138100
C611	C61	0.388600	0.275700	0.249200
C621	C62	0.439600	0.214900	0.251700
C631	C63	0.536600	0.226200	0.252600
C641	C64	0.586800	0.300300	0.251200
C651	C65	0.525500	0.356000	0.249500
C661	C66	0.597200	0.162600	0.256500
C671	C67	0.116000	0.284600	0.831800
C681	C68	0.149000	0.221400	0.842000
C691	C69	0.246900	0.220200	0.852200
C701	C70	0.309200	0.289000	0.852400
C711	C71	0.270000	0.352700	0.841000
C721	C72	0.284900	0.148900	0.865600
C731	C73	0.153900	0.691600	0.988900
C741	C74	0.153500	0.766600	0.001100
C751	C75	0.176100	0.820200	0.958400
C761	C76	0.193400	0.794500	0.905800
C771	C77	0.191100	0.720000	0.896600
C781	C78	0.181100	0.902700	0.971100
C791	C79	0.057700	0.327100	0.080900
C801	C80	0.057700	0.252100	0.095100
C811	C81	0.075700	0.202500	0.053400
C821	C82	0.091300	0.229200	0.999600
C831	C83	0.089300	0.304000	0.989100
C841	C84	0.084500	0.123900	0.069700
C851	C85	0.911500	0.696900	0.488500
C861	C86	0.906400	0.772200	0.496800
C871	C87	0.923200	0.799800	0.548600
C881	C88	0.941000	0.752800	0.593200
C891	C89	0.944100	0.677900	0.579100
C901	C90	0.914400	0.879900	0.563800
C911	C91	0.804400	0.285500	0.395300
C921	C92	0.802400	0.208500	0.402800
C931	C93	0.825200	0.184500	0.456300
C941	C94	0.842900	0.235600	0.499100
C951	C95	0.841500	0.310800	0.486200
C961	C96	0.823300	0.101400	0.466700
C971	C97	0.734300	0.650300	0.343700
C981	C98	0.698100	0.716200	0.354300
C991	C99	0.755400	0.782800	0.348800
C1001	C100	0.852100	0.783900	0.333800
C1011	C101	0.884700	0.717600	0.323900
C1021	C102	0.715400	0.853300	0.361900
C1031	C103	0.888600	0.275700	0.250800
C1041	C104	0.939600	0.214900	0.248300
C1051	C105	0.036600	0.226200	0.247400
C1061	C106	0.086800	0.300300	0.248800
C1071	C107	0.025500	0.356000	0.250500
C1081	C108	0.097200	0.162600	0.243500
C1091	C109	0.616000	0.284600	0.668200
C1101	C110	0.649000	0.221400	0.658000
C1111	C111	0.746900	0.220200	0.647800
C1121	C112	0.809200	0.289000	0.647600
C1131	C113	0.770000	0.352700	0.659000
C1141	C114	0.784900	0.148900	0.634400
C1151	C115	0.653900	0.691600	0.511100
C1161	C116	0.653500	0.766600	0.498900
C1171	C117	0.676100	0.820200	0.541600
C1181	C118	0.693400	0.794500	0.594200
C1191	C119	0.691100	0.720000	0.603400
C1201	C120	0.681100	0.902700	0.528900
C1211	C121	0.557700	0.327100	0.419100
C1221	C122	0.557700	0.252100	0.404900
C1231	C123	0.575700	0.202500	0.446600
C1241	C124	0.591300	0.229200	0.500400
C1251	C125	0.589300	0.304000	0.510900
C1261	C126	0.584500	0.123900	0.430300
C1271	C127	0.588500	0.303100	0.988500
C1281	C128	0.593600	0.227800	0.996800
C1291	C129	0.576800	0.200200	0.048600
C1301	C130	0.559000	0.247200	0.093200
C1311	C131	0.555900	0.322100	0.079100
C1321	C132	0.585600	0.120100	0.063800
C1331	C133	0.695600	0.714500	0.895300
C1341	C134	0.697600	0.791500	0.902800
C1351	C135	0.674800	0.815500	0.956300
C1361	C136	0.657100	0.764400	0.999100
C1371	C137	0.658500	0.689200	0.986200
C1381	C138	0.676700	0.898600	0.966700
C1391	C139	0.765700	0.349700	0.843700
C1401	C140	0.801900	0.283800	0.854300
C1411	C141	0.744600	0.217200	0.848800
C1421	C142	0.647900	0.216100	0.833800
C1431	C143	0.615300	0.282400	0.823900
C1441	C144	0.784600	0.146700	0.861900
C1451	C145	0.611400	0.724300	0.750800
C1461	C146	0.560400	0.785100	0.748300
C1471	C147	0.463400	0.773800	0.747400
C1481	C148	0.413200	0.699700	0.748800
C1491	C149	0.474500	0.644000	0.750500
C1501	C150	0.402800	0.837400	0.743500
C1511	C151	0.884000	0.715400	0.168200
C1521	C152	0.851000	0.778600	0.158000
C1531	C153	0.753100	0.779800	0.147800
C1541	C154	0.690800	0.711000	0.147600
C1551	C155	0.730000	0.647300	0.159000
C1561	C156	0.715100	0.851100	0.134400
C1571	C157	0.846100	0.308400	0.011100
C1581	C158	0.846500	0.233400	0.998900
C1591	C159	0.823900	0.179800	0.041600
C1601	C160	0.806600	0.205500	0.094200
C1611	C161	0.808900	0.280000	0.103400
C1621	C162	0.818900	0.097300	0.028900
C1631	C163	0.942300	0.672900	0.919100
C1641	C164	0.942300	0.747900	0.904900
C1651	C165	0.924300	0.797500	0.946600
C1661	C166	0.908700	0.770800	0.000400
C1671	C167	0.910700	0.696000	0.010900
C1681	C168	0.915500	0.876100	0.930300
Br11	Br1	0.249210	0.494630	0.501510
Br21	Br2	0.999830	0.471120	0.587030
Br31	Br3	0.252040	0.548270	0.670900
Br41	Br4	0.512810	0.559430	0.250490
Br51	Br5	0.249480	0.447260	0.329970
Br61	Br6	0.498240	0.528200	0.412820
Br71	Br7	0.250790	0.505370	0.001510
Br81	Br8	0.500170	0.528880	0.087030
Br91	Br9	0.247960	0.451730	0.170900
Br101	Br10	0.987190	0.440570	0.750490
Br111	Br11	0.250520	0.552740	0.829970
Br121	Br12	0.001760	0.471800	0.912820
Br131	Br13	0.750790	0.505370	0.498490
Br141	Br14	0.000170	0.528880	0.412970
Br151	Br15	0.747960	0.451730	0.329100
Br161	Br16	0.487190	0.440570	0.749510
Br171	Br17	0.750520	0.552740	0.670030
Br181	Br18	0.501760	0.471800	0.587180
Br191	Br19	0.749210	0.494630	0.998490
Br201	Br20	0.499830	0.471120	0.912970
Br211	Br21	0.752040	0.548270	0.829100
Br221	Br22	0.012810	0.559430	0.249510
Br231	Br23	0.749480	0.447260	0.170030
Br241	Br24	0.998240	0.528200	0.087180
N11	N1	0.070400	0.349300	0.472100
N21	N2	0.175600	0.663100	0.564900
N31	N3	0.173000	0.349500	0.671200
N41	N4	0.061300	0.654200	0.748700
N51	N5	0.326500	0.649200	0.330500
N61	N6	0.327700	0.331100	0.438200
N71	N7	0.429400	0.647000	0.529100
N81	N8	0.429600	0.650700	0.972100
N91	N9	0.324400	0.336900	0.064900
N101	N10	0.327000	0.650500	0.171200
N111	N11	0.438700	0.345800	0.248700
N121	N12	0.173500	0.350800	0.830500
N131	N13	0.172300	0.668900	0.938200
N141	N14	0.070600	0.353000	0.029100
N151	N15	0.929600	0.650700	0.527900
N161	N16	0.824400	0.336900	0.435100
N171	N17	0.827000	0.650500	0.328800
N181	N18	0.938700	0.345800	0.251300
N191	N19	0.673500	0.350800	0.669500
N201	N20	0.672300	0.668900	0.561800
N211	N21	0.570600	0.353000	0.470900
N221	N22	0.570400	0.349300	0.027900
N231	N23	0.675600	0.663100	0.935100
N241	N24	0.673000	0.349500	0.828800
N251	N25	0.561300	0.654200	0.751300
N261	N26	0.826500	0.649200	0.169500
N271	N27	0.827700	0.331100	0.061800
N281	N28	0.929400	0.647000	0.970900
O11	O1	0.098700	0.076000	0.476400
O21	O2	0.085100	0.099800	0.386700
O31	O3	0.139400	0.912700	0.488000
O41	O4	0.213300	0.943500	0.568600
O51	O5	0.374600	0.147200	0.640300
O61	O6	0.224400	0.088600	0.626100
O71	O7	0.947500	0.904100	0.748300
O81	O8	0.815400	0.821600	0.769100
O91	O9	0.274600	0.907900	0.380400
O101	O10	0.125800	0.851200	0.363000
O111	O11	0.354500	0.082700	0.518700
O121	O12	0.287100	0.051200	0.434900
O131	O13	0.423400	0.895800	0.619100
O141	O14	0.401000	0.921700	0.530700
O151	O15	0.401300	0.924000	0.976400
O161	O16	0.414900	0.900200	0.886700
O171	O17	0.360600	0.087300	0.988000
O181	O18	0.286700	0.056500	0.068600
O191	O19	0.125400	0.852800	0.140300
O201	O20	0.275600	0.911400	0.126100
O211	O21	0.552500	0.095900	0.248300
O221	O22	0.684600	0.178400	0.269100
O231	O23	0.225400	0.092100	0.880400
O241	O24	0.374200	0.148800	0.863000
O251	O25	0.145500	0.917300	0.018700
O261	O26	0.212900	0.948800	0.934900
O271	O27	0.076600	0.104200	0.119100
O281	O28	0.099000	0.078300	0.030700
O291	O29	0.901300	0.924000	0.523600
O301	O30	0.914900	0.900200	0.613300
O311	O31	0.860600	0.087300	0.512000
O321	O32	0.786700	0.056500	0.431400
O331	O33	0.625400	0.852800	0.359700
O341	O34	0.775600	0.911400	0.373900
O351	O35	0.052500	0.095900	0.251700
O361	O36	0.184600	0.178400	0.230900
O371	O37	0.725400	0.092100	0.619600
O381	O38	0.874200	0.148800	0.637000
O391	O39	0.645500	0.917300	0.481300
O401	O40	0.712900	0.948800	0.565100
O411	O41	0.576600	0.104200	0.380900
O421	O42	0.599000	0.078300	0.469300
O431	O43	0.598700	0.076000	0.023600
O441	O44	0.585100	0.099800	0.113300
O451	O45	0.639400	0.912700	0.012000
O461	O46	0.713300	0.943500	0.931400
O471	O47	0.874600	0.147200	0.859700
O481	O48	0.724400	0.088600	0.873900
O491	O49	0.447500	0.904100	0.751700
O501	O50	0.315400	0.821600	0.730900
O511	O51	0.774600	0.907900	0.119600
O521	O52	0.625800	0.851200	0.137000
O531	O53	0.854500	0.082700	0.981300
O541	O54	0.787100	0.051200	0.065100
O551	O55	0.923400	0.895800	0.880900
O561	O56	0.901000	0.921700	0.969300
