data_GAWMAU_clean_PM
_symmetry_space_group_name_H-M	'P1'
_cell_length_a	12.086400
_cell_length_b	12.966200
_cell_length_c	21.578000
_cell_angle_alpha	90.000000
_cell_angle_beta	90.000000
_cell_angle_gamma	115.309000
_symmetry_Int_Tables_number 1

loop_
_symmetry_equiv_pos_as_xyz
'x,y,z'

loop_
_atom_site_label
_atom_site_type_symbol
_atom_site_fract_x
_atom_site_fract_y
_atom_site_fract_z
Cu11	Cu1	0.017250	0.109850	0.093810
Cu21	Cu2	0.271700	0.694980	0.289000
Cu31	Cu3	0.153280	0.579700	0.995270
Cu41	Cu4	0.482750	0.390150	0.593810
Cu51	Cu5	0.228300	0.805020	0.789000
Cu61	Cu6	0.346720	0.920300	0.495270
Cu71	Cu7	0.982750	0.890150	0.906190
Cu81	Cu8	0.728300	0.305020	0.711000
Cu91	Cu9	0.846720	0.420300	0.004730
Cu101	Cu10	0.517250	0.609850	0.406190
Cu111	Cu11	0.771700	0.194980	0.211000
Cu121	Cu12	0.653280	0.079700	0.504730
H11	H1	0.633000	0.944400	0.143400
H21	H2	0.610500	0.947300	0.072200
H31	H3	0.613200	0.763200	0.189000
H41	H4	0.524400	0.651600	0.155100
H51	H5	0.623600	0.949000	0.922400
H61	H6	0.651400	0.941600	0.852100
H71	H7	0.498800	0.654600	0.836800
H81	H8	0.581300	0.767900	0.802400
H91	H9	0.215700	0.334200	0.945600
H101	H10	0.338700	0.421400	0.916600
H111	H11	0.297600	0.451700	0.087200
H121	H12	0.261000	0.338700	0.049400
H131	H13	0.274600	0.891400	0.013400
H141	H14	0.348800	0.824100	0.036200
H151	H15	0.203200	0.802800	0.112000
H161	H16	0.097800	0.760800	0.062200
H171	H17	0.292700	0.754200	0.942300
H181	H18	0.173200	0.756800	0.945600
H191	H19	0.095100	0.601700	0.101800
H201	H20	0.228200	0.644100	0.100500
H211	H21	0.867000	0.555600	0.643400
H221	H22	0.889500	0.552700	0.572200
H231	H23	0.886800	0.736800	0.689000
H241	H24	0.975600	0.848400	0.655100
H251	H25	0.876400	0.551000	0.422400
H261	H26	0.848600	0.558400	0.352100
H271	H27	0.001200	0.845400	0.336800
H281	H28	0.918700	0.732100	0.302400
H291	H29	0.284300	0.165800	0.445600
H301	H30	0.161300	0.078600	0.416600
H311	H31	0.202400	0.048300	0.587200
H321	H32	0.239000	0.161300	0.549400
H331	H33	0.225400	0.608600	0.513400
H341	H34	0.151200	0.675900	0.536200
H351	H35	0.296800	0.697200	0.612000
H361	H36	0.402200	0.739200	0.562200
H371	H37	0.207300	0.745800	0.442300
H381	H38	0.326800	0.743200	0.445600
H391	H39	0.404900	0.898300	0.601800
H401	H40	0.271800	0.855900	0.600500
H411	H41	0.367000	0.055600	0.856600
H421	H42	0.389500	0.052700	0.927800
H431	H43	0.386800	0.236800	0.811000
H441	H44	0.475600	0.348400	0.844900
H451	H45	0.376400	0.051000	0.077600
H461	H46	0.348600	0.058400	0.147900
H471	H47	0.501200	0.345400	0.163200
H481	H48	0.418700	0.232100	0.197600
H491	H49	0.784300	0.665800	0.054400
H501	H50	0.661300	0.578600	0.083400
H511	H51	0.702400	0.548300	0.912800
H521	H52	0.739000	0.661300	0.950600
H531	H53	0.725400	0.108600	0.986600
H541	H54	0.651200	0.175900	0.963800
H551	H55	0.796800	0.197200	0.888000
H561	H56	0.902200	0.239200	0.937800
H571	H57	0.707300	0.245800	0.057700
H581	H58	0.826800	0.243200	0.054400
H591	H59	0.904900	0.398300	0.898200
H601	H60	0.771800	0.355900	0.899500
H611	H61	0.133000	0.444400	0.356600
H621	H62	0.110500	0.447300	0.427800
H631	H63	0.113200	0.263200	0.311000
H641	H64	0.024400	0.151600	0.344900
H651	H65	0.123600	0.449000	0.577600
H661	H66	0.151400	0.441600	0.647900
H671	H67	0.998800	0.154600	0.663200
H681	H68	0.081300	0.267900	0.697600
H691	H69	0.715700	0.834200	0.554400
H701	H70	0.838700	0.921400	0.583400
H711	H71	0.797600	0.951700	0.412800
H721	H72	0.761000	0.838700	0.450600
H731	H73	0.774600	0.391400	0.486600
H741	H74	0.848800	0.324100	0.463800
H751	H75	0.703200	0.302800	0.388000
H761	H76	0.597800	0.260800	0.437800
H771	H77	0.792700	0.254200	0.557700
H781	H78	0.673200	0.256800	0.554400
H791	H79	0.595100	0.101700	0.398200
H801	H80	0.728200	0.144100	0.399500
C11	C1	0.525400	0.736200	0.049400
C21	C2	0.522200	0.735800	0.946000
C31	C3	0.397100	0.580100	0.997900
C41	C4	0.643300	0.914600	0.103600
C51	C5	0.778000	0.954800	0.091900
C61	C6	0.541900	0.730900	0.162300
C71	C7	0.433400	0.736500	0.195500
C81	C8	0.650700	0.908700	0.892500
C91	C9	0.779300	0.928000	0.908600
C101	C10	0.517100	0.734900	0.833100
C111	C11	0.403800	0.745000	0.810100
C121	C12	0.264700	0.414600	0.937400
C131	C13	0.193600	0.455300	0.893000
C141	C14	0.250600	0.408700	0.051900
C151	C15	0.115500	0.378500	0.063300
C161	C16	0.268900	0.816200	0.022900
C171	C17	0.175700	0.761300	0.073500
C181	C18	0.974600	0.763800	0.549400
C191	C19	0.977800	0.764200	0.446000
C201	C20	0.102900	0.919900	0.497900
C211	C21	0.856700	0.585400	0.603600
C221	C22	0.722000	0.545200	0.591900
C231	C23	0.958100	0.769100	0.662300
C241	C24	0.066600	0.763500	0.695500
C251	C25	0.849300	0.591300	0.392500
C261	C26	0.720700	0.572000	0.408600
C271	C27	0.982900	0.765100	0.333100
C281	C28	0.096200	0.755000	0.310100
C291	C29	0.235300	0.085400	0.437400
C301	C30	0.306400	0.044700	0.393000
C311	C31	0.249400	0.091300	0.551900
C321	C32	0.384500	0.121500	0.563300
C331	C33	0.231100	0.683800	0.522900
C341	C34	0.324300	0.738700	0.573500
C351	C35	0.474600	0.263800	0.950600
C361	C36	0.477800	0.264200	0.054000
C371	C37	0.602900	0.419900	0.002100
C381	C38	0.356700	0.085400	0.896400
C391	C39	0.222000	0.045200	0.908100
C401	C40	0.458100	0.269100	0.837700
C411	C41	0.566600	0.263500	0.804500
C421	C42	0.349300	0.091300	0.107500
C431	C43	0.220700	0.072000	0.091400
C441	C44	0.482900	0.265100	0.166900
C451	C45	0.596200	0.255000	0.189900
C461	C46	0.735300	0.585400	0.062600
C471	C47	0.806400	0.544700	0.107000
C481	C48	0.749400	0.591300	0.948100
C491	C49	0.884500	0.621500	0.936700
C501	C50	0.731100	0.183800	0.977100
C511	C51	0.824300	0.238700	0.926500
C521	C52	0.025400	0.236200	0.450600
C531	C53	0.022200	0.235800	0.554000
C541	C54	0.897100	0.080100	0.502100
C551	C55	0.143300	0.414600	0.396400
C561	C56	0.278000	0.454800	0.408100
C571	C57	0.041900	0.230900	0.337700
C581	C58	0.933400	0.236500	0.304500
C591	C59	0.150700	0.408700	0.607500
C601	C60	0.279300	0.428000	0.591400
C611	C61	0.017100	0.234900	0.666900
C621	C62	0.903800	0.245000	0.689900
C631	C63	0.764700	0.914600	0.562600
C641	C64	0.693600	0.955300	0.607000
C651	C65	0.750600	0.908700	0.448100
C661	C66	0.615500	0.878500	0.436700
C671	C67	0.768900	0.316200	0.477100
C681	C68	0.675700	0.261300	0.426500
N11	N1	0.568000	0.794800	0.997600
N21	N2	0.436100	0.626900	0.942800
N31	N3	0.438200	0.627200	0.053500
N41	N4	0.570500	0.790600	0.103800
N51	N5	0.562600	0.789300	0.891600
N61	N6	0.299300	0.474100	0.996500
N71	N7	0.228300	0.741500	0.967100
N81	N8	0.163200	0.644100	0.080100
N91	N9	0.932000	0.705200	0.497600
N101	N10	0.063900	0.873100	0.442800
N111	N11	0.061800	0.872800	0.553500
N121	N12	0.929500	0.709400	0.603800
N131	N13	0.937400	0.710700	0.391600
N141	N14	0.200700	0.025900	0.496500
N151	N15	0.271700	0.758500	0.467100
N161	N16	0.336800	0.855900	0.580100
N171	N17	0.432000	0.205200	0.002400
N181	N18	0.563900	0.373100	0.057200
N191	N19	0.561800	0.372800	0.946500
N201	N20	0.429500	0.209400	0.896200
N211	N21	0.437400	0.210700	0.108400
N221	N22	0.700700	0.525900	0.003500
N231	N23	0.771700	0.258500	0.032900
N241	N24	0.836800	0.355900	0.919900
N251	N25	0.068000	0.294800	0.502400
N261	N26	0.936100	0.126900	0.557200
N271	N27	0.938200	0.127200	0.446500
N281	N28	0.070500	0.290600	0.396200
N291	N29	0.062600	0.289300	0.608400
N301	N30	0.799300	0.974100	0.503500
N311	N31	0.728300	0.241500	0.532900
N321	N32	0.663200	0.144100	0.419900
O11	O1	0.839900	0.063300	0.094400
O21	O2	0.822500	0.886600	0.081400
O31	O3	0.407800	0.683300	0.248060
O41	O4	0.376900	0.786200	0.174500
O51	O5	0.851500	0.025800	0.924300
O61	O6	0.808500	0.846600	0.902700
O71	O7	0.362900	0.802300	0.840300
O81	O8	0.356200	0.695400	0.761200
O91	O9	0.149600	0.522500	0.910990
O101	O10	0.180300	0.418200	0.839800
O111	O11	0.062100	0.424700	0.030400
O121	O12	0.063500	0.307600	0.104800
O131	O13	0.660100	0.436700	0.594400
O141	O14	0.677500	0.613400	0.581400
O151	O15	0.092200	0.816700	0.748060
O161	O16	0.123100	0.713800	0.674500
O171	O17	0.648500	0.474200	0.424300
O181	O18	0.691500	0.653400	0.402700
O191	O19	0.137100	0.697700	0.340300
O201	O20	0.143800	0.804600	0.261200
O211	O21	0.350400	0.977500	0.410990
O221	O22	0.319700	0.081800	0.339800
O231	O23	0.437900	0.075300	0.530400
O241	O24	0.436500	0.192400	0.604800
O251	O25	0.160100	0.936700	0.905600
O261	O26	0.177500	0.113400	0.918600
O271	O27	0.592200	0.316700	0.751940
O281	O28	0.623100	0.213800	0.825500
O291	O29	0.148500	0.974200	0.075700
O301	O30	0.191500	0.153400	0.097300
O311	O31	0.637100	0.197700	0.159700
O321	O32	0.643800	0.304600	0.238800
O331	O33	0.850400	0.477500	0.089010
O341	O34	0.819700	0.581800	0.160200
O351	O35	0.937900	0.575300	0.969600
O361	O36	0.936500	0.692400	0.895200
O371	O37	0.339900	0.563300	0.405600
O381	O38	0.322500	0.386600	0.418600
O391	O39	0.907800	0.183300	0.251940
O401	O40	0.876900	0.286200	0.325500
O411	O41	0.351500	0.525800	0.575700
O421	O42	0.308500	0.346600	0.597300
O431	O43	0.862900	0.302300	0.659700
O441	O44	0.856200	0.195400	0.738800
O451	O45	0.649600	0.022500	0.589010
O461	O46	0.680300	0.918200	0.660200
O471	O47	0.562100	0.924700	0.469600
O481	O48	0.563500	0.807600	0.395200
