data_GAXQIH_clean_PM
_symmetry_space_group_name_H-M	'P1'
_cell_length_a	11.144000
_cell_length_b	15.239200
_cell_length_c	16.695000
_cell_angle_alpha	114.419000
_cell_angle_beta	90.000000
_cell_angle_gamma	111.447000
_symmetry_Int_Tables_number 1

loop_
_symmetry_equiv_pos_as_xyz
'x,y,z'

loop_
_atom_site_label
_atom_site_type_symbol
_atom_site_fract_x
_atom_site_fract_y
_atom_site_fract_z
Ni11	Ni1	0.000000	0.500000	0.000000
Ni21	Ni2	0.500000	0.500000	0.500000
Ni31	Ni3	0.500000	0.500000	0.000000
Ni41	Ni4	0.000000	0.500000	0.500000
H11	H1	0.205900	0.329800	0.630000
H21	H2	0.042900	0.570800	0.820100
H31	H3	0.062900	0.304400	0.894700
H41	H4	0.714200	0.328000	0.882400
H51	H5	0.573100	0.158000	0.842200
H61	H6	0.815000	0.146200	0.010900
H71	H7	0.947100	0.316800	0.047100
H81	H8	0.684200	0.867400	0.020200
H91	H9	0.671600	0.732400	0.053100
H101	H10	0.351700	0.540200	0.876000
H111	H11	0.354400	0.669400	0.839000
H121	H12	0.344300	0.828600	0.824300
H131	H13	0.135200	0.245600	0.759300
H141	H14	0.876100	0.670200	0.870000
H151	H15	0.472100	0.429200	0.679900
H161	H16	0.758500	0.695600	0.605300
H171	H17	0.386200	0.672000	0.617600
H181	H18	0.415100	0.842000	0.657800
H191	H19	0.668800	0.853800	0.489100
H201	H20	0.630300	0.683200	0.452900
H211	H21	0.816800	0.132600	0.479800
H221	H22	0.939200	0.267600	0.446900
H231	H23	0.811500	0.459800	0.624000
H241	H24	0.685000	0.330600	0.661000
H251	H25	0.515700	0.171400	0.675700
H261	H26	0.889600	0.754400	0.740700
H271	H27	0.794100	0.670200	0.370000
H281	H28	0.957100	0.429200	0.179900
H291	H29	0.937100	0.695600	0.105300
H301	H30	0.285800	0.672000	0.117600
H311	H31	0.426900	0.842000	0.157800
H321	H32	0.185000	0.853800	0.989100
H331	H33	0.052900	0.683200	0.952900
H341	H34	0.315800	0.132600	0.979800
H351	H35	0.328400	0.267600	0.946900
H361	H36	0.648300	0.459800	0.124000
H371	H37	0.645600	0.330600	0.161000
H381	H38	0.655700	0.171400	0.175700
H391	H39	0.864800	0.754400	0.240700
H401	H40	0.123900	0.329800	0.130000
H411	H41	0.527900	0.570800	0.320100
H421	H42	0.241500	0.304400	0.394700
H431	H43	0.613800	0.328000	0.382400
H441	H44	0.584900	0.158000	0.342200
H451	H45	0.331200	0.146200	0.510900
H461	H46	0.369700	0.316800	0.547100
H471	H47	0.183200	0.867400	0.520200
H481	H48	0.060800	0.732400	0.553100
H491	H49	0.188500	0.540200	0.376000
H501	H50	0.315000	0.669400	0.339000
H511	H51	0.484300	0.828600	0.324300
H521	H52	0.110400	0.245600	0.259300
C11	C1	0.233600	0.470600	0.571700
C21	C2	0.171100	0.459000	0.650000
C31	C3	0.122800	0.532600	0.707700
C41	C4	0.121700	0.626800	0.697000
C51	C5	0.173200	0.377400	0.667200
C61	C6	0.124100	0.369200	0.742700
C71	C7	0.079000	0.442800	0.801300
C81	C8	0.075900	0.523600	0.782800
C91	C9	0.074500	0.336400	0.856600
C101	C10	0.735100	0.291400	0.909100
C111	C11	0.648800	0.188400	0.884300
C121	C12	0.676200	0.130800	0.922900
C131	C13	0.791200	0.181400	0.983900
C141	C14	0.871100	0.284800	0.004900
C151	C15	0.590900	0.020800	0.901600
C161	C16	0.529300	0.873000	0.904900
C171	C17	0.521000	0.783200	0.924100
C181	C18	0.616000	0.801400	0.989900
C191	C19	0.607100	0.719600	0.009500
C201	C20	0.419100	0.606800	0.905500
C211	C21	0.420400	0.683800	0.882400
C221	C22	0.763000	0.529400	0.928300
C231	C23	0.712100	0.541000	0.850000
C241	C24	0.590200	0.467400	0.792300
C251	C25	0.494900	0.373200	0.803000
C261	C26	0.795800	0.622600	0.832800
C271	C27	0.754900	0.630800	0.757300
C281	C28	0.636200	0.557200	0.698700
C291	C29	0.552300	0.476400	0.717200
C301	C30	0.738100	0.663600	0.643400
C311	C31	0.443700	0.708600	0.590900
C321	C32	0.460400	0.811600	0.615700
C331	C33	0.545400	0.869200	0.577100
C341	C34	0.609800	0.818600	0.516100
C351	C35	0.586300	0.715200	0.495100
C361	C36	0.570100	0.979200	0.598400
C371	C37	0.656300	0.127000	0.595100
C381	C38	0.737800	0.216800	0.575900
C391	C39	0.814600	0.198600	0.510100
C401	C40	0.887500	0.280400	0.490500
C411	C41	0.812300	0.393200	0.594500
C421	C42	0.736600	0.316200	0.617600
C431	C43	0.766400	0.529400	0.428300
C441	C44	0.828900	0.541000	0.350000
C451	C45	0.877200	0.467400	0.292300
C461	C46	0.878300	0.373200	0.303000
C471	C47	0.826800	0.622600	0.332800
C481	C48	0.875900	0.630800	0.257300
C491	C49	0.921000	0.557200	0.198700
C501	C50	0.924100	0.476400	0.217200
C511	C51	0.925500	0.663600	0.143400
C521	C52	0.264900	0.708600	0.090900
C531	C53	0.351200	0.811600	0.115700
C541	C54	0.323800	0.869200	0.077100
C551	C55	0.208800	0.818600	0.016100
C561	C56	0.128900	0.715200	0.995100
C571	C57	0.409100	0.979200	0.098400
C581	C58	0.470700	0.127000	0.095100
C591	C59	0.479000	0.216800	0.075900
C601	C60	0.384000	0.198600	0.010100
C611	C61	0.392900	0.280400	0.990500
C621	C62	0.580900	0.393200	0.094500
C631	C63	0.579600	0.316200	0.117600
C641	C64	0.237000	0.470600	0.071700
C651	C65	0.287900	0.459000	0.150000
C661	C66	0.409800	0.532600	0.207700
C671	C67	0.505100	0.626800	0.197000
C681	C68	0.204200	0.377400	0.167200
C691	C69	0.245100	0.369200	0.242700
C701	C70	0.363800	0.442800	0.301300
C711	C71	0.447700	0.523600	0.282800
C721	C72	0.261900	0.336400	0.356600
C731	C73	0.556300	0.291400	0.409100
C741	C74	0.539600	0.188400	0.384300
C751	C75	0.454600	0.130800	0.422900
C761	C76	0.390200	0.181400	0.483900
C771	C77	0.413700	0.284800	0.504900
C781	C78	0.429900	0.020800	0.401600
C791	C79	0.343700	0.873000	0.404900
C801	C80	0.262200	0.783200	0.424100
C811	C81	0.185400	0.801400	0.489900
C821	C82	0.112500	0.719600	0.509500
C831	C83	0.187700	0.606800	0.405500
C841	C84	0.263400	0.683800	0.382400
N11	N1	0.847300	0.342400	0.969100
N21	N2	0.630300	0.966800	0.938100
N31	N3	0.472300	0.965400	0.850000
N41	N4	0.432000	0.869000	0.852100
N51	N5	0.510400	0.623000	0.968800
N61	N6	0.118500	0.300400	0.778500
N71	N7	0.049000	0.421400	0.874600
N81	N8	0.504900	0.657600	0.530900
N91	N9	0.663500	0.033200	0.561900
N101	N10	0.506900	0.034600	0.650000
N111	N11	0.563000	0.131000	0.647900
N121	N12	0.887400	0.377000	0.531200
N131	N13	0.818100	0.699600	0.721500
N141	N14	0.627600	0.578600	0.625400
N151	N15	0.152700	0.657600	0.030900
N161	N16	0.369700	0.033200	0.061900
N171	N17	0.527700	0.034600	0.150000
N181	N18	0.568000	0.131000	0.147900
N191	N19	0.489600	0.377000	0.031200
N201	N20	0.881500	0.699600	0.221500
N211	N21	0.951000	0.578600	0.125400
N221	N22	0.495100	0.342400	0.469100
N231	N23	0.336500	0.966800	0.438100
N241	N24	0.493100	0.965400	0.350000
N251	N25	0.437000	0.869000	0.352100
N261	N26	0.112600	0.623000	0.468800
N271	N27	0.181900	0.300400	0.278500
N281	N28	0.372400	0.421400	0.374600
O11	O1	0.346150	0.469700	0.569600
O21	O2	0.171320	0.479440	0.513600
O31	O3	0.049570	0.613140	0.631300
O41	O4	0.190400	0.716200	0.758700
O51	O5	0.876450	0.530300	0.930400
O61	O6	0.691880	0.520560	0.986400
O71	O7	0.436430	0.386860	0.868700
O81	O8	0.474200	0.283800	0.741300
O91	O9	0.653850	0.530300	0.430400
O101	O10	0.828680	0.520560	0.486400
O111	O11	0.950430	0.386860	0.368700
O121	O12	0.809600	0.283800	0.241300
O131	O13	0.123550	0.469700	0.069600
O141	O14	0.308120	0.479440	0.013600
O151	O15	0.563570	0.613140	0.131300
O161	O16	0.525800	0.716200	0.258700
