data_GAXVUY_clean_PM
_symmetry_space_group_name_H-M	'P1'
_cell_length_a	10.311000
_cell_length_b	14.366600
_cell_length_c	18.401400
_cell_angle_alpha	90.000000
_cell_angle_beta	90.000000
_cell_angle_gamma	99.825000
_symmetry_Int_Tables_number 1

loop_
_symmetry_equiv_pos_as_xyz
'x,y,z'

loop_
_atom_site_label
_atom_site_type_symbol
_atom_site_fract_x
_atom_site_fract_y
_atom_site_fract_z
Ca11	Ca1	0.623670	0.821100	0.308150
Ca21	Ca2	0.876330	0.678900	0.808150
Ca31	Ca3	0.376330	0.178900	0.691850
Ca41	Ca4	0.123670	0.321100	0.191850
Zn11	Zn1	0.707410	0.053020	0.186170
Zn21	Zn2	0.792590	0.446980	0.686170
Zn31	Zn3	0.292590	0.946980	0.813830
Zn41	Zn4	0.207410	0.553020	0.313830
H11	H1	0.603300	0.012900	0.474000
H21	H2	0.591700	0.101200	0.577500
H31	H3	0.755900	0.332800	0.470300
H41	H4	0.752400	0.246200	0.364700
H51	H5	0.054900	0.827600	0.280400
H61	H6	0.277400	0.828400	0.268000
H71	H7	0.297000	0.036500	0.121800
H81	H8	0.073200	0.031600	0.131300
H91	H9	0.896700	0.487100	0.974000
H101	H10	0.908300	0.398800	0.077500
H111	H11	0.744100	0.167200	0.970300
H121	H12	0.747600	0.253800	0.864700
H131	H13	0.445100	0.672400	0.780400
H141	H14	0.222600	0.671600	0.768000
H151	H15	0.203000	0.463500	0.621800
H161	H16	0.426800	0.468400	0.631300
H171	H17	0.396700	0.987100	0.526000
H181	H18	0.408300	0.898800	0.422500
H191	H19	0.244100	0.667200	0.529700
H201	H20	0.247600	0.753800	0.635300
H211	H21	0.945100	0.172400	0.719600
H221	H22	0.722600	0.171600	0.732000
H231	H23	0.703000	0.963500	0.878200
H241	H24	0.926800	0.968400	0.868700
H251	H25	0.103300	0.512900	0.026000
H261	H26	0.091700	0.601200	0.922500
H271	H27	0.255900	0.832800	0.029700
H281	H28	0.252400	0.746200	0.135300
H291	H29	0.554900	0.327600	0.219600
H301	H30	0.777400	0.328400	0.232000
H311	H31	0.797000	0.536500	0.378200
H321	H32	0.573200	0.531600	0.368700
C11	C1	0.675600	0.120700	0.408000
C21	C2	0.630700	0.078000	0.472500
C31	C3	0.625900	0.130700	0.535000
C41	C4	0.671500	0.226600	0.534800
C51	C5	0.721600	0.268600	0.470900
C61	C6	0.721400	0.216400	0.407700
C71	C7	0.670900	0.063000	0.340200
C81	C8	0.667700	0.283200	0.603200
C91	C9	0.041800	0.930100	0.207900
C101	C10	0.103700	0.869500	0.248100
C111	C11	0.237200	0.870300	0.241000
C121	C12	0.311100	0.933000	0.194000
C131	C13	0.248200	0.993800	0.153500
C141	C14	0.114400	0.991700	0.159600
C151	C15	0.895900	0.931000	0.216600
C161	C16	0.457200	0.937100	0.189200
C171	C17	0.824400	0.379300	0.908000
C181	C18	0.869300	0.422000	0.972500
C191	C19	0.874100	0.369300	0.035000
C201	C20	0.828500	0.273400	0.034800
C211	C21	0.778400	0.231400	0.970900
C221	C22	0.778600	0.283600	0.907700
C231	C23	0.829100	0.437000	0.840200
C241	C24	0.832300	0.216800	0.103200
C251	C25	0.458200	0.569900	0.707900
C261	C26	0.396300	0.630500	0.748100
C271	C27	0.262800	0.629700	0.741000
C281	C28	0.188900	0.567000	0.694000
C291	C29	0.251800	0.506200	0.653500
C301	C30	0.385600	0.508300	0.659600
C311	C31	0.604100	0.569000	0.716600
C321	C32	0.042800	0.562900	0.689200
C331	C33	0.324400	0.879300	0.592000
C341	C34	0.369300	0.922000	0.527500
C351	C35	0.374100	0.869300	0.465000
C361	C36	0.328500	0.773400	0.465200
C371	C37	0.278400	0.731400	0.529100
C381	C38	0.278600	0.783600	0.592300
C391	C39	0.329100	0.937000	0.659800
C401	C40	0.332300	0.716800	0.396800
C411	C41	0.958200	0.069900	0.792100
C421	C42	0.896300	0.130500	0.751900
C431	C43	0.762800	0.129700	0.759000
C441	C44	0.688900	0.067000	0.806000
C451	C45	0.751800	0.006200	0.846500
C461	C46	0.885600	0.008300	0.840400
C471	C47	0.104100	0.069000	0.783400
C481	C48	0.542800	0.062900	0.810800
C491	C49	0.175600	0.620700	0.092000
C501	C50	0.130700	0.578000	0.027500
C511	C51	0.125900	0.630700	0.965000
C521	C52	0.171500	0.726600	0.965200
C531	C53	0.221600	0.768600	0.029100
C541	C54	0.221400	0.716400	0.092300
C551	C55	0.170900	0.563000	0.159800
C561	C56	0.167700	0.783200	0.896800
C571	C57	0.541800	0.430100	0.292100
C581	C58	0.603700	0.369500	0.251900
C591	C59	0.737200	0.370300	0.259000
C601	C60	0.811100	0.433000	0.306000
C611	C61	0.748200	0.493800	0.346500
C621	C62	0.614400	0.491700	0.340400
C631	C63	0.395900	0.431000	0.283400
C641	C64	0.957200	0.437100	0.310800
O11	O1	0.709800	0.107600	0.282980
O21	O2	0.627300	0.977200	0.343570
O31	O3	0.758100	0.354300	0.608080
O41	O4	0.581900	0.257100	0.649300
O51	O5	0.846200	0.980700	0.171320
O61	O6	0.836700	0.885200	0.267300
O71	O7	0.522700	0.011500	0.161350
O81	O8	0.506400	0.870400	0.213330
O91	O9	0.790200	0.392400	0.782980
O101	O10	0.872700	0.522800	0.843570
O111	O11	0.741900	0.145700	0.108080
O121	O12	0.918100	0.242900	0.149300
O131	O13	0.653800	0.519300	0.671320
O141	O14	0.663300	0.614800	0.767300
O151	O15	0.977300	0.488500	0.661350
O161	O16	0.993600	0.629600	0.713330
O171	O17	0.290200	0.892400	0.717020
O181	O18	0.372700	0.022800	0.656430
O191	O19	0.241900	0.645700	0.391920
O201	O20	0.418100	0.742900	0.350700
O211	O21	0.153800	0.019300	0.828680
O221	O22	0.163300	0.114800	0.732700
O231	O23	0.477300	0.988500	0.838650
O241	O24	0.493600	0.129600	0.786670
O251	O25	0.209800	0.607600	0.217020
O261	O26	0.127300	0.477200	0.156430
O271	O27	0.258100	0.854300	0.891920
O281	O28	0.081900	0.757100	0.850700
O291	O29	0.346200	0.480700	0.328680
O301	O30	0.336700	0.385200	0.232700
O311	O31	0.022700	0.511500	0.338650
O321	O32	0.006400	0.370400	0.286670
