data_GAXWAF_clean_PM
_symmetry_space_group_name_H-M	'P1'
_cell_length_a	10.406400
_cell_length_b	14.498400
_cell_length_c	18.533200
_cell_angle_alpha	90.000000
_cell_angle_beta	90.000000
_cell_angle_gamma	100.153000
_symmetry_Int_Tables_number 1

loop_
_symmetry_equiv_pos_as_xyz
'x,y,z'

loop_
_atom_site_label
_atom_site_type_symbol
_atom_site_fract_x
_atom_site_fract_y
_atom_site_fract_z
Sr11	Sr1	0.893460	0.682490	0.304700
Sr21	Sr2	0.606540	0.817510	0.804700
Sr31	Sr3	0.106540	0.317510	0.695300
Sr41	Sr4	0.393460	0.182490	0.195300
Zn11	Zn1	0.805830	0.444000	0.181250
Zn21	Zn2	0.694170	0.056000	0.681250
Zn31	Zn3	0.194170	0.556000	0.818750
Zn41	Zn4	0.305830	0.944000	0.318750
H11	H1	0.583900	0.109300	0.068700
H21	H2	0.584600	0.021600	0.965400
H31	H3	0.770200	0.246600	0.860700
H41	H4	0.780900	0.330800	0.966700
H51	H5	0.239100	0.666500	0.261900
H61	H6	0.459900	0.664700	0.274900
H71	H7	0.437200	0.461000	0.129400
H81	H8	0.213600	0.457300	0.119200
H91	H9	0.916100	0.390700	0.568700
H101	H10	0.915400	0.478400	0.465400
H111	H11	0.729800	0.253400	0.360700
H121	H12	0.719100	0.169200	0.466700
H131	H13	0.260900	0.833500	0.761900
H141	H14	0.040100	0.835300	0.774900
H151	H15	0.062800	0.039000	0.629400
H161	H16	0.286400	0.042700	0.619200
H171	H17	0.416100	0.890700	0.931300
H181	H18	0.415400	0.978400	0.034600
H191	H19	0.229800	0.753400	0.139300
H201	H20	0.219100	0.669200	0.033300
H211	H21	0.760900	0.333500	0.738100
H221	H22	0.540100	0.335300	0.725100
H231	H23	0.562800	0.539000	0.870600
H241	H24	0.786400	0.542700	0.880800
H251	H25	0.083900	0.609300	0.431300
H261	H26	0.084600	0.521600	0.534600
H271	H27	0.270200	0.746600	0.639300
H281	H28	0.280900	0.830800	0.533300
H291	H29	0.739100	0.166500	0.238100
H301	H30	0.959900	0.164700	0.225100
H311	H31	0.937200	0.961000	0.370600
H321	H32	0.713600	0.957300	0.380800
C11	C1	0.683300	0.229200	0.028400
C21	C2	0.623400	0.136900	0.027100
C31	C3	0.621300	0.084900	0.964700
C41	C4	0.672900	0.125600	0.901600
C51	C5	0.733200	0.218200	0.902600
C61	C6	0.738700	0.268700	0.966200
C71	C7	0.687400	0.285500	0.097300
C81	C8	0.662300	0.068700	0.833100
C91	C9	0.203300	0.561100	0.189500
C101	C10	0.277800	0.624000	0.235700
C111	C11	0.410800	0.623500	0.242800
C121	C12	0.470700	0.563100	0.203200
C131	C13	0.397400	0.501700	0.156800
C141	C14	0.262800	0.500000	0.150200
C151	C15	0.058600	0.559100	0.184200
C161	C16	0.614800	0.562700	0.212300
C171	C17	0.816700	0.270800	0.528400
C181	C18	0.876600	0.363100	0.527100
C191	C19	0.878700	0.415100	0.464700
C201	C20	0.827100	0.374400	0.401600
C211	C21	0.766800	0.281800	0.402600
C221	C22	0.761300	0.231300	0.466200
C231	C23	0.812600	0.214500	0.597300
C241	C24	0.837700	0.431300	0.333100
C251	C25	0.296700	0.938900	0.689500
C261	C26	0.222200	0.876000	0.735700
C271	C27	0.089200	0.876500	0.742800
C281	C28	0.029300	0.936900	0.703200
C291	C29	0.102600	0.998300	0.656800
C301	C30	0.237200	0.000000	0.650200
C311	C31	0.441400	0.940900	0.684200
C321	C32	0.885200	0.937300	0.712300
C331	C33	0.316700	0.770800	0.971600
C341	C34	0.376600	0.863100	0.972900
C351	C35	0.378700	0.915100	0.035300
C361	C36	0.327100	0.874400	0.098400
C371	C37	0.266800	0.781800	0.097400
C381	C38	0.261300	0.731300	0.033800
C391	C39	0.312600	0.714500	0.902700
C401	C40	0.337700	0.931300	0.166900
C411	C41	0.796700	0.438900	0.810500
C421	C42	0.722200	0.376000	0.764300
C431	C43	0.589200	0.376500	0.757200
C441	C44	0.529300	0.436900	0.796800
C451	C45	0.602600	0.498300	0.843200
C461	C46	0.737200	0.500000	0.849800
C471	C47	0.941400	0.440900	0.815800
C481	C48	0.385200	0.437300	0.787700
C491	C49	0.183300	0.729200	0.471600
C501	C50	0.123400	0.636900	0.472900
C511	C51	0.121300	0.584900	0.535300
C521	C52	0.172900	0.625600	0.598400
C531	C53	0.233200	0.718200	0.597400
C541	C54	0.238700	0.768700	0.533800
C551	C55	0.187400	0.785500	0.402700
C561	C56	0.162300	0.568700	0.666900
C571	C57	0.703300	0.061100	0.310500
C581	C58	0.777800	0.124000	0.264300
C591	C59	0.910800	0.123500	0.257200
C601	C60	0.970700	0.063100	0.296800
C611	C61	0.897400	0.001700	0.343200
C621	C62	0.762800	0.000000	0.349800
C631	C63	0.558600	0.059100	0.315800
C641	C64	0.114800	0.062700	0.287700
O11	O1	0.607600	0.258100	0.145750
O21	O2	0.775800	0.356600	0.100440
O31	O3	0.705400	0.112600	0.776590
O41	O4	0.609800	0.984700	0.835740
O51	O5	0.990900	0.484400	0.159570
O61	O6	0.013000	0.628900	0.204150
O71	O7	0.664700	0.512800	0.167490
O81	O8	0.674000	0.610100	0.259900
O91	O9	0.892400	0.241900	0.645750
O101	O10	0.724200	0.143400	0.600440
O111	O11	0.794600	0.387400	0.276590
O121	O12	0.890200	0.515300	0.335740
O131	O13	0.509100	0.015600	0.659570
O141	O14	0.487000	0.871100	0.704150
O151	O15	0.835300	0.987200	0.667490
O161	O16	0.826000	0.889900	0.759900
O171	O17	0.392400	0.741900	0.854250
O181	O18	0.224200	0.643400	0.899560
O191	O19	0.294600	0.887400	0.223410
O201	O20	0.390200	0.015300	0.164260
O211	O21	0.009100	0.515600	0.840430
O221	O22	0.987000	0.371100	0.795850
O231	O23	0.335300	0.487200	0.832510
O241	O24	0.326000	0.389900	0.740100
O251	O25	0.107600	0.758100	0.354250
O261	O26	0.275800	0.856600	0.399560
O271	O27	0.205400	0.612600	0.723410
O281	O28	0.109800	0.484700	0.664260
O291	O29	0.490900	0.984400	0.340430
O301	O30	0.513000	0.128900	0.295850
O311	O31	0.164700	0.012800	0.332510
O321	O32	0.174000	0.110100	0.240100
