data_GAYPED_clean_PM
_symmetry_space_group_name_H-M	'P1'
_cell_length_a	15.484000
_cell_length_b	30.163000
_cell_length_c	30.163000
_cell_angle_alpha	90.000000
_cell_angle_beta	90.000000
_cell_angle_gamma	90.000000
_symmetry_Int_Tables_number 1

loop_
_symmetry_equiv_pos_as_xyz
'x,y,z'

loop_
_atom_site_label
_atom_site_type_symbol
_atom_site_fract_x
_atom_site_fract_y
_atom_site_fract_z
Co11	Co1	0.622510	0.752800	0.982960
Co21	Co2	0.622510	0.247200	0.017040
Co31	Co3	0.622510	0.017040	0.752800
Co41	Co4	0.622510	0.982960	0.247200
Co51	Co5	0.377490	0.747200	0.482960
Co61	Co6	0.377490	0.252800	0.517040
Co71	Co7	0.377490	0.482960	0.252800
Co81	Co8	0.377490	0.517040	0.747200
Co91	Co9	0.377490	0.247200	0.017040
Co101	Co10	0.377490	0.752800	0.982960
Co111	Co11	0.377490	0.982960	0.247200
Co121	Co12	0.377490	0.017040	0.752800
Co131	Co13	0.622510	0.252800	0.517040
Co141	Co14	0.622510	0.747200	0.482960
Co151	Co15	0.622510	0.517040	0.747200
Co161	Co16	0.622510	0.482960	0.252800
Co171	Co17	0.000000	0.500000	0.000000
Co181	Co18	0.000000	0.000000	0.500000
Co191	Co19	0.500000	0.838670	0.989700
Co201	Co20	0.500000	0.161330	0.010300
Co211	Co21	0.500000	0.010300	0.838670
Co221	Co22	0.500000	0.989700	0.161330
Co231	Co23	0.500000	0.661330	0.489700
Co241	Co24	0.500000	0.338670	0.510300
Co251	Co25	0.500000	0.489700	0.338670
Co261	Co26	0.500000	0.510300	0.661330
Co271	Co27	0.000000	0.740570	0.240570
Co281	Co28	0.000000	0.259430	0.759430
Co291	Co29	0.000000	0.759430	0.740570
Co301	Co30	0.000000	0.240570	0.259430
H11	H1	0.762200	0.630500	0.963300
H21	H2	0.605500	0.882400	0.099100
H31	H3	0.766000	0.869700	0.204100
H41	H4	0.764600	0.778500	0.107500
H51	H5	0.681700	0.765700	0.207000
H61	H6	0.919600	0.856900	0.125800
H71	H7	0.762200	0.369500	0.036700
H81	H8	0.605500	0.117600	0.900900
H91	H9	0.766000	0.130300	0.795900
H101	H10	0.764600	0.221500	0.892500
H111	H11	0.681700	0.234300	0.793000
H121	H12	0.919600	0.143100	0.874200
H131	H13	0.762200	0.036700	0.630500
H141	H14	0.605500	0.900900	0.882400
H151	H15	0.766000	0.795900	0.869700
H161	H16	0.764600	0.892500	0.778500
H171	H17	0.681700	0.793000	0.765700
H181	H18	0.919600	0.874200	0.856900
H191	H19	0.762200	0.963300	0.369500
H201	H20	0.605500	0.099100	0.117600
H211	H21	0.766000	0.204100	0.130300
H221	H22	0.764600	0.107500	0.221500
H231	H23	0.681700	0.207000	0.234300
H241	H24	0.919600	0.125800	0.143100
H251	H25	0.237800	0.869500	0.463300
H261	H26	0.394500	0.617600	0.599100
H271	H27	0.234000	0.630300	0.704100
H281	H28	0.235400	0.721500	0.607500
H291	H29	0.318300	0.734300	0.707000
H301	H30	0.080400	0.643100	0.625800
H311	H31	0.237800	0.130500	0.536700
H321	H32	0.394500	0.382400	0.400900
H331	H33	0.234000	0.369700	0.295900
H341	H34	0.235400	0.278500	0.392500
H351	H35	0.318300	0.265700	0.293000
H361	H36	0.080400	0.356900	0.374200
H371	H37	0.237800	0.463300	0.130500
H381	H38	0.394500	0.599100	0.382400
H391	H39	0.234000	0.704100	0.369700
H401	H40	0.235400	0.607500	0.278500
H411	H41	0.318300	0.707000	0.265700
H421	H42	0.080400	0.625800	0.356900
H431	H43	0.237800	0.536700	0.869500
H441	H44	0.394500	0.400900	0.617600
H451	H45	0.234000	0.295900	0.630300
H461	H46	0.235400	0.392500	0.721500
H471	H47	0.318300	0.293000	0.734300
H481	H48	0.080400	0.374200	0.643100
H491	H49	0.237800	0.369500	0.036700
H501	H50	0.394500	0.117600	0.900900
H511	H51	0.234000	0.130300	0.795900
H521	H52	0.235400	0.221500	0.892500
H531	H53	0.318300	0.234300	0.793000
H541	H54	0.080400	0.143100	0.874200
H551	H55	0.237800	0.630500	0.963300
H561	H56	0.394500	0.882400	0.099100
H571	H57	0.234000	0.869700	0.204100
H581	H58	0.235400	0.778500	0.107500
H591	H59	0.318300	0.765700	0.207000
H601	H60	0.080400	0.856900	0.125800
H611	H61	0.237800	0.963300	0.369500
H621	H62	0.394500	0.099100	0.117600
H631	H63	0.234000	0.204100	0.130300
H641	H64	0.235400	0.107500	0.221500
H651	H65	0.318300	0.207000	0.234300
H661	H66	0.080400	0.125800	0.143100
H671	H67	0.237800	0.036700	0.630500
H681	H68	0.394500	0.900900	0.882400
H691	H69	0.234000	0.795900	0.869700
H701	H70	0.235400	0.892500	0.778500
H711	H71	0.318300	0.793000	0.765700
H721	H72	0.080400	0.874200	0.856900
H731	H73	0.762200	0.130500	0.536700
H741	H74	0.605500	0.382400	0.400900
H751	H75	0.766000	0.369700	0.295900
H761	H76	0.764600	0.278500	0.392500
H771	H77	0.681700	0.265700	0.293000
H781	H78	0.919600	0.356900	0.374200
H791	H79	0.762200	0.869500	0.463300
H801	H80	0.605500	0.617600	0.599100
H811	H81	0.766000	0.630300	0.704100
H821	H82	0.764600	0.721500	0.607500
H831	H83	0.681700	0.734300	0.707000
H841	H84	0.919600	0.643100	0.625800
H851	H85	0.762200	0.536700	0.869500
H861	H86	0.605500	0.400900	0.617600
H871	H87	0.766000	0.295900	0.630300
H881	H88	0.764600	0.392500	0.721500
H891	H89	0.681700	0.293000	0.734300
H901	H90	0.919600	0.374200	0.643100
H911	H91	0.762200	0.463300	0.130500
H921	H92	0.605500	0.599100	0.382400
H931	H93	0.766000	0.704100	0.369700
H941	H94	0.764600	0.607500	0.278500
H951	H95	0.681700	0.707000	0.265700
H961	H96	0.919600	0.625800	0.356900
H971	H97	0.920500	0.616000	0.884000
H981	H98	0.677100	0.529300	0.970700
H991	H99	0.594200	0.636300	0.863700
H1001	H100	0.920500	0.384000	0.116000
H1011	H101	0.677100	0.470700	0.029300
H1021	H102	0.594200	0.363700	0.136300
H1031	H103	0.920500	0.116000	0.616000
H1041	H104	0.677100	0.029300	0.529300
H1051	H105	0.594200	0.136300	0.636300
H1061	H106	0.920500	0.884000	0.384000
H1071	H107	0.677100	0.970700	0.470700
H1081	H108	0.594200	0.863700	0.363700
H1091	H109	0.079500	0.884000	0.384000
H1101	H110	0.322900	0.970700	0.470700
H1111	H111	0.405800	0.863700	0.363700
H1121	H112	0.079500	0.116000	0.616000
H1131	H113	0.322900	0.029300	0.529300
H1141	H114	0.405800	0.136300	0.636300
H1151	H115	0.079500	0.384000	0.116000
H1161	H116	0.322900	0.470700	0.029300
H1171	H117	0.405800	0.363700	0.136300
H1181	H118	0.079500	0.616000	0.884000
H1191	H119	0.322900	0.529300	0.970700
H1201	H120	0.405800	0.636300	0.863700
C11	C1	0.740900	0.619300	0.935900
C21	C2	0.675800	0.640400	0.915500
C31	C3	0.640200	0.683500	0.934100
C41	C4	0.646000	0.809900	0.054200
C51	C5	0.679600	0.828400	0.097500
C61	C6	0.649500	0.866500	0.114200
C71	C7	0.683000	0.882700	0.153800
C81	C8	0.745200	0.859200	0.176400
C91	C9	0.776500	0.821100	0.158900
C101	C10	0.743300	0.805500	0.119600
C111	C11	0.645400	0.923600	0.173100
C121	C12	0.843000	0.797000	0.182900
C131	C13	0.818400	0.763800	0.211200
C141	C14	0.731200	0.753000	0.220500
C151	C15	0.927700	0.806800	0.175000
C161	C16	0.955700	0.838700	0.143600
C171	C17	0.740900	0.380700	0.064100
C181	C18	0.675800	0.359600	0.084500
C191	C19	0.640200	0.316500	0.065900
C201	C20	0.646000	0.190100	0.945800
C211	C21	0.679600	0.171600	0.902500
C221	C22	0.649500	0.133500	0.885800
C231	C23	0.683000	0.117300	0.846200
C241	C24	0.745200	0.140800	0.823600
C251	C25	0.776500	0.178900	0.841100
C261	C26	0.743300	0.194500	0.880400
C271	C27	0.645400	0.076400	0.826900
C281	C28	0.843000	0.203000	0.817100
C291	C29	0.818400	0.236200	0.788800
C301	C30	0.731200	0.247000	0.779500
C311	C31	0.927700	0.193200	0.825000
C321	C32	0.955700	0.161300	0.856400
C331	C33	0.740900	0.064100	0.619300
C341	C34	0.675800	0.084500	0.640400
C351	C35	0.640200	0.065900	0.683500
C361	C36	0.646000	0.945800	0.809900
C371	C37	0.679600	0.902500	0.828400
C381	C38	0.649500	0.885800	0.866500
C391	C39	0.683000	0.846200	0.882700
C401	C40	0.745200	0.823600	0.859200
C411	C41	0.776500	0.841100	0.821100
C421	C42	0.743300	0.880400	0.805500
C431	C43	0.645400	0.826900	0.923600
C441	C44	0.843000	0.817100	0.797000
C451	C45	0.818400	0.788800	0.763800
C461	C46	0.731200	0.779500	0.753000
C471	C47	0.927700	0.825000	0.806800
C481	C48	0.955700	0.856400	0.838700
C491	C49	0.740900	0.935900	0.380700
C501	C50	0.675800	0.915500	0.359600
C511	C51	0.640200	0.934100	0.316500
C521	C52	0.646000	0.054200	0.190100
C531	C53	0.679600	0.097500	0.171600
C541	C54	0.649500	0.114200	0.133500
C551	C55	0.683000	0.153800	0.117300
C561	C56	0.745200	0.176400	0.140800
C571	C57	0.776500	0.158900	0.178900
C581	C58	0.743300	0.119600	0.194500
C591	C59	0.645400	0.173100	0.076400
C601	C60	0.843000	0.182900	0.203000
C611	C61	0.818400	0.211200	0.236200
C621	C62	0.731200	0.220500	0.247000
C631	C63	0.927700	0.175000	0.193200
C641	C64	0.955700	0.143600	0.161300
C651	C65	0.259100	0.880700	0.435900
C661	C66	0.324200	0.859600	0.415500
C671	C67	0.359800	0.816500	0.434100
C681	C68	0.354000	0.690100	0.554200
C691	C69	0.320400	0.671600	0.597500
C701	C70	0.350500	0.633500	0.614200
C711	C71	0.317000	0.617300	0.653800
C721	C72	0.254800	0.640800	0.676400
C731	C73	0.223500	0.678900	0.658900
C741	C74	0.256700	0.694500	0.619600
C751	C75	0.354600	0.576400	0.673100
C761	C76	0.157000	0.703000	0.682900
C771	C77	0.181600	0.736200	0.711200
C781	C78	0.268800	0.747000	0.720500
C791	C79	0.072300	0.693200	0.675000
C801	C80	0.044300	0.661300	0.643600
C811	C81	0.259100	0.119300	0.564100
C821	C82	0.324200	0.140400	0.584500
C831	C83	0.359800	0.183500	0.565900
C841	C84	0.354000	0.309900	0.445800
C851	C85	0.320400	0.328400	0.402500
C861	C86	0.350500	0.366500	0.385800
C871	C87	0.317000	0.382700	0.346200
C881	C88	0.254800	0.359200	0.323600
C891	C89	0.223500	0.321100	0.341100
C901	C90	0.256700	0.305500	0.380400
C911	C91	0.354600	0.423600	0.326900
C921	C92	0.157000	0.297000	0.317100
C931	C93	0.181600	0.263800	0.288800
C941	C94	0.268800	0.253000	0.279500
C951	C95	0.072300	0.306800	0.325000
C961	C96	0.044300	0.338700	0.356400
C971	C97	0.259100	0.435900	0.119300
C981	C98	0.324200	0.415500	0.140400
C991	C99	0.359800	0.434100	0.183500
C1001	C100	0.354000	0.554200	0.309900
C1011	C101	0.320400	0.597500	0.328400
C1021	C102	0.350500	0.614200	0.366500
C1031	C103	0.317000	0.653800	0.382700
C1041	C104	0.254800	0.676400	0.359200
C1051	C105	0.223500	0.658900	0.321100
C1061	C106	0.256700	0.619600	0.305500
C1071	C107	0.354600	0.673100	0.423600
C1081	C108	0.157000	0.682900	0.297000
C1091	C109	0.181600	0.711200	0.263800
C1101	C110	0.268800	0.720500	0.253000
C1111	C111	0.072300	0.675000	0.306800
C1121	C112	0.044300	0.643600	0.338700
C1131	C113	0.259100	0.564100	0.880700
C1141	C114	0.324200	0.584500	0.859600
C1151	C115	0.359800	0.565900	0.816500
C1161	C116	0.354000	0.445800	0.690100
C1171	C117	0.320400	0.402500	0.671600
C1181	C118	0.350500	0.385800	0.633500
C1191	C119	0.317000	0.346200	0.617300
C1201	C120	0.254800	0.323600	0.640800
C1211	C121	0.223500	0.341100	0.678900
C1221	C122	0.256700	0.380400	0.694500
C1231	C123	0.354600	0.326900	0.576400
C1241	C124	0.157000	0.317100	0.703000
C1251	C125	0.181600	0.288800	0.736200
C1261	C126	0.268800	0.279500	0.747000
C1271	C127	0.072300	0.325000	0.693200
C1281	C128	0.044300	0.356400	0.661300
C1291	C129	0.259100	0.380700	0.064100
C1301	C130	0.324200	0.359600	0.084500
C1311	C131	0.359800	0.316500	0.065900
C1321	C132	0.354000	0.190100	0.945800
C1331	C133	0.320400	0.171600	0.902500
C1341	C134	0.350500	0.133500	0.885800
C1351	C135	0.317000	0.117300	0.846200
C1361	C136	0.254800	0.140800	0.823600
C1371	C137	0.223500	0.178900	0.841100
C1381	C138	0.256700	0.194500	0.880400
C1391	C139	0.354600	0.076400	0.826900
C1401	C140	0.157000	0.203000	0.817100
C1411	C141	0.181600	0.236200	0.788800
C1421	C142	0.268800	0.247000	0.779500
C1431	C143	0.072300	0.193200	0.825000
C1441	C144	0.044300	0.161300	0.856400
C1451	C145	0.259100	0.619300	0.935900
C1461	C146	0.324200	0.640400	0.915500
C1471	C147	0.359800	0.683500	0.934100
C1481	C148	0.354000	0.809900	0.054200
C1491	C149	0.320400	0.828400	0.097500
C1501	C150	0.350500	0.866500	0.114200
C1511	C151	0.317000	0.882700	0.153800
C1521	C152	0.254800	0.859200	0.176400
C1531	C153	0.223500	0.821100	0.158900
C1541	C154	0.256700	0.805500	0.119600
C1551	C155	0.354600	0.923600	0.173100
C1561	C156	0.157000	0.797000	0.182900
C1571	C157	0.181600	0.763800	0.211200
C1581	C158	0.268800	0.753000	0.220500
C1591	C159	0.072300	0.806800	0.175000
C1601	C160	0.044300	0.838700	0.143600
C1611	C161	0.259100	0.935900	0.380700
C1621	C162	0.324200	0.915500	0.359600
C1631	C163	0.359800	0.934100	0.316500
C1641	C164	0.354000	0.054200	0.190100
C1651	C165	0.320400	0.097500	0.171600
C1661	C166	0.350500	0.114200	0.133500
C1671	C167	0.317000	0.153800	0.117300
C1681	C168	0.254800	0.176400	0.140800
C1691	C169	0.223500	0.158900	0.178900
C1701	C170	0.256700	0.119600	0.194500
C1711	C171	0.354600	0.173100	0.076400
C1721	C172	0.157000	0.182900	0.203000
C1731	C173	0.181600	0.211200	0.236200
C1741	C174	0.268800	0.220500	0.247000
C1751	C175	0.072300	0.175000	0.193200
C1761	C176	0.044300	0.143600	0.161300
C1771	C177	0.259100	0.064100	0.619300
C1781	C178	0.324200	0.084500	0.640400
C1791	C179	0.359800	0.065900	0.683500
C1801	C180	0.354000	0.945800	0.809900
C1811	C181	0.320400	0.902500	0.828400
C1821	C182	0.350500	0.885800	0.866500
C1831	C183	0.317000	0.846200	0.882700
C1841	C184	0.254800	0.823600	0.859200
C1851	C185	0.223500	0.841100	0.821100
C1861	C186	0.256700	0.880400	0.805500
C1871	C187	0.354600	0.826900	0.923600
C1881	C188	0.157000	0.817100	0.797000
C1891	C189	0.181600	0.788800	0.763800
C1901	C190	0.268800	0.779500	0.753000
C1911	C191	0.072300	0.825000	0.806800
C1921	C192	0.044300	0.856400	0.838700
C1931	C193	0.740900	0.119300	0.564100
C1941	C194	0.675800	0.140400	0.584500
C1951	C195	0.640200	0.183500	0.565900
C1961	C196	0.646000	0.309900	0.445800
C1971	C197	0.679600	0.328400	0.402500
C1981	C198	0.649500	0.366500	0.385800
C1991	C199	0.683000	0.382700	0.346200
C2001	C200	0.745200	0.359200	0.323600
C2011	C201	0.776500	0.321100	0.341100
C2021	C202	0.743300	0.305500	0.380400
C2031	C203	0.645400	0.423600	0.326900
C2041	C204	0.843000	0.297000	0.317100
C2051	C205	0.818400	0.263800	0.288800
C2061	C206	0.731200	0.253000	0.279500
C2071	C207	0.927700	0.306800	0.325000
C2081	C208	0.955700	0.338700	0.356400
C2091	C209	0.740900	0.880700	0.435900
C2101	C210	0.675800	0.859600	0.415500
C2111	C211	0.640200	0.816500	0.434100
C2121	C212	0.646000	0.690100	0.554200
C2131	C213	0.679600	0.671600	0.597500
C2141	C214	0.649500	0.633500	0.614200
C2151	C215	0.683000	0.617300	0.653800
C2161	C216	0.745200	0.640800	0.676400
C2171	C217	0.776500	0.678900	0.658900
C2181	C218	0.743300	0.694500	0.619600
C2191	C219	0.645400	0.576400	0.673100
C2201	C220	0.843000	0.703000	0.682900
C2211	C221	0.818400	0.736200	0.711200
C2221	C222	0.731200	0.747000	0.720500
C2231	C223	0.927700	0.693200	0.675000
C2241	C224	0.955700	0.661300	0.643600
C2251	C225	0.740900	0.564100	0.880700
C2261	C226	0.675800	0.584500	0.859600
C2271	C227	0.640200	0.565900	0.816500
C2281	C228	0.646000	0.445800	0.690100
C2291	C229	0.679600	0.402500	0.671600
C2301	C230	0.649500	0.385800	0.633500
C2311	C231	0.683000	0.346200	0.617300
C2321	C232	0.745200	0.323600	0.640800
C2331	C233	0.776500	0.341100	0.678900
C2341	C234	0.743300	0.380400	0.694500
C2351	C235	0.645400	0.326900	0.576400
C2361	C236	0.843000	0.317100	0.703000
C2371	C237	0.818400	0.288800	0.736200
C2381	C238	0.731200	0.279500	0.747000
C2391	C239	0.927700	0.325000	0.693200
C2401	C240	0.955700	0.356400	0.661300
C2411	C241	0.740900	0.435900	0.119300
C2421	C242	0.675800	0.415500	0.140400
C2431	C243	0.640200	0.434100	0.183500
C2441	C244	0.646000	0.554200	0.309900
C2451	C245	0.679600	0.597500	0.328400
C2461	C246	0.649500	0.614200	0.366500
C2471	C247	0.683000	0.653800	0.382700
C2481	C248	0.745200	0.676400	0.359200
C2491	C249	0.776500	0.658900	0.321100
C2501	C250	0.743300	0.619600	0.305500
C2511	C251	0.645400	0.673100	0.423600
C2521	C252	0.843000	0.682900	0.297000
C2531	C253	0.818400	0.711200	0.263800
C2541	C254	0.731200	0.720500	0.253000
C2551	C255	0.927700	0.675000	0.306800
C2561	C256	0.955700	0.643600	0.338700
C2571	C257	0.956700	0.598000	0.902000
C2581	C258	0.928600	0.566100	0.933900
C2591	C259	0.842900	0.557300	0.942700
C2601	C260	0.816700	0.525800	0.974200
C2611	C261	0.726300	0.516000	0.984000
C2621	C262	0.777100	0.582100	0.917900
C2631	C263	0.641900	0.622400	0.877600
C2641	C264	0.956700	0.402000	0.098000
C2651	C265	0.928600	0.433900	0.066100
C2661	C266	0.842900	0.442700	0.057300
C2671	C267	0.816700	0.474200	0.025800
C2681	C268	0.726300	0.484000	0.016000
C2691	C269	0.777100	0.417900	0.082100
C2701	C270	0.641900	0.377600	0.122400
C2711	C271	0.956700	0.098000	0.598000
C2721	C272	0.928600	0.066100	0.566100
C2731	C273	0.842900	0.057300	0.557300
C2741	C274	0.816700	0.025800	0.525800
C2751	C275	0.726300	0.016000	0.516000
C2761	C276	0.777100	0.082100	0.582100
C2771	C277	0.641900	0.122400	0.622400
C2781	C278	0.956700	0.902000	0.402000
C2791	C279	0.928600	0.933900	0.433900
C2801	C280	0.842900	0.942700	0.442700
C2811	C281	0.816700	0.974200	0.474200
C2821	C282	0.726300	0.984000	0.484000
C2831	C283	0.777100	0.917900	0.417900
C2841	C284	0.641900	0.877600	0.377600
C2851	C285	0.043300	0.902000	0.402000
C2861	C286	0.071400	0.933900	0.433900
C2871	C287	0.157100	0.942700	0.442700
C2881	C288	0.183300	0.974200	0.474200
C2891	C289	0.273700	0.984000	0.484000
C2901	C290	0.222900	0.917900	0.417900
C2911	C291	0.358100	0.877600	0.377600
C2921	C292	0.043300	0.098000	0.598000
C2931	C293	0.071400	0.066100	0.566100
C2941	C294	0.157100	0.057300	0.557300
C2951	C295	0.183300	0.025800	0.525800
C2961	C296	0.273700	0.016000	0.516000
C2971	C297	0.222900	0.082100	0.582100
C2981	C298	0.358100	0.122400	0.622400
C2991	C299	0.043300	0.402000	0.098000
C3001	C300	0.071400	0.433900	0.066100
C3011	C301	0.157100	0.442700	0.057300
C3021	C302	0.183300	0.474200	0.025800
C3031	C303	0.273700	0.484000	0.016000
C3041	C304	0.222900	0.417900	0.082100
C3051	C305	0.358100	0.377600	0.122400
C3061	C306	0.043300	0.598000	0.902000
C3071	C307	0.071400	0.566100	0.933900
C3081	C308	0.157100	0.557300	0.942700
C3091	C309	0.183300	0.525800	0.974200
C3101	C310	0.273700	0.516000	0.984000
C3111	C311	0.222900	0.582100	0.917900
C3121	C312	0.358100	0.622400	0.877600
N11	N1	0.876900	0.500000	0.000000
N21	N2	0.876900	0.000000	0.500000
N31	N3	0.123100	0.000000	0.500000
N41	N4	0.123100	0.500000	0.000000
N51	N5	0.000000	0.544800	0.955200
N61	N6	0.000000	0.455200	0.044800
N71	N7	0.000000	0.044800	0.544800
N81	N8	0.000000	0.955200	0.455200
N91	N9	0.874100	0.739000	0.239000
N101	N10	0.874100	0.261000	0.761000
N111	N11	0.874100	0.761000	0.739000
N121	N12	0.874100	0.239000	0.261000
N131	N13	0.125900	0.761000	0.739000
N141	N14	0.125900	0.239000	0.261000
N151	N15	0.125900	0.739000	0.239000
N161	N16	0.125900	0.261000	0.761000
N171	N17	0.000000	0.787500	0.193600
N181	N18	0.000000	0.212500	0.806400
N191	N19	0.000000	0.806400	0.787500
N201	N20	0.000000	0.193600	0.212500
N211	N21	0.000000	0.712500	0.693600
N221	N22	0.000000	0.287500	0.306400
N231	N23	0.000000	0.693600	0.287500
N241	N24	0.000000	0.306400	0.712500
O11	O1	0.667100	0.697700	0.972100
O21	O2	0.588300	0.707300	0.917600
O31	O3	0.664300	0.774100	0.038600
O41	O4	0.595500	0.837600	0.035000
O51	O5	0.589800	0.941700	0.151500
O61	O6	0.671200	0.936500	0.209500
O71	O7	0.667100	0.302300	0.027900
O81	O8	0.588300	0.292700	0.082400
O91	O9	0.664300	0.225900	0.961400
O101	O10	0.595500	0.162400	0.965000
O111	O11	0.589800	0.058300	0.848500
O121	O12	0.671200	0.063500	0.790500
O131	O13	0.667100	0.027900	0.697700
O141	O14	0.588300	0.082400	0.707300
O151	O15	0.664300	0.961400	0.774100
O161	O16	0.595500	0.965000	0.837600
O171	O17	0.589800	0.848500	0.941700
O181	O18	0.671200	0.790500	0.936500
O191	O19	0.667100	0.972100	0.302300
O201	O20	0.588300	0.917600	0.292700
O211	O21	0.664300	0.038600	0.225900
O221	O22	0.595500	0.035000	0.162400
O231	O23	0.589800	0.151500	0.058300
O241	O24	0.671200	0.209500	0.063500
O251	O25	0.332900	0.802300	0.472100
O261	O26	0.411700	0.792700	0.417600
O271	O27	0.335700	0.725900	0.538600
O281	O28	0.404500	0.662400	0.535000
O291	O29	0.410200	0.558300	0.651500
O301	O30	0.328800	0.563500	0.709500
O311	O31	0.332900	0.197700	0.527900
O321	O32	0.411700	0.207300	0.582400
O331	O33	0.335700	0.274100	0.461400
O341	O34	0.404500	0.337600	0.465000
O351	O35	0.410200	0.441700	0.348500
O361	O36	0.328800	0.436500	0.290500
O371	O37	0.332900	0.472100	0.197700
O381	O38	0.411700	0.417600	0.207300
O391	O39	0.335700	0.538600	0.274100
O401	O40	0.404500	0.535000	0.337600
O411	O41	0.410200	0.651500	0.441700
O421	O42	0.328800	0.709500	0.436500
O431	O43	0.332900	0.527900	0.802300
O441	O44	0.411700	0.582400	0.792700
O451	O45	0.335700	0.461400	0.725900
O461	O46	0.404500	0.465000	0.662400
O471	O47	0.410200	0.348500	0.558300
O481	O48	0.328800	0.290500	0.563500
O491	O49	0.332900	0.302300	0.027900
O501	O50	0.411700	0.292700	0.082400
O511	O51	0.335700	0.225900	0.961400
O521	O52	0.404500	0.162400	0.965000
O531	O53	0.410200	0.058300	0.848500
O541	O54	0.328800	0.063500	0.790500
O551	O55	0.332900	0.697700	0.972100
O561	O56	0.411700	0.707300	0.917600
O571	O57	0.335700	0.774100	0.038600
O581	O58	0.404500	0.837600	0.035000
O591	O59	0.410200	0.941700	0.151500
O601	O60	0.328800	0.936500	0.209500
O611	O61	0.332900	0.972100	0.302300
O621	O62	0.411700	0.917600	0.292700
O631	O63	0.335700	0.038600	0.225900
O641	O64	0.404500	0.035000	0.162400
O651	O65	0.410200	0.151500	0.058300
O661	O66	0.328800	0.209500	0.063500
O671	O67	0.332900	0.027900	0.697700
O681	O68	0.411700	0.082400	0.707300
O691	O69	0.335700	0.961400	0.774100
O701	O70	0.404500	0.965000	0.837600
O711	O71	0.410200	0.848500	0.941700
O721	O72	0.328800	0.790500	0.936500
O731	O73	0.667100	0.197700	0.527900
O741	O74	0.588300	0.207300	0.582400
O751	O75	0.664300	0.274100	0.461400
O761	O76	0.595500	0.337600	0.465000
O771	O77	0.589800	0.441700	0.348500
O781	O78	0.671200	0.436500	0.290500
O791	O79	0.667100	0.802300	0.472100
O801	O80	0.588300	0.792700	0.417600
O811	O81	0.664300	0.725900	0.538600
O821	O82	0.595500	0.662400	0.535000
O831	O83	0.589800	0.558300	0.651500
O841	O84	0.671200	0.563500	0.709500
O851	O85	0.667100	0.527900	0.802300
O861	O86	0.588300	0.582400	0.792700
O871	O87	0.664300	0.461400	0.725900
O881	O88	0.595500	0.465000	0.662400
O891	O89	0.589800	0.348500	0.558300
O901	O90	0.671200	0.290500	0.563500
O911	O91	0.667100	0.472100	0.197700
O921	O92	0.588300	0.417600	0.207300
O931	O93	0.664300	0.538600	0.274100
O941	O94	0.595500	0.535000	0.337600
O951	O95	0.589800	0.651500	0.441700
O961	O96	0.671200	0.709500	0.436500
O971	O97	0.500000	0.770600	0.979300
O981	O98	0.500000	0.229400	0.020700
O991	O99	0.500000	0.020700	0.770600
O1001	O100	0.500000	0.979300	0.229400
O1011	O101	0.500000	0.729400	0.479300
O1021	O102	0.500000	0.270600	0.520700
O1031	O103	0.500000	0.479300	0.270600
O1041	O104	0.500000	0.520700	0.729400
