data_GAYTEH_ion_b_PM
_symmetry_space_group_name_H-M	'P1'
_cell_length_a	24.398400
_cell_length_b	24.398400
_cell_length_c	24.398400
_cell_angle_alpha	90.000000
_cell_angle_beta	90.000000
_cell_angle_gamma	90.000000
_symmetry_Int_Tables_number 1

loop_
_symmetry_equiv_pos_as_xyz
'x,y,z'

loop_
_atom_site_label
_atom_site_type_symbol
_atom_site_fract_x
_atom_site_fract_y
_atom_site_fract_z
Cu11	Cu1	0.781690	0.109230	0.064710
Cu21	Cu2	0.008030	0.152650	0.802540
O31	O3	0.804220	0.104900	0.987740
O41	O4	0.726400	0.062700	0.971300
O51	O5	0.938390	0.130810	0.835710
O61	O6	0.735210	0.026600	0.715630
O71	O7	0.917600	0.101000	0.752900
O81	O8	0.667350	0.049460	0.772870
O91	O9	0.813790	0.040130	0.082340
H101	H10	0.829000	0.021700	0.057300
N111	N11	0.779100	0.079400	0.178900
N121	N12	0.770500	0.121100	0.143100
C131	C13	0.784900	0.080300	0.895600
C141	C14	0.770000	0.082300	0.955900
C151	C15	0.850200	0.092000	0.822600
C161	C16	0.837100	0.095300	0.877700
H171	H17	0.863000	0.107600	0.902700
C181	C18	0.745900	0.063000	0.857700
H191	H19	0.710900	0.053500	0.869400
C201	C20	0.759100	0.059900	0.802500
C211	C21	0.717400	0.043700	0.760600
C221	C22	0.811200	0.073700	0.785300
H231	H23	0.820200	0.070800	0.748300
C241	C24	0.905600	0.108800	0.802100
C251	C25	0.761000	0.166100	0.172700
H261	H26	0.753000	0.200400	0.158000
C271	C27	0.775700	0.100300	0.229900
H281	H28	0.780300	0.080200	0.261900
C291	C29	0.764500	0.154900	0.228000
H301	H30	0.760300	0.179100	0.257200
Na311	Na31	0.924400	0.077200	0.661600
O321	O32	0.843500	0.013200	0.652400
O331	O33	0.944900	0.989100	0.702000
O341	O34	0.017900	0.062700	0.673600
Cu371	Cu37	0.718310	0.890770	0.564710
Cu381	Cu38	0.491970	0.847350	0.302540
O391	O39	0.695780	0.895100	0.487740
O401	O40	0.773600	0.937300	0.471300
O411	O41	0.561610	0.869190	0.335710
O421	O42	0.764790	0.973400	0.215630
O431	O43	0.582400	0.899000	0.252900
O441	O44	0.832650	0.950540	0.272870
O451	O45	0.686210	0.959870	0.582340
H461	H46	0.671000	0.978300	0.557300
N471	N47	0.720900	0.920600	0.678900
N481	N48	0.729500	0.878900	0.643100
C491	C49	0.715100	0.919700	0.395600
C501	C50	0.730000	0.917700	0.455900
C511	C51	0.649800	0.908000	0.322600
C521	C52	0.662900	0.904700	0.377700
H531	H53	0.637000	0.892400	0.402700
C541	C54	0.754100	0.937000	0.357700
H551	H55	0.789100	0.946500	0.369400
C561	C56	0.740900	0.940100	0.302500
C571	C57	0.782600	0.956300	0.260600
C581	C58	0.688800	0.926300	0.285300
H591	H59	0.679800	0.929200	0.248300
C601	C60	0.594400	0.891200	0.302100
C611	C61	0.739000	0.833900	0.672700
H621	H62	0.747000	0.799600	0.658000
C631	C63	0.724300	0.899700	0.729900
H641	H64	0.719700	0.919800	0.761900
C651	C65	0.735500	0.845100	0.728000
H661	H66	0.739700	0.820900	0.757200
Na671	Na67	0.575600	0.922800	0.161600
O681	O68	0.656500	0.986800	0.152400
O691	O69	0.555100	0.010900	0.202000
O701	O70	0.482100	0.937300	0.173600
Cu731	Cu73	0.218310	0.609230	0.435290
Cu741	Cu74	0.991970	0.652650	0.697460
O751	O75	0.195780	0.604900	0.512260
O761	O76	0.273600	0.562700	0.528700
O771	O77	0.061610	0.630810	0.664290
O781	O78	0.264790	0.526600	0.784370
O791	O79	0.082400	0.601000	0.747100
O801	O80	0.332650	0.549460	0.727130
O811	O81	0.186210	0.540130	0.417660
H821	H82	0.171000	0.521700	0.442700
N831	N83	0.220900	0.579400	0.321100
N841	N84	0.229500	0.621100	0.356900
C851	C85	0.215100	0.580300	0.604400
C861	C86	0.230000	0.582300	0.544100
C871	C87	0.149800	0.592000	0.677400
C881	C88	0.162900	0.595300	0.622300
H891	H89	0.137000	0.607600	0.597300
C901	C90	0.254100	0.563000	0.642300
H911	H91	0.289100	0.553500	0.630600
C921	C92	0.240900	0.559900	0.697500
C931	C93	0.282600	0.543700	0.739400
C941	C94	0.188800	0.573700	0.714700
H951	H95	0.179800	0.570800	0.751700
C961	C96	0.094400	0.608800	0.697900
C971	C97	0.239000	0.666100	0.327300
H981	H98	0.247000	0.700400	0.342000
C991	C99	0.224300	0.600300	0.270100
H1001	H100	0.219700	0.580200	0.238100
C1011	C101	0.235500	0.654900	0.272000
H1021	H102	0.239700	0.679100	0.242800
Na1031	Na103	0.075600	0.577200	0.838400
O1041	O104	0.156500	0.513200	0.847600
O1051	O105	0.055100	0.489100	0.798000
O1061	O106	0.982100	0.562700	0.826400
Cu1091	Cu109	0.281690	0.390770	0.935290
Cu1101	Cu110	0.508030	0.347350	0.197460
O1111	O111	0.304220	0.395100	0.012260
O1121	O112	0.226400	0.437300	0.028700
O1131	O113	0.438390	0.369190	0.164290
O1141	O114	0.235210	0.473400	0.284370
O1151	O115	0.417600	0.399000	0.247100
O1161	O116	0.167350	0.450540	0.227130
O1171	O117	0.313790	0.459870	0.917660
H1181	H118	0.329000	0.478300	0.942700
N1191	N119	0.279100	0.420600	0.821100
N1201	N120	0.270500	0.378900	0.856900
C1211	C121	0.284900	0.419700	0.104400
C1221	C122	0.270000	0.417700	0.044100
C1231	C123	0.350200	0.408000	0.177400
C1241	C124	0.337100	0.404700	0.122300
H1251	H125	0.363000	0.392400	0.097300
C1261	C126	0.245900	0.437000	0.142300
H1271	H127	0.210900	0.446500	0.130600
C1281	C128	0.259100	0.440100	0.197500
C1291	C129	0.217400	0.456300	0.239400
C1301	C130	0.311200	0.426300	0.214700
H1311	H131	0.320200	0.429200	0.251700
C1321	C132	0.405600	0.391200	0.197900
C1331	C133	0.261000	0.333900	0.827300
H1341	H134	0.253000	0.299600	0.842000
C1351	C135	0.275700	0.399700	0.770100
H1361	H136	0.280300	0.419800	0.738100
C1371	C137	0.264500	0.345100	0.772000
H1381	H138	0.260300	0.320900	0.742800
Na1391	Na139	0.424400	0.422800	0.338400
O1401	O140	0.343500	0.486800	0.347600
O1411	O141	0.444900	0.510900	0.298000
O1421	O142	0.517900	0.437300	0.326400
Cu1451	Cu145	0.064710	0.781690	0.109230
Cu1461	Cu146	0.802540	0.008030	0.152650
O1471	O147	0.987740	0.804220	0.104900
O1481	O148	0.971300	0.726400	0.062700
O1491	O149	0.835710	0.938390	0.130810
O1501	O150	0.715630	0.735210	0.026600
O1511	O151	0.752900	0.917600	0.101000
O1521	O152	0.772870	0.667350	0.049460
O1531	O153	0.082340	0.813790	0.040130
H1541	H154	0.057300	0.829000	0.021700
N1551	N155	0.178900	0.779100	0.079400
N1561	N156	0.143100	0.770500	0.121100
C1571	C157	0.895600	0.784900	0.080300
C1581	C158	0.955900	0.770000	0.082300
C1591	C159	0.822600	0.850200	0.092000
C1601	C160	0.877700	0.837100	0.095300
H1611	H161	0.902700	0.863000	0.107600
C1621	C162	0.857700	0.745900	0.063000
H1631	H163	0.869400	0.710900	0.053500
C1641	C164	0.802500	0.759100	0.059900
C1651	C165	0.760600	0.717400	0.043700
C1661	C166	0.785300	0.811200	0.073700
H1671	H167	0.748300	0.820200	0.070800
C1681	C168	0.802100	0.905600	0.108800
C1691	C169	0.172700	0.761000	0.166100
H1701	H170	0.158000	0.753000	0.200400
C1711	C171	0.229900	0.775700	0.100300
H1721	H172	0.261900	0.780300	0.080200
C1731	C173	0.228000	0.764500	0.154900
H1741	H174	0.257200	0.760300	0.179100
Na1751	Na175	0.661600	0.924400	0.077200
O1761	O176	0.652400	0.843500	0.013200
O1771	O177	0.702000	0.944900	0.989100
O1781	O178	0.673600	0.017900	0.062700
Cu1811	Cu181	0.564710	0.718310	0.890770
Cu1821	Cu182	0.302540	0.491970	0.847350
O1831	O183	0.487740	0.695780	0.895100
O1841	O184	0.471300	0.773600	0.937300
O1851	O185	0.335710	0.561610	0.869190
O1861	O186	0.215630	0.764790	0.973400
O1871	O187	0.252900	0.582400	0.899000
O1881	O188	0.272870	0.832650	0.950540
O1891	O189	0.582340	0.686210	0.959870
H1901	H190	0.557300	0.671000	0.978300
N1911	N191	0.678900	0.720900	0.920600
N1921	N192	0.643100	0.729500	0.878900
C1931	C193	0.395600	0.715100	0.919700
C1941	C194	0.455900	0.730000	0.917700
C1951	C195	0.322600	0.649800	0.908000
C1961	C196	0.377700	0.662900	0.904700
H1971	H197	0.402700	0.637000	0.892400
C1981	C198	0.357700	0.754100	0.937000
H1991	H199	0.369400	0.789100	0.946500
C2001	C200	0.302500	0.740900	0.940100
C2011	C201	0.260600	0.782600	0.956300
C2021	C202	0.285300	0.688800	0.926300
H2031	H203	0.248300	0.679800	0.929200
C2041	C204	0.302100	0.594400	0.891200
C2051	C205	0.672700	0.739000	0.833900
H2061	H206	0.658000	0.747000	0.799600
C2071	C207	0.729900	0.724300	0.899700
H2081	H208	0.761900	0.719700	0.919800
C2091	C209	0.728000	0.735500	0.845100
H2101	H210	0.757200	0.739700	0.820900
Na2111	Na211	0.161600	0.575600	0.922800
O2121	O212	0.152400	0.656500	0.986800
O2131	O213	0.202000	0.555100	0.010900
O2141	O214	0.173600	0.482100	0.937300
Cu2171	Cu217	0.435290	0.218310	0.609230
Cu2181	Cu218	0.697460	0.991970	0.652650
O2191	O219	0.512260	0.195780	0.604900
O2201	O220	0.528700	0.273600	0.562700
O2211	O221	0.664290	0.061610	0.630810
O2221	O222	0.784370	0.264790	0.526600
O2231	O223	0.747100	0.082400	0.601000
O2241	O224	0.727130	0.332650	0.549460
O2251	O225	0.417660	0.186210	0.540130
H2261	H226	0.442700	0.171000	0.521700
N2271	N227	0.321100	0.220900	0.579400
N2281	N228	0.356900	0.229500	0.621100
C2291	C229	0.604400	0.215100	0.580300
C2301	C230	0.544100	0.230000	0.582300
C2311	C231	0.677400	0.149800	0.592000
C2321	C232	0.622300	0.162900	0.595300
H2331	H233	0.597300	0.137000	0.607600
C2341	C234	0.642300	0.254100	0.563000
H2351	H235	0.630600	0.289100	0.553500
C2361	C236	0.697500	0.240900	0.559900
C2371	C237	0.739400	0.282600	0.543700
C2381	C238	0.714700	0.188800	0.573700
H2391	H239	0.751700	0.179800	0.570800
C2401	C240	0.697900	0.094400	0.608800
C2411	C241	0.327300	0.239000	0.666100
H2421	H242	0.342000	0.247000	0.700400
C2431	C243	0.270100	0.224300	0.600300
H2441	H244	0.238100	0.219700	0.580200
C2451	C245	0.272000	0.235500	0.654900
H2461	H246	0.242800	0.239700	0.679100
Na2471	Na247	0.838400	0.075600	0.577200
O2481	O248	0.847600	0.156500	0.513200
O2491	O249	0.798000	0.055100	0.489100
O2501	O250	0.826400	0.982100	0.562700
Cu2531	Cu253	0.935290	0.281690	0.390770
Cu2541	Cu254	0.197460	0.508030	0.347350
O2551	O255	0.012260	0.304220	0.395100
O2561	O256	0.028700	0.226400	0.437300
O2571	O257	0.164290	0.438390	0.369190
O2581	O258	0.284370	0.235210	0.473400
O2591	O259	0.247100	0.417600	0.399000
O2601	O260	0.227130	0.167350	0.450540
O2611	O261	0.917660	0.313790	0.459870
H2621	H262	0.942700	0.329000	0.478300
N2631	N263	0.821100	0.279100	0.420600
N2641	N264	0.856900	0.270500	0.378900
C2651	C265	0.104400	0.284900	0.419700
C2661	C266	0.044100	0.270000	0.417700
C2671	C267	0.177400	0.350200	0.408000
C2681	C268	0.122300	0.337100	0.404700
H2691	H269	0.097300	0.363000	0.392400
C2701	C270	0.142300	0.245900	0.437000
H2711	H271	0.130600	0.210900	0.446500
C2721	C272	0.197500	0.259100	0.440100
C2731	C273	0.239400	0.217400	0.456300
C2741	C274	0.214700	0.311200	0.426300
H2751	H275	0.251700	0.320200	0.429200
C2761	C276	0.197900	0.405600	0.391200
C2771	C277	0.827300	0.261000	0.333900
H2781	H278	0.842000	0.253000	0.299600
C2791	C279	0.770100	0.275700	0.399700
H2801	H280	0.738100	0.280300	0.419800
C2811	C281	0.772000	0.264500	0.345100
H2821	H282	0.742800	0.260300	0.320900
Na2831	Na283	0.338400	0.424400	0.422800
O2841	O284	0.347600	0.343500	0.486800
O2851	O285	0.298000	0.444900	0.510900
O2861	O286	0.326400	0.517900	0.437300
Cu2891	Cu289	0.109230	0.064710	0.781690
Cu2901	Cu290	0.152650	0.802540	0.008030
O2911	O291	0.104900	0.987740	0.804220
O2921	O292	0.062700	0.971300	0.726400
O2931	O293	0.130810	0.835710	0.938390
O2941	O294	0.026600	0.715630	0.735210
O2951	O295	0.101000	0.752900	0.917600
O2961	O296	0.049460	0.772870	0.667350
O2971	O297	0.040130	0.082340	0.813790
H2981	H298	0.021700	0.057300	0.829000
N2991	N299	0.079400	0.178900	0.779100
N3001	N300	0.121100	0.143100	0.770500
C3011	C301	0.080300	0.895600	0.784900
C3021	C302	0.082300	0.955900	0.770000
C3031	C303	0.092000	0.822600	0.850200
C3041	C304	0.095300	0.877700	0.837100
H3051	H305	0.107600	0.902700	0.863000
C3061	C306	0.063000	0.857700	0.745900
H3071	H307	0.053500	0.869400	0.710900
C3081	C308	0.059900	0.802500	0.759100
C3091	C309	0.043700	0.760600	0.717400
C3101	C310	0.073700	0.785300	0.811200
H3111	H311	0.070800	0.748300	0.820200
C3121	C312	0.108800	0.802100	0.905600
C3131	C313	0.166100	0.172700	0.761000
H3141	H314	0.200400	0.158000	0.753000
C3151	C315	0.100300	0.229900	0.775700
H3161	H316	0.080200	0.261900	0.780300
C3171	C317	0.154900	0.228000	0.764500
H3181	H318	0.179100	0.257200	0.760300
Na3191	Na319	0.077200	0.661600	0.924400
O3201	O320	0.013200	0.652400	0.843500
O3211	O321	0.989100	0.702000	0.944900
O3221	O322	0.062700	0.673600	0.017900
Cu3251	Cu325	0.890770	0.564710	0.718310
Cu3261	Cu326	0.847350	0.302540	0.491970
O3271	O327	0.895100	0.487740	0.695780
O3281	O328	0.937300	0.471300	0.773600
O3291	O329	0.869190	0.335710	0.561610
O3301	O330	0.973400	0.215630	0.764790
O3311	O331	0.899000	0.252900	0.582400
O3321	O332	0.950540	0.272870	0.832650
O3331	O333	0.959870	0.582340	0.686210
H3341	H334	0.978300	0.557300	0.671000
N3351	N335	0.920600	0.678900	0.720900
N3361	N336	0.878900	0.643100	0.729500
C3371	C337	0.919700	0.395600	0.715100
C3381	C338	0.917700	0.455900	0.730000
C3391	C339	0.908000	0.322600	0.649800
C3401	C340	0.904700	0.377700	0.662900
H3411	H341	0.892400	0.402700	0.637000
C3421	C342	0.937000	0.357700	0.754100
H3431	H343	0.946500	0.369400	0.789100
C3441	C344	0.940100	0.302500	0.740900
C3451	C345	0.956300	0.260600	0.782600
C3461	C346	0.926300	0.285300	0.688800
H3471	H347	0.929200	0.248300	0.679800
C3481	C348	0.891200	0.302100	0.594400
C3491	C349	0.833900	0.672700	0.739000
H3501	H350	0.799600	0.658000	0.747000
C3511	C351	0.899700	0.729900	0.724300
H3521	H352	0.919800	0.761900	0.719700
C3531	C353	0.845100	0.728000	0.735500
H3541	H354	0.820900	0.757200	0.739700
Na3551	Na355	0.922800	0.161600	0.575600
O3561	O356	0.986800	0.152400	0.656500
O3571	O357	0.010900	0.202000	0.555100
O3581	O358	0.937300	0.173600	0.482100
Cu3611	Cu361	0.609230	0.435290	0.218310
Cu3621	Cu362	0.652650	0.697460	0.991970
O3631	O363	0.604900	0.512260	0.195780
O3641	O364	0.562700	0.528700	0.273600
O3651	O365	0.630810	0.664290	0.061610
O3661	O366	0.526600	0.784370	0.264790
O3671	O367	0.601000	0.747100	0.082400
O3681	O368	0.549460	0.727130	0.332650
O3691	O369	0.540130	0.417660	0.186210
H3701	H370	0.521700	0.442700	0.171000
N3711	N371	0.579400	0.321100	0.220900
N3721	N372	0.621100	0.356900	0.229500
C3731	C373	0.580300	0.604400	0.215100
C3741	C374	0.582300	0.544100	0.230000
C3751	C375	0.592000	0.677400	0.149800
C3761	C376	0.595300	0.622300	0.162900
H3771	H377	0.607600	0.597300	0.137000
C3781	C378	0.563000	0.642300	0.254100
H3791	H379	0.553500	0.630600	0.289100
C3801	C380	0.559900	0.697500	0.240900
C3811	C381	0.543700	0.739400	0.282600
C3821	C382	0.573700	0.714700	0.188800
H3831	H383	0.570800	0.751700	0.179800
C3841	C384	0.608800	0.697900	0.094400
C3851	C385	0.666100	0.327300	0.239000
H3861	H386	0.700400	0.342000	0.247000
C3871	C387	0.600300	0.270100	0.224300
H3881	H388	0.580200	0.238100	0.219700
C3891	C389	0.654900	0.272000	0.235500
H3901	H390	0.679100	0.242800	0.239700
Na3911	Na391	0.577200	0.838400	0.075600
O3921	O392	0.513200	0.847600	0.156500
O3931	O393	0.489100	0.798000	0.055100
O3941	O394	0.562700	0.826400	0.982100
Cu3971	Cu397	0.390770	0.935290	0.281690
Cu3981	Cu398	0.347350	0.197460	0.508030
O3991	O399	0.395100	0.012260	0.304220
O4001	O400	0.437300	0.028700	0.226400
O4011	O401	0.369190	0.164290	0.438390
O4021	O402	0.473400	0.284370	0.235210
O4031	O403	0.399000	0.247100	0.417600
O4041	O404	0.450540	0.227130	0.167350
O4051	O405	0.459870	0.917660	0.313790
H4061	H406	0.478300	0.942700	0.329000
N4071	N407	0.420600	0.821100	0.279100
N4081	N408	0.378900	0.856900	0.270500
C4091	C409	0.419700	0.104400	0.284900
C4101	C410	0.417700	0.044100	0.270000
C4111	C411	0.408000	0.177400	0.350200
C4121	C412	0.404700	0.122300	0.337100
H4131	H413	0.392400	0.097300	0.363000
C4141	C414	0.437000	0.142300	0.245900
H4151	H415	0.446500	0.130600	0.210900
C4161	C416	0.440100	0.197500	0.259100
C4171	C417	0.456300	0.239400	0.217400
C4181	C418	0.426300	0.214700	0.311200
H4191	H419	0.429200	0.251700	0.320200
C4201	C420	0.391200	0.197900	0.405600
C4211	C421	0.333900	0.827300	0.261000
H4221	H422	0.299600	0.842000	0.253000
C4231	C423	0.399700	0.770100	0.275700
H4241	H424	0.419800	0.738100	0.280300
C4251	C425	0.345100	0.772000	0.264500
H4261	H426	0.320900	0.742800	0.260300
Na4271	Na427	0.422800	0.338400	0.424400
O4281	O428	0.486800	0.347600	0.343500
O4291	O429	0.510900	0.298000	0.444900
O4301	O430	0.437300	0.326400	0.517900
Cu4331	Cu433	0.218310	0.890770	0.935290
Cu4341	Cu434	0.991970	0.847350	0.197460
O4351	O435	0.195780	0.895100	0.012260
O4361	O436	0.273600	0.937300	0.028700
O4371	O437	0.061610	0.869190	0.164290
O4381	O438	0.264790	0.973400	0.284370
O4391	O439	0.082400	0.899000	0.247100
O4401	O440	0.332650	0.950540	0.227130
O4411	O441	0.186210	0.959870	0.917660
H4421	H442	0.171000	0.978300	0.942700
N4431	N443	0.220900	0.920600	0.821100
N4441	N444	0.229500	0.878900	0.856900
C4451	C445	0.215100	0.919700	0.104400
C4461	C446	0.230000	0.917700	0.044100
C4471	C447	0.149800	0.908000	0.177400
C4481	C448	0.162900	0.904700	0.122300
H4491	H449	0.137000	0.892400	0.097300
C4501	C450	0.254100	0.937000	0.142300
H4511	H451	0.289100	0.946500	0.130600
C4521	C452	0.240900	0.940100	0.197500
C4531	C453	0.282600	0.956300	0.239400
C4541	C454	0.188800	0.926300	0.214700
H4551	H455	0.179800	0.929200	0.251700
C4561	C456	0.094400	0.891200	0.197900
C4571	C457	0.239000	0.833900	0.827300
H4581	H458	0.247000	0.799600	0.842000
C4591	C459	0.224300	0.899700	0.770100
H4601	H460	0.219700	0.919800	0.738100
C4611	C461	0.235500	0.845100	0.772000
H4621	H462	0.239700	0.820900	0.742800
Na4631	Na463	0.075600	0.922800	0.338400
O4641	O464	0.156500	0.986800	0.347600
O4651	O465	0.055100	0.010900	0.298000
O4661	O466	0.982100	0.937300	0.326400
Cu4691	Cu469	0.281690	0.109230	0.435290
Cu4701	Cu470	0.508030	0.152650	0.697460
O4711	O471	0.304220	0.104900	0.512260
O4721	O472	0.226400	0.062700	0.528700
O4731	O473	0.438390	0.130810	0.664290
O4741	O474	0.235210	0.026600	0.784370
O4751	O475	0.417600	0.101000	0.747100
O4761	O476	0.167350	0.049460	0.727130
O4771	O477	0.313790	0.040130	0.417660
H4781	H478	0.329000	0.021700	0.442700
N4791	N479	0.279100	0.079400	0.321100
N4801	N480	0.270500	0.121100	0.356900
C4811	C481	0.284900	0.080300	0.604400
C4821	C482	0.270000	0.082300	0.544100
C4831	C483	0.350200	0.092000	0.677400
C4841	C484	0.337100	0.095300	0.622300
H4851	H485	0.363000	0.107600	0.597300
C4861	C486	0.245900	0.063000	0.642300
H4871	H487	0.210900	0.053500	0.630600
C4881	C488	0.259100	0.059900	0.697500
C4891	C489	0.217400	0.043700	0.739400
C4901	C490	0.311200	0.073700	0.714700
H4911	H491	0.320200	0.070800	0.751700
C4921	C492	0.405600	0.108800	0.697900
C4931	C493	0.261000	0.166100	0.327300
H4941	H494	0.253000	0.200400	0.342000
C4951	C495	0.275700	0.100300	0.270100
H4961	H496	0.280300	0.080200	0.238100
C4971	C497	0.264500	0.154900	0.272000
H4981	H498	0.260300	0.179100	0.242800
Na4991	Na499	0.424400	0.077200	0.838400
O5001	O500	0.343500	0.013200	0.847600
O5011	O501	0.444900	0.989100	0.798000
O5021	O502	0.517900	0.062700	0.826400
Cu5051	Cu505	0.781690	0.390770	0.564710
Cu5061	Cu506	0.008030	0.347350	0.302540
O5071	O507	0.804220	0.395100	0.487740
O5081	O508	0.726400	0.437300	0.471300
O5091	O509	0.938390	0.369190	0.335710
O5101	O510	0.735210	0.473400	0.215630
O5111	O511	0.917600	0.399000	0.252900
O5121	O512	0.667350	0.450540	0.272870
O5131	O513	0.813790	0.459870	0.582340
H5141	H514	0.829000	0.478300	0.557300
N5151	N515	0.779100	0.420600	0.678900
N5161	N516	0.770500	0.378900	0.643100
C5171	C517	0.784900	0.419700	0.395600
C5181	C518	0.770000	0.417700	0.455900
C5191	C519	0.850200	0.408000	0.322600
C5201	C520	0.837100	0.404700	0.377700
H5211	H521	0.863000	0.392400	0.402700
C5221	C522	0.745900	0.437000	0.357700
H5231	H523	0.710900	0.446500	0.369400
C5241	C524	0.759100	0.440100	0.302500
C5251	C525	0.717400	0.456300	0.260600
C5261	C526	0.811200	0.426300	0.285300
H5271	H527	0.820200	0.429200	0.248300
C5281	C528	0.905600	0.391200	0.302100
C5291	C529	0.761000	0.333900	0.672700
H5301	H530	0.753000	0.299600	0.658000
C5311	C531	0.775700	0.399700	0.729900
H5321	H532	0.780300	0.419800	0.761900
C5331	C533	0.764500	0.345100	0.728000
H5341	H534	0.760300	0.320900	0.757200
Na5351	Na535	0.924400	0.422800	0.161600
O5361	O536	0.843500	0.486800	0.152400
O5371	O537	0.944900	0.510900	0.202000
O5381	O538	0.017900	0.437300	0.173600
Cu5411	Cu541	0.718310	0.609230	0.064710
Cu5421	Cu542	0.491970	0.652650	0.802540
O5431	O543	0.695780	0.604900	0.987740
O5441	O544	0.773600	0.562700	0.971300
O5451	O545	0.561610	0.630810	0.835710
O5461	O546	0.764790	0.526600	0.715630
O5471	O547	0.582400	0.601000	0.752900
O5481	O548	0.832650	0.549460	0.772870
O5491	O549	0.686210	0.540130	0.082340
H5501	H550	0.671000	0.521700	0.057300
N5511	N551	0.720900	0.579400	0.178900
N5521	N552	0.729500	0.621100	0.143100
C5531	C553	0.715100	0.580300	0.895600
C5541	C554	0.730000	0.582300	0.955900
C5551	C555	0.649800	0.592000	0.822600
C5561	C556	0.662900	0.595300	0.877700
H5571	H557	0.637000	0.607600	0.902700
C5581	C558	0.754100	0.563000	0.857700
H5591	H559	0.789100	0.553500	0.869400
C5601	C560	0.740900	0.559900	0.802500
C5611	C561	0.782600	0.543700	0.760600
C5621	C562	0.688800	0.573700	0.785300
H5631	H563	0.679800	0.570800	0.748300
C5641	C564	0.594400	0.608800	0.802100
C5651	C565	0.739000	0.666100	0.172700
H5661	H566	0.747000	0.700400	0.158000
C5671	C567	0.724300	0.600300	0.229900
H5681	H568	0.719700	0.580200	0.261900
C5691	C569	0.735500	0.654900	0.228000
H5701	H570	0.739700	0.679100	0.257200
Na5711	Na571	0.575600	0.577200	0.661600
O5721	O572	0.656500	0.513200	0.652400
O5731	O573	0.555100	0.489100	0.702000
O5741	O574	0.482100	0.562700	0.673600
Cu5771	Cu577	0.935290	0.218310	0.890770
Cu5781	Cu578	0.197460	0.991970	0.847350
O5791	O579	0.012260	0.195780	0.895100
O5801	O580	0.028700	0.273600	0.937300
O5811	O581	0.164290	0.061610	0.869190
O5821	O582	0.284370	0.264790	0.973400
O5831	O583	0.247100	0.082400	0.899000
O5841	O584	0.227130	0.332650	0.950540
O5851	O585	0.917660	0.186210	0.959870
H5861	H586	0.942700	0.171000	0.978300
N5871	N587	0.821100	0.220900	0.920600
N5881	N588	0.856900	0.229500	0.878900
C5891	C589	0.104400	0.215100	0.919700
C5901	C590	0.044100	0.230000	0.917700
C5911	C591	0.177400	0.149800	0.908000
C5921	C592	0.122300	0.162900	0.904700
H5931	H593	0.097300	0.137000	0.892400
C5941	C594	0.142300	0.254100	0.937000
H5951	H595	0.130600	0.289100	0.946500
C5961	C596	0.197500	0.240900	0.940100
C5971	C597	0.239400	0.282600	0.956300
C5981	C598	0.214700	0.188800	0.926300
H5991	H599	0.251700	0.179800	0.929200
C6001	C600	0.197900	0.094400	0.891200
C6011	C601	0.827300	0.239000	0.833900
H6021	H602	0.842000	0.247000	0.799600
C6031	C603	0.770100	0.224300	0.899700
H6041	H604	0.738100	0.219700	0.919800
C6051	C605	0.772000	0.235500	0.845100
H6061	H606	0.742800	0.239700	0.820900
Na6071	Na607	0.338400	0.075600	0.922800
O6081	O608	0.347600	0.156500	0.986800
O6091	O609	0.298000	0.055100	0.010900
O6101	O610	0.326400	0.982100	0.937300
Cu6131	Cu613	0.435290	0.281690	0.109230
Cu6141	Cu614	0.697460	0.508030	0.152650
O6151	O615	0.512260	0.304220	0.104900
O6161	O616	0.528700	0.226400	0.062700
O6171	O617	0.664290	0.438390	0.130810
O6181	O618	0.784370	0.235210	0.026600
O6191	O619	0.747100	0.417600	0.101000
O6201	O620	0.727130	0.167350	0.049460
O6211	O621	0.417660	0.313790	0.040130
H6221	H622	0.442700	0.329000	0.021700
N6231	N623	0.321100	0.279100	0.079400
N6241	N624	0.356900	0.270500	0.121100
C6251	C625	0.604400	0.284900	0.080300
C6261	C626	0.544100	0.270000	0.082300
C6271	C627	0.677400	0.350200	0.092000
C6281	C628	0.622300	0.337100	0.095300
H6291	H629	0.597300	0.363000	0.107600
C6301	C630	0.642300	0.245900	0.063000
H6311	H631	0.630600	0.210900	0.053500
C6321	C632	0.697500	0.259100	0.059900
C6331	C633	0.739400	0.217400	0.043700
C6341	C634	0.714700	0.311200	0.073700
H6351	H635	0.751700	0.320200	0.070800
C6361	C636	0.697900	0.405600	0.108800
C6371	C637	0.327300	0.261000	0.166100
H6381	H638	0.342000	0.253000	0.200400
C6391	C639	0.270100	0.275700	0.100300
H6401	H640	0.238100	0.280300	0.080200
C6411	C641	0.272000	0.264500	0.154900
H6421	H642	0.242800	0.260300	0.179100
Na6431	Na643	0.838400	0.424400	0.077200
O6441	O644	0.847600	0.343500	0.013200
O6451	O645	0.798000	0.444900	0.989100
O6461	O646	0.826400	0.517900	0.062700
Cu6491	Cu649	0.564710	0.781690	0.390770
Cu6501	Cu650	0.302540	0.008030	0.347350
O6511	O651	0.487740	0.804220	0.395100
O6521	O652	0.471300	0.726400	0.437300
O6531	O653	0.335710	0.938390	0.369190
O6541	O654	0.215630	0.735210	0.473400
O6551	O655	0.252900	0.917600	0.399000
O6561	O656	0.272870	0.667350	0.450540
O6571	O657	0.582340	0.813790	0.459870
H6581	H658	0.557300	0.829000	0.478300
N6591	N659	0.678900	0.779100	0.420600
N6601	N660	0.643100	0.770500	0.378900
C6611	C661	0.395600	0.784900	0.419700
C6621	C662	0.455900	0.770000	0.417700
C6631	C663	0.322600	0.850200	0.408000
C6641	C664	0.377700	0.837100	0.404700
H6651	H665	0.402700	0.863000	0.392400
C6661	C666	0.357700	0.745900	0.437000
H6671	H667	0.369400	0.710900	0.446500
C6681	C668	0.302500	0.759100	0.440100
C6691	C669	0.260600	0.717400	0.456300
C6701	C670	0.285300	0.811200	0.426300
H6711	H671	0.248300	0.820200	0.429200
C6721	C672	0.302100	0.905600	0.391200
C6731	C673	0.672700	0.761000	0.333900
H6741	H674	0.658000	0.753000	0.299600
C6751	C675	0.729900	0.775700	0.399700
H6761	H676	0.761900	0.780300	0.419800
C6771	C677	0.728000	0.764500	0.345100
H6781	H678	0.757200	0.760300	0.320900
Na6791	Na679	0.161600	0.924400	0.422800
O6801	O680	0.152400	0.843500	0.486800
O6811	O681	0.202000	0.944900	0.510900
O6821	O682	0.173600	0.017900	0.437300
Cu6851	Cu685	0.064710	0.718310	0.609230
Cu6861	Cu686	0.802540	0.491970	0.652650
O6871	O687	0.987740	0.695780	0.604900
O6881	O688	0.971300	0.773600	0.562700
O6891	O689	0.835710	0.561610	0.630810
O6901	O690	0.715630	0.764790	0.526600
O6911	O691	0.752900	0.582400	0.601000
O6921	O692	0.772870	0.832650	0.549460
O6931	O693	0.082340	0.686210	0.540130
H6941	H694	0.057300	0.671000	0.521700
N6951	N695	0.178900	0.720900	0.579400
N6961	N696	0.143100	0.729500	0.621100
C6971	C697	0.895600	0.715100	0.580300
C6981	C698	0.955900	0.730000	0.582300
C6991	C699	0.822600	0.649800	0.592000
C7001	C700	0.877700	0.662900	0.595300
H7011	H701	0.902700	0.637000	0.607600
C7021	C702	0.857700	0.754100	0.563000
H7031	H703	0.869400	0.789100	0.553500
C7041	C704	0.802500	0.740900	0.559900
C7051	C705	0.760600	0.782600	0.543700
C7061	C706	0.785300	0.688800	0.573700
H7071	H707	0.748300	0.679800	0.570800
C7081	C708	0.802100	0.594400	0.608800
C7091	C709	0.172700	0.739000	0.666100
H7101	H710	0.158000	0.747000	0.700400
C7111	C711	0.229900	0.724300	0.600300
H7121	H712	0.261900	0.719700	0.580200
C7131	C713	0.228000	0.735500	0.654900
H7141	H714	0.257200	0.739700	0.679100
Na7151	Na715	0.661600	0.575600	0.577200
O7161	O716	0.652400	0.656500	0.513200
O7171	O717	0.702000	0.555100	0.489100
O7181	O718	0.673600	0.482100	0.562700
Cu7211	Cu721	0.890770	0.935290	0.218310
Cu7221	Cu722	0.847350	0.197460	0.991970
O7231	O723	0.895100	0.012260	0.195780
O7241	O724	0.937300	0.028700	0.273600
O7251	O725	0.869190	0.164290	0.061610
O7261	O726	0.973400	0.284370	0.264790
O7271	O727	0.899000	0.247100	0.082400
O7281	O728	0.950540	0.227130	0.332650
O7291	O729	0.959870	0.917660	0.186210
H7301	H730	0.978300	0.942700	0.171000
N7311	N731	0.920600	0.821100	0.220900
N7321	N732	0.878900	0.856900	0.229500
C7331	C733	0.919700	0.104400	0.215100
C7341	C734	0.917700	0.044100	0.230000
C7351	C735	0.908000	0.177400	0.149800
C7361	C736	0.904700	0.122300	0.162900
H7371	H737	0.892400	0.097300	0.137000
C7381	C738	0.937000	0.142300	0.254100
H7391	H739	0.946500	0.130600	0.289100
C7401	C740	0.940100	0.197500	0.240900
C7411	C741	0.956300	0.239400	0.282600
C7421	C742	0.926300	0.214700	0.188800
H7431	H743	0.929200	0.251700	0.179800
C7441	C744	0.891200	0.197900	0.094400
C7451	C745	0.833900	0.827300	0.239000
H7461	H746	0.799600	0.842000	0.247000
C7471	C747	0.899700	0.770100	0.224300
H7481	H748	0.919800	0.738100	0.219700
C7491	C749	0.845100	0.772000	0.235500
H7501	H750	0.820900	0.742800	0.239700
Na7511	Na751	0.922800	0.338400	0.075600
O7521	O752	0.986800	0.347600	0.156500
O7531	O753	0.010900	0.298000	0.055100
O7541	O754	0.937300	0.326400	0.982100
Cu7571	Cu757	0.109230	0.435290	0.281690
Cu7581	Cu758	0.152650	0.697460	0.508030
O7591	O759	0.104900	0.512260	0.304220
O7601	O760	0.062700	0.528700	0.226400
O7611	O761	0.130810	0.664290	0.438390
O7621	O762	0.026600	0.784370	0.235210
O7631	O763	0.101000	0.747100	0.417600
O7641	O764	0.049460	0.727130	0.167350
O7651	O765	0.040130	0.417660	0.313790
H7661	H766	0.021700	0.442700	0.329000
N7671	N767	0.079400	0.321100	0.279100
N7681	N768	0.121100	0.356900	0.270500
C7691	C769	0.080300	0.604400	0.284900
C7701	C770	0.082300	0.544100	0.270000
C7711	C771	0.092000	0.677400	0.350200
C7721	C772	0.095300	0.622300	0.337100
H7731	H773	0.107600	0.597300	0.363000
C7741	C774	0.063000	0.642300	0.245900
H7751	H775	0.053500	0.630600	0.210900
C7761	C776	0.059900	0.697500	0.259100
C7771	C777	0.043700	0.739400	0.217400
C7781	C778	0.073700	0.714700	0.311200
H7791	H779	0.070800	0.751700	0.320200
C7801	C780	0.108800	0.697900	0.405600
C7811	C781	0.166100	0.327300	0.261000
H7821	H782	0.200400	0.342000	0.253000
C7831	C783	0.100300	0.270100	0.275700
H7841	H784	0.080200	0.238100	0.280300
C7851	C785	0.154900	0.272000	0.264500
H7861	H786	0.179100	0.242800	0.260300
Na7871	Na787	0.077200	0.838400	0.424400
O7881	O788	0.013200	0.847600	0.343500
O7891	O789	0.989100	0.798000	0.444900
O7901	O790	0.062700	0.826400	0.517900
Cu7931	Cu793	0.390770	0.564710	0.781690
Cu7941	Cu794	0.347350	0.302540	0.008030
O7951	O795	0.395100	0.487740	0.804220
O7961	O796	0.437300	0.471300	0.726400
O7971	O797	0.369190	0.335710	0.938390
O7981	O798	0.473400	0.215630	0.735210
O7991	O799	0.399000	0.252900	0.917600
O8001	O800	0.450540	0.272870	0.667350
O8011	O801	0.459870	0.582340	0.813790
H8021	H802	0.478300	0.557300	0.829000
N8031	N803	0.420600	0.678900	0.779100
N8041	N804	0.378900	0.643100	0.770500
C8051	C805	0.419700	0.395600	0.784900
C8061	C806	0.417700	0.455900	0.770000
C8071	C807	0.408000	0.322600	0.850200
C8081	C808	0.404700	0.377700	0.837100
H8091	H809	0.392400	0.402700	0.863000
C8101	C810	0.437000	0.357700	0.745900
H8111	H811	0.446500	0.369400	0.710900
C8121	C812	0.440100	0.302500	0.759100
C8131	C813	0.456300	0.260600	0.717400
C8141	C814	0.426300	0.285300	0.811200
H8151	H815	0.429200	0.248300	0.820200
C8161	C816	0.391200	0.302100	0.905600
C8171	C817	0.333900	0.672700	0.761000
H8181	H818	0.299600	0.658000	0.753000
C8191	C819	0.399700	0.729900	0.775700
H8201	H820	0.419800	0.761900	0.780300
C8211	C821	0.345100	0.728000	0.764500
H8221	H822	0.320900	0.757200	0.760300
Na8231	Na823	0.422800	0.161600	0.924400
O8241	O824	0.486800	0.152400	0.843500
O8251	O825	0.510900	0.202000	0.944900
O8261	O826	0.437300	0.173600	0.017900
Cu8291	Cu829	0.609230	0.064710	0.718310
Cu8301	Cu830	0.652650	0.802540	0.491970
O8311	O831	0.604900	0.987740	0.695780
O8321	O832	0.562700	0.971300	0.773600
O8331	O833	0.630810	0.835710	0.561610
O8341	O834	0.526600	0.715630	0.764790
O8351	O835	0.601000	0.752900	0.582400
O8361	O836	0.549460	0.772870	0.832650
O8371	O837	0.540130	0.082340	0.686210
H8381	H838	0.521700	0.057300	0.671000
N8391	N839	0.579400	0.178900	0.720900
N8401	N840	0.621100	0.143100	0.729500
C8411	C841	0.580300	0.895600	0.715100
C8421	C842	0.582300	0.955900	0.730000
C8431	C843	0.592000	0.822600	0.649800
C8441	C844	0.595300	0.877700	0.662900
H8451	H845	0.607600	0.902700	0.637000
C8461	C846	0.563000	0.857700	0.754100
H8471	H847	0.553500	0.869400	0.789100
C8481	C848	0.559900	0.802500	0.740900
C8491	C849	0.543700	0.760600	0.782600
C8501	C850	0.573700	0.785300	0.688800
H8511	H851	0.570800	0.748300	0.679800
C8521	C852	0.608800	0.802100	0.594400
C8531	C853	0.666100	0.172700	0.739000
H8541	H854	0.700400	0.158000	0.747000
C8551	C855	0.600300	0.229900	0.724300
H8561	H856	0.580200	0.261900	0.719700
C8571	C857	0.654900	0.228000	0.735500
H8581	H858	0.679100	0.257200	0.739700
Na8591	Na859	0.577200	0.661600	0.575600
O8601	O860	0.513200	0.652400	0.656500
O8611	O861	0.489100	0.702000	0.555100
O8621	O862	0.562700	0.673600	0.482100
O8651	O865	0.857100	0.142900	0.642900
O8661	O866	0.934900	0.065100	0.565100
O8671	O867	0.642900	0.857100	0.142900
O8681	O868	0.565100	0.934900	0.065100
O8691	O869	0.142900	0.642900	0.857100
O8701	O870	0.065100	0.565100	0.934900
O8711	O871	0.357100	0.357100	0.357100
O8721	O872	0.434900	0.434900	0.434900
O8731	O873	0.142900	0.857100	0.357100
O8741	O874	0.065100	0.934900	0.434900
O8751	O875	0.357100	0.142900	0.857100
O8761	O876	0.434900	0.065100	0.934900
O8771	O877	0.857100	0.357100	0.142900
O8781	O878	0.934900	0.434900	0.065100
O8791	O879	0.642900	0.642900	0.642900
O8801	O880	0.565100	0.565100	0.565100
