data_GAZLAW_clean_PM
_symmetry_space_group_name_H-M	'P1'
_cell_length_a	14.941400
_cell_length_b	15.991800
_cell_length_c	16.038100
_cell_angle_alpha	90.000000
_cell_angle_beta	90.000000
_cell_angle_gamma	90.000000
_symmetry_Int_Tables_number 1

loop_
_symmetry_equiv_pos_as_xyz
'x,y,z'

loop_
_atom_site_label
_atom_site_type_symbol
_atom_site_fract_x
_atom_site_fract_y
_atom_site_fract_z
Na11	Na1	0.562070	0.053010	0.962300
Na21	Na2	0.937930	0.946990	0.462300
Na31	Na3	0.437930	0.553010	0.537700
Na41	Na4	0.062070	0.446990	0.037700
Co11	Co1	0.144210	0.133240	0.645110
Co21	Co2	0.355790	0.866760	0.145110
Co31	Co3	0.855790	0.633240	0.854890
Co41	Co4	0.644210	0.366760	0.354890
H11	H1	0.591100	0.686700	0.960100
H21	H2	0.644800	0.906400	0.051000
H31	H3	0.579800	0.775900	0.063700
H41	H4	0.812600	0.885500	0.014700
H51	H5	0.837700	0.867700	0.921500
H61	H6	0.687000	0.870900	0.882300
H71	H7	0.463200	0.117600	0.114800
H81	H8	0.407000	0.197400	0.241400
H91	H9	0.461700	0.193500	0.324900
H101	H10	0.637600	0.186100	0.134900
H111	H11	0.390500	0.960600	0.897500
H121	H12	0.474800	0.066900	0.252000
H131	H13	0.398300	0.968100	0.737900
H141	H14	0.396100	0.056200	0.695000
H151	H15	0.384900	0.122900	0.824700
H161	H16	0.254600	0.915500	0.811500
H171	H17	0.169600	0.973100	0.809900
H181	H18	0.571800	0.318100	0.126900
H191	H19	0.476500	0.278500	0.115500
H201	H20	0.622300	0.067900	0.264100
H211	H21	0.239500	0.120900	0.935700
H221	H22	0.731200	0.772700	0.099500
H231	H23	0.708000	0.687500	0.055700
H241	H24	0.241600	0.982000	0.941000
H251	H25	0.610700	0.217800	0.006300
H261	H26	0.371900	0.038200	0.004200
H271	H27	0.721600	0.996900	0.883200
H281	H28	0.235000	0.120000	0.781000
H291	H29	0.625500	0.218600	0.278100
H301	H30	0.711000	0.724000	0.892000
H311	H31	0.519000	0.086000	0.795000
H321	H32	0.541500	0.998500	0.131300
H331	H33	0.500300	0.887700	0.986800
H341	H34	0.908900	0.313300	0.460100
H351	H35	0.855200	0.093600	0.551000
H361	H36	0.920200	0.224100	0.563700
H371	H37	0.687400	0.114500	0.514700
H381	H38	0.662300	0.132300	0.421500
H391	H39	0.813000	0.129100	0.382300
H401	H40	0.036800	0.882400	0.614800
H411	H41	0.093000	0.802600	0.741400
H421	H42	0.038300	0.806500	0.824900
H431	H43	0.862400	0.813900	0.634900
H441	H44	0.109500	0.039400	0.397500
H451	H45	0.025200	0.933100	0.752000
H461	H46	0.101700	0.031900	0.237900
H471	H47	0.103900	0.943800	0.195000
H481	H48	0.115100	0.877100	0.324700
H491	H49	0.245400	0.084500	0.311500
H501	H50	0.330400	0.026900	0.309900
H511	H51	0.928200	0.681900	0.626900
H521	H52	0.023500	0.721500	0.615500
H531	H53	0.877700	0.932100	0.764100
H541	H54	0.260500	0.879100	0.435700
H551	H55	0.768800	0.227300	0.599500
H561	H56	0.792000	0.312500	0.555700
H571	H57	0.258400	0.018000	0.441000
H581	H58	0.889300	0.782200	0.506300
H591	H59	0.128100	0.961800	0.504200
H601	H60	0.778400	0.003100	0.383200
H611	H61	0.265000	0.880000	0.281000
H621	H62	0.874500	0.781400	0.778100
H631	H63	0.789000	0.276000	0.392000
H641	H64	0.981000	0.914000	0.295000
H651	H65	0.958500	0.001500	0.631300
H661	H66	0.999700	0.112300	0.486800
H671	H67	0.408900	0.186700	0.539900
H681	H68	0.355200	0.406400	0.449000
H691	H69	0.420200	0.275900	0.436300
H701	H70	0.187400	0.385500	0.485300
H711	H71	0.162300	0.367700	0.578500
H721	H72	0.313000	0.370900	0.617700
H731	H73	0.536800	0.617600	0.385200
H741	H74	0.593000	0.697400	0.258600
H751	H75	0.538300	0.693500	0.175100
H761	H76	0.362400	0.686100	0.365100
H771	H77	0.609500	0.460600	0.602500
H781	H78	0.525200	0.566900	0.248000
H791	H79	0.601700	0.468100	0.762100
H801	H80	0.603900	0.556200	0.805000
H811	H81	0.615100	0.622900	0.675300
H821	H82	0.745400	0.415500	0.688500
H831	H83	0.830400	0.473100	0.690100
H841	H84	0.428200	0.818100	0.373100
H851	H85	0.523500	0.778500	0.384500
H861	H86	0.377700	0.567900	0.235900
H871	H87	0.760500	0.620900	0.564300
H881	H88	0.268800	0.272700	0.400500
H891	H89	0.292000	0.187500	0.444300
H901	H90	0.758400	0.482000	0.559000
H911	H91	0.389300	0.717800	0.493700
H921	H92	0.628100	0.538200	0.495800
H931	H93	0.278400	0.496900	0.616800
H941	H94	0.765000	0.620000	0.719000
H951	H95	0.374500	0.718600	0.221900
H961	H96	0.289000	0.224000	0.608000
H971	H97	0.481000	0.586000	0.705000
H981	H98	0.458500	0.498500	0.368700
H991	H99	0.499700	0.387700	0.513200
H1001	H100	0.091100	0.813300	0.039900
H1011	H101	0.144800	0.593600	0.949000
H1021	H102	0.079800	0.724100	0.936300
H1031	H103	0.312600	0.614500	0.985300
H1041	H104	0.337700	0.632300	0.078500
H1051	H105	0.187000	0.629100	0.117700
H1061	H106	0.963200	0.382400	0.885200
H1071	H107	0.907000	0.302600	0.758600
H1081	H108	0.961700	0.306500	0.675100
H1091	H109	0.137600	0.313900	0.865100
H1101	H110	0.890500	0.539400	0.102500
H1111	H111	0.974800	0.433100	0.748000
H1121	H112	0.898300	0.531900	0.262100
H1131	H113	0.896100	0.443800	0.305000
H1141	H114	0.884900	0.377100	0.175300
H1151	H115	0.754600	0.584500	0.188500
H1161	H116	0.669600	0.526900	0.190100
H1171	H117	0.071800	0.181900	0.873100
H1181	H118	0.976500	0.221500	0.884500
H1191	H119	0.122300	0.432100	0.735900
H1201	H120	0.739500	0.379100	0.064300
H1211	H121	0.231200	0.727300	0.900500
H1221	H122	0.208000	0.812500	0.944300
H1231	H123	0.741600	0.518000	0.059000
H1241	H124	0.110700	0.282200	0.993700
H1251	H125	0.871900	0.461800	0.995800
H1261	H126	0.221600	0.503100	0.116800
H1271	H127	0.735000	0.380000	0.219000
H1281	H128	0.125500	0.281400	0.721900
H1291	H129	0.211000	0.776000	0.108000
H1301	H130	0.019000	0.414000	0.205000
H1311	H131	0.041500	0.501500	0.868700
H1321	H132	0.000300	0.612300	0.013200
C11	C1	0.631150	0.876440	0.999250
C21	C2	0.623470	0.783380	0.018650
C31	C3	0.793010	0.857740	0.964170
C41	C4	0.703840	0.895100	0.936200
C51	C5	0.522580	0.114870	0.140620
C61	C6	0.466860	0.194270	0.264600
C71	C7	0.576730	0.190320	0.112460
C81	C8	0.366900	0.017810	0.897710
C91	C9	0.511490	0.114870	0.235500
C101	C10	0.373640	0.024060	0.741800
C111	C11	0.404750	0.064520	0.823080
C121	C12	0.234490	0.973130	0.812550
C131	C13	0.534020	0.271350	0.142610
C141	C14	0.713660	0.747280	0.047050
C151	C15	0.264580	0.014080	0.893450
C161	C16	0.240180	0.976000	0.656340
C171	C17	0.875930	0.729020	0.009310
C181	C18	0.785770	0.764680	0.980190
C191	C19	0.474300	0.352140	0.265830
C201	C20	0.520680	0.271740	0.237570
C211	C21	0.272040	0.019400	0.736730
C221	C22	0.868850	0.123560	0.499250
C231	C23	0.876530	0.216620	0.518650
C241	C24	0.706990	0.142260	0.464170
C251	C25	0.796160	0.104900	0.436200
C261	C26	0.977420	0.885130	0.640620
C271	C27	0.033140	0.805730	0.764600
C281	C28	0.923270	0.809680	0.612460
C291	C29	0.133100	0.982190	0.397710
C301	C30	0.988510	0.885130	0.735500
C311	C31	0.126360	0.975940	0.241800
C321	C32	0.095250	0.935480	0.323080
C331	C33	0.265510	0.026870	0.312550
C341	C34	0.965980	0.728650	0.642610
C351	C35	0.786340	0.252720	0.547050
C361	C36	0.235420	0.985920	0.393450
C371	C37	0.259820	0.024000	0.156340
C381	C38	0.624070	0.270980	0.509310
C391	C39	0.714230	0.235320	0.480190
C401	C40	0.025700	0.647860	0.765830
C411	C41	0.979320	0.728260	0.737570
C421	C42	0.227960	0.980600	0.236730
C431	C43	0.368850	0.376440	0.500750
C441	C44	0.376530	0.283380	0.481350
C451	C45	0.206990	0.357740	0.535830
C461	C46	0.296160	0.395100	0.563800
C471	C47	0.477420	0.614870	0.359380
C481	C48	0.533140	0.694270	0.235400
C491	C49	0.423270	0.690320	0.387540
C501	C50	0.633100	0.517810	0.602290
C511	C51	0.488510	0.614870	0.264500
C521	C52	0.626360	0.524060	0.758200
C531	C53	0.595250	0.564520	0.676920
C541	C54	0.765510	0.473130	0.687450
C551	C55	0.465980	0.771350	0.357390
C561	C56	0.286340	0.247280	0.452950
C571	C57	0.735420	0.514080	0.606550
C581	C58	0.759820	0.476000	0.843660
C591	C59	0.124070	0.229020	0.490690
C601	C60	0.214230	0.264680	0.519810
C611	C61	0.525700	0.852140	0.234170
C621	C62	0.479320	0.771740	0.262430
C631	C63	0.727960	0.519400	0.763270
C641	C64	0.131150	0.623560	0.000750
C651	C65	0.123470	0.716620	0.981350
C661	C66	0.293010	0.642260	0.035830
C671	C67	0.203840	0.604900	0.063800
C681	C68	0.022580	0.385130	0.859380
C691	C69	0.966860	0.305730	0.735400
C701	C70	0.076730	0.309680	0.887540
C711	C71	0.866900	0.482190	0.102290
C721	C72	0.011490	0.385130	0.764500
C731	C73	0.873640	0.475940	0.258200
C741	C74	0.904750	0.435480	0.176920
C751	C75	0.734490	0.526870	0.187450
C761	C76	0.034020	0.228650	0.857390
C771	C77	0.213660	0.752720	0.952950
C781	C78	0.764580	0.485920	0.106550
C791	C79	0.740180	0.524000	0.343660
C801	C80	0.375930	0.770980	0.990690
C811	C81	0.285770	0.735320	0.019810
C821	C82	0.974300	0.147860	0.734170
C831	C83	0.020680	0.228260	0.762430
C841	C84	0.772040	0.480600	0.263270
O11	O1	0.268120	0.904110	0.644490
O21	O2	0.395880	0.361840	0.243430
O31	O3	0.912680	0.760070	0.070730
O41	O4	0.594350	0.736280	0.947670
O51	O5	0.549740	0.908500	0.965720
O61	O6	0.396800	0.059060	0.971260
O71	O7	0.596020	0.110700	0.277850
O81	O8	0.224990	0.095920	0.893170
O91	O9	0.580330	0.188120	0.022670
O101	O10	0.500990	0.061310	0.829730
O111	O11	0.566360	0.041470	0.112750
O121	O12	0.708800	0.984170	0.928180
O131	O13	0.185240	0.015220	0.609410
O141	O14	0.763560	0.721450	0.904230
O151	O15	0.518300	0.403390	0.311390
O161	O16	0.236770	0.104140	0.734120
O171	O17	0.607840	0.270070	0.276550
O181	O18	0.908990	0.669220	0.966570
O191	O19	0.231880	0.095890	0.144490
O201	O20	0.104120	0.638160	0.743430
O211	O21	0.587320	0.239930	0.570730
O221	O22	0.905650	0.263720	0.447670
O231	O23	0.950260	0.091500	0.465720
O241	O24	0.103200	0.940940	0.471260
O251	O25	0.903980	0.889300	0.777850
O261	O26	0.275010	0.904080	0.393170
O271	O27	0.919670	0.811880	0.522670
O281	O28	0.999010	0.938690	0.329730
O291	O29	0.933640	0.958530	0.612750
O301	O30	0.791200	0.015830	0.428180
O311	O31	0.314760	0.984780	0.109410
O321	O32	0.736440	0.278550	0.404230
O331	O33	0.981700	0.596610	0.811390
O341	O34	0.263230	0.895860	0.234120
O351	O35	0.892160	0.729930	0.776550
O361	O36	0.591010	0.330780	0.466570
O371	O37	0.731880	0.404110	0.855510
O381	O38	0.604120	0.861840	0.256570
O391	O39	0.087320	0.260070	0.429270
O401	O40	0.405650	0.236280	0.552330
O411	O41	0.450260	0.408500	0.534280
O421	O42	0.603200	0.559060	0.528740
O431	O43	0.403980	0.610700	0.222150
O441	O44	0.775010	0.595920	0.606830
O451	O45	0.419670	0.688120	0.477330
O461	O46	0.499010	0.561310	0.670270
O471	O47	0.433640	0.541470	0.387250
O481	O48	0.291200	0.484170	0.571820
O491	O49	0.814760	0.515220	0.890590
O501	O50	0.236440	0.221450	0.595770
O511	O51	0.481700	0.903390	0.188610
O521	O52	0.763230	0.604140	0.765880
O531	O53	0.392160	0.770070	0.223450
O541	O54	0.091010	0.169220	0.533430
O551	O55	0.768120	0.595890	0.355510
O561	O56	0.895880	0.138160	0.756570
O571	O57	0.412680	0.739930	0.929270
O581	O58	0.094350	0.763720	0.052330
O591	O59	0.049740	0.591500	0.034280
O601	O60	0.896800	0.440940	0.028740
O611	O61	0.096020	0.389300	0.722150
O621	O62	0.724990	0.404080	0.106830
O631	O63	0.080330	0.311880	0.977330
O641	O64	0.000990	0.438690	0.170270
O651	O65	0.066360	0.458530	0.887250
O661	O66	0.208800	0.515830	0.071820
O671	O67	0.685240	0.484780	0.390590
O681	O68	0.263560	0.778550	0.095770
O691	O69	0.018300	0.096610	0.688610
O701	O70	0.736770	0.395860	0.265880
O711	O71	0.107840	0.229930	0.723450
O721	O72	0.408990	0.830780	0.033430
