data_GAZZIS_charged_PM
_symmetry_space_group_name_H-M	'P1'
_cell_length_a	17.285700
_cell_length_b	17.285700
_cell_length_c	26.219000
_cell_angle_alpha	94.498700
_cell_angle_beta	94.498700
_cell_angle_gamma	110.062000
_symmetry_Int_Tables_number 1

loop_
_symmetry_equiv_pos_as_xyz
'x,y,z'

loop_
_atom_site_label
_atom_site_type_symbol
_atom_site_fract_x
_atom_site_fract_y
_atom_site_fract_z
In11	In1	0.366370	0.862010	0.884290
In21	In2	0.862010	0.366370	0.384290
H11	H1	0.212400	0.769000	0.024000
H21	H2	0.096300	0.686700	0.059900
H31	H3	0.965900	0.630100	0.919800
H41	H4	0.080000	0.712600	0.884800
H51	H5	0.810900	0.343900	0.208800
H61	H6	0.801500	0.376500	0.125600
H71	H7	0.996600	0.591000	0.166700
H81	H8	0.999500	0.560900	0.250400
H91	H9	0.382200	0.142200	0.870800
H101	H10	0.453300	0.285100	0.885000
H111	H11	0.602300	0.251500	0.001200
H121	H12	0.533400	0.107600	0.985700
H131	H13	0.597100	0.764900	0.896500
H141	H14	0.660700	0.669700	0.914200
H151	H15	0.437800	0.498800	0.929300
H161	H16	0.376200	0.595200	0.911800
H171	H17	0.763900	0.449500	0.069600
H181	H18	0.858200	0.589400	0.957200
H191	H19	0.009300	0.580900	0.080800
H201	H20	0.711300	0.600500	0.968400
H211	H21	0.691300	0.364900	0.985600
H221	H22	0.494300	0.410900	0.922700
H231	H23	0.769000	0.212400	0.524000
H241	H24	0.686700	0.096300	0.559900
H251	H25	0.630100	0.965900	0.419800
H261	H26	0.712600	0.080000	0.384800
H271	H27	0.343900	0.810900	0.708800
H281	H28	0.376500	0.801500	0.625600
H291	H29	0.591000	0.996600	0.666700
H301	H30	0.560900	0.999500	0.750400
H311	H31	0.142200	0.382200	0.370800
H321	H32	0.285100	0.453300	0.385000
H331	H33	0.251500	0.602300	0.501200
H341	H34	0.107600	0.533400	0.485700
H351	H35	0.764900	0.597100	0.396500
H361	H36	0.669700	0.660700	0.414200
H371	H37	0.498800	0.437800	0.429300
H381	H38	0.595200	0.376200	0.411800
H391	H39	0.449500	0.763900	0.569600
H401	H40	0.589400	0.858200	0.457200
H411	H41	0.580900	0.009300	0.580800
H421	H42	0.600500	0.711300	0.468400
H431	H43	0.364900	0.691300	0.485600
H441	H44	0.410900	0.494300	0.422700
C11	C1	0.158540	0.747840	0.950950
C21	C2	0.162240	0.740360	0.002450
C31	C3	0.092890	0.690970	0.023970
C41	C4	0.018960	0.648120	0.992810
C51	C5	0.016210	0.657890	0.941570
C61	C6	0.084200	0.706880	0.920590
C71	C7	0.904730	0.449050	0.238250
C81	C8	0.847350	0.395190	0.200330
C91	C9	0.842030	0.414190	0.150840
C101	C10	0.896250	0.489150	0.137020
C111	C11	0.956950	0.541750	0.175380
C121	C12	0.959690	0.523090	0.224710
C131	C13	0.452840	0.111800	0.926310
C141	C14	0.428010	0.164430	0.896720
C151	C15	0.470370	0.249390	0.905240
C161	C16	0.537610	0.282810	0.943050
C171	C17	0.558850	0.229330	0.973790
C181	C18	0.517250	0.143530	0.965060
C191	C19	0.478100	0.689140	0.904990
C201	C20	0.555140	0.575100	0.928690
C211	C21	0.565000	0.711400	0.904400
C221	C22	0.602600	0.655200	0.915400
C231	C23	0.471500	0.553500	0.924600
C241	C24	0.434900	0.611500	0.913500
C251	C25	0.888180	0.513160	0.084410
C261	C26	0.809850	0.486990	0.056170
C271	C27	0.797660	0.514860	0.008400
C281	C28	0.865700	0.568680	0.989030
C291	C29	0.945620	0.593060	0.015820
C301	C30	0.955330	0.564750	0.062790
C311	C31	0.594670	0.516130	0.943190
C321	C32	0.678520	0.543220	0.964920
C331	C33	0.713190	0.486190	0.981300
C341	C34	0.667030	0.403270	0.974430
C351	C35	0.585860	0.374100	0.951520
C361	C36	0.550590	0.430630	0.937180
C371	C37	0.233230	0.795410	0.927710
C381	C38	0.906870	0.432410	0.293650
C391	C39	0.412730	0.019830	0.914110
C401	C40	0.436320	0.749060	0.894500
C411	C41	0.747840	0.158540	0.450950
C421	C42	0.740360	0.162240	0.502450
C431	C43	0.690970	0.092890	0.523970
C441	C44	0.648120	0.018960	0.492810
C451	C45	0.657890	0.016210	0.441570
C461	C46	0.706880	0.084200	0.420590
C471	C47	0.449050	0.904730	0.738250
C481	C48	0.395190	0.847350	0.700330
C491	C49	0.414190	0.842030	0.650840
C501	C50	0.489150	0.896250	0.637020
C511	C51	0.541750	0.956950	0.675380
C521	C52	0.523090	0.959690	0.724710
C531	C53	0.111800	0.452840	0.426310
C541	C54	0.164430	0.428010	0.396720
C551	C55	0.249390	0.470370	0.405240
C561	C56	0.282810	0.537610	0.443050
C571	C57	0.229330	0.558850	0.473790
C581	C58	0.143530	0.517250	0.465060
C591	C59	0.689140	0.478100	0.404990
C601	C60	0.575100	0.555140	0.428690
C611	C61	0.711400	0.565000	0.404400
C621	C62	0.655200	0.602600	0.415400
C631	C63	0.553500	0.471500	0.424600
C641	C64	0.611500	0.434900	0.413500
C651	C65	0.513160	0.888180	0.584410
C661	C66	0.486990	0.809850	0.556170
C671	C67	0.514860	0.797660	0.508400
C681	C68	0.568680	0.865700	0.489030
C691	C69	0.593060	0.945620	0.515820
C701	C70	0.564750	0.955330	0.562790
C711	C71	0.516130	0.594670	0.443190
C721	C72	0.543220	0.678520	0.464920
C731	C73	0.486190	0.713190	0.481300
C741	C74	0.403270	0.667030	0.474430
C751	C75	0.374100	0.585860	0.451520
C761	C76	0.430630	0.550590	0.437180
C771	C77	0.795410	0.233230	0.427710
C781	C78	0.432410	0.906870	0.793650
C791	C79	0.019830	0.412730	0.414110
C801	C80	0.749060	0.436320	0.394500
O11	O1	0.228980	0.802220	0.879630
O21	O2	0.302600	0.827860	0.955520
O31	O3	0.851970	0.365410	0.303540
O41	O4	0.958940	0.482940	0.326810
O51	O5	0.346880	0.987520	0.883900
O61	O6	0.449200	0.974660	0.933920
O71	O7	0.477240	0.826460	0.900600
O81	O8	0.359910	0.724830	0.881540
O91	O9	0.802220	0.228980	0.379630
O101	O10	0.827860	0.302600	0.455520
O111	O11	0.365410	0.851970	0.803540
O121	O12	0.482940	0.958940	0.826810
O131	O13	0.987520	0.346880	0.383900
O141	O14	0.974660	0.449200	0.433920
O151	O15	0.826460	0.477240	0.400600
O161	O16	0.724830	0.359910	0.381540
In31	In3	0.137990	0.633630	0.615710
In41	In4	0.633630	0.137990	0.115710
H451	H45	0.231000	0.787600	0.476000
H461	H46	0.313300	0.903700	0.440100
H471	H47	0.369900	0.034100	0.580200
H481	H48	0.287400	0.920000	0.615200
H491	H49	0.656100	0.189100	0.291200
H501	H50	0.623500	0.198500	0.374400
H511	H51	0.409000	0.003400	0.333300
H521	H52	0.439100	0.000500	0.249600
H531	H53	0.857800	0.617800	0.629200
H541	H54	0.714900	0.546700	0.615000
H551	H55	0.748500	0.397700	0.498800
H561	H56	0.892400	0.466600	0.514300
H571	H57	0.235100	0.402900	0.603500
H581	H58	0.330300	0.339300	0.585800
H591	H59	0.501200	0.562200	0.570700
H601	H60	0.404800	0.623800	0.588200
H611	H61	0.550500	0.236100	0.430400
H621	H62	0.410600	0.141800	0.542800
H631	H63	0.419100	0.990700	0.419200
H641	H64	0.399500	0.288700	0.531600
H651	H65	0.635100	0.308700	0.514400
H661	H66	0.589100	0.505700	0.577300
H671	H67	0.787600	0.231000	0.976000
H681	H68	0.903700	0.313300	0.940100
H691	H69	0.034100	0.369900	0.080200
H701	H70	0.920000	0.287400	0.115200
H711	H71	0.189100	0.656100	0.791200
H721	H72	0.198500	0.623500	0.874400
H731	H73	0.003400	0.409000	0.833300
H741	H74	0.000500	0.439100	0.749600
H751	H75	0.617800	0.857800	0.129200
H761	H76	0.546700	0.714900	0.115000
H771	H77	0.397700	0.748500	0.998800
H781	H78	0.466600	0.892400	0.014300
H791	H79	0.402900	0.235100	0.103500
H801	H80	0.339300	0.330300	0.085800
H811	H81	0.562200	0.501200	0.070700
H821	H82	0.623800	0.404800	0.088200
H831	H83	0.236100	0.550500	0.930400
H841	H84	0.141800	0.410600	0.042800
H851	H85	0.990700	0.419100	0.919200
H861	H86	0.288700	0.399500	0.031600
H871	H87	0.308700	0.635100	0.014400
H881	H88	0.505700	0.589100	0.077300
C811	C81	0.252160	0.841460	0.549050
C821	C82	0.259640	0.837760	0.497550
C831	C83	0.309030	0.907110	0.476030
C841	C84	0.351880	0.981040	0.507190
C851	C85	0.342110	0.983790	0.558430
C861	C86	0.293120	0.915800	0.579410
C871	C87	0.550950	0.095270	0.261750
C881	C88	0.604810	0.152650	0.299670
C891	C89	0.585810	0.157970	0.349160
C901	C90	0.510850	0.103750	0.362980
C911	C91	0.458250	0.043050	0.324620
C921	C92	0.476910	0.040310	0.275290
C931	C93	0.888200	0.547160	0.573690
C941	C94	0.835570	0.571990	0.603280
C951	C95	0.750610	0.529630	0.594760
C961	C96	0.717190	0.462390	0.556950
C971	C97	0.770670	0.441150	0.526210
C981	C98	0.856470	0.482750	0.534940
C991	C99	0.310860	0.521900	0.595010
C1001	C100	0.424900	0.444860	0.571310
C1011	C101	0.288600	0.435000	0.595600
C1021	C102	0.344800	0.397400	0.584600
C1031	C103	0.446500	0.528500	0.575400
C1041	C104	0.388500	0.565100	0.586500
C1051	C105	0.486840	0.111820	0.415590
C1061	C106	0.513010	0.190150	0.443830
C1071	C107	0.485140	0.202340	0.491600
C1081	C108	0.431320	0.134300	0.510970
C1091	C109	0.406940	0.054380	0.484180
C1101	C110	0.435250	0.044670	0.437210
C1111	C111	0.483870	0.405330	0.556810
C1121	C112	0.456780	0.321480	0.535080
C1131	C113	0.513810	0.286810	0.518700
C1141	C114	0.596730	0.332970	0.525570
C1151	C115	0.625900	0.414140	0.548480
C1161	C116	0.569370	0.449410	0.562820
C1171	C117	0.204590	0.766770	0.572290
C1181	C118	0.567590	0.093130	0.206350
C1191	C119	0.980170	0.587270	0.585890
C1201	C120	0.250940	0.563680	0.605500
C1211	C121	0.841460	0.252160	0.049050
C1221	C122	0.837760	0.259640	0.997550
C1231	C123	0.907110	0.309030	0.976030
C1241	C124	0.981040	0.351880	0.007190
C1251	C125	0.983790	0.342110	0.058430
C1261	C126	0.915800	0.293120	0.079410
C1271	C127	0.095270	0.550950	0.761750
C1281	C128	0.152650	0.604810	0.799670
C1291	C129	0.157970	0.585810	0.849160
C1301	C130	0.103750	0.510850	0.862980
C1311	C131	0.043050	0.458250	0.824620
C1321	C132	0.040310	0.476910	0.775290
C1331	C133	0.547160	0.888200	0.073690
C1341	C134	0.571990	0.835570	0.103280
C1351	C135	0.529630	0.750610	0.094760
C1361	C136	0.462390	0.717190	0.056950
C1371	C137	0.441150	0.770670	0.026210
C1381	C138	0.482750	0.856470	0.034940
C1391	C139	0.521900	0.310860	0.095010
C1401	C140	0.444860	0.424900	0.071310
C1411	C141	0.435000	0.288600	0.095600
C1421	C142	0.397400	0.344800	0.084600
C1431	C143	0.528500	0.446500	0.075400
C1441	C144	0.565100	0.388500	0.086500
C1451	C145	0.111820	0.486840	0.915590
C1461	C146	0.190150	0.513010	0.943830
C1471	C147	0.202340	0.485140	0.991600
C1481	C148	0.134300	0.431320	0.010970
C1491	C149	0.054380	0.406940	0.984180
C1501	C150	0.044670	0.435250	0.937210
C1511	C151	0.405330	0.483870	0.056810
C1521	C152	0.321480	0.456780	0.035080
C1531	C153	0.286810	0.513810	0.018700
C1541	C154	0.332970	0.596730	0.025570
C1551	C155	0.414140	0.625900	0.048480
C1561	C156	0.449410	0.569370	0.062820
C1571	C157	0.766770	0.204590	0.072290
C1581	C158	0.093130	0.567590	0.706350
C1591	C159	0.587270	0.980170	0.085890
C1601	C160	0.563680	0.250940	0.105500
O171	O17	0.197780	0.771020	0.620370
O181	O18	0.172140	0.697400	0.544480
O191	O19	0.634590	0.148030	0.196460
O201	O20	0.517060	0.041060	0.173190
O211	O21	0.012480	0.653120	0.616100
O221	O22	0.025340	0.550800	0.566080
O231	O23	0.173540	0.522760	0.599400
O241	O24	0.275170	0.640090	0.618460
O251	O25	0.771020	0.197780	0.120370
O261	O26	0.697400	0.172140	0.044480
O271	O27	0.148030	0.634590	0.696460
O281	O28	0.041060	0.517060	0.673190
O291	O29	0.653120	0.012480	0.116100
O301	O30	0.550800	0.025340	0.066080
O311	O31	0.522760	0.173540	0.099400
O321	O32	0.640090	0.275170	0.118460
H891	H89	0.629200	0.954000	0.883200
H901	H90	0.561000	0.976800	0.903800
H911	H91	0.624500	0.927700	0.967000
H921	H92	0.710000	0.999400	0.960900
H931	H93	0.636200	0.022600	0.983000
H941	H94	0.635200	0.081400	0.857900
H951	H95	0.644600	0.116200	0.917300
H961	H96	0.717300	0.091500	0.894600
C1611	C161	0.649790	0.984610	0.958630
C1621	C162	0.657100	0.077500	0.892800
N11	N1	0.617640	0.990560	0.906090
H971	H97	0.046000	0.370800	0.616800
H981	H98	0.023200	0.439000	0.596200
H991	H99	0.072300	0.375500	0.533000
H1001	H100	0.000600	0.290000	0.539100
H1011	H101	0.977400	0.363800	0.517000
H1021	H102	0.918600	0.364800	0.642100
H1031	H103	0.883800	0.355400	0.582700
H1041	H104	0.908500	0.282700	0.605400
C1631	C163	0.015390	0.350210	0.541370
C1641	C164	0.922500	0.342900	0.607200
N21	N2	0.009440	0.382360	0.593910
H1051	H105	0.370800	0.046000	0.116800
H1061	H106	0.439000	0.023200	0.096200
H1071	H107	0.375500	0.072300	0.033000
H1081	H108	0.290000	0.000600	0.039100
H1091	H109	0.363800	0.977400	0.017000
H1101	H110	0.364800	0.918600	0.142100
H1111	H111	0.355400	0.883800	0.082700
H1121	H112	0.282700	0.908500	0.105400
C1651	C165	0.350210	0.015390	0.041370
C1661	C166	0.342900	0.922500	0.107200
N31	N3	0.382360	0.009440	0.093910
H1131	H113	0.954000	0.629200	0.383200
H1141	H114	0.976800	0.561000	0.403800
H1151	H115	0.927700	0.624500	0.467000
H1161	H116	0.999400	0.710000	0.460900
H1171	H117	0.022600	0.636200	0.483000
H1181	H118	0.081400	0.635200	0.357900
H1191	H119	0.116200	0.644600	0.417300
H1201	H120	0.091500	0.717300	0.394600
C1671	C167	0.984610	0.649790	0.458630
C1681	C168	0.077500	0.657100	0.392800
N41	N4	0.990560	0.617640	0.406090
