data_GEDDAW_clean_PM
_symmetry_space_group_name_H-M	'P1'
_cell_length_a	18.516700
_cell_length_b	18.516700
_cell_length_c	18.516700
_cell_angle_alpha	95.450700
_cell_angle_beta	95.450700
_cell_angle_gamma	95.450700
_symmetry_Int_Tables_number 1

loop_
_symmetry_equiv_pos_as_xyz
'x,y,z'

loop_
_atom_site_label
_atom_site_type_symbol
_atom_site_fract_x
_atom_site_fract_y
_atom_site_fract_z
Co11	Co1	0.918210	0.724380	0.246530
Co21	Co2	0.778770	0.294990	0.083900
Co31	Co3	0.871630	0.961710	0.256060
Co41	Co4	0.793690	0.796170	0.322630
Co51	Co5	0.246530	0.918210	0.724380
Co61	Co6	0.083900	0.778770	0.294990
Co71	Co7	0.256060	0.871630	0.961710
Co81	Co8	0.322630	0.793690	0.796170
Co91	Co9	0.724380	0.246530	0.918210
Co101	Co10	0.294990	0.083900	0.778770
Co111	Co11	0.961710	0.256060	0.871630
Co121	Co12	0.796170	0.322630	0.793690
Co131	Co13	0.081790	0.275620	0.753470
Co141	Co14	0.221230	0.705010	0.916100
Co151	Co15	0.128370	0.038290	0.743940
Co161	Co16	0.206310	0.203830	0.677370
Co171	Co17	0.753470	0.081790	0.275620
Co181	Co18	0.916100	0.221230	0.705010
Co191	Co19	0.743940	0.128370	0.038290
Co201	Co20	0.677370	0.206310	0.203830
Co211	Co21	0.275620	0.753470	0.081790
Co221	Co22	0.705010	0.916100	0.221230
Co231	Co23	0.038290	0.743940	0.128370
Co241	Co24	0.203830	0.677370	0.206310
H11	H1	0.689000	0.608500	0.379100
H21	H2	0.610900	0.501600	0.376600
H31	H3	0.626700	0.398300	0.301800
H41	H4	0.800900	0.506000	0.228700
H51	H5	0.988800	0.836500	0.215200
H61	H6	0.661700	0.217000	0.075800
H71	H7	0.379100	0.689000	0.608500
H81	H8	0.376600	0.610900	0.501600
H91	H9	0.301800	0.626700	0.398300
H101	H10	0.228700	0.800900	0.506000
H111	H11	0.215200	0.988800	0.836500
H121	H12	0.075800	0.661700	0.217000
H131	H13	0.608500	0.379100	0.689000
H141	H14	0.501600	0.376600	0.610900
H151	H15	0.398300	0.301800	0.626700
H161	H16	0.506000	0.228700	0.800900
H171	H17	0.836500	0.215200	0.988800
H181	H18	0.217000	0.075800	0.661700
H191	H19	0.311000	0.391500	0.620900
H201	H20	0.389100	0.498400	0.623400
H211	H21	0.373300	0.601700	0.698200
H221	H22	0.199100	0.494000	0.771300
H231	H23	0.011200	0.163500	0.784800
H241	H24	0.338300	0.783000	0.924200
H251	H25	0.620900	0.311000	0.391500
H261	H26	0.623400	0.389100	0.498400
H271	H27	0.698200	0.373300	0.601700
H281	H28	0.771300	0.199100	0.494000
H291	H29	0.784800	0.011200	0.163500
H301	H30	0.924200	0.338300	0.783000
H311	H31	0.391500	0.620900	0.311000
H321	H32	0.498400	0.623400	0.389100
H331	H33	0.601700	0.698200	0.373300
H341	H34	0.494000	0.771300	0.199100
H351	H35	0.163500	0.784800	0.011200
H361	H36	0.783000	0.924200	0.338300
C11	C1	0.803800	0.635300	0.305900
C21	C2	0.725800	0.372900	0.211300
C31	C3	0.754200	0.566300	0.304500
C41	C4	0.696000	0.566000	0.348600
C51	C5	0.649800	0.502800	0.346700
C61	C6	0.659200	0.441300	0.302200
C71	C7	0.715700	0.441700	0.257900
C81	C8	0.762600	0.505000	0.259300
C91	C9	0.305900	0.803800	0.635300
C101	C10	0.211300	0.725800	0.372900
C111	C11	0.304500	0.754200	0.566300
C121	C12	0.348600	0.696000	0.566000
C131	C13	0.346700	0.649800	0.502800
C141	C14	0.302200	0.659200	0.441300
C151	C15	0.257900	0.715700	0.441700
C161	C16	0.259300	0.762600	0.505000
C171	C17	0.635300	0.305900	0.803800
C181	C18	0.372900	0.211300	0.725800
C191	C19	0.566300	0.304500	0.754200
C201	C20	0.566000	0.348600	0.696000
C211	C21	0.502800	0.346700	0.649800
C221	C22	0.441300	0.302200	0.659200
C231	C23	0.441700	0.257900	0.715700
C241	C24	0.505000	0.259300	0.762600
C251	C25	0.196200	0.364700	0.694100
C261	C26	0.274200	0.627100	0.788700
C271	C27	0.245800	0.433700	0.695500
C281	C28	0.304000	0.434000	0.651400
C291	C29	0.350200	0.497200	0.653300
C301	C30	0.340800	0.558700	0.697800
C311	C31	0.284300	0.558300	0.742100
C321	C32	0.237400	0.495000	0.740700
C331	C33	0.694100	0.196200	0.364700
C341	C34	0.788700	0.274200	0.627100
C351	C35	0.695500	0.245800	0.433700
C361	C36	0.651400	0.304000	0.434000
C371	C37	0.653300	0.350200	0.497200
C381	C38	0.697800	0.340800	0.558700
C391	C39	0.742100	0.284300	0.558300
C401	C40	0.740700	0.237400	0.495000
C411	C41	0.364700	0.694100	0.196200
C421	C42	0.627100	0.788700	0.274200
C431	C43	0.433700	0.695500	0.245800
C441	C44	0.434000	0.651400	0.304000
C451	C45	0.497200	0.653300	0.350200
C461	C46	0.558700	0.697800	0.340800
C471	C47	0.558300	0.742100	0.284300
C481	C48	0.495000	0.740700	0.237400
S11	S1	0.816750	0.817130	0.149670
S21	S2	0.962340	0.868040	0.368130
S31	S3	0.149670	0.816750	0.817130
S41	S4	0.368130	0.962340	0.868040
S51	S5	0.817130	0.149670	0.816750
S61	S6	0.868040	0.368130	0.962340
S71	S7	0.183250	0.182870	0.850330
S81	S8	0.037660	0.131960	0.631870
S91	S9	0.850330	0.183250	0.182870
S101	S10	0.631870	0.037660	0.131960
S111	S11	0.182870	0.850330	0.183250
S121	S12	0.131960	0.631870	0.037660
O11	O1	0.793000	0.690700	0.348300
O21	O2	0.852900	0.635200	0.262600
O31	O3	0.761300	0.378800	0.157300
O41	O4	0.696800	0.314700	0.230400
O51	O5	0.820200	0.766800	0.209300
O61	O6	0.743300	0.842400	0.144000
O71	O7	0.829100	0.776900	0.081100
O81	O8	0.874100	0.879500	0.169300
O91	O9	0.909200	0.802000	0.339500
O101	O10	0.956700	0.923200	0.316000
O111	O11	0.036100	0.845700	0.372000
O121	O12	0.945400	0.895500	0.439600
O131	O13	0.998300	0.792600	0.217800
O141	O14	0.701100	0.209400	0.100100
O151	O15	0.348300	0.793000	0.690700
O161	O16	0.262600	0.852900	0.635200
O171	O17	0.157300	0.761300	0.378800
O181	O18	0.230400	0.696800	0.314700
O191	O19	0.209300	0.820200	0.766800
O201	O20	0.144000	0.743300	0.842400
O211	O21	0.081100	0.829100	0.776900
O221	O22	0.169300	0.874100	0.879500
O231	O23	0.339500	0.909200	0.802000
O241	O24	0.316000	0.956700	0.923200
O251	O25	0.372000	0.036100	0.845700
O261	O26	0.439600	0.945400	0.895500
O271	O27	0.217800	0.998300	0.792600
O281	O28	0.100100	0.701100	0.209400
O291	O29	0.690700	0.348300	0.793000
O301	O30	0.635200	0.262600	0.852900
O311	O31	0.378800	0.157300	0.761300
O321	O32	0.314700	0.230400	0.696800
O331	O33	0.766800	0.209300	0.820200
O341	O34	0.842400	0.144000	0.743300
O351	O35	0.776900	0.081100	0.829100
O361	O36	0.879500	0.169300	0.874100
O371	O37	0.802000	0.339500	0.909200
O381	O38	0.923200	0.316000	0.956700
O391	O39	0.845700	0.372000	0.036100
O401	O40	0.895500	0.439600	0.945400
O411	O41	0.792600	0.217800	0.998300
O421	O42	0.209400	0.100100	0.701100
O431	O43	0.207000	0.309300	0.651700
O441	O44	0.147100	0.364800	0.737400
O451	O45	0.238700	0.621200	0.842700
O461	O46	0.303200	0.685300	0.769600
O471	O47	0.179800	0.233200	0.790700
O481	O48	0.256700	0.157600	0.856000
O491	O49	0.170900	0.223100	0.918900
O501	O50	0.125900	0.120500	0.830700
O511	O51	0.090800	0.198000	0.660500
O521	O52	0.043300	0.076800	0.684000
O531	O53	0.963900	0.154300	0.628000
O541	O54	0.054600	0.104500	0.560400
O551	O55	0.001700	0.207400	0.782200
O561	O56	0.298900	0.790600	0.899900
O571	O57	0.651700	0.207000	0.309300
O581	O58	0.737400	0.147100	0.364800
O591	O59	0.842700	0.238700	0.621200
O601	O60	0.769600	0.303200	0.685300
O611	O61	0.790700	0.179800	0.233200
O621	O62	0.856000	0.256700	0.157600
O631	O63	0.918900	0.170900	0.223100
O641	O64	0.830700	0.125900	0.120500
O651	O65	0.660500	0.090800	0.198000
O661	O66	0.684000	0.043300	0.076800
O671	O67	0.628000	0.963900	0.154300
O681	O68	0.560400	0.054600	0.104500
O691	O69	0.782200	0.001700	0.207400
O701	O70	0.899900	0.298900	0.790600
O711	O71	0.309300	0.651700	0.207000
O721	O72	0.364800	0.737400	0.147100
O731	O73	0.621200	0.842700	0.238700
O741	O74	0.685300	0.769600	0.303200
O751	O75	0.233200	0.790700	0.179800
O761	O76	0.157600	0.856000	0.256700
O771	O77	0.223100	0.918900	0.170900
O781	O78	0.120500	0.830700	0.125900
O791	O79	0.198000	0.660500	0.090800
O801	O80	0.076800	0.684000	0.043300
O811	O81	0.154300	0.628000	0.963900
O821	O82	0.104500	0.560400	0.054600
O831	O83	0.207400	0.782200	0.001700
O841	O84	0.790600	0.899900	0.298900
