data_GEDQUD_charged_PM
_symmetry_space_group_name_H-M	'P1'
_cell_length_a	13.694500
_cell_length_b	14.771100
_cell_length_c	16.065100
_cell_angle_alpha	117.369000
_cell_angle_beta	97.982900
_cell_angle_gamma	90.000000
_symmetry_Int_Tables_number 1

loop_
_symmetry_equiv_pos_as_xyz
'x,y,z'

loop_
_atom_site_label
_atom_site_type_symbol
_atom_site_fract_x
_atom_site_fract_y
_atom_site_fract_z
Nd11	Nd1	0.960410	0.393270	0.363420
Nd21	Nd2	0.539590	0.029850	0.636580
Nd31	Nd3	0.039590	0.606730	0.636580
Nd41	Nd4	0.460410	0.970150	0.363420
H11	H1	0.105900	0.196200	0.065400
H21	H2	0.154100	0.165300	0.923200
H31	H3	0.092700	0.448500	0.971600
H41	H4	0.037300	0.477200	0.109800
H51	H5	0.177000	0.205000	0.812000
H61	H6	0.083800	0.392800	0.678200
H71	H7	0.283200	0.209500	0.716600
H81	H8	0.218700	0.203600	0.462000
H91	H9	0.394100	0.130800	0.934600
H101	H10	0.345900	0.242100	0.076800
H111	H11	0.407300	0.476900	0.028400
H121	H12	0.462700	0.367400	0.890200
H131	H13	0.323000	0.393000	0.188000
H141	H14	0.416200	0.714600	0.321800
H151	H15	0.216800	0.492900	0.283400
H161	H16	0.281300	0.741600	0.538000
H171	H17	0.894100	0.803800	0.934600
H181	H18	0.845900	0.834700	0.076800
H191	H19	0.907300	0.551500	0.028400
H201	H20	0.962700	0.522800	0.890200
H211	H21	0.823000	0.795000	0.188000
H221	H22	0.916200	0.607200	0.321800
H231	H23	0.716800	0.790500	0.283400
H241	H24	0.781300	0.796400	0.538000
H251	H25	0.605900	0.869200	0.065400
H261	H26	0.654100	0.757900	0.923200
H271	H27	0.592700	0.523100	0.971600
H281	H28	0.537300	0.632600	0.109800
H291	H29	0.677000	0.607000	0.812000
H301	H30	0.583800	0.285400	0.678200
H311	H31	0.783200	0.507100	0.716600
H321	H32	0.718700	0.258400	0.462000
C11	C1	0.027600	0.355700	0.189400
C21	C2	0.066300	0.338900	0.102200
C31	C3	0.101800	0.246700	0.046000
C41	C4	0.131500	0.228400	0.961200
C51	C5	0.127700	0.303200	0.932800
C61	C6	0.093800	0.397100	0.989800
C71	C7	0.061800	0.414900	0.073000
C81	C8	0.155700	0.277900	0.839800
C91	C9	0.085200	0.340400	0.496600
C101	C10	0.142900	0.304000	0.560600
C111	C11	0.127400	0.342100	0.654200
C121	C12	0.177800	0.303900	0.712200
C131	C13	0.247200	0.232500	0.677400
C141	C14	0.262900	0.195200	0.583800
C151	C15	0.209600	0.229900	0.525000
C161	C16	0.337300	0.116300	0.545000
C171	C17	0.472400	0.166300	0.810600
C181	C18	0.433700	0.236700	0.897800
C191	C19	0.398200	0.200700	0.954000
C201	C20	0.368500	0.267200	0.038800
C211	C21	0.372300	0.370400	0.067200
C221	C22	0.406200	0.407300	0.010200
C231	C23	0.438200	0.341900	0.927000
C241	C24	0.344300	0.438100	0.160200
C251	C25	0.414800	0.843800	0.503400
C261	C26	0.357100	0.743400	0.439400
C271	C27	0.372600	0.687900	0.345800
C281	C28	0.322200	0.591700	0.287800
C291	C29	0.252800	0.555100	0.322600
C301	C30	0.237100	0.611400	0.416200
C311	C31	0.290400	0.704900	0.475000
C321	C32	0.162700	0.571300	0.455000
C331	C33	0.972400	0.644300	0.810600
C341	C34	0.933700	0.661100	0.897800
C351	C35	0.898200	0.753300	0.954000
C361	C36	0.868500	0.771600	0.038800
C371	C37	0.872300	0.696800	0.067200
C381	C38	0.906200	0.602900	0.010200
C391	C39	0.938200	0.585100	0.927000
C401	C40	0.844300	0.722100	0.160200
C411	C41	0.914800	0.659600	0.503400
C421	C42	0.857100	0.696000	0.439400
C431	C43	0.872600	0.657900	0.345800
C441	C44	0.822200	0.696100	0.287800
C451	C45	0.752800	0.767500	0.322600
C461	C46	0.737100	0.804800	0.416200
C471	C47	0.790400	0.770100	0.475000
C481	C48	0.662700	0.883700	0.455000
C491	C49	0.527600	0.833700	0.189400
C501	C50	0.566300	0.763300	0.102200
C511	C51	0.601800	0.799300	0.046000
C521	C52	0.631500	0.732800	0.961200
C531	C53	0.627700	0.629600	0.932800
C541	C54	0.593800	0.592700	0.989800
C551	C55	0.561800	0.658100	0.073000
C561	C56	0.655700	0.561900	0.839800
C571	C57	0.585200	0.156200	0.496600
C581	C58	0.642900	0.256600	0.560600
C591	C59	0.627400	0.312100	0.654200
C601	C60	0.677800	0.408300	0.712200
C611	C61	0.747200	0.444900	0.677400
C621	C62	0.762900	0.388600	0.583800
C631	C63	0.709600	0.295100	0.525000
C641	C64	0.837300	0.428700	0.545000
N11	N1	0.153800	0.341000	0.805800
N21	N2	0.346200	0.535200	0.194200
N31	N3	0.846200	0.659000	0.194200
N41	N4	0.653800	0.464800	0.805800
Cl11	Cl1	0.865500	0.203600	0.237200
Cl21	Cl2	0.634500	0.966400	0.762800
Cl31	Cl3	0.134500	0.796400	0.762800
Cl41	Cl4	0.365500	0.033600	0.237200
O11	O1	0.053500	0.298500	0.225600
O21	O2	0.970100	0.426000	0.225200
O31	O3	0.067300	0.283090	0.409980
O41	O4	0.054500	0.428640	0.533080
O51	O5	0.381300	0.088800	0.601800
O61	O6	0.351100	0.088170	0.462340
O71	O7	0.785200	0.425300	0.303200
O81	O8	0.446500	0.072900	0.774400
O91	O9	0.529900	0.200800	0.774800
O101	O10	0.432700	0.873110	0.590020
O111	O11	0.445500	0.895560	0.466920
O121	O12	0.118700	0.487000	0.398200
O131	O13	0.148900	0.625830	0.537660
O141	O14	0.714800	0.122100	0.696800
O151	O15	0.946500	0.701500	0.774400
O161	O16	0.029900	0.574000	0.774800
O171	O17	0.932700	0.716910	0.590020
O181	O18	0.945500	0.571360	0.466920
O191	O19	0.618700	0.911200	0.398200
O201	O20	0.648900	0.911830	0.537660
O211	O21	0.214800	0.574700	0.696800
O221	O22	0.553500	0.927100	0.225600
O231	O23	0.470100	0.799200	0.225200
O241	O24	0.567300	0.126890	0.409980
O251	O25	0.554500	0.104440	0.533080
O261	O26	0.881300	0.513000	0.601800
O271	O27	0.851100	0.374170	0.462340
O281	O28	0.285200	0.877900	0.303200
H331	H33	0.768400	0.479400	0.087400
H341	H34	0.731600	0.392000	0.912600
H351	H35	0.750000	0.177600	0.000000
C651	C65	0.763700	0.409200	0.047600
C661	C66	0.736300	0.361600	0.952400
C671	C67	0.750000	0.241000	0.000000
N51	N5	0.782800	0.335700	0.074400
N61	N6	0.717200	0.261300	0.925600
H361	H36	0.231600	0.520600	0.912600
H371	H37	0.268400	0.608000	0.087400
H381	H38	0.250000	0.822400	0.000000
C681	C68	0.236300	0.590800	0.952400
C691	C69	0.263700	0.638400	0.047600
C701	C70	0.250000	0.759000	0.000000
N71	N7	0.217200	0.664300	0.925600
N81	N8	0.282800	0.738700	0.074400
