data_GEDRAK_clean_PM
_symmetry_space_group_name_H-M	'P1'
_cell_length_a	12.628400
_cell_length_b	14.826500
_cell_length_c	16.134200
_cell_angle_alpha	117.353000
_cell_angle_beta	101.841000
_cell_angle_gamma	90.000000
_symmetry_Int_Tables_number 1

loop_
_symmetry_equiv_pos_as_xyz
'x,y,z'

loop_
_atom_site_label
_atom_site_type_symbol
_atom_site_fract_x
_atom_site_fract_y
_atom_site_fract_z
Nd11	Nd1	0.442820	0.964870	0.359800
Nd21	Nd2	0.057180	0.605060	0.640180
Nd31	Nd3	0.557180	0.035130	0.640200
Nd41	Nd4	0.942820	0.394930	0.359810
H11	H1	0.577300	0.876400	0.062400
H21	H2	0.624900	0.770000	0.920600
H31	H3	0.598500	0.533700	0.975400
H41	H4	0.545200	0.640800	0.115600
H51	H5	0.575100	0.299200	0.683200
H61	H6	0.770100	0.531500	0.714200
H71	H7	0.688600	0.279000	0.460200
H81	H8	0.639000	0.605000	0.802000
H91	H9	0.922700	0.814000	0.937600
H101	H10	0.875100	0.849400	0.079400
H111	H11	0.901500	0.558300	0.024600
H121	H12	0.954800	0.525200	0.884400
H131	H13	0.924900	0.616000	0.316800
H141	H14	0.729900	0.817300	0.285800
H151	H15	0.811400	0.818800	0.539800
H161	H16	0.861000	0.803000	0.198000
H171	H17	0.422700	0.123600	0.937600
H181	H18	0.375100	0.230000	0.079400
H191	H19	0.401500	0.466300	0.024600
H201	H20	0.454800	0.359200	0.884400
H211	H21	0.424900	0.700800	0.316800
H221	H22	0.229900	0.468500	0.285800
H231	H23	0.311400	0.721000	0.539800
H241	H24	0.361000	0.395000	0.198000
H251	H25	0.077300	0.186000	0.062400
H261	H26	0.124900	0.150600	0.920600
H271	H27	0.098500	0.441700	0.975400
H281	H28	0.045200	0.474800	0.115600
H291	H29	0.075100	0.384000	0.683200
H301	H30	0.270100	0.182700	0.714200
H311	H31	0.188600	0.181200	0.460200
H321	H32	0.139000	0.197000	0.802000
C11	C1	0.510600	0.834900	0.188800
C21	C2	0.552500	0.768000	0.101000
C31	C3	0.579200	0.807100	0.043800
C41	C4	0.608900	0.743600	0.959400
C51	C5	0.614800	0.640700	0.932200
C61	C6	0.592400	0.602100	0.991800
C71	C7	0.560700	0.666400	0.076000
C81	C8	0.641100	0.574900	0.839400
C91	C9	0.564400	0.166000	0.498400
C101	C10	0.624500	0.272100	0.561800
C111	C11	0.616000	0.327800	0.657600
C121	C12	0.669400	0.426400	0.713800
C131	C13	0.733000	0.466500	0.676000
C141	C14	0.742600	0.411400	0.581600
C151	C15	0.685600	0.315000	0.524400
C161	C16	0.811600	0.455700	0.541600
C171	C17	0.989400	0.646100	0.811200
C181	C18	0.947500	0.667000	0.899000
C191	C19	0.920800	0.763300	0.956200
C201	C20	0.891100	0.784200	0.040600
C211	C21	0.885200	0.708500	0.067800
C221	C22	0.907600	0.610300	0.008200
C231	C23	0.939300	0.590400	0.924000
C241	C24	0.858900	0.735500	0.160600
C251	C25	0.935600	0.667600	0.501600
C261	C26	0.875500	0.710300	0.438200
C271	C27	0.884000	0.670200	0.342400
C281	C28	0.830600	0.712600	0.286200
C291	C29	0.767000	0.790500	0.324000
C301	C30	0.757400	0.829800	0.418400
C311	C31	0.814400	0.790600	0.475600
C321	C32	0.688400	0.914100	0.458400
C331	C33	0.489400	0.165100	0.811200
C341	C34	0.447500	0.232000	0.899000
C351	C35	0.420800	0.192900	0.956200
C361	C36	0.391100	0.256400	0.040600
C371	C37	0.385200	0.359300	0.067800
C381	C38	0.407600	0.397900	0.008200
C391	C39	0.439300	0.333600	0.924000
C401	C40	0.358900	0.425100	0.160600
C411	C41	0.435600	0.834000	0.501600
C421	C42	0.375500	0.727900	0.438200
C431	C43	0.384000	0.672200	0.342400
C441	C44	0.330600	0.573600	0.286200
C451	C45	0.267000	0.533500	0.324000
C461	C46	0.257400	0.588600	0.418400
C471	C47	0.314400	0.685000	0.475600
C481	C48	0.188400	0.544300	0.458400
C491	C49	0.010600	0.353900	0.188800
C501	C50	0.052500	0.333000	0.101000
C511	C51	0.079200	0.236700	0.043800
C521	C52	0.108900	0.215800	0.959400
C531	C53	0.114800	0.291500	0.932200
C541	C54	0.092400	0.389700	0.991800
C551	C55	0.060700	0.409600	0.076000
C561	C56	0.141100	0.264500	0.839400
C571	C57	0.064400	0.332400	0.498400
C581	C58	0.124500	0.289700	0.561800
C591	C59	0.116000	0.329800	0.657600
C601	C60	0.169400	0.287400	0.713800
C611	C61	0.233000	0.209500	0.676000
C621	C62	0.242600	0.170200	0.581600
C631	C63	0.185600	0.209400	0.524400
C641	C64	0.311600	0.085900	0.541600
N11	N1	0.652300	0.480660	0.808320
N21	N2	0.847700	0.672340	0.191680
N31	N3	0.347700	0.519340	0.191680
N41	N4	0.152300	0.327660	0.808320
O11	O1	0.472200	0.795120	0.231240
O21	O2	0.515000	0.929300	0.214600
O31	O3	0.541400	0.132240	0.409080
O41	O4	0.538700	0.114910	0.537420
O51	O5	0.812500	0.403590	0.452980
O61	O6	0.866100	0.540490	0.597380
O71	O7	0.027800	0.563880	0.768760
O81	O8	0.985000	0.714700	0.785400
O91	O9	0.958600	0.723160	0.590920
O101	O10	0.961300	0.577490	0.462580
O111	O11	0.687500	0.950610	0.547020
O121	O12	0.633900	0.943110	0.402620
O131	O13	0.527800	0.204880	0.768760
O141	O14	0.485000	0.070700	0.785400
O151	O15	0.458600	0.867760	0.590920
O161	O16	0.461300	0.885090	0.462580
O171	O17	0.187500	0.596410	0.547020
O181	O18	0.133900	0.459510	0.402620
O191	O19	0.972200	0.436120	0.231240
O201	O20	0.015000	0.285300	0.214600
O211	O21	0.041400	0.276840	0.409080
O221	O22	0.038700	0.422510	0.537420
O231	O23	0.312500	0.049390	0.452980
O241	O24	0.366100	0.056890	0.597380
