data_GEDSAL_clean_PM
_symmetry_space_group_name_H-M	'P1'
_cell_length_a	12.827300
_cell_length_b	14.464900
_cell_length_c	16.033000
_cell_angle_alpha	116.814000
_cell_angle_beta	102.168000
_cell_angle_gamma	90.000000
_symmetry_Int_Tables_number 1

loop_
_symmetry_equiv_pos_as_xyz
'x,y,z'

loop_
_atom_site_label
_atom_site_type_symbol
_atom_site_fract_x
_atom_site_fract_y
_atom_site_fract_z
Nd11	Nd1	0.440840	0.466460	0.360570
Nd21	Nd2	0.059160	0.105890	0.639440
Nd31	Nd3	0.559160	0.533540	0.639430
Nd41	Nd4	0.940840	0.894110	0.360570
H11	H1	0.542100	0.139900	0.112200
H21	H2	0.601600	0.036600	0.975000
H31	H3	0.616000	0.283800	0.920600
H41	H4	0.571700	0.388400	0.066200
H51	H5	0.647000	0.131000	0.806000
H61	H6	0.573900	0.804700	0.684000
H71	H7	0.771500	0.040500	0.716600
H81	H8	0.688100	0.784200	0.462800
H91	H9	0.957900	0.027700	0.887800
H101	H10	0.898400	0.061600	0.025000
H111	H11	0.884000	0.363200	0.079400
H121	H12	0.928300	0.322200	0.933800
H131	H13	0.853000	0.325000	0.194000
H141	H14	0.926100	0.120700	0.316000
H151	H15	0.728500	0.323900	0.283400
H161	H16	0.811900	0.321400	0.537200
H171	H17	0.457900	0.860100	0.887800
H181	H18	0.398400	0.963400	0.025000
H191	H19	0.384000	0.716200	0.079400
H201	H20	0.428300	0.611600	0.933800
H211	H21	0.353000	0.869000	0.194000
H221	H22	0.426100	0.195300	0.316000
H231	H23	0.228500	0.959500	0.283400
H241	H24	0.311900	0.215800	0.537200
H251	H25	0.042100	0.972300	0.112200
H261	H26	0.101600	0.938400	0.975000
H271	H27	0.116000	0.636800	0.920600
H281	H28	0.071700	0.677800	0.066200
H291	H29	0.147000	0.675000	0.806000
H301	H30	0.073900	0.879300	0.684000
H311	H31	0.271500	0.676100	0.716600
H321	H32	0.188100	0.678600	0.462800
C11	C1	0.503400	0.339000	0.187600
C21	C2	0.547000	0.273200	0.100400
C31	C3	0.558200	0.168500	0.074200
C41	C4	0.593000	0.106100	0.991600
C51	C5	0.615300	0.150400	0.933200
C61	C6	0.603800	0.255300	0.959800
C71	C7	0.573800	0.317200	0.045600
C81	C8	0.643400	0.088500	0.841800
C91	C9	0.560900	0.672600	0.498600
C101	C10	0.621200	0.776900	0.562000
C111	C11	0.613300	0.833900	0.657600
C121	C12	0.665800	0.935600	0.712800
C131	C13	0.732700	0.975200	0.677600
C141	C14	0.742100	0.917000	0.583200
C151	C15	0.684400	0.820800	0.526800
C161	C16	0.815500	0.961600	0.544600
C171	C17	0.996600	0.151400	0.812400
C181	C18	0.953000	0.172800	0.899600
C191	C19	0.941800	0.094300	0.925800
C201	C20	0.907000	0.114500	0.008400
C211	C21	0.884700	0.217200	0.066800
C221	C22	0.896200	0.295500	0.040200
C231	C23	0.926200	0.271600	0.954400
C241	C24	0.856600	0.246700	0.158200
C251	C25	0.939100	0.174000	0.501400
C261	C26	0.878800	0.214900	0.438000
C271	C27	0.886700	0.176300	0.342400
C281	C28	0.834200	0.222800	0.287200
C291	C29	0.767300	0.297600	0.322400
C301	C30	0.757900	0.333800	0.416800
C311	C31	0.815600	0.294000	0.473200
C321	C32	0.684500	0.417000	0.455400
C331	C33	0.496600	0.661000	0.812400
C341	C34	0.453000	0.726800	0.899600
C351	C35	0.441800	0.831500	0.925800
C361	C36	0.407000	0.893900	0.008400
C371	C37	0.384700	0.849600	0.066800
C381	C38	0.396200	0.744700	0.040200
C391	C39	0.426200	0.682800	0.954400
C401	C40	0.356600	0.911500	0.158200
C411	C41	0.439100	0.327400	0.501400
C421	C42	0.378800	0.223100	0.438000
C431	C43	0.386700	0.166100	0.342400
C441	C44	0.334200	0.064400	0.287200
C451	C45	0.267300	0.024800	0.322400
C461	C46	0.257900	0.083000	0.416800
C471	C47	0.315600	0.179200	0.473200
C481	C48	0.184500	0.038400	0.455400
C491	C49	0.003400	0.848600	0.187600
C501	C50	0.047000	0.827200	0.100400
C511	C51	0.058200	0.905700	0.074200
C521	C52	0.093000	0.885500	0.991600
C531	C53	0.115300	0.782800	0.933200
C541	C54	0.103800	0.704500	0.959800
C551	C55	0.073800	0.728400	0.045600
C561	C56	0.143400	0.753300	0.841800
C571	C57	0.060900	0.826000	0.498600
C581	C58	0.121200	0.785100	0.562000
C591	C59	0.113300	0.823700	0.657600
C601	C60	0.165800	0.777200	0.712800
C611	C61	0.232700	0.702400	0.677600
C621	C62	0.242100	0.666200	0.583200
C631	C63	0.184400	0.706000	0.526800
C641	C64	0.315500	0.583000	0.544600
N11	N1	0.647800	0.990900	0.808000
N21	N2	0.852200	0.182900	0.192000
N31	N3	0.352200	0.009100	0.192000
N41	N4	0.147800	0.817100	0.808000
O11	O1	0.501200	0.433200	0.212200
O21	O2	0.472000	0.295380	0.231560
O31	O3	0.535100	0.639940	0.410680
O41	O4	0.536100	0.617700	0.537400
O51	O5	0.815100	0.905920	0.456840
O61	O6	0.871200	0.047100	0.601400
O71	O7	0.998800	0.221000	0.787800
O81	O8	0.028000	0.063820	0.768440
O91	O9	0.964900	0.229260	0.589320
O101	O10	0.963900	0.080300	0.462600
O111	O11	0.684900	0.449080	0.543160
O121	O12	0.628800	0.445700	0.398600
O131	O13	0.498800	0.566800	0.787800
O141	O14	0.528000	0.704620	0.768440
O151	O15	0.464900	0.360060	0.589320
O161	O16	0.463900	0.382300	0.462600
O171	O17	0.184900	0.094080	0.543160
O181	O18	0.128800	0.952900	0.398600
O191	O19	0.001200	0.779000	0.212200
O201	O20	0.972000	0.936180	0.231560
O211	O21	0.035100	0.770740	0.410680
O221	O22	0.036100	0.919700	0.537400
O231	O23	0.315100	0.550920	0.456840
O241	O24	0.371200	0.554300	0.601400
