data_GEFFUT_clean_PM
_symmetry_space_group_name_H-M	'P1'
_cell_length_a	15.286100
_cell_length_b	17.509600
_cell_length_c	19.003300
_cell_angle_alpha	62.567700
_cell_angle_beta	86.268500
_cell_angle_gamma	81.878900
_symmetry_Int_Tables_number 1

loop_
_symmetry_equiv_pos_as_xyz
'x,y,z'

loop_
_atom_site_label
_atom_site_type_symbol
_atom_site_fract_x
_atom_site_fract_y
_atom_site_fract_z
Co11	Co1	0.499180	0.342830	0.272500
Co21	Co2	0.218290	0.310060	0.708240
Co31	Co3	0.610930	0.192740	0.764680
Co41	Co4	0.999180	0.615330	0.727500
Co51	Co5	0.718290	0.018300	0.291760
Co61	Co6	0.110930	0.957420	0.235320
H11	H1	0.059200	0.473600	0.441000
H21	H2	0.299300	0.333200	0.467400
H31	H3	0.201800	0.496100	0.248800
H41	H4	0.509700	0.347400	0.467800
H51	H5	0.540100	0.396400	0.557200
H61	H6	0.609600	0.518800	0.516400
H71	H7	0.650800	0.596700	0.384800
H81	H8	0.510700	0.362600	0.064000
H91	H9	0.530700	0.427800	0.928400
H101	H10	0.587700	0.558700	0.863600
H111	H11	0.622300	0.629900	0.931800
H121	H12	0.292800	0.337100	0.175200
H131	H13	0.199000	0.278400	0.127400
H141	H14	0.244800	0.154400	0.114000
H151	H15	0.386500	0.079700	0.153800
H161	H16	0.691700	0.303000	0.405400
H171	H17	0.825800	0.238100	0.467000
H181	H18	0.901700	0.120600	0.455800
H191	H19	0.843800	0.062600	0.384600
H201	H20	0.233400	0.328800	0.860200
H211	H21	0.285600	0.332700	0.969000
H221	H22	0.433000	0.284600	0.006600
H231	H23	0.536000	0.244100	0.930200
H241	H24	0.372900	0.163300	0.513400
H251	H25	0.489000	0.101200	0.466000
H261	H26	0.630300	0.082200	0.508800
H271	H27	0.662300	0.125300	0.601200
H281	H28	0.715300	0.984100	0.770400
H291	H29	0.814300	0.894300	0.731800
H301	H30	0.935300	0.944200	0.656200
H311	H31	0.970200	0.085600	0.615400
H321	H32	0.525000	0.420000	0.740200
H331	H33	0.527200	0.562300	0.705200
H341	H34	0.649000	0.632300	0.642800
H351	H35	0.768500	0.561000	0.610200
H361	H36	0.156700	0.111800	0.962600
H371	H37	0.169600	0.009900	0.809400
H381	H38	0.141200	0.857300	0.042600
H391	H39	0.624300	0.609400	0.090600
H401	H40	0.641900	0.592900	0.236600
H411	H41	0.538700	0.088800	0.224000
H421	H42	0.338800	0.229100	0.625600
H431	H43	0.830600	0.391800	0.626600
H441	H44	0.892800	0.240000	0.622200
H451	H45	0.559200	0.914600	0.559000
H461	H46	0.799300	0.800600	0.532600
H471	H47	0.701800	0.744900	0.751200
H481	H48	0.009700	0.815200	0.532200
H491	H49	0.040100	0.953600	0.442800
H501	H50	0.109600	0.035200	0.483600
H511	H51	0.150800	0.981500	0.615200
H521	H52	0.010700	0.426600	0.936000
H531	H53	0.030700	0.356200	0.071600
H541	H54	0.087700	0.422300	0.136400
H551	H55	0.122300	0.561700	0.068200
H561	H56	0.792800	0.512300	0.824800
H571	H57	0.699000	0.405800	0.872600
H581	H58	0.744800	0.268400	0.886000
H591	H59	0.886500	0.233500	0.846200
H601	H60	0.191700	0.708400	0.594600
H611	H61	0.325800	0.705100	0.533000
H621	H62	0.401700	0.576400	0.544200
H631	H63	0.343800	0.447200	0.615400
H641	H64	0.733400	0.189000	0.139800
H651	H65	0.785600	0.301700	0.031000
H661	H66	0.933000	0.291200	0.993400
H671	H67	0.036000	0.174300	0.069800
H681	H68	0.872900	0.676700	0.486600
H691	H69	0.989000	0.567200	0.534000
H701	H70	0.130300	0.591000	0.491200
H711	H71	0.162300	0.726500	0.398800
H721	H72	0.215300	0.754500	0.229600
H731	H73	0.314300	0.626100	0.268200
H741	H74	0.435300	0.600400	0.343800
H751	H75	0.470200	0.701000	0.384600
H761	H76	0.025000	0.160200	0.259800
H771	H77	0.027200	0.267500	0.294800
H781	H78	0.149000	0.275100	0.357200
H791	H79	0.268500	0.171200	0.389800
H801	H80	0.656700	0.074400	0.037400
H811	H81	0.669600	0.819300	0.190600
H821	H82	0.641200	0.899900	0.957400
H831	H83	0.124300	0.700000	0.909400
H841	H84	0.141900	0.829500	0.763400
H851	H85	0.038700	0.312800	0.776000
H861	H86	0.838800	0.854700	0.374400
H871	H87	0.330600	0.018400	0.373400
H881	H88	0.392800	0.862200	0.377800
C11	C1	0.051400	0.563300	0.284400
C21	C2	0.120600	0.495000	0.336800
C31	C3	0.110600	0.458300	0.419000
C41	C4	0.178400	0.398200	0.468200
C51	C5	0.169400	0.363100	0.555600
C61	C6	0.254700	0.373600	0.434600
C71	C7	0.264200	0.409400	0.352000
C81	C8	0.346800	0.381700	0.318600
C91	C9	0.196000	0.471200	0.303600
C101	C10	0.560700	0.444200	0.372200
C111	C11	0.537100	0.397000	0.451200
C121	C12	0.555800	0.426400	0.504200
C131	C13	0.598000	0.500600	0.479400
C141	C14	0.622800	0.547400	0.401000
C151	C15	0.604200	0.517900	0.347200
C161	C16	0.554700	0.457500	0.081400
C171	C17	0.532900	0.415600	0.038400
C181	C18	0.545300	0.454700	0.957600
C191	C19	0.579300	0.534400	0.918200
C201	C20	0.600500	0.576700	0.958200
C211	C21	0.588200	0.537400	0.040600
C221	C22	0.582700	0.494900	0.246200
C231	C23	0.581000	0.498900	0.167800
C241	C24	0.396800	0.238700	0.199000
C251	C25	0.310900	0.285500	0.172600
C261	C26	0.256000	0.250600	0.142800
C271	C27	0.283500	0.174900	0.135200
C281	C28	0.367600	0.129800	0.159000
C291	C29	0.422800	0.164000	0.191800
C301	C30	0.686100	0.223600	0.354400
C311	C31	0.721700	0.255800	0.400200
C321	C32	0.801600	0.216600	0.437000
C331	C33	0.847400	0.145300	0.430600
C341	C34	0.813900	0.110800	0.388000
C351	C35	0.731400	0.152000	0.349000
C361	C36	0.528700	0.191100	0.246600
C371	C37	0.605800	0.185800	0.287000
C381	C38	0.353800	0.287800	0.825800
C391	C39	0.293000	0.313100	0.873400
C401	C40	0.323900	0.313900	0.938400
C411	C41	0.414500	0.286100	0.960200
C421	C42	0.476700	0.260800	0.915800
C431	C43	0.443500	0.262400	0.846200
C441	C44	0.448000	0.177500	0.589600
C451	C45	0.430100	0.154600	0.532000
C461	C46	0.499600	0.118600	0.503800
C471	C47	0.584900	0.107300	0.529400
C481	C48	0.604500	0.132300	0.584600
C491	C49	0.534200	0.168700	0.614800
C501	C50	0.421300	0.249600	0.741600
C511	C51	0.448400	0.222100	0.680000
C521	C52	0.783600	0.088800	0.712000
C531	C53	0.764500	0.004100	0.739200
C541	C54	0.824400	0.951000	0.716200
C551	C55	0.898000	0.981500	0.670600
C561	C56	0.919700	0.066400	0.644800
C571	C57	0.859400	0.118700	0.667000
C581	C58	0.646800	0.400800	0.697200
C591	C59	0.574100	0.447100	0.714600
C601	C60	0.575800	0.531400	0.694000
C611	C61	0.650000	0.574200	0.655400
C621	C62	0.720300	0.533000	0.636600
C631	C63	0.717900	0.445400	0.658800
C641	C64	0.780700	0.225300	0.682400
C651	C65	0.742600	0.309500	0.679600
C661	C66	0.136300	0.970000	0.099000
C671	C67	0.146600	0.981600	0.014800
C681	C68	0.156100	0.064500	0.952800
C691	C69	0.164600	0.073700	0.876200
C701	C70	0.179800	0.158800	0.803400
C711	C71	0.164300	0.002300	0.861200
C721	C72	0.156300	0.920400	0.923200
C731	C73	0.159400	0.845800	0.904000
C741	C74	0.147100	0.911500	0.000400
C751	C75	0.551400	0.847700	0.715600
C761	C76	0.620600	0.831800	0.663200
C771	C77	0.610600	0.877300	0.581000
C781	C78	0.678400	0.866400	0.531800
C791	C79	0.669400	0.918700	0.444400
C801	C80	0.754700	0.808200	0.565400
C811	C81	0.764200	0.761400	0.648000
C821	C82	0.846800	0.700300	0.681400
C831	C83	0.696000	0.774800	0.696400
C841	C84	0.060700	0.816400	0.627800
C851	C85	0.037100	0.848200	0.548800
C861	C86	0.055800	0.930600	0.495800
C871	C87	0.098000	0.980000	0.520600
C881	C88	0.122800	0.948400	0.599000
C891	C89	0.104200	0.865100	0.652800
C901	C90	0.054700	0.538900	0.918600
C911	C91	0.032900	0.454000	0.961600
C921	C92	0.045300	0.412300	0.042400
C931	C93	0.079300	0.452600	0.081800
C941	C94	0.100500	0.534900	0.041800
C951	C95	0.088200	0.578000	0.959400
C961	C96	0.082700	0.741100	0.753800
C971	C97	0.081000	0.666700	0.832200
C981	C98	0.896800	0.437700	0.801000
C991	C99	0.810900	0.458100	0.827400
C1001	C100	0.756000	0.393400	0.857200
C1011	C101	0.783500	0.310100	0.864800
C1021	C102	0.867600	0.288800	0.841000
C1031	C103	0.922800	0.355800	0.808200
C1041	C104	0.186100	0.578000	0.645600
C1051	C105	0.221700	0.656000	0.599800
C1061	C106	0.301600	0.653600	0.563000
C1071	C107	0.347400	0.575900	0.569400
C1081	C108	0.313900	0.498800	0.612000
C1091	C109	0.231400	0.501000	0.651000
C1101	C110	0.028700	0.437700	0.753400
C1111	C111	0.105800	0.472800	0.713000
C1121	C112	0.853800	0.113600	0.174200
C1131	C113	0.793000	0.186500	0.126600
C1141	C114	0.823900	0.252300	0.061600
C1151	C115	0.914500	0.246300	0.039800
C1161	C116	0.976700	0.176600	0.084200
C1171	C117	0.943500	0.108600	0.153800
C1181	C118	0.948000	0.767100	0.410400
C1191	C119	0.930100	0.686600	0.468000
C1201	C120	0.999600	0.622400	0.496200
C1211	C121	0.084900	0.636700	0.470600
C1221	C122	0.104500	0.716900	0.415400
C1231	C123	0.034200	0.783500	0.385200
C1241	C124	0.921300	0.991200	0.258400
C1251	C125	0.948400	0.902100	0.320000
C1261	C126	0.283600	0.800800	0.288000
C1271	C127	0.264500	0.743300	0.260800
C1281	C128	0.324400	0.667200	0.283800
C1291	C129	0.398000	0.652100	0.329400
C1301	C130	0.419700	0.711200	0.355200
C1311	C131	0.359400	0.785700	0.333000
C1321	C132	0.146800	0.098000	0.302800
C1331	C133	0.074100	0.161700	0.285400
C1341	C134	0.075800	0.225400	0.306000
C1351	C135	0.150000	0.229600	0.344600
C1361	C136	0.220300	0.169600	0.363400
C1371	C137	0.217900	0.104200	0.341200
C1381	C138	0.280700	0.907700	0.317600
C1391	C139	0.242600	0.989100	0.320400
C1401	C140	0.636300	0.069000	0.901000
C1411	C141	0.646600	0.996400	0.985200
C1421	C142	0.656100	0.017300	0.047200
C1431	C143	0.664600	0.949900	0.123800
C1441	C144	0.679800	0.962200	0.196600
C1451	C145	0.664300	0.863500	0.138800
C1461	C146	0.656300	0.843600	0.076800
C1471	C147	0.659400	0.749800	0.096000
C1481	C148	0.647100	0.911900	0.999600
N11	N1	0.547600	0.430700	0.306400
N21	N2	0.549500	0.435500	0.162400
N31	N3	0.604100	0.562800	0.098200
N41	N4	0.616800	0.548100	0.267600
N51	N5	0.463000	0.254400	0.234200
N61	N6	0.606500	0.245100	0.314200
N71	N7	0.680400	0.126200	0.306600
N81	N8	0.506300	0.134300	0.221400
N91	N9	0.340300	0.279600	0.758000
N101	N10	0.395000	0.214200	0.630600
N111	N11	0.531400	0.197200	0.674000
N121	N12	0.486600	0.238800	0.792000
N131	N13	0.734600	0.158300	0.722000
N141	N14	0.664200	0.315400	0.709400
N151	N15	0.779500	0.383700	0.648400
N161	N16	0.854900	0.205300	0.649400
N171	N17	0.047600	0.737100	0.693600
N181	N18	0.049500	0.597900	0.837600
N191	N19	0.104100	0.661000	0.901800
N201	N20	0.116800	0.815700	0.732400
N211	N21	0.963000	0.488600	0.765800
N221	N22	0.106500	0.559300	0.685800
N231	N23	0.180400	0.432800	0.693400
N241	N24	0.006300	0.355700	0.778600
N251	N25	0.840300	0.037600	0.242000
N261	N26	0.895000	0.844800	0.369400
N271	N27	0.031400	0.871200	0.326000
N281	N28	0.986600	0.030800	0.208000
N291	N29	0.234600	0.880300	0.278000
N301	N30	0.164200	0.024800	0.290600
N311	N31	0.279500	0.032100	0.351600
N321	N32	0.354900	0.854700	0.350600
O11	O1	0.063900	0.607600	0.210400
O21	O2	0.979300	0.582000	0.315200
O31	O3	0.240200	0.328900	0.597000
O41	O4	0.096300	0.369000	0.587800
O51	O5	0.399500	0.318100	0.363000
O61	O6	0.364900	0.424410	0.245780
O71	O7	0.155500	0.027700	0.114400
O81	O8	0.105400	0.903500	0.151600
O91	O9	0.139800	0.773800	0.957000
O101	O10	0.181300	0.859200	0.834200
O111	O11	0.150400	0.228800	0.807200
O121	O12	0.221300	0.160100	0.744600
O131	O13	0.563900	0.818000	0.789600
O141	O14	0.479300	0.897200	0.684800
O151	O15	0.740200	0.925900	0.403000
O161	O16	0.596300	0.956800	0.412200
O171	O17	0.899500	0.681100	0.637000
O181	O18	0.864900	0.670190	0.754220
O191	O19	0.655500	0.142100	0.885600
O201	O20	0.605400	0.055100	0.848400
O211	O21	0.639800	0.730800	0.043000
O221	O22	0.681300	0.693400	0.165800
O231	O23	0.650400	0.036000	0.192800
O241	O24	0.721300	0.904700	0.255400
