data_GEGGIK_clean_PM
_symmetry_space_group_name_H-M	'P1'
_cell_length_a	13.567400
_cell_length_b	10.794200
_cell_length_c	14.683700
_cell_angle_alpha	90.000000
_cell_angle_beta	110.638000
_cell_angle_gamma	90.000000
_symmetry_Int_Tables_number 1

loop_
_symmetry_equiv_pos_as_xyz
'x,y,z'

loop_
_atom_site_label
_atom_site_type_symbol
_atom_site_fract_x
_atom_site_fract_y
_atom_site_fract_z
Co11	Co1	0.409870	0.902800	0.461420
Co21	Co2	0.504020	0.010280	0.292220
O11	O1	0.302720	0.030920	0.372250
O21	O2	0.389010	0.135890	0.291790
O31	O3	0.385020	0.404080	0.239170
O41	O4	0.311600	0.284090	0.108820
O51	O5	0.621150	0.146490	0.341460
O61	O6	0.715140	0.152910	0.501270
O71	O7	0.633510	0.277000	0.154250
O81	O8	0.629340	0.395550	0.278590
O91	O9	0.538690	0.958770	0.432110
C11	C1	0.311960	0.117030	0.319350
C21	C2	0.223610	0.209680	0.285260
C31	C3	0.139040	0.195680	0.317580
H11	H1	0.139300	0.129700	0.358400
C41	C4	0.054510	0.277320	0.290570
C51	C5	0.056770	0.375670	0.229360
H21	H2	0.001300	0.432000	0.210200
C61	C6	0.140360	0.390520	0.196820
H31	H3	0.140100	0.456700	0.156200
C71	C7	0.224790	0.308000	0.224020
C81	C8	0.315080	0.331770	0.187690
C91	C9	0.965680	0.258560	0.326270
C101	C10	0.982460	0.202960	0.416560
H41	H4	0.050600	0.182200	0.456300
C111	C11	0.898990	0.178340	0.447640
H51	H5	0.911500	0.141100	0.507800
C121	C12	0.796640	0.209150	0.389140
C131	C13	0.779440	0.270470	0.301190
C141	C14	0.862730	0.293380	0.269350
H61	H6	0.850100	0.332200	0.209700
C151	C15	0.671240	0.316380	0.240220
C161	C16	0.703320	0.166150	0.413280
Co31	Co3	0.590120	0.402800	0.038580
Co41	Co4	0.495980	0.510280	0.207780
O101	O10	0.697280	0.530920	0.127750
O111	O11	0.610990	0.635890	0.208210
O121	O12	0.614980	0.904080	0.260830
O131	O13	0.688400	0.784090	0.391180
O141	O14	0.378850	0.646490	0.158540
O151	O15	0.284860	0.652910	0.998730
O161	O16	0.366490	0.777000	0.345750
O171	O17	0.370660	0.895550	0.221410
O181	O18	0.461310	0.458770	0.067890
C171	C17	0.688040	0.617030	0.180650
C181	C18	0.776390	0.709680	0.214740
C191	C19	0.860960	0.695680	0.182420
H71	H7	0.860700	0.629700	0.141600
C201	C20	0.945490	0.777320	0.209430
C211	C21	0.943230	0.875670	0.270640
H81	H8	0.998700	0.932000	0.289800
C221	C22	0.859640	0.890520	0.303180
H91	H9	0.859900	0.956700	0.343800
C231	C23	0.775210	0.808000	0.275980
C241	C24	0.684920	0.831770	0.312310
C251	C25	0.034320	0.758560	0.173730
C261	C26	0.017540	0.702960	0.083440
H101	H10	0.949400	0.682200	0.043700
C271	C27	0.101010	0.678340	0.052360
H111	H11	0.088500	0.641100	0.992200
C281	C28	0.203360	0.709150	0.110860
C291	C29	0.220560	0.770470	0.198810
C301	C30	0.137270	0.793380	0.230650
H121	H12	0.149900	0.832200	0.290300
C311	C31	0.328760	0.816380	0.259780
C321	C32	0.296680	0.666150	0.086720
Co51	Co5	0.590120	0.097200	0.538580
Co61	Co6	0.495980	0.989720	0.707780
O191	O19	0.697280	0.969080	0.627750
O201	O20	0.610990	0.864110	0.708210
O211	O21	0.614980	0.595920	0.760830
O221	O22	0.688400	0.715910	0.891180
O231	O23	0.378850	0.853510	0.658540
O241	O24	0.284860	0.847090	0.498730
O251	O25	0.366490	0.723000	0.845750
O261	O26	0.370660	0.604450	0.721410
O271	O27	0.461310	0.041230	0.567890
C331	C33	0.688040	0.882970	0.680650
C341	C34	0.776390	0.790320	0.714740
C351	C35	0.860960	0.804320	0.682420
H131	H13	0.860700	0.870300	0.641600
C361	C36	0.945490	0.722680	0.709430
C371	C37	0.943230	0.624330	0.770640
H141	H14	0.998700	0.568000	0.789800
C381	C38	0.859640	0.609480	0.803180
H151	H15	0.859900	0.543300	0.843800
C391	C39	0.775210	0.692000	0.775980
C401	C40	0.684920	0.668230	0.812310
C411	C41	0.034320	0.741440	0.673730
C421	C42	0.017540	0.797040	0.583440
H161	H16	0.949400	0.817800	0.543700
C431	C43	0.101010	0.821660	0.552360
H171	H17	0.088500	0.858900	0.492200
C441	C44	0.203360	0.790850	0.610860
C451	C45	0.220560	0.729530	0.698810
C461	C46	0.137270	0.706620	0.730650
H181	H18	0.149900	0.667800	0.790300
C471	C47	0.328760	0.683620	0.759780
C481	C48	0.296680	0.833850	0.586720
Co71	Co7	0.409870	0.597200	0.961420
Co81	Co8	0.504020	0.489720	0.792220
O281	O28	0.302720	0.469080	0.872250
O291	O29	0.389010	0.364110	0.791790
O301	O30	0.385020	0.095920	0.739170
O311	O31	0.311600	0.215910	0.608820
O321	O32	0.621150	0.353510	0.841460
O331	O33	0.715140	0.347090	0.001270
O341	O34	0.633510	0.223000	0.654250
O351	O35	0.629340	0.104450	0.778590
O361	O36	0.538690	0.541230	0.932110
C491	C49	0.311960	0.382970	0.819350
C501	C50	0.223610	0.290320	0.785260
C511	C51	0.139040	0.304320	0.817580
H191	H19	0.139300	0.370300	0.858400
C521	C52	0.054510	0.222680	0.790570
C531	C53	0.056770	0.124330	0.729360
H201	H20	0.001300	0.068000	0.710200
C541	C54	0.140360	0.109480	0.696820
H211	H21	0.140100	0.043300	0.656200
C551	C55	0.224790	0.192000	0.724020
C561	C56	0.315080	0.168230	0.687690
C571	C57	0.965680	0.241440	0.826270
C581	C58	0.982460	0.297040	0.916560
H221	H22	0.050600	0.317800	0.956300
C591	C59	0.898990	0.321660	0.947640
H231	H23	0.911500	0.358900	0.007800
C601	C60	0.796640	0.290850	0.889140
C611	C61	0.779440	0.229530	0.801190
C621	C62	0.862730	0.206620	0.769350
H241	H24	0.850100	0.167800	0.709700
C631	C63	0.671240	0.183620	0.740220
C641	C64	0.703320	0.333850	0.913280
