data_GEGGUW_clean_PM
_symmetry_space_group_name_H-M	'P1'
_cell_length_a	13.518600
_cell_length_b	10.768500
_cell_length_c	14.632300
_cell_angle_alpha	90.000000
_cell_angle_beta	110.630000
_cell_angle_gamma	90.000000
_symmetry_Int_Tables_number 1

loop_
_symmetry_equiv_pos_as_xyz
'x,y,z'

loop_
_atom_site_label
_atom_site_type_symbol
_atom_site_fract_x
_atom_site_fract_y
_atom_site_fract_z
Co11	Co1	0.410530	0.904090	0.461760
Co21	Co2	0.503880	0.010660	0.292200
O11	O1	0.304720	0.031220	0.373560
O21	O2	0.390110	0.135330	0.290920
O31	O3	0.386270	0.404250	0.238720
O41	O4	0.312810	0.284400	0.107900
O51	O5	0.620020	0.146120	0.340430
O61	O6	0.713940	0.152180	0.501230
O71	O7	0.633830	0.277440	0.153120
O81	O8	0.628120	0.395820	0.277760
O91	O9	0.537930	0.959950	0.431240
C11	C1	0.313600	0.117200	0.319660
C21	C2	0.224300	0.209200	0.285200
C31	C3	0.139900	0.195600	0.317700
H11	H1	0.140300	0.129700	0.358900
C41	C4	0.055000	0.277200	0.290600
C51	C5	0.057300	0.375700	0.229000
H21	H2	0.001800	0.432300	0.209700
C61	C6	0.140800	0.389900	0.196400
H31	H3	0.140300	0.455900	0.155300
C71	C7	0.225800	0.308000	0.223700
C81	C8	0.316000	0.331700	0.187000
C91	C9	0.966100	0.258300	0.326000
C101	C10	0.982100	0.202500	0.416600
H41	H4	0.050300	0.181600	0.456800
C111	C11	0.898400	0.178000	0.447400
H51	H5	0.910900	0.140500	0.507700
C121	C12	0.795800	0.209000	0.388870
C131	C13	0.778800	0.270200	0.300590
C141	C14	0.862900	0.293000	0.269400
H61	H6	0.850400	0.332200	0.209700
C151	C15	0.702400	0.165500	0.412950
C161	C16	0.670700	0.316600	0.239100
Ni11	Ni1	0.589470	0.095910	0.538240
Ni21	Ni2	0.496120	0.510660	0.207800
Co31	Co3	0.589470	0.404090	0.038240
O101	O10	0.695280	0.531220	0.126440
O111	O11	0.609890	0.635330	0.209080
O121	O12	0.613730	0.904250	0.261280
O131	O13	0.687190	0.784400	0.392100
O141	O14	0.379980	0.646120	0.159570
O151	O15	0.286060	0.652180	0.998770
O161	O16	0.366170	0.777440	0.346880
O171	O17	0.371880	0.895820	0.222240
O181	O18	0.462070	0.459950	0.068760
C171	C17	0.686400	0.617200	0.180340
C181	C18	0.775700	0.709200	0.214800
C191	C19	0.860100	0.695600	0.182300
H71	H7	0.859700	0.629700	0.141100
C201	C20	0.945000	0.777200	0.209400
C211	C21	0.942700	0.875700	0.271000
H81	H8	0.998200	0.932300	0.290300
C221	C22	0.859200	0.889900	0.303600
H91	H9	0.859700	0.955900	0.344700
C231	C23	0.774200	0.808000	0.276300
C241	C24	0.684000	0.831700	0.313000
C251	C25	0.033900	0.758300	0.174000
C261	C26	0.017900	0.702500	0.083400
H101	H10	0.949700	0.681600	0.043200
C271	C27	0.101600	0.678000	0.052600
H111	H11	0.089100	0.640500	0.992300
C281	C28	0.204200	0.709000	0.111130
C291	C29	0.221200	0.770200	0.199410
C301	C30	0.137100	0.793000	0.230600
H121	H12	0.149600	0.832200	0.290300
C311	C31	0.297600	0.665500	0.087050
C321	C32	0.329300	0.816600	0.260900
Ni31	Ni3	0.410530	0.595910	0.961760
Co41	Co4	0.496120	0.989340	0.707800
O191	O19	0.695280	0.968780	0.626440
O201	O20	0.609890	0.864670	0.709080
O211	O21	0.613730	0.595750	0.761280
O221	O22	0.687190	0.715600	0.892100
O231	O23	0.379980	0.853880	0.659570
O241	O24	0.286060	0.847820	0.498770
O251	O25	0.366170	0.722560	0.846880
O261	O26	0.371880	0.604180	0.722240
O271	O27	0.462070	0.040050	0.568760
C331	C33	0.686400	0.882800	0.680340
C341	C34	0.775700	0.790800	0.714800
C351	C35	0.860100	0.804400	0.682300
H131	H13	0.859700	0.870300	0.641100
C361	C36	0.945000	0.722800	0.709400
C371	C37	0.942700	0.624300	0.771000
H141	H14	0.998200	0.567700	0.790300
C381	C38	0.859200	0.610100	0.803600
H151	H15	0.859700	0.544100	0.844700
C391	C39	0.774200	0.692000	0.776300
C401	C40	0.684000	0.668300	0.813000
C411	C41	0.033900	0.741700	0.674000
C421	C42	0.017900	0.797500	0.583400
H161	H16	0.949700	0.818400	0.543200
C431	C43	0.101600	0.822000	0.552600
H171	H17	0.089100	0.859500	0.492300
C441	C44	0.204200	0.791000	0.611130
C451	C45	0.221200	0.729800	0.699410
C461	C46	0.137100	0.707000	0.730600
H181	H18	0.149600	0.667800	0.790300
C471	C47	0.297600	0.834500	0.587050
C481	C48	0.329300	0.683400	0.760900
Ni41	Ni4	0.503880	0.489340	0.792200
O281	O28	0.304720	0.468780	0.873560
O291	O29	0.390110	0.364670	0.790920
O301	O30	0.386270	0.095750	0.738720
O311	O31	0.312810	0.215600	0.607900
O321	O32	0.620020	0.353880	0.840430
O331	O33	0.713940	0.347820	0.001230
O341	O34	0.633830	0.222560	0.653120
O351	O35	0.628120	0.104180	0.777760
O361	O36	0.537930	0.540050	0.931240
C491	C49	0.313600	0.382800	0.819660
C501	C50	0.224300	0.290800	0.785200
C511	C51	0.139900	0.304400	0.817700
H191	H19	0.140300	0.370300	0.858900
C521	C52	0.055000	0.222800	0.790600
C531	C53	0.057300	0.124300	0.729000
H201	H20	0.001800	0.067700	0.709700
C541	C54	0.140800	0.110100	0.696400
H211	H21	0.140300	0.044100	0.655300
C551	C55	0.225800	0.192000	0.723700
C561	C56	0.316000	0.168300	0.687000
C571	C57	0.966100	0.241700	0.826000
C581	C58	0.982100	0.297500	0.916600
H221	H22	0.050300	0.318400	0.956800
C591	C59	0.898400	0.322000	0.947400
H231	H23	0.910900	0.359500	0.007700
C601	C60	0.795800	0.291000	0.888870
C611	C61	0.778800	0.229800	0.800590
C621	C62	0.862900	0.207000	0.769400
H241	H24	0.850400	0.167800	0.709700
C631	C63	0.702400	0.334500	0.912950
C641	C64	0.670700	0.183400	0.739100
