data_GEGHAD_clean_PM
_symmetry_space_group_name_H-M	'P1'
_cell_length_a	13.520400
_cell_length_b	10.763900
_cell_length_c	14.634800
_cell_angle_alpha	90.000000
_cell_angle_beta	110.532000
_cell_angle_gamma	90.000000
_symmetry_Int_Tables_number 1

loop_
_symmetry_equiv_pos_as_xyz
'x,y,z'

loop_
_atom_site_label
_atom_site_type_symbol
_atom_site_fract_x
_atom_site_fract_y
_atom_site_fract_z
Ni11	Ni1	0.410600	0.905240	0.461820
Ni21	Ni2	0.503460	0.011810	0.291970
O11	O1	0.305760	0.032600	0.375200
O21	O2	0.390790	0.136400	0.291500
O31	O3	0.386860	0.405600	0.239220
O41	O4	0.313700	0.285000	0.108460
O51	O5	0.619290	0.146800	0.339590
O61	O6	0.712880	0.151300	0.500440
O71	O7	0.634740	0.278600	0.152720
O81	O8	0.627870	0.397000	0.277290
O91	O9	0.536930	0.960860	0.430510
C11	C1	0.313700	0.118400	0.320200
C21	C2	0.225600	0.210300	0.286200
C31	C3	0.140700	0.196300	0.318600
H11	H1	0.141200	0.130700	0.360100
C41	C4	0.055300	0.277500	0.290700
C51	C5	0.057800	0.376000	0.229400
H21	H2	0.002300	0.432600	0.210300
C61	C6	0.141500	0.390500	0.196800
H31	H3	0.141000	0.456500	0.155600
C71	C7	0.226300	0.308600	0.224300
C81	C8	0.317000	0.332800	0.187600
C91	C9	0.965400	0.259000	0.326200
C101	C10	0.981800	0.203000	0.416800
H41	H4	0.049900	0.182500	0.457100
C111	C11	0.897500	0.177900	0.447000
H51	H5	0.909600	0.140000	0.507000
C121	C12	0.795600	0.208600	0.388700
C131	C13	0.778600	0.271200	0.300600
C141	C14	0.863000	0.294300	0.269600
H61	H6	0.851000	0.334000	0.210200
C151	C15	0.701600	0.165100	0.411800
C161	C16	0.670700	0.317600	0.238900
Ni31	Ni3	0.589400	0.405240	0.038180
Ni41	Ni4	0.496540	0.511810	0.208030
O101	O10	0.694240	0.532600	0.124800
O111	O11	0.609210	0.636400	0.208500
O121	O12	0.613140	0.905600	0.260780
O131	O13	0.686300	0.785000	0.391540
O141	O14	0.380710	0.646800	0.160410
O151	O15	0.287120	0.651300	0.999560
O161	O16	0.365260	0.778600	0.347280
O171	O17	0.372130	0.897000	0.222710
O181	O18	0.463070	0.460860	0.069490
C171	C17	0.686300	0.618400	0.179800
C181	C18	0.774400	0.710300	0.213800
C191	C19	0.859300	0.696300	0.181400
H71	H7	0.858800	0.630700	0.139900
C201	C20	0.944700	0.777500	0.209300
C211	C21	0.942200	0.876000	0.270600
H81	H8	0.997700	0.932600	0.289700
C221	C22	0.858500	0.890500	0.303200
H91	H9	0.859000	0.956500	0.344400
C231	C23	0.773700	0.808600	0.275700
C241	C24	0.683000	0.832800	0.312400
C251	C25	0.034600	0.759000	0.173800
C261	C26	0.018200	0.703000	0.083200
H101	H10	0.950100	0.682500	0.042900
C271	C27	0.102500	0.677900	0.053000
H111	H11	0.090400	0.640000	0.993000
C281	C28	0.204400	0.708600	0.111300
C291	C29	0.221400	0.771200	0.199400
C301	C30	0.137000	0.794300	0.230400
H121	H12	0.149000	0.834000	0.289800
C311	C31	0.298400	0.665100	0.088200
C321	C32	0.329300	0.817600	0.261100
Ni51	Ni5	0.589400	0.094760	0.538180
Ni61	Ni6	0.496540	0.988190	0.708030
O191	O19	0.694240	0.967400	0.624800
O201	O20	0.609210	0.863600	0.708500
O211	O21	0.613140	0.594400	0.760780
O221	O22	0.686300	0.715000	0.891540
O231	O23	0.380710	0.853200	0.660410
O241	O24	0.287120	0.848700	0.499560
O251	O25	0.365260	0.721400	0.847280
O261	O26	0.372130	0.603000	0.722710
O271	O27	0.463070	0.039140	0.569490
C331	C33	0.686300	0.881600	0.679800
C341	C34	0.774400	0.789700	0.713800
C351	C35	0.859300	0.803700	0.681400
H131	H13	0.858800	0.869300	0.639900
C361	C36	0.944700	0.722500	0.709300
C371	C37	0.942200	0.624000	0.770600
H141	H14	0.997700	0.567400	0.789700
C381	C38	0.858500	0.609500	0.803200
H151	H15	0.859000	0.543500	0.844400
C391	C39	0.773700	0.691400	0.775700
C401	C40	0.683000	0.667200	0.812400
C411	C41	0.034600	0.741000	0.673800
C421	C42	0.018200	0.797000	0.583200
H161	H16	0.950100	0.817500	0.542900
C431	C43	0.102500	0.822100	0.553000
H171	H17	0.090400	0.860000	0.493000
C441	C44	0.204400	0.791400	0.611300
C451	C45	0.221400	0.728800	0.699400
C461	C46	0.137000	0.705700	0.730400
H181	H18	0.149000	0.666000	0.789800
C471	C47	0.298400	0.834900	0.588200
C481	C48	0.329300	0.682400	0.761100
Ni71	Ni7	0.410600	0.594760	0.961820
Ni81	Ni8	0.503460	0.488190	0.791970
O281	O28	0.305760	0.467400	0.875200
O291	O29	0.390790	0.363600	0.791500
O301	O30	0.386860	0.094400	0.739220
O311	O31	0.313700	0.215000	0.608460
O321	O32	0.619290	0.353200	0.839590
O331	O33	0.712880	0.348700	0.000440
O341	O34	0.634740	0.221400	0.652720
O351	O35	0.627870	0.103000	0.777290
O361	O36	0.536930	0.539140	0.930510
C491	C49	0.313700	0.381600	0.820200
C501	C50	0.225600	0.289700	0.786200
C511	C51	0.140700	0.303700	0.818600
H191	H19	0.141200	0.369300	0.860100
C521	C52	0.055300	0.222500	0.790700
C531	C53	0.057800	0.124000	0.729400
H201	H20	0.002300	0.067400	0.710300
C541	C54	0.141500	0.109500	0.696800
H211	H21	0.141000	0.043500	0.655600
C551	C55	0.226300	0.191400	0.724300
C561	C56	0.317000	0.167200	0.687600
C571	C57	0.965400	0.241000	0.826200
C581	C58	0.981800	0.297000	0.916800
H221	H22	0.049900	0.317500	0.957100
C591	C59	0.897500	0.322100	0.947000
H231	H23	0.909600	0.360000	0.007000
C601	C60	0.795600	0.291400	0.888700
C611	C61	0.778600	0.228800	0.800600
C621	C62	0.863000	0.205700	0.769600
H241	H24	0.851000	0.166000	0.710200
C631	C63	0.701600	0.334900	0.911800
C641	C64	0.670700	0.182400	0.738900
