data_GELVEZ02_clean_PM
_symmetry_space_group_name_H-M	'P1'
_cell_length_a	9.055300
_cell_length_b	9.055300
_cell_length_c	10.887200
_cell_angle_alpha	90.000000
_cell_angle_beta	90.000000
_cell_angle_gamma	120.000000
_symmetry_Int_Tables_number 1

loop_
_symmetry_equiv_pos_as_xyz
'x,y,z'

loop_
_atom_site_label
_atom_site_type_symbol
_atom_site_fract_x
_atom_site_fract_y
_atom_site_fract_z
Mn11	Mn1	0.030000	0.000000	0.500000
Mn21	Mn2	0.970000	0.970000	0.833330
Mn31	Mn3	0.000000	0.030000	0.166670
H11	H1	0.374000	0.247000	0.597000
H21	H2	0.588800	0.514500	0.510500
H31	H3	0.873000	0.626000	0.930330
H41	H4	0.925700	0.411200	0.843830
H51	H5	0.753000	0.127000	0.263670
H61	H6	0.485500	0.074300	0.177170
H71	H7	0.127000	0.753000	0.403000
H81	H8	0.074300	0.485500	0.489500
H91	H9	0.247000	0.374000	0.069670
H101	H10	0.514500	0.588800	0.156170
H111	H11	0.626000	0.873000	0.736330
H121	H12	0.411200	0.925700	0.822830
C11	C1	0.372800	0.323500	0.437540
C21	C2	0.523300	0.477200	0.439350
C31	C3	0.950700	0.627200	0.770870
C41	C4	0.953900	0.476700	0.772680
C51	C5	0.676500	0.049300	0.104210
C61	C6	0.522800	0.046100	0.106020
C71	C7	0.049300	0.676500	0.562460
C81	C8	0.046100	0.522800	0.560650
C91	C9	0.323500	0.372800	0.229130
C101	C10	0.477200	0.523300	0.227320
C111	C11	0.627200	0.950700	0.895790
C121	C12	0.476700	0.953900	0.893980
C131	C13	0.740200	0.740200	0.333330
C141	C14	0.269300	0.269300	0.333330
C151	C15	0.575500	0.575500	0.333330
C161	C16	0.000000	0.259800	0.666670
C171	C17	0.000000	0.730700	0.666670
C181	C18	0.000000	0.424500	0.666670
C191	C19	0.259800	0.000000	0.000000
C201	C20	0.730700	0.000000	0.000000
C211	C21	0.424500	0.000000	0.000000
O11	O1	0.782700	0.827700	0.430510
O21	O2	0.309700	0.211300	0.534840
O31	O3	0.045000	0.217300	0.763840
O41	O4	0.901600	0.690300	0.868170
O51	O5	0.172300	0.955000	0.097180
O61	O6	0.788700	0.098400	0.201510
O71	O7	0.955000	0.172300	0.569490
O81	O8	0.098400	0.788700	0.465160
O91	O9	0.827700	0.782700	0.236160
O101	O10	0.211300	0.309700	0.131830
O111	O11	0.217300	0.045000	0.902820
O121	O12	0.690300	0.901600	0.798490
O131	O13	0.122700	0.122700	0.333330
O141	O14	0.000000	0.877300	0.666670
O151	O15	0.877300	0.000000	0.000000
