data_GERWEH_clean_PM
_symmetry_space_group_name_H-M	'P1'
_cell_length_a	9.105000
_cell_length_b	17.492000
_cell_length_c	17.492000
_cell_angle_alpha	90.000000
_cell_angle_beta	90.000000
_cell_angle_gamma	90.000000
_symmetry_Int_Tables_number 1

loop_
_symmetry_equiv_pos_as_xyz
'x,y,z'

loop_
_atom_site_label
_atom_site_type_symbol
_atom_site_fract_x
_atom_site_fract_y
_atom_site_fract_z
Cu11	Cu1	0.415130	0.956280	0.543720
Cu21	Cu2	0.415130	0.543720	0.956280
Cu31	Cu3	0.415130	0.956280	0.956280
Cu41	Cu4	0.415130	0.543720	0.543720
Cu51	Cu5	0.584870	0.043720	0.043720
Cu61	Cu6	0.584870	0.456280	0.456280
Cu71	Cu7	0.584870	0.043720	0.456280
Cu81	Cu8	0.584870	0.456280	0.043720
Si11	Si1	0.000000	0.750000	0.250000
Si21	Si2	0.000000	0.250000	0.750000
H11	H1	0.860100	0.864800	0.348300
H21	H2	0.860100	0.635200	0.151700
H31	H3	0.860100	0.151700	0.864800
H41	H4	0.860100	0.348300	0.635200
H51	H5	0.139900	0.135200	0.848300
H61	H6	0.139900	0.364800	0.651700
H71	H7	0.139900	0.848300	0.364800
H81	H8	0.139900	0.651700	0.135200
H91	H9	0.139900	0.135200	0.651700
H101	H10	0.139900	0.364800	0.848300
H111	H11	0.139900	0.848300	0.135200
H121	H12	0.139900	0.651700	0.364800
H131	H13	0.860100	0.864800	0.151700
H141	H14	0.860100	0.635200	0.348300
H151	H15	0.860100	0.151700	0.635200
H161	H16	0.860100	0.348300	0.864800
H171	H17	0.610400	0.750000	0.497800
H181	H18	0.610400	0.750000	0.002200
H191	H19	0.610400	0.002200	0.750000
H201	H20	0.610400	0.497800	0.750000
H211	H21	0.389600	0.250000	0.997800
H221	H22	0.389600	0.250000	0.502200
H231	H23	0.389600	0.997800	0.250000
H241	H24	0.389600	0.502200	0.250000
C11	C1	0.826900	0.818550	0.368100
C21	C2	0.725200	0.818700	0.427700
C31	C3	0.658800	0.890500	0.458400
C41	C4	0.826900	0.681450	0.131900
C51	C5	0.725200	0.681300	0.072300
C61	C6	0.658800	0.609500	0.041600
C71	C7	0.826900	0.131900	0.818550
C81	C8	0.725200	0.072300	0.818700
C91	C9	0.658800	0.041600	0.890500
C101	C10	0.826900	0.368100	0.681450
C111	C11	0.725200	0.427700	0.681300
C121	C12	0.658800	0.458400	0.609500
C131	C13	0.173100	0.181450	0.868100
C141	C14	0.274800	0.181300	0.927700
C151	C15	0.341200	0.109500	0.958400
C161	C16	0.173100	0.318550	0.631900
C171	C17	0.274800	0.318700	0.572300
C181	C18	0.341200	0.390500	0.541600
C191	C19	0.173100	0.868100	0.318550
C201	C20	0.274800	0.927700	0.318700
C211	C21	0.341200	0.958400	0.390500
C221	C22	0.173100	0.631900	0.181450
C231	C23	0.274800	0.572300	0.181300
C241	C24	0.341200	0.541600	0.109500
C251	C25	0.173100	0.181450	0.631900
C261	C26	0.274800	0.181300	0.572300
C271	C27	0.341200	0.109500	0.541600
C281	C28	0.173100	0.318550	0.868100
C291	C29	0.274800	0.318700	0.927700
C301	C30	0.341200	0.390500	0.958400
C311	C31	0.173100	0.868100	0.181450
C321	C32	0.274800	0.927700	0.181300
C331	C33	0.341200	0.958400	0.109500
C341	C34	0.173100	0.631900	0.318550
C351	C35	0.274800	0.572300	0.318700
C361	C36	0.341200	0.541600	0.390500
C371	C37	0.826900	0.818550	0.131900
C381	C38	0.725200	0.818700	0.072300
C391	C39	0.658800	0.890500	0.041600
C401	C40	0.826900	0.681450	0.368100
C411	C41	0.725200	0.681300	0.427700
C421	C42	0.658800	0.609500	0.458400
C431	C43	0.826900	0.131900	0.681450
C441	C44	0.725200	0.072300	0.681300
C451	C45	0.658800	0.041600	0.609500
C461	C46	0.826900	0.368100	0.818550
C471	C47	0.725200	0.427700	0.818700
C481	C48	0.658800	0.458400	0.890500
C491	C49	0.879500	0.750000	0.337500
C501	C50	0.676700	0.750000	0.457300
C511	C51	0.879500	0.750000	0.162500
C521	C52	0.676700	0.750000	0.042700
C531	C53	0.879500	0.162500	0.750000
C541	C54	0.676700	0.042700	0.750000
C551	C55	0.879500	0.337500	0.750000
C561	C56	0.676700	0.457300	0.750000
C571	C57	0.120500	0.250000	0.837500
C581	C58	0.323300	0.250000	0.957300
C591	C59	0.120500	0.250000	0.662500
C601	C60	0.323300	0.250000	0.542700
C611	C61	0.120500	0.837500	0.250000
C621	C62	0.323300	0.957300	0.250000
C631	C63	0.120500	0.662500	0.250000
C641	C64	0.323300	0.542700	0.250000
O11	O1	0.558900	0.882200	0.506210
O21	O2	0.704500	0.953000	0.432500
O31	O3	0.558900	0.617800	0.993790
O41	O4	0.704500	0.547000	0.067500
O51	O5	0.558900	0.993790	0.882200
O61	O6	0.704500	0.067500	0.953000
O71	O7	0.558900	0.506210	0.617800
O81	O8	0.704500	0.432500	0.547000
O91	O9	0.441100	0.117800	0.006210
O101	O10	0.295500	0.047000	0.932500
O111	O11	0.441100	0.382200	0.493790
O121	O12	0.295500	0.453000	0.567500
O131	O13	0.441100	0.006210	0.382200
O141	O14	0.295500	0.932500	0.453000
O151	O15	0.441100	0.493790	0.117800
O161	O16	0.295500	0.567500	0.047000
O171	O17	0.441100	0.117800	0.493790
O181	O18	0.295500	0.047000	0.567500
O191	O19	0.441100	0.382200	0.006210
O201	O20	0.295500	0.453000	0.932500
O211	O21	0.441100	0.006210	0.117800
O221	O22	0.295500	0.932500	0.047000
O231	O23	0.441100	0.493790	0.382200
O241	O24	0.295500	0.567500	0.453000
O251	O25	0.558900	0.882200	0.993790
O261	O26	0.704500	0.953000	0.067500
O271	O27	0.558900	0.617800	0.506210
O281	O28	0.704500	0.547000	0.432500
O291	O29	0.558900	0.993790	0.617800
O301	O30	0.704500	0.067500	0.547000
O311	O31	0.558900	0.506210	0.882200
O321	O32	0.704500	0.432500	0.953000
