data_GESBUC_charged_PM
_symmetry_space_group_name_H-M	'P1'
_cell_length_a	24.043000
_cell_length_b	24.043000
_cell_length_c	24.043000
_cell_angle_alpha	90.000000
_cell_angle_beta	90.000000
_cell_angle_gamma	90.000000
_symmetry_Int_Tables_number 1

loop_
_symmetry_equiv_pos_as_xyz
'x,y,z'

loop_
_atom_site_label
_atom_site_type_symbol
_atom_site_fract_x
_atom_site_fract_y
_atom_site_fract_z
Na11	Na1	0.141550	0.858450	0.358450
Na21	Na2	0.358450	0.141550	0.858450
Na31	Na3	0.858450	0.358450	0.141550
Na41	Na4	0.641550	0.641550	0.641550
Mn11	Mn1	0.155890	0.986750	0.150910
Mn21	Mn2	0.204680	0.038570	0.051050
Mn31	Mn3	0.093370	0.974470	0.037160
Mn41	Mn4	0.055310	0.769850	0.416440
Mn51	Mn5	0.034260	0.933340	0.143520
Mn61	Mn6	0.084080	0.529660	0.530240
Mn71	Mn7	0.344110	0.013250	0.650910
Mn81	Mn8	0.295320	0.961430	0.551050
Mn91	Mn9	0.406630	0.025530	0.537160
Mn101	Mn10	0.444690	0.230150	0.916440
Mn111	Mn11	0.465740	0.066660	0.643520
Mn121	Mn12	0.415920	0.470340	0.030240
Mn131	Mn13	0.844110	0.486750	0.349090
Mn141	Mn14	0.795320	0.538570	0.448950
Mn151	Mn15	0.906630	0.474470	0.462840
Mn161	Mn16	0.944690	0.269850	0.083560
Mn171	Mn17	0.965740	0.433340	0.356480
Mn181	Mn18	0.915920	0.029660	0.969760
Mn191	Mn19	0.655890	0.513250	0.849090
Mn201	Mn20	0.704680	0.461430	0.948950
Mn211	Mn21	0.593370	0.525530	0.962840
Mn221	Mn22	0.555310	0.730150	0.583560
Mn231	Mn23	0.534260	0.566660	0.856480
Mn241	Mn24	0.584080	0.970340	0.469760
Mn251	Mn25	0.150910	0.155890	0.986750
Mn261	Mn26	0.051050	0.204680	0.038570
Mn271	Mn27	0.037160	0.093370	0.974470
Mn281	Mn28	0.416440	0.055310	0.769850
Mn291	Mn29	0.143520	0.034260	0.933340
Mn301	Mn30	0.530240	0.084080	0.529660
Mn311	Mn31	0.650910	0.344110	0.013250
Mn321	Mn32	0.551050	0.295320	0.961430
Mn331	Mn33	0.537160	0.406630	0.025530
Mn341	Mn34	0.916440	0.444690	0.230150
Mn351	Mn35	0.643520	0.465740	0.066660
Mn361	Mn36	0.030240	0.415920	0.470340
Mn371	Mn37	0.349090	0.844110	0.486750
Mn381	Mn38	0.448950	0.795320	0.538570
Mn391	Mn39	0.462840	0.906630	0.474470
Mn401	Mn40	0.083560	0.944690	0.269850
Mn411	Mn41	0.356480	0.965740	0.433340
Mn421	Mn42	0.969760	0.915920	0.029660
Mn431	Mn43	0.849090	0.655890	0.513250
Mn441	Mn44	0.948950	0.704680	0.461430
Mn451	Mn45	0.962840	0.593370	0.525530
Mn461	Mn46	0.583560	0.555310	0.730150
Mn471	Mn47	0.856480	0.534260	0.566660
Mn481	Mn48	0.469760	0.584080	0.970340
Mn491	Mn49	0.986750	0.150910	0.155890
Mn501	Mn50	0.038570	0.051050	0.204680
Mn511	Mn51	0.974470	0.037160	0.093370
Mn521	Mn52	0.769850	0.416440	0.055310
Mn531	Mn53	0.933340	0.143520	0.034260
Mn541	Mn54	0.529660	0.530240	0.084080
Mn551	Mn55	0.013250	0.650910	0.344110
Mn561	Mn56	0.961430	0.551050	0.295320
Mn571	Mn57	0.025530	0.537160	0.406630
Mn581	Mn58	0.230150	0.916440	0.444690
Mn591	Mn59	0.066660	0.643520	0.465740
Mn601	Mn60	0.470340	0.030240	0.415920
Mn611	Mn61	0.486750	0.349090	0.844110
Mn621	Mn62	0.538570	0.448950	0.795320
Mn631	Mn63	0.474470	0.462840	0.906630
Mn641	Mn64	0.269850	0.083560	0.944690
Mn651	Mn65	0.433340	0.356480	0.965740
Mn661	Mn66	0.029660	0.969760	0.915920
Mn671	Mn67	0.513250	0.849090	0.655890
Mn681	Mn68	0.461430	0.948950	0.704680
Mn691	Mn69	0.525530	0.962840	0.593370
Mn701	Mn70	0.730150	0.583560	0.555310
Mn711	Mn71	0.566660	0.856480	0.534260
Mn721	Mn72	0.970340	0.469760	0.584080
Mn731	Mn73	0.113440	0.113440	0.113440
Mn741	Mn74	0.386560	0.886560	0.613440
Mn751	Mn75	0.886560	0.613440	0.386560
Mn761	Mn76	0.613440	0.386560	0.886560
H11	H1	0.150800	0.848800	0.109700
H21	H2	0.116800	0.848500	0.053900
H31	H3	0.218500	0.902400	0.070000
H41	H4	0.211300	0.847200	0.036700
H51	H5	0.169300	0.895300	0.963000
H61	H6	0.227800	0.921600	0.975700
H71	H7	0.282500	0.001800	0.172600
H81	H8	0.292200	0.950500	0.133600
H91	H9	0.315200	0.060600	0.107600
H101	H10	0.359300	0.013600	0.116900
H111	H11	0.324100	0.968800	0.037400
H121	H12	0.354200	0.025300	0.025300
H131	H13	0.184600	0.705900	0.436300
H141	H14	0.172400	0.752100	0.480500
H151	H15	0.177500	0.695600	0.549700
H161	H16	0.226600	0.678600	0.511500
H171	H17	0.180200	0.608400	0.562400
H181	H18	0.196800	0.595200	0.500700
H191	H19	0.233200	0.123300	0.258400
H201	H20	0.177900	0.156700	0.267600
H211	H21	0.190400	0.103800	0.303600
H221	H22	0.059400	0.822900	0.534600
H231	H23	0.114300	0.798200	0.559700
H241	H24	0.098900	0.860600	0.570300
H251	H25	0.275600	0.880300	0.231300
H261	H26	0.243500	0.839700	0.270900
H271	H27	0.242700	0.829900	0.206500
H281	H28	0.349200	0.151200	0.609700
H291	H29	0.383200	0.151500	0.553900
H301	H30	0.281500	0.097600	0.570000
H311	H31	0.288700	0.152800	0.536700
H321	H32	0.330700	0.104700	0.463000
H331	H33	0.272200	0.078400	0.475700
H341	H34	0.217500	0.998200	0.672600
H351	H35	0.207800	0.049500	0.633600
H361	H36	0.184800	0.939400	0.607600
H371	H37	0.140700	0.986400	0.616900
H381	H38	0.175900	0.031200	0.537400
H391	H39	0.145800	0.974700	0.525300
H401	H40	0.315400	0.294100	0.936300
H411	H41	0.327600	0.247900	0.980500
H421	H42	0.322500	0.304400	0.049700
H431	H43	0.273400	0.321400	0.011500
H441	H44	0.319800	0.391600	0.062400
H451	H45	0.303200	0.404800	0.000700
H461	H46	0.266800	0.876700	0.758400
H471	H47	0.322100	0.843300	0.767600
H481	H48	0.309600	0.896200	0.803600
H491	H49	0.440600	0.177100	0.034600
H501	H50	0.385700	0.201800	0.059700
H511	H51	0.401100	0.139400	0.070300
H521	H52	0.224400	0.119700	0.731300
H531	H53	0.256500	0.160300	0.770900
H541	H54	0.257300	0.170100	0.706500
H551	H55	0.849200	0.348800	0.390300
H561	H56	0.883200	0.348500	0.446100
H571	H57	0.781500	0.402400	0.430000
H581	H58	0.788700	0.347200	0.463300
H591	H59	0.830700	0.395300	0.537000
H601	H60	0.772200	0.421600	0.524300
H611	H61	0.717500	0.501800	0.327400
H621	H62	0.707800	0.450500	0.366400
H631	H63	0.684800	0.560600	0.392400
H641	H64	0.640700	0.513600	0.383100
H651	H65	0.675900	0.468800	0.462600
H661	H66	0.645800	0.525300	0.474700
H671	H67	0.815400	0.205900	0.063700
H681	H68	0.827600	0.252100	0.019500
H691	H69	0.822500	0.195600	0.950300
H701	H70	0.773400	0.178600	0.988500
H711	H71	0.819800	0.108400	0.937600
H721	H72	0.803200	0.095200	0.999300
H731	H73	0.766800	0.623300	0.241600
H741	H74	0.822100	0.656700	0.232400
H751	H75	0.809600	0.603800	0.196400
H761	H76	0.940600	0.322900	0.965400
H771	H77	0.885700	0.298200	0.940300
H781	H78	0.901100	0.360600	0.929700
H791	H79	0.724400	0.380300	0.268700
H801	H80	0.756500	0.339700	0.229100
H811	H81	0.757300	0.329900	0.293500
H821	H82	0.650800	0.651200	0.890300
H831	H83	0.616800	0.651500	0.946100
H841	H84	0.718500	0.597600	0.930000
H851	H85	0.711300	0.652800	0.963300
H861	H86	0.669300	0.604700	0.037000
H871	H87	0.727800	0.578400	0.024300
H881	H88	0.782500	0.498200	0.827400
H891	H89	0.792200	0.549500	0.866400
H901	H90	0.815200	0.439400	0.892400
H911	H91	0.859300	0.486400	0.883100
H921	H92	0.824100	0.531200	0.962600
H931	H93	0.854200	0.474700	0.974700
H941	H94	0.684600	0.794100	0.563700
H951	H95	0.672400	0.747900	0.519500
H961	H96	0.677500	0.804400	0.450300
H971	H97	0.726600	0.821400	0.488500
H981	H98	0.680200	0.891600	0.437600
H991	H99	0.696800	0.904800	0.499300
H1001	H100	0.733200	0.376700	0.741600
H1011	H101	0.677900	0.343300	0.732400
H1021	H102	0.690400	0.396200	0.696400
H1031	H103	0.559400	0.677100	0.465400
H1041	H104	0.614300	0.701800	0.440300
H1051	H105	0.598900	0.639400	0.429700
H1061	H106	0.775600	0.619700	0.768700
H1071	H107	0.743500	0.660300	0.729100
H1081	H108	0.742700	0.670100	0.793500
H1091	H109	0.109700	0.150800	0.848800
H1101	H110	0.053900	0.116800	0.848500
H1111	H111	0.070000	0.218500	0.902400
H1121	H112	0.036700	0.211300	0.847200
H1131	H113	0.963000	0.169300	0.895300
H1141	H114	0.975700	0.227800	0.921600
H1151	H115	0.172600	0.282500	0.001800
H1161	H116	0.133600	0.292200	0.950500
H1171	H117	0.107600	0.315200	0.060600
H1181	H118	0.116900	0.359300	0.013600
H1191	H119	0.037400	0.324100	0.968800
H1201	H120	0.025300	0.354200	0.025300
H1211	H121	0.436300	0.184600	0.705900
H1221	H122	0.480500	0.172400	0.752100
H1231	H123	0.549700	0.177500	0.695600
H1241	H124	0.511500	0.226600	0.678600
H1251	H125	0.562400	0.180200	0.608400
H1261	H126	0.500700	0.196800	0.595200
H1271	H127	0.258400	0.233200	0.123300
H1281	H128	0.267600	0.177900	0.156700
H1291	H129	0.303600	0.190400	0.103800
H1301	H130	0.534600	0.059400	0.822900
H1311	H131	0.559700	0.114300	0.798200
H1321	H132	0.570300	0.098900	0.860600
H1331	H133	0.231300	0.275600	0.880300
H1341	H134	0.270900	0.243500	0.839700
H1351	H135	0.206500	0.242700	0.829900
H1361	H136	0.609700	0.349200	0.151200
H1371	H137	0.553900	0.383200	0.151500
H1381	H138	0.570000	0.281500	0.097600
H1391	H139	0.536700	0.288700	0.152800
H1401	H140	0.463000	0.330700	0.104700
H1411	H141	0.475700	0.272200	0.078400
H1421	H142	0.672600	0.217500	0.998200
H1431	H143	0.633600	0.207800	0.049500
H1441	H144	0.607600	0.184800	0.939400
H1451	H145	0.616900	0.140700	0.986400
H1461	H146	0.537400	0.175900	0.031200
H1471	H147	0.525300	0.145800	0.974700
H1481	H148	0.936300	0.315400	0.294100
H1491	H149	0.980500	0.327600	0.247900
H1501	H150	0.049700	0.322500	0.304400
H1511	H151	0.011500	0.273400	0.321400
H1521	H152	0.062400	0.319800	0.391600
H1531	H153	0.000700	0.303200	0.404800
H1541	H154	0.758400	0.266800	0.876700
H1551	H155	0.767600	0.322100	0.843300
H1561	H156	0.803600	0.309600	0.896200
H1571	H157	0.034600	0.440600	0.177100
H1581	H158	0.059700	0.385700	0.201800
H1591	H159	0.070300	0.401100	0.139400
H1601	H160	0.731300	0.224400	0.119700
H1611	H161	0.770900	0.256500	0.160300
H1621	H162	0.706500	0.257300	0.170100
H1631	H163	0.390300	0.849200	0.348800
H1641	H164	0.446100	0.883200	0.348500
H1651	H165	0.430000	0.781500	0.402400
H1661	H166	0.463300	0.788700	0.347200
H1671	H167	0.537000	0.830700	0.395300
H1681	H168	0.524300	0.772200	0.421600
H1691	H169	0.327400	0.717500	0.501800
H1701	H170	0.366400	0.707800	0.450500
H1711	H171	0.392400	0.684800	0.560600
H1721	H172	0.383100	0.640700	0.513600
H1731	H173	0.462600	0.675900	0.468800
H1741	H174	0.474700	0.645800	0.525300
H1751	H175	0.063700	0.815400	0.205900
H1761	H176	0.019500	0.827600	0.252100
H1771	H177	0.950300	0.822500	0.195600
H1781	H178	0.988500	0.773400	0.178600
H1791	H179	0.937600	0.819800	0.108400
H1801	H180	0.999300	0.803200	0.095200
H1811	H181	0.241600	0.766800	0.623300
H1821	H182	0.232400	0.822100	0.656700
H1831	H183	0.196400	0.809600	0.603800
H1841	H184	0.965400	0.940600	0.322900
H1851	H185	0.940300	0.885700	0.298200
H1861	H186	0.929700	0.901100	0.360600
H1871	H187	0.268700	0.724400	0.380300
H1881	H188	0.229100	0.756500	0.339700
H1891	H189	0.293500	0.757300	0.329900
H1901	H190	0.890300	0.650800	0.651200
H1911	H191	0.946100	0.616800	0.651500
H1921	H192	0.930000	0.718500	0.597600
H1931	H193	0.963300	0.711300	0.652800
H1941	H194	0.037000	0.669300	0.604700
H1951	H195	0.024300	0.727800	0.578400
H1961	H196	0.827400	0.782500	0.498200
H1971	H197	0.866400	0.792200	0.549500
H1981	H198	0.892400	0.815200	0.439400
H1991	H199	0.883100	0.859300	0.486400
H2001	H200	0.962600	0.824100	0.531200
H2011	H201	0.974700	0.854200	0.474700
H2021	H202	0.563700	0.684600	0.794100
H2031	H203	0.519500	0.672400	0.747900
H2041	H204	0.450300	0.677500	0.804400
H2051	H205	0.488500	0.726600	0.821400
H2061	H206	0.437600	0.680200	0.891600
H2071	H207	0.499300	0.696800	0.904800
H2081	H208	0.741600	0.733200	0.376700
H2091	H209	0.732400	0.677900	0.343300
H2101	H210	0.696400	0.690400	0.396200
H2111	H211	0.465400	0.559400	0.677100
H2121	H212	0.440300	0.614300	0.701800
H2131	H213	0.429700	0.598900	0.639400
H2141	H214	0.768700	0.775600	0.619700
H2151	H215	0.729100	0.743500	0.660300
H2161	H216	0.793500	0.742700	0.670100
H2171	H217	0.848800	0.109700	0.150800
H2181	H218	0.848500	0.053900	0.116800
H2191	H219	0.902400	0.070000	0.218500
H2201	H220	0.847200	0.036700	0.211300
H2211	H221	0.895300	0.963000	0.169300
H2221	H222	0.921600	0.975700	0.227800
H2231	H223	0.001800	0.172600	0.282500
H2241	H224	0.950500	0.133600	0.292200
H2251	H225	0.060600	0.107600	0.315200
H2261	H226	0.013600	0.116900	0.359300
H2271	H227	0.968800	0.037400	0.324100
H2281	H228	0.025300	0.025300	0.354200
H2291	H229	0.705900	0.436300	0.184600
H2301	H230	0.752100	0.480500	0.172400
H2311	H231	0.695600	0.549700	0.177500
H2321	H232	0.678600	0.511500	0.226600
H2331	H233	0.608400	0.562400	0.180200
H2341	H234	0.595200	0.500700	0.196800
H2351	H235	0.123300	0.258400	0.233200
H2361	H236	0.156700	0.267600	0.177900
H2371	H237	0.103800	0.303600	0.190400
H2381	H238	0.822900	0.534600	0.059400
H2391	H239	0.798200	0.559700	0.114300
H2401	H240	0.860600	0.570300	0.098900
H2411	H241	0.880300	0.231300	0.275600
H2421	H242	0.839700	0.270900	0.243500
H2431	H243	0.829900	0.206500	0.242700
H2441	H244	0.151200	0.609700	0.349200
H2451	H245	0.151500	0.553900	0.383200
H2461	H246	0.097600	0.570000	0.281500
H2471	H247	0.152800	0.536700	0.288700
H2481	H248	0.104700	0.463000	0.330700
H2491	H249	0.078400	0.475700	0.272200
H2501	H250	0.998200	0.672600	0.217500
H2511	H251	0.049500	0.633600	0.207800
H2521	H252	0.939400	0.607600	0.184800
H2531	H253	0.986400	0.616900	0.140700
H2541	H254	0.031200	0.537400	0.175900
H2551	H255	0.974700	0.525300	0.145800
H2561	H256	0.294100	0.936300	0.315400
H2571	H257	0.247900	0.980500	0.327600
H2581	H258	0.304400	0.049700	0.322500
H2591	H259	0.321400	0.011500	0.273400
H2601	H260	0.391600	0.062400	0.319800
H2611	H261	0.404800	0.000700	0.303200
H2621	H262	0.876700	0.758400	0.266800
H2631	H263	0.843300	0.767600	0.322100
H2641	H264	0.896200	0.803600	0.309600
H2651	H265	0.177100	0.034600	0.440600
H2661	H266	0.201800	0.059700	0.385700
H2671	H267	0.139400	0.070300	0.401100
H2681	H268	0.119700	0.731300	0.224400
H2691	H269	0.160300	0.770900	0.256500
H2701	H270	0.170100	0.706500	0.257300
H2711	H271	0.348800	0.390300	0.849200
H2721	H272	0.348500	0.446100	0.883200
H2731	H273	0.402400	0.430000	0.781500
H2741	H274	0.347200	0.463300	0.788700
H2751	H275	0.395300	0.537000	0.830700
H2761	H276	0.421600	0.524300	0.772200
H2771	H277	0.501800	0.327400	0.717500
H2781	H278	0.450500	0.366400	0.707800
H2791	H279	0.560600	0.392400	0.684800
H2801	H280	0.513600	0.383100	0.640700
H2811	H281	0.468800	0.462600	0.675900
H2821	H282	0.525300	0.474700	0.645800
H2831	H283	0.205900	0.063700	0.815400
H2841	H284	0.252100	0.019500	0.827600
H2851	H285	0.195600	0.950300	0.822500
H2861	H286	0.178600	0.988500	0.773400
H2871	H287	0.108400	0.937600	0.819800
H2881	H288	0.095200	0.999300	0.803200
H2891	H289	0.623300	0.241600	0.766800
H2901	H290	0.656700	0.232400	0.822100
H2911	H291	0.603800	0.196400	0.809600
H2921	H292	0.322900	0.965400	0.940600
H2931	H293	0.298200	0.940300	0.885700
H2941	H294	0.360600	0.929700	0.901100
H2951	H295	0.380300	0.268700	0.724400
H2961	H296	0.339700	0.229100	0.756500
H2971	H297	0.329900	0.293500	0.757300
H2981	H298	0.651200	0.890300	0.650800
H2991	H299	0.651500	0.946100	0.616800
H3001	H300	0.597600	0.930000	0.718500
H3011	H301	0.652800	0.963300	0.711300
H3021	H302	0.604700	0.037000	0.669300
H3031	H303	0.578400	0.024300	0.727800
H3041	H304	0.498200	0.827400	0.782500
H3051	H305	0.549500	0.866400	0.792200
H3061	H306	0.439400	0.892400	0.815200
H3071	H307	0.486400	0.883100	0.859300
H3081	H308	0.531200	0.962600	0.824100
H3091	H309	0.474700	0.974700	0.854200
H3101	H310	0.794100	0.563700	0.684600
H3111	H311	0.747900	0.519500	0.672400
H3121	H312	0.804400	0.450300	0.677500
H3131	H313	0.821400	0.488500	0.726600
H3141	H314	0.891600	0.437600	0.680200
H3151	H315	0.904800	0.499300	0.696800
H3161	H316	0.376700	0.741600	0.733200
H3171	H317	0.343300	0.732400	0.677900
H3181	H318	0.396200	0.696400	0.690400
H3191	H319	0.677100	0.465400	0.559400
H3201	H320	0.701800	0.440300	0.614300
H3211	H321	0.639400	0.429700	0.598900
H3221	H322	0.619700	0.768700	0.775600
H3231	H323	0.660300	0.729100	0.743500
H3241	H324	0.670100	0.793500	0.742700
C11	C1	0.141800	0.870300	0.076800
C21	C2	0.193700	0.882600	0.045200
C31	C3	0.190600	0.916100	0.990300
C41	C4	0.281700	0.989400	0.134200
C51	C5	0.322400	0.021300	0.102400
C61	C6	0.321700	0.008800	0.042500
C71	C7	0.164600	0.713800	0.470500
C81	C8	0.186400	0.677100	0.514900
C91	C9	0.172900	0.618000	0.523900
C101	C10	0.166500	0.085400	0.226000
C111	C11	0.194400	0.120300	0.267500
C121	C12	0.128600	0.847200	0.492000
C131	C13	0.097500	0.830700	0.543900
C141	C14	0.193500	0.892300	0.230600
C151	C15	0.243100	0.857600	0.235200
C161	C16	0.358200	0.129700	0.576800
C171	C17	0.306300	0.117400	0.545200
C181	C18	0.309400	0.083900	0.490300
C191	C19	0.218300	0.010600	0.634200
C201	C20	0.177600	0.978700	0.602400
C211	C21	0.178300	0.991200	0.542500
C221	C22	0.335400	0.286200	0.970500
C231	C23	0.313600	0.322900	0.014900
C241	C24	0.327100	0.382000	0.023900
C251	C25	0.333500	0.914600	0.726000
C261	C26	0.305600	0.879700	0.767500
C271	C27	0.371400	0.152800	0.992000
C281	C28	0.402500	0.169300	0.043900
C291	C29	0.306500	0.107700	0.730600
C301	C30	0.256900	0.142400	0.735200
C311	C31	0.858200	0.370300	0.423200
C321	C32	0.806300	0.382600	0.454800
C331	C33	0.809400	0.416100	0.509700
C341	C34	0.718300	0.489400	0.365800
C351	C35	0.677600	0.521300	0.397600
C361	C36	0.678300	0.508800	0.457500
C371	C37	0.835400	0.213800	0.029500
C381	C38	0.813600	0.177100	0.985100
C391	C39	0.827100	0.118000	0.976100
C401	C40	0.833500	0.585400	0.274000
C411	C41	0.805600	0.620300	0.232500
C421	C42	0.871400	0.347200	0.008000
C431	C43	0.902500	0.330700	0.956100
C441	C44	0.806500	0.392300	0.269400
C451	C45	0.756900	0.357600	0.264800
C461	C46	0.641800	0.629700	0.923200
C471	C47	0.693700	0.617400	0.954800
C481	C48	0.690600	0.583900	0.009700
C491	C49	0.781700	0.510600	0.865800
C501	C50	0.822400	0.478700	0.897600
C511	C51	0.821700	0.491200	0.957500
C521	C52	0.664600	0.786200	0.529500
C531	C53	0.686400	0.822900	0.485100
C541	C54	0.672900	0.882000	0.476100
C551	C55	0.666500	0.414600	0.774000
C561	C56	0.694400	0.379700	0.732500
C571	C57	0.628600	0.652800	0.508000
C581	C58	0.597500	0.669300	0.456100
C591	C59	0.693500	0.607700	0.769400
C601	C60	0.743100	0.642400	0.764800
C611	C61	0.076800	0.141800	0.870300
C621	C62	0.045200	0.193700	0.882600
C631	C63	0.990300	0.190600	0.916100
C641	C64	0.134200	0.281700	0.989400
C651	C65	0.102400	0.322400	0.021300
C661	C66	0.042500	0.321700	0.008800
C671	C67	0.470500	0.164600	0.713800
C681	C68	0.514900	0.186400	0.677100
C691	C69	0.523900	0.172900	0.618000
C701	C70	0.226000	0.166500	0.085400
C711	C71	0.267500	0.194400	0.120300
C721	C72	0.492000	0.128600	0.847200
C731	C73	0.543900	0.097500	0.830700
C741	C74	0.230600	0.193500	0.892300
C751	C75	0.235200	0.243100	0.857600
C761	C76	0.576800	0.358200	0.129700
C771	C77	0.545200	0.306300	0.117400
C781	C78	0.490300	0.309400	0.083900
C791	C79	0.634200	0.218300	0.010600
C801	C80	0.602400	0.177600	0.978700
C811	C81	0.542500	0.178300	0.991200
C821	C82	0.970500	0.335400	0.286200
C831	C83	0.014900	0.313600	0.322900
C841	C84	0.023900	0.327100	0.382000
C851	C85	0.726000	0.333500	0.914600
C861	C86	0.767500	0.305600	0.879700
C871	C87	0.992000	0.371400	0.152800
C881	C88	0.043900	0.402500	0.169300
C891	C89	0.730600	0.306500	0.107700
C901	C90	0.735200	0.256900	0.142400
C911	C91	0.423200	0.858200	0.370300
C921	C92	0.454800	0.806300	0.382600
C931	C93	0.509700	0.809400	0.416100
C941	C94	0.365800	0.718300	0.489400
C951	C95	0.397600	0.677600	0.521300
C961	C96	0.457500	0.678300	0.508800
C971	C97	0.029500	0.835400	0.213800
C981	C98	0.985100	0.813600	0.177100
C991	C99	0.976100	0.827100	0.118000
C1001	C100	0.274000	0.833500	0.585400
C1011	C101	0.232500	0.805600	0.620300
C1021	C102	0.008000	0.871400	0.347200
C1031	C103	0.956100	0.902500	0.330700
C1041	C104	0.269400	0.806500	0.392300
C1051	C105	0.264800	0.756900	0.357600
C1061	C106	0.923200	0.641800	0.629700
C1071	C107	0.954800	0.693700	0.617400
C1081	C108	0.009700	0.690600	0.583900
C1091	C109	0.865800	0.781700	0.510600
C1101	C110	0.897600	0.822400	0.478700
C1111	C111	0.957500	0.821700	0.491200
C1121	C112	0.529500	0.664600	0.786200
C1131	C113	0.485100	0.686400	0.822900
C1141	C114	0.476100	0.672900	0.882000
C1151	C115	0.774000	0.666500	0.414600
C1161	C116	0.732500	0.694400	0.379700
C1171	C117	0.508000	0.628600	0.652800
C1181	C118	0.456100	0.597500	0.669300
C1191	C119	0.769400	0.693500	0.607700
C1201	C120	0.764800	0.743100	0.642400
C1211	C121	0.870300	0.076800	0.141800
C1221	C122	0.882600	0.045200	0.193700
C1231	C123	0.916100	0.990300	0.190600
C1241	C124	0.989400	0.134200	0.281700
C1251	C125	0.021300	0.102400	0.322400
C1261	C126	0.008800	0.042500	0.321700
C1271	C127	0.713800	0.470500	0.164600
C1281	C128	0.677100	0.514900	0.186400
C1291	C129	0.618000	0.523900	0.172900
C1301	C130	0.085400	0.226000	0.166500
C1311	C131	0.120300	0.267500	0.194400
C1321	C132	0.847200	0.492000	0.128600
C1331	C133	0.830700	0.543900	0.097500
C1341	C134	0.892300	0.230600	0.193500
C1351	C135	0.857600	0.235200	0.243100
C1361	C136	0.129700	0.576800	0.358200
C1371	C137	0.117400	0.545200	0.306300
C1381	C138	0.083900	0.490300	0.309400
C1391	C139	0.010600	0.634200	0.218300
C1401	C140	0.978700	0.602400	0.177600
C1411	C141	0.991200	0.542500	0.178300
C1421	C142	0.286200	0.970500	0.335400
C1431	C143	0.322900	0.014900	0.313600
C1441	C144	0.382000	0.023900	0.327100
C1451	C145	0.914600	0.726000	0.333500
C1461	C146	0.879700	0.767500	0.305600
C1471	C147	0.152800	0.992000	0.371400
C1481	C148	0.169300	0.043900	0.402500
C1491	C149	0.107700	0.730600	0.306500
C1501	C150	0.142400	0.735200	0.256900
C1511	C151	0.370300	0.423200	0.858200
C1521	C152	0.382600	0.454800	0.806300
C1531	C153	0.416100	0.509700	0.809400
C1541	C154	0.489400	0.365800	0.718300
C1551	C155	0.521300	0.397600	0.677600
C1561	C156	0.508800	0.457500	0.678300
C1571	C157	0.213800	0.029500	0.835400
C1581	C158	0.177100	0.985100	0.813600
C1591	C159	0.118000	0.976100	0.827100
C1601	C160	0.585400	0.274000	0.833500
C1611	C161	0.620300	0.232500	0.805600
C1621	C162	0.347200	0.008000	0.871400
C1631	C163	0.330700	0.956100	0.902500
C1641	C164	0.392300	0.269400	0.806500
C1651	C165	0.357600	0.264800	0.756900
C1661	C166	0.629700	0.923200	0.641800
C1671	C167	0.617400	0.954800	0.693700
C1681	C168	0.583900	0.009700	0.690600
C1691	C169	0.510600	0.865800	0.781700
C1701	C170	0.478700	0.897600	0.822400
C1711	C171	0.491200	0.957500	0.821700
C1721	C172	0.786200	0.529500	0.664600
C1731	C173	0.822900	0.485100	0.686400
C1741	C174	0.882000	0.476100	0.672900
C1751	C175	0.414600	0.774000	0.666500
C1761	C176	0.379700	0.732500	0.694400
C1771	C177	0.652800	0.508000	0.628600
C1781	C178	0.669300	0.456100	0.597500
C1791	C179	0.607700	0.769400	0.693500
C1801	C180	0.642400	0.764800	0.743100
O11	O1	0.115000	0.921700	0.092900
O21	O2	0.164700	0.969200	0.999500
O31	O3	0.227400	0.994700	0.113600
O41	O4	0.272400	0.029000	0.014300
O51	O5	0.108300	0.708900	0.460100
O61	O6	0.116400	0.606400	0.511200
O71	O7	0.188100	0.039600	0.213200
O81	O8	0.121000	0.101000	0.204600
O91	O9	0.107900	0.834400	0.445400
O101	O10	0.175200	0.869800	0.497800
O111	O11	0.155600	0.891200	0.267800
O121	O12	0.189500	0.923200	0.189000
O131	O13	0.057200	0.906400	0.982200
O141	O14	0.081900	0.985900	0.183200
O151	O15	0.134400	0.032700	0.088600
O161	O16	0.075400	0.024300	0.978000
O171	O17	0.151600	0.503700	0.583400
O181	O18	0.385000	0.078300	0.592900
O191	O19	0.335300	0.030800	0.499500
O201	O20	0.272600	0.005300	0.613600
O211	O21	0.227600	0.971000	0.514300
O221	O22	0.391700	0.291100	0.960100
O231	O23	0.383600	0.393600	0.011200
O241	O24	0.311900	0.960400	0.713200
O251	O25	0.379000	0.899000	0.704600
O261	O26	0.392100	0.165600	0.945400
O271	O27	0.324800	0.130200	0.997800
O281	O28	0.344400	0.108800	0.767800
O291	O29	0.310500	0.076800	0.689000
O301	O30	0.442800	0.093600	0.482200
O311	O31	0.418100	0.014100	0.683200
O321	O32	0.365600	0.967300	0.588600
O331	O33	0.424600	0.975700	0.478000
O341	O34	0.348400	0.496300	0.083400
O351	O35	0.885000	0.421700	0.407100
O361	O36	0.835300	0.469200	0.500500
O371	O37	0.772600	0.494700	0.386400
O381	O38	0.727600	0.529000	0.485700
O391	O39	0.891700	0.208900	0.039900
O401	O40	0.883600	0.106400	0.988800
O411	O41	0.811900	0.539600	0.286800
O421	O42	0.879000	0.601000	0.295400
O431	O43	0.892100	0.334400	0.054600
O441	O44	0.824800	0.369800	0.002200
O451	O45	0.844400	0.391200	0.232200
O461	O46	0.810500	0.423200	0.311000
O471	O47	0.942800	0.406400	0.517800
O481	O48	0.918100	0.485900	0.316800
O491	O49	0.865600	0.532700	0.411400
O501	O50	0.924600	0.524300	0.522000
O511	O51	0.848400	0.003700	0.916600
O521	O52	0.615000	0.578300	0.907100
O531	O53	0.664700	0.530800	0.000500
O541	O54	0.727400	0.505300	0.886400
O551	O55	0.772400	0.471000	0.985700
O561	O56	0.608300	0.791100	0.539900
O571	O57	0.616400	0.893600	0.488800
O581	O58	0.688100	0.460400	0.786800
O591	O59	0.621000	0.399000	0.795400
O601	O60	0.607900	0.665600	0.554600
O611	O61	0.675200	0.630200	0.502200
O621	O62	0.655600	0.608800	0.732200
O631	O63	0.689500	0.576800	0.811000
O641	O64	0.557200	0.593600	0.017800
O651	O65	0.581900	0.514100	0.816800
O661	O66	0.634400	0.467300	0.911400
O671	O67	0.575400	0.475700	0.022000
O681	O68	0.651600	0.996300	0.416600
O691	O69	0.092900	0.115000	0.921700
O701	O70	0.999500	0.164700	0.969200
O711	O71	0.113600	0.227400	0.994700
O721	O72	0.014300	0.272400	0.029000
O731	O73	0.460100	0.108300	0.708900
O741	O74	0.511200	0.116400	0.606400
O751	O75	0.213200	0.188100	0.039600
O761	O76	0.204600	0.121000	0.101000
O771	O77	0.445400	0.107900	0.834400
O781	O78	0.497800	0.175200	0.869800
O791	O79	0.267800	0.155600	0.891200
O801	O80	0.189000	0.189500	0.923200
O811	O81	0.982200	0.057200	0.906400
O821	O82	0.183200	0.081900	0.985900
O831	O83	0.088600	0.134400	0.032700
O841	O84	0.978000	0.075400	0.024300
O851	O85	0.583400	0.151600	0.503700
O861	O86	0.592900	0.385000	0.078300
O871	O87	0.499500	0.335300	0.030800
O881	O88	0.613600	0.272600	0.005300
O891	O89	0.514300	0.227600	0.971000
O901	O90	0.960100	0.391700	0.291100
O911	O91	0.011200	0.383600	0.393600
O921	O92	0.713200	0.311900	0.960400
O931	O93	0.704600	0.379000	0.899000
O941	O94	0.945400	0.392100	0.165600
O951	O95	0.997800	0.324800	0.130200
O961	O96	0.767800	0.344400	0.108800
O971	O97	0.689000	0.310500	0.076800
O981	O98	0.482200	0.442800	0.093600
O991	O99	0.683200	0.418100	0.014100
O1001	O100	0.588600	0.365600	0.967300
O1011	O101	0.478000	0.424600	0.975700
O1021	O102	0.083400	0.348400	0.496300
O1031	O103	0.407100	0.885000	0.421700
O1041	O104	0.500500	0.835300	0.469200
O1051	O105	0.386400	0.772600	0.494700
O1061	O106	0.485700	0.727600	0.529000
O1071	O107	0.039900	0.891700	0.208900
O1081	O108	0.988800	0.883600	0.106400
O1091	O109	0.286800	0.811900	0.539600
O1101	O110	0.295400	0.879000	0.601000
O1111	O111	0.054600	0.892100	0.334400
O1121	O112	0.002200	0.824800	0.369800
O1131	O113	0.232200	0.844400	0.391200
O1141	O114	0.311000	0.810500	0.423200
O1151	O115	0.517800	0.942800	0.406400
O1161	O116	0.316800	0.918100	0.485900
O1171	O117	0.411400	0.865600	0.532700
O1181	O118	0.522000	0.924600	0.524300
O1191	O119	0.916600	0.848400	0.003700
O1201	O120	0.907100	0.615000	0.578300
O1211	O121	0.000500	0.664700	0.530800
O1221	O122	0.886400	0.727400	0.505300
O1231	O123	0.985700	0.772400	0.471000
O1241	O124	0.539900	0.608300	0.791100
O1251	O125	0.488800	0.616400	0.893600
O1261	O126	0.786800	0.688100	0.460400
O1271	O127	0.795400	0.621000	0.399000
O1281	O128	0.554600	0.607900	0.665600
O1291	O129	0.502200	0.675200	0.630200
O1301	O130	0.732200	0.655600	0.608800
O1311	O131	0.811000	0.689500	0.576800
O1321	O132	0.017800	0.557200	0.593600
O1331	O133	0.816800	0.581900	0.514100
O1341	O134	0.911400	0.634400	0.467300
O1351	O135	0.022000	0.575400	0.475700
O1361	O136	0.416600	0.651600	0.996300
O1371	O137	0.921700	0.092900	0.115000
O1381	O138	0.969200	0.999500	0.164700
O1391	O139	0.994700	0.113600	0.227400
O1401	O140	0.029000	0.014300	0.272400
O1411	O141	0.708900	0.460100	0.108300
O1421	O142	0.606400	0.511200	0.116400
O1431	O143	0.039600	0.213200	0.188100
O1441	O144	0.101000	0.204600	0.121000
O1451	O145	0.834400	0.445400	0.107900
O1461	O146	0.869800	0.497800	0.175200
O1471	O147	0.891200	0.267800	0.155600
O1481	O148	0.923200	0.189000	0.189500
O1491	O149	0.906400	0.982200	0.057200
O1501	O150	0.985900	0.183200	0.081900
O1511	O151	0.032700	0.088600	0.134400
O1521	O152	0.024300	0.978000	0.075400
O1531	O153	0.503700	0.583400	0.151600
O1541	O154	0.078300	0.592900	0.385000
O1551	O155	0.030800	0.499500	0.335300
O1561	O156	0.005300	0.613600	0.272600
O1571	O157	0.971000	0.514300	0.227600
O1581	O158	0.291100	0.960100	0.391700
O1591	O159	0.393600	0.011200	0.383600
O1601	O160	0.960400	0.713200	0.311900
O1611	O161	0.899000	0.704600	0.379000
O1621	O162	0.165600	0.945400	0.392100
O1631	O163	0.130200	0.997800	0.324800
O1641	O164	0.108800	0.767800	0.344400
O1651	O165	0.076800	0.689000	0.310500
O1661	O166	0.093600	0.482200	0.442800
O1671	O167	0.014100	0.683200	0.418100
O1681	O168	0.967300	0.588600	0.365600
O1691	O169	0.975700	0.478000	0.424600
O1701	O170	0.496300	0.083400	0.348400
O1711	O171	0.421700	0.407100	0.885000
O1721	O172	0.469200	0.500500	0.835300
O1731	O173	0.494700	0.386400	0.772600
O1741	O174	0.529000	0.485700	0.727600
O1751	O175	0.208900	0.039900	0.891700
O1761	O176	0.106400	0.988800	0.883600
O1771	O177	0.539600	0.286800	0.811900
O1781	O178	0.601000	0.295400	0.879000
O1791	O179	0.334400	0.054600	0.892100
O1801	O180	0.369800	0.002200	0.824800
O1811	O181	0.391200	0.232200	0.844400
O1821	O182	0.423200	0.311000	0.810500
O1831	O183	0.406400	0.517800	0.942800
O1841	O184	0.485900	0.316800	0.918100
O1851	O185	0.532700	0.411400	0.865600
O1861	O186	0.524300	0.522000	0.924600
O1871	O187	0.003700	0.916600	0.848400
O1881	O188	0.578300	0.907100	0.615000
O1891	O189	0.530800	0.000500	0.664700
O1901	O190	0.505300	0.886400	0.727400
O1911	O191	0.471000	0.985700	0.772400
O1921	O192	0.791100	0.539900	0.608300
O1931	O193	0.893600	0.488800	0.616400
O1941	O194	0.460400	0.786800	0.688100
O1951	O195	0.399000	0.795400	0.621000
O1961	O196	0.665600	0.554600	0.607900
O1971	O197	0.630200	0.502200	0.675200
O1981	O198	0.608800	0.732200	0.655600
O1991	O199	0.576800	0.811000	0.689500
O2001	O200	0.593600	0.017800	0.557200
O2011	O201	0.514100	0.816800	0.581900
O2021	O202	0.467300	0.911400	0.634400
O2031	O203	0.475700	0.022000	0.575400
O2041	O204	0.996300	0.416600	0.651600
O2051	O205	0.039800	0.460200	0.539800
O2061	O206	0.460200	0.539800	0.039800
O2071	O207	0.960200	0.960200	0.960200
O2081	O208	0.539800	0.039800	0.460200
