data_GESDUF_clean_PM
_symmetry_space_group_name_H-M	'P1'
_cell_length_a	8.145500
_cell_length_b	13.186900
_cell_length_c	19.366500
_cell_angle_alpha	109.905000
_cell_angle_beta	99.439200
_cell_angle_gamma	90.000000
_symmetry_Int_Tables_number 1

loop_
_symmetry_equiv_pos_as_xyz
'x,y,z'

loop_
_atom_site_label
_atom_site_type_symbol
_atom_site_fract_x
_atom_site_fract_y
_atom_site_fract_z
Co11	Co1	0.000000	0.000000	0.000000
Co21	Co2	0.500000	0.000000	0.000000
H11	H1	0.045000	0.643700	0.750600
H21	H2	0.896800	0.545600	0.636000
H31	H3	0.513700	0.732000	0.678600
H41	H4	0.663100	0.831300	0.793400
H51	H5	0.655900	0.439500	0.654400
H61	H6	0.808900	0.326300	0.693800
H71	H7	0.659500	0.341600	0.737400
H81	H8	0.761700	0.238100	0.725800
H91	H9	0.408600	0.058800	0.402400
H101	H10	0.329400	0.988200	0.440600
H111	H11	0.239800	0.089000	0.431000
H121	H12	0.344000	0.238900	0.425800
H131	H13	0.455000	0.893100	0.249400
H141	H14	0.603200	0.909600	0.364000
H151	H15	0.986300	0.053400	0.321400
H161	H16	0.836900	0.037900	0.206600
H171	H17	0.844100	0.785100	0.345600
H181	H18	0.691100	0.632500	0.306200
H191	H19	0.840500	0.604200	0.262600
H201	H20	0.738300	0.512300	0.274200
H211	H21	0.091400	0.656400	0.597600
H221	H22	0.170600	0.547600	0.559400
H231	H23	0.260200	0.658000	0.569000
H241	H24	0.156000	0.813100	0.574200
H251	H25	0.955000	0.356300	0.249400
H261	H26	0.103200	0.454400	0.364000
H271	H27	0.486300	0.268000	0.321400
H281	H28	0.336900	0.168700	0.206600
H291	H29	0.344100	0.560500	0.345600
H301	H30	0.191100	0.673700	0.306200
H311	H31	0.340500	0.658400	0.262600
H321	H32	0.238300	0.761900	0.274200
H331	H33	0.591400	0.941200	0.597600
H341	H34	0.670600	0.011800	0.559400
H351	H35	0.760200	0.911000	0.569000
H361	H36	0.656000	0.761100	0.574200
H371	H37	0.545000	0.106900	0.750600
H381	H38	0.396800	0.090400	0.636000
H391	H39	0.013700	0.946600	0.678600
H401	H40	0.163100	0.962100	0.793400
H411	H41	0.155900	0.214900	0.654400
H421	H42	0.308900	0.367500	0.693800
H431	H43	0.159500	0.395800	0.737400
H441	H44	0.261700	0.487700	0.725800
H451	H45	0.908600	0.343600	0.402400
H461	H46	0.829400	0.452400	0.440600
H471	H47	0.739800	0.342000	0.431000
H481	H48	0.844000	0.186900	0.425800
C11	C1	0.966100	0.808460	0.860120
C21	C2	0.869200	0.746570	0.784940
C31	C3	0.937300	0.661430	0.736460
C41	C4	0.848500	0.602740	0.667680
C51	C5	0.689200	0.627120	0.644840
C61	C6	0.621000	0.713860	0.693120
C71	C7	0.710100	0.773000	0.762000
C81	C8	0.593000	0.561930	0.570460
C91	C9	0.548400	0.452940	0.554880
C101	C10	0.597200	0.399670	0.607340
C111	C11	0.561000	0.293650	0.590900
C121	C12	0.718500	0.289860	0.703720
C131	C13	0.464600	0.231350	0.520500
C141	C14	0.346000	0.060260	0.440520
C151	C15	0.411100	0.279260	0.470520
C161	C16	0.454000	0.390410	0.483820
C171	C17	0.533900	0.948340	0.139880
C181	C18	0.630800	0.961630	0.215060
C191	C19	0.562700	0.924970	0.263540
C201	C20	0.651500	0.935060	0.332320
C211	C21	0.810800	0.982280	0.355160
C221	C22	0.879000	0.020740	0.306880
C231	C23	0.789900	0.011000	0.238000
C241	C24	0.907000	0.991470	0.429540
C251	C25	0.951600	0.898060	0.445120
C261	C26	0.902800	0.792330	0.392660
C271	C27	0.939000	0.702750	0.409100
C281	C28	0.781500	0.586140	0.296280
C291	C29	0.035400	0.710850	0.479500
C301	C30	0.154000	0.619740	0.559480
C311	C31	0.088900	0.808740	0.529480
C321	C32	0.046000	0.906590	0.516180
C331	C33	0.033900	0.191540	0.139880
C341	C34	0.130800	0.253430	0.215060
C351	C35	0.062700	0.338570	0.263540
C361	C36	0.151500	0.397260	0.332320
C371	C37	0.310800	0.372880	0.355160
C381	C38	0.379000	0.286140	0.306880
C391	C39	0.289900	0.227000	0.238000
C401	C40	0.407000	0.438070	0.429540
C411	C41	0.451600	0.547060	0.445120
C421	C42	0.402800	0.600330	0.392660
C431	C43	0.439000	0.706350	0.409100
C441	C44	0.281500	0.710140	0.296280
C451	C45	0.535400	0.768650	0.479500
C461	C46	0.654000	0.939740	0.559480
C471	C47	0.588900	0.720740	0.529480
C481	C48	0.546000	0.609590	0.516180
C491	C49	0.466100	0.051660	0.860120
C501	C50	0.369200	0.038370	0.784940
C511	C51	0.437300	0.075030	0.736460
C521	C52	0.348500	0.064940	0.667680
C531	C53	0.189200	0.017720	0.644840
C541	C54	0.121000	0.979260	0.693120
C551	C55	0.210100	0.989000	0.762000
C561	C56	0.093000	0.008530	0.570460
C571	C57	0.048400	0.101940	0.554880
C581	C58	0.097200	0.207670	0.607340
C591	C59	0.061000	0.297250	0.590900
C601	C60	0.218500	0.413860	0.703720
C611	C61	0.964600	0.289150	0.520500
C621	C62	0.846000	0.380260	0.440520
C631	C63	0.911100	0.191260	0.470520
C641	C64	0.954000	0.093410	0.483820
O11	O1	0.892400	0.879550	0.904840
O21	O2	0.112700	0.787980	0.875760
O31	O3	0.609000	0.236280	0.636660
O41	O4	0.435200	0.126460	0.511080
O51	O5	0.607600	0.974710	0.095160
O61	O6	0.387300	0.912220	0.124240
O71	O7	0.891000	0.599620	0.363340
O81	O8	0.064800	0.615380	0.488920
O91	O9	0.107600	0.120450	0.095160
O101	O10	0.887300	0.212020	0.124240
O111	O11	0.391000	0.763720	0.363340
O121	O12	0.564800	0.873540	0.488920
O131	O13	0.392400	0.025290	0.904840
O141	O14	0.612700	0.087780	0.875760
O151	O15	0.109000	0.400380	0.636660
O161	O16	0.935200	0.384620	0.511080
O171	O17	0.750000	0.066600	0.000000
O181	O18	0.250000	0.933400	0.000000
