data_GEZFOI_charged_PM
_symmetry_space_group_name_H-M	'P1'
_cell_length_a	10.541500
_cell_length_b	10.541500
_cell_length_c	16.998100
_cell_angle_alpha	77.799000
_cell_angle_beta	73.361000
_cell_angle_gamma	101.390000
_symmetry_Int_Tables_number 1

loop_
_symmetry_equiv_pos_as_xyz
'x,y,z'

loop_
_atom_site_label
_atom_site_type_symbol
_atom_site_fract_x
_atom_site_fract_y
_atom_site_fract_z
Cd11	Cd1	0.500000	0.500000	0.000000
Cd21	Cd2	0.000000	0.500000	0.500000
H11	H1	0.193600	0.395200	0.754400
H21	H2	0.095400	0.503500	0.665300
H31	H3	0.149100	0.259100	0.522400
H41	H4	0.240500	0.138400	0.608700
H51	H5	0.446700	0.428500	0.714600
H61	H6	0.523300	0.530100	0.807400
H71	H7	0.326600	0.203500	0.999900
H81	H8	0.241000	0.092900	0.911700
H91	H9	0.286500	0.026200	0.698700
H101	H10	0.649600	0.948000	0.745600
H111	H11	0.668800	0.760700	0.834700
H121	H12	0.281500	0.671500	0.977600
H131	H13	0.247100	0.849200	0.891300
H141	H14	0.643100	0.161300	0.785400
H151	H15	0.837500	0.330700	0.692600
H161	H16	0.703400	0.326500	0.500100
H171	H17	0.504600	0.152700	0.588300
H181	H18	0.224900	0.985200	0.801300
H191	H19	0.806400	0.604800	0.245600
H201	H20	0.904600	0.496500	0.334700
H211	H21	0.850900	0.740900	0.477600
H221	H22	0.759500	0.861600	0.391300
H231	H23	0.553300	0.571500	0.285400
H241	H24	0.476700	0.469900	0.192600
H251	H25	0.673400	0.796500	0.000100
H261	H26	0.759000	0.907100	0.088300
H271	H27	0.713500	0.973800	0.301300
H281	H28	0.350400	0.052000	0.254400
H291	H29	0.331200	0.239300	0.165300
H301	H30	0.718500	0.328500	0.022400
H311	H31	0.752900	0.150800	0.108700
H321	H32	0.356900	0.838700	0.214600
H331	H33	0.162500	0.669300	0.307400
H341	H34	0.296600	0.673500	0.499900
H351	H35	0.495400	0.847300	0.411700
H361	H36	0.775100	0.014800	0.198700
C11	C1	0.184700	0.364100	0.707200
C21	C2	0.126200	0.428500	0.653300
C31	C3	0.156300	0.286100	0.571200
C41	C4	0.213200	0.214400	0.621600
C51	C5	0.231000	0.252800	0.692000
C61	C6	0.334900	0.250300	0.803000
C71	C7	0.419300	0.380000	0.773300
C81	C8	0.464600	0.440400	0.829200
C91	C9	0.349700	0.250600	0.941300
C101	C10	0.298800	0.182900	0.888700
C111	C11	0.571300	0.891900	0.792800
C121	C12	0.581800	0.779500	0.846700
C131	C13	0.357300	0.727500	0.928800
C141	C14	0.336000	0.834800	0.878400
C151	C15	0.444800	0.923000	0.808000
C161	C16	0.553300	0.137900	0.697000
C171	C17	0.653300	0.192600	0.726700
C181	C18	0.769600	0.293800	0.670800
C191	C19	0.691900	0.291000	0.558700
C201	C20	0.571600	0.187500	0.611300
C211	C21	0.815300	0.635900	0.292800
C221	C22	0.873800	0.571500	0.346700
C231	C23	0.843700	0.713900	0.428800
C241	C24	0.786800	0.785600	0.378400
C251	C25	0.769000	0.747200	0.308000
C261	C26	0.665100	0.749700	0.197000
C271	C27	0.580700	0.620000	0.226700
C281	C28	0.535400	0.559600	0.170800
C291	C29	0.650300	0.749400	0.058700
C301	C30	0.701200	0.817100	0.111300
C311	C31	0.428700	0.108100	0.207200
C321	C32	0.418200	0.220500	0.153300
C331	C33	0.642700	0.272500	0.071200
C341	C34	0.664000	0.165200	0.121600
C351	C35	0.555200	0.077000	0.192000
C361	C36	0.446700	0.862100	0.303000
C371	C37	0.346700	0.807400	0.273300
C381	C38	0.230400	0.706200	0.329200
C391	C39	0.308100	0.709000	0.441300
C401	C40	0.428400	0.812500	0.388700
C411	C41	0.299200	0.049200	0.750000
C421	C42	0.700800	0.950800	0.250000
N11	N1	0.109900	0.391700	0.585200
N21	N2	0.291300	0.187100	0.746000
N31	N3	0.428400	0.376900	0.912900
N41	N4	0.476900	0.695100	0.914800
N51	N5	0.433100	0.037300	0.754000
N61	N6	0.789800	0.341300	0.587100
N71	N7	0.890100	0.608300	0.414800
N81	N8	0.708700	0.812900	0.254000
N91	N9	0.571600	0.623100	0.087100
N101	N10	0.523100	0.304900	0.085200
N111	N11	0.566900	0.962700	0.246000
N121	N12	0.210200	0.658700	0.412900
O11	O1	0.726100	0.553300	0.908400
O21	O2	0.961700	0.634500	0.591600
O31	O3	0.273900	0.446700	0.091600
O41	O4	0.038300	0.365500	0.408400
N131	N13	0.918400	0.032900	0.835900
O51	O5	0.945500	0.950100	0.801400
O61	O6	0.940700	0.036500	0.897000
O71	O7	0.868500	0.113100	0.807800
N141	N14	0.368800	0.754300	0.664100
O81	O8	0.251500	0.746900	0.698600
O91	O9	0.433500	0.837700	0.603000
O101	O10	0.420900	0.676300	0.692200
N151	N15	0.081600	0.967100	0.164100
O111	O11	0.054500	0.049900	0.198600
O121	O12	0.059300	0.963500	0.103000
O131	O13	0.131500	0.886900	0.192200
N161	N16	0.631200	0.245700	0.335900
O141	O14	0.748500	0.253100	0.301400
O151	O15	0.566500	0.162300	0.397000
O161	O16	0.579100	0.323700	0.307800
