data_GEZYOB_clean_PM
_symmetry_space_group_name_H-M	'P1'
_cell_length_a	13.412500
_cell_length_b	13.412500
_cell_length_c	27.800300
_cell_angle_alpha	90.000000
_cell_angle_beta	90.000000
_cell_angle_gamma	120.000000
_symmetry_Int_Tables_number 1

loop_
_symmetry_equiv_pos_as_xyz
'x,y,z'

loop_
_atom_site_label
_atom_site_type_symbol
_atom_site_fract_x
_atom_site_fract_y
_atom_site_fract_z
V11	V1	0.292510	0.856850	0.526860
P11	P1	0.162810	0.975330	0.584040
P21	P2	0.126900	0.630240	0.463860
O11	O1	0.150200	0.717000	0.503770
O21	O2	0.168200	0.547100	0.475670
O31	O3	0.000500	0.569700	0.450090
O41	O4	0.186600	0.879600	0.569800
O51	O5	0.326000	0.772600	0.575920
O61	O6	0.258000	0.947400	0.473940
O71	O7	0.141200	0.080700	0.704470
O81	O8	0.071300	0.929600	0.622490
O91	O9	0.136400	0.028600	0.540500
H11	H1	0.165000	0.674000	0.419800
H21	H2	0.259000	0.060000	0.603900
H31	H3	0.190000	0.935000	0.473000
V21	V2	0.143150	0.435660	0.526860
P31	P3	0.024670	0.187480	0.584040
P41	P4	0.369760	0.496660	0.463860
O101	O10	0.283000	0.433200	0.503770
O111	O11	0.452900	0.621100	0.475670
O121	O12	0.430300	0.430800	0.450090
O131	O13	0.120400	0.307000	0.569800
O141	O14	0.227400	0.553400	0.575920
O151	O15	0.052600	0.310600	0.473940
O161	O16	0.919300	0.060500	0.704470
O171	O17	0.070400	0.141700	0.622490
O181	O18	0.971400	0.107800	0.540500
H41	H4	0.326000	0.491000	0.419800
H51	H5	0.940000	0.199000	0.603900
H61	H6	0.065000	0.255000	0.473000
V31	V3	0.564340	0.707490	0.526860
P51	P5	0.812520	0.837190	0.584040
P61	P6	0.503340	0.873100	0.463860
O191	O19	0.566800	0.849800	0.503770
O201	O20	0.378900	0.831800	0.475670
O211	O21	0.569200	0.999500	0.450090
O221	O22	0.693000	0.813400	0.569800
O231	O23	0.446600	0.674000	0.575920
O241	O24	0.689400	0.742000	0.473940
O251	O25	0.939500	0.858800	0.704470
O261	O26	0.858300	0.928700	0.622490
O271	O27	0.892200	0.863600	0.540500
H71	H7	0.509000	0.835000	0.419800
H81	H8	0.801000	0.741000	0.603900
H91	H9	0.745000	0.810000	0.473000
V41	V4	0.707490	0.143150	0.026860
P71	P7	0.837190	0.024670	0.084040
P81	P8	0.873100	0.369760	0.963860
O281	O28	0.849800	0.283000	0.003770
O291	O29	0.831800	0.452900	0.975670
O301	O30	0.999500	0.430300	0.950090
O311	O31	0.813400	0.120400	0.069800
O321	O32	0.674000	0.227400	0.075920
O331	O33	0.742000	0.052600	0.973940
O341	O34	0.858800	0.919300	0.204470
O351	O35	0.928700	0.070400	0.122490
O361	O36	0.863600	0.971400	0.040500
H101	H10	0.835000	0.326000	0.919800
H111	H11	0.741000	0.940000	0.103900
H121	H12	0.810000	0.065000	0.973000
V51	V5	0.856850	0.564340	0.026860
P91	P9	0.975330	0.812520	0.084040
P101	P10	0.630240	0.503340	0.963860
O371	O37	0.717000	0.566800	0.003770
O381	O38	0.547100	0.378900	0.975670
O391	O39	0.569700	0.569200	0.950090
O401	O40	0.879600	0.693000	0.069800
O411	O41	0.772600	0.446600	0.075920
O421	O42	0.947400	0.689400	0.973940
O431	O43	0.080700	0.939500	0.204470
O441	O44	0.929600	0.858300	0.122490
O451	O45	0.028600	0.892200	0.040500
H131	H13	0.674000	0.509000	0.919800
H141	H14	0.060000	0.801000	0.103900
H151	H15	0.935000	0.745000	0.973000
V61	V6	0.435660	0.292510	0.026860
P111	P11	0.187480	0.162810	0.084040
P121	P12	0.496660	0.126900	0.963860
O461	O46	0.433200	0.150200	0.003770
O471	O47	0.621100	0.168200	0.975670
O481	O48	0.430800	0.000500	0.950090
O491	O49	0.307000	0.186600	0.069800
O501	O50	0.553400	0.326000	0.075920
O511	O51	0.310600	0.258000	0.973940
O521	O52	0.060500	0.141200	0.204470
O531	O53	0.141700	0.071300	0.122490
O541	O54	0.107800	0.136400	0.040500
H161	H16	0.491000	0.165000	0.919800
H171	H17	0.199000	0.259000	0.103900
H181	H18	0.255000	0.190000	0.973000
V71	V7	0.707490	0.143150	0.473140
P131	P13	0.837190	0.024670	0.415960
P141	P14	0.873100	0.369760	0.536140
O551	O55	0.849800	0.283000	0.496230
O561	O56	0.831800	0.452900	0.524330
O571	O57	0.999500	0.430300	0.549910
O581	O58	0.813400	0.120400	0.430200
O591	O59	0.674000	0.227400	0.424080
O601	O60	0.742000	0.052600	0.526060
O611	O61	0.858800	0.919300	0.295530
O621	O62	0.928700	0.070400	0.377510
O631	O63	0.863600	0.971400	0.459500
H191	H19	0.835000	0.326000	0.580200
H201	H20	0.741000	0.940000	0.396100
H211	H21	0.810000	0.065000	0.527000
V81	V8	0.856850	0.564340	0.473140
P151	P15	0.975330	0.812520	0.415960
P161	P16	0.630240	0.503340	0.536140
O641	O64	0.717000	0.566800	0.496230
O651	O65	0.547100	0.378900	0.524330
O661	O66	0.569700	0.569200	0.549910
O671	O67	0.879600	0.693000	0.430200
O681	O68	0.772600	0.446600	0.424080
O691	O69	0.947400	0.689400	0.526060
O701	O70	0.080700	0.939500	0.295530
O711	O71	0.929600	0.858300	0.377510
O721	O72	0.028600	0.892200	0.459500
H221	H22	0.674000	0.509000	0.580200
H231	H23	0.060000	0.801000	0.396100
H241	H24	0.935000	0.745000	0.527000
V91	V9	0.435660	0.292510	0.473140
P171	P17	0.187480	0.162810	0.415960
P181	P18	0.496660	0.126900	0.536140
O731	O73	0.433200	0.150200	0.496230
O741	O74	0.621100	0.168200	0.524330
O751	O75	0.430800	0.000500	0.549910
O761	O76	0.307000	0.186600	0.430200
O771	O77	0.553400	0.326000	0.424080
O781	O78	0.310600	0.258000	0.526060
O791	O79	0.060500	0.141200	0.295530
O801	O80	0.141700	0.071300	0.377510
O811	O81	0.107800	0.136400	0.459500
H251	H25	0.491000	0.165000	0.580200
H261	H26	0.199000	0.259000	0.396100
H271	H27	0.255000	0.190000	0.527000
V101	V10	0.292510	0.856850	0.973140
P191	P19	0.162810	0.975330	0.915960
P201	P20	0.126900	0.630240	0.036140
O821	O82	0.150200	0.717000	0.996230
O831	O83	0.168200	0.547100	0.024330
O841	O84	0.000500	0.569700	0.049910
O851	O85	0.186600	0.879600	0.930200
O861	O86	0.326000	0.772600	0.924080
O871	O87	0.258000	0.947400	0.026060
O881	O88	0.141200	0.080700	0.795530
O891	O89	0.071300	0.929600	0.877510
O901	O90	0.136400	0.028600	0.959500
H281	H28	0.165000	0.674000	0.080200
H291	H29	0.259000	0.060000	0.896100
H301	H30	0.190000	0.935000	0.027000
V111	V11	0.143150	0.435660	0.973140
P211	P21	0.024670	0.187480	0.915960
P221	P22	0.369760	0.496660	0.036140
O911	O91	0.283000	0.433200	0.996230
O921	O92	0.452900	0.621100	0.024330
O931	O93	0.430300	0.430800	0.049910
O941	O94	0.120400	0.307000	0.930200
O951	O95	0.227400	0.553400	0.924080
O961	O96	0.052600	0.310600	0.026060
O971	O97	0.919300	0.060500	0.795530
O981	O98	0.070400	0.141700	0.877510
O991	O99	0.971400	0.107800	0.959500
H311	H31	0.326000	0.491000	0.080200
H321	H32	0.940000	0.199000	0.896100
H331	H33	0.065000	0.255000	0.027000
V121	V12	0.564340	0.707490	0.973140
P231	P23	0.812520	0.837190	0.915960
P241	P24	0.503340	0.873100	0.036140
O1001	O100	0.566800	0.849800	0.996230
O1011	O101	0.378900	0.831800	0.024330
O1021	O102	0.569200	0.999500	0.049910
O1031	O103	0.693000	0.813400	0.930200
O1041	O104	0.446600	0.674000	0.924080
O1051	O105	0.689400	0.742000	0.026060
O1061	O106	0.939500	0.858800	0.795530
O1071	O107	0.858300	0.928700	0.877510
O1081	O108	0.892200	0.863600	0.959500
H341	H34	0.509000	0.835000	0.080200
H351	H35	0.801000	0.741000	0.896100
H361	H36	0.745000	0.810000	0.027000
V131	V13	0.000000	0.000000	0.500000
V141	V14	0.000000	0.000000	0.000000
V151	V15	0.000000	0.000000	0.664290
V161	V16	0.000000	0.000000	0.164290
V171	V17	0.000000	0.000000	0.335710
V181	V18	0.000000	0.000000	0.835710
P251	P25	0.333330	0.666670	0.589620
H371	H37	0.333330	0.666670	0.638400
P261	P26	0.666670	0.333330	0.089620
H381	H38	0.666670	0.333330	0.138400
P271	P27	0.666670	0.333330	0.410380
H391	H39	0.666670	0.333330	0.361600
P281	P28	0.333330	0.666670	0.910380
H401	H40	0.333330	0.666670	0.861600
P291	P29	0.191210	0.065940	0.750000
O1091	O109	0.320900	0.150600	0.750000
H411	H41	0.355600	0.114700	0.750000
H421	H42	0.194000	0.964000	0.750000
P301	P30	0.934060	0.125270	0.750000
O1101	O110	0.849400	0.170300	0.750000
H431	H43	0.885300	0.240900	0.750000
H441	H44	0.036000	0.230000	0.750000
P311	P31	0.874730	0.808790	0.750000
O1111	O111	0.829700	0.679100	0.750000
H451	H45	0.759100	0.644400	0.750000
H461	H46	0.770000	0.806000	0.750000
P321	P32	0.808790	0.934060	0.250000
O1121	O112	0.679100	0.849400	0.250000
H471	H47	0.644400	0.885300	0.250000
H481	H48	0.806000	0.036000	0.250000
P331	P33	0.065940	0.874730	0.250000
O1131	O113	0.150600	0.829700	0.250000
H491	H49	0.114700	0.759100	0.250000
H501	H50	0.964000	0.770000	0.250000
P341	P34	0.125270	0.191210	0.250000
O1141	O114	0.170300	0.320900	0.250000
H511	H51	0.240900	0.355600	0.250000
H521	H52	0.230000	0.194000	0.250000
