data_GIDKOU_clean_PM
_symmetry_space_group_name_H-M	'P1'
_cell_length_a	14.161300
_cell_length_b	15.676400
_cell_length_c	16.134500
_cell_angle_alpha	90.000000
_cell_angle_beta	90.000000
_cell_angle_gamma	90.000000
_symmetry_Int_Tables_number 1

loop_
_symmetry_equiv_pos_as_xyz
'x,y,z'

loop_
_atom_site_label
_atom_site_type_symbol
_atom_site_fract_x
_atom_site_fract_y
_atom_site_fract_z
Zn11	Zn1	0.620420	0.514810	0.312290
Zn21	Zn2	0.645970	0.569390	0.721830
Zn31	Zn3	0.879580	0.485190	0.812290
Zn41	Zn4	0.854030	0.430610	0.221830
Zn51	Zn5	0.379580	0.014810	0.187710
Zn61	Zn6	0.354030	0.069390	0.778170
Zn71	Zn7	0.120420	0.985190	0.687710
Zn81	Zn8	0.145970	0.930610	0.278170
Zn91	Zn9	0.379580	0.485190	0.687710
Zn101	Zn10	0.354030	0.430610	0.278170
Zn111	Zn11	0.120420	0.514810	0.187710
Zn121	Zn12	0.145970	0.569390	0.778170
Zn131	Zn13	0.620420	0.985190	0.812290
Zn141	Zn14	0.645970	0.930610	0.221830
Zn151	Zn15	0.879580	0.014810	0.312290
Zn161	Zn16	0.854030	0.069390	0.721830
Zn171	Zn17	0.000000	0.500000	0.500000
Zn181	Zn18	0.500000	0.500000	0.000000
Zn191	Zn19	0.000000	0.000000	0.000000
Zn201	Zn20	0.500000	0.000000	0.500000
H11	H1	0.715300	0.730100	0.299100
H21	H2	0.553000	0.573700	0.519200
H31	H3	0.344700	0.821300	0.133800
H41	H4	0.784700	0.269900	0.799100
H51	H5	0.947000	0.426300	0.019200
H61	H6	0.155300	0.178700	0.633800
H71	H7	0.284700	0.230100	0.200900
H81	H8	0.447000	0.073700	0.980800
H91	H9	0.655300	0.321300	0.366200
H101	H10	0.215300	0.769900	0.700900
H111	H11	0.053000	0.926300	0.480800
H121	H12	0.844700	0.678700	0.866200
H131	H13	0.284700	0.269900	0.700900
H141	H14	0.447000	0.426300	0.480800
H151	H15	0.655300	0.178700	0.866200
H161	H16	0.215300	0.730100	0.200900
H171	H17	0.053000	0.573700	0.980800
H181	H18	0.844700	0.821300	0.366200
H191	H19	0.715300	0.769900	0.799100
H201	H20	0.553000	0.926300	0.019200
H211	H21	0.344700	0.678700	0.633800
H221	H22	0.784700	0.230100	0.299100
H231	H23	0.947000	0.073700	0.519200
H241	H24	0.155300	0.321300	0.133800
C11	C1	0.524800	0.762200	0.219500
C21	C2	0.521300	0.676500	0.241000
C31	C3	0.654500	0.726700	0.277500
C41	C4	0.453600	0.818500	0.181900
C51	C5	0.444400	0.612900	0.233600
C61	C6	0.742500	0.497900	0.473100
C71	C7	0.750900	0.511800	0.557700
C81	C8	0.614100	0.551900	0.518000
C91	C9	0.807100	0.462600	0.407700
C101	C10	0.826900	0.496200	0.621300
C111	C11	0.975200	0.237800	0.719500
C121	C12	0.978700	0.323500	0.741000
C131	C13	0.845500	0.273300	0.777500
C141	C14	0.046400	0.181500	0.681900
C151	C15	0.055600	0.387100	0.733600
C161	C16	0.757500	0.502100	0.973100
C171	C17	0.749100	0.488200	0.057700
C181	C18	0.885900	0.448100	0.018000
C191	C19	0.692900	0.537400	0.907700
C201	C20	0.673100	0.503800	0.121300
C211	C21	0.475200	0.262200	0.280500
C221	C22	0.478700	0.176500	0.259000
C231	C23	0.345500	0.226700	0.222500
C241	C24	0.546400	0.318500	0.318100
C251	C25	0.555600	0.112900	0.266400
C261	C26	0.257500	0.997900	0.026900
C271	C27	0.249100	0.011800	0.942300
C281	C28	0.385900	0.051900	0.982000
C291	C29	0.192900	0.962600	0.092300
C301	C30	0.173100	0.996200	0.878700
C311	C31	0.024800	0.737800	0.780500
C321	C32	0.021300	0.823500	0.759000
C331	C33	0.154500	0.773300	0.722500
C341	C34	0.953600	0.681500	0.818100
C351	C35	0.944400	0.887100	0.766400
C361	C36	0.242500	0.002100	0.526900
C371	C37	0.250900	0.988200	0.442300
C381	C38	0.114100	0.948100	0.482000
C391	C39	0.307100	0.037400	0.592300
C401	C40	0.326900	0.003800	0.378700
C411	C41	0.475200	0.237800	0.780500
C421	C42	0.478700	0.323500	0.759000
C431	C43	0.345500	0.273300	0.722500
C441	C44	0.546400	0.181500	0.818100
C451	C45	0.555600	0.387100	0.766400
C461	C46	0.257500	0.502100	0.526900
C471	C47	0.249100	0.488200	0.442300
C481	C48	0.385900	0.448100	0.482000
C491	C49	0.192900	0.537400	0.592300
C501	C50	0.173100	0.503800	0.378700
C511	C51	0.024800	0.762200	0.280500
C521	C52	0.021300	0.676500	0.259000
C531	C53	0.154500	0.726700	0.222500
C541	C54	0.953600	0.818500	0.318100
C551	C55	0.944400	0.612900	0.266400
C561	C56	0.242500	0.497900	0.026900
C571	C57	0.250900	0.511800	0.942300
C581	C58	0.114100	0.551900	0.982000
C591	C59	0.307100	0.462600	0.092300
C601	C60	0.326900	0.496200	0.878700
C611	C61	0.524800	0.737800	0.719500
C621	C62	0.521300	0.823500	0.741000
C631	C63	0.654500	0.773300	0.777500
C641	C64	0.453600	0.681500	0.681900
C651	C65	0.444400	0.887100	0.733600
C661	C66	0.742500	0.002100	0.973100
C671	C67	0.750900	0.988200	0.057700
C681	C68	0.614100	0.948100	0.018000
C691	C69	0.807100	0.037400	0.907700
C701	C70	0.826900	0.003800	0.121300
C711	C71	0.975200	0.262200	0.219500
C721	C72	0.978700	0.176500	0.241000
C731	C73	0.845500	0.226700	0.277500
C741	C74	0.046400	0.318500	0.181900
C751	C75	0.055600	0.112900	0.233600
C761	C76	0.757500	0.997900	0.473100
C771	C77	0.749100	0.011800	0.557700
C781	C78	0.885900	0.051900	0.518000
C791	C79	0.692900	0.962600	0.407700
C801	C80	0.673100	0.996200	0.621300
N11	N1	0.610800	0.792800	0.243300
N21	N2	0.604400	0.655500	0.278400
N31	N3	0.654500	0.524300	0.449300
N41	N4	0.668200	0.546100	0.585600
N51	N5	0.889200	0.207200	0.743300
N61	N6	0.895600	0.344500	0.778400
N71	N7	0.845500	0.475700	0.949300
N81	N8	0.831800	0.453900	0.085600
N91	N9	0.389200	0.292800	0.256700
N101	N10	0.395600	0.155500	0.221600
N111	N11	0.345500	0.024300	0.050700
N121	N12	0.331800	0.046100	0.914400
N131	N13	0.110800	0.707200	0.756700
N141	N14	0.104400	0.844500	0.721600
N151	N15	0.154500	0.975700	0.550700
N161	N16	0.168200	0.953900	0.414400
N171	N17	0.389200	0.207200	0.756700
N181	N18	0.395600	0.344500	0.721600
N191	N19	0.345500	0.475700	0.550700
N201	N20	0.331800	0.453900	0.414400
N211	N21	0.110800	0.792800	0.256700
N221	N22	0.104400	0.655500	0.221600
N231	N23	0.154500	0.524300	0.050700
N241	N24	0.168200	0.546100	0.914400
N251	N25	0.610800	0.707200	0.743300
N261	N26	0.604400	0.844500	0.778400
N271	N27	0.654500	0.975700	0.949300
N281	N28	0.668200	0.953900	0.085600
N291	N29	0.889200	0.292800	0.243300
N301	N30	0.895600	0.155500	0.278400
N311	N31	0.845500	0.024300	0.449300
N321	N32	0.831800	0.046100	0.585600
O11	O1	0.473900	0.895100	0.173900
O21	O2	0.375300	0.786000	0.160000
O31	O3	0.368100	0.634500	0.198100
O41	O4	0.457600	0.541900	0.265000
O51	O5	0.768900	0.453700	0.337500
O61	O6	0.890200	0.441800	0.420700
O71	O7	0.902700	0.461300	0.603700
O81	O8	0.806100	0.521200	0.693000
O91	O9	0.026100	0.104900	0.673900
O101	O10	0.124700	0.214000	0.660000
O111	O11	0.131900	0.365500	0.698100
O121	O12	0.042400	0.458100	0.765000
O131	O13	0.731100	0.546300	0.837500
O141	O14	0.609800	0.558200	0.920700
O151	O15	0.597300	0.538700	0.103700
O161	O16	0.693900	0.478800	0.193000
O171	O17	0.526100	0.395100	0.326100
O181	O18	0.624700	0.286000	0.340000
O191	O19	0.631900	0.134500	0.301900
O201	O20	0.542400	0.041900	0.235000
O211	O21	0.231100	0.953700	0.162500
O221	O22	0.109800	0.941800	0.079300
O231	O23	0.097300	0.961300	0.896300
O241	O24	0.193900	0.021200	0.807000
O251	O25	0.973900	0.604900	0.826100
O261	O26	0.875300	0.714000	0.840000
O271	O27	0.868100	0.865500	0.801900
O281	O28	0.957600	0.958100	0.735000
O291	O29	0.268900	0.046300	0.662500
O301	O30	0.390200	0.058200	0.579300
O311	O31	0.402700	0.038700	0.396300
O321	O32	0.306100	0.978800	0.307000
O331	O33	0.526100	0.104900	0.826100
O341	O34	0.624700	0.214000	0.840000
O351	O35	0.631900	0.365500	0.801900
O361	O36	0.542400	0.458100	0.735000
O371	O37	0.231100	0.546300	0.662500
O381	O38	0.109800	0.558200	0.579300
O391	O39	0.097300	0.538700	0.396300
O401	O40	0.193900	0.478800	0.307000
O411	O41	0.973900	0.895100	0.326100
O421	O42	0.875300	0.786000	0.340000
O431	O43	0.868100	0.634500	0.301900
O441	O44	0.957600	0.541900	0.235000
O451	O45	0.268900	0.453700	0.162500
O461	O46	0.390200	0.441800	0.079300
O471	O47	0.402700	0.461300	0.896300
O481	O48	0.306100	0.521200	0.807000
O491	O49	0.473900	0.604900	0.673900
O501	O50	0.375300	0.714000	0.660000
O511	O51	0.368100	0.865500	0.698100
O521	O52	0.457600	0.958100	0.765000
O531	O53	0.768900	0.046300	0.837500
O541	O54	0.890200	0.058200	0.920700
O551	O55	0.902700	0.038700	0.103700
O561	O56	0.806100	0.978800	0.193000
O571	O57	0.026100	0.395100	0.173900
O581	O58	0.124700	0.286000	0.160000
O591	O59	0.131900	0.134500	0.198100
O601	O60	0.042400	0.041900	0.265000
O611	O61	0.731100	0.953700	0.337500
O621	O62	0.609800	0.941800	0.420700
O631	O63	0.597300	0.961300	0.603700
O641	O64	0.693900	0.021200	0.693000
