data_GIHPAQ_clean_PM
_symmetry_space_group_name_H-M	'P1'
_cell_length_a	13.597700
_cell_length_b	13.597700
_cell_length_c	13.597700
_cell_angle_alpha	101.965000
_cell_angle_beta	101.965000
_cell_angle_gamma	101.965000
_symmetry_Int_Tables_number 1

loop_
_symmetry_equiv_pos_as_xyz
'x,y,z'

loop_
_atom_site_label
_atom_site_type_symbol
_atom_site_fract_x
_atom_site_fract_y
_atom_site_fract_z
Ni11	Ni1	0.618050	0.381950	0.000000
Ni21	Ni2	0.000000	0.618050	0.381950
Ni31	Ni3	0.381950	0.000000	0.618050
H11	H1	0.825300	0.379500	0.129000
H21	H2	0.908500	0.365700	0.817500
H31	H3	0.245700	0.394500	0.881700
H41	H4	0.416100	0.406300	0.879500
H51	H5	0.475900	0.331700	0.144500
H61	H6	0.986200	0.359000	0.117600
H71	H7	0.085100	0.360300	0.889600
H81	H8	0.136400	0.348100	0.092900
H91	H9	0.307400	0.317700	0.154200
H101	H10	0.748000	0.382500	0.836700
H111	H11	0.129000	0.825300	0.379500
H121	H12	0.817500	0.908500	0.365700
H131	H13	0.881700	0.245700	0.394500
H141	H14	0.879500	0.416100	0.406300
H151	H15	0.144500	0.475900	0.331700
H161	H16	0.117600	0.986200	0.359000
H171	H17	0.889600	0.085100	0.360300
H181	H18	0.092900	0.136400	0.348100
H191	H19	0.154200	0.307400	0.317700
H201	H20	0.836700	0.748000	0.382500
H211	H21	0.379500	0.129000	0.825300
H221	H22	0.365700	0.817500	0.908500
H231	H23	0.394500	0.881700	0.245700
H241	H24	0.406300	0.879500	0.416100
H251	H25	0.331700	0.144500	0.475900
H261	H26	0.359000	0.117600	0.986200
H271	H27	0.360300	0.889600	0.085100
H281	H28	0.348100	0.092900	0.136400
H291	H29	0.317700	0.154200	0.307400
H301	H30	0.382500	0.836700	0.748000
H311	H31	0.620500	0.174700	0.871000
H321	H32	0.634300	0.091500	0.182500
H331	H33	0.605500	0.754300	0.118300
H341	H34	0.593700	0.583900	0.120500
H351	H35	0.668300	0.524100	0.855500
H361	H36	0.641000	0.013800	0.882400
H371	H37	0.639700	0.914900	0.110400
H381	H38	0.651900	0.863600	0.907100
H391	H39	0.682300	0.692600	0.845800
H401	H40	0.617500	0.252000	0.163300
H411	H41	0.174700	0.871000	0.620500
H421	H42	0.091500	0.182500	0.634300
H431	H43	0.754300	0.118300	0.605500
H441	H44	0.583900	0.120500	0.593700
H451	H45	0.524100	0.855500	0.668300
H461	H46	0.013800	0.882400	0.641000
H471	H47	0.914900	0.110400	0.639700
H481	H48	0.863600	0.907100	0.651900
H491	H49	0.692600	0.845800	0.682300
H501	H50	0.252000	0.163300	0.617500
H511	H51	0.871000	0.620500	0.174700
H521	H52	0.182500	0.634300	0.091500
H531	H53	0.118300	0.605500	0.754300
H541	H54	0.120500	0.593700	0.583900
H551	H55	0.855500	0.668300	0.524100
H561	H56	0.882400	0.641000	0.013800
H571	H57	0.110400	0.639700	0.914900
H581	H58	0.907100	0.651900	0.863600
H591	H59	0.845800	0.682300	0.692600
H601	H60	0.163300	0.617500	0.252000
W11	W1	0.500000	0.292850	0.707150
W21	W2	0.707150	0.500000	0.292850
W31	W3	0.292850	0.707150	0.500000
C11	C1	0.842380	0.376520	0.065100
C21	C2	0.893630	0.368870	0.882300
C31	C3	0.291600	0.382100	0.937000
C41	C4	0.968430	0.363650	0.966740
C51	C5	0.393700	0.388300	0.935800
C61	C6	0.428800	0.344700	0.090700
C71	C7	0.256500	0.357300	0.019100
C81	C8	0.939510	0.365350	0.059180
C91	C9	0.072600	0.359400	0.954900
C101	C10	0.150200	0.354200	0.029200
C111	C11	0.328100	0.336900	0.097500
C121	C12	0.797330	0.378820	0.894520
C131	C13	0.065100	0.842380	0.376520
C141	C14	0.882300	0.893630	0.368870
C151	C15	0.937000	0.291600	0.382100
C161	C16	0.966740	0.968430	0.363650
C171	C17	0.935800	0.393700	0.388300
C181	C18	0.090700	0.428800	0.344700
C191	C19	0.019100	0.256500	0.357300
C201	C20	0.059180	0.939510	0.365350
C211	C21	0.954900	0.072600	0.359400
C221	C22	0.029200	0.150200	0.354200
C231	C23	0.097500	0.328100	0.336900
C241	C24	0.894520	0.797330	0.378820
C251	C25	0.376520	0.065100	0.842380
C261	C26	0.368870	0.882300	0.893630
C271	C27	0.382100	0.937000	0.291600
C281	C28	0.363650	0.966740	0.968430
C291	C29	0.388300	0.935800	0.393700
C301	C30	0.344700	0.090700	0.428800
C311	C31	0.357300	0.019100	0.256500
C321	C32	0.365350	0.059180	0.939510
C331	C33	0.359400	0.954900	0.072600
C341	C34	0.354200	0.029200	0.150200
C351	C35	0.336900	0.097500	0.328100
C361	C36	0.378820	0.894520	0.797330
C371	C37	0.623480	0.157620	0.934900
C381	C38	0.631130	0.106370	0.117700
C391	C39	0.617900	0.708400	0.063000
C401	C40	0.636350	0.031570	0.033260
C411	C41	0.611700	0.606300	0.064200
C421	C42	0.655300	0.571200	0.909300
C431	C43	0.642700	0.743500	0.980900
C441	C44	0.634650	0.060490	0.940820
C451	C45	0.640600	0.927400	0.045100
C461	C46	0.645800	0.849800	0.970800
C471	C47	0.663100	0.671900	0.902500
C481	C48	0.621180	0.202670	0.105480
C491	C49	0.157620	0.934900	0.623480
C501	C50	0.106370	0.117700	0.631130
C511	C51	0.708400	0.063000	0.617900
C521	C52	0.031570	0.033260	0.636350
C531	C53	0.606300	0.064200	0.611700
C541	C54	0.571200	0.909300	0.655300
C551	C55	0.743500	0.980900	0.642700
C561	C56	0.060490	0.940820	0.634650
C571	C57	0.927400	0.045100	0.640600
C581	C58	0.849800	0.970800	0.645800
C591	C59	0.671900	0.902500	0.663100
C601	C60	0.202670	0.105480	0.621180
C611	C61	0.934900	0.623480	0.157620
C621	C62	0.117700	0.631130	0.106370
C631	C63	0.063000	0.617900	0.708400
C641	C64	0.033260	0.636350	0.031570
C651	C65	0.064200	0.611700	0.606300
C661	C66	0.909300	0.655300	0.571200
C671	C67	0.980900	0.642700	0.743500
C681	C68	0.940820	0.634650	0.060490
C691	C69	0.045100	0.640600	0.927400
C701	C70	0.970800	0.645800	0.849800
C711	C71	0.902500	0.663100	0.671900
C721	C72	0.105480	0.621180	0.202670
N11	N1	0.771060	0.383340	0.984310
N21	N2	0.463380	0.370040	0.011400
N31	N3	0.984310	0.771060	0.383340
N41	N4	0.011400	0.463380	0.370040
N51	N5	0.383340	0.984310	0.771060
N61	N6	0.370040	0.011400	0.463380
N71	N7	0.616660	0.228940	0.015690
N81	N8	0.629960	0.536620	0.988600
N91	N9	0.228940	0.015690	0.616660
N101	N10	0.536620	0.988600	0.629960
N111	N11	0.015690	0.616660	0.228940
N121	N12	0.988600	0.629960	0.536620
O11	O1	0.562740	0.330530	0.842290
O21	O2	0.842290	0.562740	0.330530
O31	O3	0.330530	0.842290	0.562740
O41	O4	0.669470	0.437260	0.157710
O51	O5	0.437260	0.157710	0.669470
O61	O6	0.157710	0.669470	0.437260
