data_GIKMOD12_clean_PM
_symmetry_space_group_name_H-M	'P1'
_cell_length_a	7.306000
_cell_length_b	10.205000
_cell_length_c	18.111000
_cell_angle_alpha	90.000000
_cell_angle_beta	90.000000
_cell_angle_gamma	94.248000
_symmetry_Int_Tables_number 1

loop_
_symmetry_equiv_pos_as_xyz
'x,y,z'

loop_
_atom_site_label
_atom_site_type_symbol
_atom_site_fract_x
_atom_site_fract_y
_atom_site_fract_z
Cu11	Cu1	0.864580	0.215890	0.905280
Cu21	Cu2	0.039480	0.929780	0.931590
Cu31	Cu3	0.635420	0.284110	0.405280
Cu41	Cu4	0.460520	0.570220	0.431590
Cu51	Cu5	0.135420	0.784110	0.094720
Cu61	Cu6	0.960520	0.070220	0.068410
Cu71	Cu7	0.364580	0.715890	0.594720
Cu81	Cu8	0.539480	0.429780	0.568410
H11	H1	0.779400	0.164700	0.691900
H21	H2	0.935800	0.797300	0.707000
H31	H3	0.772500	0.936800	0.510700
H41	H4	0.720600	0.335300	0.191900
H51	H5	0.564200	0.702700	0.207000
H61	H6	0.727500	0.563200	0.010700
H71	H7	0.220600	0.835300	0.308100
H81	H8	0.064200	0.202700	0.293000
H91	H9	0.227500	0.063200	0.489300
H101	H10	0.279400	0.664700	0.808100
H111	H11	0.435800	0.297300	0.793000
H121	H12	0.272500	0.436800	0.989300
C11	C1	0.858600	0.848300	0.604000
C21	C2	0.766000	0.069100	0.595100
C31	C3	0.799900	0.085000	0.669600
C41	C4	0.863900	0.984700	0.712000
C51	C5	0.899200	0.009200	0.792400
C61	C6	0.893300	0.865300	0.679200
C71	C7	0.795000	0.949100	0.560800
C81	C8	0.694200	0.180000	0.553000
C91	C9	0.641400	0.651700	0.104000
C101	C10	0.734000	0.430900	0.095100
C111	C11	0.700100	0.415000	0.169600
C121	C12	0.636100	0.515300	0.212000
C131	C13	0.600800	0.490800	0.292400
C141	C14	0.606700	0.634700	0.179200
C151	C15	0.705000	0.550900	0.060800
C161	C16	0.805800	0.320000	0.053000
C171	C17	0.141400	0.151700	0.396000
C181	C18	0.234000	0.930900	0.404900
C191	C19	0.200100	0.915000	0.330400
C201	C20	0.136100	0.015300	0.288000
C211	C21	0.100800	0.990800	0.207600
C221	C22	0.106700	0.134700	0.320800
C231	C23	0.205000	0.050900	0.439200
C241	C24	0.305800	0.820000	0.447000
C251	C25	0.358600	0.348300	0.896000
C261	C26	0.266000	0.569100	0.904900
C271	C27	0.299900	0.585000	0.830400
C281	C28	0.363900	0.484700	0.788000
C291	C29	0.399200	0.509200	0.707600
C301	C30	0.393300	0.365300	0.820800
C311	C31	0.295000	0.449100	0.939200
C321	C32	0.194200	0.680000	0.947000
S11	S1	0.876100	0.690420	0.565090
S21	S2	0.623900	0.809580	0.065090
S31	S3	0.123900	0.309580	0.434910
S41	S4	0.376100	0.190420	0.934910
O11	O1	0.944100	0.914400	0.832170
O21	O2	0.869700	0.058300	0.965580
O31	O3	0.656000	0.161700	0.486200
O41	O4	0.877500	0.124300	0.813500
O51	O5	0.859500	0.700600	0.486900
O61	O6	0.677800	0.282400	0.589200
O71	O7	0.726200	0.611100	0.598800
O81	O8	0.048400	0.647100	0.591500
O91	O9	0.555900	0.585600	0.332170
O101	O10	0.630300	0.441700	0.465580
O111	O11	0.844000	0.338300	0.986200
O121	O12	0.622500	0.375700	0.313500
O131	O13	0.640500	0.799400	0.986900
O141	O14	0.822200	0.217600	0.089200
O151	O15	0.773800	0.888900	0.098800
O161	O16	0.451600	0.852900	0.091500
O171	O17	0.055900	0.085600	0.167830
O181	O18	0.130300	0.941700	0.034420
O191	O19	0.344000	0.838300	0.513800
O201	O20	0.122500	0.875700	0.186500
O211	O21	0.140500	0.299400	0.513100
O221	O22	0.322200	0.717600	0.410800
O231	O23	0.273800	0.388900	0.401200
O241	O24	0.951600	0.352900	0.408500
O251	O25	0.444100	0.414400	0.667830
O261	O26	0.369700	0.558300	0.534420
O271	O27	0.156000	0.661700	0.013800
O281	O28	0.377500	0.624300	0.686500
O291	O29	0.359500	0.200600	0.013100
O301	O30	0.177800	0.782400	0.910800
O311	O31	0.226200	0.111100	0.901200
O321	O32	0.548400	0.147100	0.908500
