data_GIKMOD03_clean_PM
_symmetry_space_group_name_H-M	'P1'
_cell_length_a	7.294900
_cell_length_b	10.124500
_cell_length_c	18.272600
_cell_angle_alpha	90.000000
_cell_angle_beta	90.000000
_cell_angle_gamma	94.891000
_symmetry_Int_Tables_number 1

loop_
_symmetry_equiv_pos_as_xyz
'x,y,z'

loop_
_atom_site_label
_atom_site_type_symbol
_atom_site_fract_x
_atom_site_fract_y
_atom_site_fract_z
Cu11	Cu1	0.866330	0.217140	0.907520
Cu21	Cu2	0.051410	0.935770	0.931490
Cu31	Cu3	0.633670	0.282860	0.407520
Cu41	Cu4	0.448590	0.564230	0.431490
Cu51	Cu5	0.133670	0.782860	0.092480
Cu61	Cu6	0.948590	0.064230	0.068510
Cu71	Cu7	0.366330	0.717140	0.592480
Cu81	Cu8	0.551410	0.435770	0.568510
H11	H1	0.792100	0.170900	0.695000
H21	H2	0.952000	0.801000	0.706800
H31	H3	0.790500	0.945700	0.513300
H41	H4	0.707900	0.329100	0.195000
H51	H5	0.548000	0.699000	0.206800
H61	H6	0.709500	0.554300	0.013300
H71	H7	0.207900	0.829100	0.305000
H81	H8	0.048000	0.199000	0.293200
H91	H9	0.209500	0.054300	0.486700
H101	H10	0.292100	0.670900	0.805000
H111	H11	0.452000	0.301000	0.793200
H121	H12	0.290500	0.445700	0.986700
C11	C1	0.874000	0.855500	0.604890
C21	C2	0.783100	0.077000	0.597570
C31	C3	0.814000	0.091600	0.672210
C41	C4	0.877600	0.989100	0.713580
C51	C5	0.908300	0.011700	0.793680
C61	C6	0.908800	0.870000	0.679960
C71	C7	0.812200	0.957000	0.563110
C81	C8	0.712700	0.188800	0.555550
C91	C9	0.626000	0.644500	0.104890
C101	C10	0.716900	0.423000	0.097570
C111	C11	0.686000	0.408400	0.172210
C121	C12	0.622400	0.510900	0.213580
C131	C13	0.591700	0.488300	0.293680
C141	C14	0.591200	0.630000	0.179960
C151	C15	0.687800	0.543000	0.063110
C161	C16	0.787300	0.311200	0.055550
C171	C17	0.126000	0.144500	0.395110
C181	C18	0.216900	0.923000	0.402430
C191	C19	0.186000	0.908400	0.327790
C201	C20	0.122400	0.010900	0.286420
C211	C21	0.091700	0.988300	0.206320
C221	C22	0.091200	0.130000	0.320040
C231	C23	0.187800	0.043000	0.436890
C241	C24	0.287300	0.811200	0.444450
C251	C25	0.374000	0.355500	0.895110
C261	C26	0.283100	0.577000	0.902430
C271	C27	0.314000	0.591600	0.827790
C281	C28	0.377600	0.489100	0.786420
C291	C29	0.408300	0.511700	0.706320
C301	C30	0.408800	0.370000	0.820040
C311	C31	0.312200	0.457000	0.936890
C321	C32	0.212700	0.688800	0.944450
S11	S1	0.886020	0.696240	0.566490
S21	S2	0.613980	0.803760	0.066490
S31	S3	0.113980	0.303760	0.433510
S41	S4	0.386020	0.196240	0.933510
O11	O1	0.955600	0.916390	0.832310
O21	O2	0.867000	0.052870	0.965010
O31	O3	0.663100	0.167220	0.490250
O41	O4	0.884200	0.127190	0.815450
O51	O5	0.892100	0.708610	0.487540
O61	O6	0.705000	0.296780	0.590720
O71	O7	0.717300	0.623280	0.592940
O81	O8	0.048100	0.642840	0.598050
O91	O9	0.544400	0.583610	0.332310
O101	O10	0.633000	0.447130	0.465010
O111	O11	0.836900	0.332780	0.990250
O121	O12	0.615800	0.372810	0.315450
O131	O13	0.607900	0.791390	0.987540
O141	O14	0.795000	0.203220	0.090720
O151	O15	0.782700	0.876720	0.092940
O161	O16	0.451900	0.857160	0.098050
O171	O17	0.044400	0.083610	0.167690
O181	O18	0.133000	0.947130	0.034990
O191	O19	0.336900	0.832780	0.509750
O201	O20	0.115800	0.872810	0.184550
O211	O21	0.107900	0.291390	0.512460
O221	O22	0.295000	0.703220	0.409280
O231	O23	0.282700	0.376720	0.407060
O241	O24	0.951900	0.357160	0.401950
O251	O25	0.455600	0.416390	0.667690
O261	O26	0.367000	0.552870	0.534990
O271	O27	0.163100	0.667220	0.009750
O281	O28	0.384200	0.627190	0.684550
O291	O29	0.392100	0.208610	0.012460
O301	O30	0.205000	0.796780	0.909280
O311	O31	0.217300	0.123280	0.907060
O321	O32	0.548100	0.142840	0.901950
