data_GIKMOD04_clean_PM
_symmetry_space_group_name_H-M	'P1'
_cell_length_a	7.320600
_cell_length_b	10.133100
_cell_length_c	18.248300
_cell_angle_alpha	90.000000
_cell_angle_beta	90.000000
_cell_angle_gamma	94.681000
_symmetry_Int_Tables_number 1

loop_
_symmetry_equiv_pos_as_xyz
'x,y,z'

loop_
_atom_site_label
_atom_site_type_symbol
_atom_site_fract_x
_atom_site_fract_y
_atom_site_fract_z
Cu11	Cu1	0.866370	0.217410	0.907080
Cu21	Cu2	0.050510	0.935170	0.931510
Cu31	Cu3	0.633630	0.282590	0.407080
Cu41	Cu4	0.449490	0.564830	0.431510
Cu51	Cu5	0.133630	0.782590	0.092910
Cu61	Cu6	0.949490	0.064830	0.068490
Cu71	Cu7	0.366370	0.717410	0.592910
Cu81	Cu8	0.550510	0.435170	0.568490
H11	H1	0.791200	0.169400	0.694400
H21	H2	0.951500	0.800600	0.707000
H31	H3	0.789500	0.943600	0.512900
H41	H4	0.708800	0.330600	0.194400
H51	H5	0.548500	0.699400	0.207000
H61	H6	0.710500	0.556400	0.012900
H71	H7	0.208800	0.830600	0.305600
H81	H8	0.048500	0.199400	0.293000
H91	H9	0.210500	0.056400	0.487100
H101	H10	0.291200	0.669400	0.805600
H111	H11	0.451500	0.300600	0.793000
H121	H12	0.289500	0.443600	0.987100
C11	C1	0.871300	0.853200	0.604780
C21	C2	0.781000	0.075700	0.596870
C31	C3	0.812700	0.089900	0.671680
C41	C4	0.875800	0.988000	0.713360
C51	C5	0.907700	0.010900	0.793580
C61	C6	0.907300	0.869000	0.679980
C71	C7	0.810500	0.955100	0.562830
C81	C8	0.710200	0.187500	0.555210
C91	C9	0.628700	0.646800	0.104780
C101	C10	0.719000	0.424300	0.096870
C111	C11	0.687300	0.410100	0.171680
C121	C12	0.624200	0.512000	0.213360
C131	C13	0.592300	0.489100	0.293580
C141	C14	0.592700	0.631000	0.179980
C151	C15	0.689500	0.544900	0.062830
C161	C16	0.789800	0.312500	0.055210
C171	C17	0.128700	0.146800	0.395220
C181	C18	0.219000	0.924300	0.403130
C191	C19	0.187300	0.910100	0.328320
C201	C20	0.124200	0.012000	0.286640
C211	C21	0.092300	0.989100	0.206420
C221	C22	0.092700	0.131000	0.320020
C231	C23	0.189500	0.044900	0.437170
C241	C24	0.289800	0.812500	0.444790
C251	C25	0.371300	0.353200	0.895220
C261	C26	0.281000	0.575700	0.903130
C271	C27	0.312700	0.589900	0.828320
C281	C28	0.375800	0.488000	0.786640
C291	C29	0.407700	0.510900	0.706420
C301	C30	0.407300	0.369000	0.820020
C311	C31	0.310500	0.455100	0.937170
C321	C32	0.210200	0.687500	0.944790
S11	S1	0.885470	0.694990	0.566280
S21	S2	0.614530	0.805010	0.066280
S31	S3	0.114530	0.305010	0.433720
S41	S4	0.385470	0.194990	0.933720
O11	O1	0.954300	0.916000	0.832230
O21	O2	0.868100	0.054000	0.964830
O31	O3	0.662200	0.166400	0.489710
O41	O4	0.884400	0.126600	0.815060
O51	O5	0.890200	0.707300	0.487420
O61	O6	0.702100	0.294600	0.590440
O71	O7	0.719800	0.620900	0.593450
O81	O8	0.048800	0.642700	0.597230
O91	O9	0.545700	0.584000	0.332230
O101	O10	0.631900	0.446000	0.464830
O111	O11	0.837800	0.333600	0.989710
O121	O12	0.615600	0.373400	0.315060
O131	O13	0.609800	0.792700	0.987420
O141	O14	0.797900	0.205400	0.090440
O151	O15	0.780200	0.879100	0.093450
O161	O16	0.451200	0.857300	0.097230
O171	O17	0.045700	0.084000	0.167770
O181	O18	0.131900	0.946000	0.035170
O191	O19	0.337800	0.833600	0.510290
O201	O20	0.115600	0.873400	0.184940
O211	O21	0.109800	0.292700	0.512580
O221	O22	0.297900	0.705400	0.409560
O231	O23	0.280200	0.379100	0.406550
O241	O24	0.951200	0.357300	0.402770
O251	O25	0.454300	0.416000	0.667770
O261	O26	0.368100	0.554000	0.535170
O271	O27	0.162200	0.666400	0.010290
O281	O28	0.384400	0.626600	0.684940
O291	O29	0.390200	0.207300	0.012580
O301	O30	0.202100	0.794600	0.909560
O311	O31	0.219800	0.120900	0.906550
O321	O32	0.548800	0.142700	0.902770
