data_GIKMOD11_clean_PM
_symmetry_space_group_name_H-M	'P1'
_cell_length_a	7.333300
_cell_length_b	10.172900
_cell_length_c	18.153000
_cell_angle_alpha	90.000000
_cell_angle_beta	90.000000
_cell_angle_gamma	94.379000
_symmetry_Int_Tables_number 1

loop_
_symmetry_equiv_pos_as_xyz
'x,y,z'

loop_
_atom_site_label
_atom_site_type_symbol
_atom_site_fract_x
_atom_site_fract_y
_atom_site_fract_z
Cu11	Cu1	0.867200	0.218600	0.905700
Cu21	Cu2	0.045100	0.932600	0.931800
Cu31	Cu3	0.632800	0.281400	0.405700
Cu41	Cu4	0.454900	0.567400	0.431800
Cu51	Cu5	0.132800	0.781400	0.094300
Cu61	Cu6	0.954900	0.067400	0.068200
Cu71	Cu7	0.367200	0.718600	0.594300
Cu81	Cu8	0.545100	0.432600	0.568200
H11	H1	0.770800	0.163800	0.692200
H21	H2	0.938500	0.799900	0.708500
H31	H3	0.786900	0.947200	0.512800
H41	H4	0.729200	0.336200	0.192200
H51	H5	0.561500	0.700100	0.208500
H61	H6	0.713100	0.552800	0.012800
H71	H7	0.229200	0.836200	0.307800
H81	H8	0.061500	0.200100	0.291500
H91	H9	0.213100	0.052800	0.487200
H101	H10	0.270800	0.663800	0.807800
H111	H11	0.438500	0.299900	0.791500
H121	H12	0.286900	0.447200	0.987200
C11	C1	0.866000	0.853000	0.604200
C21	C2	0.773000	0.070000	0.597600
C31	C3	0.799000	0.086000	0.670000
C41	C4	0.867000	0.990000	0.712000
C51	C5	0.908000	0.001000	0.795100
C61	C6	0.898000	0.868000	0.680300
C71	C7	0.805000	0.956000	0.563300
C81	C8	0.698000	0.183000	0.555700
C91	C9	0.634000	0.647000	0.104200
C101	C10	0.727000	0.430000	0.097600
C111	C11	0.701000	0.414000	0.170000
C121	C12	0.633000	0.510000	0.212000
C131	C13	0.592000	0.499000	0.295100
C141	C14	0.602000	0.632000	0.180300
C151	C15	0.695000	0.544000	0.063300
C161	C16	0.802000	0.317000	0.055700
C171	C17	0.134000	0.147000	0.395800
C181	C18	0.227000	0.930000	0.402400
C191	C19	0.201000	0.914000	0.330000
C201	C20	0.133000	0.010000	0.288000
C211	C21	0.092000	0.999000	0.204900
C221	C22	0.102000	0.132000	0.319700
C231	C23	0.195000	0.044000	0.436700
C241	C24	0.302000	0.817000	0.444300
C251	C25	0.366000	0.353000	0.895800
C261	C26	0.273000	0.570000	0.902400
C271	C27	0.299000	0.586000	0.830000
C281	C28	0.367000	0.490000	0.788000
C291	C29	0.408000	0.501000	0.704900
C301	C30	0.398000	0.368000	0.819700
C311	C31	0.305000	0.456000	0.936700
C321	C32	0.198000	0.683000	0.944300
S11	S1	0.883100	0.690900	0.566000
S21	S2	0.616900	0.809100	0.066000
S31	S3	0.116900	0.309100	0.434000
S41	S4	0.383100	0.190900	0.934000
O11	O1	0.952000	0.914500	0.833600
O21	O2	0.866000	0.054500	0.965500
O31	O3	0.662000	0.161600	0.488900
O41	O4	0.886000	0.122100	0.814700
O51	O5	0.876000	0.700500	0.487600
O61	O6	0.687000	0.289700	0.588800
O71	O7	0.724000	0.609800	0.595100
O81	O8	0.050000	0.642500	0.595500
O91	O9	0.548000	0.585500	0.333600
O101	O10	0.634000	0.445500	0.465500
O111	O11	0.838000	0.338400	0.988900
O121	O12	0.614000	0.377900	0.314700
O131	O13	0.624000	0.799500	0.987600
O141	O14	0.813000	0.210300	0.088800
O151	O15	0.776000	0.890200	0.095100
O161	O16	0.450000	0.857500	0.095500
O171	O17	0.048000	0.085500	0.166400
O181	O18	0.134000	0.945500	0.034500
O191	O19	0.338000	0.838400	0.511100
O201	O20	0.114000	0.877900	0.185300
O211	O21	0.124000	0.299500	0.512400
O221	O22	0.313000	0.710300	0.411200
O231	O23	0.276000	0.390200	0.404900
O241	O24	0.950000	0.357500	0.404500
O251	O25	0.452000	0.414500	0.666400
O261	O26	0.366000	0.554500	0.534500
O271	O27	0.162000	0.661600	0.011100
O281	O28	0.386000	0.622100	0.685300
O291	O29	0.376000	0.200500	0.012400
O301	O30	0.187000	0.789700	0.911200
O311	O31	0.224000	0.109800	0.904900
O321	O32	0.550000	0.142500	0.904500
