data_GIKMOD_clean_PM
_symmetry_space_group_name_H-M	'P1'
_cell_length_a	7.333600
_cell_length_b	10.125200
_cell_length_c	18.182900
_cell_angle_alpha	90.000000
_cell_angle_beta	90.000000
_cell_angle_gamma	94.493000
_symmetry_Int_Tables_number 1

loop_
_symmetry_equiv_pos_as_xyz
'x,y,z'

loop_
_atom_site_label
_atom_site_type_symbol
_atom_site_fract_x
_atom_site_fract_y
_atom_site_fract_z
Cu11	Cu1	0.866770	0.217920	0.906240
Cu21	Cu2	0.047480	0.933360	0.931580
Cu31	Cu3	0.633230	0.282080	0.406240
Cu41	Cu4	0.452520	0.566640	0.431580
Cu51	Cu5	0.133230	0.782080	0.093760
Cu61	Cu6	0.952520	0.066640	0.068420
Cu71	Cu7	0.366770	0.717920	0.593760
Cu81	Cu8	0.547480	0.433360	0.568420
H11	H1	0.770000	0.021000	0.964000
H21	H2	0.786400	0.167600	0.693600
H31	H3	0.781300	0.939000	0.513000
H41	H4	0.945100	0.798600	0.706800
H51	H5	0.730000	0.479000	0.464000
H61	H6	0.713600	0.332400	0.193600
H71	H7	0.718700	0.561000	0.013000
H81	H8	0.554900	0.701400	0.206800
H91	H9	0.230000	0.979000	0.036000
H101	H10	0.213600	0.832400	0.306400
H111	H11	0.218700	0.061000	0.487000
H121	H12	0.054900	0.201400	0.293200
H131	H13	0.270000	0.521000	0.536000
H141	H14	0.286400	0.667600	0.806400
H151	H15	0.281300	0.439000	0.987000
H161	H16	0.445100	0.298600	0.793200
C11	C1	0.872500	0.985900	0.713000
C21	C2	0.808100	0.087900	0.671100
C31	C3	0.775900	0.072100	0.596300
C41	C4	0.804400	0.951500	0.562900
C51	C5	0.867400	0.850700	0.604900
C61	C6	0.902000	0.867300	0.679500
C71	C7	0.906200	0.010600	0.792900
C81	C8	0.704300	0.182600	0.554700
C91	C9	0.627500	0.514100	0.213000
C101	C10	0.691900	0.412100	0.171100
C111	C11	0.724100	0.427900	0.096300
C121	C12	0.695600	0.548500	0.062900
C131	C13	0.632600	0.649300	0.104900
C141	C14	0.598000	0.632700	0.179500
C151	C15	0.593800	0.489400	0.292900
C161	C16	0.795700	0.317400	0.054700
C171	C17	0.127500	0.014100	0.287000
C181	C18	0.191900	0.912100	0.328900
C191	C19	0.224100	0.927900	0.403700
C201	C20	0.195600	0.048500	0.437100
C211	C21	0.132600	0.149300	0.395100
C221	C22	0.098000	0.132700	0.320500
C231	C23	0.093800	0.989400	0.207100
C241	C24	0.295700	0.817400	0.445300
C251	C25	0.372500	0.485900	0.787000
C261	C26	0.308100	0.587900	0.828900
C271	C27	0.275900	0.572100	0.903700
C281	C28	0.304400	0.451500	0.937100
C291	C29	0.367400	0.350700	0.895100
C301	C30	0.402000	0.367300	0.820500
C311	C31	0.406200	0.510600	0.707100
C321	C32	0.204300	0.682600	0.945300
S11	S1	0.883840	0.691980	0.566010
S21	S2	0.616160	0.808020	0.066010
S31	S3	0.116160	0.308020	0.433990
S41	S4	0.383840	0.191980	0.933990
O11	O1	0.884500	0.125100	0.814560
O21	O2	0.952500	0.915500	0.831880
O31	O3	0.659200	0.163200	0.488560
O41	O4	0.693900	0.289900	0.590200
O51	O5	0.050700	0.643600	0.595330
O61	O6	0.725400	0.615600	0.595300
O71	O7	0.882100	0.703700	0.487130
O81	O8	0.871600	0.056600	0.965150
O91	O9	0.615500	0.374900	0.314560
O101	O10	0.547500	0.584500	0.331880
O111	O11	0.840800	0.336800	0.988560
O121	O12	0.806100	0.210100	0.090200
O131	O13	0.449300	0.856400	0.095330
O141	O14	0.774600	0.884400	0.095300
O151	O15	0.617900	0.796300	0.987130
O161	O16	0.628400	0.443400	0.465150
O171	O17	0.115500	0.874900	0.185440
O181	O18	0.047500	0.084500	0.168120
O191	O19	0.340800	0.836800	0.511440
O201	O20	0.306100	0.710100	0.409800
O211	O21	0.949300	0.356400	0.404670
O221	O22	0.274600	0.384400	0.404700
O231	O23	0.117900	0.296300	0.512870
O241	O24	0.128400	0.943400	0.034850
O251	O25	0.384500	0.625100	0.685440
O261	O26	0.452500	0.415500	0.668120
O271	O27	0.159200	0.663200	0.011440
O281	O28	0.193900	0.789900	0.909800
O291	O29	0.550700	0.143600	0.904670
O301	O30	0.225400	0.115600	0.904700
O311	O31	0.382100	0.203700	0.012870
O321	O32	0.371600	0.556600	0.534850
