data_GIMSUS_clean_PM
_symmetry_space_group_name_H-M	'P1'
_cell_length_a	9.838300
_cell_length_b	13.198400
_cell_length_c	11.382900
_cell_angle_alpha	90.000000
_cell_angle_beta	101.437000
_cell_angle_gamma	90.000000
_symmetry_Int_Tables_number 1

loop_
_symmetry_equiv_pos_as_xyz
'x,y,z'

loop_
_atom_site_label
_atom_site_type_symbol
_atom_site_fract_x
_atom_site_fract_y
_atom_site_fract_z
Cd11	Cd1	0.258090	0.995030	0.493130
O11	O1	0.418200	0.881000	0.586100
O21	O2	0.620300	0.959900	0.654900
N11	N1	0.665800	0.632400	0.881600
C11	C1	0.537000	0.887600	0.649600
C21	C2	0.582100	0.797700	0.731600
C31	C3	0.558400	0.699400	0.690200
H11	H1	0.512500	0.686900	0.609900
C41	C4	0.648400	0.811600	0.851100
H21	H2	0.666700	0.877900	0.882700
C51	C5	0.602700	0.619200	0.767400
H31	H3	0.587500	0.552000	0.737800
C61	C6	0.686900	0.727800	0.922400
H41	H4	0.730200	0.738000	0.003800
O31	O3	0.098900	0.103300	0.389500
O41	O4	0.881900	0.042900	0.370600
C71	C7	0.970600	0.105200	0.349700
C81	C8	0.918800	0.192000	0.265700
C91	C9	0.011200	0.252500	0.219000
H51	H5	0.107900	0.238900	0.237600
C101	C10	0.778600	0.214400	0.234700
H61	H6	0.712400	0.173700	0.263200
C111	C11	0.960300	0.332700	0.145200
H71	H7	0.023600	0.373000	0.112300
C121	C12	0.736600	0.296700	0.161900
H81	H8	0.640500	0.312200	0.142000
N21	N2	0.824800	0.355600	0.118100
Cd21	Cd2	0.741910	0.495030	0.006870
O51	O5	0.581800	0.381000	0.913900
O61	O6	0.379700	0.459900	0.845100
N31	N3	0.334200	0.132400	0.618400
C131	C13	0.463000	0.387600	0.850400
C141	C14	0.417900	0.297700	0.768400
C151	C15	0.441600	0.199400	0.809800
H91	H9	0.487500	0.186900	0.890100
C161	C16	0.351600	0.311600	0.648900
H101	H10	0.333300	0.377900	0.617300
C171	C17	0.397300	0.119200	0.732600
H111	H11	0.412500	0.052000	0.762200
C181	C18	0.313100	0.227800	0.577600
H121	H12	0.269800	0.238000	0.496200
O71	O7	0.901100	0.603300	0.110500
O81	O8	0.118100	0.542900	0.129400
C191	C19	0.029400	0.605200	0.150300
C201	C20	0.081200	0.692000	0.234300
C211	C21	0.988800	0.752500	0.281000
H131	H13	0.892100	0.738900	0.262400
C221	C22	0.221400	0.714400	0.265300
H141	H14	0.287600	0.673700	0.236800
C231	C23	0.039700	0.832700	0.354800
H151	H15	0.976400	0.873000	0.387700
C241	C24	0.263400	0.796700	0.338100
H161	H16	0.359500	0.812200	0.358000
N41	N4	0.175200	0.855600	0.381900
Cd31	Cd3	0.741910	0.004970	0.506870
O91	O9	0.581800	0.119000	0.413900
O101	O10	0.379700	0.040100	0.345100
N51	N5	0.334200	0.367600	0.118400
C251	C25	0.463000	0.112400	0.350400
C261	C26	0.417900	0.202300	0.268400
C271	C27	0.441600	0.300600	0.309800
H171	H17	0.487500	0.313100	0.390100
C281	C28	0.351600	0.188400	0.148900
H181	H18	0.333300	0.122100	0.117300
C291	C29	0.397300	0.380800	0.232600
H191	H19	0.412500	0.448000	0.262200
C301	C30	0.313100	0.272200	0.077600
H201	H20	0.269800	0.262000	0.996200
O111	O11	0.901100	0.896700	0.610500
O121	O12	0.118100	0.957100	0.629400
C311	C31	0.029400	0.894800	0.650300
C321	C32	0.081200	0.808000	0.734300
C331	C33	0.988800	0.747500	0.781000
H211	H21	0.892100	0.761100	0.762400
C341	C34	0.221400	0.785600	0.765300
H221	H22	0.287600	0.826300	0.736800
C351	C35	0.039700	0.667300	0.854800
H231	H23	0.976400	0.627000	0.887700
C361	C36	0.263400	0.703300	0.838100
H241	H24	0.359500	0.687800	0.858000
N61	N6	0.175200	0.644400	0.881900
Cd41	Cd4	0.258090	0.504970	0.993130
O131	O13	0.418200	0.619000	0.086100
O141	O14	0.620300	0.540100	0.154900
N71	N7	0.665800	0.867600	0.381600
C371	C37	0.537000	0.612400	0.149600
C381	C38	0.582100	0.702300	0.231600
C391	C39	0.558400	0.800600	0.190200
H251	H25	0.512500	0.813100	0.109900
C401	C40	0.648400	0.688400	0.351100
H261	H26	0.666700	0.622100	0.382700
C411	C41	0.602700	0.880800	0.267400
H271	H27	0.587500	0.948000	0.237800
C421	C42	0.686900	0.772200	0.422400
H281	H28	0.730200	0.762000	0.503800
O151	O15	0.098900	0.396700	0.889500
O161	O16	0.881900	0.457100	0.870600
C431	C43	0.970600	0.394800	0.849700
C441	C44	0.918800	0.308000	0.765700
C451	C45	0.011200	0.247500	0.719000
H291	H29	0.107900	0.261100	0.737600
C461	C46	0.778600	0.285600	0.734700
H301	H30	0.712400	0.326300	0.763200
C471	C47	0.960300	0.167300	0.645200
H311	H31	0.023600	0.127000	0.612300
C481	C48	0.736600	0.203300	0.661900
H321	H32	0.640500	0.187800	0.642000
N81	N8	0.824800	0.144400	0.618100
