data_GINLIA_clean_PM
_symmetry_space_group_name_H-M	'P1'
_cell_length_a	10.188900
_cell_length_b	16.651000
_cell_length_c	19.730000
_cell_angle_alpha	90.000000
_cell_angle_beta	101.825000
_cell_angle_gamma	90.000000
_symmetry_Int_Tables_number 1

loop_
_symmetry_equiv_pos_as_xyz
'x,y,z'

loop_
_atom_site_label
_atom_site_type_symbol
_atom_site_fract_x
_atom_site_fract_y
_atom_site_fract_z
Zn11	Zn1	0.497940	0.341960	0.384550
Zn21	Zn2	0.757800	0.436160	0.500270
Zn31	Zn3	0.502060	0.841960	0.615450
Zn41	Zn4	0.242200	0.936160	0.499730
H11	H1	0.582500	0.069000	0.711600
H21	H2	0.692700	0.292600	0.666800
H31	H3	0.905900	0.227200	0.711500
H41	H4	0.181400	0.284700	0.883300
H51	H5	0.027200	0.279500	0.950100
H61	H6	0.371900	0.190900	0.879600
H71	H7	0.435500	0.102000	0.882600
H81	H8	0.429000	0.169900	0.010300
H91	H9	0.285400	0.146100	0.965000
H101	H10	0.398600	0.078900	0.986000
H111	H11	0.521100	0.165100	0.803200
H121	H12	0.777000	0.088400	0.970000
H131	H13	0.771100	0.981000	0.045900
H141	H14	0.897700	0.128700	0.209500
H151	H15	0.855000	0.376000	0.112200
H161	H16	0.963600	0.443500	0.013000
H171	H17	0.835400	0.479300	0.038200
H181	H18	0.754700	0.535200	0.936000
H191	H19	0.912500	0.551300	0.946900
H201	H20	0.845000	0.480100	0.897300
H211	H21	0.136600	0.275000	0.222700
H221	H22	0.026100	0.344400	0.401200
H231	H23	0.746400	0.281300	0.236500
H241	H24	0.417500	0.569000	0.288400
H251	H25	0.307300	0.792600	0.333200
H261	H26	0.094100	0.727200	0.288500
H271	H27	0.818600	0.784700	0.116700
H281	H28	0.972800	0.779500	0.049900
H291	H29	0.628100	0.690900	0.120400
H301	H30	0.564500	0.602000	0.117400
H311	H31	0.571000	0.669900	0.989700
H321	H32	0.714600	0.646100	0.035000
H331	H33	0.601400	0.578900	0.014000
H341	H34	0.478900	0.665100	0.196800
H351	H35	0.223000	0.588400	0.030000
H361	H36	0.228900	0.481000	0.954100
H371	H37	0.102300	0.628700	0.790500
H381	H38	0.145000	0.876000	0.887800
H391	H39	0.036400	0.943500	0.987000
H401	H40	0.164600	0.979300	0.961800
H411	H41	0.245300	0.035200	0.064000
H421	H42	0.087500	0.051300	0.053100
H431	H43	0.155000	0.980100	0.102700
H441	H44	0.863400	0.775000	0.777300
H451	H45	0.973900	0.844400	0.598800
H461	H46	0.253600	0.781300	0.763500
C11	C1	0.595700	0.290100	0.526800
C21	C2	0.592300	0.227400	0.581000
C31	C3	0.535400	0.151900	0.562700
C41	C4	0.537200	0.094000	0.609900
C51	C5	0.588700	0.109000	0.678000
C61	C6	0.649900	0.181700	0.699000
C71	C7	0.652500	0.242300	0.652400
C81	C8	0.471400	0.015500	0.590300
C91	C9	0.694700	0.199300	0.775600
C101	C10	0.833700	0.225100	0.802600
C111	C11	0.929600	0.235100	0.760100
C121	C12	0.055200	0.256100	0.791200
C131	C13	0.091600	0.270400	0.863200
C141	C14	0.003300	0.264000	0.902800
C151	C15	0.876900	0.235400	0.876800
C161	C16	0.782400	0.222900	0.920600
C171	C17	0.654900	0.194700	0.889200
C181	C18	0.431000	0.151800	0.909300
C191	C19	0.382000	0.135300	0.972900
C201	C20	0.609900	0.183600	0.820500
C211	C21	0.826000	0.230500	0.997500
C221	C22	0.840900	0.172300	0.044700
C231	C23	0.801500	0.096600	0.018600
C241	C24	0.798000	0.032800	0.063700
C251	C25	0.833900	0.044800	0.134800
C261	C26	0.873200	0.120500	0.160900
C271	C27	0.876700	0.184300	0.115800
C281	C28	0.892000	0.260000	0.141700
C291	C29	0.855300	0.322500	0.095600
C301	C30	0.818000	0.307200	0.023300
C311	C31	0.866000	0.454800	0.998600
C321	C32	0.843000	0.509800	0.939900
C331	C33	0.931300	0.281900	0.217600
C341	C34	0.068800	0.287700	0.247600
C351	C35	0.099400	0.314100	0.318600
C361	C36	0.002300	0.326200	0.354700
C371	C37	0.865400	0.312400	0.324600
C381	C38	0.837600	0.290900	0.257600
C391	C39	0.243900	0.330000	0.353700
C401	C40	0.757100	0.331000	0.365200
C411	C41	0.404300	0.790100	0.473200
C421	C42	0.407700	0.727400	0.419000
C431	C43	0.464600	0.651900	0.437300
C441	C44	0.462800	0.594000	0.390100
C451	C45	0.411300	0.609000	0.322000
C461	C46	0.350100	0.681700	0.301000
C471	C47	0.347500	0.742300	0.347600
C481	C48	0.528600	0.515500	0.409700
C491	C49	0.305300	0.699300	0.224400
C501	C50	0.166300	0.725100	0.197400
C511	C51	0.070400	0.735100	0.239900
C521	C52	0.944800	0.756100	0.208800
C531	C53	0.908400	0.770400	0.136800
C541	C54	0.996700	0.764000	0.097200
C551	C55	0.123100	0.735400	0.123200
C561	C56	0.217600	0.722900	0.079400
C571	C57	0.345100	0.694700	0.110800
C581	C58	0.569000	0.651800	0.090700
C591	C59	0.618000	0.635300	0.027100
C601	C60	0.390100	0.683600	0.179500
C611	C61	0.174000	0.730500	0.002500
C621	C62	0.159100	0.672300	0.955300
C631	C63	0.198500	0.596600	0.981400
C641	C64	0.202000	0.532800	0.936300
C651	C65	0.166100	0.544800	0.865200
C661	C66	0.126800	0.620500	0.839100
C671	C67	0.123300	0.684300	0.884200
C681	C68	0.108000	0.760000	0.858300
C691	C69	0.144700	0.822500	0.904400
C701	C70	0.182000	0.807200	0.976700
C711	C71	0.134000	0.954800	0.001400
C721	C72	0.157000	0.009800	0.060100
C731	C73	0.068700	0.781900	0.782400
C741	C74	0.931200	0.787700	0.752400
C751	C75	0.900600	0.814100	0.681400
C761	C76	0.997700	0.826200	0.645300
C771	C77	0.134600	0.812400	0.675400
C781	C78	0.162400	0.790900	0.742400
C791	C79	0.756100	0.830000	0.646300
C801	C80	0.242900	0.831000	0.634800
Cl11	Cl1	0.178700	0.261200	0.740300
Cl21	Cl2	0.834100	0.967900	0.194200
Cl31	Cl3	0.821300	0.761200	0.259700
Cl41	Cl4	0.165900	0.467900	0.805800
O11	O1	0.532400	0.275000	0.468500
O21	O2	0.672500	0.351700	0.545800
O31	O3	0.396100	0.007900	0.531300
O41	O4	0.500700	0.958600	0.632000
O51	O5	0.334300	0.304300	0.320400
O61	O6	0.273800	0.361500	0.408600
O71	O7	0.794400	0.363900	0.422100
O81	O8	0.643200	0.312600	0.336700
O91	O9	0.569700	0.186800	0.936200
O101	O10	0.787900	0.374400	0.976700
O111	O11	0.467600	0.775000	0.531500
O121	O12	0.327500	0.851700	0.454200
O131	O13	0.603900	0.507900	0.468700
O141	O14	0.499300	0.458600	0.368000
O151	O15	0.665700	0.804300	0.679600
O161	O16	0.726200	0.861500	0.591400
O171	O17	0.205600	0.863900	0.577900
O181	O18	0.356800	0.812600	0.663300
O191	O19	0.430300	0.686800	0.063800
O201	O20	0.212100	0.874400	0.023300
