data_GIQXOU_clean_PM
_symmetry_space_group_name_H-M	'P1'
_cell_length_a	9.532100
_cell_length_b	9.532100
_cell_length_c	15.451000
_cell_angle_alpha	92.865100
_cell_angle_beta	92.865100
_cell_angle_gamma	99.041200
_symmetry_Int_Tables_number 1

loop_
_symmetry_equiv_pos_as_xyz
'x,y,z'

loop_
_atom_site_label
_atom_site_type_symbol
_atom_site_fract_x
_atom_site_fract_y
_atom_site_fract_z
Er11	Er1	0.010860	0.989140	0.750000
Er21	Er2	0.989140	0.010860	0.250000
P11	P1	0.353930	0.044910	0.645960
P21	P2	0.651650	0.976270	0.654290
P31	P3	0.955090	0.646070	0.854040
P41	P4	0.023730	0.348350	0.845710
P51	P5	0.646070	0.955090	0.354040
P61	P6	0.348350	0.023730	0.345710
P71	P7	0.044910	0.353930	0.145960
P81	P8	0.976270	0.651650	0.154290
H11	H1	0.420400	0.829600	0.732500
H21	H2	0.472000	0.159000	0.814300
H31	H3	0.631600	0.126200	0.816500
H41	H4	0.579000	0.225200	0.745000
H51	H5	0.170400	0.579600	0.767500
H61	H6	0.841000	0.528000	0.685700
H71	H7	0.873800	0.368400	0.683500
H81	H8	0.774800	0.421000	0.755000
H91	H9	0.579600	0.170400	0.267500
H101	H10	0.528000	0.841000	0.185700
H111	H11	0.368400	0.873800	0.183500
H121	H12	0.421000	0.774800	0.255000
H131	H13	0.829600	0.420400	0.232500
H141	H14	0.159000	0.472000	0.314300
H151	H15	0.126200	0.631600	0.316500
H161	H16	0.225200	0.579000	0.245000
Ru11	Ru1	0.545680	0.121640	0.501900
Ru21	Ru2	0.878360	0.454320	0.998100
Ru31	Ru3	0.454320	0.878360	0.498100
Ru41	Ru4	0.121640	0.545680	0.001900
C11	C1	0.504700	0.016700	0.719700
C21	C2	0.550600	0.142200	0.778700
C31	C3	0.983300	0.495300	0.780300
C41	C4	0.857800	0.449400	0.721300
C51	C5	0.495300	0.983300	0.280300
C61	C6	0.449400	0.857800	0.221300
C71	C7	0.016700	0.504700	0.219700
C81	C8	0.142200	0.550600	0.278700
O11	O1	0.408600	0.167800	0.589600
O21	O2	0.308900	0.909700	0.586100
O31	O3	0.233100	0.074100	0.699500
O41	O4	0.691300	0.104300	0.598700
O51	O5	0.594400	0.841800	0.594200
O61	O6	0.772600	0.955000	0.714800
O71	O7	0.450700	0.900100	0.767400
O81	O8	0.832200	0.591400	0.910400
O91	O9	0.090300	0.691100	0.913900
O101	O10	0.925900	0.766900	0.800500
O111	O11	0.895700	0.308700	0.901300
O121	O12	0.158200	0.405600	0.905800
O131	O13	0.045000	0.227400	0.785200
O141	O14	0.099900	0.549300	0.732600
O151	O15	0.591400	0.832200	0.410400
O161	O16	0.691100	0.090300	0.413900
O171	O17	0.766900	0.925900	0.300500
O181	O18	0.308700	0.895700	0.401300
O191	O19	0.405600	0.158200	0.405800
O201	O20	0.227400	0.045000	0.285200
O211	O21	0.549300	0.099900	0.232600
O221	O22	0.167800	0.408600	0.089600
O231	O23	0.909700	0.308900	0.086100
O241	O24	0.074100	0.233100	0.199500
O251	O25	0.104300	0.691300	0.098700
O261	O26	0.841800	0.594400	0.094200
O271	O27	0.955000	0.772600	0.214800
O281	O28	0.900100	0.450700	0.267400
