data_GIQXUA_clean_PM
_symmetry_space_group_name_H-M	'P1'
_cell_length_a	9.611600
_cell_length_b	9.611600
_cell_length_c	15.548000
_cell_angle_alpha	92.930200
_cell_angle_beta	92.930200
_cell_angle_gamma	99.074500
_symmetry_Int_Tables_number 1

loop_
_symmetry_equiv_pos_as_xyz
'x,y,z'

loop_
_atom_site_label
_atom_site_type_symbol
_atom_site_fract_x
_atom_site_fract_y
_atom_site_fract_z
Gd11	Gd1	0.011050	0.988950	0.750000
Gd21	Gd2	0.988950	0.011050	0.250000
P11	P1	0.354420	0.045300	0.644830
P21	P2	0.650910	0.976410	0.654040
P31	P3	0.954700	0.645580	0.855170
P41	P4	0.023590	0.349090	0.845960
P51	P5	0.645580	0.954700	0.355170
P61	P6	0.349090	0.023590	0.345960
P71	P7	0.045300	0.354420	0.144830
P81	P8	0.976410	0.650910	0.154040
H11	H1	0.422000	0.824000	0.730000
H21	H2	0.475000	0.162400	0.813800
H31	H3	0.632700	0.128300	0.815900
H41	H4	0.581800	0.227800	0.745200
H51	H5	0.176000	0.578000	0.770000
H61	H6	0.837600	0.525000	0.686200
H71	H7	0.871700	0.367300	0.684100
H81	H8	0.772200	0.418200	0.754800
H91	H9	0.578000	0.176000	0.270000
H101	H10	0.525000	0.837600	0.186200
H111	H11	0.367300	0.871700	0.184100
H121	H12	0.418200	0.772200	0.254800
H131	H13	0.824000	0.422000	0.230000
H141	H14	0.162400	0.475000	0.313800
H151	H15	0.128300	0.632700	0.315900
H161	H16	0.227800	0.581800	0.245200
Ru11	Ru1	0.545650	0.121230	0.501950
Ru21	Ru2	0.878770	0.454350	0.998050
Ru31	Ru3	0.454350	0.878770	0.498050
Ru41	Ru4	0.121230	0.545650	0.001950
C11	C1	0.504600	0.017400	0.717200
C21	C2	0.552700	0.145300	0.778400
C31	C3	0.982600	0.495400	0.782800
C41	C4	0.854700	0.447300	0.721600
C51	C5	0.495400	0.982600	0.282800
C61	C6	0.447300	0.854700	0.221600
C71	C7	0.017400	0.504600	0.217200
C81	C8	0.145300	0.552700	0.278400
O11	O1	0.409100	0.168500	0.589500
O21	O2	0.309800	0.908800	0.585900
O31	O3	0.234900	0.076900	0.698800
O41	O4	0.691100	0.104700	0.598400
O51	O5	0.593500	0.844900	0.593600
O61	O6	0.770500	0.954100	0.714300
O71	O7	0.449400	0.899600	0.766600
O81	O8	0.831500	0.590900	0.910500
O91	O9	0.091200	0.690200	0.914100
O101	O10	0.923100	0.765100	0.801200
O111	O11	0.895300	0.308900	0.901600
O121	O12	0.155100	0.406500	0.906400
O131	O13	0.045900	0.229500	0.785700
O141	O14	0.100400	0.550600	0.733400
O151	O15	0.590900	0.831500	0.410500
O161	O16	0.690200	0.091200	0.414100
O171	O17	0.765100	0.923100	0.301200
O181	O18	0.308900	0.895300	0.401600
O191	O19	0.406500	0.155100	0.406400
O201	O20	0.229500	0.045900	0.285700
O211	O21	0.550600	0.100400	0.233400
O221	O22	0.168500	0.409100	0.089500
O231	O23	0.908800	0.309800	0.085900
O241	O24	0.076900	0.234900	0.198800
O251	O25	0.104700	0.691100	0.098400
O261	O26	0.844900	0.593500	0.093600
O271	O27	0.954100	0.770500	0.214300
O281	O28	0.899600	0.449400	0.266600
