data_GIQXEK_clean_PM
_symmetry_space_group_name_H-M	'P1'
_cell_length_a	9.692100
_cell_length_b	9.692100
_cell_length_c	15.693800
_cell_angle_alpha	92.701700
_cell_angle_beta	92.701700
_cell_angle_gamma	99.019600
_symmetry_Int_Tables_number 1

loop_
_symmetry_equiv_pos_as_xyz
'x,y,z'

loop_
_atom_site_label
_atom_site_type_symbol
_atom_site_fract_x
_atom_site_fract_y
_atom_site_fract_z
Ce11	Ce1	0.011400	0.988600	0.750000
Ce21	Ce2	0.988600	0.011400	0.250000
P11	P1	0.356420	0.045280	0.643900
P21	P2	0.648660	0.974080	0.651650
P31	P3	0.954720	0.643580	0.856100
P41	P4	0.025920	0.351340	0.848350
P51	P5	0.643580	0.954720	0.356100
P61	P6	0.351340	0.025920	0.348350
P71	P7	0.045280	0.356420	0.143900
P81	P8	0.974080	0.648660	0.151650
H11	H1	0.478200	0.160000	0.811700
H21	H2	0.634900	0.127100	0.810700
H31	H3	0.580300	0.225100	0.741600
H41	H4	0.508000	0.824000	0.771000
H51	H5	0.840000	0.521800	0.688300
H61	H6	0.872900	0.365100	0.689300
H71	H7	0.774900	0.419700	0.758400
H81	H8	0.176000	0.492000	0.729000
H91	H9	0.521800	0.840000	0.188300
H101	H10	0.365100	0.872900	0.189300
H111	H11	0.419700	0.774900	0.258400
H121	H12	0.492000	0.176000	0.229000
H131	H13	0.160000	0.478200	0.311700
H141	H14	0.127100	0.634900	0.310700
H151	H15	0.225100	0.580300	0.241600
H161	H16	0.824000	0.508000	0.271000
Ru11	Ru1	0.546220	0.120060	0.502070
Ru21	Ru2	0.879940	0.453780	0.997930
Ru31	Ru3	0.453780	0.879940	0.497930
Ru41	Ru4	0.120060	0.546220	0.002070
C11	C1	0.504000	0.015200	0.715000
C21	C2	0.553800	0.143200	0.775100
C31	C3	0.984800	0.496000	0.785000
C41	C4	0.856800	0.446200	0.724900
C51	C5	0.496000	0.984800	0.285000
C61	C6	0.446200	0.856800	0.224900
C71	C7	0.015200	0.504000	0.215000
C81	C8	0.143200	0.553800	0.275100
O11	O1	0.411070	0.168070	0.589090
O21	O2	0.311640	0.910880	0.585360
O31	O3	0.240160	0.077220	0.697620
O41	O4	0.690030	0.101250	0.597160
O51	O5	0.592290	0.843890	0.592460
O61	O6	0.767810	0.950050	0.710760
O71	O7	0.449830	0.898570	0.764330
O81	O8	0.831930	0.588930	0.910910
O91	O9	0.089120	0.688360	0.914640
O101	O10	0.922780	0.759840	0.802380
O111	O11	0.898750	0.309970	0.902840
O121	O12	0.156110	0.407710	0.907540
O131	O13	0.049950	0.232190	0.789240
O141	O14	0.101430	0.550170	0.735670
O151	O15	0.588930	0.831930	0.410910
O161	O16	0.688360	0.089120	0.414640
O171	O17	0.759840	0.922780	0.302380
O181	O18	0.309970	0.898750	0.402840
O191	O19	0.407710	0.156110	0.407540
O201	O20	0.232190	0.049950	0.289240
O211	O21	0.550170	0.101430	0.235670
O221	O22	0.168070	0.411070	0.089090
O231	O23	0.910880	0.311640	0.085360
O241	O24	0.077220	0.240160	0.197620
O251	O25	0.101250	0.690030	0.097160
O261	O26	0.843890	0.592290	0.092460
O271	O27	0.950050	0.767810	0.210760
O281	O28	0.898570	0.449830	0.264330
