data_GIQYEL_clean_PM
_symmetry_space_group_name_H-M	'P1'
_cell_length_a	9.720000
_cell_length_b	9.720000
_cell_length_c	15.726200
_cell_angle_alpha	92.741400
_cell_angle_beta	92.741400
_cell_angle_gamma	99.086000
_symmetry_Int_Tables_number 1

loop_
_symmetry_equiv_pos_as_xyz
'x,y,z'

loop_
_atom_site_label
_atom_site_type_symbol
_atom_site_fract_x
_atom_site_fract_y
_atom_site_fract_z
La11	La1	0.011710	0.988290	0.750000
La21	La2	0.988290	0.011710	0.250000
P11	P1	0.357140	0.045780	0.643590
P21	P2	0.648100	0.973660	0.651310
P31	P3	0.954220	0.642860	0.856410
P41	P4	0.026340	0.351900	0.848690
P51	P5	0.642860	0.954220	0.356410
P61	P6	0.351900	0.026340	0.348690
P71	P7	0.045780	0.357140	0.143590
P81	P8	0.973660	0.648100	0.151310
H11	H1	0.478800	0.159600	0.811100
H21	H2	0.634700	0.126100	0.810600
H31	H3	0.581500	0.224500	0.741600
H41	H4	0.511000	0.821000	0.763000
H51	H5	0.840400	0.521200	0.688900
H61	H6	0.873900	0.365300	0.689400
H71	H7	0.775500	0.418500	0.758400
H81	H8	0.179000	0.489000	0.737000
H91	H9	0.521200	0.840400	0.188900
H101	H10	0.365300	0.873900	0.189400
H111	H11	0.418500	0.775500	0.258400
H121	H12	0.489000	0.179000	0.237000
H131	H13	0.159600	0.478800	0.311100
H141	H14	0.126100	0.634700	0.310600
H151	H15	0.224500	0.581500	0.241600
H161	H16	0.821000	0.511000	0.263000
Ru11	Ru1	0.546460	0.119720	0.502090
Ru21	Ru2	0.880280	0.453540	0.997910
Ru31	Ru3	0.453540	0.880280	0.497910
Ru41	Ru4	0.119720	0.546460	0.002090
C11	C1	0.504190	0.015010	0.714350
C21	C2	0.554270	0.142730	0.774860
C31	C3	0.984990	0.495810	0.785650
C41	C4	0.857270	0.445730	0.725140
C51	C5	0.495810	0.984990	0.285650
C61	C6	0.445730	0.857270	0.225140
C71	C7	0.015010	0.504190	0.214350
C81	C8	0.142730	0.554270	0.274860
O11	O1	0.411870	0.168270	0.588970
O21	O2	0.311610	0.911550	0.585120
O31	O3	0.241480	0.078340	0.697300
O41	O4	0.689850	0.100610	0.597040
O51	O5	0.591640	0.843980	0.592110
O61	O6	0.766280	0.949540	0.710560
O71	O7	0.450090	0.898090	0.763460
O81	O8	0.831730	0.588130	0.911030
O91	O9	0.088450	0.688390	0.914880
O101	O10	0.921660	0.758520	0.802700
O111	O11	0.899390	0.310150	0.902960
O121	O12	0.156020	0.408360	0.907890
O131	O13	0.050460	0.233720	0.789440
O141	O14	0.101910	0.549910	0.736540
O151	O15	0.588130	0.831730	0.411030
O161	O16	0.688390	0.088450	0.414880
O171	O17	0.758520	0.921660	0.302700
O181	O18	0.310150	0.899390	0.402960
O191	O19	0.408360	0.156020	0.407890
O201	O20	0.233720	0.050460	0.289440
O211	O21	0.549910	0.101910	0.236540
O221	O22	0.168270	0.411870	0.088970
O231	O23	0.911550	0.311610	0.085120
O241	O24	0.078340	0.241480	0.197300
O251	O25	0.100610	0.689850	0.097040
O261	O26	0.843980	0.591640	0.092110
O271	O27	0.949540	0.766280	0.210560
O281	O28	0.898090	0.450090	0.263460
