data_GIRDUI_clean_PM
_symmetry_space_group_name_H-M	'P1'
_cell_length_a	8.287000
_cell_length_b	14.224000
_cell_length_c	14.726000
_cell_angle_alpha	90.000000
_cell_angle_beta	90.000000
_cell_angle_gamma	99.696000
_symmetry_Int_Tables_number 1

loop_
_symmetry_equiv_pos_as_xyz
'x,y,z'

loop_
_atom_site_label
_atom_site_type_symbol
_atom_site_fract_x
_atom_site_fract_y
_atom_site_fract_z
Co11	Co1	0.905930	0.119910	0.082560
Co21	Co2	0.594070	0.880090	0.582560
Co31	Co3	0.094070	0.880090	0.917440
Co41	Co4	0.405930	0.119910	0.417440
H11	H1	0.495700	0.838700	0.302000
H21	H2	0.655800	0.923300	0.056100
H31	H3	0.505300	0.764600	0.073700
H41	H4	0.350400	0.800900	0.111400
H51	H5	0.352400	0.708900	0.235900
H61	H6	0.348800	0.646300	0.148100
H71	H7	0.512700	0.675100	0.202100
H81	H8	0.246600	0.207600	0.109600
H91	H9	0.442700	0.336100	0.080800
H101	H10	0.118400	0.441500	0.929700
H111	H11	0.932800	0.308900	0.960200
H121	H12	0.390800	0.537600	0.947700
H131	H13	0.004300	0.161300	0.802000
H141	H14	0.844200	0.076700	0.556100
H151	H15	0.994700	0.235400	0.573700
H161	H16	0.149600	0.199100	0.611400
H171	H17	0.147600	0.291100	0.735900
H181	H18	0.151200	0.353700	0.648100
H191	H19	0.987300	0.324900	0.702100
H201	H20	0.253400	0.792400	0.609600
H211	H21	0.057300	0.663900	0.580800
H221	H22	0.381600	0.558500	0.429700
H231	H23	0.567200	0.691100	0.460200
H241	H24	0.109200	0.462400	0.447700
H251	H25	0.504300	0.161300	0.698000
H261	H26	0.344200	0.076700	0.943900
H271	H27	0.494700	0.235400	0.926300
H281	H28	0.649600	0.199100	0.888600
H291	H29	0.647600	0.291100	0.764100
H301	H30	0.651200	0.353700	0.851900
H311	H31	0.487300	0.324900	0.797900
H321	H32	0.753400	0.792400	0.890400
H331	H33	0.557300	0.663900	0.919200
H341	H34	0.881600	0.558500	0.070300
H351	H35	0.067200	0.691100	0.039800
H361	H36	0.609200	0.462400	0.052300
H371	H37	0.995700	0.838700	0.198000
H381	H38	0.155800	0.923300	0.443900
H391	H39	0.005300	0.764600	0.426300
H401	H40	0.850400	0.800900	0.388600
H411	H41	0.852400	0.708900	0.264100
H421	H42	0.848800	0.646300	0.351900
H431	H43	0.012700	0.675100	0.297900
H441	H44	0.746600	0.207600	0.390400
H451	H45	0.942700	0.336100	0.419200
H461	H46	0.618400	0.441500	0.570300
H471	H47	0.432800	0.308900	0.539800
H481	H48	0.890800	0.537600	0.552300
C11	C1	0.894600	0.098010	0.276810
C21	C2	0.764500	0.018410	0.244260
C31	C3	0.662700	0.958410	0.302050
C41	C4	0.562800	0.880870	0.264220
C51	C5	0.559700	0.864210	0.172150
C61	C6	0.659400	0.930930	0.118790
C71	C7	0.452300	0.780900	0.128900
C81	C8	0.413300	0.695700	0.183300
C91	C9	0.647100	0.975280	0.402600
C101	C10	0.219900	0.255700	0.072600
C111	C11	0.338700	0.333000	0.056000
C121	C12	0.303600	0.406000	0.002700
C131	C13	0.148000	0.394500	0.967000
C141	C14	0.036600	0.314700	0.985900
C151	C15	0.424000	0.491300	0.984500
C161	C16	0.605400	0.901990	0.776810
C171	C17	0.735500	0.981590	0.744260
C181	C18	0.837300	0.041590	0.802050
C191	C19	0.937200	0.119130	0.764220
C201	C20	0.940300	0.135790	0.672150
C211	C21	0.840600	0.069070	0.618790
C221	C22	0.047700	0.219100	0.628900
C231	C23	0.086700	0.304300	0.683300
C241	C24	0.852900	0.024720	0.902600
C251	C25	0.280100	0.744300	0.572600
C261	C26	0.161300	0.667000	0.556000
C271	C27	0.196400	0.594000	0.502700
C281	C28	0.352000	0.605500	0.467000
C291	C29	0.463400	0.685300	0.485900
C301	C30	0.076000	0.508700	0.484500
C311	C31	0.105400	0.901990	0.723190
C321	C32	0.235500	0.981590	0.755740
C331	C33	0.337300	0.041590	0.697950
C341	C34	0.437200	0.119130	0.735780
C351	C35	0.440300	0.135790	0.827850
C361	C36	0.340600	0.069070	0.881210
C371	C37	0.547700	0.219100	0.871100
C381	C38	0.586700	0.304300	0.816700
C391	C39	0.352900	0.024720	0.597400
C401	C40	0.780100	0.744300	0.927400
C411	C41	0.661300	0.667000	0.944000
C421	C42	0.696400	0.594000	0.997300
C431	C43	0.852000	0.605500	0.033000
C441	C44	0.963400	0.685300	0.014100
C451	C45	0.576000	0.508700	0.015500
C461	C46	0.394600	0.098010	0.223190
C471	C47	0.264500	0.018410	0.255740
C481	C48	0.162700	0.958410	0.197950
C491	C49	0.062800	0.880870	0.235780
C501	C50	0.059700	0.864210	0.327850
C511	C51	0.159400	0.930930	0.381210
C521	C52	0.952300	0.780900	0.371100
C531	C53	0.913300	0.695700	0.316700
C541	C54	0.147100	0.975280	0.097400
C551	C55	0.719900	0.255700	0.427400
C561	C56	0.838700	0.333000	0.444000
C571	C57	0.803600	0.406000	0.497300
C581	C58	0.648000	0.394500	0.533000
C591	C59	0.536600	0.314700	0.514100
C601	C60	0.924000	0.491300	0.515500
N11	N1	0.760000	0.005520	0.153670
N21	N2	0.069500	0.244860	0.039260
N31	N3	0.740000	0.994480	0.653670
N41	N4	0.430500	0.755140	0.539260
N51	N5	0.240000	0.994480	0.846330
N61	N6	0.930500	0.755140	0.960740
N71	N7	0.260000	0.005520	0.346330
N81	N8	0.569500	0.244860	0.460740
O11	O1	0.958100	0.158040	0.217510
O21	O2	0.934000	0.099240	0.357540
O31	O3	0.602800	0.049580	0.428930
O41	O4	0.673100	0.907970	0.452630
O51	O5	0.541900	0.841960	0.717510
O61	O6	0.566000	0.900760	0.857540
O71	O7	0.897200	0.950420	0.928930
O81	O8	0.826900	0.092030	0.952630
O91	O9	0.041900	0.841960	0.782490
O101	O10	0.066000	0.900760	0.642460
O111	O11	0.397200	0.950420	0.571070
O121	O12	0.326900	0.092030	0.547370
O131	O13	0.458100	0.158040	0.282490
O141	O14	0.434000	0.099240	0.142460
O151	O15	0.102800	0.049580	0.071070
O161	O16	0.173100	0.907970	0.047370
