data_GIRFUJ_clean_PM
_symmetry_space_group_name_H-M	'P1'
_cell_length_a	7.739900
_cell_length_b	9.951000
_cell_length_c	15.091000
_cell_angle_alpha	90.000000
_cell_angle_beta	98.510000
_cell_angle_gamma	90.000000
_symmetry_Int_Tables_number 1

loop_
_symmetry_equiv_pos_as_xyz
'x,y,z'

loop_
_atom_site_label
_atom_site_type_symbol
_atom_site_fract_x
_atom_site_fract_y
_atom_site_fract_z
Ce11	Ce1	0.357230	0.043400	0.640440
Ce21	Ce2	0.142770	0.543400	0.859560
Ce31	Ce3	0.642770	0.956600	0.359560
Ce41	Ce4	0.857230	0.456600	0.140440
H11	H1	0.118000	0.302000	0.482200
H21	H2	0.325000	0.610000	0.631600
H31	H3	0.295000	0.607000	0.361200
H41	H4	0.382000	0.802000	0.017800
H51	H5	0.175000	0.110000	0.868400
H61	H6	0.205000	0.107000	0.138800
H71	H7	0.882000	0.698000	0.517800
H81	H8	0.675000	0.390000	0.368400
H91	H9	0.705000	0.393000	0.638800
H101	H10	0.618000	0.198000	0.982200
H111	H11	0.825000	0.890000	0.131600
H121	H12	0.795000	0.893000	0.861200
C11	C1	0.191200	0.363800	0.654030
C21	C2	0.219900	0.441250	0.572560
C31	C3	0.170400	0.386000	0.488160
C41	C4	0.273700	0.566400	0.418110
C51	C5	0.325100	0.630900	0.499230
C61	C6	0.295300	0.568400	0.577800
C71	C7	0.411400	0.766300	0.501310
C81	C8	0.956900	0.967970	0.538290
C91	C9	0.308800	0.863800	0.845970
C101	C10	0.280100	0.941250	0.927440
C111	C11	0.329600	0.886000	0.011840
C121	C12	0.226300	0.066400	0.081890
C131	C13	0.174900	0.130900	0.000770
C141	C14	0.204700	0.068400	0.922200
C151	C15	0.088600	0.266300	0.998690
C161	C16	0.543100	0.467970	0.961710
C171	C17	0.808800	0.636200	0.345970
C181	C18	0.780100	0.558750	0.427440
C191	C19	0.829600	0.614000	0.511840
C201	C20	0.726300	0.433600	0.581890
C211	C21	0.674900	0.369100	0.500770
C221	C22	0.704700	0.431600	0.422200
C231	C23	0.588600	0.233700	0.498690
C241	C24	0.043100	0.032030	0.461710
C251	C25	0.691200	0.136200	0.154030
C261	C26	0.719900	0.058750	0.072560
C271	C27	0.670400	0.114000	0.988160
C281	C28	0.773700	0.933600	0.918110
C291	C29	0.825100	0.869100	0.999230
C301	C30	0.795300	0.931600	0.077800
C311	C31	0.911400	0.733700	0.001310
C321	C32	0.456900	0.532030	0.038290
N11	N1	0.193200	0.445970	0.411790
N21	N2	0.306800	0.945970	0.088210
N31	N3	0.806800	0.554030	0.588210
N41	N4	0.693200	0.054030	0.911790
O11	O1	0.163510	0.238610	0.644930
O21	O2	0.196100	0.424230	0.726850
O31	O3	0.471900	0.802620	0.433080
O41	O4	0.416600	0.834080	0.571820
O51	O5	0.053100	0.947210	0.611270
O61	O6	0.797550	0.940160	0.520550
O71	O7	0.336490	0.738610	0.855070
O81	O8	0.303900	0.924230	0.773150
O91	O9	0.028100	0.302620	0.066920
O101	O10	0.083400	0.334080	0.928180
O111	O11	0.446900	0.447210	0.888730
O121	O12	0.702450	0.440160	0.979450
O131	O13	0.836490	0.761390	0.355070
O141	O14	0.803900	0.575770	0.273150
O151	O15	0.528100	0.197380	0.566920
O161	O16	0.583400	0.165920	0.428180
O171	O17	0.946900	0.052790	0.388730
O181	O18	0.202450	0.059840	0.479450
O191	O19	0.663510	0.261390	0.144930
O201	O20	0.696100	0.075770	0.226850
O211	O21	0.971900	0.697380	0.933080
O221	O22	0.916600	0.665920	0.071820
O231	O23	0.553100	0.552790	0.111270
O241	O24	0.297550	0.559840	0.020550
