data_GIRGUL_clean_PM
_symmetry_space_group_name_H-M	'P1'
_cell_length_a	8.267000
_cell_length_b	13.344000
_cell_length_c	14.724000
_cell_angle_alpha	90.000000
_cell_angle_beta	90.000000
_cell_angle_gamma	105.840000
_symmetry_Int_Tables_number 1

loop_
_symmetry_equiv_pos_as_xyz
'x,y,z'

loop_
_atom_site_label
_atom_site_type_symbol
_atom_site_fract_x
_atom_site_fract_y
_atom_site_fract_z
Co11	Co1	0.316600	0.369530	0.083150
Co21	Co2	0.183400	0.630470	0.583150
Co31	Co3	0.683400	0.630470	0.916850
Co41	Co4	0.816600	0.369530	0.416850
H11	H1	0.120200	0.676600	0.300800
H21	H2	0.220100	0.584600	0.056100
H31	H3	0.008500	0.724900	0.119400
H41	H4	0.181800	0.753000	0.069600
H51	H5	0.295900	0.855600	0.191000
H61	H6	0.156900	0.893300	0.139800
H71	H7	0.114600	0.833500	0.232200
H81	H8	0.590900	0.268100	0.109400
H91	H9	0.671900	0.121900	0.084200
H101	H10	0.258900	0.015000	0.935800
H111	H11	0.196800	0.168500	0.961700
H121	H12	0.379800	0.323400	0.800800
H131	H13	0.279900	0.415400	0.556100
H141	H14	0.491500	0.275100	0.619400
H151	H15	0.318200	0.247000	0.569600
H161	H16	0.204100	0.144400	0.691000
H171	H17	0.343100	0.106700	0.639800
H181	H18	0.385400	0.166500	0.732200
H191	H19	0.909100	0.731900	0.609400
H201	H20	0.828100	0.878100	0.584200
H211	H21	0.241100	0.985000	0.435800
H221	H22	0.303200	0.831500	0.461700
H231	H23	0.879800	0.323400	0.699200
H241	H24	0.779900	0.415400	0.943900
H251	H25	0.991500	0.275100	0.880600
H261	H26	0.818200	0.247000	0.930400
H271	H27	0.704100	0.144400	0.809000
H281	H28	0.843100	0.106700	0.860200
H291	H29	0.885400	0.166500	0.767800
H301	H30	0.409100	0.731900	0.890600
H311	H31	0.328100	0.878100	0.915800
H321	H32	0.741100	0.985000	0.064200
H331	H33	0.803200	0.831500	0.038300
H341	H34	0.620200	0.676600	0.199200
H351	H35	0.720100	0.584600	0.443900
H361	H36	0.508500	0.724900	0.380600
H371	H37	0.681800	0.753000	0.430400
H381	H38	0.795900	0.855600	0.309000
H391	H39	0.656900	0.893300	0.360200
H401	H40	0.614600	0.833500	0.267800
H411	H41	0.090900	0.268100	0.390600
H421	H42	0.171900	0.121900	0.415800
H431	H43	0.758900	0.015000	0.564200
H441	H44	0.696800	0.168500	0.538300
C11	C1	0.320800	0.394000	0.277400
C21	C2	0.252400	0.480900	0.244000
C31	C3	0.156700	0.631200	0.263300
C41	C4	0.168600	0.650500	0.171200
C51	C5	0.217300	0.576600	0.118900
C61	C6	0.168100	0.529100	0.402400
C71	C7	0.129000	0.742300	0.129000
C81	C8	0.178100	0.839200	0.176900
C91	C9	0.522300	0.216000	0.073800
C101	C10	0.571800	0.127900	0.059100
C111	C11	0.476000	0.048700	0.007900
C121	C12	0.330300	0.065800	0.971500
C131	C13	0.292600	0.158000	0.988700
C141	C14	0.196700	0.547500	0.301500
C151	C15	0.179200	0.606000	0.777400
C161	C16	0.247600	0.519100	0.744000
C171	C17	0.343300	0.368800	0.763300
C181	C18	0.331400	0.349500	0.671200
C191	C19	0.282700	0.423400	0.618900
C201	C20	0.331900	0.470900	0.902400
C211	C21	0.371000	0.257700	0.629000
C221	C22	0.321900	0.160800	0.676900
C231	C23	0.977700	0.784000	0.573800
C241	C24	0.928200	0.872100	0.559100
C251	C25	0.024000	0.951300	0.507900
C261	C26	0.169700	0.934200	0.471500
C271	C27	0.207400	0.842000	0.488700
C281	C28	0.303300	0.452500	0.801500
C291	C29	0.679200	0.606000	0.722600
C301	C30	0.747600	0.519100	0.756000
C311	C31	0.843300	0.368800	0.736700
C321	C32	0.831400	0.349500	0.828800
C331	C33	0.782700	0.423400	0.881100
C341	C34	0.831900	0.470900	0.597600
C351	C35	0.871000	0.257700	0.871000
C361	C36	0.821900	0.160800	0.823100
C371	C37	0.477700	0.784000	0.926200
C381	C38	0.428200	0.872100	0.940900
C391	C39	0.524000	0.951300	0.992100
C401	C40	0.669700	0.934200	0.028500
C411	C41	0.707400	0.842000	0.011300
C421	C42	0.803300	0.452500	0.698500
C431	C43	0.820800	0.394000	0.222600
C441	C44	0.752400	0.480900	0.256000
C451	C45	0.656700	0.631200	0.236700
C461	C46	0.668600	0.650500	0.328800
C471	C47	0.717300	0.576600	0.381100
C481	C48	0.668100	0.529100	0.097600
C491	C49	0.629000	0.742300	0.371000
C501	C50	0.678100	0.839200	0.323100
C511	C51	0.022300	0.216000	0.426200
C521	C52	0.071800	0.127900	0.440900
C531	C53	0.976000	0.048700	0.492100
C541	C54	0.830300	0.065800	0.528500
C551	C55	0.792600	0.158000	0.511300
C561	C56	0.696700	0.547500	0.198500
N11	N1	0.260100	0.495300	0.153460
N21	N2	0.382200	0.231900	0.040420
N31	N3	0.239900	0.504700	0.653460
N41	N4	0.117800	0.768100	0.540420
N51	N5	0.739900	0.504700	0.846540
N61	N6	0.617800	0.768100	0.959580
N71	N7	0.760100	0.495300	0.346540
N81	N8	0.882200	0.231900	0.459580
O11	O1	0.337700	0.328480	0.218190
O21	O2	0.358500	0.392660	0.357780
O31	O3	0.067400	0.446280	0.428380
O41	O4	0.243100	0.602580	0.452490
O51	O5	0.162300	0.671520	0.718190
O61	O6	0.141500	0.607340	0.857780
O71	O7	0.432600	0.553720	0.928380
O81	O8	0.256900	0.397420	0.952490
O91	O9	0.662300	0.671520	0.781810
O101	O10	0.641500	0.607340	0.642220
O111	O11	0.932600	0.553720	0.571620
O121	O12	0.756900	0.397420	0.547510
O131	O13	0.837700	0.328480	0.281810
O141	O14	0.858500	0.392660	0.142220
O151	O15	0.567400	0.446280	0.071620
O161	O16	0.743100	0.602580	0.047510
