data_GIRYEN_clean_PM
_symmetry_space_group_name_H-M	'P1'
_cell_length_a	16.205000
_cell_length_b	24.834000
_cell_length_c	13.514000
_cell_angle_alpha	90.000000
_cell_angle_beta	124.244000
_cell_angle_gamma	90.000000
_symmetry_Int_Tables_number 1

loop_
_symmetry_equiv_pos_as_xyz
'x,y,z'

loop_
_atom_site_label
_atom_site_type_symbol
_atom_site_fract_x
_atom_site_fract_y
_atom_site_fract_z
Zn11	Zn1	0.322510	0.052510	0.728400
O11	O1	0.742070	0.062210	0.945790
O21	O2	0.624190	0.121050	0.907580
O31	O3	0.651230	0.029880	0.080910
O41	O4	0.751970	0.012220	0.276710
O51	O5	0.970000	0.156280	0.536100
O61	O6	0.016000	0.218010	0.469100
O71	O7	0.458810	0.038610	0.845120
H11	H1	0.497500	0.061600	0.844800
N11	N1	0.967300	0.178450	0.454900
N21	N2	0.459840	0.070470	0.059320
N31	N3	0.238920	0.384140	0.235000
C11	C1	0.771250	0.117710	0.104480
C21	C2	0.783300	0.089860	0.201860
C31	C3	0.848860	0.109490	0.317400
H21	H2	0.858400	0.091100	0.383000
C41	C4	0.899590	0.156900	0.332800
C51	C5	0.888500	0.185720	0.238700
H31	H3	0.923200	0.217700	0.251700
C61	C6	0.824100	0.165460	0.124400
H41	H4	0.815700	0.184000	0.059600
C71	C7	0.704650	0.098460	0.975970
C81	C8	0.723410	0.039870	0.183550
C91	C9	0.479720	0.121120	0.044830
H51	H5	0.517800	0.126500	0.013800
C101	C10	0.446260	0.165810	0.073900
H61	H6	0.462200	0.200300	0.062800
C111	C11	0.388210	0.158690	0.120000
C121	C12	0.367840	0.106000	0.134200
H71	H7	0.329400	0.099300	0.164300
C131	C13	0.404530	0.063630	0.103800
H81	H8	0.390300	0.028700	0.114600
C141	C14	0.348490	0.202990	0.153900
H91	H9	0.308200	0.193500	0.179900
C151	C15	0.364480	0.254860	0.150900
H101	H10	0.405900	0.264600	0.126700
C161	C16	0.294600	0.392670	0.191500
H111	H11	0.305400	0.428000	0.178400
C171	C17	0.336400	0.351650	0.165400
H121	H12	0.374600	0.359700	0.135700
C181	C18	0.321900	0.298750	0.182900
C191	C19	0.265100	0.289880	0.229800
H131	H13	0.254400	0.255000	0.245300
C201	C20	0.225000	0.332990	0.253000
H141	H14	0.186200	0.326200	0.282600
Zn21	Zn2	0.822510	0.552510	0.728400
O81	O8	0.242070	0.562210	0.945790
O91	O9	0.124190	0.621050	0.907580
O101	O10	0.151230	0.529880	0.080910
O111	O11	0.251970	0.512220	0.276710
O121	O12	0.470000	0.656280	0.536100
O131	O13	0.516000	0.718010	0.469100
O141	O14	0.958810	0.538610	0.845120
H151	H15	0.997500	0.561600	0.844800
N41	N4	0.467300	0.678450	0.454900
N51	N5	0.959840	0.570470	0.059320
N61	N6	0.738920	0.884140	0.235000
C211	C21	0.271250	0.617710	0.104480
C221	C22	0.283300	0.589860	0.201860
C231	C23	0.348860	0.609490	0.317400
H161	H16	0.358400	0.591100	0.383000
C241	C24	0.399590	0.656900	0.332800
C251	C25	0.388500	0.685720	0.238700
H171	H17	0.423200	0.717700	0.251700
C261	C26	0.324100	0.665460	0.124400
H181	H18	0.315700	0.684000	0.059600
C271	C27	0.204650	0.598460	0.975970
C281	C28	0.223410	0.539870	0.183550
C291	C29	0.979720	0.621120	0.044830
H191	H19	0.017800	0.626500	0.013800
C301	C30	0.946260	0.665810	0.073900
H201	H20	0.962200	0.700300	0.062800
C311	C31	0.888210	0.658690	0.120000
C321	C32	0.867840	0.606000	0.134200
H211	H21	0.829400	0.599300	0.164300
C331	C33	0.904530	0.563630	0.103800
H221	H22	0.890300	0.528700	0.114600
C341	C34	0.848490	0.702990	0.153900
H231	H23	0.808200	0.693500	0.179900
C351	C35	0.864480	0.754860	0.150900
H241	H24	0.905900	0.764600	0.126700
C361	C36	0.794600	0.892670	0.191500
H251	H25	0.805400	0.928000	0.178400
C371	C37	0.836400	0.851650	0.165400
H261	H26	0.874600	0.859700	0.135700
C381	C38	0.821900	0.798750	0.182900
C391	C39	0.765100	0.789880	0.229800
H271	H27	0.754400	0.755000	0.245300
C401	C40	0.725000	0.832990	0.253000
H281	H28	0.686200	0.826200	0.282600
Zn31	Zn3	0.677490	0.052510	0.771600
O151	O15	0.257930	0.062210	0.554210
O161	O16	0.375810	0.121050	0.592420
O171	O17	0.348770	0.029880	0.419090
O181	O18	0.248030	0.012220	0.223290
O191	O19	0.030000	0.156280	0.963900
O201	O20	0.984000	0.218010	0.030900
O211	O21	0.541190	0.038610	0.654880
H291	H29	0.502500	0.061600	0.655200
N71	N7	0.032700	0.178450	0.045100
N81	N8	0.540160	0.070470	0.440680
N91	N9	0.761080	0.384140	0.265000
C411	C41	0.228750	0.117710	0.395520
C421	C42	0.216700	0.089860	0.298140
C431	C43	0.151140	0.109490	0.182600
H301	H30	0.141600	0.091100	0.117000
C441	C44	0.100410	0.156900	0.167200
C451	C45	0.111500	0.185720	0.261300
H311	H31	0.076800	0.217700	0.248300
C461	C46	0.175900	0.165460	0.375600
H321	H32	0.184300	0.184000	0.440400
C471	C47	0.295350	0.098460	0.524030
C481	C48	0.276590	0.039870	0.316450
C491	C49	0.520280	0.121120	0.455170
H331	H33	0.482200	0.126500	0.486200
C501	C50	0.553740	0.165810	0.426100
H341	H34	0.537800	0.200300	0.437200
C511	C51	0.611790	0.158690	0.380000
C521	C52	0.632160	0.106000	0.365800
H351	H35	0.670600	0.099300	0.335700
C531	C53	0.595470	0.063630	0.396200
H361	H36	0.609700	0.028700	0.385400
C541	C54	0.651510	0.202990	0.346100
H371	H37	0.691800	0.193500	0.320100
C551	C55	0.635520	0.254860	0.349100
H381	H38	0.594100	0.264600	0.373300
C561	C56	0.705400	0.392670	0.308500
H391	H39	0.694600	0.428000	0.321600
C571	C57	0.663600	0.351650	0.334600
H401	H40	0.625400	0.359700	0.364300
C581	C58	0.678100	0.298750	0.317100
C591	C59	0.734900	0.289880	0.270200
H411	H41	0.745600	0.255000	0.254700
C601	C60	0.775000	0.332990	0.247000
H421	H42	0.813800	0.326200	0.217400
Zn41	Zn4	0.177490	0.552510	0.771600
O221	O22	0.757930	0.562210	0.554210
O231	O23	0.875810	0.621050	0.592420
O241	O24	0.848770	0.529880	0.419090
O251	O25	0.748030	0.512220	0.223290
O261	O26	0.530000	0.656280	0.963900
O271	O27	0.484000	0.718010	0.030900
O281	O28	0.041190	0.538610	0.654880
H431	H43	0.002500	0.561600	0.655200
N101	N10	0.532700	0.678450	0.045100
N111	N11	0.040160	0.570470	0.440680
N121	N12	0.261080	0.884140	0.265000
C611	C61	0.728750	0.617710	0.395520
C621	C62	0.716700	0.589860	0.298140
C631	C63	0.651140	0.609490	0.182600
H441	H44	0.641600	0.591100	0.117000
C641	C64	0.600410	0.656900	0.167200
C651	C65	0.611500	0.685720	0.261300
H451	H45	0.576800	0.717700	0.248300
C661	C66	0.675900	0.665460	0.375600
H461	H46	0.684300	0.684000	0.440400
C671	C67	0.795350	0.598460	0.524030
C681	C68	0.776590	0.539870	0.316450
C691	C69	0.020280	0.621120	0.455170
H471	H47	0.982200	0.626500	0.486200
C701	C70	0.053740	0.665810	0.426100
H481	H48	0.037800	0.700300	0.437200
C711	C71	0.111790	0.658690	0.380000
C721	C72	0.132160	0.606000	0.365800
H491	H49	0.170600	0.599300	0.335700
C731	C73	0.095470	0.563630	0.396200
H501	H50	0.109700	0.528700	0.385400
C741	C74	0.151510	0.702990	0.346100
H511	H51	0.191800	0.693500	0.320100
C751	C75	0.135520	0.754860	0.349100
H521	H52	0.094100	0.764600	0.373300
C761	C76	0.205400	0.892670	0.308500
H531	H53	0.194600	0.928000	0.321600
C771	C77	0.163600	0.851650	0.334600
H541	H54	0.125400	0.859700	0.364300
C781	C78	0.178100	0.798750	0.317100
C791	C79	0.234900	0.789880	0.270200
H551	H55	0.245600	0.755000	0.254700
C801	C80	0.275000	0.832990	0.247000
H561	H56	0.313800	0.826200	0.217400
Zn51	Zn5	0.677490	0.947490	0.271600
O291	O29	0.257930	0.937790	0.054210
O301	O30	0.375810	0.878950	0.092420
O311	O31	0.348770	0.970120	0.919090
O321	O32	0.248030	0.987780	0.723290
O331	O33	0.030000	0.843720	0.463900
O341	O34	0.984000	0.781990	0.530900
O351	O35	0.541190	0.961390	0.154880
H571	H57	0.502500	0.938400	0.155200
N131	N13	0.032700	0.821550	0.545100
N141	N14	0.540160	0.929530	0.940680
N151	N15	0.761080	0.615860	0.765000
C811	C81	0.228750	0.882290	0.895520
C821	C82	0.216700	0.910140	0.798140
C831	C83	0.151140	0.890510	0.682600
H581	H58	0.141600	0.908900	0.617000
C841	C84	0.100410	0.843100	0.667200
C851	C85	0.111500	0.814280	0.761300
H591	H59	0.076800	0.782300	0.748300
C861	C86	0.175900	0.834540	0.875600
H601	H60	0.184300	0.816000	0.940400
C871	C87	0.295350	0.901540	0.024030
C881	C88	0.276590	0.960130	0.816450
C891	C89	0.520280	0.878880	0.955170
H611	H61	0.482200	0.873500	0.986200
C901	C90	0.553740	0.834190	0.926100
H621	H62	0.537800	0.799700	0.937200
C911	C91	0.611790	0.841310	0.880000
C921	C92	0.632160	0.894000	0.865800
H631	H63	0.670600	0.900700	0.835700
C931	C93	0.595470	0.936370	0.896200
H641	H64	0.609700	0.971300	0.885400
C941	C94	0.651510	0.797010	0.846100
H651	H65	0.691800	0.806500	0.820100
C951	C95	0.635520	0.745140	0.849100
H661	H66	0.594100	0.735400	0.873300
C961	C96	0.705400	0.607330	0.808500
H671	H67	0.694600	0.572000	0.821600
C971	C97	0.663600	0.648350	0.834600
H681	H68	0.625400	0.640300	0.864300
C981	C98	0.678100	0.701250	0.817100
C991	C99	0.734900	0.710120	0.770200
H691	H69	0.745600	0.745000	0.754700
C1001	C100	0.775000	0.667010	0.747000
H701	H70	0.813800	0.673800	0.717400
Zn61	Zn6	0.177490	0.447490	0.271600
O361	O36	0.757930	0.437790	0.054210
O371	O37	0.875810	0.378950	0.092420
O381	O38	0.848770	0.470120	0.919090
O391	O39	0.748030	0.487780	0.723290
O401	O40	0.530000	0.343720	0.463900
O411	O41	0.484000	0.281990	0.530900
O421	O42	0.041190	0.461390	0.154880
H711	H71	0.002500	0.438400	0.155200
N161	N16	0.532700	0.321550	0.545100
N171	N17	0.040160	0.429530	0.940680
N181	N18	0.261080	0.115860	0.765000
C1011	C101	0.728750	0.382290	0.895520
C1021	C102	0.716700	0.410140	0.798140
C1031	C103	0.651140	0.390510	0.682600
H721	H72	0.641600	0.408900	0.617000
C1041	C104	0.600410	0.343100	0.667200
C1051	C105	0.611500	0.314280	0.761300
H731	H73	0.576800	0.282300	0.748300
C1061	C106	0.675900	0.334540	0.875600
H741	H74	0.684300	0.316000	0.940400
C1071	C107	0.795350	0.401540	0.024030
C1081	C108	0.776590	0.460130	0.816450
C1091	C109	0.020280	0.378880	0.955170
H751	H75	0.982200	0.373500	0.986200
C1101	C110	0.053740	0.334190	0.926100
H761	H76	0.037800	0.299700	0.937200
C1111	C111	0.111790	0.341310	0.880000
C1121	C112	0.132160	0.394000	0.865800
H771	H77	0.170600	0.400700	0.835700
C1131	C113	0.095470	0.436370	0.896200
H781	H78	0.109700	0.471300	0.885400
C1141	C114	0.151510	0.297010	0.846100
H791	H79	0.191800	0.306500	0.820100
C1151	C115	0.135520	0.245140	0.849100
H801	H80	0.094100	0.235400	0.873300
C1161	C116	0.205400	0.107330	0.808500
H811	H81	0.194600	0.072000	0.821600
C1171	C117	0.163600	0.148350	0.834600
H821	H82	0.125400	0.140300	0.864300
C1181	C118	0.178100	0.201250	0.817100
C1191	C119	0.234900	0.210120	0.770200
H831	H83	0.245600	0.245000	0.754700
C1201	C120	0.275000	0.167010	0.747000
H841	H84	0.313800	0.173800	0.717400
Zn71	Zn7	0.322510	0.947490	0.228400
O431	O43	0.742070	0.937790	0.445790
O441	O44	0.624190	0.878950	0.407580
O451	O45	0.651230	0.970120	0.580910
O461	O46	0.751970	0.987780	0.776710
O471	O47	0.970000	0.843720	0.036100
O481	O48	0.016000	0.781990	0.969100
O491	O49	0.458810	0.961390	0.345120
H851	H85	0.497500	0.938400	0.344800
N191	N19	0.967300	0.821550	0.954900
N201	N20	0.459840	0.929530	0.559320
N211	N21	0.238920	0.615860	0.735000
C1211	C121	0.771250	0.882290	0.604480
C1221	C122	0.783300	0.910140	0.701860
C1231	C123	0.848860	0.890510	0.817400
H861	H86	0.858400	0.908900	0.883000
C1241	C124	0.899590	0.843100	0.832800
C1251	C125	0.888500	0.814280	0.738700
H871	H87	0.923200	0.782300	0.751700
C1261	C126	0.824100	0.834540	0.624400
H881	H88	0.815700	0.816000	0.559600
C1271	C127	0.704650	0.901540	0.475970
C1281	C128	0.723410	0.960130	0.683550
C1291	C129	0.479720	0.878880	0.544830
H891	H89	0.517800	0.873500	0.513800
C1301	C130	0.446260	0.834190	0.573900
H901	H90	0.462200	0.799700	0.562800
C1311	C131	0.388210	0.841310	0.620000
C1321	C132	0.367840	0.894000	0.634200
H911	H91	0.329400	0.900700	0.664300
C1331	C133	0.404530	0.936370	0.603800
H921	H92	0.390300	0.971300	0.614600
C1341	C134	0.348490	0.797010	0.653900
H931	H93	0.308200	0.806500	0.679900
C1351	C135	0.364480	0.745140	0.650900
H941	H94	0.405900	0.735400	0.626700
C1361	C136	0.294600	0.607330	0.691500
H951	H95	0.305400	0.572000	0.678400
C1371	C137	0.336400	0.648350	0.665400
H961	H96	0.374600	0.640300	0.635700
C1381	C138	0.321900	0.701250	0.682900
C1391	C139	0.265100	0.710120	0.729800
H971	H97	0.254400	0.745000	0.745300
C1401	C140	0.225000	0.667010	0.753000
H981	H98	0.186200	0.673800	0.782600
Zn81	Zn8	0.822510	0.447490	0.228400
O501	O50	0.242070	0.437790	0.445790
O511	O51	0.124190	0.378950	0.407580
O521	O52	0.151230	0.470120	0.580910
O531	O53	0.251970	0.487780	0.776710
O541	O54	0.470000	0.343720	0.036100
O551	O55	0.516000	0.281990	0.969100
O561	O56	0.958810	0.461390	0.345120
H991	H99	0.997500	0.438400	0.344800
N221	N22	0.467300	0.321550	0.954900
N231	N23	0.959840	0.429530	0.559320
N241	N24	0.738920	0.115860	0.735000
C1411	C141	0.271250	0.382290	0.604480
C1421	C142	0.283300	0.410140	0.701860
C1431	C143	0.348860	0.390510	0.817400
H1001	H100	0.358400	0.408900	0.883000
C1441	C144	0.399590	0.343100	0.832800
C1451	C145	0.388500	0.314280	0.738700
H1011	H101	0.423200	0.282300	0.751700
C1461	C146	0.324100	0.334540	0.624400
H1021	H102	0.315700	0.316000	0.559600
C1471	C147	0.204650	0.401540	0.475970
C1481	C148	0.223410	0.460130	0.683550
C1491	C149	0.979720	0.378880	0.544830
H1031	H103	0.017800	0.373500	0.513800
C1501	C150	0.946260	0.334190	0.573900
H1041	H104	0.962200	0.299700	0.562800
C1511	C151	0.888210	0.341310	0.620000
C1521	C152	0.867840	0.394000	0.634200
H1051	H105	0.829400	0.400700	0.664300
C1531	C153	0.904530	0.436370	0.603800
H1061	H106	0.890300	0.471300	0.614600
C1541	C154	0.848490	0.297010	0.653900
H1071	H107	0.808200	0.306500	0.679900
C1551	C155	0.864480	0.245140	0.650900
H1081	H108	0.905900	0.235400	0.626700
C1561	C156	0.794600	0.107330	0.691500
H1091	H109	0.805400	0.072000	0.678400
C1571	C157	0.836400	0.148350	0.665400
H1101	H110	0.874600	0.140300	0.635700
C1581	C158	0.821900	0.201250	0.682900
C1591	C159	0.765100	0.210120	0.729800
H1111	H111	0.754400	0.245000	0.745300
C1601	C160	0.725000	0.167010	0.753000
H1121	H112	0.686200	0.173800	0.782600
Zn91	Zn9	0.500000	0.000000	0.000000
Zn101	Zn10	0.000000	0.500000	0.000000
Zn111	Zn11	0.500000	0.000000	0.500000
Zn121	Zn12	0.000000	0.500000	0.500000
