data_GIRYAJ_clean_PM
_symmetry_space_group_name_H-M	'P1'
_cell_length_a	20.466600
_cell_length_b	20.466600
_cell_length_c	20.466600
_cell_angle_alpha	90.000000
_cell_angle_beta	90.000000
_cell_angle_gamma	90.000000
_symmetry_Int_Tables_number 1

loop_
_symmetry_equiv_pos_as_xyz
'x,y,z'

loop_
_atom_site_label
_atom_site_type_symbol
_atom_site_fract_x
_atom_site_fract_y
_atom_site_fract_z
C11	C1	0.377300	0.761500	0.761500
C21	C2	0.440700	0.835600	0.835600
H11	H1	0.400100	0.851500	0.851500
C31	C3	0.441800	0.787800	0.787800
O11	O1	0.327500	0.782600	0.782600
O21	O2	0.385900	0.717900	0.717900
O31	O3	0.444500	0.931630	0.931630
C41	C4	0.622700	0.238500	0.761500
C51	C5	0.559300	0.164400	0.835600
H21	H2	0.599900	0.148500	0.851500
C61	C6	0.558200	0.212200	0.787800
O41	O4	0.672500	0.217400	0.782600
O51	O5	0.614100	0.282100	0.717900
O61	O6	0.555500	0.068370	0.931630
C71	C7	0.622700	0.761500	0.238500
C81	C8	0.559300	0.835600	0.164400
H31	H3	0.599900	0.851500	0.148500
C91	C9	0.558200	0.787800	0.212200
O71	O7	0.672500	0.782600	0.217400
O81	O8	0.614100	0.717900	0.282100
O91	O9	0.555500	0.931630	0.068370
C101	C10	0.377300	0.238500	0.238500
C111	C11	0.440700	0.164400	0.164400
H41	H4	0.400100	0.148500	0.148500
C121	C12	0.441800	0.212200	0.212200
O101	O10	0.327500	0.217400	0.217400
O111	O11	0.385900	0.282100	0.282100
O121	O12	0.444500	0.068370	0.068370
C131	C13	0.761500	0.377300	0.761500
C141	C14	0.835600	0.440700	0.835600
H51	H5	0.851500	0.400100	0.851500
C151	C15	0.787800	0.441800	0.787800
O131	O13	0.782600	0.327500	0.782600
O141	O14	0.717900	0.385900	0.717900
O151	O15	0.931630	0.444500	0.931630
C161	C16	0.761500	0.622700	0.238500
C171	C17	0.835600	0.559300	0.164400
H61	H6	0.851500	0.599900	0.148500
C181	C18	0.787800	0.558200	0.212200
O161	O16	0.782600	0.672500	0.217400
O171	O17	0.717900	0.614100	0.282100
O181	O18	0.931630	0.555500	0.068370
C191	C19	0.238500	0.622700	0.761500
C201	C20	0.164400	0.559300	0.835600
H71	H7	0.148500	0.599900	0.851500
C211	C21	0.212200	0.558200	0.787800
O191	O19	0.217400	0.672500	0.782600
O201	O20	0.282100	0.614100	0.717900
O211	O21	0.068370	0.555500	0.931630
C221	C22	0.238500	0.377300	0.238500
C231	C23	0.164400	0.440700	0.164400
H81	H8	0.148500	0.400100	0.148500
C241	C24	0.212200	0.441800	0.212200
O221	O22	0.217400	0.327500	0.217400
O231	O23	0.282100	0.385900	0.282100
O241	O24	0.068370	0.444500	0.068370
C251	C25	0.761500	0.761500	0.377300
C261	C26	0.835600	0.835600	0.440700
H91	H9	0.851500	0.851500	0.400100
C271	C27	0.787800	0.787800	0.441800
O251	O25	0.782600	0.782600	0.327500
O261	O26	0.717900	0.717900	0.385900
O271	O27	0.931630	0.931630	0.444500
C281	C28	0.238500	0.761500	0.622700
C291	C29	0.164400	0.835600	0.559300
H101	H10	0.148500	0.851500	0.599900
C301	C30	0.212200	0.787800	0.558200
O281	O28	0.217400	0.782600	0.672500
O291	O29	0.282100	0.717900	0.614100
O301	O30	0.068370	0.931630	0.555500
C311	C31	0.761500	0.238500	0.622700
C321	C32	0.835600	0.164400	0.559300
H111	H11	0.851500	0.148500	0.599900
C331	C33	0.787800	0.212200	0.558200
O311	O31	0.782600	0.217400	0.672500
O321	O32	0.717900	0.282100	0.614100
O331	O33	0.931630	0.068370	0.555500
C341	C34	0.238500	0.238500	0.377300
C351	C35	0.164400	0.164400	0.440700
H121	H12	0.148500	0.148500	0.400100
C361	C36	0.212200	0.212200	0.441800
O341	O34	0.217400	0.217400	0.327500
O351	O35	0.282100	0.282100	0.385900
O361	O36	0.068370	0.068370	0.444500
C371	C37	0.761500	0.377300	0.238500
C381	C38	0.835600	0.440700	0.164400
H131	H13	0.851500	0.400100	0.148500
C391	C39	0.787800	0.441800	0.212200
O371	O37	0.782600	0.327500	0.217400
O381	O38	0.717900	0.385900	0.282100
O391	O39	0.931630	0.444500	0.068370
C401	C40	0.238500	0.622700	0.238500
C411	C41	0.164400	0.559300	0.164400
H141	H14	0.148500	0.599900	0.148500
C421	C42	0.212200	0.558200	0.212200
O401	O40	0.217400	0.672500	0.217400
O411	O41	0.282100	0.614100	0.282100
O421	O42	0.068370	0.555500	0.068370
C431	C43	0.761500	0.622700	0.761500
C441	C44	0.835600	0.559300	0.835600
H151	H15	0.851500	0.599900	0.851500
C451	C45	0.787800	0.558200	0.787800
O431	O43	0.782600	0.672500	0.782600
O441	O44	0.717900	0.614100	0.717900
O451	O45	0.931630	0.555500	0.931630
C461	C46	0.238500	0.377300	0.761500
C471	C47	0.164400	0.440700	0.835600
H161	H16	0.148500	0.400100	0.851500
C481	C48	0.212200	0.441800	0.787800
O461	O46	0.217400	0.327500	0.782600
O471	O47	0.282100	0.385900	0.717900
O481	O48	0.068370	0.444500	0.931630
C491	C49	0.377300	0.761500	0.238500
C501	C50	0.440700	0.835600	0.164400
H171	H17	0.400100	0.851500	0.148500
C511	C51	0.441800	0.787800	0.212200
O491	O49	0.327500	0.782600	0.217400
O501	O50	0.385900	0.717900	0.282100
O511	O51	0.444500	0.931630	0.068370
C521	C52	0.622700	0.761500	0.761500
C531	C53	0.559300	0.835600	0.835600
H181	H18	0.599900	0.851500	0.851500
C541	C54	0.558200	0.787800	0.787800
O521	O52	0.672500	0.782600	0.782600
O531	O53	0.614100	0.717900	0.717900
O541	O54	0.555500	0.931630	0.931630
C551	C55	0.622700	0.238500	0.238500
C561	C56	0.559300	0.164400	0.164400
H191	H19	0.599900	0.148500	0.148500
C571	C57	0.558200	0.212200	0.212200
O551	O55	0.672500	0.217400	0.217400
O561	O56	0.614100	0.282100	0.282100
O571	O57	0.555500	0.068370	0.068370
C581	C58	0.377300	0.238500	0.761500
C591	C59	0.440700	0.164400	0.835600
H201	H20	0.400100	0.148500	0.851500
C601	C60	0.441800	0.212200	0.787800
O581	O58	0.327500	0.217400	0.782600
O591	O59	0.385900	0.282100	0.717900
O601	O60	0.444500	0.068370	0.931630
C611	C61	0.761500	0.761500	0.622700
C621	C62	0.835600	0.835600	0.559300
H211	H21	0.851500	0.851500	0.599900
C631	C63	0.787800	0.787800	0.558200
O611	O61	0.782600	0.782600	0.672500
O621	O62	0.717900	0.717900	0.614100
O631	O63	0.931630	0.931630	0.555500
C641	C64	0.761500	0.238500	0.377300
C651	C65	0.835600	0.164400	0.440700
H221	H22	0.851500	0.148500	0.400100
C661	C66	0.787800	0.212200	0.441800
O641	O64	0.782600	0.217400	0.327500
O651	O65	0.717900	0.282100	0.385900
O661	O66	0.931630	0.068370	0.444500
C671	C67	0.238500	0.761500	0.377300
C681	C68	0.164400	0.835600	0.440700
H231	H23	0.148500	0.851500	0.400100
C691	C69	0.212200	0.787800	0.441800
O671	O67	0.217400	0.782600	0.327500
O681	O68	0.282100	0.717900	0.385900
O691	O69	0.068370	0.931630	0.444500
C701	C70	0.238500	0.238500	0.622700
C711	C71	0.164400	0.164400	0.559300
H241	H24	0.148500	0.148500	0.599900
C721	C72	0.212200	0.212200	0.558200
O701	O70	0.217400	0.217400	0.672500
O711	O71	0.282100	0.282100	0.614100
O721	O72	0.068370	0.068370	0.555500
C731	C73	0.500000	0.911700	0.911700
C741	C74	0.500000	0.860800	0.860800
C751	C75	0.500000	0.765100	0.765100
H251	H25	0.500000	0.732300	0.732300
C761	C76	0.500000	0.088300	0.911700
C771	C77	0.500000	0.139200	0.860800
C781	C78	0.500000	0.234900	0.765100
H261	H26	0.500000	0.267700	0.732300
C791	C79	0.500000	0.911700	0.088300
C801	C80	0.500000	0.860800	0.139200
C811	C81	0.500000	0.765100	0.234900
H271	H27	0.500000	0.732300	0.267700
C821	C82	0.500000	0.088300	0.088300
C831	C83	0.500000	0.139200	0.139200
C841	C84	0.500000	0.234900	0.234900
H281	H28	0.500000	0.267700	0.267700
C851	C85	0.911700	0.500000	0.911700
C861	C86	0.860800	0.500000	0.860800
C871	C87	0.765100	0.500000	0.765100
H291	H29	0.732300	0.500000	0.732300
C881	C88	0.911700	0.500000	0.088300
C891	C89	0.860800	0.500000	0.139200
C901	C90	0.765100	0.500000	0.234900
H301	H30	0.732300	0.500000	0.267700
C911	C91	0.088300	0.500000	0.911700
C921	C92	0.139200	0.500000	0.860800
C931	C93	0.234900	0.500000	0.765100
H311	H31	0.267700	0.500000	0.732300
C941	C94	0.088300	0.500000	0.088300
C951	C95	0.139200	0.500000	0.139200
C961	C96	0.234900	0.500000	0.234900
H321	H32	0.267700	0.500000	0.267700
C971	C97	0.911700	0.911700	0.500000
C981	C98	0.860800	0.860800	0.500000
C991	C99	0.765100	0.765100	0.500000
H331	H33	0.732300	0.732300	0.500000
C1001	C100	0.088300	0.911700	0.500000
C1011	C101	0.139200	0.860800	0.500000
C1021	C102	0.234900	0.765100	0.500000
H341	H34	0.267700	0.732300	0.500000
C1031	C103	0.911700	0.088300	0.500000
C1041	C104	0.860800	0.139200	0.500000
C1051	C105	0.765100	0.234900	0.500000
H351	H35	0.732300	0.267700	0.500000
C1061	C106	0.088300	0.088300	0.500000
C1071	C107	0.139200	0.139200	0.500000
C1081	C108	0.234900	0.234900	0.500000
H361	H36	0.267700	0.267700	0.500000
Zn11	Zn1	0.426230	0.000000	0.000000
Zn21	Zn2	0.573770	0.000000	0.000000
Zn31	Zn3	0.000000	0.426230	0.000000
Zn41	Zn4	0.000000	0.573770	0.000000
Zn51	Zn5	0.000000	0.000000	0.426230
Zn61	Zn6	0.000000	0.000000	0.573770
N11	N1	0.178200	0.821800	0.821800
Zn71	Zn7	0.336960	0.663040	0.663040
Zn81	Zn8	0.235810	0.764190	0.764190
N21	N2	0.821800	0.178200	0.821800
Zn91	Zn9	0.663040	0.336960	0.663040
Zn101	Zn10	0.764190	0.235810	0.764190
N31	N3	0.821800	0.821800	0.178200
Zn111	Zn11	0.663040	0.663040	0.336960
Zn121	Zn12	0.764190	0.764190	0.235810
N41	N4	0.178200	0.178200	0.178200
Zn131	Zn13	0.336960	0.336960	0.336960
Zn141	Zn14	0.235810	0.235810	0.235810
N51	N5	0.821800	0.178200	0.178200
Zn151	Zn15	0.663040	0.336960	0.336960
Zn161	Zn16	0.764190	0.235810	0.235810
N61	N6	0.178200	0.821800	0.178200
Zn171	Zn17	0.336960	0.663040	0.336960
Zn181	Zn18	0.235810	0.764190	0.235810
N71	N7	0.821800	0.821800	0.821800
Zn191	Zn19	0.663040	0.663040	0.663040
Zn201	Zn20	0.764190	0.764190	0.764190
N81	N8	0.178200	0.178200	0.821800
Zn211	Zn21	0.336960	0.336960	0.663040
Zn221	Zn22	0.235810	0.235810	0.764190
O731	O73	0.211600	0.788400	0.866000
O741	O74	0.788400	0.211600	0.866000
O751	O75	0.788400	0.788400	0.134000
O761	O76	0.211600	0.211600	0.134000
O771	O77	0.866000	0.211600	0.788400
O781	O78	0.866000	0.788400	0.211600
O791	O79	0.134000	0.788400	0.788400
O801	O80	0.134000	0.211600	0.211600
O811	O81	0.788400	0.866000	0.211600
O821	O82	0.211600	0.866000	0.788400
O831	O83	0.788400	0.134000	0.788400
O841	O84	0.211600	0.134000	0.211600
O851	O85	0.788400	0.211600	0.134000
O861	O86	0.211600	0.788400	0.134000
O871	O87	0.788400	0.788400	0.866000
O881	O88	0.211600	0.211600	0.866000
O891	O89	0.211600	0.866000	0.211600
O901	O90	0.788400	0.866000	0.788400
O911	O91	0.788400	0.134000	0.211600
O921	O92	0.211600	0.134000	0.788400
O931	O93	0.866000	0.788400	0.788400
O941	O94	0.866000	0.211600	0.211600
O951	O95	0.134000	0.788400	0.211600
O961	O96	0.134000	0.211600	0.788400
