data_GISMAY_clean_PM
_symmetry_space_group_name_H-M	'P1'
_cell_length_a	23.964700
_cell_length_b	23.964700
_cell_length_c	23.964700
_cell_angle_alpha	90.000000
_cell_angle_beta	90.000000
_cell_angle_gamma	90.000000
_symmetry_Int_Tables_number 1

loop_
_symmetry_equiv_pos_as_xyz
'x,y,z'

loop_
_atom_site_label
_atom_site_type_symbol
_atom_site_fract_x
_atom_site_fract_y
_atom_site_fract_z
C11	C1	0.890600	0.610700	0.248300
C21	C2	0.940300	0.645800	0.269200
H11	H1	0.963700	0.655600	0.237600
H21	H2	0.926300	0.680200	0.285300
O11	O1	0.969700	0.620700	0.305300
C31	C3	0.026400	0.626700	0.311700
C41	C4	0.055300	0.581500	0.329600
H31	H3	0.037000	0.547900	0.336400
C51	C5	0.114800	0.586100	0.338100
H41	H4	0.135200	0.555100	0.349300
C61	C6	0.141100	0.635700	0.329900
C71	C7	0.112200	0.681100	0.310600
H51	H5	0.130400	0.714700	0.304000
C81	C8	0.051100	0.675900	0.300500
H61	H6	0.030500	0.705800	0.286700
C91	C9	0.202500	0.638800	0.333200
O21	O2	0.225400	0.597200	0.353100
O31	O3	0.224600	0.682400	0.319100
C101	C10	0.912200	0.560800	0.215500
H71	H7	0.933300	0.573600	0.183400
H81	H8	0.936800	0.538700	0.238800
O41	O4	0.870300	0.530000	0.198600
C111	C11	0.869500	0.474600	0.187800
C121	C12	0.915600	0.447700	0.171700
H91	H9	0.949700	0.466000	0.169600
C131	C13	0.910600	0.389000	0.157700
H101	H10	0.939900	0.370900	0.139800
C141	C14	0.862900	0.359700	0.170800
C151	C15	0.818100	0.388000	0.189700
H111	H11	0.784700	0.369100	0.195900
C161	C16	0.821200	0.447400	0.200500
H121	H12	0.791100	0.466500	0.215800
C171	C17	0.862000	0.297100	0.165200
O51	O5	0.901700	0.274300	0.146800
O61	O6	0.815500	0.275300	0.180600
C181	C18	0.857800	0.650600	0.205100
H131	H13	0.828900	0.630500	0.185100
H141	H14	0.841600	0.682700	0.223700
O71	O7	0.900100	0.665200	0.171200
C191	C19	0.885700	0.699400	0.126900
C201	C20	0.833000	0.718400	0.118900
H151	H15	0.804900	0.712400	0.145100
C211	C21	0.822300	0.749800	0.064900
H161	H16	0.786300	0.755500	0.051400
C221	C22	0.868300	0.769400	0.037100
C231	C23	0.921500	0.749900	0.046300
H171	H17	0.950200	0.757300	0.021300
C241	C24	0.931300	0.717200	0.096600
H181	H18	0.967400	0.708500	0.108000
C251	C25	0.869600	0.802000	0.982900
O81	O8	0.913800	0.802900	0.954800
O91	O9	0.817800	0.830600	0.981300
C261	C26	0.850900	0.592700	0.292700
H191	H19	0.822100	0.568800	0.277300
H201	H20	0.870400	0.572400	0.321800
O101	O10	0.827800	0.641500	0.313800
C271	C27	0.800600	0.634700	0.365200
C281	C28	0.774400	0.681400	0.385200
H211	H21	0.777000	0.715000	0.366000
C291	C29	0.742000	0.677500	0.437800
H221	H22	0.726000	0.709300	0.453300
C301	C30	0.735700	0.626700	0.463600
C311	C31	0.756600	0.578200	0.439500
H231	H23	0.748400	0.543300	0.454400
C321	C32	0.793000	0.584300	0.388500
H241	H24	0.810200	0.553100	0.373200
C331	C33	0.703700	0.631000	0.518000
O111	O11	0.699100	0.584400	0.548700
O121	O12	0.667200	0.681300	0.517800
Zn11	Zn1	0.303620	0.587520	0.371620
Zn21	Zn2	0.087430	0.803790	0.128680
C341	C34	0.109400	0.389300	0.248300
C351	C35	0.059700	0.354200	0.269200
H251	H25	0.036300	0.344400	0.237600
H261	H26	0.073700	0.319800	0.285300
O131	O13	0.030300	0.379300	0.305300
C361	C36	0.973600	0.373300	0.311700
C371	C37	0.944700	0.418500	0.329600
H271	H27	0.963000	0.452100	0.336400
C381	C38	0.885200	0.413900	0.338100
H281	H28	0.864800	0.444900	0.349300
C391	C39	0.858900	0.364300	0.329900
C401	C40	0.887800	0.318900	0.310600
H291	H29	0.869600	0.285300	0.304000
C411	C41	0.948900	0.324100	0.300500
H301	H30	0.969500	0.294200	0.286700
C421	C42	0.797500	0.361200	0.333200
O141	O14	0.774600	0.402800	0.353100
O151	O15	0.775400	0.317600	0.319100
C431	C43	0.087800	0.439200	0.215500
H311	H31	0.066700	0.426400	0.183400
H321	H32	0.063200	0.461300	0.238800
O161	O16	0.129700	0.470000	0.198600
C441	C44	0.130500	0.525400	0.187800
C451	C45	0.084400	0.552300	0.171700
H331	H33	0.050300	0.534000	0.169600
C461	C46	0.089400	0.611000	0.157700
H341	H34	0.060100	0.629100	0.139800
C471	C47	0.137100	0.640300	0.170800
C481	C48	0.181900	0.612000	0.189700
H351	H35	0.215300	0.630900	0.195900
C491	C49	0.178800	0.552600	0.200500
H361	H36	0.208900	0.533500	0.215800
C501	C50	0.138000	0.702900	0.165200
O171	O17	0.098300	0.725700	0.146800
O181	O18	0.184500	0.724700	0.180600
C511	C51	0.142200	0.349400	0.205100
H371	H37	0.171100	0.369500	0.185100
H381	H38	0.158400	0.317300	0.223700
O191	O19	0.099900	0.334800	0.171200
C521	C52	0.114300	0.300600	0.126900
C531	C53	0.167000	0.281600	0.118900
H391	H39	0.195100	0.287600	0.145100
C541	C54	0.177700	0.250200	0.064900
H401	H40	0.213700	0.244500	0.051400
C551	C55	0.131700	0.230600	0.037100
C561	C56	0.078500	0.250100	0.046300
H411	H41	0.049800	0.242700	0.021300
C571	C57	0.068700	0.282800	0.096600
H421	H42	0.032600	0.291500	0.108000
C581	C58	0.130400	0.198000	0.982900
O201	O20	0.086200	0.197100	0.954800
O211	O21	0.182200	0.169400	0.981300
C591	C59	0.149100	0.407300	0.292700
H431	H43	0.177900	0.431200	0.277300
H441	H44	0.129600	0.427600	0.321800
O221	O22	0.172200	0.358500	0.313800
C601	C60	0.199400	0.365300	0.365200
C611	C61	0.225600	0.318600	0.385200
H451	H45	0.223000	0.285000	0.366000
C621	C62	0.258000	0.322500	0.437800
H461	H46	0.274000	0.290700	0.453300
C631	C63	0.264300	0.373300	0.463600
C641	C64	0.243400	0.421800	0.439500
H471	H47	0.251600	0.456700	0.454400
C651	C65	0.207000	0.415700	0.388500
H481	H48	0.189800	0.446900	0.373200
C661	C66	0.296300	0.369000	0.518000
O231	O23	0.300900	0.415600	0.548700
O241	O24	0.332800	0.318700	0.517800
Zn31	Zn3	0.696380	0.412480	0.371620
Zn41	Zn4	0.912570	0.196210	0.128680
C671	C67	0.109400	0.610700	0.751700
C681	C68	0.059700	0.645800	0.730800
H491	H49	0.036300	0.655600	0.762400
H501	H50	0.073700	0.680200	0.714700
O251	O25	0.030300	0.620700	0.694700
C691	C69	0.973600	0.626700	0.688300
C701	C70	0.944700	0.581500	0.670400
H511	H51	0.963000	0.547900	0.663600
C711	C71	0.885200	0.586100	0.661900
H521	H52	0.864800	0.555100	0.650700
C721	C72	0.858900	0.635700	0.670100
C731	C73	0.887800	0.681100	0.689400
H531	H53	0.869600	0.714700	0.696000
C741	C74	0.948900	0.675900	0.699500
H541	H54	0.969500	0.705800	0.713300
C751	C75	0.797500	0.638800	0.666800
O261	O26	0.774600	0.597200	0.646900
O271	O27	0.775400	0.682400	0.680900
C761	C76	0.087800	0.560800	0.784500
H551	H55	0.066700	0.573600	0.816600
H561	H56	0.063200	0.538700	0.761200
O281	O28	0.129700	0.530000	0.801400
C771	C77	0.130500	0.474600	0.812200
C781	C78	0.084400	0.447700	0.828300
H571	H57	0.050300	0.466000	0.830400
C791	C79	0.089400	0.389000	0.842300
H581	H58	0.060100	0.370900	0.860200
C801	C80	0.137100	0.359700	0.829200
C811	C81	0.181900	0.388000	0.810300
H591	H59	0.215300	0.369100	0.804100
C821	C82	0.178800	0.447400	0.799500
H601	H60	0.208900	0.466500	0.784200
C831	C83	0.138000	0.297100	0.834800
O291	O29	0.098300	0.274300	0.853200
O301	O30	0.184500	0.275300	0.819400
C841	C84	0.142200	0.650600	0.794900
H611	H61	0.171100	0.630500	0.814900
H621	H62	0.158400	0.682700	0.776300
O311	O31	0.099900	0.665200	0.828800
C851	C85	0.114300	0.699400	0.873100
C861	C86	0.167000	0.718400	0.881100
H631	H63	0.195100	0.712400	0.854900
C871	C87	0.177700	0.749800	0.935100
H641	H64	0.213700	0.755500	0.948600
C881	C88	0.131700	0.769400	0.962900
C891	C89	0.078500	0.749900	0.953700
H651	H65	0.049800	0.757300	0.978700
C901	C90	0.068700	0.717200	0.903400
H661	H66	0.032600	0.708500	0.892000
C911	C91	0.130400	0.802000	0.017100
O321	O32	0.086200	0.802900	0.045200
O331	O33	0.182200	0.830600	0.018700
C921	C92	0.149100	0.592700	0.707300
H671	H67	0.177900	0.568800	0.722700
H681	H68	0.129600	0.572400	0.678200
O341	O34	0.172200	0.641500	0.686200
C931	C93	0.199400	0.634700	0.634800
C941	C94	0.225600	0.681400	0.614800
H691	H69	0.223000	0.715000	0.634000
C951	C95	0.258000	0.677500	0.562200
H701	H70	0.274000	0.709300	0.546700
C961	C96	0.264300	0.626700	0.536400
C971	C97	0.243400	0.578200	0.560500
H711	H71	0.251600	0.543300	0.545600
C981	C98	0.207000	0.584300	0.611500
H721	H72	0.189800	0.553100	0.626800
C991	C99	0.296300	0.631000	0.482000
O351	O35	0.300900	0.584400	0.451300
O361	O36	0.332800	0.681300	0.482200
Zn51	Zn5	0.696380	0.587520	0.628380
Zn61	Zn6	0.912570	0.803790	0.871320
C1001	C100	0.890600	0.389300	0.751700
C1011	C101	0.940300	0.354200	0.730800
H731	H73	0.963700	0.344400	0.762400
H741	H74	0.926300	0.319800	0.714700
O371	O37	0.969700	0.379300	0.694700
C1021	C102	0.026400	0.373300	0.688300
C1031	C103	0.055300	0.418500	0.670400
H751	H75	0.037000	0.452100	0.663600
C1041	C104	0.114800	0.413900	0.661900
H761	H76	0.135200	0.444900	0.650700
C1051	C105	0.141100	0.364300	0.670100
C1061	C106	0.112200	0.318900	0.689400
H771	H77	0.130400	0.285300	0.696000
C1071	C107	0.051100	0.324100	0.699500
H781	H78	0.030500	0.294200	0.713300
C1081	C108	0.202500	0.361200	0.666800
O381	O38	0.225400	0.402800	0.646900
O391	O39	0.224600	0.317600	0.680900
C1091	C109	0.912200	0.439200	0.784500
H791	H79	0.933300	0.426400	0.816600
H801	H80	0.936800	0.461300	0.761200
O401	O40	0.870300	0.470000	0.801400
C1101	C110	0.869500	0.525400	0.812200
C1111	C111	0.915600	0.552300	0.828300
H811	H81	0.949700	0.534000	0.830400
C1121	C112	0.910600	0.611000	0.842300
H821	H82	0.939900	0.629100	0.860200
C1131	C113	0.862900	0.640300	0.829200
C1141	C114	0.818100	0.612000	0.810300
H831	H83	0.784700	0.630900	0.804100
C1151	C115	0.821200	0.552600	0.799500
H841	H84	0.791100	0.533500	0.784200
C1161	C116	0.862000	0.702900	0.834800
O411	O41	0.901700	0.725700	0.853200
O421	O42	0.815500	0.724700	0.819400
C1171	C117	0.857800	0.349400	0.794900
H851	H85	0.828900	0.369500	0.814900
H861	H86	0.841600	0.317300	0.776300
O431	O43	0.900100	0.334800	0.828800
C1181	C118	0.885700	0.300600	0.873100
C1191	C119	0.833000	0.281600	0.881100
H871	H87	0.804900	0.287600	0.854900
C1201	C120	0.822300	0.250200	0.935100
H881	H88	0.786300	0.244500	0.948600
C1211	C121	0.868300	0.230600	0.962900
C1221	C122	0.921500	0.250100	0.953700
H891	H89	0.950200	0.242700	0.978700
C1231	C123	0.931300	0.282800	0.903400
H901	H90	0.967400	0.291500	0.892000
C1241	C124	0.869600	0.198000	0.017100
O441	O44	0.913800	0.197100	0.045200
O451	O45	0.817800	0.169400	0.018700
C1251	C125	0.850900	0.407300	0.707300
H911	H91	0.822100	0.431200	0.722700
H921	H92	0.870400	0.427600	0.678200
O461	O46	0.827800	0.358500	0.686200
C1261	C126	0.800600	0.365300	0.634800
C1271	C127	0.774400	0.318600	0.614800
H931	H93	0.777000	0.285000	0.634000
C1281	C128	0.742000	0.322500	0.562200
H941	H94	0.726000	0.290700	0.546700
C1291	C129	0.735700	0.373300	0.536400
C1301	C130	0.756600	0.421800	0.560500
H951	H95	0.748400	0.456700	0.545600
C1311	C131	0.793000	0.415700	0.611500
H961	H96	0.810200	0.446900	0.626800
C1321	C132	0.703700	0.369000	0.482000
O471	O47	0.699100	0.415600	0.451300
O481	O48	0.667200	0.318700	0.482200
Zn71	Zn7	0.303620	0.412480	0.628380
Zn81	Zn8	0.087430	0.196210	0.871320
C1331	C133	0.248300	0.890600	0.610700
C1341	C134	0.269200	0.940300	0.645800
H971	H97	0.237600	0.963700	0.655600
H981	H98	0.285300	0.926300	0.680200
O491	O49	0.305300	0.969700	0.620700
C1351	C135	0.311700	0.026400	0.626700
C1361	C136	0.329600	0.055300	0.581500
H991	H99	0.336400	0.037000	0.547900
C1371	C137	0.338100	0.114800	0.586100
H1001	H100	0.349300	0.135200	0.555100
C1381	C138	0.329900	0.141100	0.635700
C1391	C139	0.310600	0.112200	0.681100
H1011	H101	0.304000	0.130400	0.714700
C1401	C140	0.300500	0.051100	0.675900
H1021	H102	0.286700	0.030500	0.705800
C1411	C141	0.333200	0.202500	0.638800
O501	O50	0.353100	0.225400	0.597200
O511	O51	0.319100	0.224600	0.682400
C1421	C142	0.215500	0.912200	0.560800
H1031	H103	0.183400	0.933300	0.573600
H1041	H104	0.238800	0.936800	0.538700
O521	O52	0.198600	0.870300	0.530000
C1431	C143	0.187800	0.869500	0.474600
C1441	C144	0.171700	0.915600	0.447700
H1051	H105	0.169600	0.949700	0.466000
C1451	C145	0.157700	0.910600	0.389000
H1061	H106	0.139800	0.939900	0.370900
C1461	C146	0.170800	0.862900	0.359700
C1471	C147	0.189700	0.818100	0.388000
H1071	H107	0.195900	0.784700	0.369100
C1481	C148	0.200500	0.821200	0.447400
H1081	H108	0.215800	0.791100	0.466500
C1491	C149	0.165200	0.862000	0.297100
O531	O53	0.146800	0.901700	0.274300
O541	O54	0.180600	0.815500	0.275300
C1501	C150	0.205100	0.857800	0.650600
H1091	H109	0.185100	0.828900	0.630500
H1101	H110	0.223700	0.841600	0.682700
O551	O55	0.171200	0.900100	0.665200
C1511	C151	0.126900	0.885700	0.699400
C1521	C152	0.118900	0.833000	0.718400
H1111	H111	0.145100	0.804900	0.712400
C1531	C153	0.064900	0.822300	0.749800
H1121	H112	0.051400	0.786300	0.755500
C1541	C154	0.037100	0.868300	0.769400
C1551	C155	0.046300	0.921500	0.749900
H1131	H113	0.021300	0.950200	0.757300
C1561	C156	0.096600	0.931300	0.717200
H1141	H114	0.108000	0.967400	0.708500
C1571	C157	0.982900	0.869600	0.802000
O561	O56	0.954800	0.913800	0.802900
O571	O57	0.981300	0.817800	0.830600
C1581	C158	0.292700	0.850900	0.592700
H1151	H115	0.277300	0.822100	0.568800
H1161	H116	0.321800	0.870400	0.572400
O581	O58	0.313800	0.827800	0.641500
C1591	C159	0.365200	0.800600	0.634700
C1601	C160	0.385200	0.774400	0.681400
H1171	H117	0.366000	0.777000	0.715000
C1611	C161	0.437800	0.742000	0.677500
H1181	H118	0.453300	0.726000	0.709300
C1621	C162	0.463600	0.735700	0.626700
C1631	C163	0.439500	0.756600	0.578200
H1191	H119	0.454400	0.748400	0.543300
C1641	C164	0.388500	0.793000	0.584300
H1201	H120	0.373200	0.810200	0.553100
C1651	C165	0.518000	0.703700	0.631000
O591	O59	0.548700	0.699100	0.584400
O601	O60	0.517800	0.667200	0.681300
Zn91	Zn9	0.371620	0.303620	0.587520
Zn101	Zn10	0.128680	0.087430	0.803790
C1661	C166	0.248300	0.109400	0.389300
C1671	C167	0.269200	0.059700	0.354200
H1211	H121	0.237600	0.036300	0.344400
H1221	H122	0.285300	0.073700	0.319800
O611	O61	0.305300	0.030300	0.379300
C1681	C168	0.311700	0.973600	0.373300
C1691	C169	0.329600	0.944700	0.418500
H1231	H123	0.336400	0.963000	0.452100
C1701	C170	0.338100	0.885200	0.413900
H1241	H124	0.349300	0.864800	0.444900
C1711	C171	0.329900	0.858900	0.364300
C1721	C172	0.310600	0.887800	0.318900
H1251	H125	0.304000	0.869600	0.285300
C1731	C173	0.300500	0.948900	0.324100
H1261	H126	0.286700	0.969500	0.294200
C1741	C174	0.333200	0.797500	0.361200
O621	O62	0.353100	0.774600	0.402800
O631	O63	0.319100	0.775400	0.317600
C1751	C175	0.215500	0.087800	0.439200
H1271	H127	0.183400	0.066700	0.426400
H1281	H128	0.238800	0.063200	0.461300
O641	O64	0.198600	0.129700	0.470000
C1761	C176	0.187800	0.130500	0.525400
C1771	C177	0.171700	0.084400	0.552300
H1291	H129	0.169600	0.050300	0.534000
C1781	C178	0.157700	0.089400	0.611000
H1301	H130	0.139800	0.060100	0.629100
C1791	C179	0.170800	0.137100	0.640300
C1801	C180	0.189700	0.181900	0.612000
H1311	H131	0.195900	0.215300	0.630900
C1811	C181	0.200500	0.178800	0.552600
H1321	H132	0.215800	0.208900	0.533500
C1821	C182	0.165200	0.138000	0.702900
O651	O65	0.146800	0.098300	0.725700
O661	O66	0.180600	0.184500	0.724700
C1831	C183	0.205100	0.142200	0.349400
H1331	H133	0.185100	0.171100	0.369500
H1341	H134	0.223700	0.158400	0.317300
O671	O67	0.171200	0.099900	0.334800
C1841	C184	0.126900	0.114300	0.300600
C1851	C185	0.118900	0.167000	0.281600
H1351	H135	0.145100	0.195100	0.287600
C1861	C186	0.064900	0.177700	0.250200
H1361	H136	0.051400	0.213700	0.244500
C1871	C187	0.037100	0.131700	0.230600
C1881	C188	0.046300	0.078500	0.250100
H1371	H137	0.021300	0.049800	0.242700
C1891	C189	0.096600	0.068700	0.282800
H1381	H138	0.108000	0.032600	0.291500
C1901	C190	0.982900	0.130400	0.198000
O681	O68	0.954800	0.086200	0.197100
O691	O69	0.981300	0.182200	0.169400
C1911	C191	0.292700	0.149100	0.407300
H1391	H139	0.277300	0.177900	0.431200
H1401	H140	0.321800	0.129600	0.427600
O701	O70	0.313800	0.172200	0.358500
C1921	C192	0.365200	0.199400	0.365300
C1931	C193	0.385200	0.225600	0.318600
H1411	H141	0.366000	0.223000	0.285000
C1941	C194	0.437800	0.258000	0.322500
H1421	H142	0.453300	0.274000	0.290700
C1951	C195	0.463600	0.264300	0.373300
C1961	C196	0.439500	0.243400	0.421800
H1431	H143	0.454400	0.251600	0.456700
C1971	C197	0.388500	0.207000	0.415700
H1441	H144	0.373200	0.189800	0.446900
C1981	C198	0.518000	0.296300	0.369000
O711	O71	0.548700	0.300900	0.415600
O721	O72	0.517800	0.332800	0.318700
Zn111	Zn11	0.371620	0.696380	0.412480
Zn121	Zn12	0.128680	0.912570	0.196210
C1991	C199	0.751700	0.109400	0.610700
C2001	C200	0.730800	0.059700	0.645800
H1451	H145	0.762400	0.036300	0.655600
H1461	H146	0.714700	0.073700	0.680200
O731	O73	0.694700	0.030300	0.620700
C2011	C201	0.688300	0.973600	0.626700
C2021	C202	0.670400	0.944700	0.581500
H1471	H147	0.663600	0.963000	0.547900
C2031	C203	0.661900	0.885200	0.586100
H1481	H148	0.650700	0.864800	0.555100
C2041	C204	0.670100	0.858900	0.635700
C2051	C205	0.689400	0.887800	0.681100
H1491	H149	0.696000	0.869600	0.714700
C2061	C206	0.699500	0.948900	0.675900
H1501	H150	0.713300	0.969500	0.705800
C2071	C207	0.666800	0.797500	0.638800
O741	O74	0.646900	0.774600	0.597200
O751	O75	0.680900	0.775400	0.682400
C2081	C208	0.784500	0.087800	0.560800
H1511	H151	0.816600	0.066700	0.573600
H1521	H152	0.761200	0.063200	0.538700
O761	O76	0.801400	0.129700	0.530000
C2091	C209	0.812200	0.130500	0.474600
C2101	C210	0.828300	0.084400	0.447700
H1531	H153	0.830400	0.050300	0.466000
C2111	C211	0.842300	0.089400	0.389000
H1541	H154	0.860200	0.060100	0.370900
C2121	C212	0.829200	0.137100	0.359700
C2131	C213	0.810300	0.181900	0.388000
H1551	H155	0.804100	0.215300	0.369100
C2141	C214	0.799500	0.178800	0.447400
H1561	H156	0.784200	0.208900	0.466500
C2151	C215	0.834800	0.138000	0.297100
O771	O77	0.853200	0.098300	0.274300
O781	O78	0.819400	0.184500	0.275300
C2161	C216	0.794900	0.142200	0.650600
H1571	H157	0.814900	0.171100	0.630500
H1581	H158	0.776300	0.158400	0.682700
O791	O79	0.828800	0.099900	0.665200
C2171	C217	0.873100	0.114300	0.699400
C2181	C218	0.881100	0.167000	0.718400
H1591	H159	0.854900	0.195100	0.712400
C2191	C219	0.935100	0.177700	0.749800
H1601	H160	0.948600	0.213700	0.755500
C2201	C220	0.962900	0.131700	0.769400
C2211	C221	0.953700	0.078500	0.749900
H1611	H161	0.978700	0.049800	0.757300
C2221	C222	0.903400	0.068700	0.717200
H1621	H162	0.892000	0.032600	0.708500
C2231	C223	0.017100	0.130400	0.802000
O801	O80	0.045200	0.086200	0.802900
O811	O81	0.018700	0.182200	0.830600
C2241	C224	0.707300	0.149100	0.592700
H1631	H163	0.722700	0.177900	0.568800
H1641	H164	0.678200	0.129600	0.572400
O821	O82	0.686200	0.172200	0.641500
C2251	C225	0.634800	0.199400	0.634700
C2261	C226	0.614800	0.225600	0.681400
H1651	H165	0.634000	0.223000	0.715000
C2271	C227	0.562200	0.258000	0.677500
H1661	H166	0.546700	0.274000	0.709300
C2281	C228	0.536400	0.264300	0.626700
C2291	C229	0.560500	0.243400	0.578200
H1671	H167	0.545600	0.251600	0.543300
C2301	C230	0.611500	0.207000	0.584300
H1681	H168	0.626800	0.189800	0.553100
C2311	C231	0.482000	0.296300	0.631000
O831	O83	0.451300	0.300900	0.584400
O841	O84	0.482200	0.332800	0.681300
Zn131	Zn13	0.628380	0.696380	0.587520
Zn141	Zn14	0.871320	0.912570	0.803790
C2321	C232	0.751700	0.890600	0.389300
C2331	C233	0.730800	0.940300	0.354200
H1691	H169	0.762400	0.963700	0.344400
H1701	H170	0.714700	0.926300	0.319800
O851	O85	0.694700	0.969700	0.379300
C2341	C234	0.688300	0.026400	0.373300
C2351	C235	0.670400	0.055300	0.418500
H1711	H171	0.663600	0.037000	0.452100
C2361	C236	0.661900	0.114800	0.413900
H1721	H172	0.650700	0.135200	0.444900
C2371	C237	0.670100	0.141100	0.364300
C2381	C238	0.689400	0.112200	0.318900
H1731	H173	0.696000	0.130400	0.285300
C2391	C239	0.699500	0.051100	0.324100
H1741	H174	0.713300	0.030500	0.294200
C2401	C240	0.666800	0.202500	0.361200
O861	O86	0.646900	0.225400	0.402800
O871	O87	0.680900	0.224600	0.317600
C2411	C241	0.784500	0.912200	0.439200
H1751	H175	0.816600	0.933300	0.426400
H1761	H176	0.761200	0.936800	0.461300
O881	O88	0.801400	0.870300	0.470000
C2421	C242	0.812200	0.869500	0.525400
C2431	C243	0.828300	0.915600	0.552300
H1771	H177	0.830400	0.949700	0.534000
C2441	C244	0.842300	0.910600	0.611000
H1781	H178	0.860200	0.939900	0.629100
C2451	C245	0.829200	0.862900	0.640300
C2461	C246	0.810300	0.818100	0.612000
H1791	H179	0.804100	0.784700	0.630900
C2471	C247	0.799500	0.821200	0.552600
H1801	H180	0.784200	0.791100	0.533500
C2481	C248	0.834800	0.862000	0.702900
O891	O89	0.853200	0.901700	0.725700
O901	O90	0.819400	0.815500	0.724700
C2491	C249	0.794900	0.857800	0.349400
H1811	H181	0.814900	0.828900	0.369500
H1821	H182	0.776300	0.841600	0.317300
O911	O91	0.828800	0.900100	0.334800
C2501	C250	0.873100	0.885700	0.300600
C2511	C251	0.881100	0.833000	0.281600
H1831	H183	0.854900	0.804900	0.287600
C2521	C252	0.935100	0.822300	0.250200
H1841	H184	0.948600	0.786300	0.244500
C2531	C253	0.962900	0.868300	0.230600
C2541	C254	0.953700	0.921500	0.250100
H1851	H185	0.978700	0.950200	0.242700
C2551	C255	0.903400	0.931300	0.282800
H1861	H186	0.892000	0.967400	0.291500
C2561	C256	0.017100	0.869600	0.198000
O921	O92	0.045200	0.913800	0.197100
O931	O93	0.018700	0.817800	0.169400
C2571	C257	0.707300	0.850900	0.407300
H1871	H187	0.722700	0.822100	0.431200
H1881	H188	0.678200	0.870400	0.427600
O941	O94	0.686200	0.827800	0.358500
C2581	C258	0.634800	0.800600	0.365300
C2591	C259	0.614800	0.774400	0.318600
H1891	H189	0.634000	0.777000	0.285000
C2601	C260	0.562200	0.742000	0.322500
H1901	H190	0.546700	0.726000	0.290700
C2611	C261	0.536400	0.735700	0.373300
C2621	C262	0.560500	0.756600	0.421800
H1911	H191	0.545600	0.748400	0.456700
C2631	C263	0.611500	0.793000	0.415700
H1921	H192	0.626800	0.810200	0.446900
C2641	C264	0.482000	0.703700	0.369000
O951	O95	0.451300	0.699100	0.415600
O961	O96	0.482200	0.667200	0.318700
Zn151	Zn15	0.628380	0.303620	0.412480
Zn161	Zn16	0.871320	0.087430	0.196210
C2651	C265	0.610700	0.248300	0.890600
C2661	C266	0.645800	0.269200	0.940300
H1931	H193	0.655600	0.237600	0.963700
H1941	H194	0.680200	0.285300	0.926300
O971	O97	0.620700	0.305300	0.969700
C2671	C267	0.626700	0.311700	0.026400
C2681	C268	0.581500	0.329600	0.055300
H1951	H195	0.547900	0.336400	0.037000
C2691	C269	0.586100	0.338100	0.114800
H1961	H196	0.555100	0.349300	0.135200
C2701	C270	0.635700	0.329900	0.141100
C2711	C271	0.681100	0.310600	0.112200
H1971	H197	0.714700	0.304000	0.130400
C2721	C272	0.675900	0.300500	0.051100
H1981	H198	0.705800	0.286700	0.030500
C2731	C273	0.638800	0.333200	0.202500
O981	O98	0.597200	0.353100	0.225400
O991	O99	0.682400	0.319100	0.224600
C2741	C274	0.560800	0.215500	0.912200
H1991	H199	0.573600	0.183400	0.933300
H2001	H200	0.538700	0.238800	0.936800
O1001	O100	0.530000	0.198600	0.870300
C2751	C275	0.474600	0.187800	0.869500
C2761	C276	0.447700	0.171700	0.915600
H2011	H201	0.466000	0.169600	0.949700
C2771	C277	0.389000	0.157700	0.910600
H2021	H202	0.370900	0.139800	0.939900
C2781	C278	0.359700	0.170800	0.862900
C2791	C279	0.388000	0.189700	0.818100
H2031	H203	0.369100	0.195900	0.784700
C2801	C280	0.447400	0.200500	0.821200
H2041	H204	0.466500	0.215800	0.791100
C2811	C281	0.297100	0.165200	0.862000
O1011	O101	0.274300	0.146800	0.901700
O1021	O102	0.275300	0.180600	0.815500
C2821	C282	0.650600	0.205100	0.857800
H2051	H205	0.630500	0.185100	0.828900
H2061	H206	0.682700	0.223700	0.841600
O1031	O103	0.665200	0.171200	0.900100
C2831	C283	0.699400	0.126900	0.885700
C2841	C284	0.718400	0.118900	0.833000
H2071	H207	0.712400	0.145100	0.804900
C2851	C285	0.749800	0.064900	0.822300
H2081	H208	0.755500	0.051400	0.786300
C2861	C286	0.769400	0.037100	0.868300
C2871	C287	0.749900	0.046300	0.921500
H2091	H209	0.757300	0.021300	0.950200
C2881	C288	0.717200	0.096600	0.931300
H2101	H210	0.708500	0.108000	0.967400
C2891	C289	0.802000	0.982900	0.869600
O1041	O104	0.802900	0.954800	0.913800
O1051	O105	0.830600	0.981300	0.817800
C2901	C290	0.592700	0.292700	0.850900
H2111	H211	0.568800	0.277300	0.822100
H2121	H212	0.572400	0.321800	0.870400
O1061	O106	0.641500	0.313800	0.827800
C2911	C291	0.634700	0.365200	0.800600
C2921	C292	0.681400	0.385200	0.774400
H2131	H213	0.715000	0.366000	0.777000
C2931	C293	0.677500	0.437800	0.742000
H2141	H214	0.709300	0.453300	0.726000
C2941	C294	0.626700	0.463600	0.735700
C2951	C295	0.578200	0.439500	0.756600
H2151	H215	0.543300	0.454400	0.748400
C2961	C296	0.584300	0.388500	0.793000
H2161	H216	0.553100	0.373200	0.810200
C2971	C297	0.631000	0.518000	0.703700
O1071	O107	0.584400	0.548700	0.699100
O1081	O108	0.681300	0.517800	0.667200
Zn171	Zn17	0.587520	0.371620	0.303620
Zn181	Zn18	0.803790	0.128680	0.087430
C2981	C298	0.389300	0.248300	0.109400
C2991	C299	0.354200	0.269200	0.059700
H2171	H217	0.344400	0.237600	0.036300
H2181	H218	0.319800	0.285300	0.073700
O1091	O109	0.379300	0.305300	0.030300
C3001	C300	0.373300	0.311700	0.973600
C3011	C301	0.418500	0.329600	0.944700
H2191	H219	0.452100	0.336400	0.963000
C3021	C302	0.413900	0.338100	0.885200
H2201	H220	0.444900	0.349300	0.864800
C3031	C303	0.364300	0.329900	0.858900
C3041	C304	0.318900	0.310600	0.887800
H2211	H221	0.285300	0.304000	0.869600
C3051	C305	0.324100	0.300500	0.948900
H2221	H222	0.294200	0.286700	0.969500
C3061	C306	0.361200	0.333200	0.797500
O1101	O110	0.402800	0.353100	0.774600
O1111	O111	0.317600	0.319100	0.775400
C3071	C307	0.439200	0.215500	0.087800
H2231	H223	0.426400	0.183400	0.066700
H2241	H224	0.461300	0.238800	0.063200
O1121	O112	0.470000	0.198600	0.129700
C3081	C308	0.525400	0.187800	0.130500
C3091	C309	0.552300	0.171700	0.084400
H2251	H225	0.534000	0.169600	0.050300
C3101	C310	0.611000	0.157700	0.089400
H2261	H226	0.629100	0.139800	0.060100
C3111	C311	0.640300	0.170800	0.137100
C3121	C312	0.612000	0.189700	0.181900
H2271	H227	0.630900	0.195900	0.215300
C3131	C313	0.552600	0.200500	0.178800
H2281	H228	0.533500	0.215800	0.208900
C3141	C314	0.702900	0.165200	0.138000
O1131	O113	0.725700	0.146800	0.098300
O1141	O114	0.724700	0.180600	0.184500
C3151	C315	0.349400	0.205100	0.142200
H2291	H229	0.369500	0.185100	0.171100
H2301	H230	0.317300	0.223700	0.158400
O1151	O115	0.334800	0.171200	0.099900
C3161	C316	0.300600	0.126900	0.114300
C3171	C317	0.281600	0.118900	0.167000
H2311	H231	0.287600	0.145100	0.195100
C3181	C318	0.250200	0.064900	0.177700
H2321	H232	0.244500	0.051400	0.213700
C3191	C319	0.230600	0.037100	0.131700
C3201	C320	0.250100	0.046300	0.078500
H2331	H233	0.242700	0.021300	0.049800
C3211	C321	0.282800	0.096600	0.068700
H2341	H234	0.291500	0.108000	0.032600
C3221	C322	0.198000	0.982900	0.130400
O1161	O116	0.197100	0.954800	0.086200
O1171	O117	0.169400	0.981300	0.182200
C3231	C323	0.407300	0.292700	0.149100
H2351	H235	0.431200	0.277300	0.177900
H2361	H236	0.427600	0.321800	0.129600
O1181	O118	0.358500	0.313800	0.172200
C3241	C324	0.365300	0.365200	0.199400
C3251	C325	0.318600	0.385200	0.225600
H2371	H237	0.285000	0.366000	0.223000
C3261	C326	0.322500	0.437800	0.258000
H2381	H238	0.290700	0.453300	0.274000
C3271	C327	0.373300	0.463600	0.264300
C3281	C328	0.421800	0.439500	0.243400
H2391	H239	0.456700	0.454400	0.251600
C3291	C329	0.415700	0.388500	0.207000
H2401	H240	0.446900	0.373200	0.189800
C3301	C330	0.369000	0.518000	0.296300
O1191	O119	0.415600	0.548700	0.300900
O1201	O120	0.318700	0.517800	0.332800
Zn191	Zn19	0.412480	0.371620	0.696380
Zn201	Zn20	0.196210	0.128680	0.912570
C3311	C331	0.610700	0.751700	0.109400
C3321	C332	0.645800	0.730800	0.059700
H2411	H241	0.655600	0.762400	0.036300
H2421	H242	0.680200	0.714700	0.073700
O1211	O121	0.620700	0.694700	0.030300
C3331	C333	0.626700	0.688300	0.973600
C3341	C334	0.581500	0.670400	0.944700
H2431	H243	0.547900	0.663600	0.963000
C3351	C335	0.586100	0.661900	0.885200
H2441	H244	0.555100	0.650700	0.864800
C3361	C336	0.635700	0.670100	0.858900
C3371	C337	0.681100	0.689400	0.887800
H2451	H245	0.714700	0.696000	0.869600
C3381	C338	0.675900	0.699500	0.948900
H2461	H246	0.705800	0.713300	0.969500
C3391	C339	0.638800	0.666800	0.797500
O1221	O122	0.597200	0.646900	0.774600
O1231	O123	0.682400	0.680900	0.775400
C3401	C340	0.560800	0.784500	0.087800
H2471	H247	0.573600	0.816600	0.066700
H2481	H248	0.538700	0.761200	0.063200
O1241	O124	0.530000	0.801400	0.129700
C3411	C341	0.474600	0.812200	0.130500
C3421	C342	0.447700	0.828300	0.084400
H2491	H249	0.466000	0.830400	0.050300
C3431	C343	0.389000	0.842300	0.089400
H2501	H250	0.370900	0.860200	0.060100
C3441	C344	0.359700	0.829200	0.137100
C3451	C345	0.388000	0.810300	0.181900
H2511	H251	0.369100	0.804100	0.215300
C3461	C346	0.447400	0.799500	0.178800
H2521	H252	0.466500	0.784200	0.208900
C3471	C347	0.297100	0.834800	0.138000
O1251	O125	0.274300	0.853200	0.098300
O1261	O126	0.275300	0.819400	0.184500
C3481	C348	0.650600	0.794900	0.142200
H2531	H253	0.630500	0.814900	0.171100
H2541	H254	0.682700	0.776300	0.158400
O1271	O127	0.665200	0.828800	0.099900
C3491	C349	0.699400	0.873100	0.114300
C3501	C350	0.718400	0.881100	0.167000
H2551	H255	0.712400	0.854900	0.195100
C3511	C351	0.749800	0.935100	0.177700
H2561	H256	0.755500	0.948600	0.213700
C3521	C352	0.769400	0.962900	0.131700
C3531	C353	0.749900	0.953700	0.078500
H2571	H257	0.757300	0.978700	0.049800
C3541	C354	0.717200	0.903400	0.068700
H2581	H258	0.708500	0.892000	0.032600
C3551	C355	0.802000	0.017100	0.130400
O1281	O128	0.802900	0.045200	0.086200
O1291	O129	0.830600	0.018700	0.182200
C3561	C356	0.592700	0.707300	0.149100
H2591	H259	0.568800	0.722700	0.177900
H2601	H260	0.572400	0.678200	0.129600
O1301	O130	0.641500	0.686200	0.172200
C3571	C357	0.634700	0.634800	0.199400
C3581	C358	0.681400	0.614800	0.225600
H2611	H261	0.715000	0.634000	0.223000
C3591	C359	0.677500	0.562200	0.258000
H2621	H262	0.709300	0.546700	0.274000
C3601	C360	0.626700	0.536400	0.264300
C3611	C361	0.578200	0.560500	0.243400
H2631	H263	0.543300	0.545600	0.251600
C3621	C362	0.584300	0.611500	0.207000
H2641	H264	0.553100	0.626800	0.189800
C3631	C363	0.631000	0.482000	0.296300
O1311	O131	0.584400	0.451300	0.300900
O1321	O132	0.681300	0.482200	0.332800
Zn211	Zn21	0.587520	0.628380	0.696380
Zn221	Zn22	0.803790	0.871320	0.912570
C3641	C364	0.389300	0.751700	0.890600
C3651	C365	0.354200	0.730800	0.940300
H2651	H265	0.344400	0.762400	0.963700
H2661	H266	0.319800	0.714700	0.926300
O1331	O133	0.379300	0.694700	0.969700
C3661	C366	0.373300	0.688300	0.026400
C3671	C367	0.418500	0.670400	0.055300
H2671	H267	0.452100	0.663600	0.037000
C3681	C368	0.413900	0.661900	0.114800
H2681	H268	0.444900	0.650700	0.135200
C3691	C369	0.364300	0.670100	0.141100
C3701	C370	0.318900	0.689400	0.112200
H2691	H269	0.285300	0.696000	0.130400
C3711	C371	0.324100	0.699500	0.051100
H2701	H270	0.294200	0.713300	0.030500
C3721	C372	0.361200	0.666800	0.202500
O1341	O134	0.402800	0.646900	0.225400
O1351	O135	0.317600	0.680900	0.224600
C3731	C373	0.439200	0.784500	0.912200
H2711	H271	0.426400	0.816600	0.933300
H2721	H272	0.461300	0.761200	0.936800
O1361	O136	0.470000	0.801400	0.870300
C3741	C374	0.525400	0.812200	0.869500
C3751	C375	0.552300	0.828300	0.915600
H2731	H273	0.534000	0.830400	0.949700
C3761	C376	0.611000	0.842300	0.910600
H2741	H274	0.629100	0.860200	0.939900
C3771	C377	0.640300	0.829200	0.862900
C3781	C378	0.612000	0.810300	0.818100
H2751	H275	0.630900	0.804100	0.784700
C3791	C379	0.552600	0.799500	0.821200
H2761	H276	0.533500	0.784200	0.791100
C3801	C380	0.702900	0.834800	0.862000
O1371	O137	0.725700	0.853200	0.901700
O1381	O138	0.724700	0.819400	0.815500
C3811	C381	0.349400	0.794900	0.857800
H2771	H277	0.369500	0.814900	0.828900
H2781	H278	0.317300	0.776300	0.841600
O1391	O139	0.334800	0.828800	0.900100
C3821	C382	0.300600	0.873100	0.885700
C3831	C383	0.281600	0.881100	0.833000
H2791	H279	0.287600	0.854900	0.804900
C3841	C384	0.250200	0.935100	0.822300
H2801	H280	0.244500	0.948600	0.786300
C3851	C385	0.230600	0.962900	0.868300
C3861	C386	0.250100	0.953700	0.921500
H2811	H281	0.242700	0.978700	0.950200
C3871	C387	0.282800	0.903400	0.931300
H2821	H282	0.291500	0.892000	0.967400
C3881	C388	0.198000	0.017100	0.869600
O1401	O140	0.197100	0.045200	0.913800
O1411	O141	0.169400	0.018700	0.817800
C3891	C389	0.407300	0.707300	0.850900
H2831	H283	0.431200	0.722700	0.822100
H2841	H284	0.427600	0.678200	0.870400
O1421	O142	0.358500	0.686200	0.827800
C3901	C390	0.365300	0.634800	0.800600
C3911	C391	0.318600	0.614800	0.774400
H2851	H285	0.285000	0.634000	0.777000
C3921	C392	0.322500	0.562200	0.742000
H2861	H286	0.290700	0.546700	0.726000
C3931	C393	0.373300	0.536400	0.735700
C3941	C394	0.421800	0.560500	0.756600
H2871	H287	0.456700	0.545600	0.748400
C3951	C395	0.415700	0.611500	0.793000
H2881	H288	0.446900	0.626800	0.810200
C3961	C396	0.369000	0.482000	0.703700
O1431	O143	0.415600	0.451300	0.699100
O1441	O144	0.318700	0.482200	0.667200
Zn231	Zn23	0.412480	0.628380	0.303620
Zn241	Zn24	0.196210	0.871320	0.087430
O1451	O145	0.348800	0.651200	0.348800
O1461	O146	0.151900	0.848100	0.151900
Zn251	Zn25	0.303170	0.696830	0.303170
Zn261	Zn26	0.196360	0.803640	0.196360
O1471	O147	0.651200	0.348800	0.348800
O1481	O148	0.848100	0.151900	0.151900
Zn271	Zn27	0.696830	0.303170	0.303170
Zn281	Zn28	0.803640	0.196360	0.196360
O1491	O149	0.651200	0.651200	0.651200
O1501	O150	0.848100	0.848100	0.848100
Zn291	Zn29	0.696830	0.696830	0.696830
Zn301	Zn30	0.803640	0.803640	0.803640
O1511	O151	0.348800	0.348800	0.651200
O1521	O152	0.151900	0.151900	0.848100
Zn311	Zn31	0.303170	0.303170	0.696830
Zn321	Zn32	0.196360	0.196360	0.803640
