data_GISZUF_clean_PM
_symmetry_space_group_name_H-M	'P1'
_cell_length_a	14.070000
_cell_length_b	22.001000
_cell_length_c	20.966000
_cell_angle_alpha	90.000000
_cell_angle_beta	101.070000
_cell_angle_gamma	90.000000
_symmetry_Int_Tables_number 1

loop_
_symmetry_equiv_pos_as_xyz
'x,y,z'

loop_
_atom_site_label
_atom_site_type_symbol
_atom_site_fract_x
_atom_site_fract_y
_atom_site_fract_z
Cd11	Cd1	0.515010	0.744170	0.262180
Cd21	Cd2	0.640140	0.988820	0.190280
Cd31	Cd3	0.320610	0.502880	0.302550
S11	S1	0.514800	0.913890	0.282820
S21	S2	0.510080	0.577580	0.245460
O11	O1	0.498400	0.848290	0.278000
O21	O2	0.438600	0.942200	0.308600
O31	O3	0.607400	0.928900	0.320900
O41	O4	0.509200	0.939200	0.216300
O51	O5	0.540400	0.640970	0.252700
O61	O6	0.418000	0.570900	0.264800
O71	O7	0.579100	0.537700	0.284600
O81	O8	0.499500	0.559400	0.179000
N11	N1	0.349100	0.743400	0.211400
N21	N2	0.991100	0.770100	0.868400
N31	N3	0.716200	0.908700	0.148900
N41	N4	0.901000	0.569630	0.249600
N51	N5	0.680300	0.751660	0.312000
N61	N6	0.040800	0.743000	0.656300
N71	N7	0.272800	0.584230	0.358700
N81	N8	0.133000	0.927730	0.262800
C11	C1	0.291300	0.791900	0.207000
H11	H1	0.316800	0.828100	0.225800
C21	C2	0.195200	0.790900	0.176000
H21	H2	0.157600	0.825800	0.174900
C31	C3	0.154900	0.738400	0.146800
C41	C4	0.215400	0.688900	0.150400
H31	H3	0.191900	0.652200	0.131500
C51	C5	0.310300	0.693100	0.181700
H41	H4	0.349700	0.659100	0.182300
C61	C6	0.050600	0.732400	0.115300
H51	H5	0.042000	0.694600	0.090200
C71	C7	0.026300	0.818400	0.901800
H61	H6	0.052300	0.849400	0.880400
C81	C8	0.026400	0.825000	0.967800
H71	H7	0.052100	0.860000	0.989400
C91	C9	0.989100	0.780600	0.001000
C101	C10	0.951200	0.730200	0.965600
H81	H8	0.923800	0.698900	0.985900
C111	C11	0.953700	0.726100	0.900500
H91	H9	0.928600	0.691500	0.877800
C121	C12	0.993800	0.784100	0.073400
H101	H10	0.019100	0.823800	0.089700
C131	C13	0.759800	0.913300	0.098200
H111	H11	0.748600	0.947900	0.072400
C141	C14	0.821000	0.869300	0.081800
H121	H12	0.850900	0.875200	0.046400
C151	C15	0.838000	0.816100	0.118100
C161	C16	0.790800	0.811400	0.170400
H131	H13	0.799200	0.776800	0.196400
C171	C17	0.731500	0.857800	0.183900
H141	H14	0.700800	0.853300	0.219200
C181	C18	0.903800	0.767300	0.102900
H151	H15	0.865500	0.736600	0.075400
C191	C19	0.834100	0.599900	0.207600
H161	H16	0.771100	0.584900	0.198900
C201	C20	0.854000	0.652400	0.176500
H171	H17	0.805100	0.671500	0.147200
C211	C21	0.946600	0.676800	0.188800
C221	C22	0.016000	0.644300	0.231900
H181	H18	0.079500	0.658200	0.241600
C231	C23	0.991200	0.591800	0.260100
H191	H19	0.039500	0.570600	0.287800
C241	C24	0.972400	0.735200	0.159400
H201	H20	0.993300	0.764700	0.194300
C251	C25	0.711200	0.802200	0.344300
H211	H21	0.666500	0.832900	0.346600
C261	C26	0.806600	0.811600	0.374800
H221	H22	0.825300	0.848500	0.395000
C271	C27	0.873900	0.765700	0.374900
C281	C28	0.841300	0.712400	0.342700
H231	H23	0.883700	0.680100	0.341500
C291	C29	0.745100	0.707600	0.312200
H241	H24	0.724700	0.671500	0.290700
C301	C30	0.977900	0.775600	0.407000
H251	H25	0.984800	0.814600	0.429800
C311	C31	0.010700	0.692000	0.624500
H261	H26	0.989300	0.660000	0.647100
C321	C32	0.010200	0.684900	0.558900
H271	H27	0.989300	0.648300	0.538600
C331	C33	0.039800	0.730800	0.523300
C341	C34	0.073500	0.783200	0.557300
H281	H28	0.096900	0.815300	0.535900
C351	C35	0.072300	0.787600	0.622600
H291	H29	0.094300	0.823300	0.644200
C361	C36	0.032700	0.725000	0.451400
H301	H30	0.005400	0.685200	0.437000
C371	C37	0.283800	0.640200	0.337000
H311	H31	0.323800	0.645700	0.306900
C381	C38	0.238600	0.690300	0.357000
H321	H32	0.248400	0.728400	0.340300
C391	C39	0.178600	0.684200	0.401900
C401	C40	0.171200	0.626700	0.425800
H331	H33	0.134200	0.620200	0.457500
C411	C41	0.218000	0.578200	0.403300
H341	H34	0.210700	0.539800	0.420100
C421	C42	0.123300	0.737600	0.420300
H351	H35	0.167000	0.766800	0.446400
C431	C43	0.198700	0.899000	0.306900
H361	H36	0.262300	0.913000	0.314200
C441	C44	0.177200	0.849600	0.342200
H371	H37	0.225400	0.831700	0.373000
C451	C45	0.083600	0.826700	0.331500
C461	C46	0.015200	0.858400	0.287200
H381	H38	0.950800	0.846100	0.279700
C471	C47	0.041600	0.907600	0.254500
H391	H39	0.994000	0.928000	0.225400
C481	C48	0.055000	0.770100	0.362700
H401	H40	0.032400	0.740100	0.328600
Cd41	Cd4	0.984990	0.244170	0.237820
Cd51	Cd5	0.859860	0.488820	0.309720
Cd61	Cd6	0.179390	0.002880	0.197450
S31	S3	0.985200	0.413890	0.217180
S41	S4	0.989920	0.077580	0.254540
O91	O9	0.001600	0.348290	0.222000
O101	O10	0.061400	0.442200	0.191400
O111	O11	0.892600	0.428900	0.179100
O121	O12	0.990800	0.439200	0.283700
O131	O13	0.959600	0.140970	0.247300
O141	O14	0.082000	0.070900	0.235200
O151	O15	0.920900	0.037700	0.215400
O161	O16	0.000500	0.059400	0.321000
N91	N9	0.150900	0.243400	0.288600
N101	N10	0.508900	0.270100	0.631600
N111	N11	0.783800	0.408700	0.351100
N121	N12	0.599000	0.069630	0.250400
N131	N13	0.819700	0.251660	0.188000
N141	N14	0.459200	0.243000	0.843700
N151	N15	0.227200	0.084230	0.141300
N161	N16	0.367000	0.427730	0.237200
C491	C49	0.208700	0.291900	0.293000
H411	H41	0.183200	0.328100	0.274200
C501	C50	0.304800	0.290900	0.324000
H421	H42	0.342400	0.325800	0.325100
C511	C51	0.345100	0.238400	0.353200
C521	C52	0.284600	0.188900	0.349600
H431	H43	0.308100	0.152200	0.368500
C531	C53	0.189700	0.193100	0.318300
H441	H44	0.150300	0.159100	0.317700
C541	C54	0.449400	0.232400	0.384700
H451	H45	0.458000	0.194600	0.409800
C551	C55	0.473700	0.318400	0.598200
H461	H46	0.447700	0.349400	0.619600
C561	C56	0.473600	0.325000	0.532200
H471	H47	0.447900	0.360000	0.510600
C571	C57	0.510900	0.280600	0.499000
C581	C58	0.548800	0.230200	0.534400
H481	H48	0.576200	0.198900	0.514100
C591	C59	0.546300	0.226100	0.599500
H491	H49	0.571400	0.191500	0.622200
C601	C60	0.506200	0.284100	0.426600
H501	H50	0.480900	0.323800	0.410300
C611	C61	0.740200	0.413300	0.401800
H511	H51	0.751400	0.447900	0.427600
C621	C62	0.679000	0.369300	0.418200
H521	H52	0.649100	0.375200	0.453600
C631	C63	0.662000	0.316100	0.381900
C641	C64	0.709200	0.311400	0.329600
H531	H53	0.700800	0.276800	0.303600
C651	C65	0.768500	0.357800	0.316100
H541	H54	0.799200	0.353300	0.280800
C661	C66	0.596200	0.267300	0.397100
H551	H55	0.634500	0.236600	0.424600
C671	C67	0.665900	0.099900	0.292400
H561	H56	0.728900	0.084900	0.301100
C681	C68	0.646000	0.152400	0.323500
H571	H57	0.694900	0.171500	0.352800
C691	C69	0.553400	0.176800	0.311200
C701	C70	0.484000	0.144300	0.268100
H581	H58	0.420500	0.158200	0.258400
C711	C71	0.508800	0.091800	0.239900
H591	H59	0.460500	0.070600	0.212200
C721	C72	0.527600	0.235200	0.340600
H601	H60	0.506700	0.264700	0.305700
C731	C73	0.788800	0.302200	0.155700
H611	H61	0.833500	0.332900	0.153400
C741	C74	0.693400	0.311600	0.125200
H621	H62	0.674700	0.348500	0.105000
C751	C75	0.626100	0.265700	0.125100
C761	C76	0.658700	0.212400	0.157300
H631	H63	0.616300	0.180100	0.158500
C771	C77	0.754900	0.207600	0.187800
H641	H64	0.775300	0.171500	0.209300
C781	C78	0.522100	0.275600	0.093000
H651	H65	0.515200	0.314600	0.070200
C791	C79	0.489300	0.192000	0.875500
H661	H66	0.510700	0.160000	0.852900
C801	C80	0.489800	0.184900	0.941100
H671	H67	0.510700	0.148300	0.961400
C811	C81	0.460200	0.230800	0.976700
C821	C82	0.426500	0.283200	0.942700
H681	H68	0.403100	0.315300	0.964100
C831	C83	0.427700	0.287600	0.877400
H691	H69	0.405700	0.323300	0.855800
C841	C84	0.467300	0.225000	0.048600
H701	H70	0.494600	0.185200	0.063000
C851	C85	0.216200	0.140200	0.163000
H711	H71	0.176200	0.145700	0.193100
C861	C86	0.261400	0.190300	0.143000
H721	H72	0.251600	0.228400	0.159700
C871	C87	0.321400	0.184200	0.098100
C881	C88	0.328800	0.126700	0.074200
H731	H73	0.365800	0.120200	0.042500
C891	C89	0.282000	0.078200	0.096700
H741	H74	0.289300	0.039800	0.079900
C901	C90	0.376700	0.237600	0.079700
H751	H75	0.333000	0.266800	0.053600
C911	C91	0.301300	0.399000	0.193100
H761	H76	0.237700	0.413000	0.185800
C921	C92	0.322800	0.349600	0.157800
H771	H77	0.274600	0.331700	0.127000
C931	C93	0.416400	0.326700	0.168500
C941	C94	0.484800	0.358400	0.212800
H781	H78	0.549200	0.346100	0.220300
C951	C95	0.458400	0.407600	0.245500
H791	H79	0.506000	0.428000	0.274600
C961	C96	0.445000	0.270100	0.137300
H801	H80	0.467600	0.240100	0.171400
Cd71	Cd7	0.484990	0.255830	0.737820
Cd81	Cd8	0.359860	0.011180	0.809720
Cd91	Cd9	0.679390	0.497120	0.697450
S51	S5	0.485200	0.086110	0.717180
S61	S6	0.489920	0.422420	0.754540
O171	O17	0.501600	0.151710	0.722000
O181	O18	0.561400	0.057800	0.691400
O191	O19	0.392600	0.071100	0.679100
O201	O20	0.490800	0.060800	0.783700
O211	O21	0.459600	0.359030	0.747300
O221	O22	0.582000	0.429100	0.735200
O231	O23	0.420900	0.462300	0.715400
O241	O24	0.500500	0.440600	0.821000
N171	N17	0.650900	0.256600	0.788600
N181	N18	0.008900	0.229900	0.131600
N191	N19	0.283800	0.091300	0.851100
N201	N20	0.099000	0.430370	0.750400
N211	N21	0.319700	0.248340	0.688000
N221	N22	0.959200	0.257000	0.343700
N231	N23	0.727200	0.415770	0.641300
N241	N24	0.867000	0.072270	0.737200
C971	C97	0.708700	0.208100	0.793000
H811	H81	0.683200	0.171900	0.774200
C981	C98	0.804800	0.209100	0.824000
H821	H82	0.842400	0.174200	0.825100
C991	C99	0.845100	0.261600	0.853200
C1001	C100	0.784600	0.311100	0.849600
H831	H83	0.808100	0.347800	0.868500
C1011	C101	0.689700	0.306900	0.818300
H841	H84	0.650300	0.340900	0.817700
C1021	C102	0.949400	0.267600	0.884700
H851	H85	0.958000	0.305400	0.909800
C1031	C103	0.973700	0.181600	0.098200
H861	H86	0.947700	0.150600	0.119600
C1041	C104	0.973600	0.175000	0.032200
H871	H87	0.947900	0.140000	0.010600
C1051	C105	0.010900	0.219400	0.999000
C1061	C106	0.048800	0.269800	0.034400
H881	H88	0.076200	0.301100	0.014100
C1071	C107	0.046300	0.273900	0.099500
H891	H89	0.071400	0.308500	0.122200
C1081	C108	0.006200	0.215900	0.926600
H901	H90	0.980900	0.176200	0.910300
C1091	C109	0.240200	0.086700	0.901800
H911	H91	0.251400	0.052100	0.927600
C1101	C110	0.179000	0.130700	0.918200
H921	H92	0.149100	0.124800	0.953600
C1111	C111	0.162000	0.183900	0.881900
C1121	C112	0.209200	0.188600	0.829600
H931	H93	0.200800	0.223200	0.803600
C1131	C113	0.268500	0.142200	0.816100
H941	H94	0.299200	0.146700	0.780800
C1141	C114	0.096200	0.232700	0.897100
H951	H95	0.134500	0.263400	0.924600
C1151	C115	0.165900	0.400100	0.792400
H961	H96	0.228900	0.415100	0.801100
C1161	C116	0.146000	0.347600	0.823500
H971	H97	0.194900	0.328500	0.852800
C1171	C117	0.053400	0.323200	0.811200
C1181	C118	0.984000	0.355700	0.768100
H981	H98	0.920500	0.341800	0.758400
C1191	C119	0.008800	0.408200	0.739900
H991	H99	0.960500	0.429400	0.712200
C1201	C120	0.027600	0.264800	0.840600
H1001	H100	0.006700	0.235300	0.805700
C1211	C121	0.288800	0.197800	0.655700
H1011	H101	0.333500	0.167100	0.653400
C1221	C122	0.193400	0.188400	0.625200
H1021	H102	0.174700	0.151500	0.605000
C1231	C123	0.126100	0.234300	0.625100
C1241	C124	0.158700	0.287600	0.657300
H1031	H103	0.116300	0.319900	0.658500
C1251	C125	0.254900	0.292400	0.687800
H1041	H104	0.275300	0.328500	0.709300
C1261	C126	0.022100	0.224400	0.593000
H1051	H105	0.015200	0.185400	0.570200
C1271	C127	0.989300	0.308000	0.375500
H1061	H106	0.010700	0.340000	0.352900
C1281	C128	0.989800	0.315100	0.441100
H1071	H107	0.010700	0.351700	0.461400
C1291	C129	0.960200	0.269200	0.476700
C1301	C130	0.926500	0.216800	0.442700
H1081	H108	0.903100	0.184700	0.464100
C1311	C131	0.927700	0.212400	0.377400
H1091	H109	0.905700	0.176700	0.355800
C1321	C132	0.967300	0.275000	0.548600
H1101	H110	0.994600	0.314800	0.563000
C1331	C133	0.716200	0.359800	0.663000
H1111	H111	0.676200	0.354300	0.693100
C1341	C134	0.761400	0.309700	0.643000
H1121	H112	0.751600	0.271600	0.659700
C1351	C135	0.821400	0.315800	0.598100
C1361	C136	0.828800	0.373300	0.574200
H1131	H113	0.865800	0.379800	0.542500
C1371	C137	0.782000	0.421800	0.596700
H1141	H114	0.789300	0.460200	0.579900
C1381	C138	0.876700	0.262400	0.579700
H1151	H115	0.833000	0.233200	0.553600
C1391	C139	0.801300	0.101000	0.693100
H1161	H116	0.737700	0.087000	0.685800
C1401	C140	0.822800	0.150400	0.657800
H1171	H117	0.774600	0.168300	0.627000
C1411	C141	0.916400	0.173300	0.668500
C1421	C142	0.984800	0.141600	0.712800
H1181	H118	0.049200	0.153900	0.720300
C1431	C143	0.958400	0.092400	0.745500
H1191	H119	0.006000	0.072000	0.774600
C1441	C144	0.945000	0.229900	0.637300
H1201	H120	0.967600	0.259900	0.671400
Cd101	Cd10	0.015010	0.755830	0.762180
Cd111	Cd11	0.140140	0.511180	0.690280
Cd121	Cd12	0.820610	0.997120	0.802550
S71	S7	0.014800	0.586110	0.782820
S81	S8	0.010080	0.922420	0.745460
O251	O25	0.998400	0.651710	0.778000
O261	O26	0.938600	0.557800	0.808600
O271	O27	0.107400	0.571100	0.820900
O281	O28	0.009200	0.560800	0.716300
O291	O29	0.040400	0.859030	0.752700
O301	O30	0.918000	0.929100	0.764800
O311	O31	0.079100	0.962300	0.784600
O321	O32	0.999500	0.940600	0.679000
N251	N25	0.849100	0.756600	0.711400
N261	N26	0.491100	0.729900	0.368400
N271	N27	0.216200	0.591300	0.648900
N281	N28	0.401000	0.930370	0.749600
N291	N29	0.180300	0.748340	0.812000
N301	N30	0.540800	0.757000	0.156300
N311	N31	0.772800	0.915770	0.858700
N321	N32	0.633000	0.572270	0.762800
C1451	C145	0.791300	0.708100	0.707000
H1211	H121	0.816800	0.671900	0.725800
C1461	C146	0.695200	0.709100	0.676000
H1221	H122	0.657600	0.674200	0.674900
C1471	C147	0.654900	0.761600	0.646800
C1481	C148	0.715400	0.811100	0.650400
H1231	H123	0.691900	0.847800	0.631500
C1491	C149	0.810300	0.806900	0.681700
H1241	H124	0.849700	0.840900	0.682300
C1501	C150	0.550600	0.767600	0.615300
H1251	H125	0.542000	0.805400	0.590200
C1511	C151	0.526300	0.681600	0.401800
H1261	H126	0.552300	0.650600	0.380400
C1521	C152	0.526400	0.675000	0.467800
H1271	H127	0.552100	0.640000	0.489400
C1531	C153	0.489100	0.719400	0.501000
C1541	C154	0.451200	0.769800	0.465600
H1281	H128	0.423800	0.801100	0.485900
C1551	C155	0.453700	0.773900	0.400500
H1291	H129	0.428600	0.808500	0.377800
C1561	C156	0.493800	0.715900	0.573400
H1301	H130	0.519100	0.676200	0.589700
C1571	C157	0.259800	0.586700	0.598200
H1311	H131	0.248600	0.552100	0.572400
C1581	C158	0.321000	0.630700	0.581800
H1321	H132	0.350900	0.624800	0.546400
C1591	C159	0.338000	0.683900	0.618100
C1601	C160	0.290800	0.688600	0.670400
H1331	H133	0.299200	0.723200	0.696400
C1611	C161	0.231500	0.642200	0.683900
H1341	H134	0.200800	0.646700	0.719200
C1621	C162	0.403800	0.732700	0.602900
H1351	H135	0.365500	0.763400	0.575400
C1631	C163	0.334100	0.900100	0.707600
H1361	H136	0.271100	0.915100	0.698900
C1641	C164	0.354000	0.847600	0.676500
H1371	H137	0.305100	0.828500	0.647200
C1651	C165	0.446600	0.823200	0.688800
C1661	C166	0.516000	0.855700	0.731900
H1381	H138	0.579500	0.841800	0.741600
C1671	C167	0.491200	0.908200	0.760100
H1391	H139	0.539500	0.929400	0.787800
C1681	C168	0.472400	0.764800	0.659400
H1401	H140	0.493300	0.735300	0.694300
C1691	C169	0.211200	0.697800	0.844300
H1411	H141	0.166500	0.667100	0.846600
C1701	C170	0.306600	0.688400	0.874800
H1421	H142	0.325300	0.651500	0.895000
C1711	C171	0.373900	0.734300	0.874900
C1721	C172	0.341300	0.787600	0.842700
H1431	H143	0.383700	0.819900	0.841500
C1731	C173	0.245100	0.792400	0.812200
H1441	H144	0.224700	0.828500	0.790700
C1741	C174	0.477900	0.724400	0.907000
H1451	H145	0.484800	0.685400	0.929800
C1751	C175	0.510700	0.808000	0.124500
H1461	H146	0.489300	0.840000	0.147100
C1761	C176	0.510200	0.815100	0.058900
H1471	H147	0.489300	0.851700	0.038600
C1771	C177	0.539800	0.769200	0.023300
C1781	C178	0.573500	0.716800	0.057300
H1481	H148	0.596900	0.684700	0.035900
C1791	C179	0.572300	0.712400	0.122600
H1491	H149	0.594300	0.676700	0.144200
C1801	C180	0.532700	0.775000	0.951400
H1501	H150	0.505400	0.814800	0.937000
C1811	C181	0.783800	0.859800	0.837000
H1511	H151	0.823800	0.854300	0.806900
C1821	C182	0.738600	0.809700	0.857000
H1521	H152	0.748400	0.771600	0.840300
C1831	C183	0.678600	0.815800	0.901900
C1841	C184	0.671200	0.873300	0.925800
H1531	H153	0.634200	0.879800	0.957500
C1851	C185	0.718000	0.921800	0.903300
H1541	H154	0.710700	0.960200	0.920100
C1861	C186	0.623300	0.762400	0.920300
H1551	H155	0.667000	0.733200	0.946400
C1871	C187	0.698700	0.601000	0.806900
H1561	H156	0.762300	0.587000	0.814200
C1881	C188	0.677200	0.650400	0.842200
H1571	H157	0.725400	0.668300	0.873000
C1891	C189	0.583600	0.673300	0.831500
C1901	C190	0.515200	0.641600	0.787200
H1581	H158	0.450800	0.653900	0.779700
C1911	C191	0.541600	0.592400	0.754500
H1591	H159	0.494000	0.572000	0.725400
C1921	C192	0.555000	0.729900	0.862700
H1601	H160	0.532400	0.759900	0.828600
