data_GITPIK_clean_PM
_symmetry_space_group_name_H-M	'P1'
_cell_length_a	7.317100
_cell_length_b	15.217300
_cell_length_c	35.757000
_cell_angle_alpha	98.502100
_cell_angle_beta	90.000000
_cell_angle_gamma	103.911000
_symmetry_Int_Tables_number 1

loop_
_symmetry_equiv_pos_as_xyz
'x,y,z'

loop_
_atom_site_label
_atom_site_type_symbol
_atom_site_fract_x
_atom_site_fract_y
_atom_site_fract_z
Zn11	Zn1	0.102570	0.095300	0.781540
Zn21	Zn2	0.752450	0.580640	0.184660
Zn31	Zn3	0.828190	0.580640	0.684660
Zn41	Zn4	0.007270	0.904700	0.718460
Zn51	Zn5	0.992730	0.095300	0.281540
Zn61	Zn6	0.897430	0.904700	0.218460
Zn71	Zn7	0.247550	0.419360	0.815340
Zn81	Zn8	0.171810	0.419360	0.315340
H11	H1	0.000400	0.730600	0.798000
H21	H2	0.491600	0.271000	0.357900
H31	H3	0.260400	0.134400	0.577400
H41	H4	0.372300	0.631800	0.683800
H51	H5	0.991400	0.563600	0.413000
H61	H6	0.386300	0.358400	0.656500
H71	H7	0.972100	0.358400	0.156500
H81	H8	0.220600	0.729000	0.142100
H91	H9	0.126000	0.865600	0.922600
H101	H10	0.752600	0.600000	0.523800
H111	H11	0.269800	0.269400	0.702000
H121	H12	0.999600	0.269400	0.202000
H131	H13	0.259400	0.544600	0.154600
H141	H14	0.411000	0.271600	0.560800
H151	H15	0.685400	0.711600	0.620300
H161	H16	0.589000	0.728400	0.439200
H171	H17	0.670400	0.363600	0.490800
H181	H18	0.739600	0.865600	0.422600
H191	H19	0.109800	0.379800	0.529600
H201	H20	0.026200	0.711600	0.120300
H211	H21	0.508400	0.729000	0.642100
H221	H22	0.152600	0.400000	0.976200
H231	H23	0.892000	0.045800	0.123500
H241	H24	0.270000	0.379800	0.029600
H251	H25	0.572200	0.563600	0.913000
H261	H26	0.329600	0.636400	0.509200
H271	H27	0.730200	0.730600	0.298000
H281	H28	0.613700	0.641600	0.343500
H291	H29	0.769000	0.308000	0.432500
H301	H30	0.427800	0.436400	0.087000
H311	H31	0.740600	0.455400	0.845400
H321	H32	0.247400	0.400000	0.476200
H331	H33	0.846200	0.954200	0.376500
H341	H34	0.874000	0.134400	0.077400
H351	H35	0.139400	0.728400	0.939200
H361	H36	0.108000	0.954200	0.876500
H371	H37	0.714800	0.455400	0.345400
H381	H38	0.539000	0.308000	0.932500
H391	H39	0.306800	0.636400	0.009200
H401	H40	0.740500	0.368200	0.816200
H411	H41	0.153800	0.045800	0.623500
H421	H42	0.730000	0.620200	0.970400
H431	H43	0.314600	0.288400	0.379700
H441	H44	0.890200	0.620200	0.470400
H451	H45	0.860600	0.271600	0.060800
H461	H46	0.461000	0.692000	0.067500
H471	H47	0.779400	0.271000	0.857900
H481	H48	0.259500	0.631800	0.183800
H491	H49	0.231000	0.692000	0.567500
H501	H50	0.973800	0.288400	0.879700
H511	H51	0.285200	0.544600	0.654600
H521	H52	0.693200	0.363600	0.990800
H531	H53	0.008600	0.436400	0.587000
H541	H54	0.027900	0.641600	0.843500
H551	H55	0.847400	0.600000	0.023800
H561	H56	0.627700	0.368200	0.316200
C11	C1	0.258010	0.248620	0.322580
C21	C2	0.090500	0.891200	0.869790
C31	C3	0.913540	0.297680	0.856960
C41	C4	0.269640	0.241880	0.676970
C51	C5	0.199300	0.108800	0.630210
C61	C6	0.741990	0.751380	0.677420
C71	C7	0.772410	0.498020	0.486840
C81	C8	0.959400	0.091600	0.198270
C91	C9	0.725610	0.498020	0.986840
C101	C10	0.384140	0.297680	0.356960
C111	C11	0.927270	0.523340	0.428490
C121	C12	0.947700	0.148000	0.167860
C131	C13	0.092690	0.603580	0.916430
C141	C14	0.446400	0.457000	0.388570
C151	C15	0.734820	0.403840	0.475310
C161	C16	0.866100	0.507600	0.052090
C171	C17	0.662650	0.743700	0.388080
C181	C18	0.489110	0.396420	0.583570
C191	C19	0.086460	0.702320	0.143040
C201	C20	0.009390	0.751380	0.177420
C211	C21	0.730360	0.758120	0.323030
C221	C22	0.178790	0.576980	0.169650
C231	C23	0.575940	0.370880	0.940310
C241	C24	0.909500	0.108800	0.130210
C251	C25	0.102900	0.838200	0.897510
C261	C26	0.132660	0.442720	0.537070
C271	C27	0.435330	0.516860	0.697560
C281	C28	0.027760	0.758120	0.823030
C291	C29	0.072730	0.476660	0.571510
C301	C30	0.567410	0.606820	0.120450
C311	C31	0.794940	0.370880	0.440310
C321	C32	0.265180	0.596160	0.524690
C331	C33	0.043090	0.704380	0.850380
C341	C34	0.897100	0.161800	0.102490
C351	C35	0.867800	0.908400	0.301730
C361	C36	0.615860	0.702320	0.643040
C371	C37	0.274390	0.501980	0.013160
C381	C38	0.689940	0.557280	0.962930
C391	C39	0.432590	0.393180	0.879550
C401	C40	0.536690	0.429180	0.916790
C411	C41	0.081530	0.516860	0.197560
C421	C42	0.989400	0.543000	0.111430
C431	C43	0.669020	0.403840	0.975310
C441	C44	0.081050	0.743700	0.888080
C451	C45	0.133900	0.492400	0.947910
C461	C46	0.107510	0.570820	0.583210
C471	C47	0.200300	0.148000	0.667860
C481	C48	0.867340	0.557280	0.462930
C491	C49	0.918470	0.483140	0.802440
C501	C50	0.424060	0.629120	0.059690
C511	C51	0.510890	0.603580	0.416430
C521	C52	0.338710	0.295620	0.649620
C531	C53	0.398190	0.576980	0.669650
C541	C54	0.132200	0.091600	0.698270
C551	C55	0.972240	0.241880	0.176970
C561	C56	0.463310	0.570820	0.083210
C571	C57	0.735300	0.838200	0.397510
C581	C58	0.800700	0.891200	0.369790
C591	C59	0.918950	0.256300	0.111920
C601	C60	0.821210	0.423020	0.830350
C611	C61	0.892490	0.429180	0.416790
C621	C62	0.264700	0.161800	0.602490
C631	C63	0.337350	0.256300	0.611920
C641	C64	0.956910	0.295620	0.149620
C651	C65	0.039410	0.606820	0.620450
C661	C66	0.661290	0.704380	0.350380
C671	C67	0.553600	0.543000	0.611430
C681	C68	0.205060	0.629120	0.559690
C691	C69	0.799700	0.852000	0.332140
C701	C70	0.052300	0.852000	0.832140
C711	C71	0.330980	0.596160	0.024690
C721	C72	0.358500	0.492400	0.447910
C731	C73	0.641500	0.507600	0.552090
C741	C74	0.990610	0.248620	0.822580
C751	C75	0.596070	0.523340	0.928490
C761	C76	0.960590	0.393180	0.379550
C771	C77	0.010600	0.457000	0.888570
C781	C78	0.601810	0.423020	0.330350
C791	C79	0.564670	0.483140	0.302440
C801	C80	0.040600	0.908400	0.801730
C811	C81	0.227590	0.501980	0.513160
C821	C82	0.403930	0.476660	0.071510
C831	C83	0.310060	0.442720	0.037070
C841	C84	0.907310	0.396420	0.083570
N11	N1	0.944490	0.395180	0.856190
N21	N2	0.362680	0.425960	0.418450
N31	N3	0.063280	0.425960	0.918450
N41	N4	0.526430	0.545260	0.385670
N51	N5	0.936720	0.574040	0.081550
N61	N6	0.412920	0.304640	0.582590
N71	N7	0.275590	0.458780	0.478550
N81	N8	0.154810	0.582220	0.948580
N91	N9	0.587080	0.695360	0.417410
N101	N10	0.108280	0.695360	0.917410
N111	N11	0.018830	0.545260	0.885670
N121	N12	0.816810	0.541220	0.021450
N131	N13	0.473570	0.454740	0.614330
N141	N14	0.549310	0.604820	0.643810
N151	N15	0.891720	0.304640	0.082590
N161	N16	0.427410	0.582220	0.448580
N171	N17	0.183190	0.458780	0.978550
N181	N18	0.572590	0.417780	0.551420
N191	N19	0.845190	0.417780	0.051420
N201	N20	0.637320	0.574040	0.581550
N211	N21	0.981170	0.454740	0.114330
N221	N22	0.450690	0.395180	0.356190
N231	N23	0.055510	0.604820	0.143810
N241	N24	0.724410	0.541220	0.521450
O11	O1	0.002140	0.866480	0.768510
O21	O2	0.076200	0.005800	0.688230
O31	O3	0.815130	0.518660	0.784860
O41	O4	0.923860	0.309920	0.367920
O51	O5	0.076140	0.690080	0.632080
O61	O6	0.192850	0.291900	0.301030
O71	O7	0.780080	0.838160	0.682380
O81	O8	0.997860	0.133520	0.231490
O91	O9	0.184870	0.481340	0.215140
O101	O10	0.058080	0.838160	0.182380
O111	O11	0.945390	0.545580	0.638840
O121	O12	0.864340	0.866480	0.268510
O131	O13	0.093400	0.494800	0.797490
O141	O14	0.401400	0.494800	0.297490
O151	O15	0.613940	0.690080	0.132080
O161	O16	0.399810	0.454420	0.861160
O171	O17	0.070400	0.994200	0.811770
O181	O18	0.600190	0.545580	0.138840
O191	O19	0.929600	0.005800	0.188230
O201	O20	0.219920	0.161840	0.317620
O211	O21	0.906600	0.505200	0.202510
O221	O22	0.135660	0.133520	0.731490
O231	O23	0.099050	0.291900	0.801030
O241	O24	0.900950	0.708100	0.198970
O251	O25	0.703530	0.518660	0.284860
O261	O26	0.386060	0.309920	0.867920
O271	O27	0.296470	0.481340	0.715140
O281	O28	0.807150	0.708100	0.698970
O291	O29	0.598600	0.505200	0.702510
O301	O30	0.941920	0.161840	0.817620
O311	O31	0.923800	0.994200	0.311770
O321	O32	0.054610	0.454420	0.361160
