data_GIVHIC_clean_PM
_symmetry_space_group_name_H-M	'P1'
_cell_length_a	15.914000
_cell_length_b	15.914000
_cell_length_c	35.966000
_cell_angle_alpha	90.000000
_cell_angle_beta	90.000000
_cell_angle_gamma	120.000000
_symmetry_Int_Tables_number 1

loop_
_symmetry_equiv_pos_as_xyz
'x,y,z'

loop_
_atom_site_label
_atom_site_type_symbol
_atom_site_fract_x
_atom_site_fract_y
_atom_site_fract_z
S11	S1	0.802800	0.395200	0.039200
N11	N1	0.965400	0.389500	0.028600
C11	C1	0.869100	0.336700	0.038000
C21	C2	0.831400	0.238100	0.045200
C31	C3	0.887800	0.196200	0.043200
C41	C4	0.985600	0.251200	0.033400
C51	C5	0.022200	0.348200	0.026200
C61	C6	0.010900	0.493300	0.020200
H11	H1	0.766300	0.200100	0.051600
H21	H2	0.860900	0.130400	0.048300
H31	H3	0.024700	0.223100	0.031800
H41	H4	0.087100	0.386400	0.019600
H51	H5	0.080500	0.524100	0.023900
H61	H6	0.985900	0.523500	0.036900
S21	S2	0.469470	0.728530	0.372530
N21	N2	0.632070	0.722830	0.361930
C71	C7	0.535770	0.670030	0.371330
C81	C8	0.498070	0.571430	0.378530
C91	C9	0.554470	0.529530	0.376530
C101	C10	0.652270	0.584530	0.366730
C111	C11	0.688870	0.681530	0.359530
C121	C12	0.677570	0.826630	0.353530
H71	H7	0.432970	0.533430	0.384930
H81	H8	0.527570	0.463730	0.381630
H91	H9	0.691370	0.556430	0.365130
H101	H10	0.753770	0.719730	0.352930
H111	H11	0.747170	0.857430	0.357230
H121	H12	0.652570	0.856830	0.370230
S31	S3	0.136130	0.061870	0.705870
N31	N3	0.298730	0.056170	0.695270
C131	C13	0.202430	0.003370	0.704670
C141	C14	0.164730	0.904770	0.711870
C151	C15	0.221130	0.862870	0.709870
C161	C16	0.318930	0.917870	0.700070
C171	C17	0.355530	0.014870	0.692870
C181	C18	0.344230	0.159970	0.686870
H131	H13	0.099630	0.866770	0.718270
H141	H14	0.194230	0.797070	0.714970
H151	H15	0.358030	0.889770	0.698470
H161	H16	0.420430	0.053070	0.686270
H171	H17	0.413830	0.190770	0.690570
H181	H18	0.319230	0.190170	0.703570
S41	S4	0.604800	0.407600	0.039200
N41	N4	0.610500	0.575900	0.028600
C191	C19	0.663300	0.532400	0.038000
C201	C20	0.761900	0.593300	0.045200
C211	C21	0.803800	0.691600	0.043200
C221	C22	0.748800	0.734400	0.033400
C231	C23	0.651800	0.674000	0.026200
C241	C24	0.506700	0.517600	0.020200
H191	H19	0.799900	0.566200	0.051600
H201	H20	0.869600	0.730500	0.048300
H211	H21	0.776900	0.801600	0.031800
H221	H22	0.613600	0.700700	0.019600
H231	H23	0.475900	0.556400	0.023900
H241	H24	0.476500	0.462400	0.036900
S51	S5	0.271470	0.740930	0.372530
N51	N5	0.277170	0.909230	0.361930
C251	C25	0.329970	0.865730	0.371330
C261	C26	0.428570	0.926630	0.378530
C271	C27	0.470470	0.024930	0.376530
C281	C28	0.415470	0.067730	0.366730
C291	C29	0.318470	0.007330	0.359530
C301	C30	0.173370	0.850930	0.353530
H251	H25	0.466570	0.899530	0.384930
H261	H26	0.536270	0.063830	0.381630
H271	H27	0.443570	0.134930	0.365130
H281	H28	0.280270	0.034030	0.352930
H291	H29	0.142570	0.889730	0.357230
H301	H30	0.143170	0.795730	0.370230
S61	S6	0.938130	0.074270	0.705870
N61	N6	0.943830	0.242570	0.695270
C311	C31	0.996630	0.199070	0.704670
C321	C32	0.095230	0.259970	0.711870
C331	C33	0.137130	0.358270	0.709870
C341	C34	0.082130	0.401070	0.700070
C351	C35	0.985130	0.340670	0.692870
C361	C36	0.840030	0.184270	0.686870
H311	H31	0.133230	0.232870	0.718270
H321	H32	0.202930	0.397170	0.714970
H331	H33	0.110230	0.468270	0.698470
H341	H34	0.946930	0.367370	0.686270
H351	H35	0.809230	0.223070	0.690570
H361	H36	0.809830	0.129070	0.703570
S71	S7	0.592400	0.197200	0.039200
N71	N7	0.424100	0.034600	0.028600
C371	C37	0.467600	0.130900	0.038000
C381	C38	0.406700	0.168600	0.045200
C391	C39	0.308400	0.112200	0.043200
C401	C40	0.265600	0.014400	0.033400
C411	C41	0.326000	0.977800	0.026200
C421	C42	0.482400	0.989100	0.020200
H371	H37	0.433800	0.233700	0.051600
H381	H38	0.269500	0.139100	0.048300
H391	H39	0.198400	0.975300	0.031800
H401	H40	0.299300	0.912900	0.019600
H411	H41	0.443600	0.919500	0.023900
H421	H42	0.537600	0.014100	0.036900
S81	S8	0.259070	0.530530	0.372530
N81	N8	0.090770	0.367930	0.361930
C431	C43	0.134270	0.464230	0.371330
C441	C44	0.073370	0.501930	0.378530
C451	C45	0.975070	0.445530	0.376530
C461	C46	0.932270	0.347730	0.366730
C471	C47	0.992670	0.311130	0.359530
C481	C48	0.149070	0.322430	0.353530
H431	H43	0.100470	0.567030	0.384930
H441	H44	0.936170	0.472430	0.381630
H451	H45	0.865070	0.308630	0.365130
H461	H46	0.965970	0.246230	0.352930
H471	H47	0.110270	0.252830	0.357230
H481	H48	0.204270	0.347430	0.370230
S91	S9	0.925730	0.863870	0.705870
N91	N9	0.757430	0.701270	0.695270
C491	C49	0.800930	0.797570	0.704670
C501	C50	0.740030	0.835270	0.711870
C511	C51	0.641730	0.778870	0.709870
C521	C52	0.598930	0.681070	0.700070
C531	C53	0.659330	0.644470	0.692870
C541	C54	0.815730	0.655770	0.686870
H491	H49	0.767130	0.900370	0.718270
H501	H50	0.602830	0.805770	0.714970
H511	H51	0.531730	0.641970	0.698470
H521	H52	0.632630	0.579570	0.686270
H531	H53	0.776930	0.586170	0.690570
H541	H54	0.870930	0.680770	0.703570
S101	S10	0.395200	0.802800	0.460800
N101	N10	0.389500	0.965400	0.471400
C551	C55	0.336700	0.869100	0.462000
C561	C56	0.238100	0.831400	0.454800
C571	C57	0.196200	0.887800	0.456800
C581	C58	0.251200	0.985600	0.466600
C591	C59	0.348200	0.022200	0.473800
C601	C60	0.493300	0.010900	0.479800
H551	H55	0.200100	0.766300	0.448400
H561	H56	0.130400	0.860900	0.451700
H571	H57	0.223100	0.024700	0.468200
H581	H58	0.386400	0.087100	0.480400
H591	H59	0.524100	0.080500	0.476100
H601	H60	0.523500	0.985900	0.463100
S111	S11	0.061870	0.136130	0.794130
N111	N11	0.056170	0.298730	0.804730
C611	C61	0.003370	0.202430	0.795330
C621	C62	0.904770	0.164730	0.788130
C631	C63	0.862870	0.221130	0.790130
C641	C64	0.917870	0.318930	0.799930
C651	C65	0.014870	0.355530	0.807130
C661	C66	0.159970	0.344230	0.813130
H611	H61	0.866770	0.099630	0.781730
H621	H62	0.797070	0.194230	0.785030
H631	H63	0.889770	0.358030	0.801530
H641	H64	0.053070	0.420430	0.813730
H651	H65	0.190770	0.413830	0.809430
H661	H66	0.190170	0.319230	0.796430
S121	S12	0.728530	0.469470	0.127470
N121	N12	0.722830	0.632070	0.138070
C671	C67	0.670030	0.535770	0.128670
C681	C68	0.571430	0.498070	0.121470
C691	C69	0.529530	0.554470	0.123470
C701	C70	0.584530	0.652270	0.133270
C711	C71	0.681530	0.688870	0.140470
C721	C72	0.826630	0.677570	0.146470
H671	H67	0.533430	0.432970	0.115070
H681	H68	0.463730	0.527570	0.118370
H691	H69	0.556430	0.691370	0.134870
H701	H70	0.719730	0.753770	0.147070
H711	H71	0.857430	0.747170	0.142770
H721	H72	0.856830	0.652570	0.129770
S131	S13	0.407600	0.604800	0.460800
N131	N13	0.575900	0.610500	0.471400
C731	C73	0.532400	0.663300	0.462000
C741	C74	0.593300	0.761900	0.454800
C751	C75	0.691600	0.803800	0.456800
C761	C76	0.734400	0.748800	0.466600
C771	C77	0.674000	0.651800	0.473800
C781	C78	0.517600	0.506700	0.479800
H731	H73	0.566200	0.799900	0.448400
H741	H74	0.730500	0.869600	0.451700
H751	H75	0.801600	0.776900	0.468200
H761	H76	0.700700	0.613600	0.480400
H771	H77	0.556400	0.475900	0.476100
H781	H78	0.462400	0.476500	0.463100
S141	S14	0.074270	0.938130	0.794130
N141	N14	0.242570	0.943830	0.804730
C791	C79	0.199070	0.996630	0.795330
C801	C80	0.259970	0.095230	0.788130
C811	C81	0.358270	0.137130	0.790130
C821	C82	0.401070	0.082130	0.799930
C831	C83	0.340670	0.985130	0.807130
C841	C84	0.184270	0.840030	0.813130
H791	H79	0.232870	0.133230	0.781730
H801	H80	0.397170	0.202930	0.785030
H811	H81	0.468270	0.110230	0.801530
H821	H82	0.367370	0.946930	0.813730
H831	H83	0.223070	0.809230	0.809430
H841	H84	0.129070	0.809830	0.796430
S151	S15	0.740930	0.271470	0.127470
N151	N15	0.909230	0.277170	0.138070
C851	C85	0.865730	0.329970	0.128670
C861	C86	0.926630	0.428570	0.121470
C871	C87	0.024930	0.470470	0.123470
C881	C88	0.067730	0.415470	0.133270
C891	C89	0.007330	0.318470	0.140470
C901	C90	0.850930	0.173370	0.146470
H851	H85	0.899530	0.466570	0.115070
H861	H86	0.063830	0.536270	0.118370
H871	H87	0.134930	0.443570	0.134870
H881	H88	0.034030	0.280270	0.147070
H891	H89	0.889730	0.142570	0.142770
H901	H90	0.795730	0.143170	0.129770
S161	S16	0.197200	0.592400	0.460800
N161	N16	0.034600	0.424100	0.471400
C911	C91	0.130900	0.467600	0.462000
C921	C92	0.168600	0.406700	0.454800
C931	C93	0.112200	0.308400	0.456800
C941	C94	0.014400	0.265600	0.466600
C951	C95	0.977800	0.326000	0.473800
C961	C96	0.989100	0.482400	0.479800
H911	H91	0.233700	0.433800	0.448400
H921	H92	0.139100	0.269500	0.451700
H931	H93	0.975300	0.198400	0.468200
H941	H94	0.912900	0.299300	0.480400
H951	H95	0.919500	0.443600	0.476100
H961	H96	0.014100	0.537600	0.463100
S171	S17	0.863870	0.925730	0.794130
N171	N17	0.701270	0.757430	0.804730
C971	C97	0.797570	0.800930	0.795330
C981	C98	0.835270	0.740030	0.788130
C991	C99	0.778870	0.641730	0.790130
C1001	C100	0.681070	0.598930	0.799930
C1011	C101	0.644470	0.659330	0.807130
C1021	C102	0.655770	0.815730	0.813130
H971	H97	0.900370	0.767130	0.781730
H981	H98	0.805770	0.602830	0.785030
H991	H99	0.641970	0.531730	0.801530
H1001	H100	0.579570	0.632630	0.813730
H1011	H101	0.586170	0.776930	0.809430
H1021	H102	0.680770	0.870930	0.796430
S181	S18	0.530530	0.259070	0.127470
N181	N18	0.367930	0.090770	0.138070
C1031	C103	0.464230	0.134270	0.128670
C1041	C104	0.501930	0.073370	0.121470
C1051	C105	0.445530	0.975070	0.123470
C1061	C106	0.347730	0.932270	0.133270
C1071	C107	0.311130	0.992670	0.140470
C1081	C108	0.322430	0.149070	0.146470
H1031	H103	0.567030	0.100470	0.115070
H1041	H104	0.472430	0.936170	0.118370
H1051	H105	0.308630	0.865070	0.134870
H1061	H106	0.246230	0.965970	0.147070
H1071	H107	0.252830	0.110270	0.142770
H1081	H108	0.347430	0.204270	0.129770
S191	S19	0.197200	0.604800	0.960800
N191	N19	0.034600	0.610500	0.971400
C1091	C109	0.130900	0.663300	0.962000
C1101	C110	0.168600	0.761900	0.954800
C1111	C111	0.112200	0.803800	0.956800
C1121	C112	0.014400	0.748800	0.966600
C1131	C113	0.977800	0.651800	0.973800
C1141	C114	0.989100	0.506700	0.979800
H1091	H109	0.233700	0.799900	0.948400
H1101	H110	0.139100	0.869600	0.951700
H1111	H111	0.975300	0.776900	0.968200
H1121	H112	0.912900	0.613600	0.980400
H1131	H113	0.919500	0.475900	0.976100
H1141	H114	0.014100	0.476500	0.963100
S201	S20	0.863870	0.938130	0.294130
N201	N20	0.701270	0.943830	0.304730
C1151	C115	0.797570	0.996630	0.295330
C1161	C116	0.835270	0.095230	0.288130
C1171	C117	0.778870	0.137130	0.290130
C1181	C118	0.681070	0.082130	0.299930
C1191	C119	0.644470	0.985130	0.307130
C1201	C120	0.655770	0.840030	0.313130
H1151	H115	0.900370	0.133230	0.281730
H1161	H116	0.805770	0.202930	0.285030
H1171	H117	0.641970	0.110230	0.301530
H1181	H118	0.579570	0.946930	0.313730
H1191	H119	0.586170	0.809230	0.309430
H1201	H120	0.680770	0.809830	0.296430
S211	S21	0.530530	0.271470	0.627470
N211	N21	0.367930	0.277170	0.638070
C1211	C121	0.464230	0.329970	0.628670
C1221	C122	0.501930	0.428570	0.621470
C1231	C123	0.445530	0.470470	0.623470
C1241	C124	0.347730	0.415470	0.633270
C1251	C125	0.311130	0.318470	0.640470
C1261	C126	0.322430	0.173370	0.646470
H1211	H121	0.567030	0.466570	0.615070
H1221	H122	0.472430	0.536270	0.618370
H1231	H123	0.308630	0.443570	0.634870
H1241	H124	0.246230	0.280270	0.647070
H1251	H125	0.252830	0.142570	0.642770
H1261	H126	0.347430	0.143170	0.629770
S221	S22	0.395200	0.592400	0.960800
N221	N22	0.389500	0.424100	0.971400
C1271	C127	0.336700	0.467600	0.962000
C1281	C128	0.238100	0.406700	0.954800
C1291	C129	0.196200	0.308400	0.956800
C1301	C130	0.251200	0.265600	0.966600
C1311	C131	0.348200	0.326000	0.973800
C1321	C132	0.493300	0.482400	0.979800
H1271	H127	0.200100	0.433800	0.948400
H1281	H128	0.130400	0.269500	0.951700
H1291	H129	0.223100	0.198400	0.968200
H1301	H130	0.386400	0.299300	0.980400
H1311	H131	0.524100	0.443600	0.976100
H1321	H132	0.523500	0.537600	0.963100
S231	S23	0.061870	0.925730	0.294130
N231	N23	0.056170	0.757430	0.304730
C1331	C133	0.003370	0.800930	0.295330
C1341	C134	0.904770	0.740030	0.288130
C1351	C135	0.862870	0.641730	0.290130
C1361	C136	0.917870	0.598930	0.299930
C1371	C137	0.014870	0.659330	0.307130
C1381	C138	0.159970	0.815730	0.313130
H1331	H133	0.866770	0.767130	0.281730
H1341	H134	0.797070	0.602830	0.285030
H1351	H135	0.889770	0.531730	0.301530
H1361	H136	0.053070	0.632630	0.313730
H1371	H137	0.190770	0.776930	0.309430
H1381	H138	0.190170	0.870930	0.296430
S241	S24	0.728530	0.259070	0.627470
N241	N24	0.722830	0.090770	0.638070
C1391	C139	0.670030	0.134270	0.628670
C1401	C140	0.571430	0.073370	0.621470
C1411	C141	0.529530	0.975070	0.623470
C1421	C142	0.584530	0.932270	0.633270
C1431	C143	0.681530	0.992670	0.640470
C1441	C144	0.826630	0.149070	0.646470
H1391	H139	0.533430	0.100470	0.615070
H1401	H140	0.463730	0.936170	0.618370
H1411	H141	0.556430	0.865070	0.634870
H1421	H142	0.719730	0.965970	0.647070
H1431	H143	0.857430	0.110270	0.642770
H1441	H144	0.856830	0.204270	0.629770
S251	S25	0.407600	0.802800	0.960800
N251	N25	0.575900	0.965400	0.971400
C1451	C145	0.532400	0.869100	0.962000
C1461	C146	0.593300	0.831400	0.954800
C1471	C147	0.691600	0.887800	0.956800
C1481	C148	0.734400	0.985600	0.966600
C1491	C149	0.674000	0.022200	0.973800
C1501	C150	0.517600	0.010900	0.979800
H1451	H145	0.566200	0.766300	0.948400
H1461	H146	0.730500	0.860900	0.951700
H1471	H147	0.801600	0.024700	0.968200
H1481	H148	0.700700	0.087100	0.980400
H1491	H149	0.556400	0.080500	0.976100
H1501	H150	0.462400	0.985900	0.963100
S261	S26	0.074270	0.136130	0.294130
N261	N26	0.242570	0.298730	0.304730
C1511	C151	0.199070	0.202430	0.295330
C1521	C152	0.259970	0.164730	0.288130
C1531	C153	0.358270	0.221130	0.290130
C1541	C154	0.401070	0.318930	0.299930
C1551	C155	0.340670	0.355530	0.307130
C1561	C156	0.184270	0.344230	0.313130
H1511	H151	0.232870	0.099630	0.281730
H1521	H152	0.397170	0.194230	0.285030
H1531	H153	0.468270	0.358030	0.301530
H1541	H154	0.367370	0.420430	0.313730
H1551	H155	0.223070	0.413830	0.309430
H1561	H156	0.129070	0.319230	0.296430
S271	S27	0.740930	0.469470	0.627470
N271	N27	0.909230	0.632070	0.638070
C1571	C157	0.865730	0.535770	0.628670
C1581	C158	0.926630	0.498070	0.621470
C1591	C159	0.024930	0.554470	0.623470
C1601	C160	0.067730	0.652270	0.633270
C1611	C161	0.007330	0.688870	0.640470
C1621	C162	0.850930	0.677570	0.646470
H1571	H157	0.899530	0.432970	0.615070
H1581	H158	0.063830	0.527570	0.618370
H1591	H159	0.134930	0.691370	0.634870
H1601	H160	0.034030	0.753770	0.647070
H1611	H161	0.889730	0.747170	0.642770
H1621	H162	0.795730	0.652570	0.629770
S281	S28	0.604800	0.197200	0.539200
N281	N28	0.610500	0.034600	0.528600
C1631	C163	0.663300	0.130900	0.538000
C1641	C164	0.761900	0.168600	0.545200
C1651	C165	0.803800	0.112200	0.543200
C1661	C166	0.748800	0.014400	0.533400
C1671	C167	0.651800	0.977800	0.526200
C1681	C168	0.506700	0.989100	0.520200
H1631	H163	0.799900	0.233700	0.551600
H1641	H164	0.869600	0.139100	0.548300
H1651	H165	0.776900	0.975300	0.531800
H1661	H166	0.613600	0.912900	0.519600
H1671	H167	0.475900	0.919500	0.523900
H1681	H168	0.476500	0.014100	0.536900
S291	S29	0.271470	0.530530	0.872530
N291	N29	0.277170	0.367930	0.861930
C1691	C169	0.329970	0.464230	0.871330
C1701	C170	0.428570	0.501930	0.878530
C1711	C171	0.470470	0.445530	0.876530
C1721	C172	0.415470	0.347730	0.866730
C1731	C173	0.318470	0.311130	0.859530
C1741	C174	0.173370	0.322430	0.853530
H1691	H169	0.466570	0.567030	0.884930
H1701	H170	0.536270	0.472430	0.881630
H1711	H171	0.443570	0.308630	0.865130
H1721	H172	0.280270	0.246230	0.852930
H1731	H173	0.142570	0.252830	0.857230
H1741	H174	0.143170	0.347430	0.870230
S301	S30	0.938130	0.863870	0.205870
N301	N30	0.943830	0.701270	0.195270
C1751	C175	0.996630	0.797570	0.204670
C1761	C176	0.095230	0.835270	0.211870
C1771	C177	0.137130	0.778870	0.209870
C1781	C178	0.082130	0.681070	0.200070
C1791	C179	0.985130	0.644470	0.192870
C1801	C180	0.840030	0.655770	0.186870
H1751	H175	0.133230	0.900370	0.218270
H1761	H176	0.202930	0.805770	0.214970
H1771	H177	0.110230	0.641970	0.198470
H1781	H178	0.946930	0.579570	0.186270
H1791	H179	0.809230	0.586170	0.190570
H1801	H180	0.809830	0.680770	0.203570
S311	S31	0.592400	0.395200	0.539200
N311	N31	0.424100	0.389500	0.528600
C1811	C181	0.467600	0.336700	0.538000
C1821	C182	0.406700	0.238100	0.545200
C1831	C183	0.308400	0.196200	0.543200
C1841	C184	0.265600	0.251200	0.533400
C1851	C185	0.326000	0.348200	0.526200
C1861	C186	0.482400	0.493300	0.520200
H1811	H181	0.433800	0.200100	0.551600
H1821	H182	0.269500	0.130400	0.548300
H1831	H183	0.198400	0.223100	0.531800
H1841	H184	0.299300	0.386400	0.519600
H1851	H185	0.443600	0.524100	0.523900
H1861	H186	0.537600	0.523500	0.536900
S321	S32	0.259070	0.728530	0.872530
N321	N32	0.090770	0.722830	0.861930
C1871	C187	0.134270	0.670030	0.871330
C1881	C188	0.073370	0.571430	0.878530
C1891	C189	0.975070	0.529530	0.876530
C1901	C190	0.932270	0.584530	0.866730
C1911	C191	0.992670	0.681530	0.859530
C1921	C192	0.149070	0.826630	0.853530
H1871	H187	0.100470	0.533430	0.884930
H1881	H188	0.936170	0.463730	0.881630
H1891	H189	0.865070	0.556430	0.865130
H1901	H190	0.965970	0.719730	0.852930
H1911	H191	0.110270	0.857430	0.857230
H1921	H192	0.204270	0.856830	0.870230
S331	S33	0.925730	0.061870	0.205870
N331	N33	0.757430	0.056170	0.195270
C1931	C193	0.800930	0.003370	0.204670
C1941	C194	0.740030	0.904770	0.211870
C1951	C195	0.641730	0.862870	0.209870
C1961	C196	0.598930	0.917870	0.200070
C1971	C197	0.659330	0.014870	0.192870
C1981	C198	0.815730	0.159970	0.186870
H1931	H193	0.767130	0.866770	0.218270
H1941	H194	0.602830	0.797070	0.214970
H1951	H195	0.531730	0.889770	0.198470
H1961	H196	0.632630	0.053070	0.186270
H1971	H197	0.776930	0.190770	0.190570
H1981	H198	0.870930	0.190170	0.203570
S341	S34	0.802800	0.407600	0.539200
N341	N34	0.965400	0.575900	0.528600
C1991	C199	0.869100	0.532400	0.538000
C2001	C200	0.831400	0.593300	0.545200
C2011	C201	0.887800	0.691600	0.543200
C2021	C202	0.985600	0.734400	0.533400
C2031	C203	0.022200	0.674000	0.526200
C2041	C204	0.010900	0.517600	0.520200
H1991	H199	0.766300	0.566200	0.551600
H2001	H200	0.860900	0.730500	0.548300
H2011	H201	0.024700	0.801600	0.531800
H2021	H202	0.087100	0.700700	0.519600
H2031	H203	0.080500	0.556400	0.523900
H2041	H204	0.985900	0.462400	0.536900
S351	S35	0.469470	0.740930	0.872530
N351	N35	0.632070	0.909230	0.861930
C2051	C205	0.535770	0.865730	0.871330
C2061	C206	0.498070	0.926630	0.878530
C2071	C207	0.554470	0.024930	0.876530
C2081	C208	0.652270	0.067730	0.866730
C2091	C209	0.688870	0.007330	0.859530
C2101	C210	0.677570	0.850930	0.853530
H2051	H205	0.432970	0.899530	0.884930
H2061	H206	0.527570	0.063830	0.881630
H2071	H207	0.691370	0.134930	0.865130
H2081	H208	0.753770	0.034030	0.852930
H2091	H209	0.747170	0.889730	0.857230
H2101	H210	0.652570	0.795730	0.870230
S361	S36	0.136130	0.074270	0.205870
N361	N36	0.298730	0.242570	0.195270
C2111	C211	0.202430	0.199070	0.204670
C2121	C212	0.164730	0.259970	0.211870
C2131	C213	0.221130	0.358270	0.209870
C2141	C214	0.318930	0.401070	0.200070
C2151	C215	0.355530	0.340670	0.192870
C2161	C216	0.344230	0.184270	0.186870
H2111	H211	0.099630	0.232870	0.218270
H2121	H212	0.194230	0.397170	0.214970
H2131	H213	0.358030	0.468270	0.198470
H2141	H214	0.420430	0.367370	0.186270
H2151	H215	0.413830	0.223070	0.190570
H2161	H216	0.319230	0.129070	0.203570
Ni11	Ni1	0.333330	0.666670	0.916670
Ni21	Ni2	0.000000	0.000000	0.250000
Ni31	Ni3	0.666670	0.333330	0.583330
Ni41	Ni4	0.666670	0.333330	0.083330
Ni51	Ni5	0.000000	0.000000	0.750000
Ni61	Ni6	0.333330	0.666670	0.416670
