data_GIWBIY_charged_PM
_symmetry_space_group_name_H-M	'P1'
_cell_length_a	13.208000
_cell_length_b	16.921900
_cell_length_c	31.712000
_cell_angle_alpha	82.881000
_cell_angle_beta	77.980200
_cell_angle_gamma	67.029000
_symmetry_Int_Tables_number 1

loop_
_symmetry_equiv_pos_as_xyz
'x,y,z'

loop_
_atom_site_label
_atom_site_type_symbol
_atom_site_fract_x
_atom_site_fract_y
_atom_site_fract_z
In11	In1	0.899360	0.206650	0.912170
In21	In2	0.981820	0.706650	0.412170
Ag11	Ag1	0.975310	0.732180	0.730880
Ag21	Ag2	0.561630	0.232180	0.230880
H11	H1	0.165200	0.163800	0.869200
H21	H2	0.277900	0.071800	0.807000
H31	H3	0.170800	0.983500	0.795100
H41	H4	0.769900	0.975000	0.863000
H51	H5	0.614800	0.056000	0.920800
H61	H6	0.669100	0.163000	0.947600
H71	H7	0.855200	0.034900	0.780900
H81	H8	0.884400	0.927800	0.734400
H91	H9	0.121100	0.761800	0.792600
H101	H10	0.100800	0.863300	0.840300
H111	H11	0.869500	0.559600	0.448200
H121	H12	0.820300	0.509700	0.524500
H131	H13	0.869300	0.589500	0.571700
H141	H14	0.040100	0.833800	0.546200
H151	H15	0.086400	0.924700	0.481300
H161	H16	0.063700	0.865200	0.417000
H171	H17	0.809700	0.806900	0.588900
H181	H18	0.814700	0.810200	0.661200
H191	H19	0.106700	0.618500	0.650900
H201	H20	0.109100	0.610200	0.577400
H211	H21	0.049900	0.260800	0.965200
H221	H22	0.118200	0.380700	0.949300
H231	H23	0.041400	0.466700	0.885500
H241	H24	0.800300	0.429400	0.778000
H251	H25	0.703900	0.329800	0.775600
H261	H26	0.741700	0.226000	0.838800
H271	H27	0.097600	0.421900	0.800100
H281	H28	0.110800	0.542200	0.759200
H291	H29	0.789000	0.672800	0.793400
H301	H30	0.765700	0.548100	0.830300
H311	H31	0.801800	0.663800	0.369200
H321	H32	0.843300	0.571800	0.307000
H331	H33	0.050600	0.483500	0.295100
H341	H34	0.392100	0.475000	0.363000
H351	H35	0.408400	0.556000	0.420800
H361	H36	0.220300	0.663000	0.447600
H371	H37	0.329000	0.534900	0.280900
H381	H38	0.453400	0.427800	0.234400
H391	H39	0.324500	0.261800	0.292600
H401	H40	0.195600	0.363300	0.340300
H411	H41	0.122700	0.059600	0.948200
H421	H42	0.145500	0.009700	0.024500
H431	H43	0.969500	0.089500	0.071700
H441	H44	0.579900	0.333800	0.046200
H451	H45	0.507600	0.424700	0.981300
H461	H46	0.654100	0.365200	0.917000
H471	H47	0.794500	0.306900	0.088900
H481	H48	0.713900	0.310200	0.161200
H491	H49	0.623900	0.118500	0.150900
H501	H50	0.703300	0.110200	0.077400
H511	H51	0.724100	0.760800	0.465200
H521	H52	0.551800	0.880700	0.449300
H531	H53	0.606400	0.966700	0.385500
H541	H54	0.992300	0.929400	0.278000
H551	H55	0.190700	0.829800	0.275600
H561	H56	0.193500	0.726000	0.338800
H571	H57	0.680400	0.921900	0.300100
H581	H58	0.587800	0.042200	0.259200
H591	H59	0.744800	0.172800	0.293400
H601	H60	0.855900	0.048100	0.330300
C11	C1	0.142100	0.127100	0.856500
C21	C2	0.206800	0.074600	0.822400
C31	C3	0.147100	0.026900	0.815300
C41	C4	0.044500	0.055500	0.844100
C51	C5	0.955800	0.028600	0.847000
C61	C6	0.850500	0.055000	0.874600
C71	C7	0.767800	0.020000	0.878800
C81	C8	0.682900	0.064600	0.910800
C91	C9	0.713600	0.123800	0.925800
C101	C10	0.973300	0.961200	0.816600
C111	C11	0.910200	0.979100	0.784300
C121	C12	0.927900	0.914000	0.756600
C131	C13	0.065800	0.817800	0.790600
C141	C14	0.054100	0.878300	0.819100
C151	C15	0.880300	0.579900	0.472900
C161	C16	0.852400	0.551800	0.515400
C171	C17	0.879500	0.595100	0.541100
C181	C18	0.926600	0.651800	0.514200
C191	C19	0.962700	0.709870	0.527130
C201	C20	0.002600	0.769000	0.502600
C211	C21	0.036200	0.828400	0.517200
C221	C22	0.063100	0.878200	0.481400
C231	C23	0.048200	0.844900	0.445900
C241	C24	0.960000	0.710500	0.575300
C251	C25	0.872600	0.768300	0.600700
C261	C26	0.876400	0.770200	0.643800
C271	C27	0.046700	0.658300	0.637900
C281	C28	0.048600	0.652600	0.594000
C291	C29	0.037000	0.300900	0.941300
C301	C30	0.073300	0.368700	0.933100
C311	C31	0.032900	0.415000	0.897800
C321	C32	0.976100	0.371300	0.882900
C331	C33	0.920600	0.396100	0.847500
C341	C34	0.854700	0.358600	0.834200
C351	C35	0.800100	0.382800	0.798000
C361	C36	0.746800	0.328500	0.796500
C371	C37	0.768800	0.271200	0.831800
C381	C38	0.931200	0.472800	0.820400
C391	C39	0.032200	0.472100	0.798700
C401	C40	0.039800	0.544500	0.774500
C411	C41	0.851900	0.620400	0.793600
C421	C42	0.838000	0.546500	0.817100
C431	C43	0.874300	0.627100	0.356500
C441	C44	0.896200	0.574600	0.322400
C451	C45	0.010700	0.526900	0.315300
C461	C46	0.055900	0.555500	0.344100
C471	C47	0.168600	0.528600	0.347000
C481	C48	0.219900	0.555000	0.374600
C491	C49	0.333400	0.520000	0.378800
C501	C50	0.341700	0.564600	0.410800
C511	C51	0.236800	0.623800	0.425800
C521	C52	0.248900	0.461200	0.316600
C531	C53	0.326400	0.479100	0.284300
C541	C54	0.401500	0.414000	0.256600
C551	C55	0.325800	0.317800	0.290600
C561	C56	0.248500	0.378300	0.319100
C571	C57	0.066900	0.079900	0.972900
C581	C58	0.080400	0.051800	0.015400
C591	C59	0.984300	0.095100	0.041100
C601	C60	0.907400	0.151800	0.014200
C611	C61	0.800300	0.209870	0.027130
C621	C62	0.725800	0.269000	0.002600
C631	C63	0.618200	0.328400	0.017200
C641	C64	0.577300	0.378200	0.981400
C651	C65	0.661000	0.344900	0.945900
C661	C66	0.754200	0.210500	0.075300
C671	C67	0.758400	0.268300	0.100700
C681	C68	0.709600	0.270200	0.143800
C691	C69	0.657100	0.158300	0.137900
C701	C70	0.704800	0.152600	0.094000
C711	C71	0.720800	0.800900	0.441300
C721	C72	0.624900	0.868700	0.433100
C731	C73	0.654300	0.915000	0.397800
C741	C74	0.769700	0.871300	0.382900
C751	C75	0.835800	0.896100	0.347500
C761	C76	0.952500	0.858600	0.334200
C771	C77	0.019100	0.882800	0.298000
C781	C78	0.128200	0.828500	0.296500
C791	C79	0.128200	0.771200	0.331800
C801	C80	0.775600	0.972800	0.320400
C811	C81	0.697000	0.972100	0.298700
C821	C82	0.641200	0.044500	0.274500
C831	C83	0.734100	0.120400	0.293600
C841	C84	0.798400	0.046500	0.317100
N11	N1	0.043800	0.118810	0.868790
N21	N2	0.817520	0.117440	0.904520
N31	N3	0.000600	0.836320	0.759880
N41	N4	0.924500	0.639920	0.471480
N51	N5	0.009900	0.781770	0.457030
N61	N6	0.964000	0.717600	0.662000
N71	N7	0.980600	0.299870	0.910530
N81	N8	0.832900	0.287110	0.855090
N91	N9	0.951000	0.617000	0.772000
N101	N10	0.968600	0.618810	0.368790
N111	N11	0.160520	0.617440	0.404520
N121	N12	0.403200	0.336320	0.259880
N131	N13	0.964100	0.139920	0.971480
N141	N14	0.751300	0.281770	0.957030
N151	N15	0.656400	0.217600	0.162000
N161	N16	0.809000	0.799870	0.410530
N171	N17	0.024900	0.787110	0.355090
N181	N18	0.660000	0.117000	0.272000
In31	In3	0.018180	0.293350	0.587830
In41	In4	0.100640	0.793350	0.087830
Ag31	Ag3	0.438370	0.767820	0.769120
Ag41	Ag4	0.024690	0.267820	0.269120
H611	H61	0.198200	0.336200	0.630800
H621	H62	0.156700	0.428200	0.693000
H631	H63	0.949400	0.516500	0.704900
H641	H64	0.607900	0.525000	0.637000
H651	H65	0.591600	0.444000	0.579200
H661	H66	0.779700	0.337000	0.552400
H671	H67	0.671000	0.465100	0.719100
H681	H68	0.546600	0.572200	0.765600
H691	H69	0.675500	0.738200	0.707400
H701	H70	0.804400	0.636700	0.659700
H711	H71	0.877300	0.940400	0.051800
H721	H72	0.854500	0.990300	0.975500
H731	H73	0.030500	0.910500	0.928300
H741	H74	0.420100	0.666200	0.953800
H751	H75	0.492400	0.575300	0.018700
H761	H76	0.345900	0.634800	0.083000
H771	H77	0.205500	0.693100	0.911100
H781	H78	0.286100	0.689800	0.838800
H791	H79	0.376100	0.881500	0.849100
H801	H80	0.296700	0.889800	0.922600
H811	H81	0.275900	0.239200	0.534800
H821	H82	0.448200	0.119300	0.550700
H831	H83	0.393600	0.033300	0.614500
H841	H84	0.007700	0.070600	0.722000
H851	H85	0.809300	0.170200	0.724400
H861	H86	0.806500	0.274000	0.661200
H871	H87	0.319600	0.078100	0.699900
H881	H88	0.412200	0.957800	0.740800
H891	H89	0.255200	0.827200	0.706600
H901	H90	0.144100	0.951900	0.669700
H911	H91	0.834800	0.836200	0.130800
H921	H92	0.722100	0.928200	0.193000
H931	H93	0.829200	0.016500	0.204900
H941	H94	0.230100	0.025000	0.137000
H951	H95	0.385200	0.944000	0.079200
H961	H96	0.330900	0.837000	0.052400
H971	H97	0.144800	0.965100	0.219100
H981	H98	0.115600	0.072200	0.265600
H991	H99	0.878900	0.238200	0.207400
H1001	H100	0.899200	0.136700	0.159700
H1011	H101	0.130500	0.440400	0.551800
H1021	H102	0.179700	0.490300	0.475500
H1031	H103	0.130700	0.410500	0.428300
H1041	H104	0.959900	0.166200	0.453800
H1051	H105	0.913600	0.075300	0.518700
H1061	H106	0.936300	0.134800	0.583000
H1071	H107	0.190300	0.193100	0.411100
H1081	H108	0.185300	0.189800	0.338800
H1091	H109	0.893300	0.381500	0.349100
H1101	H110	0.890900	0.389800	0.422600
H1111	H111	0.950100	0.739200	0.034800
H1121	H112	0.881800	0.619300	0.050700
H1131	H113	0.958600	0.533300	0.114500
H1141	H114	0.199700	0.570600	0.222000
H1151	H115	0.296100	0.670200	0.224400
H1161	H116	0.258300	0.774000	0.161200
H1171	H117	0.902400	0.578100	0.199900
H1181	H118	0.889200	0.457800	0.240800
H1191	H119	0.211000	0.327200	0.206600
H1201	H120	0.234300	0.451900	0.169700
C851	C85	0.125700	0.372900	0.643500
C861	C86	0.103800	0.425400	0.677600
C871	C87	0.989300	0.473100	0.684700
C881	C88	0.944100	0.444500	0.655900
C891	C89	0.831400	0.471400	0.653000
C901	C90	0.780100	0.445000	0.625400
C911	C91	0.666600	0.480000	0.621200
C921	C92	0.658300	0.435400	0.589200
C931	C93	0.763200	0.376200	0.574200
C941	C94	0.751100	0.538800	0.683400
C951	C95	0.673600	0.520900	0.715700
C961	C96	0.598500	0.586000	0.743400
C971	C97	0.674200	0.682200	0.709400
C981	C98	0.751500	0.621700	0.680900
C991	C99	0.933100	0.920100	0.027100
C1001	C100	0.919600	0.948200	0.984600
C1011	C101	0.015700	0.904900	0.958900
C1021	C102	0.092600	0.848200	0.985800
C1031	C103	0.199700	0.790130	0.972870
C1041	C104	0.274200	0.731000	0.997400
C1051	C105	0.381800	0.671600	0.982800
C1061	C106	0.422700	0.621800	0.018600
C1071	C107	0.339000	0.655100	0.054100
C1081	C108	0.245800	0.789500	0.924700
C1091	C109	0.241600	0.731700	0.899300
C1101	C110	0.290400	0.729800	0.856200
C1111	C111	0.342900	0.841700	0.862100
C1121	C112	0.295200	0.847400	0.906000
C1131	C113	0.279200	0.199100	0.558700
C1141	C114	0.375100	0.131300	0.566900
C1151	C115	0.345700	0.085000	0.602200
C1161	C116	0.230300	0.128700	0.617100
C1171	C117	0.164200	0.103900	0.652500
C1181	C118	0.047500	0.141400	0.665800
C1191	C119	0.980900	0.117200	0.702000
C1201	C120	0.871800	0.171500	0.703500
C1211	C121	0.871800	0.228800	0.668200
C1221	C122	0.224400	0.027200	0.679600
C1231	C123	0.303000	0.027900	0.701300
C1241	C124	0.358800	0.955500	0.725500
C1251	C125	0.265900	0.879600	0.706400
C1261	C126	0.201600	0.953500	0.682900
C1271	C127	0.857900	0.872900	0.143500
C1281	C128	0.793200	0.925400	0.177600
C1291	C129	0.852900	0.973100	0.184700
C1301	C130	0.955500	0.944500	0.155900
C1311	C131	0.044200	0.971400	0.153000
C1321	C132	0.149500	0.945000	0.125400
C1331	C133	0.232200	0.980000	0.121200
C1341	C134	0.317100	0.935400	0.089200
C1351	C135	0.286400	0.876200	0.074200
C1361	C136	0.026700	0.038800	0.183400
C1371	C137	0.089800	0.020900	0.215700
C1381	C138	0.072100	0.086000	0.243400
C1391	C139	0.934200	0.182200	0.209400
C1401	C140	0.945900	0.121700	0.180900
C1411	C141	0.119700	0.420100	0.527100
C1421	C142	0.147600	0.448200	0.484600
C1431	C143	0.120500	0.404900	0.458900
C1441	C144	0.073400	0.348200	0.485800
C1451	C145	0.037300	0.290130	0.472870
C1461	C146	0.997400	0.231000	0.497400
C1471	C147	0.963800	0.171600	0.482800
C1481	C148	0.936900	0.121800	0.518600
C1491	C149	0.951800	0.155100	0.554100
C1501	C150	0.040000	0.289500	0.424700
C1511	C151	0.127400	0.231700	0.399300
C1521	C152	0.123600	0.229800	0.356200
C1531	C153	0.953300	0.341700	0.362100
C1541	C154	0.951400	0.347400	0.406000
C1551	C155	0.963000	0.699100	0.058700
C1561	C156	0.926700	0.631300	0.066900
C1571	C157	0.967100	0.585000	0.102200
C1581	C158	0.023900	0.628700	0.117100
C1591	C159	0.079400	0.603900	0.152500
C1601	C160	0.145300	0.641400	0.165800
C1611	C161	0.199900	0.617200	0.202000
C1621	C162	0.253200	0.671500	0.203500
C1631	C163	0.231200	0.728800	0.168200
C1641	C164	0.068800	0.527200	0.179600
C1651	C165	0.967800	0.527900	0.201300
C1661	C166	0.960200	0.455500	0.225500
C1671	C167	0.148100	0.379600	0.206400
C1681	C168	0.162000	0.453500	0.182900
N191	N19	0.031400	0.381190	0.631210
N201	N20	0.839480	0.382560	0.595480
N211	N21	0.596800	0.663680	0.740120
N221	N22	0.035900	0.860080	0.028520
N231	N23	0.248700	0.718230	0.042970
N241	N24	0.343600	0.782400	0.838000
N251	N25	0.191000	0.200130	0.589470
N261	N26	0.975100	0.212890	0.644910
N271	N27	0.340000	0.883000	0.728000
N281	N28	0.956200	0.881190	0.131210
N291	N29	0.182480	0.882560	0.095480
N301	N30	0.999400	0.163680	0.240120
N311	N31	0.075500	0.360080	0.528520
N321	N32	0.990100	0.218230	0.542970
N331	N33	0.036000	0.282400	0.338000
N341	N34	0.019400	0.700130	0.089470
N351	N35	0.167100	0.712890	0.144910
N361	N36	0.049000	0.383000	0.228000
C1691	C169	0.354300	0.504100	0.745700
S11	S1	0.313040	0.613800	0.729880
O11	O1	0.201700	0.639600	0.722200
O21	O2	0.398800	0.618000	0.692200
O31	O3	0.321600	0.651500	0.767100
F11	F1	0.296400	0.486000	0.780000
F21	F2	0.342300	0.459000	0.713800
F31	F3	0.467300	0.462400	0.745000
C1701	C170	0.604100	0.995900	0.754300
S21	S2	0.656720	0.886200	0.770120
O41	O4	0.563500	0.860400	0.777800
O51	O5	0.709000	0.882000	0.807800
O61	O6	0.740200	0.848500	0.732900
F41	F4	0.562400	0.014000	0.720000
F51	F5	0.515100	0.041000	0.786200
F61	F6	0.674700	0.037600	0.755000
C1711	C171	0.645700	0.495900	0.254300
S31	S3	0.686960	0.386200	0.270120
O71	O7	0.798300	0.360400	0.277800
O81	O8	0.601200	0.382000	0.307800
O91	O9	0.678400	0.348500	0.232900
F71	F7	0.703600	0.514000	0.220000
F81	F8	0.657700	0.541000	0.286200
F91	F9	0.532700	0.537600	0.255000
C1721	C172	0.395900	0.004100	0.245700
S41	S4	0.343280	0.113800	0.229880
O101	O10	0.436500	0.139600	0.222200
O111	O11	0.291000	0.118000	0.192200
O121	O12	0.259800	0.151500	0.267100
F101	F10	0.437600	0.986000	0.280000
F111	F11	0.484900	0.959000	0.213800
F121	F12	0.325300	0.962400	0.245000
