data_GIWCOF_ion_b_PM
_symmetry_space_group_name_H-M	'P1'
_cell_length_a	17.167900
_cell_length_b	17.167900
_cell_length_c	33.715000
_cell_angle_alpha	113.382100
_cell_angle_beta	113.382100
_cell_angle_gamma	44.004700
_symmetry_Int_Tables_number 1

loop_
_symmetry_equiv_pos_as_xyz
'x,y,z'

loop_
_atom_site_label
_atom_site_type_symbol
_atom_site_fract_x
_atom_site_fract_y
_atom_site_fract_z
Ag11	Ag1	0.532480	0.017280	0.769510
C21	C2	0.864330	0.157130	0.647040
H31	H3	0.790900	0.180900	0.635800
C41	C4	0.885900	0.225100	0.680330
H51	H5	0.831800	0.300400	0.694700
C61	C6	0.001520	0.158920	0.687430
H71	H7	0.042600	0.180400	0.708400
C81	C8	0.049220	0.054220	0.658540
C91	C9	0.164730	0.961930	0.654940
C101	C10	0.213260	0.857060	0.626650
C111	C11	0.330340	0.767940	0.620680
H121	H12	0.390000	0.768200	0.636000
C131	C13	0.339400	0.684200	0.589420
H141	H14	0.406500	0.614500	0.578300
C151	C15	0.232290	0.718690	0.576410
H161	H16	0.216000	0.674200	0.554600
C171	C17	0.243250	0.979050	0.684240
C181	C18	0.327850	0.912850	0.716510
H191	H19	0.336500	0.854900	0.720300
C201	C20	0.399490	0.933090	0.743050
H211	H21	0.455600	0.888400	0.765400
C221	C22	0.312700	0.074500	0.708030
H231	H23	0.307600	0.130600	0.704800
C241	C24	0.237010	0.063010	0.681030
H251	H25	0.179800	0.111600	0.659900
C261	C26	0.705200	0.068600	0.560400
H271	H27	0.709700	0.085100	0.538000
C281	C28	0.603500	0.109300	0.566400
H291	H29	0.529200	0.157400	0.550000
C301	C30	0.635600	0.063600	0.601400
H311	H31	0.586400	0.072800	0.612800
C321	C32	0.751670	0.001870	0.617390
C331	C33	0.818090	0.941290	0.651740
C341	C34	0.935240	0.873040	0.666600
C351	C35	0.001200	0.818200	0.704510
H361	H36	0.972500	0.819700	0.724000
C371	C37	0.110300	0.764700	0.707640
H381	H38	0.172900	0.719700	0.729000
C391	C39	0.114000	0.788000	0.672940
H401	H40	0.180500	0.763300	0.668300
C411	C41	0.755680	0.951080	0.676800
C421	C42	0.673170	0.056770	0.699640
H431	H43	0.655500	0.122900	0.698800
C441	C44	0.617600	0.064600	0.723400
H451	H45	0.562600	0.137000	0.739100
C461	C46	0.715700	0.874900	0.703300
H471	H47	0.730500	0.810500	0.704200
C481	C48	0.776400	0.860400	0.679130
H491	H49	0.832300	0.786900	0.664300
C501	C50	0.070670	0.877670	0.026970
H511	H51	0.127500	0.866700	0.051800
C521	C52	0.083530	0.850730	0.983420
H531	H53	0.148300	0.818100	0.973700
C541	C54	0.982860	0.881460	0.958160
H551	H55	0.963700	0.875700	0.927200
C561	C56	0.911780	0.923580	0.986340
C571	C57	0.803100	0.960900	0.973540
C581	C58	0.730440	0.998240	0.999950
C591	C59	0.621700	0.035500	0.986100
H601	H60	0.580800	0.040800	0.956900
C611	C61	0.585300	0.062900	0.022600
H621	H62	0.514000	0.090800	0.023400
C631	C63	0.670600	0.043200	0.058300
H641	H64	0.666500	0.055500	0.087700
C651	C65	0.752050	0.963850	0.925870
C661	C66	0.706300	0.050100	0.907130
H671	H67	0.710300	0.106900	0.923900
C681	C68	0.653160	0.053560	0.862650
H691	H69	0.620100	0.114500	0.850100
C701	C70	0.696550	0.889550	0.855850
H711	H71	0.695400	0.831400	0.838100
C721	C72	0.749540	0.880740	0.899500
H731	H73	0.783600	0.817800	0.910900
In741	In74	0.973260	0.911420	0.590170
N751	N75	0.960430	0.054830	0.633270
N761	N76	0.154800	0.820800	0.597810
N771	N77	0.395090	0.009890	0.739430
N781	N78	0.794990	0.003790	0.590160
N791	N79	0.011510	0.849510	0.647540
N801	N80	0.637210	0.976810	0.725400
N811	N81	0.971530	0.919730	0.029500
N821	N82	0.759780	0.004380	0.045510
N831	N83	0.647600	0.974600	0.837670
P841	P84	0.682110	0.665850	0.724860
F851	F85	0.781620	0.566520	0.706610
F861	F86	0.658810	0.599610	0.726650
F871	F87	0.668500	0.707900	0.774740
F881	F88	0.658720	0.768720	0.749940
F891	F89	0.576130	0.677930	0.702370
F901	F90	0.609450	0.748250	0.691980
Ag911	Ag91	0.982720	0.467520	0.730490
C921	C92	0.842870	0.135670	0.852960
H931	H93	0.819100	0.209100	0.864200
C941	C94	0.774900	0.114100	0.819670
H951	H95	0.699600	0.168200	0.805300
C961	C96	0.841080	0.998480	0.812570
H971	H97	0.819600	0.957400	0.791600
C981	C98	0.945780	0.950780	0.841460
C991	C99	0.038070	0.835270	0.845060
C1001	C100	0.142940	0.786740	0.873350
C1011	C101	0.232060	0.669660	0.879320
H1021	H102	0.231800	0.610000	0.864000
C1031	C103	0.315800	0.660600	0.910580
H1041	H104	0.385500	0.593500	0.921700
C1051	C105	0.281310	0.767710	0.923590
H1061	H106	0.325800	0.784000	0.945400
C1071	C107	0.020950	0.756750	0.815760
C1081	C108	0.087150	0.672150	0.783490
H1091	H109	0.145100	0.663500	0.779700
C1101	C110	0.066910	0.600510	0.756950
H1111	H111	0.111600	0.544400	0.734600
C1121	C112	0.925500	0.687300	0.791970
H1131	H113	0.869400	0.692400	0.795200
C1141	C114	0.936990	0.762990	0.818970
H1151	H115	0.888400	0.820200	0.840100
C1161	C116	0.931400	0.294800	0.939600
H1171	H117	0.914900	0.290300	0.962000
C1181	C118	0.890700	0.396500	0.933600
H1191	H119	0.842600	0.470800	0.950000
C1201	C120	0.936400	0.364400	0.898600
H1211	H121	0.927200	0.413600	0.887200
C1221	C122	0.998130	0.248330	0.882610
C1231	C123	0.058710	0.181910	0.848260
C1241	C124	0.126960	0.064760	0.833400
C1251	C125	0.181800	0.998800	0.795490
H1261	H126	0.180300	0.027500	0.776000
C1271	C127	0.235300	0.889700	0.792360
H1281	H128	0.280300	0.827100	0.771000
C1291	C129	0.212000	0.886000	0.827060
H1301	H130	0.236700	0.819500	0.831700
C1311	C131	0.048920	0.244320	0.823200
C1321	C132	0.943230	0.326830	0.800360
H1331	H133	0.877100	0.344500	0.801200
C1341	C134	0.935400	0.382400	0.776600
H1351	H135	0.863000	0.437400	0.760900
C1361	C136	0.125100	0.284300	0.796700
H1371	H137	0.189500	0.269500	0.795800
C1381	C138	0.139600	0.223600	0.820870
H1391	H139	0.213100	0.167700	0.835700
C1401	C140	0.122330	0.929330	0.473030
H1411	H141	0.133300	0.872500	0.448200
C1421	C142	0.149270	0.916470	0.516580
H1431	H143	0.181900	0.851700	0.526300
C1441	C144	0.118540	0.017140	0.541840
H1451	H145	0.124300	0.036300	0.572800
C1461	C146	0.076420	0.088220	0.513660
C1471	C147	0.039100	0.196900	0.526460
C1481	C148	0.001760	0.269560	0.500050
C1491	C149	0.964500	0.378300	0.513900
H1501	H150	0.959200	0.419200	0.543100
C1511	C151	0.937100	0.414700	0.477400
H1521	H152	0.909200	0.486000	0.476600
C1531	C153	0.956800	0.329400	0.441700
H1541	H154	0.944500	0.333500	0.412300
C1551	C155	0.036150	0.247950	0.574130
C1561	C156	0.949900	0.293700	0.592870
H1571	H157	0.893100	0.289700	0.576100
C1581	C158	0.946440	0.346840	0.637350
H1591	H159	0.885500	0.379900	0.649900
C1601	C160	0.110450	0.303450	0.644150
H1611	H161	0.168600	0.304600	0.661900
C1621	C162	0.119260	0.250460	0.600500
H1631	H163	0.182200	0.216400	0.589100
In1641	In164	0.088580	0.026740	0.909830
N1651	N165	0.945170	0.039570	0.866730
N1661	N166	0.179200	0.845200	0.902190
N1671	N167	0.990110	0.604910	0.760570
N1681	N168	0.996210	0.205010	0.909840
N1691	N169	0.150490	0.988490	0.852460
N1701	N170	0.023190	0.362790	0.774600
N1711	N171	0.080270	0.028470	0.470500
N1721	N172	0.995620	0.240220	0.454490
N1731	N173	0.025400	0.352400	0.662330
P1741	P174	0.334150	0.317890	0.775140
F1751	F175	0.433480	0.218380	0.793390
F1761	F176	0.400390	0.341190	0.773350
F1771	F177	0.292100	0.331500	0.725260
F1781	F178	0.231280	0.341280	0.750060
F1791	F179	0.322070	0.423870	0.797630
F1801	F180	0.251750	0.390550	0.808020
Ag1811	Ag181	0.467520	0.982720	0.230490
C1821	C182	0.135670	0.842870	0.352960
H1831	H183	0.209100	0.819100	0.364200
C1841	C184	0.114100	0.774900	0.319670
H1851	H185	0.168200	0.699600	0.305300
C1861	C186	0.998480	0.841080	0.312570
H1871	H187	0.957400	0.819600	0.291600
C1881	C188	0.950780	0.945780	0.341460
C1891	C189	0.835270	0.038070	0.345060
C1901	C190	0.786740	0.142940	0.373350
C1911	C191	0.669660	0.232060	0.379320
H1921	H192	0.610000	0.231800	0.364000
C1931	C193	0.660600	0.315800	0.410580
H1941	H194	0.593500	0.385500	0.421700
C1951	C195	0.767710	0.281310	0.423590
H1961	H196	0.784000	0.325800	0.445400
C1971	C197	0.756750	0.020950	0.315760
C1981	C198	0.672150	0.087150	0.283490
H1991	H199	0.663500	0.145100	0.279700
C2001	C200	0.600510	0.066910	0.256950
H2011	H201	0.544400	0.111600	0.234600
C2021	C202	0.687300	0.925500	0.291970
H2031	H203	0.692400	0.869400	0.295200
C2041	C204	0.762990	0.936990	0.318970
H2051	H205	0.820200	0.888400	0.340100
C2061	C206	0.294800	0.931400	0.439600
H2071	H207	0.290300	0.914900	0.462000
C2081	C208	0.396500	0.890700	0.433600
H2091	H209	0.470800	0.842600	0.450000
C2101	C210	0.364400	0.936400	0.398600
H2111	H211	0.413600	0.927200	0.387200
C2121	C212	0.248330	0.998130	0.382610
C2131	C213	0.181910	0.058710	0.348260
C2141	C214	0.064760	0.126960	0.333400
C2151	C215	0.998800	0.181800	0.295490
H2161	H216	0.027500	0.180300	0.276000
C2171	C217	0.889700	0.235300	0.292360
H2181	H218	0.827100	0.280300	0.271000
C2191	C219	0.886000	0.212000	0.327060
H2201	H220	0.819500	0.236700	0.331700
C2211	C221	0.244320	0.048920	0.323200
C2221	C222	0.326830	0.943230	0.300360
H2231	H223	0.344500	0.877100	0.301200
C2241	C224	0.382400	0.935400	0.276600
H2251	H225	0.437400	0.863000	0.260900
C2261	C226	0.284300	0.125100	0.296700
H2271	H227	0.269500	0.189500	0.295800
C2281	C228	0.223600	0.139600	0.320870
H2291	H229	0.167700	0.213100	0.335700
C2301	C230	0.929330	0.122330	0.973030
H2311	H231	0.872500	0.133300	0.948200
C2321	C232	0.916470	0.149270	0.016580
H2331	H233	0.851700	0.181900	0.026300
C2341	C234	0.017140	0.118540	0.041840
H2351	H235	0.036300	0.124300	0.072800
C2361	C236	0.088220	0.076420	0.013660
C2371	C237	0.196900	0.039100	0.026460
C2381	C238	0.269560	0.001760	0.000050
C2391	C239	0.378300	0.964500	0.013900
H2401	H240	0.419200	0.959200	0.043100
C2411	C241	0.414700	0.937100	0.977400
H2421	H242	0.486000	0.909200	0.976600
C2431	C243	0.329400	0.956800	0.941700
H2441	H244	0.333500	0.944500	0.912300
C2451	C245	0.247950	0.036150	0.074130
C2461	C246	0.293700	0.949900	0.092870
H2471	H247	0.289700	0.893100	0.076100
C2481	C248	0.346840	0.946440	0.137350
H2491	H249	0.379900	0.885500	0.149900
C2501	C250	0.303450	0.110450	0.144150
H2511	H251	0.304600	0.168600	0.161900
C2521	C252	0.250460	0.119260	0.100500
H2531	H253	0.216400	0.182200	0.089100
In2541	In254	0.026740	0.088580	0.409830
N2551	N255	0.039570	0.945170	0.366730
N2561	N256	0.845200	0.179200	0.402190
N2571	N257	0.604910	0.990110	0.260570
N2581	N258	0.205010	0.996210	0.409840
N2591	N259	0.988490	0.150490	0.352460
N2601	N260	0.362790	0.023190	0.274600
N2611	N261	0.028470	0.080270	0.970500
N2621	N262	0.240220	0.995620	0.954490
N2631	N263	0.352400	0.025400	0.162330
P2641	P264	0.317890	0.334150	0.275140
F2651	F265	0.218380	0.433480	0.293390
F2661	F266	0.341190	0.400390	0.273350
F2671	F267	0.331500	0.292100	0.225260
F2681	F268	0.341280	0.231280	0.250060
F2691	F269	0.423870	0.322070	0.297630
F2701	F270	0.390550	0.251750	0.308020
Ag2711	Ag271	0.017280	0.532480	0.269510
C2721	C272	0.157130	0.864330	0.147040
H2731	H273	0.180900	0.790900	0.135800
C2741	C274	0.225100	0.885900	0.180330
H2751	H275	0.300400	0.831800	0.194700
C2761	C276	0.158920	0.001520	0.187430
H2771	H277	0.180400	0.042600	0.208400
C2781	C278	0.054220	0.049220	0.158540
C2791	C279	0.961930	0.164730	0.154940
C2801	C280	0.857060	0.213260	0.126650
C2811	C281	0.767940	0.330340	0.120680
H2821	H282	0.768200	0.390000	0.136000
C2831	C283	0.684200	0.339400	0.089420
H2841	H284	0.614500	0.406500	0.078300
C2851	C285	0.718690	0.232290	0.076410
H2861	H286	0.674200	0.216000	0.054600
C2871	C287	0.979050	0.243250	0.184240
C2881	C288	0.912850	0.327850	0.216510
H2891	H289	0.854900	0.336500	0.220300
C2901	C290	0.933090	0.399490	0.243050
H2911	H291	0.888400	0.455600	0.265400
C2921	C292	0.074500	0.312700	0.208030
H2931	H293	0.130600	0.307600	0.204800
C2941	C294	0.063010	0.237010	0.181030
H2951	H295	0.111600	0.179800	0.159900
C2961	C296	0.068600	0.705200	0.060400
H2971	H297	0.085100	0.709700	0.038000
C2981	C298	0.109300	0.603500	0.066400
H2991	H299	0.157400	0.529200	0.050000
C3001	C300	0.063600	0.635600	0.101400
H3011	H301	0.072800	0.586400	0.112800
C3021	C302	0.001870	0.751670	0.117390
C3031	C303	0.941290	0.818090	0.151740
C3041	C304	0.873040	0.935240	0.166600
C3051	C305	0.818200	0.001200	0.204510
H3061	H306	0.819700	0.972500	0.224000
C3071	C307	0.764700	0.110300	0.207640
H3081	H308	0.719700	0.172900	0.229000
C3091	C309	0.788000	0.114000	0.172940
H3101	H310	0.763300	0.180500	0.168300
C3111	C311	0.951080	0.755680	0.176800
C3121	C312	0.056770	0.673170	0.199640
H3131	H313	0.122900	0.655500	0.198800
C3141	C314	0.064600	0.617600	0.223400
H3151	H315	0.137000	0.562600	0.239100
C3161	C316	0.874900	0.715700	0.203300
H3171	H317	0.810500	0.730500	0.204200
C3181	C318	0.860400	0.776400	0.179130
H3191	H319	0.786900	0.832300	0.164300
C3201	C320	0.877670	0.070670	0.526970
H3211	H321	0.866700	0.127500	0.551800
C3221	C322	0.850730	0.083530	0.483420
H3231	H323	0.818100	0.148300	0.473700
C3241	C324	0.881460	0.982860	0.458160
H3251	H325	0.875700	0.963700	0.427200
C3261	C326	0.923580	0.911780	0.486340
C3271	C327	0.960900	0.803100	0.473540
C3281	C328	0.998240	0.730440	0.499950
C3291	C329	0.035500	0.621700	0.486100
H3301	H330	0.040800	0.580800	0.456900
C3311	C331	0.062900	0.585300	0.522600
H3321	H332	0.090800	0.514000	0.523400
C3331	C333	0.043200	0.670600	0.558300
H3341	H334	0.055500	0.666500	0.587700
C3351	C335	0.963850	0.752050	0.425870
C3361	C336	0.050100	0.706300	0.407130
H3371	H337	0.106900	0.710300	0.423900
C3381	C338	0.053560	0.653160	0.362650
H3391	H339	0.114500	0.620100	0.350100
C3401	C340	0.889550	0.696550	0.355850
H3411	H341	0.831400	0.695400	0.338100
C3421	C342	0.880740	0.749540	0.399500
H3431	H343	0.817800	0.783600	0.410900
In3441	In344	0.911420	0.973260	0.090170
N3451	N345	0.054830	0.960430	0.133270
N3461	N346	0.820800	0.154800	0.097810
N3471	N347	0.009890	0.395090	0.239430
N3481	N348	0.003790	0.794990	0.090160
N3491	N349	0.849510	0.011510	0.147540
N3501	N350	0.976810	0.637210	0.225400
N3511	N351	0.919730	0.971530	0.529500
N3521	N352	0.004380	0.759780	0.545510
N3531	N353	0.974600	0.647600	0.337670
P3541	P354	0.665850	0.682110	0.224860
F3551	F355	0.566520	0.781620	0.206610
F3561	F356	0.599610	0.658810	0.226650
F3571	F357	0.707900	0.668500	0.274740
F3581	F358	0.768720	0.658720	0.249940
F3591	F359	0.677930	0.576130	0.202370
F3601	F360	0.748250	0.609450	0.191980
