data_GIWCAR_ion_b_PM
_symmetry_space_group_name_H-M	'P1'
_cell_length_a	16.644100
_cell_length_b	16.644100
_cell_length_c	33.146000
_cell_angle_alpha	114.264800
_cell_angle_beta	114.264800
_cell_angle_gamma	45.440700
_symmetry_Int_Tables_number 1

loop_
_symmetry_equiv_pos_as_xyz
'x,y,z'

loop_
_atom_site_label
_atom_site_type_symbol
_atom_site_fract_x
_atom_site_fract_y
_atom_site_fract_z
Ag11	Ag1	0.011860	0.422140	0.226450
Ga21	Ga2	0.548000	0.582180	0.412390
C31	C3	0.673720	0.336720	0.360530
H41	H4	0.745300	0.320700	0.373200
C51	C5	0.659830	0.258230	0.327150
H61	H6	0.718300	0.182300	0.314100
C71	C7	0.545220	0.314020	0.317680
H81	H8	0.508500	0.284300	0.296100
C91	C9	0.490510	0.424310	0.345730
C101	C10	0.374020	0.510020	0.347960
C111	C11	0.320330	0.619330	0.375560
C121	C12	0.204250	0.702850	0.379880
H131	H13	0.146400	0.696000	0.364600
C141	C14	0.190040	0.797440	0.410670
H151	H15	0.121200	0.867600	0.420600
C161	C16	0.297540	0.768340	0.423960
H171	H17	0.312500	0.818100	0.444900
C181	C18	0.297030	0.483430	0.317500
C191	C19	0.307420	0.396220	0.321350
H201	H20	0.365000	0.351400	0.344000
C211	C21	0.234250	0.375050	0.292440
H221	H22	0.243800	0.314200	0.295400
C231	C23	0.141670	0.517670	0.256290
H241	H24	0.083500	0.560100	0.233100
C251	C25	0.211410	0.545610	0.283630
H261	H26	0.200900	0.605700	0.279300
C271	C27	0.430630	0.629430	0.972230
H281	H28	0.368600	0.647400	0.947400
C291	C29	0.425660	0.646660	0.017020
H301	H30	0.361700	0.677500	0.027300
C311	C31	0.530190	0.610590	0.042190
H321	H32	0.553200	0.611400	0.073700
C331	C33	0.599460	0.571260	0.013000
C341	C34	0.711290	0.531290	0.024160
C351	C35	0.774070	0.505470	0.996380
C361	C36	0.888240	0.463640	0.007540
H371	H37	0.937400	0.448600	0.036200
C381	C38	0.915020	0.448820	0.970020
H391	H39	0.985500	0.421900	0.967300
C401	C40	0.816220	0.481820	0.936080
H411	H41	0.810600	0.480200	0.906100
C421	C42	0.772830	0.514030	0.072370
C431	C43	0.798120	0.583920	0.101580
H441	H44	0.775600	0.645200	0.092300
C451	C45	0.857970	0.562370	0.145320
H461	H46	0.874400	0.611200	0.165800
C471	C47	0.867240	0.410440	0.130540
H481	H48	0.892000	0.348600	0.140300
C491	C49	0.806670	0.427070	0.087220
H501	H50	0.788800	0.378600	0.067900
C511	C51	0.412280	0.689480	0.329110
H521	H52	0.342800	0.720400	0.334800
C531	C53	0.420720	0.701520	0.291300
H541	H54	0.359500	0.742500	0.268200
C551	C55	0.534420	0.642420	0.294920
H561	H56	0.567700	0.632700	0.274100
C571	C57	0.593440	0.598640	0.334990
C581	C58	0.710980	0.534380	0.351950
C591	C59	0.769690	0.490490	0.391740
C601	C60	0.887810	0.431010	0.411080
H611	H61	0.943900	0.409900	0.398600
C621	C62	0.905820	0.410020	0.450720
H631	H63	0.976400	0.372800	0.471500
C641	C64	0.800580	0.453780	0.454820
H651	H65	0.789600	0.449000	0.479400
C661	C66	0.783210	0.508410	0.325010
C671	C67	0.860720	0.398120	0.303070
H681	H68	0.870900	0.336300	0.305400
C691	C69	0.922800	0.378800	0.277970
H701	H70	0.976600	0.302400	0.263500
C711	C71	0.837850	0.566050	0.292890
H721	H72	0.829500	0.625700	0.289500
C731	C73	0.769110	0.595510	0.319820
H741	H74	0.715400	0.672800	0.333700
N751	N75	0.574160	0.435560	0.371910
N761	N76	0.377450	0.662450	0.403900
N771	N77	0.151450	0.435050	0.260700
N781	N78	0.533430	0.584830	0.969220
N791	N79	0.731230	0.515830	0.951140
N801	N80	0.892530	0.476530	0.159330
N811	N81	0.514710	0.629110	0.355420
N821	N82	0.717440	0.503040	0.420550
N831	N83	0.911210	0.462010	0.272850
P841	P84	0.196730	0.129510	0.214170
F851	F85	0.200150	0.033750	0.211760
F861	F86	0.279010	0.052010	0.180310
F871	F87	0.084200	0.222600	0.197160
F881	F88	0.261950	0.141550	0.256540
Ag891	Ag89	0.577860	0.988140	0.273550
Ga901	Ga90	0.417820	0.452000	0.087610
C911	C91	0.663280	0.326280	0.139470
H921	H92	0.679300	0.254700	0.126800
C931	C93	0.741770	0.340170	0.172850
H941	H94	0.817700	0.281700	0.185900
C951	C95	0.685980	0.454780	0.182320
H961	H96	0.715700	0.491500	0.203900
C971	C97	0.575690	0.509490	0.154270
C981	C98	0.489980	0.625980	0.152040
C991	C99	0.380670	0.679670	0.124440
C1001	C100	0.297150	0.795750	0.120120
H1011	H101	0.304000	0.853600	0.135400
C1021	C102	0.202560	0.809960	0.089330
H1031	H103	0.132400	0.878800	0.079400
C1041	C104	0.231660	0.702460	0.076040
H1051	H105	0.181900	0.687500	0.055100
C1061	C106	0.516570	0.702970	0.182500
C1071	C107	0.603780	0.692580	0.178650
H1081	H108	0.648600	0.635000	0.156000
C1091	C109	0.624950	0.765750	0.207560
H1101	H110	0.685800	0.756200	0.204600
C1111	C111	0.482330	0.858330	0.243710
H1121	H112	0.439900	0.916500	0.266900
C1131	C113	0.454390	0.788590	0.216370
H1141	H114	0.394300	0.799100	0.220700
C1151	C115	0.370570	0.569370	0.527770
H1161	H116	0.352600	0.631400	0.552600
C1171	C117	0.353340	0.574340	0.482980
H1181	H118	0.322500	0.638300	0.472700
C1191	C119	0.389410	0.469810	0.457810
H1201	H120	0.388600	0.446800	0.426300
C1211	C121	0.428740	0.400540	0.487000
C1221	C122	0.468710	0.288710	0.475840
C1231	C123	0.494530	0.225930	0.503620
C1241	C124	0.536360	0.111760	0.492460
H1251	H125	0.551400	0.062600	0.463800
C1261	C126	0.551180	0.084980	0.529980
H1271	H127	0.578100	0.014500	0.532700
C1281	C128	0.518180	0.183780	0.563920
H1291	H129	0.519800	0.189400	0.593900
C1301	C130	0.485970	0.227170	0.427630
C1311	C131	0.416080	0.201880	0.398420
H1321	H132	0.354800	0.224400	0.407700
C1331	C133	0.437630	0.142030	0.354680
H1341	H134	0.388800	0.125600	0.334200
C1351	C135	0.589560	0.132760	0.369460
H1361	H136	0.651400	0.108000	0.359700
C1371	C137	0.572930	0.193330	0.412780
H1381	H138	0.621400	0.211200	0.432100
C1391	C139	0.310520	0.587720	0.170890
H1401	H140	0.279600	0.657200	0.165200
C1411	C141	0.298480	0.579280	0.208700
H1421	H142	0.257500	0.640500	0.231800
C1431	C143	0.357580	0.465580	0.205080
H1441	H144	0.367300	0.432300	0.225900
C1451	C145	0.401360	0.406560	0.165010
C1461	C146	0.465620	0.289020	0.148050
C1471	C147	0.509510	0.230310	0.108260
C1481	C148	0.568990	0.112190	0.088920
H1491	H149	0.590100	0.056100	0.101400
C1501	C150	0.589980	0.094180	0.049280
H1511	H151	0.627200	0.023600	0.028500
C1521	C152	0.546220	0.199420	0.045180
H1531	H153	0.551000	0.210400	0.020600
C1541	C154	0.491590	0.216790	0.174990
C1551	C155	0.601880	0.139280	0.196930
H1561	H156	0.663700	0.129100	0.194600
C1571	C157	0.621200	0.077200	0.222030
H1581	H158	0.697600	0.023400	0.236500
C1591	C159	0.433950	0.162150	0.207110
H1601	H160	0.374300	0.170500	0.210500
C1611	C161	0.404490	0.230890	0.180180
H1621	H162	0.327200	0.284600	0.166300
N1631	N163	0.564440	0.425840	0.128090
N1641	N164	0.337550	0.622550	0.096100
N1651	N165	0.564950	0.848550	0.239300
N1661	N166	0.415170	0.466570	0.530780
N1671	N167	0.484170	0.268770	0.548860
N1681	N168	0.523470	0.107470	0.340670
N1691	N169	0.370890	0.485290	0.144580
N1701	N170	0.496960	0.282560	0.079450
N1711	N171	0.537990	0.088790	0.227150
P1721	P172	0.870490	0.803270	0.285830
F1731	F173	0.966250	0.799850	0.288240
F1741	F174	0.947990	0.720990	0.319690
F1751	F175	0.777400	0.915800	0.302840
F1761	F176	0.858450	0.738050	0.243460
Ag1771	Ag177	0.988140	0.577860	0.773550
Ga1781	Ga178	0.452000	0.417820	0.587610
C1791	C179	0.326280	0.663280	0.639470
H1801	H180	0.254700	0.679300	0.626800
C1811	C181	0.340170	0.741770	0.672850
H1821	H182	0.281700	0.817700	0.685900
C1831	C183	0.454780	0.685980	0.682320
H1841	H184	0.491500	0.715700	0.703900
C1851	C185	0.509490	0.575690	0.654270
C1861	C186	0.625980	0.489980	0.652040
C1871	C187	0.679670	0.380670	0.624440
C1881	C188	0.795750	0.297150	0.620120
H1891	H189	0.853600	0.304000	0.635400
C1901	C190	0.809960	0.202560	0.589330
H1911	H191	0.878800	0.132400	0.579400
C1921	C192	0.702460	0.231660	0.576040
H1931	H193	0.687500	0.181900	0.555100
C1941	C194	0.702970	0.516570	0.682500
C1951	C195	0.692580	0.603780	0.678650
H1961	H196	0.635000	0.648600	0.656000
C1971	C197	0.765750	0.624950	0.707560
H1981	H198	0.756200	0.685800	0.704600
C1991	C199	0.858330	0.482330	0.743710
H2001	H200	0.916500	0.439900	0.766900
C2011	C201	0.788590	0.454390	0.716370
H2021	H202	0.799100	0.394300	0.720700
C2031	C203	0.569370	0.370570	0.027770
H2041	H204	0.631400	0.352600	0.052600
C2051	C205	0.574340	0.353340	0.982980
H2061	H206	0.638300	0.322500	0.972700
C2071	C207	0.469810	0.389410	0.957810
H2081	H208	0.446800	0.388600	0.926300
C2091	C209	0.400540	0.428740	0.987000
C2101	C210	0.288710	0.468710	0.975840
C2111	C211	0.225930	0.494530	0.003620
C2121	C212	0.111760	0.536360	0.992460
H2131	H213	0.062600	0.551400	0.963800
C2141	C214	0.084980	0.551180	0.029980
H2151	H215	0.014500	0.578100	0.032700
C2161	C216	0.183780	0.518180	0.063920
H2171	H217	0.189400	0.519800	0.093900
C2181	C218	0.227170	0.485970	0.927630
C2191	C219	0.201880	0.416080	0.898420
H2201	H220	0.224400	0.354800	0.907700
C2211	C221	0.142030	0.437630	0.854680
H2221	H222	0.125600	0.388800	0.834200
C2231	C223	0.132760	0.589560	0.869460
H2241	H224	0.108000	0.651400	0.859700
C2251	C225	0.193330	0.572930	0.912780
H2261	H226	0.211200	0.621400	0.932100
C2271	C227	0.587720	0.310520	0.670890
H2281	H228	0.657200	0.279600	0.665200
C2291	C229	0.579280	0.298480	0.708700
H2301	H230	0.640500	0.257500	0.731800
C2311	C231	0.465580	0.357580	0.705080
H2321	H232	0.432300	0.367300	0.725900
C2331	C233	0.406560	0.401360	0.665010
C2341	C234	0.289020	0.465620	0.648050
C2351	C235	0.230310	0.509510	0.608260
C2361	C236	0.112190	0.568990	0.588920
H2371	H237	0.056100	0.590100	0.601400
C2381	C238	0.094180	0.589980	0.549280
H2391	H239	0.023600	0.627200	0.528500
C2401	C240	0.199420	0.546220	0.545180
H2411	H241	0.210400	0.551000	0.520600
C2421	C242	0.216790	0.491590	0.674990
C2431	C243	0.139280	0.601880	0.696930
H2441	H244	0.129100	0.663700	0.694600
C2451	C245	0.077200	0.621200	0.722030
H2461	H246	0.023400	0.697600	0.736500
C2471	C247	0.162150	0.433950	0.707110
H2481	H248	0.170500	0.374300	0.710500
C2491	C249	0.230890	0.404490	0.680180
H2501	H250	0.284600	0.327200	0.666300
N2511	N251	0.425840	0.564440	0.628090
N2521	N252	0.622550	0.337550	0.596100
N2531	N253	0.848550	0.564950	0.739300
N2541	N254	0.466570	0.415170	0.030780
N2551	N255	0.268770	0.484170	0.048860
N2561	N256	0.107470	0.523470	0.840670
N2571	N257	0.485290	0.370890	0.644580
N2581	N258	0.282560	0.496960	0.579450
N2591	N259	0.088790	0.537990	0.727150
P2601	P260	0.803270	0.870490	0.785830
F2611	F261	0.799850	0.966250	0.788240
F2621	F262	0.720990	0.947990	0.819690
F2631	F263	0.915800	0.777400	0.802840
F2641	F264	0.738050	0.858450	0.743460
Ag2651	Ag265	0.422140	0.011860	0.726450
Ga2661	Ga266	0.582180	0.548000	0.912390
C2671	C267	0.336720	0.673720	0.860530
H2681	H268	0.320700	0.745300	0.873200
C2691	C269	0.258230	0.659830	0.827150
H2701	H270	0.182300	0.718300	0.814100
C2711	C271	0.314020	0.545220	0.817680
H2721	H272	0.284300	0.508500	0.796100
C2731	C273	0.424310	0.490510	0.845730
C2741	C274	0.510020	0.374020	0.847960
C2751	C275	0.619330	0.320330	0.875560
C2761	C276	0.702850	0.204250	0.879880
H2771	H277	0.696000	0.146400	0.864600
C2781	C278	0.797440	0.190040	0.910670
H2791	H279	0.867600	0.121200	0.920600
C2801	C280	0.768340	0.297540	0.923960
H2811	H281	0.818100	0.312500	0.944900
C2821	C282	0.483430	0.297030	0.817500
C2831	C283	0.396220	0.307420	0.821350
H2841	H284	0.351400	0.365000	0.844000
C2851	C285	0.375050	0.234250	0.792440
H2861	H286	0.314200	0.243800	0.795400
C2871	C287	0.517670	0.141670	0.756290
H2881	H288	0.560100	0.083500	0.733100
C2891	C289	0.545610	0.211410	0.783630
H2901	H290	0.605700	0.200900	0.779300
C2911	C291	0.629430	0.430630	0.472230
H2921	H292	0.647400	0.368600	0.447400
C2931	C293	0.646660	0.425660	0.517020
H2941	H294	0.677500	0.361700	0.527300
C2951	C295	0.610590	0.530190	0.542190
H2961	H296	0.611400	0.553200	0.573700
C2971	C297	0.571260	0.599460	0.513000
C2981	C298	0.531290	0.711290	0.524160
C2991	C299	0.505470	0.774070	0.496380
C3001	C300	0.463640	0.888240	0.507540
H3011	H301	0.448600	0.937400	0.536200
C3021	C302	0.448820	0.915020	0.470020
H3031	H303	0.421900	0.985500	0.467300
C3041	C304	0.481820	0.816220	0.436080
H3051	H305	0.480200	0.810600	0.406100
C3061	C306	0.514030	0.772830	0.572370
C3071	C307	0.583920	0.798120	0.601580
H3081	H308	0.645200	0.775600	0.592300
C3091	C309	0.562370	0.857970	0.645320
H3101	H310	0.611200	0.874400	0.665800
C3111	C311	0.410440	0.867240	0.630540
H3121	H312	0.348600	0.892000	0.640300
C3131	C313	0.427070	0.806670	0.587220
H3141	H314	0.378600	0.788800	0.567900
C3151	C315	0.689480	0.412280	0.829110
H3161	H316	0.720400	0.342800	0.834800
C3171	C317	0.701520	0.420720	0.791300
H3181	H318	0.742500	0.359500	0.768200
C3191	C319	0.642420	0.534420	0.794920
H3201	H320	0.632700	0.567700	0.774100
C3211	C321	0.598640	0.593440	0.834990
C3221	C322	0.534380	0.710980	0.851950
C3231	C323	0.490490	0.769690	0.891740
C3241	C324	0.431010	0.887810	0.911080
H3251	H325	0.409900	0.943900	0.898600
C3261	C326	0.410020	0.905820	0.950720
H3271	H327	0.372800	0.976400	0.971500
C3281	C328	0.453780	0.800580	0.954820
H3291	H329	0.449000	0.789600	0.979400
C3301	C330	0.508410	0.783210	0.825010
C3311	C331	0.398120	0.860720	0.803070
H3321	H332	0.336300	0.870900	0.805400
C3331	C333	0.378800	0.922800	0.777970
H3341	H334	0.302400	0.976600	0.763500
C3351	C335	0.566050	0.837850	0.792890
H3361	H336	0.625700	0.829500	0.789500
C3371	C337	0.595510	0.769110	0.819820
H3381	H338	0.672800	0.715400	0.833700
N3391	N339	0.435560	0.574160	0.871910
N3401	N340	0.662450	0.377450	0.903900
N3411	N341	0.435050	0.151450	0.760700
N3421	N342	0.584830	0.533430	0.469220
N3431	N343	0.515830	0.731230	0.451140
N3441	N344	0.476530	0.892530	0.659330
N3451	N345	0.629110	0.514710	0.855420
N3461	N346	0.503040	0.717440	0.920550
N3471	N347	0.462010	0.911210	0.772850
P3481	P348	0.129510	0.196730	0.714170
F3491	F349	0.033750	0.200150	0.711760
F3501	F350	0.052010	0.279010	0.680310
F3511	F351	0.222600	0.084200	0.697160
F3521	F352	0.141550	0.261950	0.756540
