data_GIZJOP_clean_PM
_symmetry_space_group_name_H-M	'P1'
_cell_length_a	15.662000
_cell_length_b	15.662100
_cell_length_c	18.207300
_cell_angle_alpha	90.000000
_cell_angle_beta	90.000000
_cell_angle_gamma	90.000000
_symmetry_Int_Tables_number 1

loop_
_symmetry_equiv_pos_as_xyz
'x,y,z'

loop_
_atom_site_label
_atom_site_type_symbol
_atom_site_fract_x
_atom_site_fract_y
_atom_site_fract_z
Zn11	Zn1	0.696570	0.860790	0.403410
Zn21	Zn2	0.502570	0.835010	0.683290
Zn31	Zn3	0.803430	0.139210	0.903410
Zn41	Zn4	0.997430	0.164990	0.183290
Zn51	Zn5	0.303430	0.360790	0.096590
Zn61	Zn6	0.497430	0.335010	0.816710
Zn71	Zn7	0.196570	0.639210	0.596590
Zn81	Zn8	0.002570	0.664990	0.316710
Zn91	Zn9	0.303430	0.139210	0.596590
Zn101	Zn10	0.497430	0.164990	0.316710
Zn111	Zn11	0.196570	0.860790	0.096590
Zn121	Zn12	0.002570	0.835010	0.816710
Zn131	Zn13	0.696570	0.639210	0.903410
Zn141	Zn14	0.502570	0.664990	0.183290
Zn151	Zn15	0.803430	0.360790	0.403410
Zn161	Zn16	0.997430	0.335010	0.683290
H11	H1	0.890500	0.940000	0.420900
H21	H2	0.019400	0.858500	0.388500
H31	H3	0.637200	0.663700	0.431900
H41	H4	0.730400	0.961300	0.252000
H51	H5	0.765200	0.938900	0.558300
H61	H6	0.556600	0.818100	0.517800
H71	H7	0.684200	0.927100	0.671500
H81	H8	0.589800	0.812400	0.268100
H91	H9	0.558300	0.583200	0.339600
H101	H10	0.639500	0.074900	0.208000
H111	H11	0.567500	0.012600	0.404300
H121	H12	0.817500	0.719100	0.347700
H131	H13	0.609500	0.060000	0.920900
H141	H14	0.480600	0.141500	0.888500
H151	H15	0.862800	0.336300	0.931900
H161	H16	0.769600	0.038700	0.752000
H171	H17	0.734800	0.061100	0.058300
H181	H18	0.943400	0.181900	0.017800
H191	H19	0.815800	0.072900	0.171500
H201	H20	0.910200	0.187600	0.768100
H211	H21	0.941700	0.416800	0.839600
H221	H22	0.860500	0.925100	0.708000
H231	H23	0.932500	0.987400	0.904300
H241	H24	0.682500	0.280900	0.847700
H251	H25	0.109500	0.440000	0.079100
H261	H26	0.980600	0.358500	0.111500
H271	H27	0.362800	0.163700	0.068100
H281	H28	0.269600	0.461300	0.248000
H291	H29	0.234800	0.438900	0.941700
H301	H30	0.443400	0.318100	0.982200
H311	H31	0.315800	0.427100	0.828500
H321	H32	0.410200	0.312400	0.231900
H331	H33	0.441700	0.083200	0.160400
H341	H34	0.360500	0.574900	0.292000
H351	H35	0.432500	0.512600	0.095700
H361	H36	0.182500	0.219100	0.152300
H371	H37	0.390500	0.560000	0.579100
H381	H38	0.519400	0.641500	0.611500
H391	H39	0.137200	0.836300	0.568100
H401	H40	0.230400	0.538700	0.748000
H411	H41	0.265200	0.561100	0.441700
H421	H42	0.056600	0.681900	0.482200
H431	H43	0.184200	0.572900	0.328500
H441	H44	0.089800	0.687600	0.731900
H451	H45	0.058300	0.916800	0.660400
H461	H46	0.139500	0.425100	0.792000
H471	H47	0.067500	0.487400	0.595700
H481	H48	0.317500	0.780900	0.652300
H491	H49	0.109500	0.060000	0.579100
H501	H50	0.980600	0.141500	0.611500
H511	H51	0.362800	0.336300	0.568100
H521	H52	0.269600	0.038700	0.748000
H531	H53	0.234800	0.061100	0.441700
H541	H54	0.443400	0.181900	0.482200
H551	H55	0.315800	0.072900	0.328500
H561	H56	0.410200	0.187600	0.731900
H571	H57	0.441700	0.416800	0.660400
H581	H58	0.360500	0.925100	0.792000
H591	H59	0.432500	0.987400	0.595700
H601	H60	0.182500	0.280900	0.652300
H611	H61	0.390500	0.940000	0.079100
H621	H62	0.519400	0.858500	0.111500
H631	H63	0.137200	0.663700	0.068100
H641	H64	0.230400	0.961300	0.248000
H651	H65	0.265200	0.938900	0.941700
H661	H66	0.056600	0.818100	0.982200
H671	H67	0.184200	0.927100	0.828500
H681	H68	0.089800	0.812400	0.231900
H691	H69	0.058300	0.583200	0.160400
H701	H70	0.139500	0.074900	0.292000
H711	H71	0.067500	0.012600	0.095700
H721	H72	0.317500	0.719100	0.152300
H731	H73	0.890500	0.560000	0.920900
H741	H74	0.019400	0.641500	0.888500
H751	H75	0.637200	0.836300	0.931900
H761	H76	0.730400	0.538700	0.752000
H771	H77	0.765200	0.561100	0.058300
H781	H78	0.556600	0.681900	0.017800
H791	H79	0.684200	0.572900	0.171500
H801	H80	0.589800	0.687600	0.768100
H811	H81	0.558300	0.916800	0.839600
H821	H82	0.639500	0.425100	0.708000
H831	H83	0.567500	0.487400	0.904300
H841	H84	0.817500	0.780900	0.847700
H851	H85	0.609500	0.440000	0.420900
H861	H86	0.480600	0.358500	0.388500
H871	H87	0.862800	0.163700	0.431900
H881	H88	0.769600	0.461300	0.252000
H891	H89	0.734800	0.438900	0.558300
H901	H90	0.943400	0.318100	0.517800
H911	H91	0.815800	0.427100	0.671500
H921	H92	0.910200	0.312400	0.268100
H931	H93	0.941700	0.083200	0.339600
H941	H94	0.860500	0.574900	0.208000
H951	H95	0.932500	0.512600	0.404300
H961	H96	0.682500	0.219100	0.347700
C11	C1	0.890900	0.885100	0.401400
C21	C2	0.963300	0.840000	0.382800
C31	C3	0.618400	0.684600	0.387000
C41	C4	0.685700	0.985700	0.278300
C51	C5	0.712000	0.913000	0.563000
C61	C6	0.599300	0.848200	0.542200
C71	C7	0.667100	0.906300	0.626000
C81	C8	0.592000	0.764200	0.297800
C91	C9	0.574300	0.640200	0.335900
C101	C10	0.636300	0.049300	0.253900
C111	C11	0.597800	0.014700	0.360400
C121	C12	0.851700	0.765200	0.360900
C131	C13	0.609100	0.114900	0.901400
C141	C14	0.536700	0.160000	0.882800
C151	C15	0.881600	0.315400	0.887000
C161	C16	0.814300	0.014300	0.778300
C171	C17	0.788000	0.087000	0.063000
C181	C18	0.900700	0.151800	0.042200
C191	C19	0.832900	0.093700	0.126000
C201	C20	0.908000	0.235800	0.797800
C211	C21	0.925700	0.359800	0.835900
C221	C22	0.863700	0.950700	0.753900
C231	C23	0.902200	0.985300	0.860400
C241	C24	0.648300	0.234800	0.860900
C251	C25	0.109100	0.385100	0.098600
C261	C26	0.036700	0.340000	0.117200
C271	C27	0.381600	0.184600	0.113000
C281	C28	0.314300	0.485700	0.221700
C291	C29	0.288000	0.413000	0.937000
C301	C30	0.400700	0.348200	0.957800
C311	C31	0.332900	0.406300	0.874000
C321	C32	0.408000	0.264200	0.202200
C331	C33	0.425700	0.140200	0.164100
C341	C34	0.363700	0.549300	0.246100
C351	C35	0.402200	0.514700	0.139600
C361	C36	0.148300	0.265200	0.139100
C371	C37	0.390900	0.614900	0.598600
C381	C38	0.463300	0.660000	0.617200
C391	C39	0.118400	0.815400	0.613000
C401	C40	0.185700	0.514300	0.721700
C411	C41	0.212000	0.587000	0.437000
C421	C42	0.099300	0.651800	0.457800
C431	C43	0.167100	0.593700	0.374000
C441	C44	0.092000	0.735800	0.702200
C451	C45	0.074300	0.859800	0.664100
C461	C46	0.136300	0.450700	0.746100
C471	C47	0.097800	0.485300	0.639600
C481	C48	0.351700	0.734800	0.639100
C491	C49	0.109100	0.114900	0.598600
C501	C50	0.036700	0.160000	0.617200
C511	C51	0.381600	0.315400	0.613000
C521	C52	0.314300	0.014300	0.721700
C531	C53	0.288000	0.087000	0.437000
C541	C54	0.400700	0.151800	0.457800
C551	C55	0.332900	0.093700	0.374000
C561	C56	0.408000	0.235800	0.702200
C571	C57	0.425700	0.359800	0.664100
C581	C58	0.363700	0.950700	0.746100
C591	C59	0.402200	0.985300	0.639600
C601	C60	0.148300	0.234800	0.639100
C611	C61	0.390900	0.885100	0.098600
C621	C62	0.463300	0.840000	0.117200
C631	C63	0.118400	0.684600	0.113000
C641	C64	0.185700	0.985700	0.221700
C651	C65	0.212000	0.913000	0.937000
C661	C66	0.099300	0.848200	0.957800
C671	C67	0.167100	0.906300	0.874000
C681	C68	0.092000	0.764200	0.202200
C691	C69	0.074300	0.640200	0.164100
C701	C70	0.136300	0.049300	0.246100
C711	C71	0.097800	0.014700	0.139600
C721	C72	0.351700	0.765200	0.139100
C731	C73	0.890900	0.614900	0.901400
C741	C74	0.963300	0.660000	0.882800
C751	C75	0.618400	0.815400	0.887000
C761	C76	0.685700	0.514300	0.778300
C771	C77	0.712000	0.587000	0.063000
C781	C78	0.599300	0.651800	0.042200
C791	C79	0.667100	0.593700	0.126000
C801	C80	0.592000	0.735800	0.797800
C811	C81	0.574300	0.859800	0.835900
C821	C82	0.636300	0.450700	0.753900
C831	C83	0.597800	0.485300	0.860400
C841	C84	0.851700	0.734800	0.860900
C851	C85	0.609100	0.385100	0.401400
C861	C86	0.536700	0.340000	0.382800
C871	C87	0.881600	0.184600	0.387000
C881	C88	0.814300	0.485700	0.278300
C891	C89	0.788000	0.413000	0.563000
C901	C90	0.900700	0.348200	0.542200
C911	C91	0.832900	0.406300	0.626000
C921	C92	0.908000	0.264200	0.297800
C931	C93	0.925700	0.140200	0.335900
C941	C94	0.863700	0.549300	0.253900
C951	C95	0.902200	0.514700	0.360400
C961	C96	0.648300	0.265200	0.360900
N11	N1	0.819900	0.837300	0.387000
N21	N2	0.630200	0.763800	0.361800
N31	N3	0.661500	0.962000	0.345800
N41	N4	0.667700	0.876200	0.507700
N51	N5	0.594300	0.864800	0.612400
N61	N6	0.557400	0.692100	0.279100
N71	N7	0.580200	0.070100	0.308500
N81	N8	0.936300	0.763600	0.354900
N91	N9	0.680100	0.162700	0.887000
N101	N10	0.869800	0.236200	0.861800
N111	N11	0.838500	0.038000	0.845800
N121	N12	0.832300	0.123800	0.007700
N131	N13	0.905700	0.135200	0.112400
N141	N14	0.942600	0.307900	0.779100
N151	N15	0.919800	0.929900	0.808500
N161	N16	0.563700	0.236400	0.854900
N171	N17	0.180100	0.337300	0.113000
N181	N18	0.369800	0.263800	0.138200
N191	N19	0.338500	0.462000	0.154200
N201	N20	0.332300	0.376200	0.992300
N211	N21	0.405700	0.364800	0.887600
N221	N22	0.442600	0.192100	0.220900
N231	N23	0.419800	0.570100	0.191500
N241	N24	0.063700	0.263600	0.145100
N251	N25	0.319900	0.662700	0.613000
N261	N26	0.130200	0.736200	0.638200
N271	N27	0.161500	0.538000	0.654200
N281	N28	0.167700	0.623800	0.492300
N291	N29	0.094300	0.635200	0.387600
N301	N30	0.057400	0.807900	0.720900
N311	N31	0.080200	0.429900	0.691500
N321	N32	0.436300	0.736400	0.645100
N331	N33	0.180100	0.162700	0.613000
N341	N34	0.369800	0.236200	0.638200
N351	N35	0.338500	0.038000	0.654200
N361	N36	0.332300	0.123800	0.492300
N371	N37	0.405700	0.135200	0.387600
N381	N38	0.442600	0.307900	0.720900
N391	N39	0.419800	0.929900	0.691500
N401	N40	0.063700	0.236400	0.645100
N411	N41	0.319900	0.837300	0.113000
N421	N42	0.130200	0.763800	0.138200
N431	N43	0.161500	0.962000	0.154200
N441	N44	0.167700	0.876200	0.992300
N451	N45	0.094300	0.864800	0.887600
N461	N46	0.057400	0.692100	0.220900
N471	N47	0.080200	0.070100	0.191500
N481	N48	0.436300	0.763600	0.145100
N491	N49	0.819900	0.662700	0.887000
N501	N50	0.630200	0.736200	0.861800
N511	N51	0.661500	0.538000	0.845800
N521	N52	0.667700	0.623800	0.007700
N531	N53	0.594300	0.635200	0.112400
N541	N54	0.557400	0.807900	0.779100
N551	N55	0.580200	0.429900	0.808500
N561	N56	0.936300	0.736400	0.854900
N571	N57	0.680100	0.337300	0.387000
N581	N58	0.869800	0.263800	0.361800
N591	N59	0.838500	0.462000	0.345800
N601	N60	0.832300	0.376200	0.507700
N611	N61	0.905700	0.364800	0.612400
N621	N62	0.942600	0.192100	0.279100
N631	N63	0.919800	0.570100	0.308500
N641	N64	0.563700	0.263600	0.354900
