data_GIZXET_clean_PM
_symmetry_space_group_name_H-M	'P1'
_cell_length_a	16.442000
_cell_length_b	17.697000
_cell_length_c	27.528000
_cell_angle_alpha	90.000000
_cell_angle_beta	90.000000
_cell_angle_gamma	90.000000
_symmetry_Int_Tables_number 1

loop_
_symmetry_equiv_pos_as_xyz
'x,y,z'

loop_
_atom_site_label
_atom_site_type_symbol
_atom_site_fract_x
_atom_site_fract_y
_atom_site_fract_z
Zn11	Zn1	0.513870	0.249180	0.384130
O11	O1	0.616040	0.250930	0.347890
O21	O2	0.589260	0.145900	0.305300
O31	O3	0.915030	0.219980	0.151650
O41	O4	0.952490	0.315890	0.198720
O51	O5	0.515200	0.348400	0.414330
O61	O6	0.385900	0.344800	0.439570
O71	O7	0.508730	0.173420	0.434830
O81	O8	0.635310	0.158740	0.462070
C11	C1	0.629110	0.203480	0.313940
C21	C2	0.701280	0.220830	0.282070
C31	C3	0.778480	0.198260	0.297220
C41	C4	0.792420	0.163910	0.343880
H11	H1	0.747800	0.154600	0.365000
C51	C5	0.868530	0.144670	0.358020
H21	H2	0.876800	0.123100	0.389200
C61	C6	0.935860	0.156210	0.326930
H31	H3	0.988800	0.141900	0.337300
C71	C7	0.925360	0.187700	0.282320
H41	H4	0.971000	0.194200	0.261600
C81	C8	0.847070	0.211180	0.266130
C91	C9	0.834700	0.246570	0.221050
C101	C10	0.757780	0.270260	0.206210
C111	C11	0.744710	0.308820	0.160940
H51	H5	0.789000	0.315900	0.139200
C121	C12	0.670210	0.335180	0.148800
H61	H6	0.662600	0.360400	0.118700
C131	C13	0.603260	0.325470	0.180830
H71	H7	0.551500	0.345300	0.172200
C141	C14	0.612370	0.288230	0.223620
H81	H8	0.566800	0.282100	0.244500
C151	C15	0.689320	0.258240	0.237700
C161	C16	0.906340	0.263130	0.188990
C171	C17	0.455140	0.371640	0.439380
C181	C18	0.476410	0.438210	0.471220
C191	C19	0.522710	0.425590	0.513110
C201	C20	0.547750	0.351480	0.527570
H91	H9	0.533200	0.309300	0.508100
C211	C21	0.591970	0.340250	0.568610
H101	H10	0.607900	0.290500	0.577500
C221	C22	0.614470	0.402460	0.598300
H111	H11	0.644600	0.393900	0.627200
C231	C23	0.593240	0.474200	0.585680
H121	H12	0.609300	0.515300	0.605700
C241	C24	0.452910	0.511560	0.457400
C251	C25	0.563900	0.139080	0.458080
C261	C26	0.533970	0.066550	0.481000
C271	C27	0.490420	0.069570	0.524570
C281	C28	0.478510	0.138790	0.550740
H131	H13	0.500500	0.184400	0.538100
C291	C29	0.436710	0.140580	0.593080
H141	H14	0.429000	0.187200	0.609600
C301	C30	0.404340	0.072940	0.612890
H151	H15	0.375900	0.074600	0.642900
C311	C31	0.413400	0.006000	0.589510
H161	H16	0.391200	0.961400	0.603400
C321	C32	0.544020	0.998550	0.455860
Zn21	Zn2	0.986130	0.750830	0.884130
O91	O9	0.883960	0.749070	0.847890
O101	O10	0.910740	0.854100	0.805300
O111	O11	0.584970	0.780020	0.651650
O121	O12	0.547510	0.684110	0.698720
O131	O13	0.984800	0.651600	0.914330
O141	O14	0.114100	0.655200	0.939570
O151	O15	0.991270	0.826580	0.934830
O161	O16	0.864690	0.841260	0.962070
C331	C33	0.870890	0.796520	0.813940
C341	C34	0.798720	0.779170	0.782070
C351	C35	0.721520	0.801740	0.797220
C361	C36	0.707580	0.836090	0.843880
H171	H17	0.752200	0.845400	0.865000
C371	C37	0.631470	0.855330	0.858020
H181	H18	0.623200	0.876900	0.889200
C381	C38	0.564140	0.843790	0.826930
H191	H19	0.511200	0.858100	0.837300
C391	C39	0.574640	0.812300	0.782320
H201	H20	0.529000	0.805800	0.761600
C401	C40	0.652930	0.788820	0.766130
C411	C41	0.665300	0.753430	0.721050
C421	C42	0.742220	0.729740	0.706210
C431	C43	0.755290	0.691180	0.660940
H211	H21	0.711000	0.684100	0.639200
C441	C44	0.829790	0.664820	0.648800
H221	H22	0.837400	0.639600	0.618700
C451	C45	0.896740	0.674530	0.680830
H231	H23	0.948500	0.654700	0.672200
C461	C46	0.887630	0.711770	0.723620
H241	H24	0.933200	0.717900	0.744500
C471	C47	0.810680	0.741760	0.737700
C481	C48	0.593660	0.736870	0.688990
C491	C49	0.044860	0.628360	0.939380
C501	C50	0.023590	0.561790	0.971220
C511	C51	0.977290	0.574410	0.013110
C521	C52	0.952250	0.648520	0.027570
H251	H25	0.966800	0.690700	0.008100
C531	C53	0.908030	0.659750	0.068610
H261	H26	0.892100	0.709500	0.077500
C541	C54	0.885530	0.597540	0.098300
H271	H27	0.855400	0.606100	0.127200
C551	C55	0.906760	0.525800	0.085680
H281	H28	0.890700	0.484700	0.105700
C561	C56	0.047090	0.488440	0.957400
C571	C57	0.936100	0.860920	0.958080
C581	C58	0.966030	0.933450	0.981000
C591	C59	0.009580	0.930430	0.024570
C601	C60	0.021490	0.861210	0.050740
H291	H29	0.999500	0.815600	0.038100
C611	C61	0.063290	0.859420	0.093080
H301	H30	0.071000	0.812800	0.109600
C621	C62	0.095660	0.927060	0.112890
H311	H31	0.124100	0.925400	0.142900
C631	C63	0.086600	0.994000	0.089510
H321	H32	0.108800	0.038600	0.103400
C641	C64	0.955980	0.001450	0.955860
Zn31	Zn3	0.486130	0.750830	0.615870
O171	O17	0.383960	0.749070	0.652110
O181	O18	0.410740	0.854100	0.694700
O191	O19	0.084970	0.780020	0.848350
O201	O20	0.047510	0.684110	0.801280
O211	O21	0.484800	0.651600	0.585670
O221	O22	0.614100	0.655200	0.560430
O231	O23	0.491270	0.826580	0.565170
O241	O24	0.364690	0.841260	0.537930
C651	C65	0.370890	0.796520	0.686060
C661	C66	0.298720	0.779170	0.717930
C671	C67	0.221520	0.801740	0.702780
C681	C68	0.207580	0.836090	0.656120
H331	H33	0.252200	0.845400	0.635000
C691	C69	0.131470	0.855330	0.641980
H341	H34	0.123200	0.876900	0.610800
C701	C70	0.064140	0.843790	0.673070
H351	H35	0.011200	0.858100	0.662700
C711	C71	0.074640	0.812300	0.717680
H361	H36	0.029000	0.805800	0.738400
C721	C72	0.152930	0.788820	0.733870
C731	C73	0.165300	0.753430	0.778950
C741	C74	0.242220	0.729740	0.793790
C751	C75	0.255290	0.691180	0.839060
H371	H37	0.211000	0.684100	0.860800
C761	C76	0.329790	0.664820	0.851200
H381	H38	0.337400	0.639600	0.881300
C771	C77	0.396740	0.674530	0.819170
H391	H39	0.448500	0.654700	0.827800
C781	C78	0.387630	0.711770	0.776380
H401	H40	0.433200	0.717900	0.755500
C791	C79	0.310680	0.741760	0.762300
C801	C80	0.093660	0.736870	0.811010
C811	C81	0.544860	0.628360	0.560620
C821	C82	0.523590	0.561790	0.528780
C831	C83	0.477290	0.574410	0.486890
C841	C84	0.452250	0.648520	0.472430
H411	H41	0.466800	0.690700	0.491900
C851	C85	0.408030	0.659750	0.431390
H421	H42	0.392100	0.709500	0.422500
C861	C86	0.385530	0.597540	0.401700
H431	H43	0.355400	0.606100	0.372800
C871	C87	0.406760	0.525800	0.414320
H441	H44	0.390700	0.484700	0.394300
C881	C88	0.547090	0.488440	0.542600
C891	C89	0.436100	0.860920	0.541920
C901	C90	0.466030	0.933450	0.519000
C911	C91	0.509580	0.930430	0.475430
C921	C92	0.521490	0.861210	0.449260
H451	H45	0.499500	0.815600	0.461900
C931	C93	0.563290	0.859420	0.406920
H461	H46	0.571000	0.812800	0.390400
C941	C94	0.595660	0.927060	0.387110
H471	H47	0.624100	0.925400	0.357100
C951	C95	0.586600	0.994000	0.410490
H481	H48	0.608800	0.038600	0.396600
C961	C96	0.455980	0.001450	0.544140
Zn41	Zn4	0.013870	0.249180	0.115870
O251	O25	0.116040	0.250930	0.152110
O261	O26	0.089260	0.145900	0.194700
O271	O27	0.415030	0.219980	0.348350
O281	O28	0.452490	0.315890	0.301280
O291	O29	0.015200	0.348400	0.085670
O301	O30	0.885900	0.344800	0.060430
O311	O31	0.008730	0.173420	0.065170
O321	O32	0.135310	0.158740	0.037930
C971	C97	0.129110	0.203480	0.186060
C981	C98	0.201280	0.220830	0.217930
C991	C99	0.278480	0.198260	0.202780
C1001	C100	0.292420	0.163910	0.156120
H491	H49	0.247800	0.154600	0.135000
C1011	C101	0.368530	0.144670	0.141980
H501	H50	0.376800	0.123100	0.110800
C1021	C102	0.435860	0.156210	0.173070
H511	H51	0.488800	0.141900	0.162700
C1031	C103	0.425360	0.187700	0.217680
H521	H52	0.471000	0.194200	0.238400
C1041	C104	0.347070	0.211180	0.233870
C1051	C105	0.334700	0.246570	0.278950
C1061	C106	0.257780	0.270260	0.293790
C1071	C107	0.244710	0.308820	0.339060
H531	H53	0.289000	0.315900	0.360800
C1081	C108	0.170210	0.335180	0.351200
H541	H54	0.162600	0.360400	0.381300
C1091	C109	0.103260	0.325470	0.319170
H551	H55	0.051500	0.345300	0.327800
C1101	C110	0.112370	0.288230	0.276380
H561	H56	0.066800	0.282100	0.255500
C1111	C111	0.189320	0.258240	0.262300
C1121	C112	0.406340	0.263130	0.311010
C1131	C113	0.955140	0.371640	0.060620
C1141	C114	0.976410	0.438210	0.028780
C1151	C115	0.022710	0.425590	0.986890
C1161	C116	0.047750	0.351480	0.972430
H571	H57	0.033200	0.309300	0.991900
C1171	C117	0.091970	0.340250	0.931390
H581	H58	0.107900	0.290500	0.922500
C1181	C118	0.114470	0.402460	0.901700
H591	H59	0.144600	0.393900	0.872800
C1191	C119	0.093240	0.474200	0.914320
H601	H60	0.109300	0.515300	0.894300
C1201	C120	0.952910	0.511560	0.042600
C1211	C121	0.063900	0.139080	0.041920
C1221	C122	0.033970	0.066550	0.019000
C1231	C123	0.990420	0.069570	0.975430
C1241	C124	0.978510	0.138790	0.949260
H611	H61	0.000500	0.184400	0.961900
C1251	C125	0.936710	0.140580	0.906920
H621	H62	0.929000	0.187200	0.890400
C1261	C126	0.904340	0.072940	0.887110
H631	H63	0.875900	0.074600	0.857100
C1271	C127	0.913400	0.006000	0.910490
H641	H64	0.891200	0.961400	0.896600
C1281	C128	0.044020	0.998550	0.044140
Zn51	Zn5	0.486130	0.749180	0.115870
O331	O33	0.383960	0.750930	0.152110
O341	O34	0.410740	0.645900	0.194700
O351	O35	0.084970	0.719980	0.348350
O361	O36	0.047510	0.815890	0.301280
O371	O37	0.484800	0.848400	0.085670
O381	O38	0.614100	0.844800	0.060430
O391	O39	0.491270	0.673420	0.065170
O401	O40	0.364690	0.658740	0.037930
C1291	C129	0.370890	0.703480	0.186060
C1301	C130	0.298720	0.720830	0.217930
C1311	C131	0.221520	0.698260	0.202780
C1321	C132	0.207580	0.663910	0.156120
H651	H65	0.252200	0.654600	0.135000
C1331	C133	0.131470	0.644670	0.141980
H661	H66	0.123200	0.623100	0.110800
C1341	C134	0.064140	0.656210	0.173070
H671	H67	0.011200	0.641900	0.162700
C1351	C135	0.074640	0.687700	0.217680
H681	H68	0.029000	0.694200	0.238400
C1361	C136	0.152930	0.711180	0.233870
C1371	C137	0.165300	0.746570	0.278950
C1381	C138	0.242220	0.770260	0.293790
C1391	C139	0.255290	0.808820	0.339060
H691	H69	0.211000	0.815900	0.360800
C1401	C140	0.329790	0.835180	0.351200
H701	H70	0.337400	0.860400	0.381300
C1411	C141	0.396740	0.825470	0.319170
H711	H71	0.448500	0.845300	0.327800
C1421	C142	0.387630	0.788230	0.276380
H721	H72	0.433200	0.782100	0.255500
C1431	C143	0.310680	0.758240	0.262300
C1441	C144	0.093660	0.763130	0.311010
C1451	C145	0.544860	0.871640	0.060620
C1461	C146	0.523590	0.938210	0.028780
C1471	C147	0.477290	0.925590	0.986890
C1481	C148	0.452250	0.851480	0.972430
H731	H73	0.466800	0.809300	0.991900
C1491	C149	0.408030	0.840250	0.931390
H741	H74	0.392100	0.790500	0.922500
C1501	C150	0.385530	0.902460	0.901700
H751	H75	0.355400	0.893900	0.872800
C1511	C151	0.406760	0.974200	0.914320
H761	H76	0.390700	0.015300	0.894300
C1521	C152	0.547090	0.011560	0.042600
C1531	C153	0.436100	0.639080	0.041920
C1541	C154	0.466030	0.566550	0.019000
C1551	C155	0.509580	0.569570	0.975430
C1561	C156	0.521490	0.638790	0.949260
H771	H77	0.499500	0.684400	0.961900
C1571	C157	0.563290	0.640580	0.906920
H781	H78	0.571000	0.687200	0.890400
C1581	C158	0.595660	0.572940	0.887110
H791	H79	0.624100	0.574600	0.857100
C1591	C159	0.586600	0.506000	0.910490
H801	H80	0.608800	0.461400	0.896600
C1601	C160	0.455980	0.498550	0.044140
Zn61	Zn6	0.013870	0.250820	0.615870
O411	O41	0.116040	0.249070	0.652110
O421	O42	0.089260	0.354100	0.694700
O431	O43	0.415030	0.280020	0.848350
O441	O44	0.452490	0.184110	0.801280
O451	O45	0.015200	0.151600	0.585670
O461	O46	0.885900	0.155200	0.560430
O471	O47	0.008730	0.326580	0.565170
O481	O48	0.135310	0.341260	0.537930
C1611	C161	0.129110	0.296520	0.686060
C1621	C162	0.201280	0.279170	0.717930
C1631	C163	0.278480	0.301740	0.702780
C1641	C164	0.292420	0.336090	0.656120
H811	H81	0.247800	0.345400	0.635000
C1651	C165	0.368530	0.355330	0.641980
H821	H82	0.376800	0.376900	0.610800
C1661	C166	0.435860	0.343790	0.673070
H831	H83	0.488800	0.358100	0.662700
C1671	C167	0.425360	0.312300	0.717680
H841	H84	0.471000	0.305800	0.738400
C1681	C168	0.347070	0.288820	0.733870
C1691	C169	0.334700	0.253430	0.778950
C1701	C170	0.257780	0.229740	0.793790
C1711	C171	0.244710	0.191180	0.839060
H851	H85	0.289000	0.184100	0.860800
C1721	C172	0.170210	0.164820	0.851200
H861	H86	0.162600	0.139600	0.881300
C1731	C173	0.103260	0.174530	0.819170
H871	H87	0.051500	0.154700	0.827800
C1741	C174	0.112370	0.211770	0.776380
H881	H88	0.066800	0.217900	0.755500
C1751	C175	0.189320	0.241760	0.762300
C1761	C176	0.406340	0.236870	0.811010
C1771	C177	0.955140	0.128360	0.560620
C1781	C178	0.976410	0.061790	0.528780
C1791	C179	0.022710	0.074410	0.486890
C1801	C180	0.047750	0.148520	0.472430
H891	H89	0.033200	0.190700	0.491900
C1811	C181	0.091970	0.159750	0.431390
H901	H90	0.107900	0.209500	0.422500
C1821	C182	0.114470	0.097540	0.401700
H911	H91	0.144600	0.106100	0.372800
C1831	C183	0.093240	0.025800	0.414320
H921	H92	0.109300	0.984700	0.394300
C1841	C184	0.952910	0.988440	0.542600
C1851	C185	0.063900	0.360920	0.541920
C1861	C186	0.033970	0.433450	0.519000
C1871	C187	0.990420	0.430430	0.475430
C1881	C188	0.978510	0.361210	0.449260
H931	H93	0.000500	0.315600	0.461900
C1891	C189	0.936710	0.359420	0.406920
H941	H94	0.929000	0.312800	0.390400
C1901	C190	0.904340	0.427060	0.387110
H951	H95	0.875900	0.425400	0.357100
C1911	C191	0.913400	0.494000	0.410490
H961	H96	0.891200	0.538600	0.396600
C1921	C192	0.044020	0.501450	0.544140
Zn71	Zn7	0.513870	0.250820	0.884130
O491	O49	0.616040	0.249070	0.847890
O501	O50	0.589260	0.354100	0.805300
O511	O51	0.915030	0.280020	0.651650
O521	O52	0.952490	0.184110	0.698720
O531	O53	0.515200	0.151600	0.914330
O541	O54	0.385900	0.155200	0.939570
O551	O55	0.508730	0.326580	0.934830
O561	O56	0.635310	0.341260	0.962070
C1931	C193	0.629110	0.296520	0.813940
C1941	C194	0.701280	0.279170	0.782070
C1951	C195	0.778480	0.301740	0.797220
C1961	C196	0.792420	0.336090	0.843880
H971	H97	0.747800	0.345400	0.865000
C1971	C197	0.868530	0.355330	0.858020
H981	H98	0.876800	0.376900	0.889200
C1981	C198	0.935860	0.343790	0.826930
H991	H99	0.988800	0.358100	0.837300
C1991	C199	0.925360	0.312300	0.782320
H1001	H100	0.971000	0.305800	0.761600
C2001	C200	0.847070	0.288820	0.766130
C2011	C201	0.834700	0.253430	0.721050
C2021	C202	0.757780	0.229740	0.706210
C2031	C203	0.744710	0.191180	0.660940
H1011	H101	0.789000	0.184100	0.639200
C2041	C204	0.670210	0.164820	0.648800
H1021	H102	0.662600	0.139600	0.618700
C2051	C205	0.603260	0.174530	0.680830
H1031	H103	0.551500	0.154700	0.672200
C2061	C206	0.612370	0.211770	0.723620
H1041	H104	0.566800	0.217900	0.744500
C2071	C207	0.689320	0.241760	0.737700
C2081	C208	0.906340	0.236870	0.688990
C2091	C209	0.455140	0.128360	0.939380
C2101	C210	0.476410	0.061790	0.971220
C2111	C211	0.522710	0.074410	0.013110
C2121	C212	0.547750	0.148520	0.027570
H1051	H105	0.533200	0.190700	0.008100
C2131	C213	0.591970	0.159750	0.068610
H1061	H106	0.607900	0.209500	0.077500
C2141	C214	0.614470	0.097540	0.098300
H1071	H107	0.644600	0.106100	0.127200
C2151	C215	0.593240	0.025800	0.085680
H1081	H108	0.609300	0.984700	0.105700
C2161	C216	0.452910	0.988440	0.957400
C2171	C217	0.563900	0.360920	0.958080
C2181	C218	0.533970	0.433450	0.981000
C2191	C219	0.490420	0.430430	0.024570
C2201	C220	0.478510	0.361210	0.050740
H1091	H109	0.500500	0.315600	0.038100
C2211	C221	0.436710	0.359420	0.093080
H1101	H110	0.429000	0.312800	0.109600
C2221	C222	0.404340	0.427060	0.112890
H1111	H111	0.375900	0.425400	0.142900
C2231	C223	0.413400	0.494000	0.089510
H1121	H112	0.391200	0.538600	0.103400
C2241	C224	0.544020	0.501450	0.955860
Zn81	Zn8	0.986130	0.749180	0.384130
O571	O57	0.883960	0.750930	0.347890
O581	O58	0.910740	0.645900	0.305300
O591	O59	0.584970	0.719980	0.151650
O601	O60	0.547510	0.815890	0.198720
O611	O61	0.984800	0.848400	0.414330
O621	O62	0.114100	0.844800	0.439570
O631	O63	0.991270	0.673420	0.434830
O641	O64	0.864690	0.658740	0.462070
C2251	C225	0.870890	0.703480	0.313940
C2261	C226	0.798720	0.720830	0.282070
C2271	C227	0.721520	0.698260	0.297220
C2281	C228	0.707580	0.663910	0.343880
H1131	H113	0.752200	0.654600	0.365000
C2291	C229	0.631470	0.644670	0.358020
H1141	H114	0.623200	0.623100	0.389200
C2301	C230	0.564140	0.656210	0.326930
H1151	H115	0.511200	0.641900	0.337300
C2311	C231	0.574640	0.687700	0.282320
H1161	H116	0.529000	0.694200	0.261600
C2321	C232	0.652930	0.711180	0.266130
C2331	C233	0.665300	0.746570	0.221050
C2341	C234	0.742220	0.770260	0.206210
C2351	C235	0.755290	0.808820	0.160940
H1171	H117	0.711000	0.815900	0.139200
C2361	C236	0.829790	0.835180	0.148800
H1181	H118	0.837400	0.860400	0.118700
C2371	C237	0.896740	0.825470	0.180830
H1191	H119	0.948500	0.845300	0.172200
C2381	C238	0.887630	0.788230	0.223620
H1201	H120	0.933200	0.782100	0.244500
C2391	C239	0.810680	0.758240	0.237700
C2401	C240	0.593660	0.763130	0.188990
C2411	C241	0.044860	0.871640	0.439380
C2421	C242	0.023590	0.938210	0.471220
C2431	C243	0.977290	0.925590	0.513110
C2441	C244	0.952250	0.851480	0.527570
H1211	H121	0.966800	0.809300	0.508100
C2451	C245	0.908030	0.840250	0.568610
H1221	H122	0.892100	0.790500	0.577500
C2461	C246	0.885530	0.902460	0.598300
H1231	H123	0.855400	0.893900	0.627200
C2471	C247	0.906760	0.974200	0.585680
H1241	H124	0.890700	0.015300	0.605700
C2481	C248	0.047090	0.011560	0.457400
C2491	C249	0.936100	0.639080	0.458080
C2501	C250	0.966030	0.566550	0.481000
C2511	C251	0.009580	0.569570	0.524570
C2521	C252	0.021490	0.638790	0.550740
H1251	H125	0.999500	0.684400	0.538100
C2531	C253	0.063290	0.640580	0.593080
H1261	H126	0.071000	0.687200	0.609600
C2541	C254	0.095660	0.572940	0.612890
H1271	H127	0.124100	0.574600	0.642900
C2551	C255	0.086600	0.506000	0.589510
H1281	H128	0.108800	0.461400	0.603400
C2561	C256	0.955980	0.498550	0.455860
