data_GOBGAG_clean_PM
_symmetry_space_group_name_H-M	'P1'
_cell_length_a	26.041400
_cell_length_b	26.041400
_cell_length_c	26.041400
_cell_angle_alpha	109.471000
_cell_angle_beta	109.471000
_cell_angle_gamma	109.471000
_symmetry_Int_Tables_number 1

loop_
_symmetry_equiv_pos_as_xyz
'x,y,z'

loop_
_atom_site_label
_atom_site_type_symbol
_atom_site_fract_x
_atom_site_fract_y
_atom_site_fract_z
Cd11	Cd1	0.645180	0.290360	0.145180
Cd21	Cd2	0.145180	0.500000	0.854820
Cd31	Cd3	0.854820	0.709640	0.354820
Cd41	Cd4	0.354820	0.500000	0.645180
Cd51	Cd5	0.354820	0.854820	0.709640
Cd61	Cd6	0.645180	0.354820	0.500000
Cd71	Cd7	0.145180	0.645180	0.290360
Cd81	Cd8	0.854820	0.145180	0.500000
Cd91	Cd9	0.500000	0.854820	0.145180
Cd101	Cd10	0.290360	0.145180	0.645180
Cd111	Cd11	0.500000	0.645180	0.354820
Cd121	Cd12	0.709640	0.354820	0.854820
Cd131	Cd13	0.354820	0.709640	0.854820
Cd141	Cd14	0.854820	0.500000	0.145180
Cd151	Cd15	0.145180	0.290360	0.645180
Cd161	Cd16	0.645180	0.500000	0.354820
Cd171	Cd17	0.645180	0.145180	0.290360
Cd181	Cd18	0.354820	0.645180	0.500000
Cd191	Cd19	0.854820	0.354820	0.709640
Cd201	Cd20	0.145180	0.854820	0.500000
Cd211	Cd21	0.500000	0.145180	0.854820
Cd221	Cd22	0.709640	0.854820	0.354820
Cd231	Cd23	0.500000	0.354820	0.645180
Cd241	Cd24	0.290360	0.645180	0.145180
H11	H1	0.585400	0.369000	0.086600
H21	H2	0.499200	0.219500	0.125700
H31	H3	0.282400	0.498800	0.913400
H41	H4	0.093800	0.373500	0.874300
H51	H5	0.717600	0.631000	0.216400
H61	H6	0.906200	0.780500	0.279700
H71	H7	0.414600	0.501200	0.783600
H81	H8	0.500800	0.626500	0.720300
H91	H9	0.216400	0.717600	0.631000
H101	H10	0.279700	0.906200	0.780500
H111	H11	0.783600	0.414600	0.501200
H121	H12	0.720300	0.500800	0.626500
H131	H13	0.086600	0.585400	0.369000
H141	H14	0.125700	0.499200	0.219500
H151	H15	0.913400	0.282400	0.498800
H161	H16	0.874300	0.093800	0.373500
H171	H17	0.498800	0.913400	0.282400
H181	H18	0.373500	0.874300	0.093800
H191	H19	0.369000	0.086600	0.585400
H201	H20	0.219500	0.125700	0.499200
H211	H21	0.501200	0.783600	0.414600
H221	H22	0.626500	0.720300	0.500800
H231	H23	0.631000	0.216400	0.717600
H241	H24	0.780500	0.279700	0.906200
H251	H25	0.631000	0.414600	0.913400
H261	H26	0.780500	0.500800	0.874300
H271	H27	0.501200	0.717600	0.086600
H281	H28	0.626500	0.906200	0.125700
H291	H29	0.369000	0.282400	0.783600
H301	H30	0.219500	0.093800	0.720300
H311	H31	0.498800	0.585400	0.216400
H321	H32	0.373500	0.499200	0.279700
H331	H33	0.282400	0.783600	0.369000
H341	H34	0.093800	0.720300	0.219500
H351	H35	0.585400	0.216400	0.498800
H361	H36	0.499200	0.279700	0.373500
H371	H37	0.414600	0.913400	0.631000
H381	H38	0.500800	0.874300	0.780500
H391	H39	0.717600	0.086600	0.501200
H401	H40	0.906200	0.125700	0.626500
H411	H41	0.086600	0.501200	0.717600
H421	H42	0.125700	0.626500	0.906200
H431	H43	0.913400	0.631000	0.414600
H441	H44	0.874300	0.780500	0.500800
H451	H45	0.216400	0.498800	0.585400
H461	H46	0.279700	0.373500	0.499200
H471	H47	0.783600	0.369000	0.282400
H481	H48	0.720300	0.219500	0.093800
H491	H49	0.414600	0.631000	0.913400
H501	H50	0.500800	0.780500	0.874300
H511	H51	0.717600	0.501200	0.086600
H521	H52	0.906200	0.626500	0.125700
H531	H53	0.282400	0.369000	0.783600
H541	H54	0.093800	0.219500	0.720300
H551	H55	0.585400	0.498800	0.216400
H561	H56	0.499200	0.373500	0.279700
H571	H57	0.783600	0.282400	0.369000
H581	H58	0.720300	0.093800	0.219500
H591	H59	0.216400	0.585400	0.498800
H601	H60	0.279700	0.499200	0.373500
H611	H61	0.913400	0.414600	0.631000
H621	H62	0.874300	0.500800	0.780500
H631	H63	0.086600	0.717600	0.501200
H641	H64	0.125700	0.906200	0.626500
H651	H65	0.501200	0.086600	0.717600
H661	H66	0.626500	0.125700	0.906200
H671	H67	0.631000	0.913400	0.414600
H681	H68	0.780500	0.874300	0.500800
H691	H69	0.498800	0.216400	0.585400
H701	H70	0.373500	0.279700	0.499200
H711	H71	0.369000	0.783600	0.282400
H721	H72	0.219500	0.720300	0.093800
H731	H73	0.369000	0.585400	0.086600
H741	H74	0.219500	0.499200	0.125700
H751	H75	0.498800	0.282400	0.913400
H761	H76	0.373500	0.093800	0.874300
H771	H77	0.631000	0.717600	0.216400
H781	H78	0.780500	0.906200	0.279700
H791	H79	0.501200	0.414600	0.783600
H801	H80	0.626500	0.500800	0.720300
H811	H81	0.717600	0.216400	0.631000
H821	H82	0.906200	0.279700	0.780500
H831	H83	0.414600	0.783600	0.501200
H841	H84	0.500800	0.720300	0.626500
H851	H85	0.585400	0.086600	0.369000
H861	H86	0.499200	0.125700	0.219500
H871	H87	0.282400	0.913400	0.498800
H881	H88	0.093800	0.874300	0.373500
H891	H89	0.913400	0.498800	0.282400
H901	H90	0.874300	0.373500	0.093800
H911	H91	0.086600	0.369000	0.585400
H921	H92	0.125700	0.219500	0.499200
H931	H93	0.783600	0.501200	0.414600
H941	H94	0.720300	0.626500	0.500800
H951	H95	0.216400	0.631000	0.717600
H961	H96	0.279700	0.780500	0.906200
H971	H97	0.614400	0.449600	0.064000
H981	H98	0.385600	0.550400	0.936000
H991	H99	0.614400	0.550400	0.164800
H1001	H100	0.385600	0.449600	0.835200
H1011	H101	0.164800	0.614400	0.550400
H1021	H102	0.835200	0.385600	0.449600
H1031	H103	0.064000	0.614400	0.449600
H1041	H104	0.936000	0.385600	0.550400
H1051	H105	0.550400	0.936000	0.385600
H1061	H106	0.449600	0.064000	0.614400
H1071	H107	0.449600	0.835200	0.385600
H1081	H108	0.550400	0.164800	0.614400
H1091	H109	0.550400	0.385600	0.936000
H1101	H110	0.449600	0.614400	0.064000
H1111	H111	0.449600	0.385600	0.835200
H1121	H112	0.550400	0.614400	0.164800
H1131	H113	0.385600	0.835200	0.449600
H1141	H114	0.614400	0.164800	0.550400
H1151	H115	0.385600	0.936000	0.550400
H1161	H116	0.614400	0.064000	0.449600
H1171	H117	0.064000	0.449600	0.614400
H1181	H118	0.936000	0.550400	0.385600
H1191	H119	0.164800	0.550400	0.614400
H1201	H120	0.835200	0.449600	0.385600
H1211	H121	0.447200	0.156200	0.156200
H1221	H122	0.000000	0.291000	0.843800
H1231	H123	0.000000	0.843800	0.291000
H1241	H124	0.552800	0.709000	0.709000
H1251	H125	0.291000	0.000000	0.843800
H1261	H126	0.709000	0.552800	0.709000
H1271	H127	0.156200	0.447200	0.156200
H1281	H128	0.843800	0.000000	0.291000
H1291	H129	0.291000	0.843800	0.000000
H1301	H130	0.156200	0.156200	0.447200
H1311	H131	0.709000	0.709000	0.552800
H1321	H132	0.843800	0.291000	0.000000
H1331	H133	0.843800	0.552800	0.843800
H1341	H134	0.709000	0.000000	0.156200
H1351	H135	0.156200	0.000000	0.709000
H1361	H136	0.291000	0.447200	0.291000
H1371	H137	0.000000	0.709000	0.156200
H1381	H138	0.447200	0.291000	0.291000
H1391	H139	0.552800	0.843800	0.843800
H1401	H140	0.000000	0.156200	0.709000
H1411	H141	0.156200	0.709000	0.000000
H1421	H142	0.843800	0.843800	0.552800
H1431	H143	0.291000	0.291000	0.447200
H1441	H144	0.709000	0.156200	0.000000
C11	C1	0.626800	0.389600	0.093800
C21	C2	0.519700	0.204000	0.148900
C31	C3	0.295800	0.533000	0.906200
C41	C4	0.055100	0.370800	0.851100
C51	C5	0.704200	0.610400	0.237200
C61	C6	0.944900	0.796000	0.315700
C71	C7	0.373200	0.467000	0.762800
C81	C8	0.480300	0.629200	0.684300
C91	C9	0.237200	0.704200	0.610400
C101	C10	0.315700	0.944900	0.796000
C111	C11	0.762800	0.373200	0.467000
C121	C12	0.684300	0.480300	0.629200
C131	C13	0.093800	0.626800	0.389600
C141	C14	0.148900	0.519700	0.204000
C151	C15	0.906200	0.295800	0.533000
C161	C16	0.851100	0.055100	0.370800
C171	C17	0.533000	0.906200	0.295800
C181	C18	0.370800	0.851100	0.055100
C191	C19	0.389600	0.093800	0.626800
C201	C20	0.204000	0.148900	0.519700
C211	C21	0.467000	0.762800	0.373200
C221	C22	0.629200	0.684300	0.480300
C231	C23	0.610400	0.237200	0.704200
C241	C24	0.796000	0.315700	0.944900
C251	C25	0.610400	0.373200	0.906200
C261	C26	0.796000	0.480300	0.851100
C271	C27	0.467000	0.704200	0.093800
C281	C28	0.629200	0.944900	0.148900
C291	C29	0.389600	0.295800	0.762800
C301	C30	0.204000	0.055100	0.684300
C311	C31	0.533000	0.626800	0.237200
C321	C32	0.370800	0.519700	0.315700
C331	C33	0.295800	0.762800	0.389600
C341	C34	0.055100	0.684300	0.204000
C351	C35	0.626800	0.237200	0.533000
C361	C36	0.519700	0.315700	0.370800
C371	C37	0.373200	0.906200	0.610400
C381	C38	0.480300	0.851100	0.796000
C391	C39	0.704200	0.093800	0.467000
C401	C40	0.944900	0.148900	0.629200
C411	C41	0.093800	0.467000	0.704200
C421	C42	0.148900	0.629200	0.944900
C431	C43	0.906200	0.610400	0.373200
C441	C44	0.851100	0.796000	0.480300
C451	C45	0.237200	0.533000	0.626800
C461	C46	0.315700	0.370800	0.519700
C471	C47	0.762800	0.389600	0.295800
C481	C48	0.684300	0.204000	0.055100
C491	C49	0.373200	0.610400	0.906200
C501	C50	0.480300	0.796000	0.851100
C511	C51	0.704200	0.467000	0.093800
C521	C52	0.944900	0.629200	0.148900
C531	C53	0.295800	0.389600	0.762800
C541	C54	0.055100	0.204000	0.684300
C551	C55	0.626800	0.533000	0.237200
C561	C56	0.519700	0.370800	0.315700
C571	C57	0.762800	0.295800	0.389600
C581	C58	0.684300	0.055100	0.204000
C591	C59	0.237200	0.626800	0.533000
C601	C60	0.315700	0.519700	0.370800
C611	C61	0.906200	0.373200	0.610400
C621	C62	0.851100	0.480300	0.796000
C631	C63	0.093800	0.704200	0.467000
C641	C64	0.148900	0.944900	0.629200
C651	C65	0.467000	0.093800	0.704200
C661	C66	0.629200	0.148900	0.944900
C671	C67	0.610400	0.906200	0.373200
C681	C68	0.796000	0.851100	0.480300
C691	C69	0.533000	0.237200	0.626800
C701	C70	0.370800	0.315700	0.519700
C711	C71	0.389600	0.762800	0.295800
C721	C72	0.204000	0.684300	0.055100
C731	C73	0.389600	0.626800	0.093800
C741	C74	0.204000	0.519700	0.148900
C751	C75	0.533000	0.295800	0.906200
C761	C76	0.370800	0.055100	0.851100
C771	C77	0.610400	0.704200	0.237200
C781	C78	0.796000	0.944900	0.315700
C791	C79	0.467000	0.373200	0.762800
C801	C80	0.629200	0.480300	0.684300
C811	C81	0.704200	0.237200	0.610400
C821	C82	0.944900	0.315700	0.796000
C831	C83	0.373200	0.762800	0.467000
C841	C84	0.480300	0.684300	0.629200
C851	C85	0.626800	0.093800	0.389600
C861	C86	0.519700	0.148900	0.204000
C871	C87	0.295800	0.906200	0.533000
C881	C88	0.055100	0.851100	0.370800
C891	C89	0.906200	0.533000	0.295800
C901	C90	0.851100	0.370800	0.055100
C911	C91	0.093800	0.389600	0.626800
C921	C92	0.148900	0.204000	0.519700
C931	C93	0.762800	0.467000	0.373200
C941	C94	0.684300	0.629200	0.480300
C951	C95	0.237200	0.610400	0.704200
C961	C96	0.315700	0.796000	0.944900
C971	C97	0.612100	0.383100	0.229000
C981	C98	0.677200	0.402100	0.275100
C991	C99	0.154100	0.383100	0.771000
C1001	C100	0.127000	0.402100	0.724900
C1011	C101	0.845900	0.616900	0.229000
C1021	C102	0.873000	0.597900	0.275100
C1031	C103	0.387900	0.616900	0.771000
C1041	C104	0.322800	0.597900	0.724900
C1051	C105	0.229000	0.845900	0.616900
C1061	C106	0.275100	0.873000	0.597900
C1071	C107	0.771000	0.387900	0.616900
C1081	C108	0.724900	0.322800	0.597900
C1091	C109	0.229000	0.612100	0.383100
C1101	C110	0.275100	0.677200	0.402100
C1111	C111	0.771000	0.154100	0.383100
C1121	C112	0.724900	0.127000	0.402100
C1131	C113	0.383100	0.771000	0.154100
C1141	C114	0.402100	0.724900	0.127000
C1151	C115	0.383100	0.229000	0.612100
C1161	C116	0.402100	0.275100	0.677200
C1171	C117	0.616900	0.771000	0.387900
C1181	C118	0.597900	0.724900	0.322800
C1191	C119	0.616900	0.229000	0.845900
C1201	C120	0.597900	0.275100	0.873000
C1211	C121	0.616900	0.387900	0.771000
C1221	C122	0.597900	0.322800	0.724900
C1231	C123	0.616900	0.845900	0.229000
C1241	C124	0.597900	0.873000	0.275100
C1251	C125	0.383100	0.154100	0.771000
C1261	C126	0.402100	0.127000	0.724900
C1271	C127	0.383100	0.612100	0.229000
C1281	C128	0.402100	0.677200	0.275100
C1291	C129	0.154100	0.771000	0.383100
C1301	C130	0.127000	0.724900	0.402100
C1311	C131	0.612100	0.229000	0.383100
C1321	C132	0.677200	0.275100	0.402100
C1331	C133	0.387900	0.771000	0.616900
C1341	C134	0.322800	0.724900	0.597900
C1351	C135	0.845900	0.229000	0.616900
C1361	C136	0.873000	0.275100	0.597900
C1371	C137	0.229000	0.616900	0.845900
C1381	C138	0.275100	0.597900	0.873000
C1391	C139	0.771000	0.616900	0.387900
C1401	C140	0.724900	0.597900	0.322800
C1411	C141	0.229000	0.383100	0.612100
C1421	C142	0.275100	0.402100	0.677200
C1431	C143	0.771000	0.383100	0.154100
C1441	C144	0.724900	0.402100	0.127000
C1451	C145	0.643500	0.437500	0.081000
C1461	C146	0.356500	0.562500	0.919000
C1471	C147	0.643500	0.562500	0.206000
C1481	C148	0.356500	0.437500	0.794000
C1491	C149	0.206000	0.643500	0.562500
C1501	C150	0.794000	0.356500	0.437500
C1511	C151	0.081000	0.643500	0.437500
C1521	C152	0.919000	0.356500	0.562500
C1531	C153	0.562500	0.919000	0.356500
C1541	C154	0.437500	0.081000	0.643500
C1551	C155	0.437500	0.794000	0.356500
C1561	C156	0.562500	0.206000	0.643500
C1571	C157	0.562500	0.356500	0.919000
C1581	C158	0.437500	0.643500	0.081000
C1591	C159	0.437500	0.356500	0.794000
C1601	C160	0.562500	0.643500	0.206000
C1611	C161	0.356500	0.794000	0.437500
C1621	C162	0.643500	0.206000	0.562500
C1631	C163	0.356500	0.919000	0.562500
C1641	C164	0.643500	0.081000	0.437500
C1651	C165	0.081000	0.437500	0.643500
C1661	C166	0.919000	0.562500	0.356500
C1671	C167	0.206000	0.562500	0.643500
C1681	C168	0.794000	0.437500	0.356500
C1691	C169	0.541500	0.212100	0.000000
C1701	C170	0.591000	0.195800	0.000000
C1711	C171	0.212100	0.541500	0.000000
C1721	C172	0.195800	0.591000	0.000000
C1731	C173	0.787900	0.787900	0.329400
C1741	C174	0.804200	0.804200	0.395200
C1751	C175	0.458500	0.458500	0.670600
C1761	C176	0.409000	0.409000	0.604800
C1771	C177	0.329400	0.787900	0.787900
C1781	C178	0.395200	0.804200	0.804200
C1791	C179	0.670600	0.458500	0.458500
C1801	C180	0.604800	0.409000	0.409000
C1811	C181	0.000000	0.541500	0.212100
C1821	C182	0.000000	0.591000	0.195800
C1831	C183	0.000000	0.212100	0.541500
C1841	C184	0.000000	0.195800	0.591000
C1851	C185	0.541500	0.000000	0.212100
C1861	C186	0.591000	0.000000	0.195800
C1871	C187	0.212100	0.000000	0.541500
C1881	C188	0.195800	0.000000	0.591000
C1891	C189	0.458500	0.670600	0.458500
C1901	C190	0.409000	0.604800	0.409000
C1911	C191	0.787900	0.329400	0.787900
C1921	C192	0.804200	0.395200	0.804200
C1931	C193	0.787900	0.458500	0.000000
C1941	C194	0.804200	0.409000	0.000000
C1951	C195	0.458500	0.787900	0.000000
C1961	C196	0.409000	0.804200	0.000000
C1971	C197	0.212100	0.212100	0.670600
C1981	C198	0.195800	0.195800	0.604800
C1991	C199	0.541500	0.541500	0.329400
C2001	C200	0.591000	0.591000	0.395200
C2011	C201	0.212100	0.670600	0.212100
C2021	C202	0.195800	0.604800	0.195800
C2031	C203	0.541500	0.329400	0.541500
C2041	C204	0.591000	0.395200	0.591000
C2051	C205	0.458500	0.000000	0.787900
C2061	C206	0.409000	0.000000	0.804200
C2071	C207	0.787900	0.000000	0.458500
C2081	C208	0.804200	0.000000	0.409000
C2091	C209	0.000000	0.458500	0.787900
C2101	C210	0.000000	0.409000	0.804200
C2111	C211	0.000000	0.787900	0.458500
C2121	C212	0.000000	0.804200	0.409000
C2131	C213	0.329400	0.541500	0.541500
C2141	C214	0.395200	0.591000	0.591000
C2151	C215	0.670600	0.212100	0.212100
C2161	C216	0.604800	0.195800	0.195800
C2171	C217	0.489800	0.168100	0.168100
C2181	C218	0.000000	0.321700	0.831900
C2191	C219	0.000000	0.831900	0.321700
C2201	C220	0.510200	0.678300	0.678300
C2211	C221	0.321700	0.000000	0.831900
C2221	C222	0.678300	0.510200	0.678300
C2231	C223	0.168100	0.489800	0.168100
C2241	C224	0.831900	0.000000	0.321700
C2251	C225	0.321700	0.831900	0.000000
C2261	C226	0.168100	0.168100	0.489800
C2271	C227	0.678300	0.678300	0.510200
C2281	C228	0.831900	0.321700	0.000000
C2291	C229	0.831900	0.510200	0.831900
C2301	C230	0.678300	0.000000	0.168100
C2311	C231	0.168100	0.000000	0.678300
C2321	C232	0.321700	0.489800	0.321700
C2331	C233	0.000000	0.678300	0.168100
C2341	C234	0.489800	0.321700	0.321700
C2351	C235	0.510200	0.831900	0.831900
C2361	C236	0.000000	0.168100	0.678300
C2371	C237	0.168100	0.678300	0.000000
C2381	C238	0.831900	0.831900	0.510200
C2391	C239	0.321700	0.321700	0.489800
C2401	C240	0.678300	0.168100	0.000000
N11	N1	0.666900	0.371000	0.116300
N21	N2	0.576900	0.217300	0.162600
N31	N3	0.254700	0.550600	0.883700
N41	N4	0.054700	0.414300	0.837400
N51	N5	0.745300	0.629000	0.295900
N61	N6	0.945300	0.782700	0.359600
N71	N7	0.333100	0.449400	0.704100
N81	N8	0.423100	0.585700	0.640400
N91	N9	0.295900	0.745300	0.629000
N101	N10	0.359600	0.945300	0.782700
N111	N11	0.704100	0.333100	0.449400
N121	N12	0.640400	0.423100	0.585700
N131	N13	0.116300	0.666900	0.371000
N141	N14	0.162600	0.576900	0.217300
N151	N15	0.883700	0.254700	0.550600
N161	N16	0.837400	0.054700	0.414300
N171	N17	0.550600	0.883700	0.254700
N181	N18	0.414300	0.837400	0.054700
N191	N19	0.371000	0.116300	0.666900
N201	N20	0.217300	0.162600	0.576900
N211	N21	0.449400	0.704100	0.333100
N221	N22	0.585700	0.640400	0.423100
N231	N23	0.629000	0.295900	0.745300
N241	N24	0.782700	0.359600	0.945300
N251	N25	0.629000	0.333100	0.883700
N261	N26	0.782700	0.423100	0.837400
N271	N27	0.449400	0.745300	0.116300
N281	N28	0.585700	0.945300	0.162600
N291	N29	0.371000	0.254700	0.704100
N301	N30	0.217300	0.054700	0.640400
N311	N31	0.550600	0.666900	0.295900
N321	N32	0.414300	0.576900	0.359600
N331	N33	0.254700	0.704100	0.371000
N341	N34	0.054700	0.640400	0.217300
N351	N35	0.666900	0.295900	0.550600
N361	N36	0.576900	0.359600	0.414300
N371	N37	0.333100	0.883700	0.629000
N381	N38	0.423100	0.837400	0.782700
N391	N39	0.745300	0.116300	0.449400
N401	N40	0.945300	0.162600	0.585700
N411	N41	0.116300	0.449400	0.745300
N421	N42	0.162600	0.585700	0.945300
N431	N43	0.883700	0.629000	0.333100
N441	N44	0.837400	0.782700	0.423100
N451	N45	0.295900	0.550600	0.666900
N461	N46	0.359600	0.414300	0.576900
N471	N47	0.704100	0.371000	0.254700
N481	N48	0.640400	0.217300	0.054700
N491	N49	0.333100	0.629000	0.883700
N501	N50	0.423100	0.782700	0.837400
N511	N51	0.745300	0.449400	0.116300
N521	N52	0.945300	0.585700	0.162600
N531	N53	0.254700	0.371000	0.704100
N541	N54	0.054700	0.217300	0.640400
N551	N55	0.666900	0.550600	0.295900
N561	N56	0.576900	0.414300	0.359600
N571	N57	0.704100	0.254700	0.371000
N581	N58	0.640400	0.054700	0.217300
N591	N59	0.295900	0.666900	0.550600
N601	N60	0.359600	0.576900	0.414300
N611	N61	0.883700	0.333100	0.629000
N621	N62	0.837400	0.423100	0.782700
N631	N63	0.116300	0.745300	0.449400
N641	N64	0.162600	0.945300	0.585700
N651	N65	0.449400	0.116300	0.745300
N661	N66	0.585700	0.162600	0.945300
N671	N67	0.629000	0.883700	0.333100
N681	N68	0.782700	0.837400	0.423100
N691	N69	0.550600	0.295900	0.666900
N701	N70	0.414300	0.359600	0.576900
N711	N71	0.371000	0.704100	0.254700
N721	N72	0.217300	0.640400	0.054700
N731	N73	0.371000	0.666900	0.116300
N741	N74	0.217300	0.576900	0.162600
N751	N75	0.550600	0.254700	0.883700
N761	N76	0.414300	0.054700	0.837400
N771	N77	0.629000	0.745300	0.295900
N781	N78	0.782700	0.945300	0.359600
N791	N79	0.449400	0.333100	0.704100
N801	N80	0.585700	0.423100	0.640400
N811	N81	0.745300	0.295900	0.629000
N821	N82	0.945300	0.359600	0.782700
N831	N83	0.333100	0.704100	0.449400
N841	N84	0.423100	0.640400	0.585700
N851	N85	0.666900	0.116300	0.371000
N861	N86	0.576900	0.162600	0.217300
N871	N87	0.254700	0.883700	0.550600
N881	N88	0.054700	0.837400	0.414300
N891	N89	0.883700	0.550600	0.254700
N901	N90	0.837400	0.414300	0.054700
N911	N91	0.116300	0.371000	0.666900
N921	N92	0.162600	0.217300	0.576900
N931	N93	0.704100	0.449400	0.333100
N941	N94	0.640400	0.585700	0.423100
N951	N95	0.295900	0.629000	0.745300
N961	N96	0.359600	0.782700	0.945300
O11	O1	0.587400	0.338900	0.175100
O21	O2	0.547000	0.243300	0.051700
O31	O3	0.163800	0.412300	0.824900
O41	O4	0.191600	0.495300	0.948300
O51	O5	0.836200	0.661100	0.248500
O61	O6	0.808400	0.756700	0.303700
O71	O7	0.412600	0.587700	0.751500
O81	O8	0.453000	0.504700	0.696300
O91	O9	0.248500	0.836200	0.661100
O101	O10	0.303700	0.808400	0.756700
O111	O11	0.751500	0.412600	0.587700
O121	O12	0.696300	0.453000	0.504700
O131	O13	0.175100	0.587400	0.338900
O141	O14	0.051700	0.547000	0.243300
O151	O15	0.824900	0.163800	0.412300
O161	O16	0.948300	0.191600	0.495300
O171	O17	0.412300	0.824900	0.163800
O181	O18	0.495300	0.948300	0.191600
O191	O19	0.338900	0.175100	0.587400
O201	O20	0.243300	0.051700	0.547000
O211	O21	0.587700	0.751500	0.412600
O221	O22	0.504700	0.696300	0.453000
O231	O23	0.661100	0.248500	0.836200
O241	O24	0.756700	0.303700	0.808400
O251	O25	0.661100	0.412600	0.824900
O261	O26	0.756700	0.453000	0.948300
O271	O27	0.587700	0.836200	0.175100
O281	O28	0.504700	0.808400	0.051700
O291	O29	0.338900	0.163800	0.751500
O301	O30	0.243300	0.191600	0.696300
O311	O31	0.412300	0.587400	0.248500
O321	O32	0.495300	0.547000	0.303700
O331	O33	0.163800	0.751500	0.338900
O341	O34	0.191600	0.696300	0.243300
O351	O35	0.587400	0.248500	0.412300
O361	O36	0.547000	0.303700	0.495300
O371	O37	0.412600	0.824900	0.661100
O381	O38	0.453000	0.948300	0.756700
O391	O39	0.836200	0.175100	0.587700
O401	O40	0.808400	0.051700	0.504700
O411	O41	0.175100	0.587700	0.836200
O421	O42	0.051700	0.504700	0.808400
O431	O43	0.824900	0.661100	0.412600
O441	O44	0.948300	0.756700	0.453000
O451	O45	0.248500	0.412300	0.587400
O461	O46	0.303700	0.495300	0.547000
O471	O47	0.751500	0.338900	0.163800
O481	O48	0.696300	0.243300	0.191600
O491	O49	0.412600	0.661100	0.824900
O501	O50	0.453000	0.756700	0.948300
O511	O51	0.836200	0.587700	0.175100
O521	O52	0.808400	0.504700	0.051700
O531	O53	0.163800	0.338900	0.751500
O541	O54	0.191600	0.243300	0.696300
O551	O55	0.587400	0.412300	0.248500
O561	O56	0.547000	0.495300	0.303700
O571	O57	0.751500	0.163800	0.338900
O581	O58	0.696300	0.191600	0.243300
O591	O59	0.248500	0.587400	0.412300
O601	O60	0.303700	0.547000	0.495300
O611	O61	0.824900	0.412600	0.661100
O621	O62	0.948300	0.453000	0.756700
O631	O63	0.175100	0.836200	0.587700
O641	O64	0.051700	0.808400	0.504700
O651	O65	0.587700	0.175100	0.836200
O661	O66	0.504700	0.051700	0.808400
O671	O67	0.661100	0.824900	0.412600
O681	O68	0.756700	0.948300	0.453000
O691	O69	0.412300	0.248500	0.587400
O701	O70	0.495300	0.303700	0.547000
O711	O71	0.338900	0.751500	0.163800
O721	O72	0.243300	0.696300	0.191600
O731	O73	0.338900	0.587400	0.175100
O741	O74	0.243300	0.547000	0.051700
O751	O75	0.412300	0.163800	0.824900
O761	O76	0.495300	0.191600	0.948300
O771	O77	0.661100	0.836200	0.248500
O781	O78	0.756700	0.808400	0.303700
O791	O79	0.587700	0.412600	0.751500
O801	O80	0.504700	0.453000	0.696300
O811	O81	0.836200	0.248500	0.661100
O821	O82	0.808400	0.303700	0.756700
O831	O83	0.412600	0.751500	0.587700
O841	O84	0.453000	0.696300	0.504700
O851	O85	0.587400	0.175100	0.338900
O861	O86	0.547000	0.051700	0.243300
O871	O87	0.163800	0.824900	0.412300
O881	O88	0.191600	0.948300	0.495300
O891	O89	0.824900	0.412300	0.163800
O901	O90	0.948300	0.495300	0.191600
O911	O91	0.175100	0.338900	0.587400
O921	O92	0.051700	0.243300	0.547000
O931	O93	0.751500	0.587700	0.412600
O941	O94	0.696300	0.504700	0.453000
O951	O95	0.248500	0.661100	0.836200
O961	O96	0.303700	0.756700	0.808400
