data_GOGSIF_clean_PM
_symmetry_space_group_name_H-M	'P1'
_cell_length_a	14.443000
_cell_length_b	14.537000
_cell_length_c	22.015000
_cell_angle_alpha	90.000000
_cell_angle_beta	99.973000
_cell_angle_gamma	90.000000
_symmetry_Int_Tables_number 1

loop_
_symmetry_equiv_pos_as_xyz
'x,y,z'

loop_
_atom_site_label
_atom_site_type_symbol
_atom_site_fract_x
_atom_site_fract_y
_atom_site_fract_z
Co11	Co1	0.189900	0.812200	0.060700
Co21	Co2	0.846700	0.164600	0.068000
Co31	Co3	0.569600	0.992100	0.275600
Co41	Co4	0.602600	0.118300	0.412200
Co51	Co5	0.621300	0.912700	0.405500
Co61	Co6	0.810100	0.312200	0.939300
Co71	Co7	0.153300	0.664600	0.932000
Co81	Co8	0.430400	0.492100	0.724400
Co91	Co9	0.397400	0.618300	0.587800
Co101	Co10	0.378700	0.412700	0.594500
H11	H1	0.058300	0.691000	0.022500
H21	H2	0.040100	0.776500	0.978500
H31	H3	0.716900	0.027000	0.353300
H41	H4	0.301000	0.444000	0.038400
H51	H5	0.396100	0.484200	0.024900
H61	H6	0.394600	0.426300	0.084800
H71	H7	0.477400	0.558300	0.146900
H81	H8	0.473500	0.620500	0.088300
H91	H9	0.428700	0.655000	0.144100
H101	H10	0.232700	0.507200	0.130300
H111	H11	0.329300	0.497100	0.175000
H121	H12	0.280200	0.593400	0.165500
H131	H13	0.333900	0.859100	0.834400
H141	H14	0.388500	0.949100	0.857900
H151	H15	0.238000	0.060000	0.927300
H161	H16	0.312300	0.007800	0.975400
H171	H17	0.342200	0.051500	0.916700
H181	H18	0.145000	0.892100	0.838900
H191	H19	0.149600	0.998500	0.850400
H201	H20	0.209300	0.953700	0.805100
H211	H21	0.413200	0.913100	0.913700
H221	H22	0.472900	0.226900	0.169700
H231	H23	0.374900	0.209600	0.189000
H241	H24	0.401300	0.308200	0.168800
H251	H25	0.368800	0.371600	0.271500
H261	H26	0.343600	0.272300	0.291000
H271	H27	0.422200	0.328800	0.333100
H281	H28	0.593200	0.319700	0.240400
H291	H29	0.521900	0.400300	0.243000
H301	H30	0.571300	0.353000	0.304100
H311	H31	0.731700	0.756400	0.201900
H321	H32	0.697200	0.654100	0.194600
H331	H33	0.623900	0.734500	0.187100
H341	H34	0.763500	0.672000	0.357200
H351	H35	0.781000	0.613300	0.300500
H361	H36	0.820300	0.713800	0.309200
H371	H37	0.596000	0.635700	0.325100
H381	H38	0.546200	0.660100	0.258100
H391	H39	0.621500	0.581500	0.268700
H401	H40	0.831800	0.923200	0.642900
H411	H41	0.729600	0.895400	0.612100
H421	H42	0.815500	0.865400	0.581900
H431	H43	0.873600	0.090600	0.532200
H441	H44	0.920300	0.041400	0.593300
H451	H45	0.904100	0.987300	0.530700
H461	H46	0.736100	0.136500	0.578200
H471	H47	0.673100	0.062300	0.602900
H481	H48	0.772000	0.086900	0.641100
H491	H49	0.313800	0.778400	0.181300
H501	H50	0.444800	0.828000	0.244200
H511	H51	0.440900	0.048500	0.147500
H521	H52	0.310700	0.998000	0.082400
H531	H53	0.980000	0.034600	0.154400
H541	H54	0.096000	0.929700	0.153400
H551	H55	0.048200	0.934300	0.975000
H561	H56	0.929700	0.039600	0.977100
H571	H57	0.804600	0.195700	0.197000
H581	H58	0.709000	0.144300	0.261900
H591	H59	0.641400	0.934200	0.156300
H601	H60	0.730400	0.989300	0.089200
H611	H61	0.427100	0.210800	0.581200
H621	H62	0.497800	0.116100	0.523700
H631	H63	0.569900	0.321600	0.433200
H641	H64	0.488800	0.417100	0.486200
H651	H65	0.941700	0.191000	0.977500
H661	H66	0.959900	0.276500	0.021500
H671	H67	0.283100	0.527000	0.646700
H681	H68	0.699000	0.944000	0.961600
H691	H69	0.603900	0.984200	0.975100
H701	H70	0.605400	0.926300	0.915200
H711	H71	0.522600	0.058300	0.853100
H721	H72	0.526500	0.120500	0.911700
H731	H73	0.571300	0.155000	0.855900
H741	H74	0.767300	0.007200	0.869700
H751	H75	0.670700	0.997100	0.825000
H761	H76	0.719800	0.093400	0.834500
H771	H77	0.666100	0.359100	0.165600
H781	H78	0.611500	0.449100	0.142100
H791	H79	0.762000	0.560000	0.072700
H801	H80	0.687700	0.507800	0.024600
H811	H81	0.657800	0.551500	0.083300
H821	H82	0.855000	0.392100	0.161100
H831	H83	0.850400	0.498500	0.149600
H841	H84	0.790700	0.453700	0.194900
H851	H85	0.586800	0.413100	0.086300
H861	H86	0.527100	0.726900	0.830300
H871	H87	0.625100	0.709600	0.811000
H881	H88	0.598700	0.808200	0.831200
H891	H89	0.631200	0.871600	0.728500
H901	H90	0.656400	0.772300	0.709000
H911	H91	0.577800	0.828800	0.666900
H921	H92	0.406800	0.819700	0.759600
H931	H93	0.478100	0.900300	0.757000
H941	H94	0.428700	0.853000	0.695900
H951	H95	0.268300	0.256400	0.798100
H961	H96	0.302800	0.154100	0.805400
H971	H97	0.376100	0.234500	0.812900
H981	H98	0.236500	0.172000	0.642800
H991	H99	0.219000	0.113300	0.699500
H1001	H100	0.179700	0.213800	0.690800
H1011	H101	0.404000	0.135700	0.674900
H1021	H102	0.453800	0.160100	0.741900
H1031	H103	0.378500	0.081500	0.731300
H1041	H104	0.168200	0.423200	0.357100
H1051	H105	0.270400	0.395400	0.387900
H1061	H106	0.184500	0.365400	0.418100
H1071	H107	0.126400	0.590600	0.467800
H1081	H108	0.079700	0.541400	0.406700
H1091	H109	0.095900	0.487300	0.469300
H1101	H110	0.263900	0.636500	0.421800
H1111	H111	0.326900	0.562300	0.397100
H1121	H112	0.228000	0.586900	0.358900
H1131	H113	0.686200	0.278400	0.818700
H1141	H114	0.555200	0.328000	0.755800
H1151	H115	0.559100	0.548500	0.852500
H1161	H116	0.689300	0.498000	0.917600
H1171	H117	0.020000	0.534600	0.845600
H1181	H118	0.904000	0.429700	0.846600
H1191	H119	0.951800	0.434300	0.025000
H1201	H120	0.070300	0.539600	0.022900
H1211	H121	0.195400	0.695700	0.803000
H1221	H122	0.291000	0.644300	0.738100
H1231	H123	0.358600	0.434200	0.843700
H1241	H124	0.269600	0.489300	0.910800
H1251	H125	0.572900	0.710800	0.418800
H1261	H126	0.502200	0.616100	0.476300
H1271	H127	0.430100	0.821600	0.566800
H1281	H128	0.511200	0.917100	0.513800
C11	C1	0.287000	0.628000	0.048000
C21	C2	0.344000	0.557000	0.091000
C31	C3	0.361000	0.470000	0.057000
C41	C4	0.440000	0.602000	0.120000
C51	C5	0.292000	0.537000	0.146000
C61	C6	0.241000	0.855000	0.939400
C71	C7	0.268000	0.931000	0.897000
C81	C8	0.355000	0.897000	0.870000
C91	C9	0.292000	0.021000	0.932000
C101	C10	0.185000	0.945000	0.843000
C111	C11	0.508000	0.189000	0.289000
C121	C12	0.467000	0.276000	0.257000
C131	C13	0.425000	0.253000	0.190000
C141	C14	0.394000	0.316000	0.291000
C151	C15	0.545000	0.343000	0.261000
C161	C16	0.651000	0.799000	0.302000
C171	C17	0.681000	0.710000	0.278000
C181	C18	0.684000	0.714000	0.209000
C191	C19	0.769000	0.674000	0.314000
C201	C20	0.604000	0.640000	0.283000
C211	C21	0.716000	0.985000	0.504000
C221	C22	0.782000	0.004000	0.566000
C231	C23	0.791000	0.913000	0.604000
C241	C24	0.879000	0.034000	0.554000
C251	C25	0.736000	0.080000	0.600000
C261	C26	0.340000	0.834000	0.172800
C271	C27	0.418000	0.865000	0.211100
C281	C28	0.416000	0.991000	0.155000
C291	C29	0.338000	0.961000	0.115000
C301	C30	0.993000	0.014000	0.116600
C311	C31	0.063000	0.952000	0.116200
C321	C32	0.035000	0.954000	0.012900
C331	C33	0.963000	0.018000	0.014100
C341	C34	0.770000	0.142000	0.187100
C351	C35	0.712000	0.111000	0.226300
C361	C36	0.673000	0.990000	0.164700
C371	C37	0.728000	0.022000	0.125000
C381	C38	0.455000	0.236000	0.550000
C391	C39	0.499000	0.179000	0.516000
C401	C40	0.539000	0.297000	0.463000
C411	C41	0.492000	0.355000	0.496000
C421	C42	0.713000	0.128000	0.952000
C431	C43	0.656000	0.057000	0.909000
C441	C44	0.639000	0.970000	0.943000
C451	C45	0.560000	0.102000	0.880000
C461	C46	0.708000	0.037000	0.854000
C471	C47	0.759000	0.355000	0.060600
C481	C48	0.732000	0.431000	0.103000
C491	C49	0.645000	0.397000	0.130000
C501	C50	0.708000	0.521000	0.068000
C511	C51	0.815000	0.445000	0.157000
C521	C52	0.492000	0.689000	0.711000
C531	C53	0.533000	0.776000	0.743000
C541	C54	0.575000	0.753000	0.810000
C551	C55	0.606000	0.816000	0.709000
C561	C56	0.455000	0.843000	0.739000
C571	C57	0.349000	0.299000	0.698000
C581	C58	0.319000	0.210000	0.722000
C591	C59	0.316000	0.214000	0.791000
C601	C60	0.231000	0.174000	0.686000
C611	C61	0.396000	0.140000	0.717000
C621	C62	0.284000	0.485000	0.496000
C631	C63	0.218000	0.504000	0.434000
C641	C64	0.209000	0.413000	0.396000
C651	C65	0.121000	0.534000	0.446000
C661	C66	0.264000	0.580000	0.400000
C671	C67	0.660000	0.334000	0.827200
C681	C68	0.582000	0.365000	0.788900
C691	C69	0.584000	0.491000	0.845000
C701	C70	0.662000	0.461000	0.885000
C711	C71	0.007000	0.514000	0.883400
C721	C72	0.937000	0.452000	0.883800
C731	C73	0.965000	0.454000	0.987100
C741	C74	0.037000	0.518000	0.985900
C751	C75	0.230000	0.642000	0.812900
C761	C76	0.288000	0.611000	0.773700
C771	C77	0.327000	0.490000	0.835300
C781	C78	0.272000	0.522000	0.875000
C791	C79	0.545000	0.736000	0.450000
C801	C80	0.501000	0.679000	0.484000
C811	C81	0.461000	0.797000	0.537000
C821	C82	0.508000	0.855000	0.504000
N11	N1	0.301000	0.881000	0.124300
N21	N2	0.458000	0.944000	0.202700
N31	N3	0.943000	0.047000	0.066000
N41	N4	0.086000	0.922000	0.063500
N51	N5	0.778000	0.099000	0.136700
N61	N6	0.662000	0.037000	0.215500
N71	N7	0.451000	0.325000	0.540900
N81	N8	0.542000	0.208000	0.471300
N91	N9	0.699000	0.381000	0.875700
N101	N10	0.542000	0.444000	0.797300
N111	N11	0.057000	0.547000	0.934000
N121	N12	0.914000	0.422000	0.936500
N131	N13	0.222000	0.599000	0.863300
N141	N14	0.338000	0.537000	0.784500
N151	N15	0.549000	0.825000	0.459100
N161	N16	0.458000	0.708000	0.528700
O11	O1	0.285100	0.706800	0.067700
O21	O2	0.088200	0.735300	0.999300
O31	O3	0.242000	0.598500	0.998100
O41	O4	0.650100	0.021000	0.355800
O51	O5	0.229000	0.882300	0.991400
O61	O6	0.232900	0.777200	0.919300
O71	O7	0.507000	0.116000	0.261200
O81	O8	0.540000	0.197000	0.345200
O91	O9	0.622000	0.862000	0.266000
O101	O10	0.656000	0.804000	0.359300
O111	O11	0.734000	0.921000	0.476000
O121	O12	0.651000	0.032000	0.488600
O131	O13	0.714900	0.206800	0.932300
O141	O14	0.911800	0.235300	0.000700
O151	O15	0.758000	0.098500	0.001900
O161	O16	0.349900	0.521000	0.644200
O171	O17	0.771000	0.382300	0.008600
O181	O18	0.767100	0.277200	0.080700
O191	O19	0.493000	0.616000	0.738800
O201	O20	0.460000	0.697000	0.654800
O211	O21	0.378000	0.362000	0.734000
O221	O22	0.344000	0.304000	0.640700
O231	O23	0.266000	0.421000	0.524000
O241	O24	0.349000	0.532000	0.511400
