data_GOGWEF_clean_PM
_symmetry_space_group_name_H-M	'P1'
_cell_length_a	7.668700
_cell_length_b	12.680900
_cell_length_c	12.680900
_cell_angle_alpha	84.754200
_cell_angle_beta	72.399900
_cell_angle_gamma	72.399800
_symmetry_Int_Tables_number 1

loop_
_symmetry_equiv_pos_as_xyz
'x,y,z'

loop_
_atom_site_label
_atom_site_type_symbol
_atom_site_fract_x
_atom_site_fract_y
_atom_site_fract_z
Mn11	Mn1	0.000000	0.000000	0.000000
Mn21	Mn2	0.250000	0.500000	0.500000
H11	H1	0.125000	0.646800	0.853200
H21	H2	0.625000	0.353200	0.146800
H31	H3	0.021800	0.853200	0.353200
H41	H4	0.228200	0.146800	0.646800
C11	C1	0.110800	0.807600	0.823400
C21	C2	0.741800	0.192400	0.176600
C31	C3	0.065800	0.823400	0.192400
C41	C4	0.081600	0.176600	0.807600
C51	C5	0.508200	0.323400	0.307600
C61	C6	0.139200	0.676600	0.692400
C71	C7	0.168400	0.692400	0.323400
C81	C8	0.184200	0.307600	0.676600
C91	C9	0.125000	0.866600	0.633400
C101	C10	0.125000	0.701300	0.798700
C111	C11	0.625000	0.133400	0.366600
C121	C12	0.625000	0.298700	0.201300
C131	C13	0.241600	0.633400	0.133400
C141	C14	0.076300	0.798700	0.298700
C151	C15	0.008400	0.366600	0.866600
C161	C16	0.173700	0.201300	0.701300
S11	S1	0.125000	0.962500	0.537500
S21	S2	0.625000	0.037500	0.462500
S31	S3	0.337500	0.537500	0.037500
S41	S4	0.912500	0.462500	0.962500
N11	N1	0.112500	0.886600	0.739200
N21	N2	0.738300	0.113400	0.260800
N31	N3	0.148300	0.739200	0.113400
N41	N4	0.000900	0.260800	0.886600
N51	N5	0.511700	0.239200	0.386600
N61	N6	0.137500	0.760800	0.613400
N71	N7	0.249100	0.613400	0.239200
N81	N8	0.101700	0.386600	0.760800
O11	O1	0.106450	0.841160	0.913940
O21	O2	0.861550	0.158840	0.086060
O31	O3	0.979610	0.913940	0.158840
O41	O4	0.052390	0.086060	0.841160
O51	O5	0.388450	0.413940	0.341160
O61	O6	0.143550	0.586060	0.658840
O71	O7	0.197610	0.658840	0.413940
O81	O8	0.270390	0.341160	0.586060
