data_GOLYOX_clean_PM
_symmetry_space_group_name_H-M	'P1'
_cell_length_a	14.090500
_cell_length_b	14.676200
_cell_length_c	21.585800
_cell_angle_alpha	89.937000
_cell_angle_beta	85.402000
_cell_angle_gamma	61.994000
_symmetry_Int_Tables_number 1

loop_
_symmetry_equiv_pos_as_xyz
'x,y,z'

loop_
_atom_site_label
_atom_site_type_symbol
_atom_site_fract_x
_atom_site_fract_y
_atom_site_fract_z
C11	C1	0.221300	0.324000	0.744230
C21	C2	0.159900	0.426500	0.764590
H11	H1	0.117300	0.442800	0.802300
C31	C3	0.161400	0.503600	0.729670
C41	C4	0.220800	0.484500	0.672920
H21	H2	0.219400	0.538700	0.650000
C51	C5	0.282100	0.384300	0.650760
C61	C6	0.281500	0.303300	0.687230
H31	H3	0.322400	0.235200	0.672400
C71	C7	0.139100	0.173900	0.858520
H41	H4	0.080400	0.186800	0.886700
C81	C8	0.138200	0.256400	0.824990
H51	H5	0.081000	0.322700	0.832400
C91	C9	0.222300	0.238900	0.781090
C101	C10	0.305100	0.140200	0.773730
H61	H6	0.364400	0.124900	0.745300
C111	C11	0.300200	0.063200	0.808880
H71	H7	0.356800	0.996500	0.802000
C121	C12	0.433800	0.251200	0.497710
H81	H8	0.450400	0.190300	0.475800
C131	C13	0.378000	0.269200	0.554910
H91	H9	0.362200	0.218600	0.571200
C141	C14	0.344900	0.358400	0.588580
C151	C15	0.375300	0.426300	0.561530
H101	H10	0.360600	0.486600	0.583500
C161	C16	0.427600	0.406800	0.501970
H111	H11	0.436600	0.459000	0.482400
C171	C17	0.003600	0.656800	0.771500
C181	C18	0.977500	0.722000	0.823630
H121	H12	0.031600	0.720900	0.846100
C191	C19	0.869900	0.788900	0.841890
C201	C20	0.788500	0.793000	0.808110
H131	H13	0.716800	0.839800	0.819900
C211	C21	0.815200	0.726400	0.756460
C221	C22	0.923200	0.658800	0.737670
H141	H14	0.941000	0.615200	0.702600
C231	C23	0.553200	0.816200	0.687150
H151	H15	0.489500	0.877800	0.685900
C241	C24	0.632100	0.818400	0.717030
H161	H16	0.621200	0.880100	0.735600
C251	C25	0.729000	0.730300	0.720520
C261	C26	0.735300	0.641700	0.693680
H171	H17	0.796800	0.578800	0.696600
C271	C27	0.652300	0.645300	0.662960
H181	H18	0.661200	0.584600	0.644000
C281	C28	0.904300	0.921900	0.980800
H191	H19	0.962000	0.922400	0.998800
C291	C29	0.923600	0.868900	0.928740
H201	H20	0.993700	0.837600	0.909600
C301	C30	0.844300	0.856500	0.900100
C311	C31	0.740600	0.919000	0.926550
H211	H21	0.681300	0.922500	0.908400
C321	C32	0.726500	0.976400	0.980890
H221	H22	0.656100	0.018200	0.997900
C331	C33	0.555500	0.429000	0.303330
C341	C34	0.517200	0.538900	0.286110
C351	C35	0.450000	0.618300	0.330030
H231	H23	0.428500	0.603100	0.368800
C361	C36	0.416800	0.719200	0.314270
H241	H24	0.374000	0.772700	0.343200
C371	C37	0.445800	0.741500	0.257160
C381	C38	0.514100	0.663400	0.213010
H251	H25	0.534200	0.679400	0.174100
C391	C39	0.551000	0.560900	0.229200
H261	H26	0.598600	0.507500	0.201500
C401	C40	0.265300	0.909600	0.217650
C411	C41	0.176400	0.986400	0.253160
H271	H27	0.186000	0.015200	0.289000
C421	C42	0.073800	0.019400	0.234620
H281	H28	0.014400	0.071100	0.257800
C431	C43	0.059200	0.975800	0.181660
C441	C44	0.147900	0.899600	0.146390
H291	H29	0.138200	0.871000	0.110600
C451	C45	0.251500	0.865900	0.164570
H301	H30	0.310900	0.814300	0.141200
C461	C46	0.951700	0.012000	0.158970
C471	C47	0.704500	0.085600	0.354250
C481	C48	0.785900	0.975800	0.347120
C491	C49	0.774400	0.903300	0.383550
H311	H31	0.713100	0.923500	0.411100
C501	C50	0.854100	0.800000	0.379160
H321	H32	0.845900	0.751300	0.403400
C511	C51	0.946000	0.770600	0.338210
C521	C52	0.958600	0.842200	0.301850
H331	H33	0.020400	0.821800	0.274700
C531	C53	0.878400	0.945200	0.305860
H341	H34	0.886500	0.993500	0.281100
C541	C54	0.118500	0.649800	0.401740
C551	C55	0.092900	0.621100	0.458090
H351	H35	0.050000	0.588500	0.462200
C561	C56	0.133900	0.642800	0.508820
H361	H36	0.112600	0.628600	0.548000
C571	C57	0.201600	0.682700	0.505630
C581	C58	0.232000	0.707100	0.446520
H371	H37	0.279800	0.734300	0.442500
C591	C59	0.189800	0.690200	0.394480
H381	H38	0.209100	0.705800	0.355200
C601	C60	0.247800	0.702900	0.562200
C611	C61	0.780500	0.256400	0.094150
C621	C62	0.801400	0.328300	0.052790
C631	C63	0.799700	0.417800	0.079510
H391	H39	0.780000	0.434000	0.121800
C641	C64	0.826800	0.479800	0.043320
H401	H40	0.829000	0.536500	0.061000
C651	C65	0.851000	0.457400	0.980330
C661	C66	0.857800	0.368000	0.953440
H411	H41	0.879100	0.351400	0.911300
C671	C67	0.832100	0.304700	0.990580
H421	H42	0.835700	0.245200	0.973100
C681	C68	0.750600	0.620400	0.907090
C691	C69	0.684400	0.707100	0.942490
H431	H43	0.707900	0.724100	0.977600
C701	C70	0.580200	0.770300	0.925440
H441	H44	0.534900	0.830300	0.949100
C711	C71	0.544200	0.745000	0.874410
C721	C72	0.613200	0.656500	0.837730
H451	H45	0.590100	0.640500	0.802100
C731	C73	0.716200	0.592400	0.854740
H461	H46	0.761700	0.531700	0.831700
C741	C74	0.430100	0.812600	0.857810
N11	N1	0.220600	0.077900	0.851630
N21	N2	0.465700	0.314200	0.471640
N31	N3	0.558900	0.731600	0.658750
N41	N4	0.804000	0.976300	0.009780
Ni11	Ni1	0.787720	0.045310	0.097970
Ni21	Ni2	0.723720	0.214760	0.228510
O11	O1	0.111470	0.604770	0.752520
O21	O2	0.531150	0.411320	0.357070
O31	O3	0.608230	0.361500	0.260630
O41	O4	0.389300	0.931250	0.292690
O51	O5	0.458400	0.877140	0.182700
O61	O6	0.864630	0.073860	0.189760
O71	O7	0.950480	0.975310	0.106420
O81	O8	0.637800	0.112790	0.399380
O91	O9	0.694450	0.154430	0.317430
O101	O10	0.006900	0.575230	0.350850
O111	O11	0.124700	0.626100	0.280550
O121	O12	0.205800	0.694600	0.612810
Ni31	Ni3	0.568370	0.271200	0.389010
O131	O13	0.322860	0.724750	0.553330
O141	O14	0.754600	0.283520	0.150870
O151	O15	0.787250	0.178090	0.068680
O161	O16	0.905660	0.603750	0.970100
O171	O17	0.950160	0.481520	0.879520
O181	O18	0.372890	0.883680	0.898880
O191	O19	0.401290	0.793410	0.806910
S11	S1	0.397360	0.872280	0.237300
S21	S2	0.052180	0.644550	0.336610
S31	S3	0.879060	0.541600	0.932250
C751	C75	0.778700	0.676000	0.255770
C761	C76	0.840100	0.573500	0.235410
H471	H47	0.882700	0.557200	0.197700
C771	C77	0.838600	0.496400	0.270330
C781	C78	0.779200	0.515500	0.327080
H481	H48	0.780600	0.461300	0.350000
C791	C79	0.717900	0.615700	0.349240
C801	C80	0.718500	0.696700	0.312770
H491	H49	0.677600	0.764800	0.327600
C811	C81	0.860900	0.826100	0.141480
H501	H50	0.919600	0.813200	0.113300
C821	C82	0.861800	0.743600	0.175010
H511	H51	0.919000	0.677300	0.167600
C831	C83	0.777700	0.761100	0.218910
C841	C84	0.694900	0.859800	0.226270
H521	H52	0.635600	0.875100	0.254700
C851	C85	0.699800	0.936800	0.191120
H531	H53	0.643200	0.003500	0.198000
C861	C86	0.566200	0.748800	0.502290
H541	H54	0.549600	0.809700	0.524200
C871	C87	0.622000	0.730800	0.445090
H551	H55	0.637800	0.781400	0.428800
C881	C88	0.655100	0.641600	0.411420
C891	C89	0.624700	0.573700	0.438470
H561	H56	0.639400	0.513400	0.416500
C901	C90	0.572400	0.593200	0.498030
H571	H57	0.563400	0.541000	0.517600
C911	C91	0.996400	0.343200	0.228500
C921	C92	0.022500	0.278000	0.176370
H581	H58	0.968400	0.279100	0.153900
C931	C93	0.130100	0.211100	0.158110
C941	C94	0.211500	0.207000	0.191890
H591	H59	0.283200	0.160200	0.180100
C951	C95	0.184800	0.273600	0.243540
C961	C96	0.076800	0.341200	0.262330
H601	H60	0.059000	0.384800	0.297400
C971	C97	0.446800	0.183800	0.312850
H611	H61	0.510500	0.122200	0.314100
C981	C98	0.367900	0.181600	0.282970
H621	H62	0.378800	0.119900	0.264400
C991	C99	0.271000	0.269700	0.279480
C1001	C100	0.264700	0.358300	0.306320
H631	H63	0.203200	0.421200	0.303400
C1011	C101	0.347700	0.354700	0.337040
H641	H64	0.338800	0.415400	0.356000
C1021	C102	0.095700	0.078100	0.019200
H651	H65	0.038000	0.077600	0.001200
C1031	C103	0.076400	0.131100	0.071260
H661	H66	0.006300	0.162400	0.090400
C1041	C104	0.155700	0.143500	0.099900
C1051	C105	0.259400	0.081000	0.073450
H671	H67	0.318700	0.077500	0.091600
C1061	C106	0.273500	0.023600	0.019110
H681	H68	0.343900	0.981800	0.002100
C1071	C107	0.444500	0.571000	0.696670
C1081	C108	0.482800	0.461100	0.713890
C1091	C109	0.550000	0.381700	0.669970
H691	H69	0.571500	0.396900	0.631200
C1101	C110	0.583200	0.280800	0.685730
H701	H70	0.626000	0.227300	0.656800
C1111	C111	0.554200	0.258500	0.742840
C1121	C112	0.485900	0.336600	0.786990
H711	H71	0.465800	0.320600	0.825900
C1131	C113	0.449000	0.439100	0.770800
H721	H72	0.401400	0.492500	0.798500
C1141	C114	0.734700	0.090400	0.782350
C1151	C115	0.823600	0.013600	0.746840
H731	H73	0.814000	0.984800	0.711000
C1161	C116	0.926200	0.980600	0.765380
H741	H74	0.985600	0.928900	0.742200
C1171	C117	0.940800	0.024200	0.818340
C1181	C118	0.852100	0.100400	0.853610
H751	H75	0.861800	0.129000	0.889400
C1191	C119	0.748500	0.134100	0.835430
H761	H76	0.689100	0.185700	0.858800
C1201	C120	0.048300	0.988000	0.841030
C1211	C121	0.295500	0.914400	0.645750
C1221	C122	0.214100	0.024200	0.652880
C1231	C123	0.225600	0.096700	0.616450
H771	H77	0.286900	0.076500	0.588900
C1241	C124	0.145900	0.200000	0.620840
H781	H78	0.154100	0.248700	0.596600
C1251	C125	0.054000	0.229400	0.661790
C1261	C126	0.041400	0.157800	0.698150
H791	H79	0.979600	0.178200	0.725300
C1271	C127	0.121600	0.054800	0.694140
H801	H80	0.113500	0.006500	0.718900
C1281	C128	0.881500	0.350200	0.598260
C1291	C129	0.907100	0.378900	0.541910
H811	H81	0.950000	0.411500	0.537800
C1301	C130	0.866100	0.357200	0.491180
H821	H82	0.887400	0.371400	0.452000
C1311	C131	0.798400	0.317300	0.494370
C1321	C132	0.768000	0.292900	0.553480
H831	H83	0.720200	0.265700	0.557500
C1331	C133	0.810200	0.309800	0.605520
H841	H84	0.790900	0.294200	0.644800
C1341	C134	0.752200	0.297100	0.437800
C1351	C135	0.219500	0.743600	0.905850
C1361	C136	0.198600	0.671700	0.947210
C1371	C137	0.200300	0.582200	0.920490
H851	H85	0.220000	0.566000	0.878200
C1381	C138	0.173200	0.520200	0.956680
H861	H86	0.171000	0.463500	0.939000
C1391	C139	0.149000	0.542600	0.019670
C1401	C140	0.142200	0.632000	0.046560
H871	H87	0.120900	0.648600	0.088700
C1411	C141	0.167900	0.695300	0.009420
H881	H88	0.164300	0.754800	0.026900
C1421	C142	0.249400	0.379600	0.092910
C1431	C143	0.315600	0.292900	0.057510
H891	H89	0.292100	0.275900	0.022400
C1441	C144	0.419800	0.229700	0.074560
H901	H90	0.465100	0.169700	0.050900
C1451	C145	0.455800	0.255000	0.125590
C1461	C146	0.386800	0.343500	0.162270
H911	H91	0.409900	0.359500	0.197900
C1471	C147	0.283800	0.407600	0.145260
H921	H92	0.238300	0.468300	0.168300
C1481	C148	0.569900	0.187400	0.142190
N51	N5	0.779400	0.922100	0.148370
N61	N6	0.534300	0.685800	0.528360
N71	N7	0.441100	0.268400	0.341250
N81	N8	0.196000	0.023700	0.990220
Ni41	Ni4	0.212280	0.954690	0.902030
Ni51	Ni5	0.276280	0.785240	0.771490
O201	O20	0.888530	0.395230	0.247480
O211	O21	0.468850	0.588680	0.642930
O221	O22	0.391770	0.638500	0.739370
O231	O23	0.610700	0.068750	0.707310
O241	O24	0.541600	0.122860	0.817300
O251	O25	0.135370	0.926140	0.810240
O261	O26	0.049520	0.024690	0.893580
O271	O27	0.362200	0.887210	0.600620
O281	O28	0.305550	0.845570	0.682570
O291	O29	0.993100	0.424770	0.649150
O301	O30	0.875300	0.373900	0.719450
O311	O31	0.794200	0.305400	0.387190
Ni61	Ni6	0.431630	0.728800	0.610990
O321	O32	0.677140	0.275250	0.446670
O331	O33	0.245400	0.716480	0.849130
O341	O34	0.212750	0.821910	0.931320
O351	O35	0.094340	0.396250	0.029900
O361	O36	0.049840	0.518480	0.120480
O371	O37	0.627110	0.116320	0.101120
O381	O38	0.598710	0.206590	0.193090
S41	S4	0.602640	0.127720	0.762700
S51	S5	0.947820	0.355450	0.663390
S61	S6	0.120940	0.458400	0.067750
