data_GOMFOF_clean_PM
_symmetry_space_group_name_H-M	'P1'
_cell_length_a	45.708000
_cell_length_b	45.708000
_cell_length_c	7.981900
_cell_angle_alpha	90.000000
_cell_angle_beta	90.000000
_cell_angle_gamma	90.000000
_symmetry_Int_Tables_number 1

loop_
_symmetry_equiv_pos_as_xyz
'x,y,z'

loop_
_atom_site_label
_atom_site_type_symbol
_atom_site_fract_x
_atom_site_fract_y
_atom_site_fract_z
N11	N1	0.537400	0.272500	0.121000
C11	C1	0.540400	0.304200	0.117100
C21	C2	0.571000	0.309300	0.074900
H11	H1	0.579300	0.328100	0.058600
C31	C3	0.585900	0.283800	0.061900
H21	H2	0.606100	0.281700	0.037200
C41	C4	0.565400	0.260600	0.092600
C51	C5	0.574200	0.231000	0.106300
C61	C6	0.604600	0.223200	0.092000
C71	C7	0.624600	0.237400	0.191100
H31	H3	0.618100	0.251300	0.272000
C81	C8	0.654300	0.231500	0.173000
H41	H4	0.668300	0.240300	0.244800
C91	C9	0.662400	0.213000	0.053000
C101	C10	0.643200	0.197300	0.955300
H51	H5	0.650200	0.183200	0.877400
C111	C11	0.613500	0.202400	0.974000
H61	H6	0.599500	0.192100	0.907900
S11	S1	0.701420	0.205800	0.002800
O11	O1	0.712400	0.197700	0.157000
O21	O2	0.713400	0.232500	0.981000
O31	O3	0.704000	0.185700	0.891000
N21	N2	0.037400	0.772500	0.621000
C121	C12	0.040400	0.804200	0.617100
C131	C13	0.071000	0.809300	0.574900
H71	H7	0.079300	0.828100	0.558600
C141	C14	0.085900	0.783800	0.561900
H81	H8	0.106100	0.781700	0.537200
C151	C15	0.065400	0.760600	0.592600
C161	C16	0.074200	0.731000	0.606300
C171	C17	0.104600	0.723200	0.592000
C181	C18	0.124600	0.737400	0.691100
H91	H9	0.118100	0.751300	0.772000
C191	C19	0.154300	0.731500	0.673000
H101	H10	0.168300	0.740300	0.744800
C201	C20	0.162400	0.713000	0.553000
C211	C21	0.143200	0.697300	0.455300
H111	H11	0.150200	0.683200	0.377400
C221	C22	0.113500	0.702400	0.474000
H121	H12	0.099500	0.692100	0.407900
S21	S2	0.201420	0.705800	0.502800
O41	O4	0.212400	0.697700	0.657000
O51	O5	0.213400	0.732500	0.481000
O61	O6	0.204000	0.685700	0.391000
N31	N3	0.962600	0.727500	0.621000
C231	C23	0.959600	0.695800	0.617100
C241	C24	0.929000	0.690700	0.574900
H131	H13	0.920700	0.671900	0.558600
C251	C25	0.914100	0.716200	0.561900
H141	H14	0.893900	0.718300	0.537200
C261	C26	0.934600	0.739400	0.592600
C271	C27	0.925800	0.769000	0.606300
C281	C28	0.895400	0.776800	0.592000
C291	C29	0.875400	0.762600	0.691100
H151	H15	0.881900	0.748700	0.772000
C301	C30	0.845700	0.768500	0.673000
H161	H16	0.831700	0.759700	0.744800
C311	C31	0.837600	0.787000	0.553000
C321	C32	0.856800	0.802700	0.455300
H171	H17	0.849800	0.816800	0.377400
C331	C33	0.886500	0.797600	0.474000
H181	H18	0.900500	0.807900	0.407900
S31	S3	0.798580	0.794200	0.502800
O71	O7	0.787600	0.802300	0.657000
O81	O8	0.786600	0.767500	0.481000
O91	O9	0.796000	0.814300	0.391000
N41	N4	0.462600	0.227500	0.121000
C341	C34	0.459600	0.195800	0.117100
C351	C35	0.429000	0.190700	0.074900
H191	H19	0.420700	0.171900	0.058600
C361	C36	0.414100	0.216200	0.061900
H201	H20	0.393900	0.218300	0.037200
C371	C37	0.434600	0.239400	0.092600
C381	C38	0.425800	0.269000	0.106300
C391	C39	0.395400	0.276800	0.092000
C401	C40	0.375400	0.262600	0.191100
H211	H21	0.381900	0.248700	0.272000
C411	C41	0.345700	0.268500	0.173000
H221	H22	0.331700	0.259700	0.244800
C421	C42	0.337600	0.287000	0.053000
C431	C43	0.356800	0.302700	0.955300
H231	H23	0.349800	0.316800	0.877400
C441	C44	0.386500	0.297600	0.974000
H241	H24	0.400500	0.307900	0.907900
S41	S4	0.298580	0.294200	0.002800
O101	O10	0.287600	0.302300	0.157000
O111	O11	0.286600	0.267500	0.981000
O121	O12	0.296000	0.314300	0.891000
N51	N5	0.977500	0.287400	0.371000
C451	C45	0.945800	0.290400	0.367100
C461	C46	0.940700	0.321000	0.324900
H251	H25	0.921900	0.329300	0.308600
C471	C47	0.966200	0.335900	0.311900
H261	H26	0.968300	0.356100	0.287200
C481	C48	0.989400	0.315400	0.342600
C491	C49	0.019000	0.324200	0.356300
C501	C50	0.026800	0.354600	0.342000
C511	C51	0.012600	0.374600	0.441100
H271	H27	0.998700	0.368100	0.522000
C521	C52	0.018500	0.404300	0.423000
H281	H28	0.009700	0.418300	0.494800
C531	C53	0.037000	0.412400	0.303000
C541	C54	0.052700	0.393200	0.205300
H291	H29	0.066800	0.400200	0.127400
C551	C55	0.047600	0.363500	0.224000
H301	H30	0.057900	0.349500	0.157900
S51	S5	0.044200	0.451420	0.252800
O131	O13	0.052300	0.462400	0.407000
O141	O14	0.017500	0.463400	0.231000
O151	O15	0.064300	0.454000	0.141000
N61	N6	0.477500	0.787400	0.871000
C561	C56	0.445800	0.790400	0.867100
C571	C57	0.440700	0.821000	0.824900
H311	H31	0.421900	0.829300	0.808600
C581	C58	0.466200	0.835900	0.811900
H321	H32	0.468300	0.856100	0.787200
C591	C59	0.489400	0.815400	0.842600
C601	C60	0.519000	0.824200	0.856300
C611	C61	0.526800	0.854600	0.842000
C621	C62	0.512600	0.874600	0.941100
H331	H33	0.498700	0.868100	0.022000
C631	C63	0.518500	0.904300	0.923000
H341	H34	0.509700	0.918300	0.994800
C641	C64	0.537000	0.912400	0.803000
C651	C65	0.552700	0.893200	0.705300
H351	H35	0.566800	0.900200	0.627400
C661	C66	0.547600	0.863500	0.724000
H361	H36	0.557900	0.849500	0.657900
S61	S6	0.544200	0.951420	0.752800
O161	O16	0.552300	0.962400	0.907000
O171	O17	0.517500	0.963400	0.731000
O181	O18	0.564300	0.954000	0.641000
N71	N7	0.522500	0.712600	0.871000
C671	C67	0.554200	0.709600	0.867100
C681	C68	0.559300	0.679000	0.824900
H371	H37	0.578100	0.670700	0.808600
C691	C69	0.533800	0.664100	0.811900
H381	H38	0.531700	0.643900	0.787200
C701	C70	0.510600	0.684600	0.842600
C711	C71	0.481000	0.675800	0.856300
C721	C72	0.473200	0.645400	0.842000
C731	C73	0.487400	0.625400	0.941100
H391	H39	0.501300	0.631900	0.022000
C741	C74	0.481500	0.595700	0.923000
H401	H40	0.490300	0.581700	0.994800
C751	C75	0.463000	0.587600	0.803000
C761	C76	0.447300	0.606800	0.705300
H411	H41	0.433200	0.599800	0.627400
C771	C77	0.452400	0.636500	0.724000
H421	H42	0.442100	0.650500	0.657900
S71	S7	0.455800	0.548580	0.752800
O191	O19	0.447700	0.537600	0.907000
O201	O20	0.482500	0.536600	0.731000
O211	O21	0.435700	0.546000	0.641000
N81	N8	0.022500	0.212600	0.371000
C781	C78	0.054200	0.209600	0.367100
C791	C79	0.059300	0.179000	0.324900
H431	H43	0.078100	0.170700	0.308600
C801	C80	0.033800	0.164100	0.311900
H441	H44	0.031700	0.143900	0.287200
C811	C81	0.010600	0.184600	0.342600
C821	C82	0.981000	0.175800	0.356300
C831	C83	0.973200	0.145400	0.342000
C841	C84	0.987400	0.125400	0.441100
H451	H45	0.001300	0.131900	0.522000
C851	C85	0.981500	0.095700	0.423000
H461	H46	0.990300	0.081700	0.494800
C861	C86	0.963000	0.087600	0.303000
C871	C87	0.947300	0.106800	0.205300
H471	H47	0.933200	0.099800	0.127400
C881	C88	0.952400	0.136500	0.224000
H481	H48	0.942100	0.150500	0.157900
S81	S8	0.955800	0.048580	0.252800
O221	O22	0.947700	0.037600	0.407000
O231	O23	0.982500	0.036600	0.231000
O241	O24	0.935700	0.046000	0.141000
N91	N9	0.962600	0.272500	0.879000
C891	C89	0.959600	0.304200	0.882900
C901	C90	0.929000	0.309300	0.925100
H491	H49	0.920700	0.328100	0.941400
C911	C91	0.914100	0.283800	0.938100
H501	H50	0.893900	0.281700	0.962800
C921	C92	0.934600	0.260600	0.907400
C931	C93	0.925800	0.231000	0.893700
C941	C94	0.895400	0.223200	0.908000
C951	C95	0.875400	0.237400	0.808900
H511	H51	0.881900	0.251300	0.728000
C961	C96	0.845700	0.231500	0.827000
H521	H52	0.831700	0.240300	0.755200
C971	C97	0.837600	0.213000	0.947000
C981	C98	0.856800	0.197300	0.044700
H531	H53	0.849800	0.183200	0.122600
C991	C99	0.886500	0.202400	0.026000
H541	H54	0.900500	0.192100	0.092100
S91	S9	0.798580	0.205800	0.997200
O251	O25	0.787600	0.197700	0.843000
O261	O26	0.786600	0.232500	0.019000
O271	O27	0.796000	0.185700	0.109000
N101	N10	0.462600	0.772500	0.379000
C1001	C100	0.459600	0.804200	0.382900
C1011	C101	0.429000	0.809300	0.425100
H551	H55	0.420700	0.828100	0.441400
C1021	C102	0.414100	0.783800	0.438100
H561	H56	0.393900	0.781700	0.462800
C1031	C103	0.434600	0.760600	0.407400
C1041	C104	0.425800	0.731000	0.393700
C1051	C105	0.395400	0.723200	0.408000
C1061	C106	0.375400	0.737400	0.308900
H571	H57	0.381900	0.751300	0.228000
C1071	C107	0.345700	0.731500	0.327000
H581	H58	0.331700	0.740300	0.255200
C1081	C108	0.337600	0.713000	0.447000
C1091	C109	0.356800	0.697300	0.544700
H591	H59	0.349800	0.683200	0.622600
C1101	C110	0.386500	0.702400	0.526000
H601	H60	0.400500	0.692100	0.592100
S101	S10	0.298580	0.705800	0.497200
O281	O28	0.287600	0.697700	0.343000
O291	O29	0.286600	0.732500	0.519000
O301	O30	0.296000	0.685700	0.609000
N111	N11	0.537400	0.727500	0.379000
C1111	C111	0.540400	0.695800	0.382900
C1121	C112	0.571000	0.690700	0.425100
H611	H61	0.579300	0.671900	0.441400
C1131	C113	0.585900	0.716200	0.438100
H621	H62	0.606100	0.718300	0.462800
C1141	C114	0.565400	0.739400	0.407400
C1151	C115	0.574200	0.769000	0.393700
C1161	C116	0.604600	0.776800	0.408000
C1171	C117	0.624600	0.762600	0.308900
H631	H63	0.618100	0.748700	0.228000
C1181	C118	0.654300	0.768500	0.327000
H641	H64	0.668300	0.759700	0.255200
C1191	C119	0.662400	0.787000	0.447000
C1201	C120	0.643200	0.802700	0.544700
H651	H65	0.650200	0.816800	0.622600
C1211	C121	0.613500	0.797600	0.526000
H661	H66	0.599500	0.807900	0.592100
S111	S11	0.701420	0.794200	0.497200
O311	O31	0.712400	0.802300	0.343000
O321	O32	0.713400	0.767500	0.519000
O331	O33	0.704000	0.814300	0.609000
N121	N12	0.037400	0.227500	0.879000
C1221	C122	0.040400	0.195800	0.882900
C1231	C123	0.071000	0.190700	0.925100
H671	H67	0.079300	0.171900	0.941400
C1241	C124	0.085900	0.216200	0.938100
H681	H68	0.106100	0.218300	0.962800
C1251	C125	0.065400	0.239400	0.907400
C1261	C126	0.074200	0.269000	0.893700
C1271	C127	0.104600	0.276800	0.908000
C1281	C128	0.124600	0.262600	0.808900
H691	H69	0.118100	0.248700	0.728000
C1291	C129	0.154300	0.268500	0.827000
H701	H70	0.168300	0.259700	0.755200
C1301	C130	0.162400	0.287000	0.947000
C1311	C131	0.143200	0.302700	0.044700
H711	H71	0.150200	0.316800	0.122600
C1321	C132	0.113500	0.297600	0.026000
H721	H72	0.099500	0.307900	0.092100
S121	S12	0.201420	0.294200	0.997200
O341	O34	0.212400	0.302300	0.843000
O351	O35	0.213400	0.267500	0.019000
O361	O36	0.204000	0.314300	0.109000
N131	N13	0.522500	0.287400	0.629000
C1331	C133	0.554200	0.290400	0.632900
C1341	C134	0.559300	0.321000	0.675100
H731	H73	0.578100	0.329300	0.691400
C1351	C135	0.533800	0.335900	0.688100
H741	H74	0.531700	0.356100	0.712800
C1361	C136	0.510600	0.315400	0.657400
C1371	C137	0.481000	0.324200	0.643700
C1381	C138	0.473200	0.354600	0.658000
C1391	C139	0.487400	0.374600	0.558900
H751	H75	0.501300	0.368100	0.478000
C1401	C140	0.481500	0.404300	0.577000
H761	H76	0.490300	0.418300	0.505200
C1411	C141	0.463000	0.412400	0.697000
C1421	C142	0.447300	0.393200	0.794700
H771	H77	0.433200	0.400200	0.872600
C1431	C143	0.452400	0.363500	0.776000
H781	H78	0.442100	0.349500	0.842100
S131	S13	0.455800	0.451420	0.747200
O371	O37	0.447700	0.462400	0.593000
O381	O38	0.482500	0.463400	0.769000
O391	O39	0.435700	0.454000	0.859000
N141	N14	0.022500	0.787400	0.129000
C1441	C144	0.054200	0.790400	0.132900
C1451	C145	0.059300	0.821000	0.175100
H791	H79	0.078100	0.829300	0.191400
C1461	C146	0.033800	0.835900	0.188100
H801	H80	0.031700	0.856100	0.212800
C1471	C147	0.010600	0.815400	0.157400
C1481	C148	0.981000	0.824200	0.143700
C1491	C149	0.973200	0.854600	0.158000
C1501	C150	0.987400	0.874600	0.058900
H811	H81	0.001300	0.868100	0.978000
C1511	C151	0.981500	0.904300	0.077000
H821	H82	0.990300	0.918300	0.005200
C1521	C152	0.963000	0.912400	0.197000
C1531	C153	0.947300	0.893200	0.294700
H831	H83	0.933200	0.900200	0.372600
C1541	C154	0.952400	0.863500	0.276000
H841	H84	0.942100	0.849500	0.342100
S141	S14	0.955800	0.951420	0.247200
O401	O40	0.947700	0.962400	0.093000
O411	O41	0.982500	0.963400	0.269000
O421	O42	0.935700	0.954000	0.359000
N151	N15	0.977500	0.712600	0.129000
C1551	C155	0.945800	0.709600	0.132900
C1561	C156	0.940700	0.679000	0.175100
H851	H85	0.921900	0.670700	0.191400
C1571	C157	0.966200	0.664100	0.188100
H861	H86	0.968300	0.643900	0.212800
C1581	C158	0.989400	0.684600	0.157400
C1591	C159	0.019000	0.675800	0.143700
C1601	C160	0.026800	0.645400	0.158000
C1611	C161	0.012600	0.625400	0.058900
H871	H87	0.998700	0.631900	0.978000
C1621	C162	0.018500	0.595700	0.077000
H881	H88	0.009700	0.581700	0.005200
C1631	C163	0.037000	0.587600	0.197000
C1641	C164	0.052700	0.606800	0.294700
H891	H89	0.066800	0.599800	0.372600
C1651	C165	0.047600	0.636500	0.276000
H901	H90	0.057900	0.650500	0.342100
S151	S15	0.044200	0.548580	0.247200
O431	O43	0.052300	0.537600	0.093000
O441	O44	0.017500	0.536600	0.269000
O451	O45	0.064300	0.546000	0.359000
N161	N16	0.477500	0.212600	0.629000
C1661	C166	0.445800	0.209600	0.632900
C1671	C167	0.440700	0.179000	0.675100
H911	H91	0.421900	0.170700	0.691400
C1681	C168	0.466200	0.164100	0.688100
H921	H92	0.468300	0.143900	0.712800
C1691	C169	0.489400	0.184600	0.657400
C1701	C170	0.519000	0.175800	0.643700
C1711	C171	0.526800	0.145400	0.658000
C1721	C172	0.512600	0.125400	0.558900
H931	H93	0.498700	0.131900	0.478000
C1731	C173	0.518500	0.095700	0.577000
H941	H94	0.509700	0.081700	0.505200
C1741	C174	0.537000	0.087600	0.697000
C1751	C175	0.552700	0.106800	0.794700
H951	H95	0.566800	0.099800	0.872600
C1761	C176	0.547600	0.136500	0.776000
H961	H96	0.557900	0.150500	0.842100
S161	S16	0.544200	0.048580	0.747200
O461	O46	0.552300	0.037600	0.593000
O471	O47	0.517500	0.036600	0.769000
O481	O48	0.564300	0.046000	0.859000
N171	N17	0.462600	0.727500	0.879000
C1771	C177	0.459600	0.695800	0.882900
C1781	C178	0.429000	0.690700	0.925100
H971	H97	0.420700	0.671900	0.941400
C1791	C179	0.414100	0.716200	0.938100
H981	H98	0.393900	0.718300	0.962800
C1801	C180	0.434600	0.739400	0.907400
C1811	C181	0.425800	0.769000	0.893700
C1821	C182	0.395400	0.776800	0.908000
C1831	C183	0.375400	0.762600	0.808900
H991	H99	0.381900	0.748700	0.728000
C1841	C184	0.345700	0.768500	0.827000
H1001	H100	0.331700	0.759700	0.755200
C1851	C185	0.337600	0.787000	0.947000
C1861	C186	0.356800	0.802700	0.044700
H1011	H101	0.349800	0.816800	0.122600
C1871	C187	0.386500	0.797600	0.026000
H1021	H102	0.400500	0.807900	0.092100
S171	S17	0.298580	0.794200	0.997200
O491	O49	0.287600	0.802300	0.843000
O501	O50	0.286600	0.767500	0.019000
O511	O51	0.296000	0.814300	0.109000
N181	N18	0.962600	0.227500	0.379000
C1881	C188	0.959600	0.195800	0.382900
C1891	C189	0.929000	0.190700	0.425100
H1031	H103	0.920700	0.171900	0.441400
C1901	C190	0.914100	0.216200	0.438100
H1041	H104	0.893900	0.218300	0.462800
C1911	C191	0.934600	0.239400	0.407400
C1921	C192	0.925800	0.269000	0.393700
C1931	C193	0.895400	0.276800	0.408000
C1941	C194	0.875400	0.262600	0.308900
H1051	H105	0.881900	0.248700	0.228000
C1951	C195	0.845700	0.268500	0.327000
H1061	H106	0.831700	0.259700	0.255200
C1961	C196	0.837600	0.287000	0.447000
C1971	C197	0.856800	0.302700	0.544700
H1071	H107	0.849800	0.316800	0.622600
C1981	C198	0.886500	0.297600	0.526000
H1081	H108	0.900500	0.307900	0.592100
S181	S18	0.798580	0.294200	0.497200
O521	O52	0.787600	0.302300	0.343000
O531	O53	0.786600	0.267500	0.519000
O541	O54	0.796000	0.314300	0.609000
N191	N19	0.037400	0.272500	0.379000
C1991	C199	0.040400	0.304200	0.382900
C2001	C200	0.071000	0.309300	0.425100
H1091	H109	0.079300	0.328100	0.441400
C2011	C201	0.085900	0.283800	0.438100
H1101	H110	0.106100	0.281700	0.462800
C2021	C202	0.065400	0.260600	0.407400
C2031	C203	0.074200	0.231000	0.393700
C2041	C204	0.104600	0.223200	0.408000
C2051	C205	0.124600	0.237400	0.308900
H1111	H111	0.118100	0.251300	0.228000
C2061	C206	0.154300	0.231500	0.327000
H1121	H112	0.168300	0.240300	0.255200
C2071	C207	0.162400	0.213000	0.447000
C2081	C208	0.143200	0.197300	0.544700
H1131	H113	0.150200	0.183200	0.622600
C2091	C209	0.113500	0.202400	0.526000
H1141	H114	0.099500	0.192100	0.592100
S191	S19	0.201420	0.205800	0.497200
O551	O55	0.212400	0.197700	0.343000
O561	O56	0.213400	0.232500	0.519000
O571	O57	0.204000	0.185700	0.609000
N201	N20	0.537400	0.772500	0.879000
C2101	C210	0.540400	0.804200	0.882900
C2111	C211	0.571000	0.809300	0.925100
H1151	H115	0.579300	0.828100	0.941400
C2121	C212	0.585900	0.783800	0.938100
H1161	H116	0.606100	0.781700	0.962800
C2131	C213	0.565400	0.760600	0.907400
C2141	C214	0.574200	0.731000	0.893700
C2151	C215	0.604600	0.723200	0.908000
C2161	C216	0.624600	0.737400	0.808900
H1171	H117	0.618100	0.751300	0.728000
C2171	C217	0.654300	0.731500	0.827000
H1181	H118	0.668300	0.740300	0.755200
C2181	C218	0.662400	0.713000	0.947000
C2191	C219	0.643200	0.697300	0.044700
H1191	H119	0.650200	0.683200	0.122600
C2201	C220	0.613500	0.702400	0.026000
H1201	H120	0.599500	0.692100	0.092100
S201	S20	0.701420	0.705800	0.997200
O581	O58	0.712400	0.697700	0.843000
O591	O59	0.713400	0.732500	0.019000
O601	O60	0.704000	0.685700	0.109000
N211	N21	0.022500	0.712600	0.629000
C2211	C221	0.054200	0.709600	0.632900
C2221	C222	0.059300	0.679000	0.675100
H1211	H121	0.078100	0.670700	0.691400
C2231	C223	0.033800	0.664100	0.688100
H1221	H122	0.031700	0.643900	0.712800
C2241	C224	0.010600	0.684600	0.657400
C2251	C225	0.981000	0.675800	0.643700
C2261	C226	0.973200	0.645400	0.658000
C2271	C227	0.987400	0.625400	0.558900
H1231	H123	0.001300	0.631900	0.478000
C2281	C228	0.981500	0.595700	0.577000
H1241	H124	0.990300	0.581700	0.505200
C2291	C229	0.963000	0.587600	0.697000
C2301	C230	0.947300	0.606800	0.794700
H1251	H125	0.933200	0.599800	0.872600
C2311	C231	0.952400	0.636500	0.776000
H1261	H126	0.942100	0.650500	0.842100
S211	S21	0.955800	0.548580	0.747200
O611	O61	0.947700	0.537600	0.593000
O621	O62	0.982500	0.536600	0.769000
O631	O63	0.935700	0.546000	0.859000
N221	N22	0.522500	0.212600	0.129000
C2321	C232	0.554200	0.209600	0.132900
C2331	C233	0.559300	0.179000	0.175100
H1271	H127	0.578100	0.170700	0.191400
C2341	C234	0.533800	0.164100	0.188100
H1281	H128	0.531700	0.143900	0.212800
C2351	C235	0.510600	0.184600	0.157400
C2361	C236	0.481000	0.175800	0.143700
C2371	C237	0.473200	0.145400	0.158000
C2381	C238	0.487400	0.125400	0.058900
H1291	H129	0.501300	0.131900	0.978000
C2391	C239	0.481500	0.095700	0.077000
H1301	H130	0.490300	0.081700	0.005200
C2401	C240	0.463000	0.087600	0.197000
C2411	C241	0.447300	0.106800	0.294700
H1311	H131	0.433200	0.099800	0.372600
C2421	C242	0.452400	0.136500	0.276000
H1321	H132	0.442100	0.150500	0.342100
S221	S22	0.455800	0.048580	0.247200
O641	O64	0.447700	0.037600	0.093000
O651	O65	0.482500	0.036600	0.269000
O661	O66	0.435700	0.046000	0.359000
N231	N23	0.477500	0.287400	0.129000
C2431	C243	0.445800	0.290400	0.132900
C2441	C244	0.440700	0.321000	0.175100
H1331	H133	0.421900	0.329300	0.191400
C2451	C245	0.466200	0.335900	0.188100
H1341	H134	0.468300	0.356100	0.212800
C2461	C246	0.489400	0.315400	0.157400
C2471	C247	0.519000	0.324200	0.143700
C2481	C248	0.526800	0.354600	0.158000
C2491	C249	0.512600	0.374600	0.058900
H1351	H135	0.498700	0.368100	0.978000
C2501	C250	0.518500	0.404300	0.077000
H1361	H136	0.509700	0.418300	0.005200
C2511	C251	0.537000	0.412400	0.197000
C2521	C252	0.552700	0.393200	0.294700
H1371	H137	0.566800	0.400200	0.372600
C2531	C253	0.547600	0.363500	0.276000
H1381	H138	0.557900	0.349500	0.342100
S231	S23	0.544200	0.451420	0.247200
O671	O67	0.552300	0.462400	0.093000
O681	O68	0.517500	0.463400	0.269000
O691	O69	0.564300	0.454000	0.359000
N241	N24	0.977500	0.787400	0.629000
C2541	C254	0.945800	0.790400	0.632900
C2551	C255	0.940700	0.821000	0.675100
H1391	H139	0.921900	0.829300	0.691400
C2561	C256	0.966200	0.835900	0.688100
H1401	H140	0.968300	0.856100	0.712800
C2571	C257	0.989400	0.815400	0.657400
C2581	C258	0.019000	0.824200	0.643700
C2591	C259	0.026800	0.854600	0.658000
C2601	C260	0.012600	0.874600	0.558900
H1411	H141	0.998700	0.868100	0.478000
C2611	C261	0.018500	0.904300	0.577000
H1421	H142	0.009700	0.918300	0.505200
C2621	C262	0.037000	0.912400	0.697000
C2631	C263	0.052700	0.893200	0.794700
H1431	H143	0.066800	0.900200	0.872600
C2641	C264	0.047600	0.863500	0.776000
H1441	H144	0.057900	0.849500	0.842100
S241	S24	0.044200	0.951420	0.747200
O701	O70	0.052300	0.962400	0.593000
O711	O71	0.017500	0.963400	0.769000
O721	O72	0.064300	0.954000	0.859000
N251	N25	0.037400	0.727500	0.121000
C2651	C265	0.040400	0.695800	0.117100
C2661	C266	0.071000	0.690700	0.074900
H1451	H145	0.079300	0.671900	0.058600
C2671	C267	0.085900	0.716200	0.061900
H1461	H146	0.106100	0.718300	0.037200
C2681	C268	0.065400	0.739400	0.092600
C2691	C269	0.074200	0.769000	0.106300
C2701	C270	0.104600	0.776800	0.092000
C2711	C271	0.124600	0.762600	0.191100
H1471	H147	0.118100	0.748700	0.272000
C2721	C272	0.154300	0.768500	0.173000
H1481	H148	0.168300	0.759700	0.244800
C2731	C273	0.162400	0.787000	0.053000
C2741	C274	0.143200	0.802700	0.955300
H1491	H149	0.150200	0.816800	0.877400
C2751	C275	0.113500	0.797600	0.974000
H1501	H150	0.099500	0.807900	0.907900
S251	S25	0.201420	0.794200	0.002800
O731	O73	0.212400	0.802300	0.157000
O741	O74	0.213400	0.767500	0.981000
O751	O75	0.204000	0.814300	0.891000
N261	N26	0.537400	0.227500	0.621000
C2761	C276	0.540400	0.195800	0.617100
C2771	C277	0.571000	0.190700	0.574900
H1511	H151	0.579300	0.171900	0.558600
C2781	C278	0.585900	0.216200	0.561900
H1521	H152	0.606100	0.218300	0.537200
C2791	C279	0.565400	0.239400	0.592600
C2801	C280	0.574200	0.269000	0.606300
C2811	C281	0.604600	0.276800	0.592000
C2821	C282	0.624600	0.262600	0.691100
H1531	H153	0.618100	0.248700	0.772000
C2831	C283	0.654300	0.268500	0.673000
H1541	H154	0.668300	0.259700	0.744800
C2841	C284	0.662400	0.287000	0.553000
C2851	C285	0.643200	0.302700	0.455300
H1551	H155	0.650200	0.316800	0.377400
C2861	C286	0.613500	0.297600	0.474000
H1561	H156	0.599500	0.307900	0.407900
S261	S26	0.701420	0.294200	0.502800
O761	O76	0.712400	0.302300	0.657000
O771	O77	0.713400	0.267500	0.481000
O781	O78	0.704000	0.314300	0.391000
N271	N27	0.462600	0.272500	0.621000
C2871	C287	0.459600	0.304200	0.617100
C2881	C288	0.429000	0.309300	0.574900
H1571	H157	0.420700	0.328100	0.558600
C2891	C289	0.414100	0.283800	0.561900
H1581	H158	0.393900	0.281700	0.537200
C2901	C290	0.434600	0.260600	0.592600
C2911	C291	0.425800	0.231000	0.606300
C2921	C292	0.395400	0.223200	0.592000
C2931	C293	0.375400	0.237400	0.691100
H1591	H159	0.381900	0.251300	0.772000
C2941	C294	0.345700	0.231500	0.673000
H1601	H160	0.331700	0.240300	0.744800
C2951	C295	0.337600	0.213000	0.553000
C2961	C296	0.356800	0.197300	0.455300
H1611	H161	0.349800	0.183200	0.377400
C2971	C297	0.386500	0.202400	0.474000
H1621	H162	0.400500	0.192100	0.407900
S271	S27	0.298580	0.205800	0.502800
O791	O79	0.287600	0.197700	0.657000
O801	O80	0.286600	0.232500	0.481000
O811	O81	0.296000	0.185700	0.391000
N281	N28	0.962600	0.772500	0.121000
C2981	C298	0.959600	0.804200	0.117100
C2991	C299	0.929000	0.809300	0.074900
H1631	H163	0.920700	0.828100	0.058600
C3001	C300	0.914100	0.783800	0.061900
H1641	H164	0.893900	0.781700	0.037200
C3011	C301	0.934600	0.760600	0.092600
C3021	C302	0.925800	0.731000	0.106300
C3031	C303	0.895400	0.723200	0.092000
C3041	C304	0.875400	0.737400	0.191100
H1651	H165	0.881900	0.751300	0.272000
C3051	C305	0.845700	0.731500	0.173000
H1661	H166	0.831700	0.740300	0.244800
C3061	C306	0.837600	0.713000	0.053000
C3071	C307	0.856800	0.697300	0.955300
H1671	H167	0.849800	0.683200	0.877400
C3081	C308	0.886500	0.702400	0.974000
H1681	H168	0.900500	0.692100	0.907900
S281	S28	0.798580	0.705800	0.002800
O821	O82	0.787600	0.697700	0.157000
O831	O83	0.786600	0.732500	0.981000
O841	O84	0.796000	0.685700	0.891000
N291	N29	0.477500	0.712600	0.371000
C3091	C309	0.445800	0.709600	0.367100
C3101	C310	0.440700	0.679000	0.324900
H1691	H169	0.421900	0.670700	0.308600
C3111	C311	0.466200	0.664100	0.311900
H1701	H170	0.468300	0.643900	0.287200
C3121	C312	0.489400	0.684600	0.342600
C3131	C313	0.519000	0.675800	0.356300
C3141	C314	0.526800	0.645400	0.342000
C3151	C315	0.512600	0.625400	0.441100
H1711	H171	0.498700	0.631900	0.522000
C3161	C316	0.518500	0.595700	0.423000
H1721	H172	0.509700	0.581700	0.494800
C3171	C317	0.537000	0.587600	0.303000
C3181	C318	0.552700	0.606800	0.205300
H1731	H173	0.566800	0.599800	0.127400
C3191	C319	0.547600	0.636500	0.224000
H1741	H174	0.557900	0.650500	0.157900
S291	S29	0.544200	0.548580	0.252800
O851	O85	0.552300	0.537600	0.407000
O861	O86	0.517500	0.536600	0.231000
O871	O87	0.564300	0.546000	0.141000
N301	N30	0.977500	0.212600	0.871000
C3201	C320	0.945800	0.209600	0.867100
C3211	C321	0.940700	0.179000	0.824900
H1751	H175	0.921900	0.170700	0.808600
C3221	C322	0.966200	0.164100	0.811900
H1761	H176	0.968300	0.143900	0.787200
C3231	C323	0.989400	0.184600	0.842600
C3241	C324	0.019000	0.175800	0.856300
C3251	C325	0.026800	0.145400	0.842000
C3261	C326	0.012600	0.125400	0.941100
H1771	H177	0.998700	0.131900	0.022000
C3271	C327	0.018500	0.095700	0.923000
H1781	H178	0.009700	0.081700	0.994800
C3281	C328	0.037000	0.087600	0.803000
C3291	C329	0.052700	0.106800	0.705300
H1791	H179	0.066800	0.099800	0.627400
C3301	C330	0.047600	0.136500	0.724000
H1801	H180	0.057900	0.150500	0.657900
S301	S30	0.044200	0.048580	0.752800
O881	O88	0.052300	0.037600	0.907000
O891	O89	0.017500	0.036600	0.731000
O901	O90	0.064300	0.046000	0.641000
N311	N31	0.022500	0.287400	0.871000
C3311	C331	0.054200	0.290400	0.867100
C3321	C332	0.059300	0.321000	0.824900
H1811	H181	0.078100	0.329300	0.808600
C3331	C333	0.033800	0.335900	0.811900
H1821	H182	0.031700	0.356100	0.787200
C3341	C334	0.010600	0.315400	0.842600
C3351	C335	0.981000	0.324200	0.856300
C3361	C336	0.973200	0.354600	0.842000
C3371	C337	0.987400	0.374600	0.941100
H1831	H183	0.001300	0.368100	0.022000
C3381	C338	0.981500	0.404300	0.923000
H1841	H184	0.990300	0.418300	0.994800
C3391	C339	0.963000	0.412400	0.803000
C3401	C340	0.947300	0.393200	0.705300
H1851	H185	0.933200	0.400200	0.627400
C3411	C341	0.952400	0.363500	0.724000
H1861	H186	0.942100	0.349500	0.657900
S311	S31	0.955800	0.451420	0.752800
O911	O91	0.947700	0.462400	0.907000
O921	O92	0.982500	0.463400	0.731000
O931	O93	0.935700	0.454000	0.641000
N321	N32	0.522500	0.787400	0.371000
C3421	C342	0.554200	0.790400	0.367100
C3431	C343	0.559300	0.821000	0.324900
H1871	H187	0.578100	0.829300	0.308600
C3441	C344	0.533800	0.835900	0.311900
H1881	H188	0.531700	0.856100	0.287200
C3451	C345	0.510600	0.815400	0.342600
C3461	C346	0.481000	0.824200	0.356300
C3471	C347	0.473200	0.854600	0.342000
C3481	C348	0.487400	0.874600	0.441100
H1891	H189	0.501300	0.868100	0.522000
C3491	C349	0.481500	0.904300	0.423000
H1901	H190	0.490300	0.918300	0.494800
C3501	C350	0.463000	0.912400	0.303000
C3511	C351	0.447300	0.893200	0.205300
H1911	H191	0.433200	0.900200	0.127400
C3521	C352	0.452400	0.863500	0.224000
H1921	H192	0.442100	0.849500	0.157900
S321	S32	0.455800	0.951420	0.252800
O941	O94	0.447700	0.962400	0.407000
O951	O95	0.482500	0.963400	0.231000
O961	O96	0.435700	0.954000	0.141000
Pd11	Pd1	0.500000	0.250000	0.125000
Pd21	Pd2	0.000000	0.750000	0.625000
Pd31	Pd3	0.000000	0.250000	0.375000
Pd41	Pd4	0.500000	0.750000	0.875000
Pd51	Pd5	0.000000	0.250000	0.875000
Pd61	Pd6	0.500000	0.750000	0.375000
Pd71	Pd7	0.500000	0.250000	0.625000
Pd81	Pd8	0.000000	0.750000	0.125000
K11	K1	0.750000	0.250000	0.750000
K21	K2	0.750000	0.750000	0.250000
K31	K3	0.000000	0.500000	0.000000
K41	K4	0.500000	0.000000	0.500000
K51	K5	0.500000	0.500000	0.500000
K61	K6	0.000000	0.000000	0.000000
K71	K7	0.750000	0.250000	0.250000
K81	K8	0.750000	0.750000	0.750000
K91	K9	0.500000	0.500000	0.000000
K101	K10	0.000000	0.000000	0.500000
K111	K11	0.000000	0.500000	0.500000
K121	K12	0.500000	0.000000	0.000000
K131	K13	0.250000	0.750000	0.250000
K141	K14	0.250000	0.250000	0.750000
K151	K15	0.250000	0.750000	0.750000
K161	K16	0.250000	0.250000	0.250000
