data_GOMPOO_clean_PM
_symmetry_space_group_name_H-M	'P1'
_cell_length_a	8.619100
_cell_length_b	17.803100
_cell_length_c	9.025700
_cell_angle_alpha	90.000000
_cell_angle_beta	107.357000
_cell_angle_gamma	90.000000
_symmetry_Int_Tables_number 1

loop_
_symmetry_equiv_pos_as_xyz
'x,y,z'

loop_
_atom_site_label
_atom_site_type_symbol
_atom_site_fract_x
_atom_site_fract_y
_atom_site_fract_z
P11	P1	0.347600	0.427550	0.361000
P21	P2	0.806890	0.292170	0.474310
P31	P3	0.266340	0.169050	0.496100
Al11	Al1	0.077200	0.295570	0.287430
Al21	Al2	0.137040	0.109620	0.160940
Al31	Al3	0.023650	0.177540	0.693160
O11	O1	0.044800	0.206080	0.179500
H11	H1	0.000000	0.214300	0.087200
O21	O2	0.193100	0.380980	0.308400
O31	O3	0.246600	0.250810	0.438400
O41	O4	0.945700	0.306450	0.407500
O51	O5	0.432700	0.158920	0.613200
O61	O6	0.461500	0.405240	0.263200
O71	O7	0.849400	0.226970	0.591600
O81	O8	0.132300	0.149240	0.570600
O91	O9	0.650900	0.269300	0.345300
O101	O10	0.248900	0.113460	0.363200
O111	O11	0.437500	0.413410	0.531900
O121	O12	0.300800	0.509250	0.332400
O131	O13	0.773200	0.362980	0.553300
P41	P4	0.152400	0.927550	0.139000
P51	P5	0.693110	0.792170	0.025690
P61	P6	0.233660	0.669050	0.003900
Al41	Al4	0.422800	0.795570	0.212570
Al51	Al5	0.362960	0.609620	0.339060
Al61	Al6	0.476350	0.677540	0.806840
O141	O14	0.455200	0.706080	0.320500
H21	H2	0.500000	0.714300	0.412800
O151	O15	0.306900	0.880980	0.191600
O161	O16	0.253400	0.750810	0.061600
O171	O17	0.554300	0.806450	0.092500
O181	O18	0.067300	0.658920	0.886800
O191	O19	0.038500	0.905240	0.236800
O201	O20	0.650600	0.726970	0.908400
O211	O21	0.367700	0.649240	0.929400
O221	O22	0.849100	0.769300	0.154700
O231	O23	0.251100	0.613460	0.136800
O241	O24	0.062500	0.913410	0.968100
O251	O25	0.199200	0.009250	0.167600
O261	O26	0.726800	0.862980	0.946700
P71	P7	0.652400	0.572450	0.639000
P81	P8	0.193110	0.707830	0.525690
P91	P9	0.733660	0.830950	0.503900
Al71	Al7	0.922800	0.704430	0.712570
Al81	Al8	0.862960	0.890380	0.839060
Al91	Al9	0.976350	0.822460	0.306840
O271	O27	0.955200	0.793920	0.820500
H31	H3	0.000000	0.785700	0.912800
O281	O28	0.806900	0.619020	0.691600
O291	O29	0.753400	0.749190	0.561600
O301	O30	0.054300	0.693550	0.592500
O311	O31	0.567300	0.841080	0.386800
O321	O32	0.538500	0.594760	0.736800
O331	O33	0.150600	0.773030	0.408400
O341	O34	0.867700	0.850760	0.429400
O351	O35	0.349100	0.730700	0.654700
O361	O36	0.751100	0.886540	0.636800
O371	O37	0.562500	0.586590	0.468100
O381	O38	0.699200	0.490750	0.667600
O391	O39	0.226800	0.637020	0.446700
P101	P10	0.847600	0.072450	0.861000
P111	P11	0.306890	0.207830	0.974310
P121	P12	0.766340	0.330950	0.996100
Al101	Al10	0.577200	0.204430	0.787430
Al111	Al11	0.637040	0.390380	0.660940
Al121	Al12	0.523650	0.322460	0.193160
O401	O40	0.544800	0.293920	0.679500
H41	H4	0.500000	0.285700	0.587200
O411	O41	0.693100	0.119020	0.808400
O421	O42	0.746600	0.249190	0.938400
O431	O43	0.445700	0.193550	0.907500
O441	O44	0.932700	0.341080	0.113200
O451	O45	0.961500	0.094760	0.763200
O461	O46	0.349400	0.273030	0.091600
O471	O47	0.632300	0.350760	0.070600
O481	O48	0.150900	0.230700	0.845300
O491	O49	0.748900	0.386540	0.863200
O501	O50	0.937500	0.086590	0.031900
O511	O51	0.800800	0.990750	0.832400
O521	O52	0.273200	0.137020	0.053300
