data_GONTAG_clean_PM
_symmetry_space_group_name_H-M	'P1'
_cell_length_a	10.950000
_cell_length_b	17.700000
_cell_length_c	7.843000
_cell_angle_alpha	90.000000
_cell_angle_beta	102.330000
_cell_angle_gamma	90.000000
_symmetry_Int_Tables_number 1

loop_
_symmetry_equiv_pos_as_xyz
'x,y,z'

loop_
_atom_site_label
_atom_site_type_symbol
_atom_site_fract_x
_atom_site_fract_y
_atom_site_fract_z
C11	C1	0.359000	0.400000	0.092500
C21	C2	0.302600	0.323200	0.044100
C31	C3	0.178800	0.307700	0.037900
C41	C4	0.127400	0.237600	0.994000
F11	F1	0.104800	0.364710	0.071200
F21	F2	0.004700	0.228240	0.988100
O11	O1	0.353700	0.426010	0.237200
O21	O2	0.411600	0.432390	0.984400
C51	C5	0.859000	0.900000	0.092500
C61	C6	0.802600	0.823200	0.044100
C71	C7	0.678800	0.807700	0.037900
C81	C8	0.627400	0.737600	0.994000
F31	F3	0.604800	0.864710	0.071200
F41	F4	0.504700	0.728240	0.988100
O31	O3	0.853700	0.926010	0.237200
O41	O4	0.911600	0.932390	0.984400
C91	C9	0.641000	0.400000	0.407500
C101	C10	0.697400	0.323200	0.455900
C111	C11	0.821200	0.307700	0.462100
C121	C12	0.872600	0.237600	0.506000
F51	F5	0.895200	0.364710	0.428800
F61	F6	0.995300	0.228240	0.511900
O51	O5	0.646300	0.426010	0.262800
O61	O6	0.588400	0.432390	0.515600
C131	C13	0.141000	0.900000	0.407500
C141	C14	0.197400	0.823200	0.455900
C151	C15	0.321200	0.807700	0.462100
C161	C16	0.372600	0.737600	0.506000
F71	F7	0.395200	0.864710	0.428800
F81	F8	0.495300	0.728240	0.511900
O71	O7	0.146300	0.926010	0.262800
O81	O8	0.088400	0.932390	0.515600
C171	C17	0.641000	0.600000	0.907500
C181	C18	0.697400	0.676800	0.955900
C191	C19	0.821200	0.692300	0.962100
C201	C20	0.872600	0.762400	0.006000
F91	F9	0.895200	0.635290	0.928800
F101	F10	0.995300	0.771760	0.011900
O91	O9	0.646300	0.573990	0.762800
O101	O10	0.588400	0.567610	0.015600
C211	C21	0.141000	0.100000	0.907500
C221	C22	0.197400	0.176800	0.955900
C231	C23	0.321200	0.192300	0.962100
C241	C24	0.372600	0.262400	0.006000
F111	F11	0.395200	0.135290	0.928800
F121	F12	0.495300	0.271760	0.011900
O111	O11	0.146300	0.073990	0.762800
O121	O12	0.088400	0.067610	0.015600
C251	C25	0.359000	0.600000	0.592500
C261	C26	0.302600	0.676800	0.544100
C271	C27	0.178800	0.692300	0.537900
C281	C28	0.127400	0.762400	0.494000
F131	F13	0.104800	0.635290	0.571200
F141	F14	0.004700	0.771760	0.488100
O131	O13	0.353700	0.573990	0.737200
O141	O14	0.411600	0.567610	0.484400
C291	C29	0.859000	0.100000	0.592500
C301	C30	0.802600	0.176800	0.544100
C311	C31	0.678800	0.192300	0.537900
C321	C32	0.627400	0.262400	0.494000
F151	F15	0.604800	0.135290	0.571200
F161	F16	0.504700	0.271760	0.488100
O151	O15	0.853700	0.073990	0.737200
O161	O16	0.911600	0.067610	0.484400
Ca11	Ca1	0.500000	0.532170	0.250000
Ca21	Ca2	0.000000	0.032170	0.250000
Ca31	Ca3	0.500000	0.467830	0.750000
Ca41	Ca4	0.000000	0.967830	0.750000
