data_GOPTIQ_clean_PM
_symmetry_space_group_name_H-M	'P1'
_cell_length_a	14.649000
_cell_length_b	13.470000
_cell_length_c	24.399000
_cell_angle_alpha	90.000000
_cell_angle_beta	106.607000
_cell_angle_gamma	90.000000
_symmetry_Int_Tables_number 1

loop_
_symmetry_equiv_pos_as_xyz
'x,y,z'

loop_
_atom_site_label
_atom_site_type_symbol
_atom_site_fract_x
_atom_site_fract_y
_atom_site_fract_z
C11	C1	0.338000	0.964300	0.354460
H11	H1	0.300600	0.925400	0.371100
C21	C2	0.320500	0.987400	0.298690
H21	H2	0.267700	0.966100	0.269900
C31	C3	0.450590	0.059500	0.341730
H31	H3	0.505400	0.098200	0.349400
C41	C4	0.463960	0.007800	0.442410
C51	C5	0.512200	0.923400	0.465870
H41	H4	0.519300	0.871900	0.442000
C61	C6	0.449400	0.086100	0.475240
C71	C7	0.393100	0.176100	0.450580
H51	H5	0.409300	0.196300	0.416800
H61	H6	0.407600	0.228900	0.478200
H71	H7	0.326400	0.161100	0.440900
C81	C8	0.299260	0.961100	0.153110
H81	H8	0.355900	0.928800	0.171300
C91	C9	0.233500	0.926800	0.106410
H91	H9	0.235900	0.868300	0.086700
C101	C10	0.187620	0.068000	0.133660
H101	H10	0.150600	0.123500	0.135100
C111	C11	0.079520	0.999000	0.045000
C121	C12	0.071800	0.073100	0.005080
C131	C13	0.146300	0.151200	0.008620
H111	H11	0.143600	0.199100	0.037200
H121	H12	0.134800	0.183600	0.972200
H131	H13	0.208100	0.120800	0.018700
C141	C14	0.011100	0.928100	0.040690
H141	H14	0.020000	0.879700	0.068900
C151	C15	0.535150	0.059800	0.204790
H151	H15	0.543800	0.016300	0.235400
C161	C16	0.557800	0.138200	0.132520
H161	H16	0.583400	0.160100	0.103900
C171	C17	0.478900	0.172100	0.143270
H171	H17	0.439800	0.221900	0.122700
C181	C18	0.749600	0.017000	0.230090
H181	H18	0.737100	0.052700	0.259800
C191	C19	0.681040	0.011300	0.178050
C201	C20	0.693540	0.957500	0.132410
C211	C21	0.781540	0.911900	0.141150
H191	H19	0.793600	0.875500	0.111600
C221	C22	0.851230	0.919200	0.192480
C231	C23	0.837200	0.970000	0.238820
C241	C24	0.912500	0.975900	0.295740
H201	H20	0.928000	0.910100	0.310700
H211	H21	0.888900	0.014200	0.321900
H221	H22	0.968600	0.007000	0.290800
C251	C25	0.617600	0.944700	0.075910
H231	H23	0.556300	0.939200	0.082600
H241	H24	0.630200	0.885700	0.057300
H251	H25	0.618000	0.001200	0.052000
C261	C26	0.969340	0.783800	0.221110
H261	H26	0.929300	0.739900	0.232500
C271	C27	0.019100	0.914800	0.187340
H271	H27	0.022300	0.977000	0.171500
C281	C28	0.090300	0.847700	0.204110
H281	H28	0.151800	0.856400	0.201300
N11	N1	0.058940	0.765470	0.225670
N21	N2	0.941990	0.872810	0.198320
N31	N3	0.593770	0.065390	0.171670
N41	N4	0.464290	0.122720	0.189070
N51	N5	0.391780	0.046950	0.290370
N61	N6	0.422400	0.010220	0.381680
N71	N7	0.271090	0.049700	0.169990
N81	N8	0.162590	0.996060	0.094090
Ni11	Ni1	0.355760	0.153090	0.226040
C291	C29	0.162000	0.464300	0.145540
H291	H29	0.199400	0.425400	0.128900
C301	C30	0.179500	0.487400	0.201310
H301	H30	0.232300	0.466100	0.230100
C311	C31	0.049410	0.559500	0.158270
H311	H31	0.994600	0.598200	0.150600
C321	C32	0.036040	0.507800	0.057590
C331	C33	0.987800	0.423400	0.034130
H321	H32	0.980700	0.371900	0.058000
C341	C34	0.050600	0.586100	0.024760
C351	C35	0.106900	0.676100	0.049420
H331	H33	0.090700	0.696300	0.083200
H341	H34	0.092400	0.728900	0.021800
H351	H35	0.173600	0.661100	0.059100
C361	C36	0.200740	0.461100	0.346890
H361	H36	0.144100	0.428800	0.328700
C371	C37	0.266500	0.426800	0.393590
H371	H37	0.264100	0.368300	0.413300
C381	C38	0.312380	0.568000	0.366340
H381	H38	0.349400	0.623500	0.364900
C391	C39	0.420480	0.499000	0.455000
C401	C40	0.428200	0.573100	0.494920
C411	C41	0.353700	0.651200	0.491380
H391	H39	0.356400	0.699100	0.462800
H401	H40	0.365200	0.683600	0.527800
H411	H41	0.291900	0.620800	0.481300
C421	C42	0.488900	0.428100	0.459310
H421	H42	0.480000	0.379700	0.431100
C431	C43	0.964850	0.559800	0.295210
H431	H43	0.956200	0.516300	0.264600
C441	C44	0.942200	0.638200	0.367480
H441	H44	0.916600	0.660100	0.396100
C451	C45	0.021100	0.672100	0.356730
H451	H45	0.060200	0.721900	0.377300
C461	C46	0.750400	0.517000	0.269910
H461	H46	0.762900	0.552700	0.240200
C471	C47	0.818960	0.511300	0.321950
C481	C48	0.806460	0.457500	0.367590
C491	C49	0.718460	0.411900	0.358850
H471	H47	0.706400	0.375500	0.388400
C501	C50	0.648770	0.419200	0.307520
C511	C51	0.662800	0.470000	0.261180
C521	C52	0.587500	0.475900	0.204260
H481	H48	0.572000	0.410100	0.189300
H491	H49	0.611100	0.514200	0.178100
H501	H50	0.531400	0.507000	0.209200
C531	C53	0.882400	0.444700	0.424090
H511	H51	0.943700	0.439200	0.417400
H521	H52	0.869800	0.385700	0.442700
H531	H53	0.882000	0.501200	0.448000
C541	C54	0.530660	0.283800	0.278890
H541	H54	0.570700	0.239900	0.267500
C551	C55	0.480900	0.414800	0.312660
H551	H55	0.477700	0.477000	0.328500
C561	C56	0.409700	0.347700	0.295890
H561	H56	0.348200	0.356400	0.298700
N91	N9	0.441060	0.265470	0.274330
N101	N10	0.558010	0.372810	0.301680
N111	N11	0.906230	0.565390	0.328330
N121	N12	0.035710	0.622720	0.310930
N131	N13	0.108220	0.546950	0.209630
N141	N14	0.077600	0.510220	0.118320
N151	N15	0.228910	0.549700	0.330010
N161	N16	0.337410	0.496060	0.405910
Ni21	Ni2	0.144240	0.653090	0.273950
C571	C57	0.662000	0.035700	0.645540
H571	H57	0.699400	0.074600	0.628900
C581	C58	0.679500	0.012600	0.701310
H581	H58	0.732300	0.033900	0.730100
C591	C59	0.549410	0.940500	0.658270
H591	H59	0.494600	0.901800	0.650600
C601	C60	0.536040	0.992200	0.557590
C611	C61	0.487800	0.076600	0.534130
H601	H60	0.480700	0.128100	0.558000
C621	C62	0.550600	0.913900	0.524760
C631	C63	0.606900	0.823900	0.549420
H611	H61	0.590700	0.803700	0.583200
H621	H62	0.592400	0.771100	0.521800
H631	H63	0.673600	0.838900	0.559100
C641	C64	0.700740	0.038900	0.846890
H641	H64	0.644100	0.071200	0.828700
C651	C65	0.766500	0.073200	0.893590
H651	H65	0.764100	0.131700	0.913300
C661	C66	0.812380	0.932000	0.866340
H661	H66	0.849400	0.876500	0.864900
C671	C67	0.920480	0.001000	0.955000
C681	C68	0.928200	0.926900	0.994920
C691	C69	0.853700	0.848800	0.991380
H671	H67	0.856400	0.800900	0.962800
H681	H68	0.865200	0.816400	0.027800
H691	H69	0.791900	0.879200	0.981300
C701	C70	0.988900	0.071900	0.959310
H701	H70	0.980000	0.120300	0.931100
C711	C71	0.464850	0.940200	0.795210
H711	H71	0.456200	0.983700	0.764600
C721	C72	0.442200	0.861800	0.867480
H721	H72	0.416600	0.839900	0.896100
C731	C73	0.521100	0.827900	0.856730
H731	H73	0.560200	0.778100	0.877300
C741	C74	0.250400	0.983000	0.769910
H741	H74	0.262900	0.947300	0.740200
C751	C75	0.318960	0.988700	0.821950
C761	C76	0.306460	0.042500	0.867590
C771	C77	0.218460	0.088100	0.858850
H751	H75	0.206400	0.124500	0.888400
C781	C78	0.148770	0.080800	0.807520
C791	C79	0.162800	0.030000	0.761180
C801	C80	0.087500	0.024100	0.704260
H761	H76	0.072000	0.089900	0.689300
H771	H77	0.111100	0.985800	0.678100
H781	H78	0.031400	0.993000	0.709200
C811	C81	0.382400	0.055300	0.924090
H791	H79	0.443700	0.060800	0.917400
H801	H80	0.369800	0.114300	0.942700
H811	H81	0.382000	0.998800	0.948000
C821	C82	0.030660	0.216200	0.778890
H821	H82	0.070700	0.260100	0.767500
C831	C83	0.980900	0.085200	0.812660
H831	H83	0.977700	0.023000	0.828500
C841	C84	0.909700	0.152300	0.795890
H841	H84	0.848200	0.143600	0.798700
N171	N17	0.941060	0.234530	0.774330
N181	N18	0.058010	0.127190	0.801680
N191	N19	0.406230	0.934610	0.828330
N201	N20	0.535710	0.877280	0.810930
N211	N21	0.608220	0.953050	0.709630
N221	N22	0.577600	0.989780	0.618320
N231	N23	0.728910	0.950300	0.830010
N241	N24	0.837410	0.003940	0.905910
Ni31	Ni3	0.644240	0.846910	0.773950
C851	C85	0.838000	0.535700	0.854460
H851	H85	0.800600	0.574600	0.871100
C861	C86	0.820500	0.512600	0.798690
H861	H86	0.767700	0.533900	0.769900
C871	C87	0.950590	0.440500	0.841730
H871	H87	0.005400	0.401800	0.849400
C881	C88	0.963960	0.492200	0.942410
C891	C89	0.012200	0.576600	0.965870
H881	H88	0.019300	0.628100	0.942000
C901	C90	0.949400	0.413900	0.975240
C911	C91	0.893100	0.323900	0.950580
H891	H89	0.909300	0.303700	0.916800
H901	H90	0.907600	0.271100	0.978200
H911	H91	0.826400	0.338900	0.940900
C921	C92	0.799260	0.538900	0.653110
H921	H92	0.855900	0.571200	0.671300
C931	C93	0.733500	0.573200	0.606410
H931	H93	0.735900	0.631700	0.586700
C941	C94	0.687620	0.432000	0.633660
H941	H94	0.650600	0.376500	0.635100
C951	C95	0.579520	0.501000	0.545000
C961	C96	0.571800	0.426900	0.505080
C971	C97	0.646300	0.348800	0.508620
H951	H95	0.643600	0.300900	0.537200
H961	H96	0.634800	0.316400	0.472200
H971	H97	0.708100	0.379200	0.518700
C981	C98	0.511100	0.571900	0.540690
H981	H98	0.520000	0.620300	0.568900
C991	C99	0.035150	0.440200	0.704790
H991	H99	0.043800	0.483700	0.735400
C1001	C100	0.057800	0.361800	0.632520
H1001	H100	0.083400	0.339900	0.603900
C1011	C101	0.978900	0.327900	0.643270
H1011	H101	0.939800	0.278100	0.622700
C1021	C102	0.249600	0.483000	0.730090
H1021	H102	0.237100	0.447300	0.759800
C1031	C103	0.181040	0.488700	0.678050
C1041	C104	0.193540	0.542500	0.632410
C1051	C105	0.281540	0.588100	0.641150
H1031	H103	0.293600	0.624500	0.611600
C1061	C106	0.351230	0.580800	0.692480
C1071	C107	0.337200	0.530000	0.738820
C1081	C108	0.412500	0.524100	0.795740
H1041	H104	0.428000	0.589900	0.810700
H1051	H105	0.388900	0.485800	0.821900
H1061	H106	0.468600	0.493000	0.790800
C1091	C109	0.117600	0.555300	0.575910
H1071	H107	0.056300	0.560800	0.582600
H1081	H108	0.130200	0.614300	0.557300
H1091	H109	0.118000	0.498800	0.552000
C1101	C110	0.469340	0.716200	0.721110
H1101	H110	0.429300	0.760100	0.732500
C1111	C111	0.519100	0.585200	0.687340
H1111	H111	0.522300	0.523000	0.671500
C1121	C112	0.590300	0.652300	0.704110
H1121	H112	0.651800	0.643600	0.701300
N251	N25	0.558940	0.734530	0.725670
N261	N26	0.441990	0.627190	0.698320
N271	N27	0.093770	0.434610	0.671670
N281	N28	0.964290	0.377280	0.689070
N291	N29	0.891780	0.453050	0.790370
N301	N30	0.922400	0.489780	0.881680
N311	N31	0.771090	0.450300	0.669990
N321	N32	0.662590	0.503940	0.594090
Ni41	Ni4	0.855760	0.346910	0.726040
