data_GOSDEZ_clean_PM
_symmetry_space_group_name_H-M	'P1'
_cell_length_a	15.855500
_cell_length_b	28.677000
_cell_length_c	21.401800
_cell_angle_alpha	90.000000
_cell_angle_beta	90.000000
_cell_angle_gamma	90.000000
_symmetry_Int_Tables_number 1

loop_
_symmetry_equiv_pos_as_xyz
'x,y,z'

loop_
_atom_site_label
_atom_site_type_symbol
_atom_site_fract_x
_atom_site_fract_y
_atom_site_fract_z
Cd11	Cd1	0.971550	0.295370	0.260100
Cd21	Cd2	0.239100	0.246740	0.737370
Cd31	Cd3	0.028450	0.295370	0.739900
Cd41	Cd4	0.486090	0.208620	0.243130
Cd51	Cd5	0.760900	0.246740	0.262630
Cd61	Cd6	0.028450	0.704630	0.760100
Cd71	Cd7	0.760900	0.753260	0.237370
Cd81	Cd8	0.486090	0.791380	0.256870
Cd91	Cd9	0.513910	0.208620	0.756870
Cd101	Cd10	0.971550	0.704630	0.239900
Cd111	Cd11	0.513910	0.791380	0.743130
Cd121	Cd12	0.239100	0.753260	0.762630
H11	H1	0.689100	0.484300	0.323300
H21	H2	0.070700	0.084200	0.377500
H31	H3	0.592800	0.401200	0.189400
H41	H4	0.801900	0.972700	0.826700
H51	H5	0.861300	0.074100	0.101900
H61	H6	0.144000	0.575700	0.323000
H71	H7	0.865000	0.099000	0.485500
H81	H8	0.034800	0.004700	0.895200
H91	H9	0.597900	0.611400	0.463000
H101	H10	0.378000	0.611600	0.015000
H111	H11	0.954700	0.842300	0.835500
H121	H12	0.163100	0.169000	0.561600
H131	H13	0.341100	0.076100	0.823300
H141	H14	0.163100	0.831000	0.938400
H151	H15	0.126400	0.094100	0.679600
H161	H16	0.648400	0.407400	0.673000
H171	H17	0.856000	0.575700	0.677000
H181	H18	0.341100	0.923900	0.676700
H191	H19	0.763600	0.641100	0.828000
H201	H20	0.010700	0.920200	0.742900
H211	H21	0.865000	0.901000	0.014500
H221	H22	0.526400	0.496100	0.606100
H231	H23	0.198100	0.972700	0.173300
H241	H24	0.236400	0.358900	0.328000
H251	H25	0.641300	0.316700	0.564200
H261	H26	0.232700	0.977700	0.680800
H271	H27	0.761600	0.868400	0.664100
H281	H28	0.836900	0.169000	0.438400
H291	H29	0.120700	0.915200	0.334600
H301	H30	0.138700	0.074100	0.898100
H311	H31	0.238400	0.131600	0.164100
H321	H32	0.430500	0.417400	0.627800
H331	H33	0.704700	0.349900	0.201900
H341	H34	0.648400	0.592600	0.827000
H351	H35	0.590500	0.318800	0.089600
H361	H36	0.197000	0.566600	0.833400
H371	H37	0.954700	0.157700	0.664500
H381	H38	0.310900	0.484300	0.676700
H391	H39	0.590500	0.681200	0.410400
H401	H40	0.358700	0.683300	0.064200
H411	H41	0.767300	0.022300	0.180800
H421	H42	0.295300	0.650100	0.701900
H431	H43	0.597900	0.388600	0.037000
H441	H44	0.989300	0.920200	0.257100
H451	H45	0.836900	0.831000	0.061600
H461	H46	0.554300	0.654700	0.176600
H471	H47	0.070700	0.915800	0.122500
H481	H48	0.473600	0.503900	0.106100
H491	H49	0.704700	0.650100	0.298100
H501	H50	0.592800	0.598800	0.310600
H511	H51	0.232500	0.147400	0.682800
H521	H52	0.684800	0.923200	0.826200
H531	H53	0.873600	0.094100	0.320400
H541	H54	0.841000	0.139900	0.159900
H551	H55	0.879300	0.084800	0.834600
H561	H56	0.378300	0.571900	0.388100
H571	H57	0.256800	0.475400	0.179700
H581	H58	0.315200	0.923200	0.173800
H591	H59	0.658900	0.923900	0.323300
H601	H60	0.856000	0.424300	0.823000
H611	H61	0.626200	0.640700	0.668000
H621	H62	0.445700	0.345300	0.676600
H631	H63	0.236400	0.641100	0.172000
H641	H64	0.622000	0.611600	0.985000
H651	H65	0.256800	0.524600	0.320300
H661	H66	0.430500	0.582600	0.872200
H671	H67	0.743200	0.524600	0.679700
H681	H68	0.626200	0.359300	0.832000
H691	H69	0.934200	0.188800	0.891900
H701	H70	0.351600	0.592600	0.173000
H711	H71	0.801900	0.027300	0.673300
H721	H72	0.159000	0.860100	0.659900
H731	H73	0.841000	0.860100	0.340100
H741	H74	0.034800	0.995300	0.604800
H751	H75	0.197000	0.433400	0.666600
H761	H76	0.126400	0.905900	0.820400
H771	H77	0.767300	0.977700	0.319200
H781	H78	0.743200	0.475400	0.820300
H791	H79	0.526700	0.580300	0.755400
H801	H80	0.445700	0.654700	0.823400
H811	H81	0.526700	0.419700	0.744600
H821	H82	0.402100	0.611400	0.537000
H831	H83	0.929300	0.084200	0.622500
H841	H84	0.120700	0.084800	0.165400
H851	H85	0.407200	0.401200	0.810600
H861	H86	0.409500	0.681200	0.589600
H871	H87	0.934200	0.811200	0.608100
H881	H88	0.378000	0.388400	0.485000
H891	H89	0.689100	0.515700	0.176700
H901	H90	0.873600	0.905900	0.179600
H911	H91	0.378300	0.428100	0.111900
H921	H92	0.554300	0.345300	0.323400
H931	H93	0.085300	0.876300	0.454000
H941	H94	0.767500	0.852600	0.182800
H951	H95	0.569500	0.417400	0.372200
H961	H96	0.315200	0.076800	0.326200
H971	H97	0.929300	0.915800	0.877500
H981	H98	0.965200	0.995300	0.395200
H991	H99	0.569500	0.582600	0.127800
H1001	H100	0.658900	0.076100	0.176700
H1011	H101	0.473600	0.496100	0.393900
H1021	H102	0.135000	0.099000	0.514500
H1031	H103	0.989300	0.079800	0.242900
H1041	H104	0.914700	0.876300	0.546000
H1051	H105	0.684800	0.076800	0.673800
H1061	H106	0.526400	0.503900	0.893900
H1071	H107	0.144000	0.424300	0.177000
H1081	H108	0.473300	0.419700	0.255400
H1091	H109	0.351600	0.407400	0.327000
H1101	H110	0.407200	0.598800	0.689400
H1111	H111	0.641300	0.683300	0.935800
H1121	H112	0.473300	0.580300	0.244600
H1131	H113	0.232700	0.022300	0.819200
H1141	H114	0.409500	0.318800	0.910400
H1151	H115	0.803000	0.566600	0.166600
H1161	H116	0.861300	0.925900	0.398100
H1171	H117	0.085300	0.123700	0.046000
H1181	H118	0.238400	0.868400	0.335900
H1191	H119	0.373800	0.640700	0.332000
H1201	H120	0.138700	0.925900	0.601900
H1211	H121	0.914700	0.123700	0.954000
H1221	H122	0.761600	0.131600	0.835900
H1231	H123	0.310900	0.515700	0.823300
H1241	H124	0.763600	0.358900	0.672000
H1251	H125	0.767500	0.147400	0.317200
H1261	H126	0.010700	0.079800	0.757100
H1271	H127	0.373800	0.359300	0.168000
H1281	H128	0.295300	0.349900	0.798100
H1291	H129	0.621700	0.571900	0.611900
H1301	H130	0.045300	0.157700	0.335500
H1311	H131	0.621700	0.428100	0.888100
H1321	H132	0.879300	0.915200	0.665400
H1331	H133	0.622000	0.388400	0.515000
H1341	H134	0.358700	0.316700	0.435800
H1351	H135	0.198100	0.027300	0.326700
H1361	H136	0.135000	0.901000	0.985500
H1371	H137	0.803000	0.433400	0.333400
H1381	H138	0.045300	0.842300	0.164500
H1391	H139	0.402100	0.388600	0.963000
H1401	H140	0.159000	0.139900	0.840100
H1411	H141	0.232500	0.852600	0.817200
H1421	H142	0.965200	0.004700	0.104800
H1431	H143	0.065800	0.811200	0.391900
H1441	H144	0.065800	0.188800	0.108100
C11	C1	0.723800	0.078450	0.706200
C21	C2	0.746200	0.548500	0.709000
C31	C3	0.363900	0.844870	0.742800
C41	C4	0.372300	0.446900	0.743770
C51	C5	0.918600	0.216530	0.351200
C61	C6	0.526000	0.714020	0.669400
C71	C7	0.289100	0.890270	0.254000
C81	C8	0.372300	0.553100	0.756230
C91	C9	0.012700	0.037520	0.531510
C101	C10	0.492800	0.460630	0.032570
C111	C11	0.145400	0.947210	0.253500
C121	C12	0.413600	0.379940	0.452400
C131	C13	0.253800	0.451500	0.209000
C141	C14	0.065600	0.213130	0.818440
C151	C15	0.050400	0.170990	0.860300
C161	C16	0.490800	0.545460	0.031690
C171	C17	0.239900	0.426690	0.694800
C181	C18	0.543800	0.323170	0.625460
C191	C19	0.205300	0.048950	0.294800
C201	C20	0.978700	0.995230	0.437500
C211	C21	0.472970	0.547850	0.246430
C221	C22	0.963600	0.126470	0.930300
C231	C23	0.413600	0.620060	0.047600
C241	C24	0.205300	0.951050	0.205200
C251	C25	0.581700	0.635150	0.640700
C261	C26	0.710900	0.890270	0.746000
C271	C27	0.702900	0.080200	0.205000
C281	C28	0.159300	0.083130	0.198100
C291	C29	0.760100	0.573310	0.194800
C301	C30	0.448000	0.382680	0.937160
C311	C31	0.024300	0.165920	0.106100
C321	C32	0.081400	0.783470	0.851200
C331	C33	0.480300	0.668530	0.366500
C341	C34	0.509400	0.584420	0.568500
C351	C35	0.527030	0.452150	0.746430
C361	C36	0.298200	0.623270	0.726200
C371	C37	0.638700	0.143210	0.754400
C381	C38	0.097300	0.097060	0.897500
C391	C39	0.010500	0.953130	0.532180
C401	C40	0.759200	0.381910	0.702400
C411	C41	0.949600	0.829010	0.360300
C421	C42	0.963600	0.873530	0.569700
C431	C43	0.365900	0.592610	0.719200
C441	C44	0.975600	0.101400	0.609100
C451	C45	0.036400	0.873530	0.430300
C461	C46	0.480300	0.331470	0.133500
C471	C47	0.450200	0.524160	0.752480
C481	C48	0.472400	0.602920	0.885600
C491	C49	0.554200	0.723450	0.844600
C501	C50	0.276200	0.921550	0.206200
C511	C51	0.159300	0.916870	0.301900
C521	C52	0.634100	0.407390	0.219200
C531	C53	0.549800	0.475840	0.252480
C541	C54	0.515900	0.503560	0.936600
C551	C55	0.975600	0.898600	0.890900
C561	C56	0.636100	0.844870	0.257200
C571	C57	0.029100	0.083360	0.563170
C581	C58	0.418300	0.364850	0.140700
C591	C59	0.975700	0.834080	0.606100
C601	C60	0.066300	0.975380	0.252030
C611	C61	0.526000	0.285980	0.830600
C621	C62	0.527600	0.602920	0.114400
C631	C63	0.484100	0.496440	0.436600
C641	C64	0.701800	0.376730	0.226200
C651	C65	0.690400	0.411260	0.702900
C661	C66	0.481700	0.353510	0.644160
C671	C67	0.361300	0.143210	0.245600
C681	C68	0.232000	0.047980	0.792630
C691	C69	0.552000	0.382680	0.062840
C701	C70	0.933700	0.975380	0.747970
C711	C71	0.896500	0.645860	0.752500
C721	C72	0.918600	0.783470	0.148800
C731	C73	0.232400	0.877130	0.788870
C741	C74	0.991800	0.145370	0.635200
C751	C75	0.235700	0.613750	0.769200
C761	C76	0.970900	0.916640	0.063170
C771	C77	0.527600	0.397080	0.385600
C781	C78	0.099000	0.110040	0.545500
C791	C79	0.490600	0.584420	0.431500
C801	C80	0.023400	0.909010	0.568030
C811	C81	0.165100	0.053820	0.750600
C821	C82	0.115300	0.847710	0.926800
C831	C83	0.884700	0.847710	0.073200
C841	C84	0.524000	0.410150	0.565830
C851	C85	0.185000	0.578690	0.292200
C861	C86	0.554200	0.276550	0.655400
C871	C87	0.794700	0.951050	0.794800
C881	C88	0.911350	0.024020	0.248590
C891	C89	0.065600	0.786870	0.681560
C901	C90	0.890700	0.863490	0.362700
C911	C91	0.230000	0.111250	0.197400
C921	C92	0.088650	0.975980	0.748590
C931	C93	0.253800	0.548500	0.291000
C941	C94	0.021300	0.004770	0.937500
C951	C95	0.445800	0.276550	0.344600
C961	C96	0.109300	0.863490	0.637300
C971	C97	0.239900	0.573310	0.805200
C981	C98	0.627700	0.553100	0.243770
C991	C99	0.901000	0.889960	0.045500
C1001	C100	0.490600	0.415580	0.068500
C1011	C101	0.987300	0.037520	0.468490
C1021	C102	0.097300	0.902940	0.602500
C1031	C103	0.604700	0.524480	0.751990
C1041	C104	0.023400	0.090990	0.931970
C1051	C105	0.770000	0.888750	0.697400
C1061	C106	0.524000	0.589850	0.934170
C1071	C107	0.527030	0.547850	0.753570
C1081	C108	0.232400	0.122870	0.711130
C1091	C109	0.854600	0.052790	0.753500
C1101	C110	0.549800	0.524160	0.247520
C1111	C111	0.230000	0.888750	0.302600
C1121	C112	0.598100	0.663560	0.923100
C1131	C113	0.509200	0.545460	0.968310
C1141	C114	0.012700	0.962480	0.968490
C1151	C115	0.949600	0.170990	0.139700
C1161	C116	0.297100	0.119230	0.754700
C1171	C117	0.024300	0.834080	0.393900
C1181	C118	0.702900	0.919800	0.295000
C1191	C119	0.276200	0.078450	0.293800
C1201	C120	0.476000	0.410150	0.434170
C1211	C121	0.767600	0.877130	0.211130
C1221	C122	0.298200	0.376730	0.773800
C1231	C123	0.177900	0.386740	0.252700
C1241	C124	0.474000	0.714020	0.330600
C1251	C125	0.690400	0.588740	0.797100
C1261	C126	0.365900	0.407390	0.780800
C1271	C127	0.235700	0.386250	0.730800
C1281	C128	0.933700	0.024620	0.752030
C1291	C129	0.938200	0.170340	0.382000
C1301	C130	0.764300	0.386250	0.269200
C1311	C131	0.854600	0.947210	0.746500
C1321	C132	0.989500	0.046870	0.032180
C1331	C133	0.970900	0.083360	0.436830
C1341	C134	0.476000	0.589850	0.065830
C1351	C135	0.682300	0.553000	0.752400
C1361	C136	0.746200	0.451500	0.791000
C1371	C137	0.547900	0.340740	0.094510
C1381	C138	0.902700	0.902940	0.397500
C1391	C139	0.361300	0.856790	0.254400
C1401	C140	0.586400	0.379940	0.547600
C1411	C141	0.456200	0.676830	0.125460
C1421	C142	0.759200	0.618090	0.797600
C1431	C143	0.518300	0.646490	0.144160
C1441	C144	0.989400	0.952540	0.254000
C1451	C145	0.024400	0.898600	0.109100
C1461	C146	0.840700	0.916870	0.698100
C1471	C147	0.638700	0.856790	0.745600
C1481	C148	0.768000	0.047980	0.207370
C1491	C149	0.794700	0.048950	0.705200
C1501	C150	0.081400	0.216530	0.648800
C1511	C151	0.024400	0.101400	0.390900
C1521	C152	0.837000	0.645940	0.223400
C1531	C153	0.472970	0.452150	0.253570
C1541	C154	0.421500	0.406430	0.107900
C1551	C155	0.760100	0.426690	0.305200
C1561	C156	0.578500	0.406430	0.892100
C1571	C157	0.066300	0.024620	0.247970
C1581	C158	0.010600	0.952540	0.746000
C1591	C159	0.989400	0.047460	0.246000
C1601	C160	0.834900	0.946180	0.250600
C1611	C161	0.445800	0.723450	0.155400
C1621	C162	0.702900	0.880770	0.254700
C1631	C163	0.317700	0.553000	0.247600
C1641	C164	0.890700	0.136510	0.137300
C1651	C165	0.934400	0.786870	0.318440
C1661	C166	0.884700	0.152290	0.426800
C1671	C167	0.682300	0.447000	0.747600
C1681	C168	0.840700	0.083130	0.801900
C1691	C169	0.109300	0.136510	0.862700
C1701	C170	0.297100	0.880770	0.745300
C1711	C171	0.008200	0.854630	0.135200
C1721	C172	0.317700	0.447000	0.252400
C1731	C173	0.163000	0.645940	0.776600
C1741	C174	0.395300	0.524480	0.248010
C1751	C175	0.701800	0.623270	0.273800
C1761	C176	0.289100	0.109730	0.246000
C1771	C177	0.297100	0.919800	0.705000
C1781	C178	0.691900	0.457340	0.299100
C1791	C179	0.911350	0.975980	0.251410
C1801	C180	0.581700	0.364850	0.859300
C1811	C181	0.421500	0.593570	0.392100
C1821	C182	0.989500	0.953130	0.467820
C1831	C183	0.401900	0.663560	0.076900
C1841	C184	0.308100	0.457340	0.700900
C1851	C185	0.177900	0.613260	0.247300
C1861	C186	0.088650	0.024020	0.751410
C1871	C187	0.490800	0.454540	0.468310
C1881	C188	0.519700	0.331470	0.866500
C1891	C189	0.975700	0.165920	0.893900
C1901	C190	0.896500	0.354140	0.747500
C1911	C191	0.448000	0.617320	0.562840
C1921	C192	0.767600	0.122870	0.288870
C1931	C193	0.815000	0.578690	0.707800
C1941	C194	0.061800	0.170340	0.618000
C1951	C195	0.507200	0.539370	0.532570
C1961	C196	0.987300	0.962480	0.031510
C1971	C197	0.021300	0.995230	0.562500
C1981	C198	0.309600	0.411260	0.297100
C1991	C199	0.831300	0.909170	0.209400
C2001	C200	0.509200	0.454540	0.531690
C2011	C201	0.240800	0.381910	0.297600
C2021	C202	0.518300	0.353510	0.355840
C2031	C203	0.627700	0.446900	0.256230
C2041	C204	0.050400	0.829010	0.639700
C2051	C205	0.822100	0.386740	0.747300
C2061	C206	0.010600	0.047460	0.754000
C2071	C207	0.834900	0.053820	0.249400
C2081	C208	0.519700	0.668530	0.633500
C2091	C209	0.515900	0.496440	0.563400
C2101	C210	0.309600	0.588740	0.202900
C2111	C211	0.395300	0.475520	0.251990
C2121	C212	0.115300	0.152290	0.573200
C2131	C213	0.822100	0.613260	0.752700
C2141	C214	0.578500	0.593570	0.607900
C2151	C215	0.145400	0.052790	0.246500
C2161	C216	0.103500	0.645860	0.247500
C2171	C217	0.099000	0.889960	0.954500
C2181	C218	0.991800	0.854630	0.864800
C2191	C219	0.185000	0.421310	0.207800
C2201	C220	0.481700	0.646490	0.855840
C2211	C221	0.163000	0.354060	0.723400
C2221	C222	0.764300	0.613750	0.230800
C2231	C223	0.418300	0.635150	0.359300
C2241	C224	0.452100	0.659260	0.594510
C2251	C225	0.902700	0.097060	0.102500
C2261	C226	0.815000	0.421310	0.792200
C2271	C227	0.934400	0.213130	0.181560
C2281	C228	0.636100	0.155130	0.242800
C2291	C229	0.010500	0.046870	0.967820
C2301	C230	0.168700	0.909170	0.790600
C2311	C231	0.474000	0.285980	0.169400
C2321	C232	0.604700	0.475520	0.748010
C2331	C233	0.976600	0.090990	0.068030
C2341	C234	0.401900	0.336440	0.423100
C2351	C235	0.768000	0.952020	0.292630
C2361	C236	0.363900	0.155130	0.757200
C2371	C237	0.634100	0.592610	0.280800
C2381	C238	0.472400	0.397080	0.614400
C2391	C239	0.232000	0.952020	0.707370
C2401	C240	0.976600	0.909010	0.431970
C2411	C241	0.008200	0.145370	0.364800
C2421	C242	0.168700	0.090830	0.709400
C2431	C243	0.598100	0.336440	0.576900
C2441	C244	0.978700	0.004770	0.062500
C2451	C245	0.165100	0.946180	0.749400
C2461	C246	0.723800	0.921550	0.793800
C2471	C247	0.061800	0.829660	0.882000
C2481	C248	0.240800	0.618090	0.202400
C2491	C249	0.831300	0.090830	0.290600
C2501	C250	0.507200	0.460630	0.967430
C2511	C251	0.308100	0.542660	0.799100
C2521	C252	0.103500	0.354140	0.252500
C2531	C253	0.552000	0.617320	0.437160
C2541	C254	0.484100	0.503560	0.063400
C2551	C255	0.938200	0.829660	0.118000
C2561	C256	0.770000	0.111250	0.802600
C2571	C257	0.450200	0.475840	0.747520
C2581	C258	0.837000	0.354060	0.276600
C2591	C259	0.901000	0.110040	0.454500
C2601	C260	0.547900	0.659260	0.405490
C2611	C261	0.036400	0.126470	0.069700
C2621	C262	0.297100	0.080200	0.795000
C2631	C263	0.456200	0.323170	0.374540
C2641	C264	0.452100	0.340740	0.905490
C2651	C265	0.509400	0.415580	0.931500
C2661	C266	0.543800	0.676830	0.874540
C2671	C267	0.492800	0.539370	0.467430
C2681	C268	0.029100	0.916640	0.936830
C2691	C269	0.710900	0.109730	0.754000
C2701	C270	0.586400	0.620060	0.952400
C2711	C271	0.702900	0.119230	0.245300
C2721	C272	0.691900	0.542660	0.200900
O11	O1	0.568600	0.146280	0.214040
O21	O2	0.103800	0.363380	0.687370
O31	O3	0.950050	0.643140	0.710300
O41	O4	0.990600	0.755330	0.318140
O51	O5	0.163750	0.316840	0.757600
O61	O6	0.413600	0.278940	0.202680
O71	O7	0.375600	0.166250	0.199400
O81	O8	0.376850	0.743850	0.154080
O91	O9	0.009400	0.244670	0.818140
O101	O10	0.098300	0.323900	0.296310
O111	O11	0.465700	0.743170	0.664440
O121	O12	0.098300	0.676100	0.203690
O131	O13	0.896200	0.636620	0.187370
O141	O14	0.488450	0.740290	0.819160
O151	O15	0.406400	0.854100	0.205600
O161	O16	0.351040	0.194360	0.731550
O171	O17	0.844800	0.229730	0.349100
O181	O18	0.049950	0.356860	0.210300
O191	O19	0.593600	0.854100	0.794400
O201	O20	0.376850	0.256150	0.345920
O211	O21	0.844800	0.770270	0.150900
O221	O22	0.896200	0.363380	0.312630
O231	O23	0.836250	0.683160	0.257600
O241	O24	0.568600	0.853720	0.285960
O251	O25	0.009400	0.755330	0.681860
O261	O26	0.163750	0.683160	0.742400
O271	O27	0.511550	0.740290	0.180840
O281	O28	0.868300	0.212150	0.212430
O291	O29	0.465700	0.256830	0.835560
O301	O30	0.511550	0.259710	0.319160
O311	O31	0.624400	0.833750	0.699400
O321	O32	0.901700	0.676100	0.796310
O331	O33	0.901700	0.323900	0.703690
O341	O34	0.375600	0.833750	0.300600
O351	O35	0.406400	0.145900	0.294400
O361	O36	0.431400	0.146280	0.785960
O371	O37	0.534300	0.743170	0.335560
O381	O38	0.155200	0.770270	0.849100
O391	O39	0.623150	0.743850	0.845920
O401	O40	0.868300	0.787850	0.287570
O411	O41	0.990600	0.244670	0.181860
O421	O42	0.131700	0.212150	0.787570
O431	O43	0.019000	0.761740	0.829000
O441	O44	0.049950	0.643140	0.289700
O451	O45	0.648960	0.194360	0.268450
O461	O46	0.836250	0.316840	0.242400
O471	O47	0.586400	0.721060	0.702680
O481	O48	0.586400	0.278940	0.797320
O491	O49	0.534300	0.256830	0.164440
O501	O50	0.950050	0.356860	0.789700
O511	O51	0.351040	0.805640	0.768450
O521	O52	0.431400	0.853720	0.714040
O531	O53	0.593600	0.145900	0.705600
O541	O54	0.981000	0.761740	0.171000
O551	O55	0.648960	0.805640	0.231550
O561	O56	0.488450	0.259710	0.680840
O571	O57	0.413600	0.721060	0.297320
O581	O58	0.103800	0.636620	0.812630
O591	O59	0.019000	0.238260	0.671000
O601	O60	0.131700	0.787850	0.712430
O611	O61	0.981000	0.238260	0.329000
O621	O62	0.623150	0.256150	0.654080
O631	O63	0.155200	0.229730	0.650900
O641	O64	0.624400	0.166250	0.800600
