data_GOSRIP_clean_PM
_symmetry_space_group_name_H-M	'P1'
_cell_length_a	9.670000
_cell_length_b	15.618000
_cell_length_c	22.563000
_cell_angle_alpha	90.000000
_cell_angle_beta	90.820000
_cell_angle_gamma	90.000000
_symmetry_Int_Tables_number 1

loop_
_symmetry_equiv_pos_as_xyz
'x,y,z'

loop_
_atom_site_label
_atom_site_type_symbol
_atom_site_fract_x
_atom_site_fract_y
_atom_site_fract_z
Fe11	Fe1	0.509570	0.103490	0.200520
Fe21	Fe2	0.775910	0.227100	0.279030
Fe31	Fe3	0.725820	0.389690	0.154610
Fe41	Fe4	0.389810	0.438680	0.084070
Fe51	Fe5	0.216190	0.969780	0.256680
P11	P1	0.274600	0.007700	0.117970
P21	P2	0.794800	0.186600	0.144140
P31	P3	0.495100	0.314600	0.206770
P41	P4	0.679300	0.415300	0.014390
P51	P5	0.538900	0.904930	0.243840
P61	P6	0.953500	0.059100	0.323220
O11	O1	0.382900	0.075600	0.134400
O21	O2	0.583200	0.984900	0.208100
F11	F1	0.632400	0.136200	0.268600
O31	O3	0.654900	0.138800	0.143000
O41	O4	0.434700	0.224700	0.202800
F21	F2	0.353300	0.070500	0.257300
F31	F3	0.687800	0.263800	0.351100
O51	O5	0.898200	0.151800	0.326300
O61	O6	0.864000	0.186400	0.205000
O71	O7	0.592800	0.825500	0.210500
O81	O8	0.648700	0.313100	0.229500
O91	O9	0.596100	0.906700	0.307600
O101	O10	0.748500	0.437500	0.075800
O111	O11	0.834000	0.997700	0.306500
O121	O12	0.779400	0.275900	0.118200
O131	O13	0.509700	0.358100	0.144800
O141	O14	0.010300	0.038100	0.385800
O151	O15	0.523100	0.404300	0.023900
O161	O16	0.714600	0.491000	0.973600
F41	F4	0.243300	0.955300	0.346200
O171	O17	0.380900	0.897600	0.246400
O181	O18	0.181500	0.986900	0.170700
O191	O19	0.406600	0.368100	0.248000
O201	O20	0.069400	0.053600	0.277200
O211	O21	0.338600	0.928200	0.091800
O221	O22	0.180700	0.045400	0.066700
H11	H1	0.142700	0.089100	0.078300
O231	O23	0.891400	0.133700	0.101400
H21	H2	0.856700	0.132700	0.068000
O241	O24	0.738600	0.333400	0.987400
H31	H3	0.725500	0.293100	0.009900
Fe61	Fe6	0.990430	0.603490	0.299480
Fe71	Fe7	0.724090	0.727100	0.220970
Fe81	Fe8	0.774180	0.889690	0.345390
Fe91	Fe9	0.110190	0.938680	0.415930
Fe101	Fe10	0.283810	0.469780	0.243320
P71	P7	0.225400	0.507700	0.382030
P81	P8	0.705200	0.686600	0.355860
P91	P9	0.004900	0.814600	0.293230
P101	P10	0.820700	0.915300	0.485610
P111	P11	0.961100	0.404930	0.256160
P121	P12	0.546500	0.559100	0.176780
O251	O25	0.117100	0.575600	0.365600
O261	O26	0.916800	0.484900	0.291900
F51	F5	0.867600	0.636200	0.231400
O271	O27	0.845100	0.638800	0.357000
O281	O28	0.065300	0.724700	0.297200
F61	F6	0.146700	0.570500	0.242700
F71	F7	0.812200	0.763800	0.148900
O291	O29	0.601800	0.651800	0.173700
O301	O30	0.636000	0.686400	0.295000
O311	O31	0.907200	0.325500	0.289500
O321	O32	0.851300	0.813100	0.270500
O331	O33	0.903900	0.406700	0.192400
O341	O34	0.751500	0.937500	0.424200
O351	O35	0.666000	0.497700	0.193500
O361	O36	0.720600	0.775900	0.381800
O371	O37	0.990300	0.858100	0.355200
O381	O38	0.489700	0.538100	0.114200
O391	O39	0.976900	0.904300	0.476100
O401	O40	0.785400	0.991000	0.526400
F81	F8	0.256700	0.455300	0.153800
O411	O41	0.119100	0.397600	0.253600
O421	O42	0.318500	0.486900	0.329300
O431	O43	0.093400	0.868100	0.252000
O441	O44	0.430600	0.553600	0.222800
O451	O45	0.161400	0.428200	0.408200
O461	O46	0.319300	0.545400	0.433300
H41	H4	0.357300	0.589100	0.421700
O471	O47	0.608600	0.633700	0.398600
H51	H5	0.643300	0.632700	0.432000
O481	O48	0.761400	0.833400	0.512600
H61	H6	0.774500	0.793100	0.490100
Fe111	Fe11	0.490430	0.896510	0.799480
Fe121	Fe12	0.224090	0.772900	0.720970
Fe131	Fe13	0.274180	0.610310	0.845390
Fe141	Fe14	0.610190	0.561320	0.915930
Fe151	Fe15	0.783810	0.030220	0.743320
P131	P13	0.725400	0.992300	0.882030
P141	P14	0.205200	0.813400	0.855860
P151	P15	0.504900	0.685400	0.793230
P161	P16	0.320700	0.584700	0.985610
P171	P17	0.461100	0.095070	0.756160
P181	P18	0.046500	0.940900	0.676780
O491	O49	0.617100	0.924400	0.865600
O501	O50	0.416800	0.015100	0.791900
F91	F9	0.367600	0.863800	0.731400
O511	O51	0.345100	0.861200	0.857000
O521	O52	0.565300	0.775300	0.797200
F101	F10	0.646700	0.929500	0.742700
F111	F11	0.312200	0.736200	0.648900
O531	O53	0.101800	0.848200	0.673700
O541	O54	0.136000	0.813600	0.795000
O551	O55	0.407200	0.174500	0.789500
O561	O56	0.351300	0.686900	0.770500
O571	O57	0.403900	0.093300	0.692400
O581	O58	0.251500	0.562500	0.924200
O591	O59	0.166000	0.002300	0.693500
O601	O60	0.220600	0.724100	0.881800
O611	O61	0.490300	0.641900	0.855200
O621	O62	0.989700	0.961900	0.614200
O631	O63	0.476900	0.595700	0.976100
O641	O64	0.285400	0.509000	0.026400
F121	F12	0.756700	0.044700	0.653800
O651	O65	0.619100	0.102400	0.753600
O661	O66	0.818500	0.013100	0.829300
O671	O67	0.593400	0.631900	0.752000
O681	O68	0.930600	0.946400	0.722800
O691	O69	0.661400	0.071800	0.908200
O701	O70	0.819300	0.954600	0.933300
H71	H7	0.857300	0.910900	0.921700
O711	O71	0.108600	0.866300	0.898600
H81	H8	0.143300	0.867300	0.932000
O721	O72	0.261400	0.666600	0.012600
H91	H9	0.274500	0.706900	0.990100
Fe161	Fe16	0.009570	0.396510	0.700520
Fe171	Fe17	0.275910	0.272900	0.779030
Fe181	Fe18	0.225820	0.110310	0.654610
Fe191	Fe19	0.889810	0.061320	0.584070
Fe201	Fe20	0.716190	0.530220	0.756680
P191	P19	0.774600	0.492300	0.617970
P201	P20	0.294800	0.313400	0.644140
P211	P21	0.995100	0.185400	0.706770
P221	P22	0.179300	0.084700	0.514390
P231	P23	0.038900	0.595070	0.743840
P241	P24	0.453500	0.440900	0.823220
O731	O73	0.882900	0.424400	0.634400
O741	O74	0.083200	0.515100	0.708100
F131	F13	0.132400	0.363800	0.768600
O751	O75	0.154900	0.361200	0.643000
O761	O76	0.934700	0.275300	0.702800
F141	F14	0.853300	0.429500	0.757300
F151	F15	0.187800	0.236200	0.851100
O771	O77	0.398200	0.348200	0.826300
O781	O78	0.364000	0.313600	0.705000
O791	O79	0.092800	0.674500	0.710500
O801	O80	0.148700	0.186900	0.729500
O811	O81	0.096100	0.593300	0.807600
O821	O82	0.248500	0.062500	0.575800
O831	O83	0.334000	0.502300	0.806500
O841	O84	0.279400	0.224100	0.618200
O851	O85	0.009700	0.141900	0.644800
O861	O86	0.510300	0.461900	0.885800
O871	O87	0.023100	0.095700	0.523900
O881	O88	0.214600	0.009000	0.473600
F161	F16	0.743300	0.544700	0.846200
O891	O89	0.880900	0.602400	0.746400
O901	O90	0.681500	0.513100	0.670700
O911	O91	0.906600	0.131900	0.748000
O921	O92	0.569400	0.446400	0.777200
O931	O93	0.838600	0.571800	0.591800
O941	O94	0.680700	0.454600	0.566700
H101	H10	0.642700	0.410900	0.578300
O951	O95	0.391400	0.366300	0.601400
H111	H11	0.356700	0.367300	0.568000
O961	O96	0.238600	0.166600	0.487400
H121	H12	0.225500	0.206900	0.509900
