data_GOVXIA_clean_PM
_symmetry_space_group_name_H-M	'P1'
_cell_length_a	13.625700
_cell_length_b	25.267500
_cell_length_c	16.818500
_cell_angle_alpha	90.000000
_cell_angle_beta	105.815000
_cell_angle_gamma	90.000000
_symmetry_Int_Tables_number 1

loop_
_symmetry_equiv_pos_as_xyz
'x,y,z'

loop_
_atom_site_label
_atom_site_type_symbol
_atom_site_fract_x
_atom_site_fract_y
_atom_site_fract_z
Co11	Co1	0.104810	0.281760	0.090940
Co21	Co2	0.252950	0.244250	0.260470
O11	O1	0.740060	0.205920	0.714100
O21	O2	0.635800	0.177920	0.137120
O31	O3	0.167140	0.212570	0.133060
O41	O4	0.003940	0.200450	0.124900
O51	O5	0.135730	0.961470	0.100440
O61	O6	0.966340	0.824040	0.346380
O71	O7	0.859750	0.796010	0.228130
O81	O8	0.350070	0.175040	0.265780
O91	O9	0.210010	0.173930	0.306500
O101	O10	0.361340	0.940450	0.410640
O111	O11	0.772730	0.822770	0.413110
O121	O12	0.666720	0.788530	0.298310
N11	N1	0.022070	0.275990	0.971530
N21	N2	0.872640	0.262820	0.720190
H11	H1	0.898600	0.283200	0.688600
N31	N3	0.475110	0.204110	0.132350
H21	H2	0.433200	0.208900	0.163400
N41	N4	0.335950	0.233030	0.881170
C11	C1	0.942780	0.242570	0.945370
H31	H3	0.923700	0.221400	0.985500
C21	C2	0.887670	0.237210	0.863920
H41	H4	0.831700	0.213400	0.848700
C31	C3	0.915870	0.267500	0.804190
C41	C4	0.997230	0.302920	0.830840
H51	H5	0.017400	0.324800	0.792200
C51	C5	0.047580	0.305710	0.913480
H61	H6	0.103000	0.329700	0.930600
C61	C6	0.793380	0.230040	0.679390
C71	C7	0.782960	0.227520	0.587760
H71	H7	0.851400	0.221500	0.579600
H81	H8	0.758300	0.262300	0.563000
C81	C8	0.711400	0.184850	0.541620
H91	H9	0.641700	0.191300	0.546700
H101	H10	0.734300	0.149800	0.566200
C91	C9	0.710000	0.184850	0.450560
H111	H11	0.781000	0.181600	0.446600
H121	H12	0.683000	0.219300	0.425900
C101	C10	0.646200	0.140510	0.400010
H131	H13	0.575100	0.143500	0.403600
H141	H14	0.673300	0.106000	0.424000
C111	C11	0.646400	0.142090	0.308780
H151	H15	0.717600	0.140800	0.305100
H161	H16	0.610300	0.110600	0.280100
C121	C12	0.594800	0.191960	0.265990
H171	H17	0.529900	0.197300	0.280700
H181	H18	0.639200	0.222800	0.286900
C131	C13	0.572650	0.190090	0.173180
C141	C14	0.433320	0.211870	0.047390
C151	C15	0.489040	0.214810	0.989150
H191	H19	0.560800	0.209600	0.004900
C161	C16	0.436910	0.225440	0.907870
H201	H20	0.475200	0.227500	0.868500
C171	C17	0.283570	0.229690	0.937830
H211	H21	0.211900	0.235100	0.920400
C181	C18	0.328050	0.218780	0.019950
H221	H22	0.287400	0.216000	0.057500
C191	C19	0.089360	0.181460	0.129600
C201	C20	0.105110	0.123520	0.126580
C211	C21	0.028570	0.089920	0.136490
H231	H23	0.969400	0.104400	0.147800
C221	C22	0.037600	0.035710	0.130020
H241	H24	0.985800	0.012800	0.138000
C231	C23	0.123290	0.015170	0.111730
C241	C24	0.200820	0.047960	0.101410
H251	H25	0.259200	0.033500	0.088900
C251	C25	0.191380	0.102120	0.109640
H261	H26	0.244400	0.124900	0.103700
C261	C26	0.084610	0.927700	0.141490
C271	C27	0.999500	0.900870	0.096530
H271	H27	0.974900	0.905700	0.038500
C281	C28	0.950200	0.866710	0.137730
H281	H28	0.891500	0.847900	0.107500
C291	C29	0.985870	0.859790	0.222660
C301	C30	0.072500	0.887230	0.266340
H291	H29	0.097800	0.882500	0.324400
C311	C31	0.122000	0.921370	0.225780
H301	H30	0.181000	0.940200	0.255600
C321	C32	0.933060	0.823870	0.268230
C331	C33	0.288160	0.150440	0.296330
C341	C34	0.306450	0.094070	0.322090
C351	C35	0.240120	0.067970	0.359250
H311	H31	0.181100	0.085700	0.365300
C361	C36	0.259610	0.016670	0.387320
H321	H32	0.214500	0.999100	0.412800
C371	C37	0.346290	0.990830	0.377850
C381	C38	0.411310	0.015380	0.338780
H331	H33	0.468800	0.997100	0.330700
C391	C39	0.390840	0.067290	0.311560
H341	H34	0.435400	0.084600	0.285300
C401	C40	0.442460	0.910910	0.397560
C411	C41	0.430000	0.884450	0.324200
H351	H35	0.367900	0.887300	0.281600
C421	C42	0.509100	0.853620	0.313300
H361	H36	0.501300	0.834900	0.262900
C431	C43	0.599730	0.849750	0.375200
C441	C44	0.609300	0.875640	0.449400
H371	H37	0.670600	0.872400	0.492700
C451	C45	0.529900	0.906370	0.461020
H381	H38	0.536000	0.924000	0.512100
C461	C46	0.686170	0.818060	0.361380
Co31	Co3	0.895190	0.781760	0.409060
Co41	Co4	0.747050	0.744250	0.239530
O131	O13	0.259940	0.705920	0.785900
O141	O14	0.364200	0.677920	0.362880
O151	O15	0.832860	0.712570	0.366940
O161	O16	0.996060	0.700450	0.375100
O171	O17	0.864270	0.461470	0.399560
O181	O18	0.033660	0.324040	0.153620
O191	O19	0.140250	0.296010	0.271870
O201	O20	0.649930	0.675040	0.234220
O211	O21	0.789990	0.673930	0.193500
O221	O22	0.638660	0.440450	0.089360
O231	O23	0.227270	0.322770	0.086890
O241	O24	0.333280	0.288530	0.201690
N51	N5	0.977930	0.775990	0.528470
N61	N6	0.127360	0.762820	0.779810
H391	H39	0.101400	0.783200	0.811400
N71	N7	0.524890	0.704110	0.367650
H401	H40	0.566800	0.708900	0.336600
N81	N8	0.664050	0.733030	0.618830
C471	C47	0.057220	0.742570	0.554630
H411	H41	0.076300	0.721400	0.514500
C481	C48	0.112330	0.737210	0.636080
H421	H42	0.168300	0.713400	0.651300
C491	C49	0.084130	0.767500	0.695810
C501	C50	0.002770	0.802920	0.669160
H431	H43	0.982600	0.824800	0.707800
C511	C51	0.952420	0.805710	0.586520
H441	H44	0.897000	0.829700	0.569400
C521	C52	0.206620	0.730040	0.820610
C531	C53	0.217040	0.727520	0.912240
H451	H45	0.148600	0.721500	0.920400
H461	H46	0.241700	0.762300	0.937000
C541	C54	0.288600	0.684850	0.958380
H471	H47	0.358300	0.691300	0.953300
H481	H48	0.265700	0.649800	0.933800
C551	C55	0.290000	0.684850	0.049440
H491	H49	0.219000	0.681600	0.053400
H501	H50	0.317000	0.719300	0.074100
C561	C56	0.353800	0.640510	0.099990
H511	H51	0.424900	0.643500	0.096400
H521	H52	0.326700	0.606000	0.076000
C571	C57	0.353600	0.642090	0.191220
H531	H53	0.282400	0.640800	0.194900
H541	H54	0.389700	0.610600	0.219900
C581	C58	0.405200	0.691960	0.234010
H551	H55	0.470100	0.697300	0.219300
H561	H56	0.360800	0.722800	0.213100
C591	C59	0.427350	0.690090	0.326820
C601	C60	0.566680	0.711870	0.452610
C611	C61	0.510960	0.714810	0.510850
H571	H57	0.439200	0.709600	0.495100
C621	C62	0.563090	0.725440	0.592130
H581	H58	0.524800	0.727500	0.631500
C631	C63	0.716430	0.729690	0.562170
H591	H59	0.788100	0.735100	0.579600
C641	C64	0.671950	0.718780	0.480050
H601	H60	0.712600	0.716000	0.442500
C651	C65	0.910640	0.681460	0.370400
C661	C66	0.894890	0.623520	0.373420
C671	C67	0.971430	0.589920	0.363510
H611	H61	0.030600	0.604400	0.352200
C681	C68	0.962400	0.535710	0.369980
H621	H62	0.014200	0.512800	0.362000
C691	C69	0.876710	0.515170	0.388270
C701	C70	0.799180	0.547960	0.398590
H631	H63	0.740800	0.533500	0.411100
C711	C71	0.808620	0.602120	0.390360
H641	H64	0.755600	0.624900	0.396300
C721	C72	0.915390	0.427700	0.358510
C731	C73	0.000500	0.400870	0.403470
H651	H65	0.025100	0.405700	0.461500
C741	C74	0.049800	0.366710	0.362270
H661	H66	0.108500	0.347900	0.392500
C751	C75	0.014130	0.359790	0.277340
C761	C76	0.927500	0.387230	0.233660
H671	H67	0.902200	0.382500	0.175600
C771	C77	0.878000	0.421370	0.274220
H681	H68	0.819000	0.440200	0.244400
C781	C78	0.066940	0.323870	0.231770
C791	C79	0.711840	0.650440	0.203670
C801	C80	0.693550	0.594070	0.177910
C811	C81	0.759880	0.567970	0.140750
H691	H69	0.818900	0.585700	0.134700
C821	C82	0.740390	0.516670	0.112680
H701	H70	0.785500	0.499100	0.087200
C831	C83	0.653710	0.490830	0.122150
C841	C84	0.588690	0.515380	0.161220
H711	H71	0.531200	0.497100	0.169300
C851	C85	0.609160	0.567290	0.188440
H721	H72	0.564600	0.584600	0.214700
C861	C86	0.557540	0.410910	0.102440
C871	C87	0.570000	0.384450	0.175800
H731	H73	0.632100	0.387300	0.218400
C881	C88	0.490900	0.353620	0.186700
H741	H74	0.498700	0.334900	0.237100
C891	C89	0.400270	0.349750	0.124800
C901	C90	0.390700	0.375640	0.050600
H751	H75	0.329400	0.372400	0.007300
C911	C91	0.470100	0.406370	0.038980
H761	H76	0.464000	0.424000	0.987900
C921	C92	0.313830	0.318060	0.138620
Co51	Co5	0.895190	0.718240	0.909060
Co61	Co6	0.747050	0.755750	0.739530
O251	O25	0.259940	0.794080	0.285900
O261	O26	0.364200	0.822080	0.862880
O271	O27	0.832860	0.787430	0.866940
O281	O28	0.996060	0.799550	0.875100
O291	O29	0.864270	0.038530	0.899560
O301	O30	0.033660	0.175960	0.653620
O311	O31	0.140250	0.203990	0.771870
O321	O32	0.649930	0.824960	0.734220
O331	O33	0.789990	0.826070	0.693500
O341	O34	0.638660	0.059550	0.589360
O351	O35	0.227270	0.177230	0.586890
O361	O36	0.333280	0.211470	0.701690
N91	N9	0.977930	0.724010	0.028470
N101	N10	0.127360	0.737180	0.279810
H771	H77	0.101400	0.716800	0.311400
N111	N11	0.524890	0.795890	0.867650
H781	H78	0.566800	0.791100	0.836600
N121	N12	0.664050	0.766970	0.118830
C931	C93	0.057220	0.757430	0.054630
H791	H79	0.076300	0.778600	0.014500
C941	C94	0.112330	0.762790	0.136080
H801	H80	0.168300	0.786600	0.151300
C951	C95	0.084130	0.732500	0.195810
C961	C96	0.002770	0.697080	0.169160
H811	H81	0.982600	0.675200	0.207800
C971	C97	0.952420	0.694290	0.086520
H821	H82	0.897000	0.670300	0.069400
C981	C98	0.206620	0.769960	0.320610
C991	C99	0.217040	0.772480	0.412240
H831	H83	0.148600	0.778500	0.420400
H841	H84	0.241700	0.737700	0.437000
C1001	C100	0.288600	0.815150	0.458380
H851	H85	0.358300	0.808700	0.453300
H861	H86	0.265700	0.850200	0.433800
C1011	C101	0.290000	0.815150	0.549440
H871	H87	0.219000	0.818400	0.553400
H881	H88	0.317000	0.780700	0.574100
C1021	C102	0.353800	0.859490	0.599990
H891	H89	0.424900	0.856500	0.596400
H901	H90	0.326700	0.894000	0.576000
C1031	C103	0.353600	0.857910	0.691220
H911	H91	0.282400	0.859200	0.694900
H921	H92	0.389700	0.889400	0.719900
C1041	C104	0.405200	0.808040	0.734010
H931	H93	0.470100	0.802700	0.719300
H941	H94	0.360800	0.777200	0.713100
C1051	C105	0.427350	0.809910	0.826820
C1061	C106	0.566680	0.788130	0.952610
C1071	C107	0.510960	0.785190	0.010850
H951	H95	0.439200	0.790400	0.995100
C1081	C108	0.563090	0.774560	0.092130
H961	H96	0.524800	0.772500	0.131500
C1091	C109	0.716430	0.770310	0.062170
H971	H97	0.788100	0.764900	0.079600
C1101	C110	0.671950	0.781220	0.980050
H981	H98	0.712600	0.784000	0.942500
C1111	C111	0.910640	0.818540	0.870400
C1121	C112	0.894890	0.876480	0.873420
C1131	C113	0.971430	0.910080	0.863510
H991	H99	0.030600	0.895600	0.852200
C1141	C114	0.962400	0.964290	0.869980
H1001	H100	0.014200	0.987200	0.862000
C1151	C115	0.876710	0.984830	0.888270
C1161	C116	0.799180	0.952040	0.898590
H1011	H101	0.740800	0.966500	0.911100
C1171	C117	0.808620	0.897880	0.890360
H1021	H102	0.755600	0.875100	0.896300
C1181	C118	0.915390	0.072300	0.858510
C1191	C119	0.000500	0.099130	0.903470
H1031	H103	0.025100	0.094300	0.961500
C1201	C120	0.049800	0.133290	0.862270
H1041	H104	0.108500	0.152100	0.892500
C1211	C121	0.014130	0.140210	0.777340
C1221	C122	0.927500	0.112770	0.733660
H1051	H105	0.902200	0.117500	0.675600
C1231	C123	0.878000	0.078630	0.774220
H1061	H106	0.819000	0.059800	0.744400
C1241	C124	0.066940	0.176130	0.731770
C1251	C125	0.711840	0.849560	0.703670
C1261	C126	0.693550	0.905930	0.677910
C1271	C127	0.759880	0.932030	0.640750
H1071	H107	0.818900	0.914300	0.634700
C1281	C128	0.740390	0.983330	0.612680
H1081	H108	0.785500	0.000900	0.587200
C1291	C129	0.653710	0.009170	0.622150
C1301	C130	0.588690	0.984620	0.661220
H1091	H109	0.531200	0.002900	0.669300
C1311	C131	0.609160	0.932710	0.688440
H1101	H110	0.564600	0.915400	0.714700
C1321	C132	0.557540	0.089090	0.602440
C1331	C133	0.570000	0.115550	0.675800
H1111	H111	0.632100	0.112700	0.718400
C1341	C134	0.490900	0.146380	0.686700
H1121	H112	0.498700	0.165100	0.737100
C1351	C135	0.400270	0.150250	0.624800
C1361	C136	0.390700	0.124360	0.550600
H1131	H113	0.329400	0.127600	0.507300
C1371	C137	0.470100	0.093630	0.538980
H1141	H114	0.464000	0.076000	0.487900
C1381	C138	0.313830	0.181940	0.638620
Co71	Co7	0.104810	0.218240	0.590940
Co81	Co8	0.252950	0.255750	0.760470
O371	O37	0.740060	0.294080	0.214100
O381	O38	0.635800	0.322080	0.637120
O391	O39	0.167140	0.287430	0.633060
O401	O40	0.003940	0.299550	0.624900
O411	O41	0.135730	0.538530	0.600440
O421	O42	0.966340	0.675960	0.846380
O431	O43	0.859750	0.703990	0.728130
O441	O44	0.350070	0.324960	0.765780
O451	O45	0.210010	0.326070	0.806500
O461	O46	0.361340	0.559550	0.910640
O471	O47	0.772730	0.677230	0.913110
O481	O48	0.666720	0.711470	0.798310
N131	N13	0.022070	0.224010	0.471530
N141	N14	0.872640	0.237180	0.220190
H1151	H115	0.898600	0.216800	0.188600
N151	N15	0.475110	0.295890	0.632350
H1161	H116	0.433200	0.291100	0.663400
N161	N16	0.335950	0.266970	0.381170
C1391	C139	0.942780	0.257430	0.445370
H1171	H117	0.923700	0.278600	0.485500
C1401	C140	0.887670	0.262790	0.363920
H1181	H118	0.831700	0.286600	0.348700
C1411	C141	0.915870	0.232500	0.304190
C1421	C142	0.997230	0.197080	0.330840
H1191	H119	0.017400	0.175200	0.292200
C1431	C143	0.047580	0.194290	0.413480
H1201	H120	0.103000	0.170300	0.430600
C1441	C144	0.793380	0.269960	0.179390
C1451	C145	0.782960	0.272480	0.087760
H1211	H121	0.851400	0.278500	0.079600
H1221	H122	0.758300	0.237700	0.063000
C1461	C146	0.711400	0.315150	0.041620
H1231	H123	0.641700	0.308700	0.046700
H1241	H124	0.734300	0.350200	0.066200
C1471	C147	0.710000	0.315150	0.950560
H1251	H125	0.781000	0.318400	0.946600
H1261	H126	0.683000	0.280700	0.925900
C1481	C148	0.646200	0.359490	0.900010
H1271	H127	0.575100	0.356500	0.903600
H1281	H128	0.673300	0.394000	0.924000
C1491	C149	0.646400	0.357910	0.808780
H1291	H129	0.717600	0.359200	0.805100
H1301	H130	0.610300	0.389400	0.780100
C1501	C150	0.594800	0.308040	0.765990
H1311	H131	0.529900	0.302700	0.780700
H1321	H132	0.639200	0.277200	0.786900
C1511	C151	0.572650	0.309910	0.673180
C1521	C152	0.433320	0.288130	0.547390
C1531	C153	0.489040	0.285190	0.489150
H1331	H133	0.560800	0.290400	0.504900
C1541	C154	0.436910	0.274560	0.407870
H1341	H134	0.475200	0.272500	0.368500
C1551	C155	0.283570	0.270310	0.437830
H1351	H135	0.211900	0.264900	0.420400
C1561	C156	0.328050	0.281220	0.519950
H1361	H136	0.287400	0.284000	0.557500
C1571	C157	0.089360	0.318540	0.629600
C1581	C158	0.105110	0.376480	0.626580
C1591	C159	0.028570	0.410080	0.636490
H1371	H137	0.969400	0.395600	0.647800
C1601	C160	0.037600	0.464290	0.630020
H1381	H138	0.985800	0.487200	0.638000
C1611	C161	0.123290	0.484830	0.611730
C1621	C162	0.200820	0.452040	0.601410
H1391	H139	0.259200	0.466500	0.588900
C1631	C163	0.191380	0.397880	0.609640
H1401	H140	0.244400	0.375100	0.603700
C1641	C164	0.084610	0.572300	0.641490
C1651	C165	0.999500	0.599130	0.596530
H1411	H141	0.974900	0.594300	0.538500
C1661	C166	0.950200	0.633290	0.637730
H1421	H142	0.891500	0.652100	0.607500
C1671	C167	0.985870	0.640210	0.722660
C1681	C168	0.072500	0.612770	0.766340
H1431	H143	0.097800	0.617500	0.824400
C1691	C169	0.122000	0.578630	0.725780
H1441	H144	0.181000	0.559800	0.755600
C1701	C170	0.933060	0.676130	0.768230
C1711	C171	0.288160	0.349560	0.796330
C1721	C172	0.306450	0.405930	0.822090
C1731	C173	0.240120	0.432030	0.859250
H1451	H145	0.181100	0.414300	0.865300
C1741	C174	0.259610	0.483330	0.887320
H1461	H146	0.214500	0.500900	0.912800
C1751	C175	0.346290	0.509170	0.877850
C1761	C176	0.411310	0.484620	0.838780
H1471	H147	0.468800	0.502900	0.830700
C1771	C177	0.390840	0.432710	0.811560
H1481	H148	0.435400	0.415400	0.785300
C1781	C178	0.442460	0.589090	0.897560
C1791	C179	0.430000	0.615550	0.824200
H1491	H149	0.367900	0.612700	0.781600
C1801	C180	0.509100	0.646380	0.813300
H1501	H150	0.501300	0.665100	0.762900
C1811	C181	0.599730	0.650250	0.875200
C1821	C182	0.609300	0.624360	0.949400
H1511	H151	0.670600	0.627600	0.992700
C1831	C183	0.529900	0.593630	0.961020
H1521	H152	0.536000	0.576000	0.012100
C1841	C184	0.686170	0.681940	0.861380
