data_GOWHOR_clean_PM
_symmetry_space_group_name_H-M	'P1'
_cell_length_a	16.068500
_cell_length_b	14.625800
_cell_length_c	9.345700
_cell_angle_alpha	90.000000
_cell_angle_beta	117.798000
_cell_angle_gamma	90.000000
_symmetry_Int_Tables_number 1

loop_
_symmetry_equiv_pos_as_xyz
'x,y,z'

loop_
_atom_site_label
_atom_site_type_symbol
_atom_site_fract_x
_atom_site_fract_y
_atom_site_fract_z
O11	O1	0.607290	0.946820	0.980700
O21	O2	0.600160	0.032810	0.171000
C11	C1	0.634100	0.968900	0.124200
C21	C2	0.715600	0.915600	0.251900
C31	C3	0.741700	0.831500	0.215500
H11	H1	0.711800	0.809900	0.109800
C41	C4	0.812000	0.779600	0.335600
H21	H2	0.828100	0.723000	0.310100
C51	C5	0.858600	0.811900	0.494400
C61	C6	0.832700	0.896700	0.528900
H31	H3	0.863900	0.919600	0.633700
C71	C7	0.761500	0.947400	0.409700
H41	H4	0.744200	0.003300	0.435600
C81	C8	0.934100	0.758700	0.627100
C91	C9	0.935900	0.663700	0.626400
H51	H5	0.890900	0.632600	0.536900
O31	O3	0.107290	0.446820	0.980700
O41	O4	0.100160	0.532810	0.171000
C101	C10	0.134100	0.468900	0.124200
C111	C11	0.215600	0.415600	0.251900
C121	C12	0.241700	0.331500	0.215500
H61	H6	0.211800	0.309900	0.109800
C131	C13	0.312000	0.279600	0.335600
H71	H7	0.328100	0.223000	0.310100
C141	C14	0.358600	0.311900	0.494400
C151	C15	0.332700	0.396700	0.528900
H81	H8	0.363900	0.419600	0.633700
C161	C16	0.261500	0.447400	0.409700
H91	H9	0.244200	0.503300	0.435600
C171	C17	0.434100	0.258700	0.627100
C181	C18	0.435900	0.163700	0.626400
H101	H10	0.390900	0.132600	0.536900
O51	O5	0.392710	0.946820	0.519300
O61	O6	0.399840	0.032810	0.329000
C191	C19	0.365900	0.968900	0.375800
C201	C20	0.284400	0.915600	0.248100
C211	C21	0.258300	0.831500	0.284500
H111	H11	0.288200	0.809900	0.390200
C221	C22	0.188000	0.779600	0.164400
H121	H12	0.171900	0.723000	0.189900
C231	C23	0.141400	0.811900	0.005600
C241	C24	0.167300	0.896700	0.971100
H131	H13	0.136100	0.919600	0.866300
C251	C25	0.238500	0.947400	0.090300
H141	H14	0.255800	0.003300	0.064400
C261	C26	0.065900	0.758700	0.872900
C271	C27	0.064100	0.663700	0.873600
H151	H15	0.109100	0.632600	0.963100
O71	O7	0.892710	0.446820	0.519300
O81	O8	0.899840	0.532810	0.329000
C281	C28	0.865900	0.468900	0.375800
C291	C29	0.784400	0.415600	0.248100
C301	C30	0.758300	0.331500	0.284500
H161	H16	0.788200	0.309900	0.390200
C311	C31	0.688000	0.279600	0.164400
H171	H17	0.671900	0.223000	0.189900
C321	C32	0.641400	0.311900	0.005600
C331	C33	0.667300	0.396700	0.971100
H181	H18	0.636100	0.419600	0.866300
C341	C34	0.738500	0.447400	0.090300
H191	H19	0.755800	0.503300	0.064400
C351	C35	0.565900	0.258700	0.872900
C361	C36	0.564100	0.163700	0.873600
H201	H20	0.609100	0.132600	0.963100
O91	O9	0.392710	0.053180	0.019300
O101	O10	0.399840	0.967190	0.829000
C371	C37	0.365900	0.031100	0.875800
C381	C38	0.284400	0.084400	0.748100
C391	C39	0.258300	0.168500	0.784500
H211	H21	0.288200	0.190100	0.890200
C401	C40	0.188000	0.220400	0.664400
H221	H22	0.171900	0.277000	0.689900
C411	C41	0.141400	0.188100	0.505600
C421	C42	0.167300	0.103300	0.471100
H231	H23	0.136100	0.080400	0.366300
C431	C43	0.238500	0.052600	0.590300
H241	H24	0.255800	0.996700	0.564400
C441	C44	0.065900	0.241300	0.372900
C451	C45	0.064100	0.336300	0.373600
H251	H25	0.109100	0.367400	0.463100
O111	O11	0.892710	0.553180	0.019300
O121	O12	0.899840	0.467190	0.829000
C461	C46	0.865900	0.531100	0.875800
C471	C47	0.784400	0.584400	0.748100
C481	C48	0.758300	0.668500	0.784500
H261	H26	0.788200	0.690100	0.890200
C491	C49	0.688000	0.720400	0.664400
H271	H27	0.671900	0.777000	0.689900
C501	C50	0.641400	0.688100	0.505600
C511	C51	0.667300	0.603300	0.471100
H281	H28	0.636100	0.580400	0.366300
C521	C52	0.738500	0.552600	0.590300
H291	H29	0.755800	0.496700	0.564400
C531	C53	0.565900	0.741300	0.372900
C541	C54	0.564100	0.836300	0.373600
H301	H30	0.609100	0.867400	0.463100
O131	O13	0.607290	0.053180	0.480700
O141	O14	0.600160	0.967190	0.671000
C551	C55	0.634100	0.031100	0.624200
C561	C56	0.715600	0.084400	0.751900
C571	C57	0.741700	0.168500	0.715500
H311	H31	0.711800	0.190100	0.609800
C581	C58	0.812000	0.220400	0.835600
H321	H32	0.828100	0.277000	0.810100
C591	C59	0.858600	0.188100	0.994400
C601	C60	0.832700	0.103300	0.028900
H331	H33	0.863900	0.080400	0.133700
C611	C61	0.761500	0.052600	0.909700
H341	H34	0.744200	0.996700	0.935600
C621	C62	0.934100	0.241300	0.127100
C631	C63	0.935900	0.336300	0.126400
H351	H35	0.890900	0.367400	0.036900
O151	O15	0.107290	0.553180	0.480700
O161	O16	0.100160	0.467190	0.671000
C641	C64	0.134100	0.531100	0.624200
C651	C65	0.215600	0.584400	0.751900
C661	C66	0.241700	0.668500	0.715500
H361	H36	0.211800	0.690100	0.609800
C671	C67	0.312000	0.720400	0.835600
H371	H37	0.328100	0.777000	0.810100
C681	C68	0.358600	0.688100	0.994400
C691	C69	0.332700	0.603300	0.028900
H381	H38	0.363900	0.580400	0.133700
C701	C70	0.261500	0.552600	0.909700
H391	H39	0.244200	0.496700	0.935600
C711	C71	0.434100	0.741300	0.127100
C721	C72	0.435900	0.836300	0.126400
H401	H40	0.390900	0.867400	0.036900
Mg11	Mg1	0.500000	0.957280	0.750000
Mg21	Mg2	0.000000	0.457280	0.750000
Mg31	Mg3	0.500000	0.042720	0.250000
Mg41	Mg4	0.000000	0.542720	0.250000
N11	N1	0.000000	0.806200	0.750000
N21	N2	0.000000	0.615800	0.750000
N31	N3	0.500000	0.306200	0.750000
N41	N4	0.500000	0.115800	0.750000
N51	N5	0.000000	0.193800	0.250000
N61	N6	0.000000	0.384200	0.250000
N71	N7	0.500000	0.693800	0.250000
N81	N8	0.500000	0.884200	0.250000
