data_GOZNAM_clean_PM
_symmetry_space_group_name_H-M	'P1'
_cell_length_a	12.622700
_cell_length_b	13.825300
_cell_length_c	32.699000
_cell_angle_alpha	85.587700
_cell_angle_beta	80.297900
_cell_angle_gamma	62.838100
_symmetry_Int_Tables_number 1

loop_
_symmetry_equiv_pos_as_xyz
'x,y,z'

loop_
_atom_site_label
_atom_site_type_symbol
_atom_site_fract_x
_atom_site_fract_y
_atom_site_fract_z
Mn11	Mn1	0.788030	0.999860	0.208310
Mn21	Mn2	0.787890	0.000140	0.708310
Mn31	Mn3	0.212110	0.999860	0.291690
Mn41	Mn4	0.000000	0.000000	0.000000
Mn51	Mn5	0.211970	0.000140	0.791690
Mn61	Mn6	0.000000	0.000000	0.500000
H11	H1	0.754700	0.249600	0.805600
H21	H2	0.579500	0.296200	0.977200
H31	H3	0.662200	0.565800	0.703400
H41	H4	0.522200	0.414400	0.221300
H51	H5	0.936600	0.585600	0.721300
H61	H6	0.198000	0.581800	0.516000
H71	H7	0.083900	0.553400	0.305900
H81	H8	0.371300	0.585200	0.289400
H91	H9	0.824300	0.244800	0.486000
H101	H10	0.682700	0.251600	0.225400
H111	H11	0.124900	0.127200	0.528500
H121	H12	0.471100	0.902200	0.812500
H131	H13	0.893000	0.541200	0.487300
H141	H14	0.065700	0.251600	0.274600
H151	H15	0.528900	0.097800	0.187500
H161	H16	0.802000	0.418200	0.484000
H171	H17	0.373300	0.097800	0.312500
H181	H18	0.245300	0.750400	0.194400
H191	H19	0.434200	0.458800	0.987300
H201	H20	0.875700	0.703800	0.477200
H211	H21	0.875100	0.872800	0.471500
H221	H22	0.069100	0.755200	0.986000
H231	H23	0.930900	0.244800	0.014000
H241	H24	0.916100	0.446600	0.694100
H251	H25	0.973500	0.097000	0.701400
H261	H26	0.175700	0.755200	0.514000
H271	H27	0.637300	0.446600	0.805900
H281	H28	0.317300	0.748400	0.774600
H291	H29	0.362700	0.553400	0.194100
H301	H30	0.772000	0.565800	0.796600
H311	H31	0.779800	0.418200	0.016000
H321	H32	0.879800	0.746800	0.207500
H331	H33	0.004300	0.750400	0.305600
H341	H34	0.628700	0.414800	0.710600
H351	H35	0.391700	0.252800	0.317700
H361	H36	0.043500	0.585200	0.210600
H371	H37	0.608300	0.747200	0.682300
H381	H38	0.420500	0.703800	0.022800
H391	H39	0.120200	0.253200	0.792500
H401	H40	0.747900	0.127200	0.971500
H411	H41	0.477800	0.585600	0.778700
H421	H42	0.124300	0.296200	0.522800
H431	H43	0.626700	0.902200	0.687500
H441	H44	0.373400	0.746800	0.292500
H451	H45	0.565800	0.541200	0.012700
H461	H46	0.063400	0.414400	0.278700
H471	H47	0.220200	0.581800	0.984000
H481	H48	0.107000	0.458800	0.512700
H491	H49	0.026500	0.903000	0.298600
H501	H50	0.644500	0.747200	0.817700
H511	H51	0.337800	0.434200	0.296600
H521	H52	0.626600	0.253200	0.707500
H531	H53	0.252100	0.872800	0.028500
H541	H54	0.355500	0.252800	0.182300
H551	H55	0.956500	0.414800	0.789400
H561	H56	0.934300	0.748400	0.725400
H571	H57	0.995700	0.249600	0.694400
H581	H58	0.929500	0.097000	0.798600
H591	H59	0.228000	0.434200	0.203400
H601	H60	0.070500	0.903000	0.201400
W11	W1	0.879720	0.865620	0.867840
W21	W2	0.745340	0.134380	0.367840
W31	W3	0.254660	0.865620	0.632160
W41	W4	0.120280	0.134380	0.132160
C11	C1	0.234200	0.350000	0.297800
C21	C2	0.885200	0.256000	0.494000
C31	C3	0.052800	0.648400	0.206500
C41	C4	0.383900	0.746400	0.784000
C51	C5	0.343300	0.620800	0.002100
C61	C6	0.310500	0.163400	0.306000
C71	C7	0.232200	0.638800	0.991900
C81	C8	0.218100	0.958600	0.125280
C91	C9	0.931500	0.913400	0.920500
C101	C10	0.616100	0.253600	0.216000
C111	C11	0.386800	0.799400	0.577900
C121	C12	0.478700	0.649400	0.785300
C131	C13	0.813900	0.358600	0.699600
C141	C14	0.172900	0.746000	0.198100
C151	C15	0.106800	0.273600	0.162800
C161	C16	0.584200	0.650000	0.797800
C171	C17	0.226700	0.922000	0.695600
C181	C18	0.700300	0.253400	0.707100
C191	C19	0.129000	0.638800	0.508100
C201	C20	0.114800	0.744000	0.506000
C211	C21	0.380400	0.726400	0.662800
C221	C22	0.827500	0.358600	0.800400
C231	C23	0.081100	0.746000	0.301900
C241	C24	0.172500	0.641400	0.199600
C251	C25	0.675600	0.744800	0.691200
C261	C26	0.827100	0.254000	0.801900
C271	C27	0.526100	0.163400	0.194000
C281	C28	0.932600	0.163000	0.797940
C291	C29	0.060300	0.288800	0.515470
C301	C30	0.701200	0.351600	0.706500
C311	C31	0.689500	0.836600	0.694000
C321	C32	0.765800	0.650000	0.702200
C331	C33	0.904400	0.163000	0.702060
C341	C34	0.035900	0.620800	0.497900
C351	C35	0.813800	0.799400	0.922100
C361	C36	0.068500	0.086600	0.079500
C371	C37	0.067400	0.837000	0.202060
C381	C38	0.420400	0.255200	0.191200
C391	C39	0.324400	0.255200	0.308800
C401	C40	0.128100	0.350600	0.285300
C411	C41	0.396500	0.912400	0.635400
C421	C42	0.773300	0.078000	0.304400
C431	C43	0.858800	0.256000	0.006000
C441	C44	0.823300	0.958600	0.374720
C451	C45	0.707300	0.455000	0.802300
C461	C46	0.349100	0.711200	0.015470
C471	C47	0.893200	0.726400	0.837200
C481	C48	0.844900	0.086600	0.420500
C491	C49	0.095600	0.837000	0.297940
C501	C50	0.292700	0.545000	0.197700
C511	C51	0.938400	0.814600	0.482000
C521	C52	0.753000	0.185400	0.982000
C531	C53	0.155100	0.913400	0.579500
C541	C54	0.925700	0.102600	0.340400
C551	C55	0.964100	0.379200	0.502100
C561	C56	0.656700	0.379200	0.997900
C571	C57	0.740700	0.556600	0.701400
C581	C58	0.028300	0.897400	0.840400
C591	C59	0.971700	0.102600	0.159600
C601	C60	0.851300	0.922000	0.804400
C611	C61	0.299700	0.746600	0.292900
C621	C62	0.702700	0.556600	0.798600
C631	C63	0.767800	0.361200	0.008100
C641	C64	0.247000	0.814600	0.018000
C651	C65	0.297300	0.443400	0.201400
C661	C66	0.552600	0.486400	0.003280
C671	C67	0.613200	0.200600	0.422100
C681	C68	0.298800	0.648400	0.293500
C691	C69	0.415800	0.350000	0.202200
C701	C70	0.039000	0.513600	0.503280
C711	C71	0.141200	0.744000	0.994000
C721	C72	0.186200	0.200600	0.077900
C731	C73	0.130300	0.253600	0.284000
C741	C74	0.837700	0.455000	0.697700
C751	C75	0.308900	0.087600	0.135400
C761	C76	0.473900	0.836600	0.806000
C771	C77	0.521300	0.350600	0.214700
C781	C78	0.959900	0.275400	0.118700
C791	C79	0.871900	0.649400	0.714700
C801	C80	0.447400	0.513600	0.996720
C811	C81	0.046300	0.253400	0.792900
C821	C82	0.869700	0.746400	0.716000
C831	C83	0.061600	0.185400	0.518000
C841	C84	0.579600	0.744800	0.808800
C851	C85	0.040100	0.724600	0.881300
C861	C86	0.235300	0.724600	0.618700
C871	C87	0.961000	0.486400	0.496720
C881	C88	0.947200	0.351600	0.793500
C891	C89	0.918900	0.254000	0.698100
C901	C90	0.650900	0.288800	0.984530
C911	C91	0.619600	0.273600	0.337200
C921	C92	0.074300	0.897400	0.659600
C931	C93	0.691100	0.912400	0.864600
C941	C94	0.148700	0.078000	0.195600
C951	C95	0.186100	0.641400	0.300400
C961	C96	0.162300	0.545000	0.302300
C971	C97	0.176700	0.041400	0.625280
C981	C98	0.953700	0.746600	0.207100
C991	C99	0.259300	0.443400	0.298600
C1001	C100	0.781900	0.041400	0.874720
C1011	C101	0.764700	0.275400	0.381300
C1021	C102	0.603500	0.087600	0.364600
C1031	C103	0.939700	0.711200	0.484530
C1041	C104	0.871000	0.361200	0.491900
N11	N1	0.899100	0.653000	0.820480
N21	N2	0.217440	0.158120	0.294910
N31	N3	0.229200	0.647000	0.609680
N41	N4	0.408700	0.052400	0.137260
N51	N5	0.042200	0.060800	0.052530
N61	N6	0.770800	0.353000	0.390320
N71	N7	0.447900	0.653000	0.679520
N81	N8	0.978700	0.920400	0.676570
N91	N9	0.220800	0.237600	0.047870
N101	N10	0.552100	0.347000	0.320480
N111	N11	0.728700	0.133800	0.879500
N121	N12	0.899100	0.079600	0.176570
N131	N13	0.021300	0.079600	0.323430
N141	N14	0.836200	0.952800	0.771700
N151	N15	0.591300	0.947600	0.862740
N161	N16	0.624440	0.158120	0.205090
N171	N17	0.954900	0.840400	0.207070
N181	N18	0.021900	0.831400	0.493700
N191	N19	0.458400	0.762400	0.547870
N201	N20	0.204700	0.840400	0.292930
N211	N21	0.045100	0.159600	0.792930
N221	N22	0.853300	0.168600	0.993700
N231	N23	0.146700	0.831400	0.006300
N241	N24	0.137500	0.133800	0.620500
N251	N25	0.271300	0.866200	0.120500
N261	N26	0.538900	0.052400	0.362740
N271	N27	0.163800	0.047200	0.228300
N281	N28	0.782560	0.841880	0.705090
N291	N29	0.100900	0.920400	0.823430
N301	N30	0.862500	0.866200	0.379500
N311	N31	0.876200	0.353000	0.109680
N321	N32	0.795300	0.159600	0.707070
N331	N33	0.541600	0.237600	0.452130
N341	N34	0.461100	0.947600	0.637260
N351	N35	0.123800	0.647000	0.890320
N361	N36	0.957800	0.939200	0.947470
N371	N37	0.779200	0.762400	0.952130
N381	N38	0.897000	0.060800	0.447470
N391	N39	0.978100	0.168600	0.506300
N401	N40	0.100900	0.347000	0.179520
N411	N41	0.103000	0.939200	0.552530
N421	N42	0.375560	0.841880	0.794910
N431	N43	0.211000	0.952800	0.728300
N441	N44	0.789000	0.047200	0.271700
