data_GUBZAF_clean_PM
_symmetry_space_group_name_H-M	'P1'
_cell_length_a	11.340000
_cell_length_b	15.770000
_cell_length_c	22.900000
_cell_angle_alpha	90.000000
_cell_angle_beta	97.980000
_cell_angle_gamma	90.000000
_symmetry_Int_Tables_number 1

loop_
_symmetry_equiv_pos_as_xyz
'x,y,z'

loop_
_atom_site_label
_atom_site_type_symbol
_atom_site_fract_x
_atom_site_fract_y
_atom_site_fract_z
Cu11	Cu1	0.387000	0.756610	0.728540
N11	N1	0.266100	0.673600	0.688800
N21	N2	0.176200	0.550600	0.667600
N31	N3	0.108200	0.613000	0.641800
N41	N4	0.489700	0.729700	0.668300
N51	N5	0.640500	0.666000	0.631800
N61	N6	0.558900	0.695200	0.587400
N71	N7	0.517500	0.833800	0.768800
C11	C1	0.564500	0.840100	0.824400
H11	H1	0.540700	0.810100	0.855800
N81	N8	0.650800	0.896300	0.828000
N91	N9	0.657300	0.924800	0.774600
C21	C2	0.574900	0.886200	0.738000
H21	H2	0.559800	0.894400	0.697400
N101	N10	0.273600	0.788800	0.784000
C31	C3	0.241700	0.867500	0.794900
H31	H3	0.273500	0.916700	0.781100
N111	N11	0.156600	0.863800	0.829100
N121	N12	0.135800	0.782700	0.839300
C41	C4	0.208100	0.736400	0.811400
H41	H4	0.212200	0.677500	0.811200
C51	C5	0.270000	0.589700	0.695100
H51	H5	0.333300	0.561400	0.716900
C61	C6	0.163000	0.685700	0.653600
H61	H6	0.134200	0.738100	0.639600
C71	C7	0.992700	0.594500	0.607000
H71	H7	0.952700	0.647800	0.596100
H81	H8	0.944400	0.563600	0.631500
C81	C8	0.999100	0.544900	0.552500
C91	C9	0.078100	0.566000	0.512900
H91	H9	0.131200	0.610700	0.521400
C101	C10	0.922500	0.478600	0.538000
H101	H10	0.869300	0.463700	0.563700
C111	C11	0.595300	0.687900	0.679200
H111	H11	0.632400	0.675900	0.717100
C121	C12	0.472100	0.732300	0.609500
H121	H12	0.406500	0.757200	0.587100
C131	C13	0.566700	0.675300	0.526000
H131	H13	0.647600	0.684600	0.518100
H141	H14	0.514600	0.712800	0.500600
C141	C14	0.531700	0.584000	0.512000
C151	C15	0.425700	0.553200	0.523300
H151	H15	0.373200	0.588600	0.539500
C161	C16	0.605300	0.530700	0.489000
H161	H16	0.678800	0.550400	0.481200
C171	C17	0.740500	0.991800	0.761300
H171	H17	0.798100	0.968300	0.738200
H181	H18	0.783300	0.013900	0.797700
C181	C18	0.671400	0.063400	0.726900
C191	C19	0.640300	0.055300	0.666500
H191	H19	0.666700	0.008600	0.647100
C201	C20	0.571000	0.115400	0.635100
H201	H20	0.549000	0.108500	0.594800
C211	C21	0.533300	0.186300	0.662900
C221	C22	0.569100	0.195900	0.723200
H211	H21	0.547900	0.244400	0.742300
C231	C23	0.636000	0.133600	0.754600
H221	H22	0.657100	0.139500	0.795100
C241	C24	0.043000	0.753200	0.871400
H231	H23	0.993300	0.800700	0.879400
H241	H24	0.078600	0.729600	0.908900
Cu21	Cu2	0.113000	0.256610	0.771460
N131	N13	0.233900	0.173600	0.811200
N141	N14	0.323800	0.050600	0.832400
N151	N15	0.391800	0.113000	0.858200
N161	N16	0.010300	0.229700	0.831700
N171	N17	0.859500	0.166000	0.868200
N181	N18	0.941100	0.195200	0.912600
N191	N19	0.982500	0.333800	0.731200
C251	C25	0.935500	0.340100	0.675600
H251	H25	0.959300	0.310100	0.644200
N201	N20	0.849200	0.396300	0.672000
N211	N21	0.842700	0.424800	0.725400
C261	C26	0.925100	0.386200	0.762000
H261	H26	0.940200	0.394400	0.802600
N221	N22	0.226400	0.288800	0.716000
C271	C27	0.258300	0.367500	0.705100
H271	H27	0.226500	0.416700	0.718900
N231	N23	0.343400	0.363800	0.670900
N241	N24	0.364200	0.282700	0.660700
C281	C28	0.291900	0.236400	0.688600
H281	H28	0.287800	0.177500	0.688800
C291	C29	0.230000	0.089700	0.804900
H291	H29	0.166700	0.061400	0.783100
C301	C30	0.337000	0.185700	0.846400
H301	H30	0.365800	0.238100	0.860400
C311	C31	0.507300	0.094500	0.893000
H311	H31	0.547300	0.147800	0.903900
H321	H32	0.555600	0.063600	0.868500
C321	C32	0.500900	0.044900	0.947500
C331	C33	0.421900	0.066000	0.987100
H331	H33	0.368800	0.110700	0.978600
C341	C34	0.577500	0.978600	0.962000
H341	H34	0.630700	0.963700	0.936300
C351	C35	0.904700	0.187900	0.820800
H351	H35	0.867600	0.175900	0.782900
C361	C36	0.027900	0.232300	0.890500
H361	H36	0.093500	0.257200	0.912900
C371	C37	0.933300	0.175300	0.974000
H371	H37	0.852400	0.184600	0.981900
H381	H38	0.985400	0.212800	0.999400
C381	C38	0.968300	0.084000	0.988000
C391	C39	0.074300	0.053200	0.976700
H391	H39	0.126800	0.088600	0.960500
C401	C40	0.894700	0.030700	0.011000
H401	H40	0.821200	0.050400	0.018800
C411	C41	0.759500	0.491800	0.738700
H411	H41	0.701900	0.468300	0.761800
H421	H42	0.716700	0.513900	0.702300
C421	C42	0.828600	0.563400	0.773100
C431	C43	0.859700	0.555300	0.833500
H431	H43	0.833300	0.508600	0.852900
C441	C44	0.929000	0.615400	0.864900
H441	H44	0.951000	0.608500	0.905200
C451	C45	0.966700	0.686300	0.837100
C461	C46	0.930900	0.695900	0.776800
H451	H45	0.952100	0.744400	0.757700
C471	C47	0.864000	0.633600	0.745400
H461	H46	0.842900	0.639500	0.704900
C481	C48	0.457000	0.253200	0.628600
H471	H47	0.506700	0.300700	0.620600
H481	H48	0.421400	0.229600	0.591100
Cu31	Cu3	0.613000	0.243390	0.271460
N251	N25	0.733900	0.326400	0.311200
N261	N26	0.823800	0.449400	0.332400
N271	N27	0.891800	0.387000	0.358200
N281	N28	0.510300	0.270300	0.331700
N291	N29	0.359500	0.334000	0.368200
N301	N30	0.441100	0.304800	0.412600
N311	N31	0.482500	0.166200	0.231200
C491	C49	0.435500	0.159900	0.175600
H491	H49	0.459300	0.189900	0.144200
N321	N32	0.349200	0.103700	0.172000
N331	N33	0.342700	0.075200	0.225400
C501	C50	0.425100	0.113800	0.262000
H501	H50	0.440200	0.105600	0.302600
N341	N34	0.726400	0.211200	0.216000
C511	C51	0.758300	0.132500	0.205100
H511	H51	0.726500	0.083300	0.218900
N351	N35	0.843400	0.136200	0.170900
N361	N36	0.864200	0.217300	0.160700
C521	C52	0.791900	0.263600	0.188600
H521	H52	0.787800	0.322500	0.188800
C531	C53	0.730000	0.410300	0.304900
H531	H53	0.666700	0.438600	0.283100
C541	C54	0.837000	0.314300	0.346400
H541	H54	0.865800	0.261900	0.360400
C551	C55	0.007300	0.405500	0.393000
H551	H55	0.047300	0.352200	0.403900
H561	H56	0.055600	0.436400	0.368500
C561	C56	0.000900	0.455100	0.447500
C571	C57	0.921900	0.434000	0.487100
H571	H57	0.868800	0.389300	0.478600
C581	C58	0.077500	0.521400	0.462000
H581	H58	0.130700	0.536300	0.436300
C591	C59	0.404700	0.312100	0.320800
H591	H59	0.367600	0.324100	0.282900
C601	C60	0.527900	0.267700	0.390500
H601	H60	0.593500	0.242800	0.412900
C611	C61	0.433300	0.324700	0.474000
H611	H61	0.352400	0.315400	0.481900
H621	H62	0.485400	0.287200	0.499400
C621	C62	0.468300	0.416000	0.488000
C631	C63	0.574300	0.446800	0.476700
H631	H63	0.626800	0.411400	0.460500
C641	C64	0.394700	0.469300	0.511000
H641	H64	0.321200	0.449600	0.518800
C651	C65	0.259500	0.008200	0.238700
H651	H65	0.201900	0.031700	0.261800
H661	H66	0.216700	0.986100	0.202300
C661	C66	0.328600	0.936600	0.273100
C671	C67	0.359700	0.944700	0.333500
H671	H67	0.333300	0.991400	0.352900
C681	C68	0.429000	0.884600	0.364900
H681	H68	0.451000	0.891500	0.405200
C691	C69	0.466700	0.813700	0.337100
C701	C70	0.430900	0.804100	0.276800
H691	H69	0.452100	0.755600	0.257700
C711	C71	0.364000	0.866400	0.245400
H701	H70	0.342900	0.860500	0.204900
C721	C72	0.957000	0.246800	0.128600
H711	H71	0.006700	0.199300	0.120600
H721	H72	0.921400	0.270400	0.091100
Cu41	Cu4	0.887000	0.743390	0.228540
N371	N37	0.766100	0.826400	0.188800
N381	N38	0.676200	0.949400	0.167600
N391	N39	0.608200	0.887000	0.141800
N401	N40	0.989700	0.770300	0.168300
N411	N41	0.140500	0.834000	0.131800
N421	N42	0.058900	0.804800	0.087400
N431	N43	0.017500	0.666200	0.268800
C731	C73	0.064500	0.659900	0.324400
H731	H73	0.040700	0.689900	0.355800
N441	N44	0.150800	0.603700	0.328000
N451	N45	0.157300	0.575200	0.274600
C741	C74	0.074900	0.613800	0.238000
H741	H74	0.059800	0.605600	0.197400
N461	N46	0.773600	0.711200	0.284000
C751	C75	0.741700	0.632500	0.294900
H751	H75	0.773500	0.583300	0.281100
N471	N47	0.656600	0.636200	0.329100
N481	N48	0.635800	0.717300	0.339300
C761	C76	0.708100	0.763600	0.311400
H761	H76	0.712200	0.822500	0.311200
C771	C77	0.770000	0.910300	0.195100
H771	H77	0.833300	0.938600	0.216900
C781	C78	0.663000	0.814300	0.153600
H781	H78	0.634200	0.761900	0.139600
C791	C79	0.492700	0.905500	0.107000
H791	H79	0.452700	0.852200	0.096100
H801	H80	0.444400	0.936400	0.131500
C801	C80	0.499100	0.955100	0.052500
C811	C81	0.578100	0.934000	0.012900
H811	H81	0.631200	0.889300	0.021400
C821	C82	0.422500	0.021400	0.038000
H821	H82	0.369300	0.036300	0.063700
C831	C83	0.095300	0.812100	0.179200
H831	H83	0.132400	0.824100	0.217100
C841	C84	0.972100	0.767700	0.109500
H841	H84	0.906500	0.742800	0.087100
C851	C85	0.066700	0.824700	0.026000
H851	H85	0.147600	0.815400	0.018100
H861	H86	0.014600	0.787200	0.000600
C861	C86	0.031700	0.916000	0.012000
C871	C87	0.925700	0.946800	0.023300
H871	H87	0.873200	0.911400	0.039500
C881	C88	0.105300	0.969300	0.989000
H881	H88	0.178800	0.949600	0.981200
C891	C89	0.240500	0.508200	0.261300
H891	H89	0.298100	0.531700	0.238200
H901	H90	0.283300	0.486100	0.297700
C901	C90	0.171400	0.436600	0.226900
C911	C91	0.140300	0.444700	0.166500
H911	H91	0.166700	0.491400	0.147100
C921	C92	0.071000	0.384600	0.135100
H921	H92	0.049000	0.391500	0.094800
C931	C93	0.033300	0.313700	0.162900
C941	C94	0.069100	0.304100	0.223200
H931	H93	0.047900	0.255600	0.242300
C951	C95	0.136000	0.366400	0.254600
H941	H94	0.157100	0.360500	0.295100
C961	C96	0.543000	0.746800	0.371400
H951	H95	0.493300	0.699300	0.379400
H961	H96	0.578600	0.770400	0.408900
