data_GUFBOA_clean_PM
_symmetry_space_group_name_H-M	'P1'
_cell_length_a	9.005000
_cell_length_b	12.573000
_cell_length_c	19.675000
_cell_angle_alpha	82.313000
_cell_angle_beta	79.259000
_cell_angle_gamma	86.749000
_symmetry_Int_Tables_number 1

loop_
_symmetry_equiv_pos_as_xyz
'x,y,z'

loop_
_atom_site_label
_atom_site_type_symbol
_atom_site_fract_x
_atom_site_fract_y
_atom_site_fract_z
C11	C1	0.851200	0.773600	0.899600
C21	C2	0.863400	0.853700	0.835600
C31	C3	0.958700	0.835700	0.773700
H11	H1	0.025700	0.776600	0.773000
C41	C4	0.954400	0.904100	0.714200
H21	H2	0.016700	0.889300	0.673000
C51	C5	0.860200	0.994800	0.713300
C61	C6	0.766200	0.013400	0.774700
H31	H3	0.700100	0.073000	0.775300
C71	C7	0.769000	0.944700	0.835100
H41	H4	0.706600	0.959600	0.876200
C81	C8	0.850800	0.064500	0.648000
C91	C9	0.850400	0.172300	0.638000
C101	C10	0.971400	0.462400	0.821200
C111	C11	0.985900	0.219600	0.728600
H51	H5	0.038800	0.153900	0.727700
C121	C12	0.012600	0.289300	0.773000
H61	H6	0.081700	0.270400	0.802600
C131	C13	0.935100	0.388200	0.773000
C141	C14	0.833900	0.415600	0.729700
H71	H7	0.783800	0.482400	0.729700
C151	C15	0.804900	0.346600	0.686400
H81	H8	0.734300	0.366000	0.657600
C161	C16	0.881000	0.246400	0.685200
C171	C17	0.781000	0.114300	0.525800
C181	C18	0.736000	0.111500	0.466500
C191	C19	0.651300	0.056500	0.356400
C201	C20	0.631700	0.981700	0.307800
C211	C21	0.566000	0.883900	0.334000
H91	H9	0.529900	0.868800	0.381600
C221	C22	0.553500	0.809000	0.290600
H101	H10	0.506700	0.744600	0.308600
C231	C23	0.610800	0.830000	0.220000
C241	C24	0.676200	0.926800	0.194400
H111	H11	0.714200	0.941500	0.147000
C251	C25	0.686600	0.001800	0.237600
H121	H12	0.731100	0.066800	0.219200
C261	C26	0.643100	0.164800	0.347100
C271	C27	0.602900	0.236100	0.288000
C281	C28	0.479200	0.216400	0.258700
H131	H13	0.422200	0.156300	0.276600
C291	C29	0.440300	0.284900	0.203400
H141	H14	0.358900	0.269600	0.183800
C301	C30	0.521000	0.375500	0.177000
C311	C31	0.641200	0.397000	0.207100
H151	H15	0.695300	0.458900	0.190400
C321	C32	0.682300	0.327100	0.262000
H161	H16	0.764300	0.342200	0.281200
C331	C33	0.480800	0.448700	0.117300
C341	C34	0.601600	0.749800	0.172200
C351	C35	0.269500	0.714400	0.026400
H171	H17	0.264700	0.640000	0.033700
C361	C36	0.136400	0.773400	0.029400
H181	H18	0.044100	0.739900	0.038500
C371	C37	0.142900	0.884900	0.018300
C381	C38	0.282600	0.927300	0.002900
H191	H19	0.291600	0.001400	0.992900
C391	C39	0.410900	0.861900	0.001900
H201	H20	0.505000	0.893200	0.992400
C401	C40	0.998600	0.954500	0.026600
H211	H21	0.914000	0.910800	0.025400
H221	H22	0.982300	0.980000	0.071800
Cd11	Cd1	0.623470	0.659290	0.017390
N11	N1	0.404500	0.756700	0.013900
O11	O1	0.938000	0.689600	0.897200
O21	O2	0.760000	0.793800	0.952700
O31	O3	0.913300	0.559900	0.807900
H231	H23	0.936700	0.598500	0.836400
O41	O4	0.045000	0.435600	0.865300
O51	O5	0.545200	0.659400	0.203500
H241	H24	0.461300	0.653600	0.194100
O61	O6	0.648900	0.765600	0.109700
O71	O7	0.411300	0.416100	0.076600
O81	O8	0.523100	0.544900	0.110100
S11	S1	0.697200	0.228990	0.412160
S21	S2	0.708100	0.994260	0.433360
S31	S3	0.821000	0.998330	0.579840
S41	S4	0.816000	0.233450	0.555840
C411	C41	0.148800	0.226400	0.100400
C421	C42	0.136600	0.146300	0.164400
C431	C43	0.041300	0.164300	0.226300
H251	H25	0.974300	0.223400	0.227000
C441	C44	0.045600	0.095900	0.285800
H261	H26	0.983300	0.110700	0.327000
C451	C45	0.139800	0.005200	0.286700
C461	C46	0.233800	0.986600	0.225300
H271	H27	0.299900	0.927000	0.224700
C471	C47	0.231000	0.055300	0.164900
H281	H28	0.293400	0.040400	0.123800
C481	C48	0.149200	0.935500	0.352000
C491	C49	0.149600	0.827700	0.362000
C501	C50	0.028600	0.537600	0.178800
C511	C51	0.014100	0.780400	0.271400
H291	H29	0.961200	0.846100	0.272300
C521	C52	0.987400	0.710700	0.227000
H301	H30	0.918300	0.729600	0.197400
C531	C53	0.064900	0.611800	0.227000
C541	C54	0.166100	0.584400	0.270300
H311	H31	0.216200	0.517600	0.270300
C551	C55	0.195100	0.653400	0.313600
H321	H32	0.265700	0.634000	0.342400
C561	C56	0.119000	0.753600	0.314800
C571	C57	0.219000	0.885700	0.474200
C581	C58	0.264000	0.888500	0.533500
C591	C59	0.348700	0.943500	0.643600
C601	C60	0.368300	0.018300	0.692200
C611	C61	0.434000	0.116100	0.666000
H331	H33	0.470100	0.131200	0.618400
C621	C62	0.446500	0.191000	0.709400
H341	H34	0.493300	0.255400	0.691400
C631	C63	0.389200	0.170000	0.780000
C641	C64	0.323800	0.073200	0.805600
H351	H35	0.285800	0.058500	0.853000
C651	C65	0.313400	0.998200	0.762400
H361	H36	0.268900	0.933200	0.780800
C661	C66	0.356900	0.835200	0.652900
C671	C67	0.397100	0.763900	0.712000
C681	C68	0.520800	0.783600	0.741300
H371	H37	0.577800	0.843700	0.723400
C691	C69	0.559700	0.715100	0.796600
H381	H38	0.641100	0.730400	0.816200
C701	C70	0.479000	0.624500	0.823000
C711	C71	0.358800	0.603000	0.792900
H391	H39	0.304700	0.541100	0.809600
C721	C72	0.317700	0.672900	0.738000
H401	H40	0.235700	0.657800	0.718800
C731	C73	0.519200	0.551300	0.882700
C741	C74	0.398400	0.250200	0.827800
C751	C75	0.730500	0.285600	0.973600
H411	H41	0.735300	0.360000	0.966300
C761	C76	0.863600	0.226600	0.970600
H421	H42	0.955900	0.260100	0.961500
C771	C77	0.857100	0.115100	0.981700
C781	C78	0.717400	0.072700	0.997100
H431	H43	0.708400	0.998600	0.007100
C791	C79	0.589100	0.138100	0.998100
H441	H44	0.495000	0.106800	0.007600
C801	C80	0.001400	0.045500	0.973400
H451	H45	0.086000	0.089200	0.974600
H461	H46	0.017700	0.020000	0.928200
Cd21	Cd2	0.376530	0.340710	0.982610
N21	N2	0.595500	0.243300	0.986100
O91	O9	0.062000	0.310400	0.102800
O101	O10	0.240000	0.206200	0.047300
O111	O11	0.086700	0.440100	0.192100
H471	H47	0.063300	0.401500	0.163600
O121	O12	0.955000	0.564400	0.134700
O131	O13	0.454800	0.340600	0.796500
H481	H48	0.538700	0.346400	0.805900
O141	O14	0.351100	0.234400	0.890300
O151	O15	0.588700	0.583900	0.923400
O161	O16	0.476900	0.455100	0.889900
S51	S5	0.302800	0.771010	0.587840
S61	S6	0.291900	0.005740	0.566640
S71	S7	0.179000	0.001670	0.420160
S81	S8	0.184000	0.766550	0.444160
