data_GUHNUU_clean_PM
_symmetry_space_group_name_H-M	'P1'
_cell_length_a	32.985000
_cell_length_b	8.990100
_cell_length_c	34.432000
_cell_angle_alpha	90.000000
_cell_angle_beta	115.591000
_cell_angle_gamma	90.000000
_symmetry_Int_Tables_number 1

loop_
_symmetry_equiv_pos_as_xyz
'x,y,z'

loop_
_atom_site_label
_atom_site_type_symbol
_atom_site_fract_x
_atom_site_fract_y
_atom_site_fract_z
La11	La1	0.996400	0.642500	0.119030
O11	O1	0.049280	0.819000	0.173940
O21	O2	0.032340	0.621800	0.202130
O31	O3	0.428730	0.017900	0.365860
O41	O4	0.467660	0.097400	0.431490
O51	O5	0.429240	0.906900	0.549280
O61	O6	0.367530	0.768900	0.529320
H11	H1	0.378200	0.744400	0.554700
O71	O7	0.065150	0.701000	0.361540
O81	O8	0.133300	0.775200	0.401440
N11	N1	0.171700	0.082800	0.300800
H21	H2	0.185200	0.122300	0.325900
N21	N2	0.315700	0.657800	0.375400
H31	H3	0.298800	0.612600	0.384800
C11	C1	0.308200	0.628000	0.331750
H41	H4	0.336400	0.603100	0.330900
H51	H5	0.296000	0.715800	0.314200
C21	C2	0.275400	0.499200	0.314020
C31	C3	0.229300	0.527800	0.294240
C41	C4	0.198800	0.409200	0.278540
C51	C5	0.215600	0.263200	0.283280
C61	C6	0.262200	0.234400	0.304260
C71	C7	0.292300	0.354000	0.319500
C81	C8	0.182400	0.136200	0.266750
H61	H6	0.155200	0.169800	0.242700
H71	H7	0.195300	0.056100	0.256800
C91	C9	0.148800	0.437700	0.257900
H81	H8	0.142800	0.530800	0.268000
H91	H9	0.133800	0.359000	0.265500
H101	H10	0.138000	0.441200	0.227200
C101	C10	0.211600	0.685000	0.291000
H111	H11	0.234200	0.754200	0.292000
H121	H12	0.204100	0.703800	0.314500
H131	H13	0.185200	0.696600	0.264200
C111	C11	0.342400	0.322200	0.341900
H141	H14	0.355600	0.340100	0.322300
H151	H15	0.347100	0.220200	0.351100
H161	H16	0.356200	0.386100	0.366500
C121	C12	0.279000	0.076800	0.310600
H171	H17	0.254800	0.011100	0.293800
H181	H18	0.290200	0.050800	0.340500
H191	H19	0.302600	0.067600	0.301600
C131	C13	0.140900	0.971300	0.294840
C141	C14	0.113200	0.914100	0.254930
H201	H20	0.115400	0.950100	0.230600
C151	C15	0.082130	0.804200	0.250460
C161	C16	0.077730	0.749000	0.286280
H211	H21	0.056500	0.676400	0.283300
C171	C17	0.106000	0.805500	0.326470
C181	C18	0.137200	0.913000	0.330620
H221	H22	0.156300	0.947400	0.357900
C191	C19	0.052730	0.745000	0.206130
C201	C20	0.435920	0.021100	0.404610
C211	C21	0.407310	0.930800	0.419280
C221	C22	0.416100	0.930100	0.462560
H231	H23	0.439300	0.987100	0.482500
C231	C23	0.389000	0.841100	0.475650
C241	C24	0.355500	0.755300	0.446240
H241	H24	0.337700	0.698000	0.455300
C251	C25	0.347500	0.751900	0.402930
C261	C26	0.373800	0.842000	0.389740
H251	H25	0.368800	0.842400	0.361000
C271	C27	0.397100	0.841300	0.521990
C281	C28	0.100000	0.755000	0.365120
La21	La2	0.496400	0.142500	0.119030
O91	O9	0.549280	0.319000	0.173940
O101	O10	0.532340	0.121800	0.202130
O111	O11	0.928730	0.517900	0.365860
O121	O12	0.967660	0.597400	0.431490
O131	O13	0.929240	0.406900	0.549280
O141	O14	0.867530	0.268900	0.529320
H261	H26	0.878200	0.244400	0.554700
O151	O15	0.565150	0.201000	0.361540
O161	O16	0.633300	0.275200	0.401440
N31	N3	0.671700	0.582800	0.300800
H271	H27	0.685200	0.622300	0.325900
N41	N4	0.815700	0.157800	0.375400
H281	H28	0.798800	0.112600	0.384800
C291	C29	0.808200	0.128000	0.331750
H291	H29	0.836400	0.103100	0.330900
H301	H30	0.796000	0.215800	0.314200
C301	C30	0.775400	0.999200	0.314020
C311	C31	0.729300	0.027800	0.294240
C321	C32	0.698800	0.909200	0.278540
C331	C33	0.715600	0.763200	0.283280
C341	C34	0.762200	0.734400	0.304260
C351	C35	0.792300	0.854000	0.319500
C361	C36	0.682400	0.636200	0.266750
H311	H31	0.655200	0.669800	0.242700
H321	H32	0.695300	0.556100	0.256800
C371	C37	0.648800	0.937700	0.257900
H331	H33	0.642800	0.030800	0.268000
H341	H34	0.633800	0.859000	0.265500
H351	H35	0.638000	0.941200	0.227200
C381	C38	0.711600	0.185000	0.291000
H361	H36	0.734200	0.254200	0.292000
H371	H37	0.704100	0.203800	0.314500
H381	H38	0.685200	0.196600	0.264200
C391	C39	0.842400	0.822200	0.341900
H391	H39	0.855600	0.840100	0.322300
H401	H40	0.847100	0.720200	0.351100
H411	H41	0.856200	0.886100	0.366500
C401	C40	0.779000	0.576800	0.310600
H421	H42	0.754800	0.511100	0.293800
H431	H43	0.790200	0.550800	0.340500
H441	H44	0.802600	0.567600	0.301600
C411	C41	0.640900	0.471300	0.294840
C421	C42	0.613200	0.414100	0.254930
H451	H45	0.615400	0.450100	0.230600
C431	C43	0.582130	0.304200	0.250460
C441	C44	0.577730	0.249000	0.286280
H461	H46	0.556500	0.176400	0.283300
C451	C45	0.606000	0.305500	0.326470
C461	C46	0.637200	0.413000	0.330620
H471	H47	0.656300	0.447400	0.357900
C471	C47	0.552730	0.245000	0.206130
C481	C48	0.935920	0.521100	0.404610
C491	C49	0.907310	0.430800	0.419280
C501	C50	0.916100	0.430100	0.462560
H481	H48	0.939300	0.487100	0.482500
C511	C51	0.889000	0.341100	0.475650
C521	C52	0.855500	0.255300	0.446240
H491	H49	0.837700	0.198000	0.455300
C531	C53	0.847500	0.251900	0.402930
C541	C54	0.873800	0.342000	0.389740
H501	H50	0.868800	0.342400	0.361000
C551	C55	0.897100	0.341300	0.521990
C561	C56	0.600000	0.255000	0.365120
La31	La3	0.003600	0.642500	0.380970
O171	O17	0.950720	0.819000	0.326060
O181	O18	0.967660	0.621800	0.297870
O191	O19	0.571270	0.017900	0.134140
O201	O20	0.532340	0.097400	0.068510
O211	O21	0.570760	0.906900	0.950720
O221	O22	0.632470	0.768900	0.970680
H511	H51	0.621800	0.744400	0.945300
O231	O23	0.934850	0.701000	0.138460
O241	O24	0.866700	0.775200	0.098560
N51	N5	0.828300	0.082800	0.199200
H521	H52	0.814800	0.122300	0.174100
N61	N6	0.684300	0.657800	0.124600
H531	H53	0.701200	0.612600	0.115200
C571	C57	0.691800	0.628000	0.168250
H541	H54	0.663600	0.603100	0.169100
H551	H55	0.704000	0.715800	0.185800
C581	C58	0.724600	0.499200	0.185980
C591	C59	0.770700	0.527800	0.205760
C601	C60	0.801200	0.409200	0.221460
C611	C61	0.784400	0.263200	0.216720
C621	C62	0.737800	0.234400	0.195740
C631	C63	0.707700	0.354000	0.180500
C641	C64	0.817600	0.136200	0.233250
H561	H56	0.844800	0.169800	0.257300
H571	H57	0.804700	0.056100	0.243200
C651	C65	0.851200	0.437700	0.242100
H581	H58	0.857200	0.530800	0.232000
H591	H59	0.866200	0.359000	0.234500
H601	H60	0.862000	0.441200	0.272800
C661	C66	0.788400	0.685000	0.209000
H611	H61	0.765800	0.754200	0.208000
H621	H62	0.795900	0.703800	0.185500
H631	H63	0.814800	0.696600	0.235800
C671	C67	0.657600	0.322200	0.158100
H641	H64	0.644400	0.340100	0.177700
H651	H65	0.652900	0.220200	0.148900
H661	H66	0.643800	0.386100	0.133500
C681	C68	0.721000	0.076800	0.189400
H671	H67	0.745200	0.011100	0.206200
H681	H68	0.709800	0.050800	0.159500
H691	H69	0.697400	0.067600	0.198400
C691	C69	0.859100	0.971300	0.205160
C701	C70	0.886800	0.914100	0.245070
H701	H70	0.884600	0.950100	0.269400
C711	C71	0.917870	0.804200	0.249540
C721	C72	0.922270	0.749000	0.213720
H711	H71	0.943500	0.676400	0.216700
C731	C73	0.894000	0.805500	0.173530
C741	C74	0.862800	0.913000	0.169380
H721	H72	0.843700	0.947400	0.142100
C751	C75	0.947270	0.745000	0.293870
C761	C76	0.564080	0.021100	0.095390
C771	C77	0.592690	0.930800	0.080720
C781	C78	0.583900	0.930100	0.037440
H731	H73	0.560700	0.987100	0.017500
C791	C79	0.611000	0.841100	0.024350
C801	C80	0.644500	0.755300	0.053760
H741	H74	0.662300	0.698000	0.044700
C811	C81	0.652500	0.751900	0.097070
C821	C82	0.626200	0.842000	0.110260
H751	H75	0.631200	0.842400	0.139000
C831	C83	0.602900	0.841300	0.978010
C841	C84	0.900000	0.755000	0.134880
La41	La4	0.503600	0.142500	0.380970
O251	O25	0.450720	0.319000	0.326060
O261	O26	0.467660	0.121800	0.297870
O271	O27	0.071270	0.517900	0.134140
O281	O28	0.032340	0.597400	0.068510
O291	O29	0.070760	0.406900	0.950720
O301	O30	0.132470	0.268900	0.970680
H761	H76	0.121800	0.244400	0.945300
O311	O31	0.434850	0.201000	0.138460
O321	O32	0.366700	0.275200	0.098560
N71	N7	0.328300	0.582800	0.199200
H771	H77	0.314800	0.622300	0.174100
N81	N8	0.184300	0.157800	0.124600
H781	H78	0.201200	0.112600	0.115200
C851	C85	0.191800	0.128000	0.168250
H791	H79	0.163600	0.103100	0.169100
H801	H80	0.204000	0.215800	0.185800
C861	C86	0.224600	0.999200	0.185980
C871	C87	0.270700	0.027800	0.205760
C881	C88	0.301200	0.909200	0.221460
C891	C89	0.284400	0.763200	0.216720
C901	C90	0.237800	0.734400	0.195740
C911	C91	0.207700	0.854000	0.180500
C921	C92	0.317600	0.636200	0.233250
H811	H81	0.344800	0.669800	0.257300
H821	H82	0.304700	0.556100	0.243200
C931	C93	0.351200	0.937700	0.242100
H831	H83	0.357200	0.030800	0.232000
H841	H84	0.366200	0.859000	0.234500
H851	H85	0.362000	0.941200	0.272800
C941	C94	0.288400	0.185000	0.209000
H861	H86	0.265800	0.254200	0.208000
H871	H87	0.295900	0.203800	0.185500
H881	H88	0.314800	0.196600	0.235800
C951	C95	0.157600	0.822200	0.158100
H891	H89	0.144400	0.840100	0.177700
H901	H90	0.152900	0.720200	0.148900
H911	H91	0.143800	0.886100	0.133500
C961	C96	0.221000	0.576800	0.189400
H921	H92	0.245200	0.511100	0.206200
H931	H93	0.209800	0.550800	0.159500
H941	H94	0.197400	0.567600	0.198400
C971	C97	0.359100	0.471300	0.205160
C981	C98	0.386800	0.414100	0.245070
H951	H95	0.384600	0.450100	0.269400
C991	C99	0.417870	0.304200	0.249540
C1001	C100	0.422270	0.249000	0.213720
H961	H96	0.443500	0.176400	0.216700
C1011	C101	0.394000	0.305500	0.173530
C1021	C102	0.362800	0.413000	0.169380
H971	H97	0.343700	0.447400	0.142100
C1031	C103	0.447270	0.245000	0.293870
C1041	C104	0.064080	0.521100	0.095390
C1051	C105	0.092690	0.430800	0.080720
C1061	C106	0.083900	0.430100	0.037440
H981	H98	0.060700	0.487100	0.017500
C1071	C107	0.111000	0.341100	0.024350
C1081	C108	0.144500	0.255300	0.053760
H991	H99	0.162300	0.198000	0.044700
C1091	C109	0.152500	0.251900	0.097070
C1101	C110	0.126200	0.342000	0.110260
H1001	H100	0.131200	0.342400	0.139000
C1111	C111	0.102900	0.341300	0.978010
C1121	C112	0.400000	0.255000	0.134880
La51	La5	0.003600	0.357500	0.880970
O331	O33	0.950720	0.181000	0.826060
O341	O34	0.967660	0.378200	0.797870
O351	O35	0.571270	0.982100	0.634140
O361	O36	0.532340	0.902600	0.568510
O371	O37	0.570760	0.093100	0.450720
O381	O38	0.632470	0.231100	0.470680
H1011	H101	0.621800	0.255600	0.445300
O391	O39	0.934850	0.299000	0.638460
O401	O40	0.866700	0.224800	0.598560
N91	N9	0.828300	0.917200	0.699200
H1021	H102	0.814800	0.877700	0.674100
N101	N10	0.684300	0.342200	0.624600
H1031	H103	0.701200	0.387400	0.615200
C1131	C113	0.691800	0.372000	0.668250
H1041	H104	0.663600	0.396900	0.669100
H1051	H105	0.704000	0.284200	0.685800
C1141	C114	0.724600	0.500800	0.685980
C1151	C115	0.770700	0.472200	0.705760
C1161	C116	0.801200	0.590800	0.721460
C1171	C117	0.784400	0.736800	0.716720
C1181	C118	0.737800	0.765600	0.695740
C1191	C119	0.707700	0.646000	0.680500
C1201	C120	0.817600	0.863800	0.733250
H1061	H106	0.844800	0.830200	0.757300
H1071	H107	0.804700	0.943900	0.743200
C1211	C121	0.851200	0.562300	0.742100
H1081	H108	0.857200	0.469200	0.732000
H1091	H109	0.866200	0.641000	0.734500
H1101	H110	0.862000	0.558800	0.772800
C1221	C122	0.788400	0.315000	0.709000
H1111	H111	0.765800	0.245800	0.708000
H1121	H112	0.795900	0.296200	0.685500
H1131	H113	0.814800	0.303400	0.735800
C1231	C123	0.657600	0.677800	0.658100
H1141	H114	0.644400	0.659900	0.677700
H1151	H115	0.652900	0.779800	0.648900
H1161	H116	0.643800	0.613900	0.633500
C1241	C124	0.721000	0.923200	0.689400
H1171	H117	0.745200	0.988900	0.706200
H1181	H118	0.709800	0.949200	0.659500
H1191	H119	0.697400	0.932400	0.698400
C1251	C125	0.859100	0.028700	0.705160
C1261	C126	0.886800	0.085900	0.745070
H1201	H120	0.884600	0.049900	0.769400
C1271	C127	0.917870	0.195800	0.749540
C1281	C128	0.922270	0.251000	0.713720
H1211	H121	0.943500	0.323600	0.716700
C1291	C129	0.894000	0.194500	0.673530
C1301	C130	0.862800	0.087000	0.669380
H1221	H122	0.843700	0.052600	0.642100
C1311	C131	0.947270	0.255000	0.793870
C1321	C132	0.564080	0.978900	0.595390
C1331	C133	0.592690	0.069200	0.580720
C1341	C134	0.583900	0.069900	0.537440
H1231	H123	0.560700	0.012900	0.517500
C1351	C135	0.611000	0.158900	0.524350
C1361	C136	0.644500	0.244700	0.553760
H1241	H124	0.662300	0.302000	0.544700
C1371	C137	0.652500	0.248100	0.597070
C1381	C138	0.626200	0.158000	0.610260
H1251	H125	0.631200	0.157600	0.639000
C1391	C139	0.602900	0.158700	0.478010
C1401	C140	0.900000	0.245000	0.634880
La61	La6	0.503600	0.857500	0.880970
O411	O41	0.450720	0.681000	0.826060
O421	O42	0.467660	0.878200	0.797870
O431	O43	0.071270	0.482100	0.634140
O441	O44	0.032340	0.402600	0.568510
O451	O45	0.070760	0.593100	0.450720
O461	O46	0.132470	0.731100	0.470680
H1261	H126	0.121800	0.755600	0.445300
O471	O47	0.434850	0.799000	0.638460
O481	O48	0.366700	0.724800	0.598560
N111	N11	0.328300	0.417200	0.699200
H1271	H127	0.314800	0.377700	0.674100
N121	N12	0.184300	0.842200	0.624600
H1281	H128	0.201200	0.887400	0.615200
C1411	C141	0.191800	0.872000	0.668250
H1291	H129	0.163600	0.896900	0.669100
H1301	H130	0.204000	0.784200	0.685800
C1421	C142	0.224600	0.000800	0.685980
C1431	C143	0.270700	0.972200	0.705760
C1441	C144	0.301200	0.090800	0.721460
C1451	C145	0.284400	0.236800	0.716720
C1461	C146	0.237800	0.265600	0.695740
C1471	C147	0.207700	0.146000	0.680500
C1481	C148	0.317600	0.363800	0.733250
H1311	H131	0.344800	0.330200	0.757300
H1321	H132	0.304700	0.443900	0.743200
C1491	C149	0.351200	0.062300	0.742100
H1331	H133	0.357200	0.969200	0.732000
H1341	H134	0.366200	0.141000	0.734500
H1351	H135	0.362000	0.058800	0.772800
C1501	C150	0.288400	0.815000	0.709000
H1361	H136	0.265800	0.745800	0.708000
H1371	H137	0.295900	0.796200	0.685500
H1381	H138	0.314800	0.803400	0.735800
C1511	C151	0.157600	0.177800	0.658100
H1391	H139	0.144400	0.159900	0.677700
H1401	H140	0.152900	0.279800	0.648900
H1411	H141	0.143800	0.113900	0.633500
C1521	C152	0.221000	0.423200	0.689400
H1421	H142	0.245200	0.488900	0.706200
H1431	H143	0.209800	0.449200	0.659500
H1441	H144	0.197400	0.432400	0.698400
C1531	C153	0.359100	0.528700	0.705160
C1541	C154	0.386800	0.585900	0.745070
H1451	H145	0.384600	0.549900	0.769400
C1551	C155	0.417870	0.695800	0.749540
C1561	C156	0.422270	0.751000	0.713720
H1461	H146	0.443500	0.823600	0.716700
C1571	C157	0.394000	0.694500	0.673530
C1581	C158	0.362800	0.587000	0.669380
H1471	H147	0.343700	0.552600	0.642100
C1591	C159	0.447270	0.755000	0.793870
C1601	C160	0.064080	0.478900	0.595390
C1611	C161	0.092690	0.569200	0.580720
C1621	C162	0.083900	0.569900	0.537440
H1481	H148	0.060700	0.512900	0.517500
C1631	C163	0.111000	0.658900	0.524350
C1641	C164	0.144500	0.744700	0.553760
H1491	H149	0.162300	0.802000	0.544700
C1651	C165	0.152500	0.748100	0.597070
C1661	C166	0.126200	0.658000	0.610260
H1501	H150	0.131200	0.657600	0.639000
C1671	C167	0.102900	0.658700	0.478010
C1681	C168	0.400000	0.745000	0.634880
La71	La7	0.996400	0.357500	0.619030
O491	O49	0.049280	0.181000	0.673940
O501	O50	0.032340	0.378200	0.702130
O511	O51	0.428730	0.982100	0.865860
O521	O52	0.467660	0.902600	0.931490
O531	O53	0.429240	0.093100	0.049280
O541	O54	0.367530	0.231100	0.029320
H1511	H151	0.378200	0.255600	0.054700
O551	O55	0.065150	0.299000	0.861540
O561	O56	0.133300	0.224800	0.901440
N131	N13	0.171700	0.917200	0.800800
H1521	H152	0.185200	0.877700	0.825900
N141	N14	0.315700	0.342200	0.875400
H1531	H153	0.298800	0.387400	0.884800
C1691	C169	0.308200	0.372000	0.831750
H1541	H154	0.336400	0.396900	0.830900
H1551	H155	0.296000	0.284200	0.814200
C1701	C170	0.275400	0.500800	0.814020
C1711	C171	0.229300	0.472200	0.794240
C1721	C172	0.198800	0.590800	0.778540
C1731	C173	0.215600	0.736800	0.783280
C1741	C174	0.262200	0.765600	0.804260
C1751	C175	0.292300	0.646000	0.819500
C1761	C176	0.182400	0.863800	0.766750
H1561	H156	0.155200	0.830200	0.742700
H1571	H157	0.195300	0.943900	0.756800
C1771	C177	0.148800	0.562300	0.757900
H1581	H158	0.142800	0.469200	0.768000
H1591	H159	0.133800	0.641000	0.765500
H1601	H160	0.138000	0.558800	0.727200
C1781	C178	0.211600	0.315000	0.791000
H1611	H161	0.234200	0.245800	0.792000
H1621	H162	0.204100	0.296200	0.814500
H1631	H163	0.185200	0.303400	0.764200
C1791	C179	0.342400	0.677800	0.841900
H1641	H164	0.355600	0.659900	0.822300
H1651	H165	0.347100	0.779800	0.851100
H1661	H166	0.356200	0.613900	0.866500
C1801	C180	0.279000	0.923200	0.810600
H1671	H167	0.254800	0.988900	0.793800
H1681	H168	0.290200	0.949200	0.840500
H1691	H169	0.302600	0.932400	0.801600
C1811	C181	0.140900	0.028700	0.794840
C1821	C182	0.113200	0.085900	0.754930
H1701	H170	0.115400	0.049900	0.730600
C1831	C183	0.082130	0.195800	0.750460
C1841	C184	0.077730	0.251000	0.786280
H1711	H171	0.056500	0.323600	0.783300
C1851	C185	0.106000	0.194500	0.826470
C1861	C186	0.137200	0.087000	0.830620
H1721	H172	0.156300	0.052600	0.857900
C1871	C187	0.052730	0.255000	0.706130
C1881	C188	0.435920	0.978900	0.904610
C1891	C189	0.407310	0.069200	0.919280
C1901	C190	0.416100	0.069900	0.962560
H1731	H173	0.439300	0.012900	0.982500
C1911	C191	0.389000	0.158900	0.975650
C1921	C192	0.355500	0.244700	0.946240
H1741	H174	0.337700	0.302000	0.955300
C1931	C193	0.347500	0.248100	0.902930
C1941	C194	0.373800	0.158000	0.889740
H1751	H175	0.368800	0.157600	0.861000
C1951	C195	0.397100	0.158700	0.021990
C1961	C196	0.100000	0.245000	0.865120
La81	La8	0.496400	0.857500	0.619030
O571	O57	0.549280	0.681000	0.673940
O581	O58	0.532340	0.878200	0.702130
O591	O59	0.928730	0.482100	0.865860
O601	O60	0.967660	0.402600	0.931490
O611	O61	0.929240	0.593100	0.049280
O621	O62	0.867530	0.731100	0.029320
H1761	H176	0.878200	0.755600	0.054700
O631	O63	0.565150	0.799000	0.861540
O641	O64	0.633300	0.724800	0.901440
N151	N15	0.671700	0.417200	0.800800
H1771	H177	0.685200	0.377700	0.825900
N161	N16	0.815700	0.842200	0.875400
H1781	H178	0.798800	0.887400	0.884800
C1971	C197	0.808200	0.872000	0.831750
H1791	H179	0.836400	0.896900	0.830900
H1801	H180	0.796000	0.784200	0.814200
C1981	C198	0.775400	0.000800	0.814020
C1991	C199	0.729300	0.972200	0.794240
C2001	C200	0.698800	0.090800	0.778540
C2011	C201	0.715600	0.236800	0.783280
C2021	C202	0.762200	0.265600	0.804260
C2031	C203	0.792300	0.146000	0.819500
C2041	C204	0.682400	0.363800	0.766750
H1811	H181	0.655200	0.330200	0.742700
H1821	H182	0.695300	0.443900	0.756800
C2051	C205	0.648800	0.062300	0.757900
H1831	H183	0.642800	0.969200	0.768000
H1841	H184	0.633800	0.141000	0.765500
H1851	H185	0.638000	0.058800	0.727200
C2061	C206	0.711600	0.815000	0.791000
H1861	H186	0.734200	0.745800	0.792000
H1871	H187	0.704100	0.796200	0.814500
H1881	H188	0.685200	0.803400	0.764200
C2071	C207	0.842400	0.177800	0.841900
H1891	H189	0.855600	0.159900	0.822300
H1901	H190	0.847100	0.279800	0.851100
H1911	H191	0.856200	0.113900	0.866500
C2081	C208	0.779000	0.423200	0.810600
H1921	H192	0.754800	0.488900	0.793800
H1931	H193	0.790200	0.449200	0.840500
H1941	H194	0.802600	0.432400	0.801600
C2091	C209	0.640900	0.528700	0.794840
C2101	C210	0.613200	0.585900	0.754930
H1951	H195	0.615400	0.549900	0.730600
C2111	C211	0.582130	0.695800	0.750460
C2121	C212	0.577730	0.751000	0.786280
H1961	H196	0.556500	0.823600	0.783300
C2131	C213	0.606000	0.694500	0.826470
C2141	C214	0.637200	0.587000	0.830620
H1971	H197	0.656300	0.552600	0.857900
C2151	C215	0.552730	0.755000	0.706130
C2161	C216	0.935920	0.478900	0.904610
C2171	C217	0.907310	0.569200	0.919280
C2181	C218	0.916100	0.569900	0.962560
H1981	H198	0.939300	0.512900	0.982500
C2191	C219	0.889000	0.658900	0.975650
C2201	C220	0.855500	0.744700	0.946240
H1991	H199	0.837700	0.802000	0.955300
C2211	C221	0.847500	0.748100	0.902930
C2221	C222	0.873800	0.658000	0.889740
H2001	H200	0.868800	0.657600	0.861000
C2231	C223	0.897100	0.658700	0.021990
C2241	C224	0.600000	0.745000	0.865120
