data_GUHPEG_clean_PM
_symmetry_space_group_name_H-M	'P1'
_cell_length_a	32.140000
_cell_length_b	9.156000
_cell_length_c	26.864000
_cell_angle_alpha	90.000000
_cell_angle_beta	112.859000
_cell_angle_gamma	90.000000
_symmetry_Int_Tables_number 1

loop_
_symmetry_equiv_pos_as_xyz
'x,y,z'

loop_
_atom_site_label
_atom_site_type_symbol
_atom_site_fract_x
_atom_site_fract_y
_atom_site_fract_z
Sm11	Sm1	0.111660	0.894890	0.908810
O11	O1	0.423000	0.416200	0.692800
O21	O2	0.376700	0.236600	0.656500
O31	O3	0.537800	0.307200	0.884100
O41	O4	0.522600	0.125000	0.929300
O51	O5	0.171100	0.033100	0.897300
O61	O6	0.192200	0.914300	0.971900
O71	O7	0.405500	0.013600	0.030100
H11	H1	0.424300	0.947900	0.036800
O81	O8	0.367500	0.841400	0.049600
N11	N1	0.371200	0.938400	0.811700
H21	H2	0.380400	0.893300	0.842200
N21	N2	0.298200	0.371100	0.912900
H31	H3	0.323200	0.419000	0.925500
C11	C1	0.512800	0.209400	0.889100
C21	C2	0.467400	0.188100	0.843000
C31	C3	0.455800	0.261600	0.794000
H41	H4	0.474900	0.333300	0.790400
C41	C4	0.416300	0.229300	0.750900
C51	C5	0.387500	0.119700	0.755700
H51	H5	0.361400	0.094700	0.726100
C61	C6	0.398400	0.047800	0.805700
C71	C7	0.438100	0.080400	0.847900
H61	H6	0.445700	0.030400	0.880400
C81	C8	0.404200	0.297500	0.697400
C91	C9	0.328900	0.894100	0.771000
H71	H7	0.333200	0.864500	0.738600
H81	H8	0.307800	0.975100	0.761900
C101	C10	0.310100	0.766500	0.792600
C111	C11	0.320700	0.623900	0.784700
C121	C12	0.304900	0.509900	0.807900
C131	C13	0.278800	0.543800	0.838200
C141	C14	0.269200	0.686400	0.846500
C151	C15	0.285600	0.797600	0.823000
C161	C16	0.276800	0.955400	0.835700
H91	H9	0.289400	0.021700	0.817600
H101	H10	0.290700	0.971500	0.873900
H111	H11	0.244900	0.971500	0.823400
C171	C17	0.242700	0.718600	0.880300
H121	H12	0.217700	0.652200	0.870900
H131	H13	0.231600	0.817000	0.873800
H141	H14	0.261800	0.707200	0.917800
C181	C18	0.315900	0.350100	0.801100
H151	H15	0.310400	0.331900	0.763800
H161	H16	0.297100	0.287300	0.812000
H171	H17	0.347100	0.331100	0.823000
C191	C19	0.347900	0.588300	0.751100
H181	H18	0.341700	0.659400	0.722900
H191	H19	0.339800	0.492900	0.735500
H201	H20	0.379500	0.590000	0.773700
C201	C20	0.261600	0.419500	0.863500
H211	H21	0.236400	0.453500	0.871700
H221	H22	0.251300	0.338800	0.838300
C211	C21	0.292400	0.247700	0.939300
C221	C22	0.250700	0.186100	0.929100
H231	H23	0.225100	0.229500	0.903800
C231	C23	0.246000	0.061700	0.955600
C241	C24	0.284600	0.989700	0.991100
H241	H24	0.282100	0.905200	0.008900
C251	C25	0.326500	0.046800	0.999200
C261	C26	0.331200	0.176900	0.975400
H251	H25	0.359600	0.217000	0.983300
C271	C27	0.367200	0.960100	0.028700
C281	C28	0.200800	0.999000	0.942100
Sm21	Sm2	0.611660	0.394890	0.908810
O91	O9	0.923000	0.916200	0.692800
O101	O10	0.876700	0.736600	0.656500
O111	O11	0.037800	0.807200	0.884100
O121	O12	0.022600	0.625000	0.929300
O131	O13	0.671100	0.533100	0.897300
O141	O14	0.692200	0.414300	0.971900
O151	O15	0.905500	0.513600	0.030100
H261	H26	0.924300	0.447900	0.036800
O161	O16	0.867500	0.341400	0.049600
N31	N3	0.871200	0.438400	0.811700
H271	H27	0.880400	0.393300	0.842200
N41	N4	0.798200	0.871100	0.912900
H281	H28	0.823200	0.919000	0.925500
C291	C29	0.012800	0.709400	0.889100
C301	C30	0.967400	0.688100	0.843000
C311	C31	0.955800	0.761600	0.794000
H291	H29	0.974900	0.833300	0.790400
C321	C32	0.916300	0.729300	0.750900
C331	C33	0.887500	0.619700	0.755700
H301	H30	0.861400	0.594700	0.726100
C341	C34	0.898400	0.547800	0.805700
C351	C35	0.938100	0.580400	0.847900
H311	H31	0.945700	0.530400	0.880400
C361	C36	0.904200	0.797500	0.697400
C371	C37	0.828900	0.394100	0.771000
H321	H32	0.833200	0.364500	0.738600
H331	H33	0.807800	0.475100	0.761900
C381	C38	0.810100	0.266500	0.792600
C391	C39	0.820700	0.123900	0.784700
C401	C40	0.804900	0.009900	0.807900
C411	C41	0.778800	0.043800	0.838200
C421	C42	0.769200	0.186400	0.846500
C431	C43	0.785600	0.297600	0.823000
C441	C44	0.776800	0.455400	0.835700
H341	H34	0.789400	0.521700	0.817600
H351	H35	0.790700	0.471500	0.873900
H361	H36	0.744900	0.471500	0.823400
C451	C45	0.742700	0.218600	0.880300
H371	H37	0.717700	0.152200	0.870900
H381	H38	0.731600	0.317000	0.873800
H391	H39	0.761800	0.207200	0.917800
C461	C46	0.815900	0.850100	0.801100
H401	H40	0.810400	0.831900	0.763800
H411	H41	0.797100	0.787300	0.812000
H421	H42	0.847100	0.831100	0.823000
C471	C47	0.847900	0.088300	0.751100
H431	H43	0.841700	0.159400	0.722900
H441	H44	0.839800	0.992900	0.735500
H451	H45	0.879500	0.090000	0.773700
C481	C48	0.761600	0.919500	0.863500
H461	H46	0.736400	0.953500	0.871700
H471	H47	0.751300	0.838800	0.838300
C491	C49	0.792400	0.747700	0.939300
C501	C50	0.750700	0.686100	0.929100
H481	H48	0.725100	0.729500	0.903800
C511	C51	0.746000	0.561700	0.955600
C521	C52	0.784600	0.489700	0.991100
H491	H49	0.782100	0.405200	0.008900
C531	C53	0.826500	0.546800	0.999200
C541	C54	0.831200	0.676900	0.975400
H501	H50	0.859600	0.717000	0.983300
C551	C55	0.867200	0.460100	0.028700
C561	C56	0.700800	0.499000	0.942100
Sm31	Sm3	0.888340	0.894890	0.591190
O171	O17	0.577000	0.416200	0.807200
O181	O18	0.623300	0.236600	0.843500
O191	O19	0.462200	0.307200	0.615900
O201	O20	0.477400	0.125000	0.570700
O211	O21	0.828900	0.033100	0.602700
O221	O22	0.807800	0.914300	0.528100
O231	O23	0.594500	0.013600	0.469900
H511	H51	0.575700	0.947900	0.463200
O241	O24	0.632500	0.841400	0.450400
N51	N5	0.628800	0.938400	0.688300
H521	H52	0.619600	0.893300	0.657800
N61	N6	0.701800	0.371100	0.587100
H531	H53	0.676800	0.419000	0.574500
C571	C57	0.487200	0.209400	0.610900
C581	C58	0.532600	0.188100	0.657000
C591	C59	0.544200	0.261600	0.706000
H541	H54	0.525100	0.333300	0.709600
C601	C60	0.583700	0.229300	0.749100
C611	C61	0.612500	0.119700	0.744300
H551	H55	0.638600	0.094700	0.773900
C621	C62	0.601600	0.047800	0.694300
C631	C63	0.561900	0.080400	0.652100
H561	H56	0.554300	0.030400	0.619600
C641	C64	0.595800	0.297500	0.802600
C651	C65	0.671100	0.894100	0.729000
H571	H57	0.666800	0.864500	0.761400
H581	H58	0.692200	0.975100	0.738100
C661	C66	0.689900	0.766500	0.707400
C671	C67	0.679300	0.623900	0.715300
C681	C68	0.695100	0.509900	0.692100
C691	C69	0.721200	0.543800	0.661800
C701	C70	0.730800	0.686400	0.653500
C711	C71	0.714400	0.797600	0.677000
C721	C72	0.723200	0.955400	0.664300
H591	H59	0.710600	0.021700	0.682400
H601	H60	0.709300	0.971500	0.626100
H611	H61	0.755100	0.971500	0.676600
C731	C73	0.757300	0.718600	0.619700
H621	H62	0.782300	0.652200	0.629100
H631	H63	0.768400	0.817000	0.626200
H641	H64	0.738200	0.707200	0.582200
C741	C74	0.684100	0.350100	0.698900
H651	H65	0.689600	0.331900	0.736200
H661	H66	0.702900	0.287300	0.688000
H671	H67	0.652900	0.331100	0.677000
C751	C75	0.652100	0.588300	0.748900
H681	H68	0.658300	0.659400	0.777100
H691	H69	0.660200	0.492900	0.764500
H701	H70	0.620500	0.590000	0.726300
C761	C76	0.738400	0.419500	0.636500
H711	H71	0.763600	0.453500	0.628300
H721	H72	0.748700	0.338800	0.661700
C771	C77	0.707600	0.247700	0.560700
C781	C78	0.749300	0.186100	0.570900
H731	H73	0.774900	0.229500	0.596200
C791	C79	0.754000	0.061700	0.544400
C801	C80	0.715400	0.989700	0.508900
H741	H74	0.717900	0.905200	0.491100
C811	C81	0.673500	0.046800	0.500800
C821	C82	0.668800	0.176900	0.524600
H751	H75	0.640400	0.217000	0.516700
C831	C83	0.632800	0.960100	0.471300
C841	C84	0.799200	0.999000	0.557900
Sm41	Sm4	0.388340	0.394890	0.591190
O251	O25	0.077000	0.916200	0.807200
O261	O26	0.123300	0.736600	0.843500
O271	O27	0.962200	0.807200	0.615900
O281	O28	0.977400	0.625000	0.570700
O291	O29	0.328900	0.533100	0.602700
O301	O30	0.307800	0.414300	0.528100
O311	O31	0.094500	0.513600	0.469900
H761	H76	0.075700	0.447900	0.463200
O321	O32	0.132500	0.341400	0.450400
N71	N7	0.128800	0.438400	0.688300
H771	H77	0.119600	0.393300	0.657800
N81	N8	0.201800	0.871100	0.587100
H781	H78	0.176800	0.919000	0.574500
C851	C85	0.987200	0.709400	0.610900
C861	C86	0.032600	0.688100	0.657000
C871	C87	0.044200	0.761600	0.706000
H791	H79	0.025100	0.833300	0.709600
C881	C88	0.083700	0.729300	0.749100
C891	C89	0.112500	0.619700	0.744300
H801	H80	0.138600	0.594700	0.773900
C901	C90	0.101600	0.547800	0.694300
C911	C91	0.061900	0.580400	0.652100
H811	H81	0.054300	0.530400	0.619600
C921	C92	0.095800	0.797500	0.802600
C931	C93	0.171100	0.394100	0.729000
H821	H82	0.166800	0.364500	0.761400
H831	H83	0.192200	0.475100	0.738100
C941	C94	0.189900	0.266500	0.707400
C951	C95	0.179300	0.123900	0.715300
C961	C96	0.195100	0.009900	0.692100
C971	C97	0.221200	0.043800	0.661800
C981	C98	0.230800	0.186400	0.653500
C991	C99	0.214400	0.297600	0.677000
C1001	C100	0.223200	0.455400	0.664300
H841	H84	0.210600	0.521700	0.682400
H851	H85	0.209300	0.471500	0.626100
H861	H86	0.255100	0.471500	0.676600
C1011	C101	0.257300	0.218600	0.619700
H871	H87	0.282300	0.152200	0.629100
H881	H88	0.268400	0.317000	0.626200
H891	H89	0.238200	0.207200	0.582200
C1021	C102	0.184100	0.850100	0.698900
H901	H90	0.189600	0.831900	0.736200
H911	H91	0.202900	0.787300	0.688000
H921	H92	0.152900	0.831100	0.677000
C1031	C103	0.152100	0.088300	0.748900
H931	H93	0.158300	0.159400	0.777100
H941	H94	0.160200	0.992900	0.764500
H951	H95	0.120500	0.090000	0.726300
C1041	C104	0.238400	0.919500	0.636500
H961	H96	0.263600	0.953500	0.628300
H971	H97	0.248700	0.838800	0.661700
C1051	C105	0.207600	0.747700	0.560700
C1061	C106	0.249300	0.686100	0.570900
H981	H98	0.274900	0.729500	0.596200
C1071	C107	0.254000	0.561700	0.544400
C1081	C108	0.215400	0.489700	0.508900
H991	H99	0.217900	0.405200	0.491100
C1091	C109	0.173500	0.546800	0.500800
C1101	C110	0.168800	0.676900	0.524600
H1001	H100	0.140400	0.717000	0.516700
C1111	C111	0.132800	0.460100	0.471300
C1121	C112	0.299200	0.499000	0.557900
Sm51	Sm5	0.888340	0.105110	0.091190
O331	O33	0.577000	0.583800	0.307200
O341	O34	0.623300	0.763400	0.343500
O351	O35	0.462200	0.692800	0.115900
O361	O36	0.477400	0.875000	0.070700
O371	O37	0.828900	0.966900	0.102700
O381	O38	0.807800	0.085700	0.028100
O391	O39	0.594500	0.986400	0.969900
H1011	H101	0.575700	0.052100	0.963200
O401	O40	0.632500	0.158600	0.950400
N91	N9	0.628800	0.061600	0.188300
H1021	H102	0.619600	0.106700	0.157800
N101	N10	0.701800	0.628900	0.087100
H1031	H103	0.676800	0.581000	0.074500
C1131	C113	0.487200	0.790600	0.110900
C1141	C114	0.532600	0.811900	0.157000
C1151	C115	0.544200	0.738400	0.206000
H1041	H104	0.525100	0.666700	0.209600
C1161	C116	0.583700	0.770700	0.249100
C1171	C117	0.612500	0.880300	0.244300
H1051	H105	0.638600	0.905300	0.273900
C1181	C118	0.601600	0.952200	0.194300
C1191	C119	0.561900	0.919600	0.152100
H1061	H106	0.554300	0.969600	0.119600
C1201	C120	0.595800	0.702500	0.302600
C1211	C121	0.671100	0.105900	0.229000
H1071	H107	0.666800	0.135500	0.261400
H1081	H108	0.692200	0.024900	0.238100
C1221	C122	0.689900	0.233500	0.207400
C1231	C123	0.679300	0.376100	0.215300
C1241	C124	0.695100	0.490100	0.192100
C1251	C125	0.721200	0.456200	0.161800
C1261	C126	0.730800	0.313600	0.153500
C1271	C127	0.714400	0.202400	0.177000
C1281	C128	0.723200	0.044600	0.164300
H1091	H109	0.710600	0.978300	0.182400
H1101	H110	0.709300	0.028500	0.126100
H1111	H111	0.755100	0.028500	0.176600
C1291	C129	0.757300	0.281400	0.119700
H1121	H112	0.782300	0.347800	0.129100
H1131	H113	0.768400	0.183000	0.126200
H1141	H114	0.738200	0.292800	0.082200
C1301	C130	0.684100	0.649900	0.198900
H1151	H115	0.689600	0.668100	0.236200
H1161	H116	0.702900	0.712700	0.188000
H1171	H117	0.652900	0.668900	0.177000
C1311	C131	0.652100	0.411700	0.248900
H1181	H118	0.658300	0.340600	0.277100
H1191	H119	0.660200	0.507100	0.264500
H1201	H120	0.620500	0.410000	0.226300
C1321	C132	0.738400	0.580500	0.136500
H1211	H121	0.763600	0.546500	0.128300
H1221	H122	0.748700	0.661200	0.161700
C1331	C133	0.707600	0.752300	0.060700
C1341	C134	0.749300	0.813900	0.070900
H1231	H123	0.774900	0.770500	0.096200
C1351	C135	0.754000	0.938300	0.044400
C1361	C136	0.715400	0.010300	0.008900
H1241	H124	0.717900	0.094800	0.991100
C1371	C137	0.673500	0.953200	0.000800
C1381	C138	0.668800	0.823100	0.024600
H1251	H125	0.640400	0.783000	0.016700
C1391	C139	0.632800	0.039900	0.971300
C1401	C140	0.799200	0.001000	0.057900
Sm61	Sm6	0.388340	0.605110	0.091190
O411	O41	0.077000	0.083800	0.307200
O421	O42	0.123300	0.263400	0.343500
O431	O43	0.962200	0.192800	0.115900
O441	O44	0.977400	0.375000	0.070700
O451	O45	0.328900	0.466900	0.102700
O461	O46	0.307800	0.585700	0.028100
O471	O47	0.094500	0.486400	0.969900
H1261	H126	0.075700	0.552100	0.963200
O481	O48	0.132500	0.658600	0.950400
N111	N11	0.128800	0.561600	0.188300
H1271	H127	0.119600	0.606700	0.157800
N121	N12	0.201800	0.128900	0.087100
H1281	H128	0.176800	0.081000	0.074500
C1411	C141	0.987200	0.290600	0.110900
C1421	C142	0.032600	0.311900	0.157000
C1431	C143	0.044200	0.238400	0.206000
H1291	H129	0.025100	0.166700	0.209600
C1441	C144	0.083700	0.270700	0.249100
C1451	C145	0.112500	0.380300	0.244300
H1301	H130	0.138600	0.405300	0.273900
C1461	C146	0.101600	0.452200	0.194300
C1471	C147	0.061900	0.419600	0.152100
H1311	H131	0.054300	0.469600	0.119600
C1481	C148	0.095800	0.202500	0.302600
C1491	C149	0.171100	0.605900	0.229000
H1321	H132	0.166800	0.635500	0.261400
H1331	H133	0.192200	0.524900	0.238100
C1501	C150	0.189900	0.733500	0.207400
C1511	C151	0.179300	0.876100	0.215300
C1521	C152	0.195100	0.990100	0.192100
C1531	C153	0.221200	0.956200	0.161800
C1541	C154	0.230800	0.813600	0.153500
C1551	C155	0.214400	0.702400	0.177000
C1561	C156	0.223200	0.544600	0.164300
H1341	H134	0.210600	0.478300	0.182400
H1351	H135	0.209300	0.528500	0.126100
H1361	H136	0.255100	0.528500	0.176600
C1571	C157	0.257300	0.781400	0.119700
H1371	H137	0.282300	0.847800	0.129100
H1381	H138	0.268400	0.683000	0.126200
H1391	H139	0.238200	0.792800	0.082200
C1581	C158	0.184100	0.149900	0.198900
H1401	H140	0.189600	0.168100	0.236200
H1411	H141	0.202900	0.212700	0.188000
H1421	H142	0.152900	0.168900	0.177000
C1591	C159	0.152100	0.911700	0.248900
H1431	H143	0.158300	0.840600	0.277100
H1441	H144	0.160200	0.007100	0.264500
H1451	H145	0.120500	0.910000	0.226300
C1601	C160	0.238400	0.080500	0.136500
H1461	H146	0.263600	0.046500	0.128300
H1471	H147	0.248700	0.161200	0.161700
C1611	C161	0.207600	0.252300	0.060700
C1621	C162	0.249300	0.313900	0.070900
H1481	H148	0.274900	0.270500	0.096200
C1631	C163	0.254000	0.438300	0.044400
C1641	C164	0.215400	0.510300	0.008900
H1491	H149	0.217900	0.594800	0.991100
C1651	C165	0.173500	0.453200	0.000800
C1661	C166	0.168800	0.323100	0.024600
H1501	H150	0.140400	0.283000	0.016700
C1671	C167	0.132800	0.539900	0.971300
C1681	C168	0.299200	0.501000	0.057900
Sm71	Sm7	0.111660	0.105110	0.408810
O491	O49	0.423000	0.583800	0.192800
O501	O50	0.376700	0.763400	0.156500
O511	O51	0.537800	0.692800	0.384100
O521	O52	0.522600	0.875000	0.429300
O531	O53	0.171100	0.966900	0.397300
O541	O54	0.192200	0.085700	0.471900
O551	O55	0.405500	0.986400	0.530100
H1511	H151	0.424300	0.052100	0.536800
O561	O56	0.367500	0.158600	0.549600
N131	N13	0.371200	0.061600	0.311700
H1521	H152	0.380400	0.106700	0.342200
N141	N14	0.298200	0.628900	0.412900
H1531	H153	0.323200	0.581000	0.425500
C1691	C169	0.512800	0.790600	0.389100
C1701	C170	0.467400	0.811900	0.343000
C1711	C171	0.455800	0.738400	0.294000
H1541	H154	0.474900	0.666700	0.290400
C1721	C172	0.416300	0.770700	0.250900
C1731	C173	0.387500	0.880300	0.255700
H1551	H155	0.361400	0.905300	0.226100
C1741	C174	0.398400	0.952200	0.305700
C1751	C175	0.438100	0.919600	0.347900
H1561	H156	0.445700	0.969600	0.380400
C1761	C176	0.404200	0.702500	0.197400
C1771	C177	0.328900	0.105900	0.271000
H1571	H157	0.333200	0.135500	0.238600
H1581	H158	0.307800	0.024900	0.261900
C1781	C178	0.310100	0.233500	0.292600
C1791	C179	0.320700	0.376100	0.284700
C1801	C180	0.304900	0.490100	0.307900
C1811	C181	0.278800	0.456200	0.338200
C1821	C182	0.269200	0.313600	0.346500
C1831	C183	0.285600	0.202400	0.323000
C1841	C184	0.276800	0.044600	0.335700
H1591	H159	0.289400	0.978300	0.317600
H1601	H160	0.290700	0.028500	0.373900
H1611	H161	0.244900	0.028500	0.323400
C1851	C185	0.242700	0.281400	0.380300
H1621	H162	0.217700	0.347800	0.370900
H1631	H163	0.231600	0.183000	0.373800
H1641	H164	0.261800	0.292800	0.417800
C1861	C186	0.315900	0.649900	0.301100
H1651	H165	0.310400	0.668100	0.263800
H1661	H166	0.297100	0.712700	0.312000
H1671	H167	0.347100	0.668900	0.323000
C1871	C187	0.347900	0.411700	0.251100
H1681	H168	0.341700	0.340600	0.222900
H1691	H169	0.339800	0.507100	0.235500
H1701	H170	0.379500	0.410000	0.273700
C1881	C188	0.261600	0.580500	0.363500
H1711	H171	0.236400	0.546500	0.371700
H1721	H172	0.251300	0.661200	0.338300
C1891	C189	0.292400	0.752300	0.439300
C1901	C190	0.250700	0.813900	0.429100
H1731	H173	0.225100	0.770500	0.403800
C1911	C191	0.246000	0.938300	0.455600
C1921	C192	0.284600	0.010300	0.491100
H1741	H174	0.282100	0.094800	0.508900
C1931	C193	0.326500	0.953200	0.499200
C1941	C194	0.331200	0.823100	0.475400
H1751	H175	0.359600	0.783000	0.483300
C1951	C195	0.367200	0.039900	0.528700
C1961	C196	0.200800	0.001000	0.442100
Sm81	Sm8	0.611660	0.605110	0.408810
O571	O57	0.923000	0.083800	0.192800
O581	O58	0.876700	0.263400	0.156500
O591	O59	0.037800	0.192800	0.384100
O601	O60	0.022600	0.375000	0.429300
O611	O61	0.671100	0.466900	0.397300
O621	O62	0.692200	0.585700	0.471900
O631	O63	0.905500	0.486400	0.530100
H1761	H176	0.924300	0.552100	0.536800
O641	O64	0.867500	0.658600	0.549600
N151	N15	0.871200	0.561600	0.311700
H1771	H177	0.880400	0.606700	0.342200
N161	N16	0.798200	0.128900	0.412900
H1781	H178	0.823200	0.081000	0.425500
C1971	C197	0.012800	0.290600	0.389100
C1981	C198	0.967400	0.311900	0.343000
C1991	C199	0.955800	0.238400	0.294000
H1791	H179	0.974900	0.166700	0.290400
C2001	C200	0.916300	0.270700	0.250900
C2011	C201	0.887500	0.380300	0.255700
H1801	H180	0.861400	0.405300	0.226100
C2021	C202	0.898400	0.452200	0.305700
C2031	C203	0.938100	0.419600	0.347900
H1811	H181	0.945700	0.469600	0.380400
C2041	C204	0.904200	0.202500	0.197400
C2051	C205	0.828900	0.605900	0.271000
H1821	H182	0.833200	0.635500	0.238600
H1831	H183	0.807800	0.524900	0.261900
C2061	C206	0.810100	0.733500	0.292600
C2071	C207	0.820700	0.876100	0.284700
C2081	C208	0.804900	0.990100	0.307900
C2091	C209	0.778800	0.956200	0.338200
C2101	C210	0.769200	0.813600	0.346500
C2111	C211	0.785600	0.702400	0.323000
C2121	C212	0.776800	0.544600	0.335700
H1841	H184	0.789400	0.478300	0.317600
H1851	H185	0.790700	0.528500	0.373900
H1861	H186	0.744900	0.528500	0.323400
C2131	C213	0.742700	0.781400	0.380300
H1871	H187	0.717700	0.847800	0.370900
H1881	H188	0.731600	0.683000	0.373800
H1891	H189	0.761800	0.792800	0.417800
C2141	C214	0.815900	0.149900	0.301100
H1901	H190	0.810400	0.168100	0.263800
H1911	H191	0.797100	0.212700	0.312000
H1921	H192	0.847100	0.168900	0.323000
C2151	C215	0.847900	0.911700	0.251100
H1931	H193	0.841700	0.840600	0.222900
H1941	H194	0.839800	0.007100	0.235500
H1951	H195	0.879500	0.910000	0.273700
C2161	C216	0.761600	0.080500	0.363500
H1961	H196	0.736400	0.046500	0.371700
H1971	H197	0.751300	0.161200	0.338300
C2171	C217	0.792400	0.252300	0.439300
C2181	C218	0.750700	0.313900	0.429100
H1981	H198	0.725100	0.270500	0.403800
C2191	C219	0.746000	0.438300	0.455600
C2201	C220	0.784600	0.510300	0.491100
H1991	H199	0.782100	0.594800	0.508900
C2211	C221	0.826500	0.453200	0.499200
C2221	C222	0.831200	0.323100	0.475400
H2001	H200	0.859600	0.283000	0.483300
C2231	C223	0.867200	0.539900	0.528700
C2241	C224	0.700800	0.501000	0.442100
