data_GUJTOV_clean_PM
_symmetry_space_group_name_H-M	'P1'
_cell_length_a	5.882100
_cell_length_b	10.736700
_cell_length_c	27.792000
_cell_angle_alpha	97.811000
_cell_angle_beta	90.000000
_cell_angle_gamma	90.000000
_symmetry_Int_Tables_number 1

loop_
_symmetry_equiv_pos_as_xyz
'x,y,z'

loop_
_atom_site_label
_atom_site_type_symbol
_atom_site_fract_x
_atom_site_fract_y
_atom_site_fract_z
Cu11	Cu1	0.624190	0.708160	0.293910
Cu21	Cu2	0.395010	0.802960	0.210200
Cu31	Cu3	0.624190	0.291840	0.206090
Cu41	Cu4	0.395010	0.197040	0.289800
Cu51	Cu5	0.375810	0.291840	0.706090
Cu61	Cu6	0.604990	0.197040	0.789800
Cu71	Cu7	0.375810	0.708160	0.793910
Cu81	Cu8	0.604990	0.802960	0.710200
Mo11	Mo1	0.863170	0.579130	0.197130
Mo21	Mo2	0.154730	0.076350	0.183690
Mo31	Mo3	0.863170	0.420870	0.302870
Mo41	Mo4	0.154730	0.923650	0.316310
Mo51	Mo5	0.136830	0.420870	0.802870
Mo61	Mo6	0.845270	0.923650	0.816310
Mo71	Mo7	0.136830	0.579130	0.697130
Mo81	Mo8	0.845270	0.076350	0.683690
H11	H1	0.244000	0.893800	0.653600
H21	H2	0.088800	0.854700	0.576200
H31	H3	0.637800	0.637400	0.534600
H41	H4	0.775900	0.680400	0.613700
H51	H5	0.784100	0.788200	0.396600
H61	H6	0.639400	0.785100	0.474600
H71	H7	0.098100	0.587500	0.414400
H81	H8	0.256500	0.596100	0.338500
H91	H9	0.244000	0.106200	0.846400
H101	H10	0.088800	0.145300	0.923800
H111	H11	0.637800	0.362600	0.965400
H121	H12	0.775900	0.319600	0.886300
H131	H13	0.784100	0.211800	0.103400
H141	H14	0.639400	0.214900	0.025400
H151	H15	0.098100	0.412500	0.085600
H161	H16	0.256500	0.403900	0.161500
H171	H17	0.756000	0.106200	0.346400
H181	H18	0.911200	0.145300	0.423800
H191	H19	0.362200	0.362600	0.465400
H201	H20	0.224100	0.319600	0.386300
H211	H21	0.215900	0.211800	0.603400
H221	H22	0.360600	0.214900	0.525400
H231	H23	0.901900	0.412500	0.585600
H241	H24	0.743500	0.403900	0.661500
H251	H25	0.756000	0.893800	0.153600
H261	H26	0.911200	0.854700	0.076200
H271	H27	0.362200	0.637400	0.034600
H281	H28	0.224100	0.680400	0.113700
H291	H29	0.215900	0.788200	0.896600
H301	H30	0.360600	0.785100	0.974600
H311	H31	0.901900	0.587500	0.914400
H321	H32	0.743500	0.596100	0.838500
C11	C1	0.322100	0.839700	0.629200
C21	C2	0.228700	0.816900	0.583330
C31	C3	0.343800	0.737400	0.547570
C41	C4	0.552400	0.688400	0.558800
C51	C5	0.634200	0.715000	0.605830
C61	C6	0.642400	0.748300	0.400490
C71	C7	0.557000	0.747200	0.447030
C81	C8	0.348700	0.689700	0.452500
C91	C9	0.237400	0.630600	0.411500
C101	C10	0.333100	0.635700	0.366580
C111	C11	0.224700	0.698200	0.500120
C121	C12	0.322100	0.160300	0.870800
C131	C13	0.228700	0.183100	0.916670
C141	C14	0.343800	0.262600	0.952430
C151	C15	0.552400	0.311600	0.941200
C161	C16	0.634200	0.285000	0.894170
C171	C17	0.642400	0.251700	0.099510
C181	C18	0.557000	0.252800	0.052970
C191	C19	0.348700	0.310300	0.047500
C201	C20	0.237400	0.369400	0.088500
C211	C21	0.333100	0.364300	0.133420
C221	C22	0.224700	0.301800	0.999880
C231	C23	0.677900	0.160300	0.370800
C241	C24	0.771300	0.183100	0.416670
C251	C25	0.656200	0.262600	0.452430
C261	C26	0.447600	0.311600	0.441200
C271	C27	0.365800	0.285000	0.394170
C281	C28	0.357600	0.251700	0.599510
C291	C29	0.443000	0.252800	0.552970
C301	C30	0.651300	0.310300	0.547500
C311	C31	0.762600	0.369400	0.588500
C321	C32	0.666900	0.364300	0.633420
C331	C33	0.775300	0.301800	0.499880
C341	C34	0.677900	0.839700	0.129200
C351	C35	0.771300	0.816900	0.083330
C361	C36	0.656200	0.737400	0.047570
C371	C37	0.447600	0.688400	0.058800
C381	C38	0.365800	0.715000	0.105830
C391	C39	0.357600	0.748300	0.900490
C401	C40	0.443000	0.747200	0.947030
C411	C41	0.651300	0.689700	0.952500
C421	C42	0.762600	0.630600	0.911500
C431	C43	0.666900	0.635700	0.866580
C441	C44	0.775300	0.698200	0.000120
N11	N1	0.519400	0.788110	0.640580
N21	N2	0.531100	0.694800	0.361060
N31	N3	0.519400	0.211890	0.859420
N41	N4	0.531100	0.305200	0.138940
N51	N5	0.480600	0.211890	0.359420
N61	N6	0.468900	0.305200	0.638940
N71	N7	0.480600	0.788110	0.140580
N81	N8	0.468900	0.694800	0.861060
O11	O1	0.659300	0.701540	0.224030
O21	O2	0.866700	0.417600	0.210620
O31	O3	0.157200	0.925110	0.202740
O41	O4	0.875000	0.868100	0.311210
O51	O5	0.352100	0.812400	0.282150
O61	O6	0.023300	0.674500	0.500520
O71	O7	0.659300	0.298460	0.275970
O81	O8	0.866700	0.582400	0.289380
O91	O9	0.157200	0.074890	0.297260
O101	O10	0.875000	0.131900	0.188790
O111	O11	0.352100	0.187600	0.217850
O121	O12	0.023300	0.325500	0.999480
O131	O13	0.340700	0.298460	0.775970
O141	O14	0.133300	0.582400	0.789380
O151	O15	0.842800	0.074890	0.797260
O161	O16	0.125000	0.131900	0.688790
O171	O17	0.647900	0.187600	0.717850
O181	O18	0.976700	0.325500	0.499480
O191	O19	0.340700	0.701540	0.724030
O201	O20	0.133300	0.417600	0.710620
O211	O21	0.842800	0.925110	0.702740
O221	O22	0.125000	0.868100	0.811210
O231	O23	0.647900	0.812400	0.782150
O241	O24	0.976700	0.674500	0.000520
