data_GUJVIR_clean_PM
_symmetry_space_group_name_H-M	'P1'
_cell_length_a	9.248000
_cell_length_b	11.216000
_cell_length_c	11.875000
_cell_angle_alpha	79.639000
_cell_angle_beta	74.736000
_cell_angle_gamma	88.301000
_symmetry_Int_Tables_number 1

loop_
_symmetry_equiv_pos_as_xyz
'x,y,z'

loop_
_atom_site_label
_atom_site_type_symbol
_atom_site_fract_x
_atom_site_fract_y
_atom_site_fract_z
Cd11	Cd1	0.000000	0.000000	0.000000
Cd21	Cd2	0.000000	0.000000	0.500000
H11	H1	0.643700	0.058100	0.628500
H21	H2	0.789400	0.108600	0.288800
H31	H3	0.560500	0.213000	0.231000
H41	H4	0.411100	0.180800	0.330700
H51	H5	0.290500	0.364100	0.279300
H61	H6	0.134100	0.528500	0.270800
H71	H7	0.231800	0.641200	0.194300
H81	H8	0.987200	0.706500	0.607800
H91	H9	0.105600	0.829600	0.270500
H101	H10	0.434700	0.680000	0.323600
H111	H11	0.677500	0.379900	0.368400
H121	H12	0.756000	0.563700	0.418700
H131	H13	0.646400	0.673300	0.428000
H141	H14	0.012900	0.696900	0.035800
H151	H15	0.751100	0.858800	0.267700
H161	H16	0.356300	0.941900	0.371500
H171	H17	0.210600	0.891400	0.711200
H181	H18	0.439500	0.787000	0.769000
H191	H19	0.588900	0.819200	0.669300
H201	H20	0.709500	0.635900	0.720700
H211	H21	0.865900	0.471500	0.729200
H221	H22	0.768200	0.358800	0.805700
H231	H23	0.012800	0.293500	0.392200
H241	H24	0.894400	0.170400	0.729500
H251	H25	0.565300	0.320000	0.676400
H261	H26	0.322500	0.620100	0.631600
H271	H27	0.244000	0.436300	0.581300
H281	H28	0.353600	0.326700	0.572000
H291	H29	0.987100	0.303100	0.964200
H301	H30	0.248900	0.141200	0.732300
C11	C1	0.648000	0.081100	0.548400
C21	C2	0.729000	0.107100	0.365300
C31	C3	0.509000	0.219500	0.312100
C41	C4	0.489000	0.351400	0.321000
C51	C5	0.362500	0.408300	0.297000
C61	C6	0.343400	0.530300	0.299300
C71	C7	0.204300	0.590500	0.272300
C81	C8	0.026700	0.710300	0.526700
C91	C9	0.089300	0.779000	0.344000
C101	C10	0.448200	0.597500	0.324100
C111	C11	0.594200	0.418000	0.349500
C121	C12	0.575500	0.542100	0.350000
C131	C13	0.695100	0.617200	0.377200
C141	C14	0.942500	0.710700	0.104000
C151	C15	0.802300	0.799700	0.227800
C161	C16	0.352000	0.918900	0.451600
C171	C17	0.271000	0.892900	0.634700
C181	C18	0.491000	0.780500	0.687900
C191	C19	0.511000	0.648600	0.679000
C201	C20	0.637500	0.591700	0.703000
C211	C21	0.656600	0.469700	0.700700
C221	C22	0.795700	0.409500	0.727700
C231	C23	0.973300	0.289700	0.473300
C241	C24	0.910700	0.221000	0.656000
C251	C25	0.551800	0.402500	0.675900
C261	C26	0.405800	0.582000	0.650500
C271	C27	0.424500	0.457900	0.650000
C281	C28	0.304900	0.382800	0.622800
C291	C29	0.057500	0.289300	0.896000
C301	C30	0.197700	0.200300	0.772200
S11	S1	0.845600	0.881100	0.806900
S21	S2	0.154400	0.118900	0.193100
N11	N1	0.594700	0.154600	0.392100
N21	N2	0.539100	0.139000	0.512800
N31	N3	0.765000	0.056800	0.464400
N41	N4	0.130800	0.665000	0.360400
N51	N5	0.091600	0.620100	0.480600
N61	N6	0.022100	0.811100	0.445300
N71	N7	0.788600	0.683300	0.268700
N81	N8	0.879400	0.622500	0.189200
N91	N9	0.899200	0.822200	0.121500
N101	N10	0.405300	0.845400	0.607900
N111	N11	0.460900	0.861000	0.487200
N121	N12	0.235000	0.943200	0.535600
N131	N13	0.869200	0.335000	0.639600
N141	N14	0.908400	0.379900	0.519400
N151	N15	0.977900	0.188900	0.554700
N161	N16	0.211400	0.316700	0.731300
N171	N17	0.120600	0.377500	0.810800
N181	N18	0.100800	0.177800	0.878500
O11	O1	0.854800	0.908400	0.682000
O21	O2	0.851900	0.751700	0.840100
O31	O3	0.968100	0.940300	0.831900
O41	O4	0.701300	0.913100	0.875100
O51	O5	0.145200	0.091600	0.318000
O61	O6	0.148100	0.248300	0.159900
O71	O7	0.031900	0.059700	0.168100
O81	O8	0.298700	0.086900	0.124900
