data_GUJVOX_clean_PM
_symmetry_space_group_name_H-M	'P1'
_cell_length_a	9.241000
_cell_length_b	11.245000
_cell_length_c	11.845000
_cell_angle_alpha	78.970000
_cell_angle_beta	74.580000
_cell_angle_gamma	87.609000
_symmetry_Int_Tables_number 1

loop_
_symmetry_equiv_pos_as_xyz
'x,y,z'

loop_
_atom_site_label
_atom_site_type_symbol
_atom_site_fract_x
_atom_site_fract_y
_atom_site_fract_z
Mn11	Mn1	0.000000	0.000000	0.000000
Mn21	Mn2	0.000000	0.000000	0.500000
H11	H1	0.644900	0.053500	0.631500
H21	H2	0.793000	0.103800	0.288500
H31	H3	0.566000	0.214400	0.229700
H41	H4	0.415600	0.180600	0.328600
H51	H5	0.289800	0.363400	0.282200
H61	H6	0.122700	0.525300	0.286800
H71	H7	0.215100	0.637100	0.202500
H81	H8	0.986200	0.710000	0.614100
H91	H9	0.100300	0.830300	0.274800
H101	H10	0.428100	0.678900	0.330900
H111	H11	0.679200	0.380500	0.366300
H121	H12	0.752700	0.563700	0.419600
H131	H13	0.641100	0.672900	0.427500
H141	H14	0.009200	0.701400	0.031000
H151	H15	0.751900	0.860900	0.268200
H161	H16	0.355100	0.946500	0.368500
H171	H17	0.207000	0.896200	0.711500
H181	H18	0.434000	0.785600	0.770300
H191	H19	0.584400	0.819400	0.671400
H201	H20	0.710200	0.636600	0.717800
H211	H21	0.877300	0.474700	0.713200
H221	H22	0.784900	0.362900	0.797500
H231	H23	0.013800	0.290000	0.385900
H241	H24	0.899700	0.169700	0.725200
H251	H25	0.571900	0.321100	0.669100
H261	H26	0.320800	0.619500	0.633700
H271	H27	0.247300	0.436300	0.580400
H281	H28	0.358900	0.327100	0.572500
H291	H29	0.990800	0.298600	0.969000
H301	H30	0.248100	0.139100	0.731800
C11	C1	0.650300	0.077800	0.550900
C21	C2	0.733200	0.103600	0.365300
C31	C3	0.512900	0.219500	0.311000
C41	C4	0.490200	0.352000	0.321300
C51	C5	0.361000	0.407800	0.299700
C61	C6	0.337600	0.530800	0.304100
C71	C7	0.193500	0.588500	0.282200
C81	C8	0.024900	0.713300	0.532600
C91	C9	0.084600	0.780500	0.349400
C101	C10	0.443500	0.597000	0.328700
C111	C11	0.594400	0.418500	0.348600
C121	C12	0.574100	0.541700	0.350200
C131	C13	0.691400	0.617000	0.377000
C141	C14	0.940600	0.714500	0.100600
C151	C15	0.802600	0.802600	0.226800
C161	C16	0.349700	0.922200	0.449100
C171	C17	0.266800	0.896400	0.634700
C181	C18	0.487100	0.780500	0.689000
C191	C19	0.509800	0.648000	0.678700
C201	C20	0.639000	0.592200	0.700300
C211	C21	0.662400	0.469200	0.695900
C221	C22	0.806500	0.411500	0.717800
C231	C23	0.975100	0.286700	0.467400
C241	C24	0.915400	0.219500	0.650600
C251	C25	0.556500	0.403000	0.671300
C261	C26	0.405600	0.581500	0.651400
C271	C27	0.425900	0.458300	0.649800
C281	C28	0.308600	0.383000	0.623000
C291	C29	0.059400	0.285500	0.899400
C301	C30	0.197400	0.197400	0.773200
S11	S1	0.850180	0.885930	0.805770
S21	S2	0.149820	0.114070	0.194230
N11	N1	0.597400	0.154400	0.391700
N21	N2	0.541100	0.139300	0.512500
N31	N3	0.769900	0.053200	0.464300
N41	N4	0.125200	0.665200	0.368900
N51	N5	0.089700	0.619600	0.488800
N61	N6	0.018300	0.814000	0.452500
N71	N7	0.787000	0.684600	0.266600
N81	N8	0.877200	0.625200	0.185700
N91	N9	0.899600	0.827100	0.120600
N101	N10	0.402600	0.845600	0.608300
N111	N11	0.458900	0.860700	0.487500
N121	N12	0.230100	0.946800	0.535700
N131	N13	0.874800	0.334800	0.631100
N141	N14	0.910300	0.380400	0.511200
N151	N15	0.981700	0.186000	0.547500
N161	N16	0.213000	0.315400	0.733400
N171	N17	0.122800	0.374800	0.814300
N181	N18	0.100400	0.172900	0.879400
O11	O1	0.877300	0.920200	0.677600
O21	O2	0.854400	0.754100	0.836000
O31	O3	0.965000	0.939300	0.845200
O41	O4	0.702300	0.924200	0.864200
O51	O5	0.122700	0.079800	0.322400
O61	O6	0.145600	0.245900	0.164000
O71	O7	0.035000	0.060700	0.154800
O81	O8	0.297700	0.075800	0.135800
