data_GULVUF_clean_PM
_symmetry_space_group_name_H-M	'P1'
_cell_length_a	16.247000
_cell_length_b	25.782700
_cell_length_c	41.228200
_cell_angle_alpha	86.440800
_cell_angle_beta	78.636400
_cell_angle_gamma	71.634600
_symmetry_Int_Tables_number 1

loop_
_symmetry_equiv_pos_as_xyz
'x,y,z'

loop_
_atom_site_label
_atom_site_type_symbol
_atom_site_fract_x
_atom_site_fract_y
_atom_site_fract_z
Yb11	Yb1	0.119680	0.250000	0.260640
Yb21	Yb2	0.630320	0.250000	0.239360
Yb31	Yb3	0.880320	0.750000	0.739360
Yb41	Yb4	0.369680	0.750000	0.760640
Yb51	Yb5	0.409700	0.180600	0.250000
Yb61	Yb6	0.840300	0.319400	0.250000
Yb71	Yb7	0.590300	0.819400	0.750000
Yb81	Yb8	0.159700	0.680600	0.750000
H11	H1	0.375100	0.291800	0.326000
H21	H2	0.356600	0.344600	0.372000
H31	H3	0.108300	0.425800	0.361000
H41	H4	0.126800	0.373000	0.315000
H51	H5	0.271800	0.409400	0.409800
H61	H6	0.101400	0.465200	0.414800
H71	H7	0.039000	0.572000	0.505800
H81	H8	0.273000	0.423800	0.460000
H91	H9	0.199600	0.515600	0.556200
H101	H10	0.051500	0.598200	0.553400
H111	H11	0.201600	0.541600	0.608000
H121	H12	0.185400	0.575400	0.660600
H131	H13	0.964500	0.693000	0.646800
H141	H14	0.980700	0.659200	0.594200
H151	H15	0.179300	0.128000	0.175200
H161	H16	0.230400	0.082600	0.124800
H171	H17	0.458200	0.117400	0.115600
H181	H18	0.407100	0.162800	0.166000
H191	H19	0.340400	0.049000	0.077400
H201	H20	0.493200	0.074400	0.065000
H211	H21	0.401300	0.977400	0.044000
H221	H22	0.903900	0.614200	0.460800
H231	H23	0.934900	0.580600	0.491600
H241	H24	0.986600	0.619200	0.473000
H251	H25	0.657700	0.118800	0.978000
H261	H26	0.679800	0.055400	0.974400
H271	H27	0.605200	0.095400	0.957800
H281	H28	0.395900	0.382600	0.510200
H291	H29	0.321300	0.377600	0.492800
H301	H30	0.377200	0.416000	0.478000
H311	H31	0.798900	0.208200	0.326000
H321	H32	0.771400	0.155400	0.372000
H331	H33	0.030700	0.074200	0.361000
H341	H34	0.058200	0.127000	0.315000
H351	H35	0.818400	0.090600	0.409800
H361	H36	0.983800	0.034800	0.414800
H371	H37	0.955200	0.928000	0.505800
H381	H38	0.767000	0.076200	0.460000
H391	H39	0.744200	0.984400	0.556200
H401	H40	0.895100	0.901800	0.553400
H411	H41	0.690400	0.958400	0.608000
H421	H42	0.654000	0.924600	0.660600
H431	H43	0.888700	0.807000	0.646800
H441	H44	0.925100	0.840800	0.594200
H451	H45	0.145500	0.372000	0.175200
H461	H46	0.144800	0.417400	0.124800
H471	H47	0.926200	0.382600	0.115600
H481	H48	0.926900	0.337200	0.166000
H491	H49	0.082200	0.451000	0.077400
H501	H50	0.941800	0.425600	0.065000
H511	H51	0.054700	0.522600	0.044000
H521	H52	0.135300	0.885800	0.460800
H531	H53	0.073500	0.919400	0.491600
H541	H54	0.040400	0.880800	0.473000
H551	H55	0.864300	0.381200	0.978000
H561	H56	0.845800	0.444600	0.974400
H571	H57	0.937000	0.404600	0.957800
H581	H58	0.593900	0.117400	0.510200
H591	H59	0.685900	0.122400	0.492800
H601	H60	0.644800	0.084000	0.478000
H611	H61	0.333100	0.291800	0.174000
H621	H62	0.298800	0.344600	0.128000
H631	H63	0.465900	0.425800	0.139000
H641	H64	0.500200	0.373000	0.185000
H651	H65	0.318800	0.409400	0.090200
H661	H66	0.433400	0.465200	0.085200
H671	H67	0.389000	0.572000	0.994200
H681	H68	0.303200	0.423800	0.040000
H691	H69	0.284800	0.515600	0.943800
H701	H70	0.350300	0.598200	0.946600
H711	H71	0.256800	0.541600	0.892000
H721	H72	0.239200	0.575400	0.839400
H731	H73	0.342500	0.693000	0.853200
H741	H74	0.360100	0.659200	0.905800
H751	H75	0.692700	0.128000	0.324800
H761	H76	0.687000	0.082600	0.375200
H771	H77	0.424400	0.117400	0.384400
H781	H78	0.430100	0.162800	0.334000
H791	H79	0.610600	0.049000	0.422600
H801	H80	0.432400	0.074400	0.435000
H811	H81	0.621300	0.977400	0.456000
H821	H82	0.481900	0.614200	0.039200
H831	H83	0.484500	0.580600	0.008400
H841	H84	0.394200	0.619200	0.027000
H851	H85	0.223500	0.118800	0.522000
H861	H86	0.264800	0.055400	0.525600
H871	H87	0.299400	0.095400	0.542200
H881	H88	0.221500	0.382600	0.989800
H891	H89	0.301100	0.377600	0.007200
H901	H90	0.206800	0.416000	0.022000
H911	H91	0.992900	0.208200	0.174000
H921	H92	0.073200	0.155400	0.128000
H931	H93	0.895100	0.074200	0.139000
H941	H94	0.814800	0.127000	0.185000
H951	H95	0.091000	0.090600	0.090200
H961	H96	0.981400	0.034800	0.085200
H971	H97	0.116800	0.928000	0.994200
H981	H98	0.156800	0.076200	0.040000
H991	H99	0.271400	0.984400	0.943800
H1001	H100	0.203100	0.901800	0.946600
H1011	H101	0.351200	0.958400	0.892000
H1021	H102	0.421400	0.924600	0.839400
H1031	H103	0.304300	0.807000	0.853200
H1041	H104	0.234100	0.840800	0.905800
H1051	H105	0.482500	0.372000	0.324800
H1061	H106	0.437800	0.417400	0.375200
H1071	H107	0.691200	0.382600	0.384400
H1081	H108	0.735900	0.337200	0.334000
H1091	H109	0.466800	0.451000	0.422600
H1101	H110	0.632600	0.425600	0.435000
H1111	H111	0.422700	0.522600	0.456000
H1121	H112	0.978900	0.885800	0.039200
H1131	H113	0.007100	0.919400	0.008400
H1141	H114	0.078800	0.880800	0.027000
H1151	H115	0.754500	0.381200	0.522000
H1161	H116	0.709600	0.444600	0.525600
H1171	H117	0.658400	0.404600	0.542200
H1181	H118	0.288700	0.117400	0.989800
H1191	H119	0.191700	0.122400	0.007200
H1201	H120	0.271200	0.084000	0.022000
H1211	H121	0.624900	0.708200	0.674000
H1221	H122	0.643400	0.655400	0.628000
H1231	H123	0.891700	0.574200	0.639000
H1241	H124	0.873200	0.627000	0.685000
H1251	H125	0.728200	0.590600	0.590200
H1261	H126	0.898600	0.534800	0.585200
H1271	H127	0.961000	0.428000	0.494200
H1281	H128	0.727000	0.576200	0.540000
H1291	H129	0.800400	0.484400	0.443800
H1301	H130	0.948500	0.401800	0.446600
H1311	H131	0.798400	0.458400	0.392000
H1321	H132	0.814600	0.424600	0.339400
H1331	H133	0.035500	0.307000	0.353200
H1341	H134	0.019300	0.340800	0.405800
H1351	H135	0.820700	0.872000	0.824800
H1361	H136	0.769600	0.917400	0.875200
H1371	H137	0.541800	0.882600	0.884400
H1381	H138	0.592900	0.837200	0.834000
H1391	H139	0.659600	0.951000	0.922600
H1401	H140	0.506800	0.925600	0.935000
H1411	H141	0.598700	0.022600	0.956000
H1421	H142	0.096100	0.385800	0.539200
H1431	H143	0.065100	0.419400	0.508400
H1441	H144	0.013400	0.380800	0.527000
H1451	H145	0.342300	0.881200	0.022000
H1461	H146	0.320200	0.944600	0.025600
H1471	H147	0.394800	0.904600	0.042200
H1481	H148	0.604100	0.617400	0.489800
H1491	H149	0.678700	0.622400	0.507200
H1501	H150	0.622800	0.584000	0.522000
H1511	H151	0.201100	0.791800	0.674000
H1521	H152	0.228600	0.844600	0.628000
H1531	H153	0.969300	0.925800	0.639000
H1541	H154	0.941800	0.873000	0.685000
H1551	H155	0.181600	0.909400	0.590200
H1561	H156	0.016200	0.965200	0.585200
H1571	H157	0.044800	0.072000	0.494200
H1581	H158	0.233000	0.923800	0.540000
H1591	H159	0.255800	0.015600	0.443800
H1601	H160	0.104900	0.098200	0.446600
H1611	H161	0.309600	0.041600	0.392000
H1621	H162	0.346000	0.075400	0.339400
H1631	H163	0.111300	0.193000	0.353200
H1641	H164	0.074900	0.159200	0.405800
H1651	H165	0.854500	0.628000	0.824800
H1661	H166	0.855200	0.582600	0.875200
H1671	H167	0.073800	0.617400	0.884400
H1681	H168	0.073100	0.662800	0.834000
H1691	H169	0.917800	0.549000	0.922600
H1701	H170	0.058200	0.574400	0.935000
H1711	H171	0.945300	0.477400	0.956000
H1721	H172	0.864700	0.114200	0.539200
H1731	H173	0.926500	0.080600	0.508400
H1741	H174	0.959600	0.119200	0.527000
H1751	H175	0.135700	0.618800	0.022000
H1761	H176	0.154200	0.555400	0.025600
H1771	H177	0.063000	0.595400	0.042200
H1781	H178	0.406100	0.882600	0.489800
H1791	H179	0.314100	0.877600	0.507200
H1801	H180	0.355200	0.916000	0.522000
H1811	H181	0.666900	0.708200	0.826000
H1821	H182	0.701200	0.655400	0.872000
H1831	H183	0.534100	0.574200	0.861000
H1841	H184	0.499800	0.627000	0.815000
H1851	H185	0.681200	0.590600	0.909800
H1861	H186	0.566600	0.534800	0.914800
H1871	H187	0.611000	0.428000	0.005800
H1881	H188	0.696800	0.576200	0.960000
H1891	H189	0.715200	0.484400	0.056200
H1901	H190	0.649700	0.401800	0.053400
H1911	H191	0.743200	0.458400	0.108000
H1921	H192	0.760800	0.424600	0.160600
H1931	H193	0.657500	0.307000	0.146800
H1941	H194	0.639900	0.340800	0.094200
H1951	H195	0.307300	0.872000	0.675200
H1961	H196	0.313000	0.917400	0.624800
H1971	H197	0.575600	0.882600	0.615600
H1981	H198	0.569900	0.837200	0.666000
H1991	H199	0.389400	0.951000	0.577400
H2001	H200	0.567600	0.925600	0.565000
H2011	H201	0.378700	0.022600	0.544000
H2021	H202	0.518100	0.385800	0.960800
H2031	H203	0.515500	0.419400	0.991600
H2041	H204	0.605800	0.380800	0.973000
H2051	H205	0.776500	0.881200	0.478000
H2061	H206	0.735200	0.944600	0.474400
H2071	H207	0.700600	0.904600	0.457800
H2081	H208	0.778500	0.617400	0.010200
H2091	H209	0.698900	0.622400	0.992800
H2101	H210	0.793200	0.584000	0.978000
H2111	H211	0.007100	0.791800	0.826000
H2121	H212	0.926800	0.844600	0.872000
H2131	H213	0.104900	0.925800	0.861000
H2141	H214	0.185200	0.873000	0.815000
H2151	H215	0.909000	0.909400	0.909800
H2161	H216	0.018600	0.965200	0.914800
H2171	H217	0.883200	0.072000	0.005800
H2181	H218	0.843200	0.923800	0.960000
H2191	H219	0.728600	0.015600	0.056200
H2201	H220	0.796900	0.098200	0.053400
H2211	H221	0.648800	0.041600	0.108000
H2221	H222	0.578600	0.075400	0.160600
H2231	H223	0.695700	0.193000	0.146800
H2241	H224	0.765900	0.159200	0.094200
H2251	H225	0.517500	0.628000	0.675200
H2261	H226	0.562200	0.582600	0.624800
H2271	H227	0.308800	0.617400	0.615600
H2281	H228	0.264100	0.662800	0.666000
H2291	H229	0.533200	0.549000	0.577400
H2301	H230	0.367400	0.574400	0.565000
H2311	H231	0.577300	0.477400	0.544000
H2321	H232	0.021100	0.114200	0.960800
H2331	H233	0.992900	0.080600	0.991600
H2341	H234	0.921200	0.119200	0.973000
H2351	H235	0.245500	0.618800	0.478000
H2361	H236	0.290400	0.555400	0.474400
H2371	H237	0.341600	0.595400	0.457800
H2381	H238	0.711300	0.882600	0.010200
H2391	H239	0.808300	0.877600	0.992800
H2401	H240	0.728800	0.916000	0.978000
C11	C1	0.265730	0.289200	0.288740
C21	C2	0.252730	0.327220	0.315920
C31	C3	0.321640	0.318720	0.333000
C41	C4	0.310530	0.350360	0.360580
C51	C5	0.230620	0.390500	0.371060
C61	C6	0.161700	0.399000	0.354000
C71	C7	0.172800	0.367380	0.326420
C81	C8	0.219230	0.418800	0.401940
C91	C9	0.155600	0.453800	0.421600
C101	C10	0.156990	0.477200	0.452420
C111	C11	0.086940	0.521600	0.466120
C121	C12	0.085960	0.542300	0.496580
C131	C13	0.155040	0.518600	0.513320
C141	C14	0.225190	0.474200	0.499620
C151	C15	0.226170	0.453500	0.469160
C161	C16	0.153420	0.536600	0.546160
C171	C17	0.097270	0.577600	0.563860
C181	C18	0.092720	0.597020	0.595940
C191	C19	0.154150	0.571900	0.615800
C201	C20	0.144390	0.592180	0.647240
C211	C21	0.073390	0.637580	0.658840
C221	C22	0.011950	0.662700	0.639000
C231	C23	0.021720	0.642420	0.607540
C241	C24	0.054300	0.662000	0.692800
C251	C25	0.251480	0.177800	0.207040
C261	C26	0.288180	0.149860	0.175580
C271	C27	0.235300	0.125800	0.163200
C281	C28	0.265880	0.098620	0.133020
C291	C29	0.349450	0.095500	0.115200
C301	C30	0.402330	0.119540	0.127600
C311	C31	0.371750	0.146720	0.157780
C321	C32	0.379340	0.065600	0.082520
C331	C33	0.451480	0.059600	0.060440
C341	C34	0.471480	0.030400	0.028640
C351	C35	0.439820	0.986600	0.026360
C361	C36	0.532370	0.042600	0.003060
C371	C37	0.954300	0.594800	0.470400
C381	C38	0.633300	0.089800	0.976600
C391	C39	0.350800	0.402000	0.498000
C401	C40	0.945530	0.210800	0.288740
C411	C41	0.931350	0.172780	0.315920
C421	C42	0.845360	0.181280	0.333000
C431	C43	0.828890	0.149640	0.360580
C441	C44	0.898320	0.109500	0.371060
C451	C45	0.984300	0.101000	0.354000
C461	C46	0.000780	0.132620	0.326420
C471	C47	0.878830	0.081200	0.401940
C481	C48	0.922800	0.046200	0.421600
C491	C49	0.890590	0.022800	0.452420
C501	C50	0.946940	0.978400	0.466120
C511	C51	0.917460	0.957700	0.496580
C521	C52	0.831640	0.981400	0.513320
C531	C53	0.775190	0.025800	0.499620
C541	C54	0.804670	0.046500	0.469160
C551	C55	0.800420	0.963400	0.546160
C561	C56	0.838870	0.922400	0.563860
C571	C57	0.811340	0.902980	0.595940
C581	C58	0.730050	0.928100	0.615800
C591	C59	0.708370	0.907820	0.647240
C601	C60	0.767770	0.862420	0.658840
C611	C61	0.849050	0.837300	0.639000
C621	C62	0.870740	0.857580	0.607540
C631	C63	0.752900	0.838000	0.692800
C641	C64	0.041480	0.322200	0.207040
C651	C65	0.036240	0.350140	0.175580
C661	C66	0.101500	0.374200	0.163200
C671	C67	0.101100	0.401380	0.133020
C681	C68	0.035350	0.404500	0.115200
C691	C69	0.970070	0.380460	0.127600
C701	C70	0.970470	0.353280	0.157780
C711	C71	0.038140	0.434400	0.082520
C721	C72	0.988080	0.440400	0.060440
C731	C73	0.999880	0.469600	0.028640
C741	C74	0.033820	0.513400	0.026360
C751	C75	0.964570	0.457400	0.003060
C761	C76	0.075300	0.905200	0.470400
C771	C77	0.890100	0.410200	0.976600
C781	C78	0.651200	0.098000	0.498000
C791	C79	0.445070	0.289200	0.211260
C801	C80	0.420050	0.327220	0.184080
C811	C81	0.359640	0.318720	0.167000
C821	C82	0.339110	0.350360	0.139420
C831	C83	0.378880	0.390500	0.128940
C841	C84	0.439300	0.399000	0.146000
C851	C85	0.459820	0.367380	0.173580
C861	C86	0.361970	0.418800	0.098060
C871	C87	0.390600	0.453800	0.078400
C881	C88	0.365810	0.477200	0.047580
C891	C89	0.391460	0.521600	0.033880
C901	C90	0.371740	0.542300	0.003420
C911	C91	0.326360	0.518600	0.986680
C921	C92	0.300610	0.474200	0.000380
C931	C93	0.320330	0.453500	0.030840
C941	C94	0.309980	0.536600	0.953840
C951	C95	0.325130	0.577600	0.936140
C961	C96	0.310260	0.597020	0.904060
C971	C97	0.273950	0.571900	0.884200
C981	C98	0.263430	0.592180	0.852760
C991	C99	0.289030	0.637580	0.841160
C1001	C100	0.325350	0.662700	0.861000
C1011	C101	0.335860	0.642420	0.892460
C1021	C102	0.283700	0.662000	0.807200
C1031	C103	0.570720	0.177800	0.292960
C1041	C104	0.561960	0.149860	0.324420
C1051	C105	0.638900	0.125800	0.336800
C1061	C106	0.635500	0.098620	0.366980
C1071	C107	0.555050	0.095500	0.384800
C1081	C108	0.478130	0.119540	0.372400
C1091	C109	0.481530	0.146720	0.342220
C1101	C110	0.555060	0.065600	0.417480
C1111	C111	0.488920	0.059600	0.439560
C1121	C112	0.498120	0.030400	0.471360
C1131	C113	0.573580	0.986600	0.473640
C1141	C114	0.425030	0.042600	0.496940
C1151	C115	0.450900	0.594800	0.029600
C1161	C116	0.276900	0.089800	0.523400
C1171	C117	0.247200	0.402000	0.002000
C1181	C118	0.843670	0.210800	0.211260
C1191	C119	0.895870	0.172780	0.184080
C1201	C120	0.973360	0.181280	0.167000
C1211	C121	0.021470	0.149640	0.139420
C1221	C122	0.992180	0.109500	0.128940
C1231	C123	0.914700	0.101000	0.146000
C1241	C124	0.866600	0.132620	0.173580
C1251	C125	0.039970	0.081200	0.098060
C1261	C126	0.031000	0.046200	0.078400
C1271	C127	0.086610	0.022800	0.047580
C1281	C128	0.074660	0.978400	0.033880
C1291	C129	0.124840	0.957700	0.003420
C1301	C130	0.186960	0.981400	0.986680
C1311	C131	0.199010	0.025800	0.000380
C1321	C132	0.148830	0.046500	0.030840
C1331	C133	0.236180	0.963400	0.953840
C1341	C134	0.238730	0.922400	0.936140
C1351	C135	0.285680	0.902980	0.904060
C1361	C136	0.341850	0.928100	0.884200
C1371	C137	0.383810	0.907820	0.852760
C1381	C138	0.369810	0.862420	0.841160
C1391	C139	0.313650	0.837300	0.861000
C1401	C140	0.271680	0.857580	0.892460
C1411	C141	0.409100	0.838000	0.807200
C1421	C142	0.636320	0.322200	0.292960
C1431	C143	0.613620	0.350140	0.324420
C1441	C144	0.524300	0.374200	0.336800
C1451	C145	0.497520	0.401380	0.366980
C1461	C146	0.560150	0.404500	0.384800
C1471	C147	0.649470	0.380460	0.372400
C1481	C148	0.676250	0.353280	0.342220
C1491	C149	0.527460	0.434400	0.417480
C1501	C150	0.571520	0.440400	0.439560
C1511	C151	0.530520	0.469600	0.471360
C1521	C152	0.452780	0.513400	0.473640
C1531	C153	0.578030	0.457400	0.496940
C1541	C154	0.019500	0.905200	0.029600
C1551	C155	0.699700	0.410200	0.523400
C1561	C156	0.250800	0.098000	0.002000
C1571	C157	0.734270	0.710800	0.711260
C1581	C158	0.747270	0.672780	0.684080
C1591	C159	0.678360	0.681280	0.667000
C1601	C160	0.689470	0.649640	0.639420
C1611	C161	0.769380	0.609500	0.628940
C1621	C162	0.838300	0.601000	0.646000
C1631	C163	0.827200	0.632620	0.673580
C1641	C164	0.780770	0.581200	0.598060
C1651	C165	0.844400	0.546200	0.578400
C1661	C166	0.843010	0.522800	0.547580
C1671	C167	0.913060	0.478400	0.533880
C1681	C168	0.914040	0.457700	0.503420
C1691	C169	0.844960	0.481400	0.486680
C1701	C170	0.774810	0.525800	0.500380
C1711	C171	0.773830	0.546500	0.530840
C1721	C172	0.846580	0.463400	0.453840
C1731	C173	0.902730	0.422400	0.436140
C1741	C174	0.907280	0.402980	0.404060
C1751	C175	0.845850	0.428100	0.384200
C1761	C176	0.855610	0.407820	0.352760
C1771	C177	0.926610	0.362420	0.341160
C1781	C178	0.988050	0.337300	0.361000
C1791	C179	0.978280	0.357580	0.392460
C1801	C180	0.945700	0.338000	0.307200
C1811	C181	0.748520	0.822200	0.792960
C1821	C182	0.711820	0.850140	0.824420
C1831	C183	0.764700	0.874200	0.836800
C1841	C184	0.734120	0.901380	0.866980
C1851	C185	0.650550	0.904500	0.884800
C1861	C186	0.597670	0.880460	0.872400
C1871	C187	0.628250	0.853280	0.842220
C1881	C188	0.620660	0.934400	0.917480
C1891	C189	0.548520	0.940400	0.939560
C1901	C190	0.528520	0.969600	0.971360
C1911	C191	0.560180	0.013400	0.973640
C1921	C192	0.467630	0.957400	0.996940
C1931	C193	0.045700	0.405200	0.529600
C1941	C194	0.366700	0.910200	0.023400
C1951	C195	0.649200	0.598000	0.502000
C1961	C196	0.054470	0.789200	0.711260
C1971	C197	0.068650	0.827220	0.684080
C1981	C198	0.154640	0.818720	0.667000
C1991	C199	0.171110	0.850360	0.639420
C2001	C200	0.101680	0.890500	0.628940
C2011	C201	0.015700	0.899000	0.646000
C2021	C202	0.999220	0.867380	0.673580
C2031	C203	0.121170	0.918800	0.598060
C2041	C204	0.077200	0.953800	0.578400
C2051	C205	0.109410	0.977200	0.547580
C2061	C206	0.053060	0.021600	0.533880
C2071	C207	0.082540	0.042300	0.503420
C2081	C208	0.168360	0.018600	0.486680
C2091	C209	0.224810	0.974200	0.500380
C2101	C210	0.195330	0.953500	0.530840
C2111	C211	0.199580	0.036600	0.453840
C2121	C212	0.161130	0.077600	0.436140
C2131	C213	0.188660	0.097020	0.404060
C2141	C214	0.269950	0.071900	0.384200
C2151	C215	0.291630	0.092180	0.352760
C2161	C216	0.232230	0.137580	0.341160
C2171	C217	0.150950	0.162700	0.361000
C2181	C218	0.129260	0.142420	0.392460
C2191	C219	0.247100	0.162000	0.307200
C2201	C220	0.958520	0.677800	0.792960
C2211	C221	0.963760	0.649860	0.824420
C2221	C222	0.898500	0.625800	0.836800
C2231	C223	0.898900	0.598620	0.866980
C2241	C224	0.964650	0.595500	0.884800
C2251	C225	0.029930	0.619540	0.872400
C2261	C226	0.029530	0.646720	0.842220
C2271	C227	0.961860	0.565600	0.917480
C2281	C228	0.011920	0.559600	0.939560
C2291	C229	0.000120	0.530400	0.971360
C2301	C230	0.966180	0.486600	0.973640
C2311	C231	0.035430	0.542600	0.996940
C2321	C232	0.924700	0.094800	0.529600
C2331	C233	0.109900	0.589800	0.023400
C2341	C234	0.348800	0.902000	0.502000
C2351	C235	0.554930	0.710800	0.788740
C2361	C236	0.579950	0.672780	0.815920
C2371	C237	0.640360	0.681280	0.833000
C2381	C238	0.660890	0.649640	0.860580
C2391	C239	0.621120	0.609500	0.871060
C2401	C240	0.560700	0.601000	0.854000
C2411	C241	0.540180	0.632620	0.826420
C2421	C242	0.638030	0.581200	0.901940
C2431	C243	0.609400	0.546200	0.921600
C2441	C244	0.634190	0.522800	0.952420
C2451	C245	0.608540	0.478400	0.966120
C2461	C246	0.628260	0.457700	0.996580
C2471	C247	0.673640	0.481400	0.013320
C2481	C248	0.699390	0.525800	0.999620
C2491	C249	0.679670	0.546500	0.969160
C2501	C250	0.690020	0.463400	0.046160
C2511	C251	0.674870	0.422400	0.063860
C2521	C252	0.689740	0.402980	0.095940
C2531	C253	0.726050	0.428100	0.115800
C2541	C254	0.736570	0.407820	0.147240
C2551	C255	0.710970	0.362420	0.158840
C2561	C256	0.674650	0.337300	0.139000
C2571	C257	0.664140	0.357580	0.107540
C2581	C258	0.716300	0.338000	0.192800
C2591	C259	0.429280	0.822200	0.707040
C2601	C260	0.438040	0.850140	0.675580
C2611	C261	0.361100	0.874200	0.663200
C2621	C262	0.364500	0.901380	0.633020
C2631	C263	0.444950	0.904500	0.615200
C2641	C264	0.521870	0.880460	0.627600
C2651	C265	0.518470	0.853280	0.657780
C2661	C266	0.444940	0.934400	0.582520
C2671	C267	0.511080	0.940400	0.560440
C2681	C268	0.501880	0.969600	0.528640
C2691	C269	0.426420	0.013400	0.526360
C2701	C270	0.574970	0.957400	0.503060
C2711	C271	0.549100	0.405200	0.970400
C2721	C272	0.723100	0.910200	0.476600
C2731	C273	0.752800	0.598000	0.998000
C2741	C274	0.156330	0.789200	0.788740
C2751	C275	0.104130	0.827220	0.815920
C2761	C276	0.026640	0.818720	0.833000
C2771	C277	0.978530	0.850360	0.860580
C2781	C278	0.007820	0.890500	0.871060
C2791	C279	0.085300	0.899000	0.854000
C2801	C280	0.133400	0.867380	0.826420
C2811	C281	0.960030	0.918800	0.901940
C2821	C282	0.969000	0.953800	0.921600
C2831	C283	0.913390	0.977200	0.952420
C2841	C284	0.925340	0.021600	0.966120
C2851	C285	0.875160	0.042300	0.996580
C2861	C286	0.813040	0.018600	0.013320
C2871	C287	0.800990	0.974200	0.999620
C2881	C288	0.851170	0.953500	0.969160
C2891	C289	0.763820	0.036600	0.046160
C2901	C290	0.761270	0.077600	0.063860
C2911	C291	0.714320	0.097020	0.095940
C2921	C292	0.658150	0.071900	0.115800
C2931	C293	0.616190	0.092180	0.147240
C2941	C294	0.630190	0.137580	0.158840
C2951	C295	0.686350	0.162700	0.139000
C2961	C296	0.728320	0.142420	0.107540
C2971	C297	0.590900	0.162000	0.192800
C2981	C298	0.363680	0.677800	0.707040
C2991	C299	0.386380	0.649860	0.675580
C3001	C300	0.475700	0.625800	0.663200
C3011	C301	0.502480	0.598620	0.633020
C3021	C302	0.439850	0.595500	0.615200
C3031	C303	0.350530	0.619540	0.627600
C3041	C304	0.323750	0.646720	0.657780
C3051	C305	0.472540	0.565600	0.582520
C3061	C306	0.428480	0.559600	0.560440
C3071	C307	0.469480	0.530400	0.528640
C3081	C308	0.547220	0.486600	0.526360
C3091	C309	0.421970	0.542600	0.503060
C3101	C310	0.980500	0.094800	0.970400
C3111	C311	0.300300	0.589800	0.476600
C3121	C312	0.749200	0.902000	0.998000
O11	O1	0.335550	0.250860	0.282840
O21	O2	0.204870	0.296540	0.272920
O31	O3	0.116610	0.647100	0.708880
O41	O4	0.980500	0.694980	0.702820
O51	O5	0.015610	0.546400	0.446980
O61	O6	0.278880	0.452800	0.520440
O71	O7	0.172200	0.190860	0.217540
O81	O8	0.296990	0.188740	0.223280
O91	O9	0.564730	0.089000	0.008340
O101	O10	0.881610	0.249140	0.282840
O111	O11	0.022210	0.203460	0.272920
O121	O12	0.674510	0.852900	0.708880
O131	O13	0.816680	0.805020	0.702820
O141	O14	0.037410	0.953600	0.446980
O151	O15	0.700680	0.047200	0.520440
O161	O16	0.110260	0.309140	0.217540
O171	O17	0.979730	0.311260	0.223280
O181	O18	0.926930	0.411000	0.008340
O191	O19	0.413590	0.250860	0.217160
O201	O20	0.498590	0.296540	0.227080
O211	O21	0.236290	0.647100	0.791120
O221	O22	0.324520	0.694980	0.797180
O231	O23	0.437990	0.546400	0.053020
O241	O24	0.268320	0.452800	0.979560
O251	O25	0.636940	0.190860	0.282460
O261	O26	0.514270	0.188740	0.276720
O271	O27	0.346270	0.089000	0.491660
O281	O28	0.869250	0.249140	0.217160
O291	O29	0.774330	0.203460	0.227080
O301	O30	0.472590	0.852900	0.791120
O311	O31	0.378300	0.805020	0.797180
O321	O32	0.008990	0.953600	0.053020
O331	O33	0.252120	0.047200	0.979560
O341	O34	0.580600	0.309140	0.282460
O351	O35	0.709010	0.311260	0.276720
O361	O36	0.662070	0.411000	0.491660
O371	O37	0.664450	0.749140	0.717160
O381	O38	0.795130	0.703460	0.727080
O391	O39	0.883390	0.352900	0.291120
O401	O40	0.019500	0.305020	0.297180
O411	O41	0.984390	0.453600	0.553020
O421	O42	0.721120	0.547200	0.479560
O431	O43	0.827800	0.809140	0.782460
O441	O44	0.703010	0.811260	0.776720
O451	O45	0.435270	0.911000	0.991660
O461	O46	0.118390	0.750860	0.717160
O471	O47	0.977790	0.796540	0.727080
O481	O48	0.325490	0.147100	0.291120
O491	O49	0.183320	0.194980	0.297180
O501	O50	0.962590	0.046400	0.553020
O511	O51	0.299320	0.952800	0.479560
O521	O52	0.889740	0.690860	0.782460
O531	O53	0.020270	0.688740	0.776720
O541	O54	0.073070	0.589000	0.991660
O551	O55	0.586410	0.749140	0.782840
O561	O56	0.501410	0.703460	0.772920
O571	O57	0.763710	0.352900	0.208880
O581	O58	0.675480	0.305020	0.202820
O591	O59	0.562010	0.453600	0.946980
O601	O60	0.731680	0.547200	0.020440
O611	O61	0.363060	0.809140	0.717540
O621	O62	0.485730	0.811260	0.723280
O631	O63	0.653730	0.911000	0.508340
O641	O64	0.130750	0.750860	0.782840
O651	O65	0.225670	0.796540	0.772920
O661	O66	0.527410	0.147100	0.208880
O671	O67	0.621700	0.194980	0.202820
O681	O68	0.991010	0.046400	0.946980
O691	O69	0.747880	0.952800	0.020440
O701	O70	0.419400	0.690860	0.717540
O711	O71	0.290990	0.688740	0.723280
O721	O72	0.337930	0.589000	0.508340
