data_GULWIU_clean_PM
_symmetry_space_group_name_H-M	'P1'
_cell_length_a	20.861600
_cell_length_b	35.593300
_cell_length_c	22.203800
_cell_angle_alpha	90.000000
_cell_angle_beta	90.000000
_cell_angle_gamma	90.000000
_symmetry_Int_Tables_number 1

loop_
_symmetry_equiv_pos_as_xyz
'x,y,z'

loop_
_atom_site_label
_atom_site_type_symbol
_atom_site_fract_x
_atom_site_fract_y
_atom_site_fract_z
Cd11	Cd1	0.404660	0.918000	0.634190
Cd21	Cd2	0.269230	0.843500	0.618160
Cd31	Cd3	0.143860	0.165250	0.757140
Cd41	Cd4	0.151500	0.091940	0.633430
Cd51	Cd5	0.095340	0.582000	0.134190
Cd61	Cd6	0.230770	0.656500	0.118160
Cd71	Cd7	0.356140	0.334750	0.257140
Cd81	Cd8	0.348500	0.408060	0.133430
Cd91	Cd9	0.404660	0.082000	0.865810
Cd101	Cd10	0.269230	0.156500	0.881840
Cd111	Cd11	0.143860	0.834750	0.742860
Cd121	Cd12	0.151500	0.908060	0.866570
Cd131	Cd13	0.095340	0.418000	0.365810
Cd141	Cd14	0.230770	0.343500	0.381840
Cd151	Cd15	0.356140	0.665250	0.242860
Cd161	Cd16	0.348500	0.591940	0.366570
Cd171	Cd17	0.595340	0.082000	0.365810
Cd181	Cd18	0.730770	0.156500	0.381840
Cd191	Cd19	0.856140	0.834750	0.242860
Cd201	Cd20	0.848500	0.908060	0.366570
Cd211	Cd21	0.904660	0.418000	0.865810
Cd221	Cd22	0.769230	0.343500	0.881840
Cd231	Cd23	0.643860	0.665250	0.742860
Cd241	Cd24	0.651500	0.591940	0.866570
Cd251	Cd25	0.595340	0.918000	0.134190
Cd261	Cd26	0.730770	0.843500	0.118160
Cd271	Cd27	0.856140	0.165250	0.257140
Cd281	Cd28	0.848500	0.091940	0.133430
Cd291	Cd29	0.904660	0.582000	0.634190
Cd301	Cd30	0.769230	0.656500	0.618160
Cd311	Cd31	0.643860	0.334750	0.757140
Cd321	Cd32	0.651500	0.408060	0.633430
H11	H1	0.566000	0.804000	0.737900
H21	H2	0.434100	0.730000	0.674900
H31	H3	0.505100	0.681500	0.703200
H41	H4	0.627400	0.753600	0.769700
H51	H5	0.947900	0.874300	0.579300
H61	H6	0.084200	0.900200	0.454800
H71	H7	0.002400	0.912000	0.385600
H81	H8	0.870500	0.893600	0.507900
H91	H9	0.234800	0.019100	0.666600
H101	H10	0.413000	0.054200	0.714000
H111	H11	0.452700	0.001200	0.669400
H121	H12	0.280700	0.966400	0.625000
H131	H13	0.322100	0.709600	0.540600
H141	H14	0.267300	0.780100	0.402000
H151	H15	0.253400	0.826700	0.474000
H161	H16	0.297500	0.760000	0.605200
H171	H17	0.934000	0.696000	0.237900
H181	H18	0.065900	0.770000	0.174900
H191	H19	0.994900	0.818500	0.203200
H201	H20	0.872600	0.746400	0.269700
H211	H21	0.552100	0.625700	0.079300
H221	H22	0.415800	0.599800	0.954800
H231	H23	0.497600	0.588000	0.885600
H241	H24	0.629500	0.606400	0.007900
H251	H25	0.265200	0.480900	0.166600
H261	H26	0.087000	0.445800	0.214000
H271	H27	0.047300	0.498800	0.169400
H281	H28	0.219300	0.533600	0.125000
H291	H29	0.177900	0.790400	0.040600
H301	H30	0.232700	0.719900	0.902000
H311	H31	0.246600	0.673300	0.974000
H321	H32	0.202500	0.740000	0.105200
H331	H33	0.566000	0.196000	0.762100
H341	H34	0.434100	0.270000	0.825100
H351	H35	0.505100	0.318500	0.796800
H361	H36	0.627400	0.246400	0.730300
H371	H37	0.947900	0.125700	0.920700
H381	H38	0.084200	0.099800	0.045200
H391	H39	0.002400	0.088000	0.114400
H401	H40	0.870500	0.106400	0.992100
H411	H41	0.234800	0.980900	0.833400
H421	H42	0.413000	0.945800	0.786000
H431	H43	0.452700	0.998800	0.830600
H441	H44	0.280700	0.033600	0.875000
H451	H45	0.322100	0.290400	0.959400
H461	H46	0.267300	0.219900	0.098000
H471	H47	0.253400	0.173300	0.026000
H481	H48	0.297500	0.240000	0.894800
H491	H49	0.934000	0.304000	0.262100
H501	H50	0.065900	0.230000	0.325100
H511	H51	0.994900	0.181500	0.296800
H521	H52	0.872600	0.253600	0.230300
H531	H53	0.552100	0.374300	0.420700
H541	H54	0.415800	0.400200	0.545200
H551	H55	0.497600	0.412000	0.614400
H561	H56	0.629500	0.393600	0.492100
H571	H57	0.265200	0.519100	0.333400
H581	H58	0.087000	0.554200	0.286000
H591	H59	0.047300	0.501200	0.330600
H601	H60	0.219300	0.466400	0.375000
H611	H61	0.177900	0.209600	0.459400
H621	H62	0.232700	0.280100	0.598000
H631	H63	0.246600	0.326700	0.526000
H641	H64	0.202500	0.260000	0.394800
H651	H65	0.434000	0.196000	0.262100
H661	H66	0.565900	0.270000	0.325100
H671	H67	0.494900	0.318500	0.296800
H681	H68	0.372600	0.246400	0.230300
H691	H69	0.052100	0.125700	0.420700
H701	H70	0.915800	0.099800	0.545200
H711	H71	0.997600	0.088000	0.614400
H721	H72	0.129500	0.106400	0.492100
H731	H73	0.765200	0.980900	0.333400
H741	H74	0.587000	0.945800	0.286000
H751	H75	0.547300	0.998800	0.330600
H761	H76	0.719300	0.033600	0.375000
H771	H77	0.677900	0.290400	0.459400
H781	H78	0.732700	0.219900	0.598000
H791	H79	0.746600	0.173300	0.526000
H801	H80	0.702500	0.240000	0.394800
H811	H81	0.066000	0.304000	0.762100
H821	H82	0.934100	0.230000	0.825100
H831	H83	0.005100	0.181500	0.796800
H841	H84	0.127400	0.253600	0.730300
H851	H85	0.447900	0.374300	0.920700
H861	H86	0.584200	0.400200	0.045200
H871	H87	0.502400	0.412000	0.114400
H881	H88	0.370500	0.393600	0.992100
H891	H89	0.734800	0.519100	0.833400
H901	H90	0.913000	0.554200	0.786000
H911	H91	0.952700	0.501200	0.830600
H921	H92	0.780700	0.466400	0.875000
H931	H93	0.822100	0.209600	0.959400
H941	H94	0.767300	0.280100	0.098000
H951	H95	0.753400	0.326700	0.026000
H961	H96	0.797500	0.260000	0.894800
H971	H97	0.434000	0.804000	0.237900
H981	H98	0.565900	0.730000	0.174900
H991	H99	0.494900	0.681500	0.203200
H1001	H100	0.372600	0.753600	0.269700
H1011	H101	0.052100	0.874300	0.079300
H1021	H102	0.915800	0.900200	0.954800
H1031	H103	0.997600	0.912000	0.885600
H1041	H104	0.129500	0.893600	0.007900
H1051	H105	0.765200	0.019100	0.166600
H1061	H106	0.587000	0.054200	0.214000
H1071	H107	0.547300	0.001200	0.169400
H1081	H108	0.719300	0.966400	0.125000
H1091	H109	0.677900	0.709600	0.040600
H1101	H110	0.732700	0.780100	0.902000
H1111	H111	0.746600	0.826700	0.974000
H1121	H112	0.702500	0.760000	0.105200
H1131	H113	0.066000	0.696000	0.737900
H1141	H114	0.934100	0.770000	0.674900
H1151	H115	0.005100	0.818500	0.703200
H1161	H116	0.127400	0.746400	0.769700
H1171	H117	0.447900	0.625700	0.579300
H1181	H118	0.584200	0.599800	0.454800
H1191	H119	0.502400	0.588000	0.385600
H1201	H120	0.370500	0.606400	0.507900
H1211	H121	0.734800	0.480900	0.666600
H1221	H122	0.913000	0.445800	0.714000
H1231	H123	0.952700	0.498800	0.669400
H1241	H124	0.780700	0.533600	0.625000
H1251	H125	0.822100	0.790400	0.540600
H1261	H126	0.767300	0.719900	0.402000
H1271	H127	0.753400	0.673300	0.474000
H1281	H128	0.797500	0.740000	0.605200
C11	C1	0.454500	0.803400	0.680400
C21	C2	0.492900	0.772900	0.701500
C31	C3	0.551600	0.779100	0.730600
C41	C4	0.474300	0.735800	0.692700
C51	C5	0.517200	0.706700	0.711100
C61	C6	0.588500	0.748800	0.748700
C71	C7	0.074000	0.874200	0.566600
C81	C8	0.023000	0.885400	0.522500
C91	C9	0.959900	0.882800	0.540300
C101	C10	0.040500	0.897400	0.465900
C111	C11	0.991400	0.905300	0.425700
C121	C12	0.914500	0.893600	0.496900
C131	C13	0.289900	0.073600	0.729200
C141	C14	0.318700	0.042700	0.697200
C151	C15	0.279900	0.015600	0.668600
C161	C16	0.384500	0.036500	0.696500
C171	C17	0.407500	0.004700	0.670300
C181	C18	0.307300	0.984500	0.644100
C191	C19	0.302000	0.707900	0.420300
C201	C20	0.292200	0.738700	0.462300
C211	C21	0.305700	0.732700	0.525600
C221	C22	0.273900	0.774700	0.443500
C231	C23	0.265900	0.802300	0.486900
C241	C24	0.292600	0.763600	0.563100
C251	C25	0.045500	0.696600	0.180400
C261	C26	0.007100	0.727100	0.201500
C271	C27	0.948400	0.720900	0.230600
C281	C28	0.025700	0.764200	0.192700
C291	C29	0.982800	0.793300	0.211100
C301	C30	0.911500	0.751200	0.248700
C311	C31	0.426000	0.625800	0.066600
C321	C32	0.477000	0.614600	0.022500
C331	C33	0.540100	0.617200	0.040300
C341	C34	0.459500	0.602600	0.965900
C351	C35	0.508600	0.594700	0.925700
C361	C36	0.585500	0.606400	0.996900
C371	C37	0.210100	0.426400	0.229200
C381	C38	0.181300	0.457300	0.197200
C391	C39	0.220100	0.484400	0.168600
C401	C40	0.115500	0.463500	0.196500
C411	C41	0.092500	0.495300	0.170300
C421	C42	0.192700	0.515500	0.144100
C431	C43	0.198000	0.792100	0.920300
C441	C44	0.207800	0.761300	0.962300
C451	C45	0.194300	0.767300	0.025600
C461	C46	0.226100	0.725300	0.943500
C471	C47	0.234100	0.697700	0.986900
C481	C48	0.207400	0.736400	0.063100
C491	C49	0.454500	0.196600	0.819600
C501	C50	0.492900	0.227100	0.798500
C511	C51	0.551600	0.220900	0.769400
C521	C52	0.474300	0.264200	0.807300
C531	C53	0.517200	0.293300	0.788900
C541	C54	0.588500	0.251200	0.751300
C551	C55	0.074000	0.125800	0.933400
C561	C56	0.023000	0.114600	0.977500
C571	C57	0.959900	0.117200	0.959700
C581	C58	0.040500	0.102600	0.034100
C591	C59	0.991400	0.094700	0.074300
C601	C60	0.914500	0.106400	0.003100
C611	C61	0.289900	0.926400	0.770800
C621	C62	0.318700	0.957300	0.802800
C631	C63	0.279900	0.984400	0.831400
C641	C64	0.384500	0.963500	0.803500
C651	C65	0.407500	0.995300	0.829700
C661	C66	0.307300	0.015500	0.855900
C671	C67	0.302000	0.292100	0.079700
C681	C68	0.292200	0.261300	0.037700
C691	C69	0.305700	0.267300	0.974400
C701	C70	0.273900	0.225300	0.056500
C711	C71	0.265900	0.197700	0.013100
C721	C72	0.292600	0.236400	0.936900
C731	C73	0.045500	0.303400	0.319600
C741	C74	0.007100	0.272900	0.298500
C751	C75	0.948400	0.279100	0.269400
C761	C76	0.025700	0.235800	0.307300
C771	C77	0.982800	0.206700	0.288900
C781	C78	0.911500	0.248800	0.251300
C791	C79	0.426000	0.374200	0.433400
C801	C80	0.477000	0.385400	0.477500
C811	C81	0.540100	0.382800	0.459700
C821	C82	0.459500	0.397400	0.534100
C831	C83	0.508600	0.405300	0.574300
C841	C84	0.585500	0.393600	0.503100
C851	C85	0.210100	0.573600	0.270800
C861	C86	0.181300	0.542700	0.302800
C871	C87	0.220100	0.515600	0.331400
C881	C88	0.115500	0.536500	0.303500
C891	C89	0.092500	0.504700	0.329700
C901	C90	0.192700	0.484500	0.355900
C911	C91	0.198000	0.207900	0.579700
C921	C92	0.207800	0.238700	0.537700
C931	C93	0.194300	0.232700	0.474400
C941	C94	0.226100	0.274700	0.556500
C951	C95	0.234100	0.302300	0.513100
C961	C96	0.207400	0.263600	0.436900
C971	C97	0.545500	0.196600	0.319600
C981	C98	0.507100	0.227100	0.298500
C991	C99	0.448400	0.220900	0.269400
C1001	C100	0.525700	0.264200	0.307300
C1011	C101	0.482800	0.293300	0.288900
C1021	C102	0.411500	0.251200	0.251300
C1031	C103	0.926000	0.125800	0.433400
C1041	C104	0.977000	0.114600	0.477500
C1051	C105	0.040100	0.117200	0.459700
C1061	C106	0.959500	0.102600	0.534100
C1071	C107	0.008600	0.094700	0.574300
C1081	C108	0.085500	0.106400	0.503100
C1091	C109	0.710100	0.926400	0.270800
C1101	C110	0.681300	0.957300	0.302800
C1111	C111	0.720100	0.984400	0.331400
C1121	C112	0.615500	0.963500	0.303500
C1131	C113	0.592500	0.995300	0.329700
C1141	C114	0.692700	0.015500	0.355900
C1151	C115	0.698000	0.292100	0.579700
C1161	C116	0.707800	0.261300	0.537700
C1171	C117	0.694300	0.267300	0.474400
C1181	C118	0.726100	0.225300	0.556500
C1191	C119	0.734100	0.197700	0.513100
C1201	C120	0.707400	0.236400	0.436900
C1211	C121	0.954500	0.303400	0.819600
C1221	C122	0.992900	0.272900	0.798500
C1231	C123	0.051600	0.279100	0.769400
C1241	C124	0.974300	0.235800	0.807300
C1251	C125	0.017200	0.206700	0.788900
C1261	C126	0.088500	0.248800	0.751300
C1271	C127	0.574000	0.374200	0.933400
C1281	C128	0.523000	0.385400	0.977500
C1291	C129	0.459900	0.382800	0.959700
C1301	C130	0.540500	0.397400	0.034100
C1311	C131	0.491400	0.405300	0.074300
C1321	C132	0.414500	0.393600	0.003100
C1331	C133	0.789900	0.573600	0.770800
C1341	C134	0.818700	0.542700	0.802800
C1351	C135	0.779900	0.515600	0.831400
C1361	C136	0.884500	0.536500	0.803500
C1371	C137	0.907500	0.504700	0.829700
C1381	C138	0.807300	0.484500	0.855900
C1391	C139	0.802000	0.207900	0.079700
C1401	C140	0.792200	0.238700	0.037700
C1411	C141	0.805700	0.232700	0.974400
C1421	C142	0.773900	0.274700	0.056500
C1431	C143	0.765900	0.302300	0.013100
C1441	C144	0.792600	0.263600	0.936900
C1451	C145	0.545500	0.803400	0.180400
C1461	C146	0.507100	0.772900	0.201500
C1471	C147	0.448400	0.779100	0.230600
C1481	C148	0.525700	0.735800	0.192700
C1491	C149	0.482800	0.706700	0.211100
C1501	C150	0.411500	0.748800	0.248700
C1511	C151	0.926000	0.874200	0.066600
C1521	C152	0.977000	0.885400	0.022500
C1531	C153	0.040100	0.882800	0.040300
C1541	C154	0.959500	0.897400	0.965900
C1551	C155	0.008600	0.905300	0.925700
C1561	C156	0.085500	0.893600	0.996900
C1571	C157	0.710100	0.073600	0.229200
C1581	C158	0.681300	0.042700	0.197200
C1591	C159	0.720100	0.015600	0.168600
C1601	C160	0.615500	0.036500	0.196500
C1611	C161	0.592500	0.004700	0.170300
C1621	C162	0.692700	0.984500	0.144100
C1631	C163	0.698000	0.707900	0.920300
C1641	C164	0.707800	0.738700	0.962300
C1651	C165	0.694300	0.732700	0.025600
C1661	C166	0.726100	0.774700	0.943500
C1671	C167	0.734100	0.802300	0.986900
C1681	C168	0.707400	0.763600	0.063100
C1691	C169	0.954500	0.696600	0.680400
C1701	C170	0.992900	0.727100	0.701500
C1711	C171	0.051600	0.720900	0.730600
C1721	C172	0.974300	0.764200	0.692700
C1731	C173	0.017200	0.793300	0.711100
C1741	C174	0.088500	0.751200	0.748700
C1751	C175	0.574000	0.625800	0.566600
C1761	C176	0.523000	0.614600	0.522500
C1771	C177	0.459900	0.617200	0.540300
C1781	C178	0.540500	0.602600	0.465900
C1791	C179	0.491400	0.594700	0.425700
C1801	C180	0.414500	0.606400	0.496900
C1811	C181	0.789900	0.426400	0.729200
C1821	C182	0.818700	0.457300	0.697200
C1831	C183	0.779900	0.484400	0.668600
C1841	C184	0.884500	0.463500	0.696500
C1851	C185	0.907500	0.495300	0.670300
C1861	C186	0.807300	0.515500	0.644100
C1871	C187	0.802000	0.792100	0.420300
C1881	C188	0.792200	0.761300	0.462300
C1891	C189	0.805700	0.767300	0.525600
C1901	C190	0.773900	0.725300	0.443500
C1911	C191	0.765900	0.697700	0.486900
C1921	C192	0.792600	0.736400	0.563100
N11	N1	0.418600	0.857400	0.654500
N21	N2	0.374600	0.831200	0.643800
N31	N3	0.472900	0.839200	0.679700
N41	N4	0.395500	0.796900	0.659600
N51	N5	0.571600	0.712400	0.737800
N61	N6	0.164100	0.858700	0.603600
N71	N7	0.119700	0.854500	0.645600
N81	N8	0.062500	0.863700	0.623000
N91	N9	0.136200	0.872000	0.551800
N101	N10	0.930300	0.904100	0.440200
N111	N11	0.271200	0.116500	0.792300
N121	N12	0.223700	0.116700	0.754000
N131	N13	0.233700	0.090350	0.713600
N141	N14	0.313300	0.089070	0.777200
N151	N15	0.371400	0.978500	0.646300
N161	N16	0.323700	0.679200	0.339200
N171	N17	0.318700	0.655300	0.382900
N181	N18	0.308300	0.672600	0.436600
N191	N19	0.311700	0.714300	0.361400
N201	N20	0.274400	0.796800	0.544700
N211	N21	0.081400	0.642600	0.154500
N221	N22	0.125400	0.668800	0.143800
N231	N23	0.027100	0.660800	0.179700
N241	N24	0.104500	0.703100	0.159600
N251	N25	0.928400	0.787600	0.237800
N261	N26	0.335900	0.641300	0.103600
N271	N27	0.380300	0.645500	0.145600
N281	N28	0.437500	0.636300	0.123000
N291	N29	0.363800	0.628000	0.051800
N301	N30	0.569700	0.595900	0.940200
N311	N31	0.228800	0.383500	0.292300
N321	N32	0.276300	0.383300	0.254000
N331	N33	0.266300	0.409650	0.213600
N341	N34	0.186700	0.410930	0.277200
N351	N35	0.128600	0.521500	0.146300
N361	N36	0.176300	0.820800	0.839200
N371	N37	0.181300	0.844700	0.882900
N381	N38	0.191700	0.827400	0.936600
N391	N39	0.188300	0.785700	0.861400
N401	N40	0.225600	0.703200	0.044700
N411	N41	0.418600	0.142600	0.845500
N421	N42	0.374600	0.168800	0.856200
N431	N43	0.472900	0.160800	0.820300
N441	N44	0.395500	0.203100	0.840400
N451	N45	0.571600	0.287600	0.762200
N461	N46	0.164100	0.141300	0.896400
N471	N47	0.119700	0.145500	0.854400
N481	N48	0.062500	0.136300	0.877000
N491	N49	0.136200	0.128000	0.948200
N501	N50	0.930300	0.095900	0.059800
N511	N51	0.271200	0.883500	0.707700
N521	N52	0.223700	0.883300	0.746000
N531	N53	0.233700	0.909650	0.786400
N541	N54	0.313300	0.910930	0.722800
N551	N55	0.371400	0.021500	0.853700
N561	N56	0.323700	0.320800	0.160800
N571	N57	0.318700	0.344700	0.117100
N581	N58	0.308300	0.327400	0.063400
N591	N59	0.311700	0.285700	0.138600
N601	N60	0.274400	0.203200	0.955300
N611	N61	0.081400	0.357400	0.345500
N621	N62	0.125400	0.331200	0.356200
N631	N63	0.027100	0.339200	0.320300
N641	N64	0.104500	0.296900	0.340400
N651	N65	0.928400	0.212400	0.262200
N661	N66	0.335900	0.358700	0.396400
N671	N67	0.380300	0.354500	0.354400
N681	N68	0.437500	0.363700	0.377000
N691	N69	0.363800	0.372000	0.448200
N701	N70	0.569700	0.404100	0.559800
N711	N71	0.228800	0.616500	0.207700
N721	N72	0.276300	0.616700	0.246000
N731	N73	0.266300	0.590350	0.286400
N741	N74	0.186700	0.589070	0.222800
N751	N75	0.128600	0.478500	0.353700
N761	N76	0.176300	0.179200	0.660800
N771	N77	0.181300	0.155300	0.617100
N781	N78	0.191700	0.172600	0.563400
N791	N79	0.188300	0.214300	0.638600
N801	N80	0.225600	0.296800	0.455300
N811	N81	0.581400	0.142600	0.345500
N821	N82	0.625400	0.168800	0.356200
N831	N83	0.527100	0.160800	0.320300
N841	N84	0.604500	0.203100	0.340400
N851	N85	0.428400	0.287600	0.262200
N861	N86	0.835900	0.141300	0.396400
N871	N87	0.880300	0.145500	0.354400
N881	N88	0.937500	0.136300	0.377000
N891	N89	0.863800	0.128000	0.448200
N901	N90	0.069700	0.095900	0.559800
N911	N91	0.728800	0.883500	0.207700
N921	N92	0.776300	0.883300	0.246000
N931	N93	0.766300	0.909650	0.286400
N941	N94	0.686700	0.910930	0.222800
N951	N95	0.628600	0.021500	0.353700
N961	N96	0.676300	0.320800	0.660800
N971	N97	0.681300	0.344700	0.617100
N981	N98	0.691700	0.327400	0.563400
N991	N99	0.688300	0.285700	0.638600
N1001	N100	0.725600	0.203200	0.455300
N1011	N101	0.918600	0.357400	0.845500
N1021	N102	0.874600	0.331200	0.856200
N1031	N103	0.972900	0.339200	0.820300
N1041	N104	0.895500	0.296900	0.840400
N1051	N105	0.071600	0.212400	0.762200
N1061	N106	0.664100	0.358700	0.896400
N1071	N107	0.619700	0.354500	0.854400
N1081	N108	0.562500	0.363700	0.877000
N1091	N109	0.636200	0.372000	0.948200
N1101	N110	0.430300	0.404100	0.059800
N1111	N111	0.771200	0.616500	0.707700
N1121	N112	0.723700	0.616700	0.746000
N1131	N113	0.733700	0.590350	0.786400
N1141	N114	0.813300	0.589070	0.722800
N1151	N115	0.871400	0.478500	0.853700
N1161	N116	0.823700	0.179200	0.160800
N1171	N117	0.818700	0.155300	0.117100
N1181	N118	0.808300	0.172600	0.063400
N1191	N119	0.811700	0.214300	0.138600
N1201	N120	0.774400	0.296800	0.955300
N1211	N121	0.581400	0.857400	0.154500
N1221	N122	0.625400	0.831200	0.143800
N1231	N123	0.527100	0.839200	0.179700
N1241	N124	0.604500	0.796900	0.159600
N1251	N125	0.428400	0.712400	0.237800
N1261	N126	0.835900	0.858700	0.103600
N1271	N127	0.880300	0.854500	0.145600
N1281	N128	0.937500	0.863700	0.123000
N1291	N129	0.863800	0.872000	0.051800
N1301	N130	0.069700	0.904100	0.940200
N1311	N131	0.728800	0.116500	0.292300
N1321	N132	0.776300	0.116700	0.254000
N1331	N133	0.766300	0.090350	0.213600
N1341	N134	0.686700	0.089070	0.277200
N1351	N135	0.628600	0.978500	0.146300
N1361	N136	0.676300	0.679200	0.839200
N1371	N137	0.681300	0.655300	0.882900
N1381	N138	0.691700	0.672600	0.936600
N1391	N139	0.688300	0.714300	0.861400
N1401	N140	0.725600	0.796800	0.044700
N1411	N141	0.918600	0.642600	0.654500
N1421	N142	0.874600	0.668800	0.643800
N1431	N143	0.972900	0.660800	0.679700
N1441	N144	0.895500	0.703100	0.659600
N1451	N145	0.071600	0.787600	0.737800
N1461	N146	0.664100	0.641300	0.603600
N1471	N147	0.619700	0.645500	0.645600
N1481	N148	0.562500	0.636300	0.623000
N1491	N149	0.636200	0.628000	0.551800
N1501	N150	0.430300	0.595900	0.440200
N1511	N151	0.771200	0.383500	0.792300
N1521	N152	0.723700	0.383300	0.754000
N1531	N153	0.733700	0.409650	0.713600
N1541	N154	0.813300	0.410930	0.777200
N1551	N155	0.871400	0.521500	0.646300
N1561	N156	0.823700	0.820800	0.339200
N1571	N157	0.818700	0.844700	0.382900
N1581	N158	0.808300	0.827400	0.436600
N1591	N159	0.811700	0.785700	0.361400
N1601	N160	0.774400	0.703200	0.544700
Cl11	Cl1	0.312450	0.901400	0.559450
Cl21	Cl2	0.230740	0.791970	0.695550
Cl31	Cl3	0.067240	0.114830	0.712440
Cl41	Cl4	0.187550	0.598600	0.059450
Cl51	Cl5	0.269260	0.708030	0.195550
Cl61	Cl6	0.432760	0.385170	0.212440
Cl71	Cl7	0.312450	0.098600	0.940550
Cl81	Cl8	0.230740	0.208030	0.804450
Cl91	Cl9	0.067240	0.885170	0.787560
Cl101	Cl10	0.187550	0.401400	0.440550
Cl111	Cl11	0.269260	0.291970	0.304450
Cl121	Cl12	0.432760	0.614830	0.287560
Cl131	Cl13	0.687550	0.098600	0.440550
Cl141	Cl14	0.769260	0.208030	0.304450
Cl151	Cl15	0.932760	0.885170	0.287560
Cl161	Cl16	0.812450	0.401400	0.940550
Cl171	Cl17	0.730740	0.291970	0.804450
Cl181	Cl18	0.567240	0.614830	0.787560
Cl191	Cl19	0.687550	0.901400	0.059450
Cl201	Cl20	0.769260	0.791970	0.195550
Cl211	Cl21	0.932760	0.114830	0.212440
Cl221	Cl22	0.812450	0.598600	0.559450
Cl231	Cl23	0.730740	0.708030	0.695550
Cl241	Cl24	0.567240	0.385170	0.712440
