data_GULWOA_clean_PM
_symmetry_space_group_name_H-M	'P1'
_cell_length_a	12.530000
_cell_length_b	16.130400
_cell_length_c	20.892800
_cell_angle_alpha	67.397100
_cell_angle_beta	72.550600
_cell_angle_gamma	67.145200
_symmetry_Int_Tables_number 1

loop_
_symmetry_equiv_pos_as_xyz
'x,y,z'

loop_
_atom_site_label
_atom_site_type_symbol
_atom_site_fract_x
_atom_site_fract_y
_atom_site_fract_z
Cd11	Cd1	0.366830	0.740160	0.760340
Cd21	Cd2	0.638180	0.664400	0.845340
Cd31	Cd3	0.867330	0.759840	0.739660
Cd41	Cd4	0.147920	0.835600	0.654660
Cd51	Cd5	0.633170	0.259840	0.239660
Cd61	Cd6	0.361820	0.335600	0.154660
Cd71	Cd7	0.132670	0.240160	0.260340
Cd81	Cd8	0.852080	0.164400	0.345340
Cd91	Cd9	0.500000	0.000000	0.000000
Cd101	Cd10	0.500000	0.500000	0.500000
H11	H1	0.314000	0.628000	0.926000
H21	H2	0.400800	0.515600	0.019000
H31	H3	0.188300	0.368300	0.059300
H41	H4	0.103800	0.474800	0.961600
H51	H5	0.379500	0.352800	0.843200
H61	H6	0.614600	0.299000	0.958600
H71	H7	0.599300	0.145400	0.013000
H81	H8	0.378600	0.199300	0.895100
H91	H9	0.868000	0.872000	0.574000
H101	H10	0.935400	0.984400	0.481000
H111	H11	0.615900	0.131700	0.440700
H121	H12	0.540200	0.025200	0.538400
H131	H13	0.575500	0.147200	0.656800
H141	H14	0.872200	0.201000	0.541400
H151	H15	0.757700	0.354600	0.487000
H161	H16	0.473000	0.300700	0.604900
H171	H17	0.686000	0.372000	0.074000
H181	H18	0.599200	0.484400	0.981000
H191	H19	0.811700	0.631700	0.940700
H201	H20	0.896200	0.525200	0.038400
H211	H21	0.620500	0.647200	0.156800
H221	H22	0.385400	0.701000	0.041400
H231	H23	0.400700	0.854600	0.987000
H241	H24	0.621400	0.800700	0.104900
H251	H25	0.132000	0.128000	0.426000
H261	H26	0.064600	0.015600	0.519000
H271	H27	0.384100	0.868300	0.559300
H281	H28	0.459800	0.974800	0.461600
H291	H29	0.424500	0.852800	0.343200
H301	H30	0.127800	0.799000	0.458600
H311	H31	0.242300	0.645400	0.513000
H321	H32	0.527000	0.699300	0.395100
C11	C1	0.145000	0.632100	0.874500
C21	C2	0.197600	0.565000	0.932200
C31	C3	0.287200	0.574800	0.951600
C41	C4	0.338000	0.507500	0.007900
C51	C5	0.215900	0.420800	0.031200
C61	C6	0.164000	0.485600	0.973200
C71	C7	0.513300	0.437400	0.857400
C81	C8	0.505200	0.340300	0.891700
C91	C9	0.429600	0.310700	0.876300
C101	C10	0.565500	0.279900	0.943900
C111	C11	0.555400	0.187500	0.976700
C121	C12	0.427600	0.218800	0.909600
C131	C13	0.651600	0.867900	0.625500
C141	C14	0.694800	0.935000	0.567800
C151	C15	0.813600	0.925200	0.548400
C161	C16	0.853400	0.992500	0.492100
C171	C17	0.667900	0.079200	0.468800
C181	C18	0.622800	0.014400	0.526800
C191	C19	0.808100	0.062600	0.642600
C201	C20	0.737200	0.159700	0.608300
C211	C21	0.616600	0.189300	0.623700
C221	C22	0.789300	0.220100	0.556100
C231	C23	0.719600	0.312500	0.523300
C241	C24	0.556000	0.281200	0.590400
C251	C25	0.855000	0.367900	0.125500
C261	C26	0.802400	0.435000	0.067800
C271	C27	0.712800	0.425200	0.048400
C281	C28	0.662000	0.492500	0.992100
C291	C29	0.784100	0.579200	0.968800
C301	C30	0.836000	0.514400	0.026800
C311	C31	0.486700	0.562600	0.142600
C321	C32	0.494800	0.659700	0.108300
C331	C33	0.570400	0.689300	0.123700
C341	C34	0.434500	0.720100	0.056100
C351	C35	0.444600	0.812500	0.023300
C361	C36	0.572400	0.781200	0.090400
C371	C37	0.348400	0.132100	0.374500
C381	C38	0.305200	0.065000	0.432200
C391	C39	0.186400	0.074800	0.451600
C401	C40	0.146600	0.007500	0.507900
C411	C41	0.332100	0.920800	0.531200
C421	C42	0.377200	0.985600	0.473200
C431	C43	0.191900	0.937400	0.357400
C441	C44	0.262800	0.840300	0.391700
C451	C45	0.383400	0.810700	0.376300
C461	C46	0.210700	0.779900	0.443900
C471	C47	0.280400	0.687500	0.476700
C481	C48	0.444000	0.718800	0.409600
N11	N1	0.190300	0.694500	0.818100
N21	N2	0.109900	0.741100	0.776700
N31	N3	0.015600	0.711700	0.805100
N41	N4	0.031900	0.644800	0.866600
N51	N5	0.304300	0.431800	0.047600
N61	N6	0.591600	0.462800	0.871600
N71	N7	0.565900	0.557000	0.835200
N81	N8	0.476700	0.582000	0.802400
N91	N9	0.443200	0.507400	0.815200
N101	N10	0.485500	0.156600	0.958400
N111	N11	0.702900	0.805500	0.681900
N121	N12	0.627700	0.758900	0.723300
N131	N13	0.532400	0.788300	0.694900
N141	N14	0.543300	0.855200	0.633400
N151	N15	0.783700	0.068200	0.452400
N161	N16	0.926000	0.037200	0.628400
N171	N17	0.958100	0.943000	0.664800
N181	N18	0.861100	0.918000	0.697600
N191	N19	0.765800	0.992600	0.684800
N201	N20	0.600500	0.343400	0.541600
N211	N21	0.809700	0.305500	0.181900
N221	N22	0.890100	0.258900	0.223300
N231	N23	0.984400	0.288300	0.194900
N241	N24	0.968100	0.355200	0.133400
N251	N25	0.695700	0.568200	0.952400
N261	N26	0.408400	0.537200	0.128400
N271	N27	0.434100	0.443000	0.164800
N281	N28	0.523300	0.418000	0.197600
N291	N29	0.556800	0.492600	0.184800
N301	N30	0.514500	0.843400	0.041600
N311	N31	0.297100	0.194500	0.318100
N321	N32	0.372300	0.241100	0.276700
N331	N33	0.467600	0.211700	0.305100
N341	N34	0.456700	0.144800	0.366600
N351	N35	0.216300	0.931800	0.547600
N361	N36	0.074000	0.962800	0.371600
N371	N37	0.041900	0.057000	0.335200
N381	N38	0.138900	0.082000	0.302400
N391	N39	0.234200	0.007400	0.315200
N401	N40	0.399500	0.656600	0.458400
Cl11	Cl1	0.413460	0.761400	0.867680
Cl21	Cl2	0.350510	0.703300	0.650680
Cl31	Cl3	0.228730	0.909400	0.717540
Cl41	Cl4	0.042540	0.738600	0.632320
Cl51	Cl5	0.704490	0.796700	0.849320
Cl61	Cl6	0.855670	0.590600	0.782460
Cl71	Cl7	0.586540	0.238600	0.132320
Cl81	Cl8	0.649490	0.296700	0.349320
Cl91	Cl9	0.771270	0.090600	0.282460
Cl101	Cl10	0.957460	0.261400	0.367680
Cl111	Cl11	0.295510	0.203300	0.150680
Cl121	Cl12	0.144330	0.409400	0.217540
