data_GULWEQ_clean_PM
_symmetry_space_group_name_H-M	'P1'
_cell_length_a	41.594700
_cell_length_b	41.594700
_cell_length_c	41.594700
_cell_angle_alpha	90.000000
_cell_angle_beta	90.000000
_cell_angle_gamma	90.000000
_symmetry_Int_Tables_number 1

loop_
_symmetry_equiv_pos_as_xyz
'x,y,z'

loop_
_atom_site_label
_atom_site_type_symbol
_atom_site_fract_x
_atom_site_fract_y
_atom_site_fract_z
Cd11	Cd1	0.448640	0.325700	0.179090
Cd21	Cd2	0.406120	0.243100	0.212710
Cd31	Cd3	0.519840	0.170300	0.993530
Cd41	Cd4	0.556740	0.283990	0.412980
Cd51	Cd5	0.051360	0.674300	0.679090
Cd61	Cd6	0.093880	0.756900	0.712710
Cd71	Cd7	0.980160	0.829700	0.493530
Cd81	Cd8	0.943260	0.716010	0.912980
Cd91	Cd9	0.551360	0.825700	0.320910
Cd101	Cd10	0.593880	0.743100	0.287290
Cd111	Cd11	0.480160	0.670300	0.506470
Cd121	Cd12	0.443260	0.783990	0.087020
Cd131	Cd13	0.948640	0.174300	0.820910
Cd141	Cd14	0.906120	0.256900	0.787290
Cd151	Cd15	0.019840	0.329700	0.006470
Cd161	Cd16	0.056740	0.216010	0.587020
Cd171	Cd17	0.179090	0.448640	0.325700
Cd181	Cd18	0.212710	0.406120	0.243100
Cd191	Cd19	0.993530	0.519840	0.170300
Cd201	Cd20	0.412980	0.556740	0.283990
Cd211	Cd21	0.679090	0.051360	0.674300
Cd221	Cd22	0.712710	0.093880	0.756900
Cd231	Cd23	0.493530	0.980160	0.829700
Cd241	Cd24	0.912980	0.943260	0.716010
Cd251	Cd25	0.320910	0.551360	0.825700
Cd261	Cd26	0.287290	0.593880	0.743100
Cd271	Cd27	0.506470	0.480160	0.670300
Cd281	Cd28	0.087020	0.443260	0.783990
Cd291	Cd29	0.820910	0.948640	0.174300
Cd301	Cd30	0.787290	0.906120	0.256900
Cd311	Cd31	0.006470	0.019840	0.329700
Cd321	Cd32	0.587020	0.056740	0.216010
Cd331	Cd33	0.325700	0.179090	0.448640
Cd341	Cd34	0.243100	0.212710	0.406120
Cd351	Cd35	0.170300	0.993530	0.519840
Cd361	Cd36	0.283990	0.412980	0.556740
Cd371	Cd37	0.674300	0.679090	0.051360
Cd381	Cd38	0.756900	0.712710	0.093880
Cd391	Cd39	0.829700	0.493530	0.980160
Cd401	Cd40	0.716010	0.912980	0.943260
Cd411	Cd41	0.825700	0.320910	0.551360
Cd421	Cd42	0.743100	0.287290	0.593880
Cd431	Cd43	0.670300	0.506470	0.480160
Cd441	Cd44	0.783990	0.087020	0.443260
Cd451	Cd45	0.174300	0.820910	0.948640
Cd461	Cd46	0.256900	0.787290	0.906120
Cd471	Cd47	0.329700	0.006470	0.019840
Cd481	Cd48	0.216010	0.587020	0.056740
Cd491	Cd49	0.551360	0.674300	0.820910
Cd501	Cd50	0.593880	0.756900	0.787290
Cd511	Cd51	0.480160	0.829700	0.006470
Cd521	Cd52	0.443260	0.716010	0.587020
Cd531	Cd53	0.948640	0.325700	0.320910
Cd541	Cd54	0.906120	0.243100	0.287290
Cd551	Cd55	0.019840	0.170300	0.506470
Cd561	Cd56	0.056740	0.283990	0.087020
Cd571	Cd57	0.448640	0.174300	0.679090
Cd581	Cd58	0.406120	0.256900	0.712710
Cd591	Cd59	0.519840	0.329700	0.493530
Cd601	Cd60	0.556740	0.216010	0.912980
Cd611	Cd61	0.051360	0.825700	0.179090
Cd621	Cd62	0.093880	0.743100	0.212710
Cd631	Cd63	0.980160	0.670300	0.993530
Cd641	Cd64	0.943260	0.783990	0.412980
Cd651	Cd65	0.820910	0.551360	0.674300
Cd661	Cd66	0.787290	0.593880	0.756900
Cd671	Cd67	0.006470	0.480160	0.829700
Cd681	Cd68	0.587020	0.443260	0.716010
Cd691	Cd69	0.320910	0.948640	0.325700
Cd701	Cd70	0.287290	0.906120	0.243100
Cd711	Cd71	0.506470	0.019840	0.170300
Cd721	Cd72	0.087020	0.056740	0.283990
Cd731	Cd73	0.679090	0.448640	0.174300
Cd741	Cd74	0.712710	0.406120	0.256900
Cd751	Cd75	0.493530	0.519840	0.329700
Cd761	Cd76	0.912980	0.556740	0.216010
Cd771	Cd77	0.179090	0.051360	0.825700
Cd781	Cd78	0.212710	0.093880	0.743100
Cd791	Cd79	0.993530	0.980160	0.670300
Cd801	Cd80	0.412980	0.943260	0.783990
Cd811	Cd81	0.674300	0.820910	0.551360
Cd821	Cd82	0.756900	0.787290	0.593880
Cd831	Cd83	0.829700	0.006470	0.480160
Cd841	Cd84	0.716010	0.587020	0.443260
Cd851	Cd85	0.325700	0.320910	0.948640
Cd861	Cd86	0.243100	0.287290	0.906120
Cd871	Cd87	0.170300	0.506470	0.019840
Cd881	Cd88	0.283990	0.087020	0.056740
Cd891	Cd89	0.174300	0.679090	0.448640
Cd901	Cd90	0.256900	0.712710	0.406120
Cd911	Cd91	0.329700	0.493530	0.519840
Cd921	Cd92	0.216010	0.912980	0.556740
Cd931	Cd93	0.825700	0.179090	0.051360
Cd941	Cd94	0.743100	0.212710	0.093880
Cd951	Cd95	0.670300	0.993530	0.980160
Cd961	Cd96	0.783990	0.412980	0.943260
H11	H1	0.476400	0.245400	0.323200
H21	H2	0.526400	0.324700	0.296500
H31	H3	0.506000	0.243900	0.370000
H41	H4	0.552100	0.321700	0.346400
H51	H5	0.332000	0.390800	0.201800
H61	H6	0.293100	0.308900	0.234500
H71	H7	0.284600	0.416400	0.215700
H81	H8	0.248600	0.337800	0.251300
H91	H9	0.477700	0.178600	0.112000
H101	H10	0.492400	0.265100	0.070700
H111	H11	0.520100	0.238000	0.030500
H121	H12	0.496600	0.155300	0.064600
H131	H13	0.413900	0.443500	0.204200
H141	H14	0.491800	0.414400	0.255100
H151	H15	0.488500	0.365200	0.227000
H161	H16	0.410700	0.393000	0.181500
H171	H17	0.437100	0.123800	0.195600
H181	H18	0.509500	0.172700	0.230100
H191	H19	0.405000	0.167900	0.203300
H201	H20	0.472700	0.215900	0.237700
H211	H21	0.499300	0.059900	0.925600
H221	H22	0.525300	0.101900	0.843400
H231	H23	0.486000	0.014800	0.897800
H241	H24	0.512100	0.056100	0.817100
H251	H25	0.023600	0.754600	0.823200
H261	H26	0.973600	0.675300	0.796500
H271	H27	0.994000	0.756100	0.870000
H281	H28	0.947900	0.678300	0.846400
H291	H29	0.168000	0.609200	0.701800
H301	H30	0.206900	0.691100	0.734500
H311	H31	0.215400	0.583600	0.715700
H321	H32	0.251400	0.662200	0.751300
H331	H33	0.022300	0.821400	0.612000
H341	H34	0.007600	0.734900	0.570700
H351	H35	0.979900	0.762000	0.530500
H361	H36	0.003400	0.844700	0.564600
H371	H37	0.086100	0.556500	0.704200
H381	H38	0.008200	0.585600	0.755100
H391	H39	0.011500	0.634800	0.727000
H401	H40	0.089300	0.607000	0.681500
H411	H41	0.062900	0.876200	0.695600
H421	H42	0.990500	0.827300	0.730100
H431	H43	0.095000	0.832100	0.703300
H441	H44	0.027300	0.784100	0.737700
H451	H45	0.000700	0.940100	0.425600
H461	H46	0.974700	0.898100	0.343400
H471	H47	0.014000	0.985200	0.397800
H481	H48	0.987900	0.943900	0.317100
H491	H49	0.523600	0.745400	0.176800
H501	H50	0.473600	0.824700	0.203500
H511	H51	0.494000	0.743900	0.130000
H521	H52	0.447900	0.821700	0.153600
H531	H53	0.668000	0.890800	0.298200
H541	H54	0.706900	0.808900	0.265500
H551	H55	0.715400	0.916400	0.284300
H561	H56	0.751400	0.837800	0.248700
H571	H57	0.522300	0.678600	0.388000
H581	H58	0.507600	0.765100	0.429300
H591	H59	0.479900	0.738000	0.469500
H601	H60	0.503400	0.655300	0.435400
H611	H61	0.586100	0.943500	0.295800
H621	H62	0.508200	0.914400	0.244900
H631	H63	0.511500	0.865200	0.273000
H641	H64	0.589300	0.893000	0.318500
H651	H65	0.562900	0.623800	0.304400
H661	H66	0.490500	0.672700	0.269900
H671	H67	0.595000	0.667900	0.296700
H681	H68	0.527300	0.715900	0.262300
H691	H69	0.500700	0.559900	0.574400
H701	H70	0.474700	0.601900	0.656600
H711	H71	0.514000	0.514800	0.602200
H721	H72	0.487900	0.556100	0.682900
H731	H73	0.976400	0.254600	0.676800
H741	H74	0.026400	0.175300	0.703500
H751	H75	0.006000	0.256100	0.630000
H761	H76	0.052100	0.178300	0.653600
H771	H77	0.832000	0.109200	0.798200
H781	H78	0.793100	0.191100	0.765500
H791	H79	0.784600	0.083600	0.784300
H801	H80	0.748600	0.162200	0.748700
H811	H81	0.977700	0.321400	0.888000
H821	H82	0.992400	0.234900	0.929300
H831	H83	0.020100	0.262000	0.969500
H841	H84	0.996600	0.344700	0.935400
H851	H85	0.913900	0.056500	0.795800
H861	H86	0.991800	0.085600	0.744900
H871	H87	0.988500	0.134800	0.773000
H881	H88	0.910700	0.107000	0.818500
H891	H89	0.937100	0.376200	0.804400
H901	H90	0.009500	0.327300	0.769900
H911	H91	0.905000	0.332100	0.796700
H921	H92	0.972700	0.284100	0.762300
H931	H93	0.999300	0.440100	0.074400
H941	H94	0.025300	0.398100	0.156600
H951	H95	0.986000	0.485200	0.102200
H961	H96	0.012100	0.443900	0.182900
H971	H97	0.323200	0.476400	0.245400
H981	H98	0.296500	0.526400	0.324700
H991	H99	0.370000	0.506000	0.243900
H1001	H100	0.346400	0.552100	0.321700
H1011	H101	0.201800	0.332000	0.390800
H1021	H102	0.234500	0.293100	0.308900
H1031	H103	0.215700	0.284600	0.416400
H1041	H104	0.251300	0.248600	0.337800
H1051	H105	0.112000	0.477700	0.178600
H1061	H106	0.070700	0.492400	0.265100
H1071	H107	0.030500	0.520100	0.238000
H1081	H108	0.064600	0.496600	0.155300
H1091	H109	0.204200	0.413900	0.443500
H1101	H110	0.255100	0.491800	0.414400
H1111	H111	0.227000	0.488500	0.365200
H1121	H112	0.181500	0.410700	0.393000
H1131	H113	0.195600	0.437100	0.123800
H1141	H114	0.230100	0.509500	0.172700
H1151	H115	0.203300	0.405000	0.167900
H1161	H116	0.237700	0.472700	0.215900
H1171	H117	0.925600	0.499300	0.059900
H1181	H118	0.843400	0.525300	0.101900
H1191	H119	0.897800	0.486000	0.014800
H1201	H120	0.817100	0.512100	0.056100
H1211	H121	0.823200	0.023600	0.754600
H1221	H122	0.796500	0.973600	0.675300
H1231	H123	0.870000	0.994000	0.756100
H1241	H124	0.846400	0.947900	0.678300
H1251	H125	0.701800	0.168000	0.609200
H1261	H126	0.734500	0.206900	0.691100
H1271	H127	0.715700	0.215400	0.583600
H1281	H128	0.751300	0.251400	0.662200
H1291	H129	0.612000	0.022300	0.821400
H1301	H130	0.570700	0.007600	0.734900
H1311	H131	0.530500	0.979900	0.762000
H1321	H132	0.564600	0.003400	0.844700
H1331	H133	0.704200	0.086100	0.556500
H1341	H134	0.755100	0.008200	0.585600
H1351	H135	0.727000	0.011500	0.634800
H1361	H136	0.681500	0.089300	0.607000
H1371	H137	0.695600	0.062900	0.876200
H1381	H138	0.730100	0.990500	0.827300
H1391	H139	0.703300	0.095000	0.832100
H1401	H140	0.737700	0.027300	0.784100
H1411	H141	0.425600	0.000700	0.940100
H1421	H142	0.343400	0.974700	0.898100
H1431	H143	0.397800	0.014000	0.985200
H1441	H144	0.317100	0.987900	0.943900
H1451	H145	0.176800	0.523600	0.745400
H1461	H146	0.203500	0.473600	0.824700
H1471	H147	0.130000	0.494000	0.743900
H1481	H148	0.153600	0.447900	0.821700
H1491	H149	0.298200	0.668000	0.890800
H1501	H150	0.265500	0.706900	0.808900
H1511	H151	0.284300	0.715400	0.916400
H1521	H152	0.248700	0.751400	0.837800
H1531	H153	0.388000	0.522300	0.678600
H1541	H154	0.429300	0.507600	0.765100
H1551	H155	0.469500	0.479900	0.738000
H1561	H156	0.435400	0.503400	0.655300
H1571	H157	0.295800	0.586100	0.943500
H1581	H158	0.244900	0.508200	0.914400
H1591	H159	0.273000	0.511500	0.865200
H1601	H160	0.318500	0.589300	0.893000
H1611	H161	0.304400	0.562900	0.623800
H1621	H162	0.269900	0.490500	0.672700
H1631	H163	0.296700	0.595000	0.667900
H1641	H164	0.262300	0.527300	0.715900
H1651	H165	0.574400	0.500700	0.559900
H1661	H166	0.656600	0.474700	0.601900
H1671	H167	0.602200	0.514000	0.514800
H1681	H168	0.682900	0.487900	0.556100
H1691	H169	0.676800	0.976400	0.254600
H1701	H170	0.703500	0.026400	0.175300
H1711	H171	0.630000	0.006000	0.256100
H1721	H172	0.653600	0.052100	0.178300
H1731	H173	0.798200	0.832000	0.109200
H1741	H174	0.765500	0.793100	0.191100
H1751	H175	0.784300	0.784600	0.083600
H1761	H176	0.748700	0.748600	0.162200
H1771	H177	0.888000	0.977700	0.321400
H1781	H178	0.929300	0.992400	0.234900
H1791	H179	0.969500	0.020100	0.262000
H1801	H180	0.935400	0.996600	0.344700
H1811	H181	0.795800	0.913900	0.056500
H1821	H182	0.744900	0.991800	0.085600
H1831	H183	0.773000	0.988500	0.134800
H1841	H184	0.818500	0.910700	0.107000
H1851	H185	0.804400	0.937100	0.376200
H1861	H186	0.769900	0.009500	0.327300
H1871	H187	0.796700	0.905000	0.332100
H1881	H188	0.762300	0.972700	0.284100
H1891	H189	0.074400	0.999300	0.440100
H1901	H190	0.156600	0.025300	0.398100
H1911	H191	0.102200	0.986000	0.485200
H1921	H192	0.182900	0.012100	0.443900
H1931	H193	0.245400	0.323200	0.476400
H1941	H194	0.324700	0.296500	0.526400
H1951	H195	0.243900	0.370000	0.506000
H1961	H196	0.321700	0.346400	0.552100
H1971	H197	0.390800	0.201800	0.332000
H1981	H198	0.308900	0.234500	0.293100
H1991	H199	0.416400	0.215700	0.284600
H2001	H200	0.337800	0.251300	0.248600
H2011	H201	0.178600	0.112000	0.477700
H2021	H202	0.265100	0.070700	0.492400
H2031	H203	0.238000	0.030500	0.520100
H2041	H204	0.155300	0.064600	0.496600
H2051	H205	0.443500	0.204200	0.413900
H2061	H206	0.414400	0.255100	0.491800
H2071	H207	0.365200	0.227000	0.488500
H2081	H208	0.393000	0.181500	0.410700
H2091	H209	0.123800	0.195600	0.437100
H2101	H210	0.172700	0.230100	0.509500
H2111	H211	0.167900	0.203300	0.405000
H2121	H212	0.215900	0.237700	0.472700
H2131	H213	0.059900	0.925600	0.499300
H2141	H214	0.101900	0.843400	0.525300
H2151	H215	0.014800	0.897800	0.486000
H2161	H216	0.056100	0.817100	0.512100
H2171	H217	0.754600	0.823200	0.023600
H2181	H218	0.675300	0.796500	0.973600
H2191	H219	0.756100	0.870000	0.994000
H2201	H220	0.678300	0.846400	0.947900
H2211	H221	0.609200	0.701800	0.168000
H2221	H222	0.691100	0.734500	0.206900
H2231	H223	0.583600	0.715700	0.215400
H2241	H224	0.662200	0.751300	0.251400
H2251	H225	0.821400	0.612000	0.022300
H2261	H226	0.734900	0.570700	0.007600
H2271	H227	0.762000	0.530500	0.979900
H2281	H228	0.844700	0.564600	0.003400
H2291	H229	0.556500	0.704200	0.086100
H2301	H230	0.585600	0.755100	0.008200
H2311	H231	0.634800	0.727000	0.011500
H2321	H232	0.607000	0.681500	0.089300
H2331	H233	0.876200	0.695600	0.062900
H2341	H234	0.827300	0.730100	0.990500
H2351	H235	0.832100	0.703300	0.095000
H2361	H236	0.784100	0.737700	0.027300
H2371	H237	0.940100	0.425600	0.000700
H2381	H238	0.898100	0.343400	0.974700
H2391	H239	0.985200	0.397800	0.014000
H2401	H240	0.943900	0.317100	0.987900
H2411	H241	0.745400	0.176800	0.523600
H2421	H242	0.824700	0.203500	0.473600
H2431	H243	0.743900	0.130000	0.494000
H2441	H244	0.821700	0.153600	0.447900
H2451	H245	0.890800	0.298200	0.668000
H2461	H246	0.808900	0.265500	0.706900
H2471	H247	0.916400	0.284300	0.715400
H2481	H248	0.837800	0.248700	0.751400
H2491	H249	0.678600	0.388000	0.522300
H2501	H250	0.765100	0.429300	0.507600
H2511	H251	0.738000	0.469500	0.479900
H2521	H252	0.655300	0.435400	0.503400
H2531	H253	0.943500	0.295800	0.586100
H2541	H254	0.914400	0.244900	0.508200
H2551	H255	0.865200	0.273000	0.511500
H2561	H256	0.893000	0.318500	0.589300
H2571	H257	0.623800	0.304400	0.562900
H2581	H258	0.672700	0.269900	0.490500
H2591	H259	0.667900	0.296700	0.595000
H2601	H260	0.715900	0.262300	0.527300
H2611	H261	0.559900	0.574400	0.500700
H2621	H262	0.601900	0.656600	0.474700
H2631	H263	0.514800	0.602200	0.514000
H2641	H264	0.556100	0.682900	0.487900
H2651	H265	0.254600	0.676800	0.976400
H2661	H266	0.175300	0.703500	0.026400
H2671	H267	0.256100	0.630000	0.006000
H2681	H268	0.178300	0.653600	0.052100
H2691	H269	0.109200	0.798200	0.832000
H2701	H270	0.191100	0.765500	0.793100
H2711	H271	0.083600	0.784300	0.784600
H2721	H272	0.162200	0.748700	0.748600
H2731	H273	0.321400	0.888000	0.977700
H2741	H274	0.234900	0.929300	0.992400
H2751	H275	0.262000	0.969500	0.020100
H2761	H276	0.344700	0.935400	0.996600
H2771	H277	0.056500	0.795800	0.913900
H2781	H278	0.085600	0.744900	0.991800
H2791	H279	0.134800	0.773000	0.988500
H2801	H280	0.107000	0.818500	0.910700
H2811	H281	0.376200	0.804400	0.937100
H2821	H282	0.327300	0.769900	0.009500
H2831	H283	0.332100	0.796700	0.905000
H2841	H284	0.284100	0.762300	0.972700
H2851	H285	0.440100	0.074400	0.999300
H2861	H286	0.398100	0.156600	0.025300
H2871	H287	0.485200	0.102200	0.986000
H2881	H288	0.443900	0.182900	0.012100
H2891	H289	0.523600	0.754600	0.676800
H2901	H290	0.473600	0.675300	0.703500
H2911	H291	0.494000	0.756100	0.630000
H2921	H292	0.447900	0.678300	0.653600
H2931	H293	0.668000	0.609200	0.798200
H2941	H294	0.706900	0.691100	0.765500
H2951	H295	0.715400	0.583600	0.784300
H2961	H296	0.751400	0.662200	0.748700
H2971	H297	0.522300	0.821400	0.888000
H2981	H298	0.507600	0.734900	0.929300
H2991	H299	0.479900	0.762000	0.969500
H3001	H300	0.503400	0.844700	0.935400
H3011	H301	0.586100	0.556500	0.795800
H3021	H302	0.508200	0.585600	0.744900
H3031	H303	0.511500	0.634800	0.773000
H3041	H304	0.589300	0.607000	0.818500
H3051	H305	0.562900	0.876200	0.804400
H3061	H306	0.490500	0.827300	0.769900
H3071	H307	0.595000	0.832100	0.796700
H3081	H308	0.527300	0.784100	0.762300
H3091	H309	0.500700	0.940100	0.074400
H3101	H310	0.474700	0.898100	0.156600
H3111	H311	0.514000	0.985200	0.102200
H3121	H312	0.487900	0.943900	0.182900
H3131	H313	0.976400	0.245400	0.176800
H3141	H314	0.026400	0.324700	0.203500
H3151	H315	0.006000	0.243900	0.130000
H3161	H316	0.052100	0.321700	0.153600
H3171	H317	0.832000	0.390800	0.298200
H3181	H318	0.793100	0.308900	0.265500
H3191	H319	0.784600	0.416400	0.284300
H3201	H320	0.748600	0.337800	0.248700
H3211	H321	0.977700	0.178600	0.388000
H3221	H322	0.992400	0.265100	0.429300
H3231	H323	0.020100	0.238000	0.469500
H3241	H324	0.996600	0.155300	0.435400
H3251	H325	0.913900	0.443500	0.295800
H3261	H326	0.991800	0.414400	0.244900
H3271	H327	0.988500	0.365200	0.273000
H3281	H328	0.910700	0.393000	0.318500
H3291	H329	0.937100	0.123800	0.304400
H3301	H330	0.009500	0.172700	0.269900
H3311	H331	0.905000	0.167900	0.296700
H3321	H332	0.972700	0.215900	0.262300
H3331	H333	0.999300	0.059900	0.574400
H3341	H334	0.025300	0.101900	0.656600
H3351	H335	0.986000	0.014800	0.602200
H3361	H336	0.012100	0.056100	0.682900
H3371	H337	0.476400	0.254600	0.823200
H3381	H338	0.526400	0.175300	0.796500
H3391	H339	0.506000	0.256100	0.870000
H3401	H340	0.552100	0.178300	0.846400
H3411	H341	0.332000	0.109200	0.701800
H3421	H342	0.293100	0.191100	0.734500
H3431	H343	0.284600	0.083600	0.715700
H3441	H344	0.248600	0.162200	0.751300
H3451	H345	0.477700	0.321400	0.612000
H3461	H346	0.492400	0.234900	0.570700
H3471	H347	0.520100	0.262000	0.530500
H3481	H348	0.496600	0.344700	0.564600
H3491	H349	0.413900	0.056500	0.704200
H3501	H350	0.491800	0.085600	0.755100
H3511	H351	0.488500	0.134800	0.727000
H3521	H352	0.410700	0.107000	0.681500
H3531	H353	0.437100	0.376200	0.695600
H3541	H354	0.509500	0.327300	0.730100
H3551	H355	0.405000	0.332100	0.703300
H3561	H356	0.472700	0.284100	0.737700
H3571	H357	0.499300	0.440100	0.425600
H3581	H358	0.525300	0.398100	0.343400
H3591	H359	0.486000	0.485200	0.397800
H3601	H360	0.512100	0.443900	0.317100
H3611	H361	0.023600	0.745400	0.323200
H3621	H362	0.973600	0.824700	0.296500
H3631	H363	0.994000	0.743900	0.370000
H3641	H364	0.947900	0.821700	0.346400
H3651	H365	0.168000	0.890800	0.201800
H3661	H366	0.206900	0.808900	0.234500
H3671	H367	0.215400	0.916400	0.215700
H3681	H368	0.251400	0.837800	0.251300
H3691	H369	0.022300	0.678600	0.112000
H3701	H370	0.007600	0.765100	0.070700
H3711	H371	0.979900	0.738000	0.030500
H3721	H372	0.003400	0.655300	0.064600
H3731	H373	0.086100	0.943500	0.204200
H3741	H374	0.008200	0.914400	0.255100
H3751	H375	0.011500	0.865200	0.227000
H3761	H376	0.089300	0.893000	0.181500
H3771	H377	0.062900	0.623800	0.195600
H3781	H378	0.990500	0.672700	0.230100
H3791	H379	0.095000	0.667900	0.203300
H3801	H380	0.027300	0.715900	0.237700
H3811	H381	0.000700	0.559900	0.925600
H3821	H382	0.974700	0.601900	0.843400
H3831	H383	0.014000	0.514800	0.897800
H3841	H384	0.987900	0.556100	0.817100
H3851	H385	0.676800	0.523600	0.754600
H3861	H386	0.703500	0.473600	0.675300
H3871	H387	0.630000	0.494000	0.756100
H3881	H388	0.653600	0.447900	0.678300
H3891	H389	0.798200	0.668000	0.609200
H3901	H390	0.765500	0.706900	0.691100
H3911	H391	0.784300	0.715400	0.583600
H3921	H392	0.748700	0.751400	0.662200
H3931	H393	0.888000	0.522300	0.821400
H3941	H394	0.929300	0.507600	0.734900
H3951	H395	0.969500	0.479900	0.762000
H3961	H396	0.935400	0.503400	0.844700
H3971	H397	0.795800	0.586100	0.556500
H3981	H398	0.744900	0.508200	0.585600
H3991	H399	0.773000	0.511500	0.634800
H4001	H400	0.818500	0.589300	0.607000
H4011	H401	0.804400	0.562900	0.876200
H4021	H402	0.769900	0.490500	0.827300
H4031	H403	0.796700	0.595000	0.832100
H4041	H404	0.762300	0.527300	0.784100
H4051	H405	0.074400	0.500700	0.940100
H4061	H406	0.156600	0.474700	0.898100
H4071	H407	0.102200	0.514000	0.985200
H4081	H408	0.182900	0.487900	0.943900
H4091	H409	0.176800	0.976400	0.245400
H4101	H410	0.203500	0.026400	0.324700
H4111	H411	0.130000	0.006000	0.243900
H4121	H412	0.153600	0.052100	0.321700
H4131	H413	0.298200	0.832000	0.390800
H4141	H414	0.265500	0.793100	0.308900
H4151	H415	0.284300	0.784600	0.416400
H4161	H416	0.248700	0.748600	0.337800
H4171	H417	0.388000	0.977700	0.178600
H4181	H418	0.429300	0.992400	0.265100
H4191	H419	0.469500	0.020100	0.238000
H4201	H420	0.435400	0.996600	0.155300
H4211	H421	0.295800	0.913900	0.443500
H4221	H422	0.244900	0.991800	0.414400
H4231	H423	0.273000	0.988500	0.365200
H4241	H424	0.318500	0.910700	0.393000
H4251	H425	0.304400	0.937100	0.123800
H4261	H426	0.269900	0.009500	0.172700
H4271	H427	0.296700	0.905000	0.167900
H4281	H428	0.262300	0.972700	0.215900
H4291	H429	0.574400	0.999300	0.059900
H4301	H430	0.656600	0.025300	0.101900
H4311	H431	0.602200	0.986000	0.014800
H4321	H432	0.682900	0.012100	0.056100
H4331	H433	0.823200	0.476400	0.254600
H4341	H434	0.796500	0.526400	0.175300
H4351	H435	0.870000	0.506000	0.256100
H4361	H436	0.846400	0.552100	0.178300
H4371	H437	0.701800	0.332000	0.109200
H4381	H438	0.734500	0.293100	0.191100
H4391	H439	0.715700	0.284600	0.083600
H4401	H440	0.751300	0.248600	0.162200
H4411	H441	0.612000	0.477700	0.321400
H4421	H442	0.570700	0.492400	0.234900
H4431	H443	0.530500	0.520100	0.262000
H4441	H444	0.564600	0.496600	0.344700
H4451	H445	0.704200	0.413900	0.056500
H4461	H446	0.755100	0.491800	0.085600
H4471	H447	0.727000	0.488500	0.134800
H4481	H448	0.681500	0.410700	0.107000
H4491	H449	0.695600	0.437100	0.376200
H4501	H450	0.730100	0.509500	0.327300
H4511	H451	0.703300	0.405000	0.332100
H4521	H452	0.737700	0.472700	0.284100
H4531	H453	0.425600	0.499300	0.440100
H4541	H454	0.343400	0.525300	0.398100
H4551	H455	0.397800	0.486000	0.485200
H4561	H456	0.317100	0.512100	0.443900
H4571	H457	0.323200	0.023600	0.745400
H4581	H458	0.296500	0.973600	0.824700
H4591	H459	0.370000	0.994000	0.743900
H4601	H460	0.346400	0.947900	0.821700
H4611	H461	0.201800	0.168000	0.890800
H4621	H462	0.234500	0.206900	0.808900
H4631	H463	0.215700	0.215400	0.916400
H4641	H464	0.251300	0.251400	0.837800
H4651	H465	0.112000	0.022300	0.678600
H4661	H466	0.070700	0.007600	0.765100
H4671	H467	0.030500	0.979900	0.738000
H4681	H468	0.064600	0.003400	0.655300
H4691	H469	0.204200	0.086100	0.943500
H4701	H470	0.255100	0.008200	0.914400
H4711	H471	0.227000	0.011500	0.865200
H4721	H472	0.181500	0.089300	0.893000
H4731	H473	0.195600	0.062900	0.623800
H4741	H474	0.230100	0.990500	0.672700
H4751	H475	0.203300	0.095000	0.667900
H4761	H476	0.237700	0.027300	0.715900
H4771	H477	0.925600	0.000700	0.559900
H4781	H478	0.843400	0.974700	0.601900
H4791	H479	0.897800	0.014000	0.514800
H4801	H480	0.817100	0.987900	0.556100
H4811	H481	0.754600	0.676800	0.523600
H4821	H482	0.675300	0.703500	0.473600
H4831	H483	0.756100	0.630000	0.494000
H4841	H484	0.678300	0.653600	0.447900
H4851	H485	0.609200	0.798200	0.668000
H4861	H486	0.691100	0.765500	0.706900
H4871	H487	0.583600	0.784300	0.715400
H4881	H488	0.662200	0.748700	0.751400
H4891	H489	0.821400	0.888000	0.522300
H4901	H490	0.734900	0.929300	0.507600
H4911	H491	0.762000	0.969500	0.479900
H4921	H492	0.844700	0.935400	0.503400
H4931	H493	0.556500	0.795800	0.586100
H4941	H494	0.585600	0.744900	0.508200
H4951	H495	0.634800	0.773000	0.511500
H4961	H496	0.607000	0.818500	0.589300
H4971	H497	0.876200	0.804400	0.562900
H4981	H498	0.827300	0.769900	0.490500
H4991	H499	0.832100	0.796700	0.595000
H5001	H500	0.784100	0.762300	0.527300
H5011	H501	0.940100	0.074400	0.500700
H5021	H502	0.898100	0.156600	0.474700
H5031	H503	0.985200	0.102200	0.514000
H5041	H504	0.943900	0.182900	0.487900
H5051	H505	0.245400	0.176800	0.976400
H5061	H506	0.324700	0.203500	0.026400
H5071	H507	0.243900	0.130000	0.006000
H5081	H508	0.321700	0.153600	0.052100
H5091	H509	0.390800	0.298200	0.832000
H5101	H510	0.308900	0.265500	0.793100
H5111	H511	0.416400	0.284300	0.784600
H5121	H512	0.337800	0.248700	0.748600
H5131	H513	0.178600	0.388000	0.977700
H5141	H514	0.265100	0.429300	0.992400
H5151	H515	0.238000	0.469500	0.020100
H5161	H516	0.155300	0.435400	0.996600
H5171	H517	0.443500	0.295800	0.913900
H5181	H518	0.414400	0.244900	0.991800
H5191	H519	0.365200	0.273000	0.988500
H5201	H520	0.393000	0.318500	0.910700
H5211	H521	0.123800	0.304400	0.937100
H5221	H522	0.172700	0.269900	0.009500
H5231	H523	0.167900	0.296700	0.905000
H5241	H524	0.215900	0.262300	0.972700
H5251	H525	0.059900	0.574400	0.999300
H5261	H526	0.101900	0.656600	0.025300
H5271	H527	0.014800	0.602200	0.986000
H5281	H528	0.056100	0.682900	0.012100
H5291	H529	0.254600	0.823200	0.476400
H5301	H530	0.175300	0.796500	0.526400
H5311	H531	0.256100	0.870000	0.506000
H5321	H532	0.178300	0.846400	0.552100
H5331	H533	0.109200	0.701800	0.332000
H5341	H534	0.191100	0.734500	0.293100
H5351	H535	0.083600	0.715700	0.284600
H5361	H536	0.162200	0.751300	0.248600
H5371	H537	0.321400	0.612000	0.477700
H5381	H538	0.234900	0.570700	0.492400
H5391	H539	0.262000	0.530500	0.520100
H5401	H540	0.344700	0.564600	0.496600
H5411	H541	0.056500	0.704200	0.413900
H5421	H542	0.085600	0.755100	0.491800
H5431	H543	0.134800	0.727000	0.488500
H5441	H544	0.107000	0.681500	0.410700
H5451	H545	0.376200	0.695600	0.437100
H5461	H546	0.327300	0.730100	0.509500
H5471	H547	0.332100	0.703300	0.405000
H5481	H548	0.284100	0.737700	0.472700
H5491	H549	0.440100	0.425600	0.499300
H5501	H550	0.398100	0.343400	0.525300
H5511	H551	0.485200	0.397800	0.486000
H5521	H552	0.443900	0.317100	0.512100
H5531	H553	0.745400	0.323200	0.023600
H5541	H554	0.824700	0.296500	0.973600
H5551	H555	0.743900	0.370000	0.994000
H5561	H556	0.821700	0.346400	0.947900
H5571	H557	0.890800	0.201800	0.168000
H5581	H558	0.808900	0.234500	0.206900
H5591	H559	0.916400	0.215700	0.215400
H5601	H560	0.837800	0.251300	0.251400
H5611	H561	0.678600	0.112000	0.022300
H5621	H562	0.765100	0.070700	0.007600
H5631	H563	0.738000	0.030500	0.979900
H5641	H564	0.655300	0.064600	0.003400
H5651	H565	0.943500	0.204200	0.086100
H5661	H566	0.914400	0.255100	0.008200
H5671	H567	0.865200	0.227000	0.011500
H5681	H568	0.893000	0.181500	0.089300
H5691	H569	0.623800	0.195600	0.062900
H5701	H570	0.672700	0.230100	0.990500
H5711	H571	0.667900	0.203300	0.095000
H5721	H572	0.715900	0.237700	0.027300
H5731	H573	0.559900	0.925600	0.000700
H5741	H574	0.601900	0.843400	0.974700
H5751	H575	0.514800	0.897800	0.014000
H5761	H576	0.556100	0.817100	0.987900
C11	C1	0.479600	0.286400	0.274400
C21	C2	0.498200	0.285200	0.304100
C31	C3	0.492400	0.261200	0.327000
C41	C4	0.521200	0.308000	0.311200
C51	C5	0.510000	0.260800	0.355100
C61	C6	0.536900	0.305500	0.341200
C71	C7	0.347400	0.328800	0.208500
C81	C8	0.318300	0.347000	0.217800
C91	C9	0.315100	0.379000	0.211700
C101	C10	0.292400	0.331500	0.231300
C111	C11	0.286500	0.394100	0.220300
C121	C12	0.265300	0.348900	0.240300
C131	C13	0.464700	0.240400	0.122700
C141	C14	0.480800	0.224400	0.095200
C151	C15	0.483900	0.191600	0.094300
C161	C16	0.493700	0.242300	0.070700
C171	C17	0.508800	0.225700	0.046100
C181	C18	0.496700	0.178100	0.066400
C191	C19	0.452400	0.463800	0.252800
C201	C20	0.451000	0.433600	0.234100
C211	C21	0.428700	0.427300	0.210500
C221	C22	0.475000	0.410500	0.240200
C231	C23	0.472800	0.381300	0.223100
C241	C24	0.427700	0.397700	0.196000
C251	C25	0.496800	0.114200	0.212700
C261	C26	0.476600	0.142600	0.216500
C271	C27	0.445700	0.142400	0.205600
C281	C28	0.487400	0.169800	0.225400
C291	C29	0.427000	0.169700	0.209100
C301	C30	0.464700	0.196700	0.228100
C311	C31	0.524400	0.114700	0.906200
C321	C32	0.514900	0.086400	0.888300
C331	C33	0.502500	0.059600	0.903000
C341	C34	0.517700	0.084000	0.855400
C351	C35	0.494700	0.032500	0.886200
C361	C36	0.509700	0.056600	0.839800
C371	C37	0.020400	0.713600	0.774400
C381	C38	0.001800	0.714800	0.804100
C391	C39	0.007600	0.738800	0.827000
C401	C40	0.978800	0.692000	0.811200
C411	C41	0.990000	0.739200	0.855100
C421	C42	0.963100	0.694500	0.841200
C431	C43	0.152600	0.671200	0.708500
C441	C44	0.181700	0.653000	0.717800
C451	C45	0.184900	0.621000	0.711700
C461	C46	0.207600	0.668500	0.731300
C471	C47	0.213500	0.605900	0.720300
C481	C48	0.234700	0.651100	0.740300
C491	C49	0.035300	0.759600	0.622700
C501	C50	0.019200	0.775600	0.595200
C511	C51	0.016100	0.808400	0.594300
C521	C52	0.006300	0.757700	0.570700
C531	C53	0.991200	0.774300	0.546100
C541	C54	0.003300	0.821900	0.566400
C551	C55	0.047600	0.536200	0.752800
C561	C56	0.049000	0.566400	0.734100
C571	C57	0.071300	0.572700	0.710500
C581	C58	0.025000	0.589500	0.740200
C591	C59	0.027200	0.618700	0.723100
C601	C60	0.072300	0.602300	0.696000
C611	C61	0.003200	0.885800	0.712700
C621	C62	0.023400	0.857400	0.716500
C631	C63	0.054300	0.857600	0.705600
C641	C64	0.012600	0.830200	0.725400
C651	C65	0.073000	0.830300	0.709100
C661	C66	0.035300	0.803300	0.728100
C671	C67	0.975600	0.885300	0.406200
C681	C68	0.985100	0.913600	0.388300
C691	C69	0.997500	0.940400	0.403000
C701	C70	0.982300	0.916000	0.355400
C711	C71	0.005300	0.967500	0.386200
C721	C72	0.990300	0.943400	0.339800
C731	C73	0.520400	0.786400	0.225600
C741	C74	0.501800	0.785200	0.195900
C751	C75	0.507600	0.761200	0.173000
C761	C76	0.478800	0.808000	0.188800
C771	C77	0.490000	0.760800	0.144900
C781	C78	0.463100	0.805500	0.158800
C791	C79	0.652600	0.828800	0.291500
C801	C80	0.681700	0.847000	0.282200
C811	C81	0.684900	0.879000	0.288300
C821	C82	0.707600	0.831500	0.268700
C831	C83	0.713500	0.894100	0.279700
C841	C84	0.734700	0.848900	0.259700
C851	C85	0.535300	0.740400	0.377300
C861	C86	0.519200	0.724400	0.404800
C871	C87	0.516100	0.691600	0.405700
C881	C88	0.506300	0.742300	0.429300
C891	C89	0.491200	0.725700	0.453900
C901	C90	0.503300	0.678100	0.433600
C911	C91	0.547600	0.963800	0.247200
C921	C92	0.549000	0.933600	0.265900
C931	C93	0.571300	0.927300	0.289500
C941	C94	0.525000	0.910500	0.259800
C951	C95	0.527200	0.881300	0.276900
C961	C96	0.572300	0.897700	0.304000
C971	C97	0.503200	0.614200	0.287300
C981	C98	0.523400	0.642600	0.283500
C991	C99	0.554300	0.642400	0.294400
C1001	C100	0.512600	0.669800	0.274600
C1011	C101	0.573000	0.669700	0.290900
C1021	C102	0.535300	0.696700	0.271900
C1031	C103	0.475600	0.614700	0.593800
C1041	C104	0.485100	0.586400	0.611700
C1051	C105	0.497500	0.559600	0.597000
C1061	C106	0.482300	0.584000	0.644600
C1071	C107	0.505300	0.532500	0.613800
C1081	C108	0.490300	0.556600	0.660200
C1091	C109	0.979600	0.213600	0.725600
C1101	C110	0.998200	0.214800	0.695900
C1111	C111	0.992400	0.238800	0.673000
C1121	C112	0.021200	0.192000	0.688800
C1131	C113	0.010000	0.239200	0.644900
C1141	C114	0.036900	0.194500	0.658800
C1151	C115	0.847400	0.171200	0.791500
C1161	C116	0.818300	0.153000	0.782200
C1171	C117	0.815100	0.121000	0.788300
C1181	C118	0.792400	0.168500	0.768700
C1191	C119	0.786500	0.105900	0.779700
C1201	C120	0.765300	0.151100	0.759700
C1211	C121	0.964700	0.259600	0.877300
C1221	C122	0.980800	0.275600	0.904800
C1231	C123	0.983900	0.308400	0.905700
C1241	C124	0.993700	0.257700	0.929300
C1251	C125	0.008800	0.274300	0.953900
C1261	C126	0.996700	0.321900	0.933600
C1271	C127	0.952400	0.036200	0.747200
C1281	C128	0.951000	0.066400	0.765900
C1291	C129	0.928700	0.072700	0.789500
C1301	C130	0.975000	0.089500	0.759800
C1311	C131	0.972800	0.118700	0.776900
C1321	C132	0.927700	0.102300	0.804000
C1331	C133	0.996800	0.385800	0.787300
C1341	C134	0.976600	0.357400	0.783500
C1351	C135	0.945700	0.357600	0.794400
C1361	C136	0.987400	0.330200	0.774600
C1371	C137	0.927000	0.330300	0.790900
C1381	C138	0.964700	0.303300	0.771900
C1391	C139	0.024400	0.385300	0.093800
C1401	C140	0.014900	0.413600	0.111700
C1411	C141	0.002500	0.440400	0.097000
C1421	C142	0.017700	0.416000	0.144600
C1431	C143	0.994700	0.467500	0.113800
C1441	C144	0.009700	0.443400	0.160200
C1451	C145	0.274400	0.479600	0.286400
C1461	C146	0.304100	0.498200	0.285200
C1471	C147	0.327000	0.492400	0.261200
C1481	C148	0.311200	0.521200	0.308000
C1491	C149	0.355100	0.510000	0.260800
C1501	C150	0.341200	0.536900	0.305500
C1511	C151	0.208500	0.347400	0.328800
C1521	C152	0.217800	0.318300	0.347000
C1531	C153	0.211700	0.315100	0.379000
C1541	C154	0.231300	0.292400	0.331500
C1551	C155	0.220300	0.286500	0.394100
C1561	C156	0.240300	0.265300	0.348900
C1571	C157	0.122700	0.464700	0.240400
C1581	C158	0.095200	0.480800	0.224400
C1591	C159	0.094300	0.483900	0.191600
C1601	C160	0.070700	0.493700	0.242300
C1611	C161	0.046100	0.508800	0.225700
C1621	C162	0.066400	0.496700	0.178100
C1631	C163	0.252800	0.452400	0.463800
C1641	C164	0.234100	0.451000	0.433600
C1651	C165	0.210500	0.428700	0.427300
C1661	C166	0.240200	0.475000	0.410500
C1671	C167	0.223100	0.472800	0.381300
C1681	C168	0.196000	0.427700	0.397700
C1691	C169	0.212700	0.496800	0.114200
C1701	C170	0.216500	0.476600	0.142600
C1711	C171	0.205600	0.445700	0.142400
C1721	C172	0.225400	0.487400	0.169800
C1731	C173	0.209100	0.427000	0.169700
C1741	C174	0.228100	0.464700	0.196700
C1751	C175	0.906200	0.524400	0.114700
C1761	C176	0.888300	0.514900	0.086400
C1771	C177	0.903000	0.502500	0.059600
C1781	C178	0.855400	0.517700	0.084000
C1791	C179	0.886200	0.494700	0.032500
C1801	C180	0.839800	0.509700	0.056600
C1811	C181	0.774400	0.020400	0.713600
C1821	C182	0.804100	0.001800	0.714800
C1831	C183	0.827000	0.007600	0.738800
C1841	C184	0.811200	0.978800	0.692000
C1851	C185	0.855100	0.990000	0.739200
C1861	C186	0.841200	0.963100	0.694500
C1871	C187	0.708500	0.152600	0.671200
C1881	C188	0.717800	0.181700	0.653000
C1891	C189	0.711700	0.184900	0.621000
C1901	C190	0.731300	0.207600	0.668500
C1911	C191	0.720300	0.213500	0.605900
C1921	C192	0.740300	0.234700	0.651100
C1931	C193	0.622700	0.035300	0.759600
C1941	C194	0.595200	0.019200	0.775600
C1951	C195	0.594300	0.016100	0.808400
C1961	C196	0.570700	0.006300	0.757700
C1971	C197	0.546100	0.991200	0.774300
C1981	C198	0.566400	0.003300	0.821900
C1991	C199	0.752800	0.047600	0.536200
C2001	C200	0.734100	0.049000	0.566400
C2011	C201	0.710500	0.071300	0.572700
C2021	C202	0.740200	0.025000	0.589500
C2031	C203	0.723100	0.027200	0.618700
C2041	C204	0.696000	0.072300	0.602300
C2051	C205	0.712700	0.003200	0.885800
C2061	C206	0.716500	0.023400	0.857400
C2071	C207	0.705600	0.054300	0.857600
C2081	C208	0.725400	0.012600	0.830200
C2091	C209	0.709100	0.073000	0.830300
C2101	C210	0.728100	0.035300	0.803300
C2111	C211	0.406200	0.975600	0.885300
C2121	C212	0.388300	0.985100	0.913600
C2131	C213	0.403000	0.997500	0.940400
C2141	C214	0.355400	0.982300	0.916000
C2151	C215	0.386200	0.005300	0.967500
C2161	C216	0.339800	0.990300	0.943400
C2171	C217	0.225600	0.520400	0.786400
C2181	C218	0.195900	0.501800	0.785200
C2191	C219	0.173000	0.507600	0.761200
C2201	C220	0.188800	0.478800	0.808000
C2211	C221	0.144900	0.490000	0.760800
C2221	C222	0.158800	0.463100	0.805500
C2231	C223	0.291500	0.652600	0.828800
C2241	C224	0.282200	0.681700	0.847000
C2251	C225	0.288300	0.684900	0.879000
C2261	C226	0.268700	0.707600	0.831500
C2271	C227	0.279700	0.713500	0.894100
C2281	C228	0.259700	0.734700	0.848900
C2291	C229	0.377300	0.535300	0.740400
C2301	C230	0.404800	0.519200	0.724400
C2311	C231	0.405700	0.516100	0.691600
C2321	C232	0.429300	0.506300	0.742300
C2331	C233	0.453900	0.491200	0.725700
C2341	C234	0.433600	0.503300	0.678100
C2351	C235	0.247200	0.547600	0.963800
C2361	C236	0.265900	0.549000	0.933600
C2371	C237	0.289500	0.571300	0.927300
C2381	C238	0.259800	0.525000	0.910500
C2391	C239	0.276900	0.527200	0.881300
C2401	C240	0.304000	0.572300	0.897700
C2411	C241	0.287300	0.503200	0.614200
C2421	C242	0.283500	0.523400	0.642600
C2431	C243	0.294400	0.554300	0.642400
C2441	C244	0.274600	0.512600	0.669800
C2451	C245	0.290900	0.573000	0.669700
C2461	C246	0.271900	0.535300	0.696700
C2471	C247	0.593800	0.475600	0.614700
C2481	C248	0.611700	0.485100	0.586400
C2491	C249	0.597000	0.497500	0.559600
C2501	C250	0.644600	0.482300	0.584000
C2511	C251	0.613800	0.505300	0.532500
C2521	C252	0.660200	0.490300	0.556600
C2531	C253	0.725600	0.979600	0.213600
C2541	C254	0.695900	0.998200	0.214800
C2551	C255	0.673000	0.992400	0.238800
C2561	C256	0.688800	0.021200	0.192000
C2571	C257	0.644900	0.010000	0.239200
C2581	C258	0.658800	0.036900	0.194500
C2591	C259	0.791500	0.847400	0.171200
C2601	C260	0.782200	0.818300	0.153000
C2611	C261	0.788300	0.815100	0.121000
C2621	C262	0.768700	0.792400	0.168500
C2631	C263	0.779700	0.786500	0.105900
C2641	C264	0.759700	0.765300	0.151100
C2651	C265	0.877300	0.964700	0.259600
C2661	C266	0.904800	0.980800	0.275600
C2671	C267	0.905700	0.983900	0.308400
C2681	C268	0.929300	0.993700	0.257700
C2691	C269	0.953900	0.008800	0.274300
C2701	C270	0.933600	0.996700	0.321900
C2711	C271	0.747200	0.952400	0.036200
C2721	C272	0.765900	0.951000	0.066400
C2731	C273	0.789500	0.928700	0.072700
C2741	C274	0.759800	0.975000	0.089500
C2751	C275	0.776900	0.972800	0.118700
C2761	C276	0.804000	0.927700	0.102300
C2771	C277	0.787300	0.996800	0.385800
C2781	C278	0.783500	0.976600	0.357400
C2791	C279	0.794400	0.945700	0.357600
C2801	C280	0.774600	0.987400	0.330200
C2811	C281	0.790900	0.927000	0.330300
C2821	C282	0.771900	0.964700	0.303300
C2831	C283	0.093800	0.024400	0.385300
C2841	C284	0.111700	0.014900	0.413600
C2851	C285	0.097000	0.002500	0.440400
C2861	C286	0.144600	0.017700	0.416000
C2871	C287	0.113800	0.994700	0.467500
C2881	C288	0.160200	0.009700	0.443400
C2891	C289	0.286400	0.274400	0.479600
C2901	C290	0.285200	0.304100	0.498200
C2911	C291	0.261200	0.327000	0.492400
C2921	C292	0.308000	0.311200	0.521200
C2931	C293	0.260800	0.355100	0.510000
C2941	C294	0.305500	0.341200	0.536900
C2951	C295	0.328800	0.208500	0.347400
C2961	C296	0.347000	0.217800	0.318300
C2971	C297	0.379000	0.211700	0.315100
C2981	C298	0.331500	0.231300	0.292400
C2991	C299	0.394100	0.220300	0.286500
C3001	C300	0.348900	0.240300	0.265300
C3011	C301	0.240400	0.122700	0.464700
C3021	C302	0.224400	0.095200	0.480800
C3031	C303	0.191600	0.094300	0.483900
C3041	C304	0.242300	0.070700	0.493700
C3051	C305	0.225700	0.046100	0.508800
C3061	C306	0.178100	0.066400	0.496700
C3071	C307	0.463800	0.252800	0.452400
C3081	C308	0.433600	0.234100	0.451000
C3091	C309	0.427300	0.210500	0.428700
C3101	C310	0.410500	0.240200	0.475000
C3111	C311	0.381300	0.223100	0.472800
C3121	C312	0.397700	0.196000	0.427700
C3131	C313	0.114200	0.212700	0.496800
C3141	C314	0.142600	0.216500	0.476600
C3151	C315	0.142400	0.205600	0.445700
C3161	C316	0.169800	0.225400	0.487400
C3171	C317	0.169700	0.209100	0.427000
C3181	C318	0.196700	0.228100	0.464700
C3191	C319	0.114700	0.906200	0.524400
C3201	C320	0.086400	0.888300	0.514900
C3211	C321	0.059600	0.903000	0.502500
C3221	C322	0.084000	0.855400	0.517700
C3231	C323	0.032500	0.886200	0.494700
C3241	C324	0.056600	0.839800	0.509700
C3251	C325	0.713600	0.774400	0.020400
C3261	C326	0.714800	0.804100	0.001800
C3271	C327	0.738800	0.827000	0.007600
C3281	C328	0.692000	0.811200	0.978800
C3291	C329	0.739200	0.855100	0.990000
C3301	C330	0.694500	0.841200	0.963100
C3311	C331	0.671200	0.708500	0.152600
C3321	C332	0.653000	0.717800	0.181700
C3331	C333	0.621000	0.711700	0.184900
C3341	C334	0.668500	0.731300	0.207600
C3351	C335	0.605900	0.720300	0.213500
C3361	C336	0.651100	0.740300	0.234700
C3371	C337	0.759600	0.622700	0.035300
C3381	C338	0.775600	0.595200	0.019200
C3391	C339	0.808400	0.594300	0.016100
C3401	C340	0.757700	0.570700	0.006300
C3411	C341	0.774300	0.546100	0.991200
C3421	C342	0.821900	0.566400	0.003300
C3431	C343	0.536200	0.752800	0.047600
C3441	C344	0.566400	0.734100	0.049000
C3451	C345	0.572700	0.710500	0.071300
C3461	C346	0.589500	0.740200	0.025000
C3471	C347	0.618700	0.723100	0.027200
C3481	C348	0.602300	0.696000	0.072300
C3491	C349	0.885800	0.712700	0.003200
C3501	C350	0.857400	0.716500	0.023400
C3511	C351	0.857600	0.705600	0.054300
C3521	C352	0.830200	0.725400	0.012600
C3531	C353	0.830300	0.709100	0.073000
C3541	C354	0.803300	0.728100	0.035300
C3551	C355	0.885300	0.406200	0.975600
C3561	C356	0.913600	0.388300	0.985100
C3571	C357	0.940400	0.403000	0.997500
C3581	C358	0.916000	0.355400	0.982300
C3591	C359	0.967500	0.386200	0.005300
C3601	C360	0.943400	0.339800	0.990300
C3611	C361	0.786400	0.225600	0.520400
C3621	C362	0.785200	0.195900	0.501800
C3631	C363	0.761200	0.173000	0.507600
C3641	C364	0.808000	0.188800	0.478800
C3651	C365	0.760800	0.144900	0.490000
C3661	C366	0.805500	0.158800	0.463100
C3671	C367	0.828800	0.291500	0.652600
C3681	C368	0.847000	0.282200	0.681700
C3691	C369	0.879000	0.288300	0.684900
C3701	C370	0.831500	0.268700	0.707600
C3711	C371	0.894100	0.279700	0.713500
C3721	C372	0.848900	0.259700	0.734700
C3731	C373	0.740400	0.377300	0.535300
C3741	C374	0.724400	0.404800	0.519200
C3751	C375	0.691600	0.405700	0.516100
C3761	C376	0.742300	0.429300	0.506300
C3771	C377	0.725700	0.453900	0.491200
C3781	C378	0.678100	0.433600	0.503300
C3791	C379	0.963800	0.247200	0.547600
C3801	C380	0.933600	0.265900	0.549000
C3811	C381	0.927300	0.289500	0.571300
C3821	C382	0.910500	0.259800	0.525000
C3831	C383	0.881300	0.276900	0.527200
C3841	C384	0.897700	0.304000	0.572300
C3851	C385	0.614200	0.287300	0.503200
C3861	C386	0.642600	0.283500	0.523400
C3871	C387	0.642400	0.294400	0.554300
C3881	C388	0.669800	0.274600	0.512600
C3891	C389	0.669700	0.290900	0.573000
C3901	C390	0.696700	0.271900	0.535300
C3911	C391	0.614700	0.593800	0.475600
C3921	C392	0.586400	0.611700	0.485100
C3931	C393	0.559600	0.597000	0.497500
C3941	C394	0.584000	0.644600	0.482300
C3951	C395	0.532500	0.613800	0.505300
C3961	C396	0.556600	0.660200	0.490300
C3971	C397	0.213600	0.725600	0.979600
C3981	C398	0.214800	0.695900	0.998200
C3991	C399	0.238800	0.673000	0.992400
C4001	C400	0.192000	0.688800	0.021200
C4011	C401	0.239200	0.644900	0.010000
C4021	C402	0.194500	0.658800	0.036900
C4031	C403	0.171200	0.791500	0.847400
C4041	C404	0.153000	0.782200	0.818300
C4051	C405	0.121000	0.788300	0.815100
C4061	C406	0.168500	0.768700	0.792400
C4071	C407	0.105900	0.779700	0.786500
C4081	C408	0.151100	0.759700	0.765300
C4091	C409	0.259600	0.877300	0.964700
C4101	C410	0.275600	0.904800	0.980800
C4111	C411	0.308400	0.905700	0.983900
C4121	C412	0.257700	0.929300	0.993700
C4131	C413	0.274300	0.953900	0.008800
C4141	C414	0.321900	0.933600	0.996700
C4151	C415	0.036200	0.747200	0.952400
C4161	C416	0.066400	0.765900	0.951000
C4171	C417	0.072700	0.789500	0.928700
C4181	C418	0.089500	0.759800	0.975000
C4191	C419	0.118700	0.776900	0.972800
C4201	C420	0.102300	0.804000	0.927700
C4211	C421	0.385800	0.787300	0.996800
C4221	C422	0.357400	0.783500	0.976600
C4231	C423	0.357600	0.794400	0.945700
C4241	C424	0.330200	0.774600	0.987400
C4251	C425	0.330300	0.790900	0.927000
C4261	C426	0.303300	0.771900	0.964700
C4271	C427	0.385300	0.093800	0.024400
C4281	C428	0.413600	0.111700	0.014900
C4291	C429	0.440400	0.097000	0.002500
C4301	C430	0.416000	0.144600	0.017700
C4311	C431	0.467500	0.113800	0.994700
C4321	C432	0.443400	0.160200	0.009700
C4331	C433	0.520400	0.713600	0.725600
C4341	C434	0.501800	0.714800	0.695900
C4351	C435	0.507600	0.738800	0.673000
C4361	C436	0.478800	0.692000	0.688800
C4371	C437	0.490000	0.739200	0.644900
C4381	C438	0.463100	0.694500	0.658800
C4391	C439	0.652600	0.671200	0.791500
C4401	C440	0.681700	0.653000	0.782200
C4411	C441	0.684900	0.621000	0.788300
C4421	C442	0.707600	0.668500	0.768700
C4431	C443	0.713500	0.605900	0.779700
C4441	C444	0.734700	0.651100	0.759700
C4451	C445	0.535300	0.759600	0.877300
C4461	C446	0.519200	0.775600	0.904800
C4471	C447	0.516100	0.808400	0.905700
C4481	C448	0.506300	0.757700	0.929300
C4491	C449	0.491200	0.774300	0.953900
C4501	C450	0.503300	0.821900	0.933600
C4511	C451	0.547600	0.536200	0.747200
C4521	C452	0.549000	0.566400	0.765900
C4531	C453	0.571300	0.572700	0.789500
C4541	C454	0.525000	0.589500	0.759800
C4551	C455	0.527200	0.618700	0.776900
C4561	C456	0.572300	0.602300	0.804000
C4571	C457	0.503200	0.885800	0.787300
C4581	C458	0.523400	0.857400	0.783500
C4591	C459	0.554300	0.857600	0.794400
C4601	C460	0.512600	0.830200	0.774600
C4611	C461	0.573000	0.830300	0.790900
C4621	C462	0.535300	0.803300	0.771900
C4631	C463	0.475600	0.885300	0.093800
C4641	C464	0.485100	0.913600	0.111700
C4651	C465	0.497500	0.940400	0.097000
C4661	C466	0.482300	0.916000	0.144600
C4671	C467	0.505300	0.967500	0.113800
C4681	C468	0.490300	0.943400	0.160200
C4691	C469	0.979600	0.286400	0.225600
C4701	C470	0.998200	0.285200	0.195900
C4711	C471	0.992400	0.261200	0.173000
C4721	C472	0.021200	0.308000	0.188800
C4731	C473	0.010000	0.260800	0.144900
C4741	C474	0.036900	0.305500	0.158800
C4751	C475	0.847400	0.328800	0.291500
C4761	C476	0.818300	0.347000	0.282200
C4771	C477	0.815100	0.379000	0.288300
C4781	C478	0.792400	0.331500	0.268700
C4791	C479	0.786500	0.394100	0.279700
C4801	C480	0.765300	0.348900	0.259700
C4811	C481	0.964700	0.240400	0.377300
C4821	C482	0.980800	0.224400	0.404800
C4831	C483	0.983900	0.191600	0.405700
C4841	C484	0.993700	0.242300	0.429300
C4851	C485	0.008800	0.225700	0.453900
C4861	C486	0.996700	0.178100	0.433600
C4871	C487	0.952400	0.463800	0.247200
C4881	C488	0.951000	0.433600	0.265900
C4891	C489	0.928700	0.427300	0.289500
C4901	C490	0.975000	0.410500	0.259800
C4911	C491	0.972800	0.381300	0.276900
C4921	C492	0.927700	0.397700	0.304000
C4931	C493	0.996800	0.114200	0.287300
C4941	C494	0.976600	0.142600	0.283500
C4951	C495	0.945700	0.142400	0.294400
C4961	C496	0.987400	0.169800	0.274600
C4971	C497	0.927000	0.169700	0.290900
C4981	C498	0.964700	0.196700	0.271900
C4991	C499	0.024400	0.114700	0.593800
C5001	C500	0.014900	0.086400	0.611700
C5011	C501	0.002500	0.059600	0.597000
C5021	C502	0.017700	0.084000	0.644600
C5031	C503	0.994700	0.032500	0.613800
C5041	C504	0.009700	0.056600	0.660200
C5051	C505	0.479600	0.213600	0.774400
C5061	C506	0.498200	0.214800	0.804100
C5071	C507	0.492400	0.238800	0.827000
C5081	C508	0.521200	0.192000	0.811200
C5091	C509	0.510000	0.239200	0.855100
C5101	C510	0.536900	0.194500	0.841200
C5111	C511	0.347400	0.171200	0.708500
C5121	C512	0.318300	0.153000	0.717800
C5131	C513	0.315100	0.121000	0.711700
C5141	C514	0.292400	0.168500	0.731300
C5151	C515	0.286500	0.105900	0.720300
C5161	C516	0.265300	0.151100	0.740300
C5171	C517	0.464700	0.259600	0.622700
C5181	C518	0.480800	0.275600	0.595200
C5191	C519	0.483900	0.308400	0.594300
C5201	C520	0.493700	0.257700	0.570700
C5211	C521	0.508800	0.274300	0.546100
C5221	C522	0.496700	0.321900	0.566400
C5231	C523	0.452400	0.036200	0.752800
C5241	C524	0.451000	0.066400	0.734100
C5251	C525	0.428700	0.072700	0.710500
C5261	C526	0.475000	0.089500	0.740200
C5271	C527	0.472800	0.118700	0.723100
C5281	C528	0.427700	0.102300	0.696000
C5291	C529	0.496800	0.385800	0.712700
C5301	C530	0.476600	0.357400	0.716500
C5311	C531	0.445700	0.357600	0.705600
C5321	C532	0.487400	0.330200	0.725400
C5331	C533	0.427000	0.330300	0.709100
C5341	C534	0.464700	0.303300	0.728100
C5351	C535	0.524400	0.385300	0.406200
C5361	C536	0.514900	0.413600	0.388300
C5371	C537	0.502500	0.440400	0.403000
C5381	C538	0.517700	0.416000	0.355400
C5391	C539	0.494700	0.467500	0.386200
C5401	C540	0.509700	0.443400	0.339800
C5411	C541	0.020400	0.786400	0.274400
C5421	C542	0.001800	0.785200	0.304100
C5431	C543	0.007600	0.761200	0.327000
C5441	C544	0.978800	0.808000	0.311200
C5451	C545	0.990000	0.760800	0.355100
C5461	C546	0.963100	0.805500	0.341200
C5471	C547	0.152600	0.828800	0.208500
C5481	C548	0.181700	0.847000	0.217800
C5491	C549	0.184900	0.879000	0.211700
C5501	C550	0.207600	0.831500	0.231300
C5511	C551	0.213500	0.894100	0.220300
C5521	C552	0.234700	0.848900	0.240300
C5531	C553	0.035300	0.740400	0.122700
C5541	C554	0.019200	0.724400	0.095200
C5551	C555	0.016100	0.691600	0.094300
C5561	C556	0.006300	0.742300	0.070700
C5571	C557	0.991200	0.725700	0.046100
C5581	C558	0.003300	0.678100	0.066400
C5591	C559	0.047600	0.963800	0.252800
C5601	C560	0.049000	0.933600	0.234100
C5611	C561	0.071300	0.927300	0.210500
C5621	C562	0.025000	0.910500	0.240200
C5631	C563	0.027200	0.881300	0.223100
C5641	C564	0.072300	0.897700	0.196000
C5651	C565	0.003200	0.614200	0.212700
C5661	C566	0.023400	0.642600	0.216500
C5671	C567	0.054300	0.642400	0.205600
C5681	C568	0.012600	0.669800	0.225400
C5691	C569	0.073000	0.669700	0.209100
C5701	C570	0.035300	0.696700	0.228100
C5711	C571	0.975600	0.614700	0.906200
C5721	C572	0.985100	0.586400	0.888300
C5731	C573	0.997500	0.559600	0.903000
C5741	C574	0.982300	0.584000	0.855400
C5751	C575	0.005300	0.532500	0.886200
C5761	C576	0.990300	0.556600	0.839800
C5771	C577	0.725600	0.520400	0.713600
C5781	C578	0.695900	0.501800	0.714800
C5791	C579	0.673000	0.507600	0.738800
C5801	C580	0.688800	0.478800	0.692000
C5811	C581	0.644900	0.490000	0.739200
C5821	C582	0.658800	0.463100	0.694500
C5831	C583	0.791500	0.652600	0.671200
C5841	C584	0.782200	0.681700	0.653000
C5851	C585	0.788300	0.684900	0.621000
C5861	C586	0.768700	0.707600	0.668500
C5871	C587	0.779700	0.713500	0.605900
C5881	C588	0.759700	0.734700	0.651100
C5891	C589	0.877300	0.535300	0.759600
C5901	C590	0.904800	0.519200	0.775600
C5911	C591	0.905700	0.516100	0.808400
C5921	C592	0.929300	0.506300	0.757700
C5931	C593	0.953900	0.491200	0.774300
C5941	C594	0.933600	0.503300	0.821900
C5951	C595	0.747200	0.547600	0.536200
C5961	C596	0.765900	0.549000	0.566400
C5971	C597	0.789500	0.571300	0.572700
C5981	C598	0.759800	0.525000	0.589500
C5991	C599	0.776900	0.527200	0.618700
C6001	C600	0.804000	0.572300	0.602300
C6011	C601	0.787300	0.503200	0.885800
C6021	C602	0.783500	0.523400	0.857400
C6031	C603	0.794400	0.554300	0.857600
C6041	C604	0.774600	0.512600	0.830200
C6051	C605	0.790900	0.573000	0.830300
C6061	C606	0.771900	0.535300	0.803300
C6071	C607	0.093800	0.475600	0.885300
C6081	C608	0.111700	0.485100	0.913600
C6091	C609	0.097000	0.497500	0.940400
C6101	C610	0.144600	0.482300	0.916000
C6111	C611	0.113800	0.505300	0.967500
C6121	C612	0.160200	0.490300	0.943400
C6131	C613	0.225600	0.979600	0.286400
C6141	C614	0.195900	0.998200	0.285200
C6151	C615	0.173000	0.992400	0.261200
C6161	C616	0.188800	0.021200	0.308000
C6171	C617	0.144900	0.010000	0.260800
C6181	C618	0.158800	0.036900	0.305500
C6191	C619	0.291500	0.847400	0.328800
C6201	C620	0.282200	0.818300	0.347000
C6211	C621	0.288300	0.815100	0.379000
C6221	C622	0.268700	0.792400	0.331500
C6231	C623	0.279700	0.786500	0.394100
C6241	C624	0.259700	0.765300	0.348900
C6251	C625	0.377300	0.964700	0.240400
C6261	C626	0.404800	0.980800	0.224400
C6271	C627	0.405700	0.983900	0.191600
C6281	C628	0.429300	0.993700	0.242300
C6291	C629	0.453900	0.008800	0.225700
C6301	C630	0.433600	0.996700	0.178100
C6311	C631	0.247200	0.952400	0.463800
C6321	C632	0.265900	0.951000	0.433600
C6331	C633	0.289500	0.928700	0.427300
C6341	C634	0.259800	0.975000	0.410500
C6351	C635	0.276900	0.972800	0.381300
C6361	C636	0.304000	0.927700	0.397700
C6371	C637	0.287300	0.996800	0.114200
C6381	C638	0.283500	0.976600	0.142600
C6391	C639	0.294400	0.945700	0.142400
C6401	C640	0.274600	0.987400	0.169800
C6411	C641	0.290900	0.927000	0.169700
C6421	C642	0.271900	0.964700	0.196700
C6431	C643	0.593800	0.024400	0.114700
C6441	C644	0.611700	0.014900	0.086400
C6451	C645	0.597000	0.002500	0.059600
C6461	C646	0.644600	0.017700	0.084000
C6471	C647	0.613800	0.994700	0.032500
C6481	C648	0.660200	0.009700	0.056600
C6491	C649	0.774400	0.479600	0.213600
C6501	C650	0.804100	0.498200	0.214800
C6511	C651	0.827000	0.492400	0.238800
C6521	C652	0.811200	0.521200	0.192000
C6531	C653	0.855100	0.510000	0.239200
C6541	C654	0.841200	0.536900	0.194500
C6551	C655	0.708500	0.347400	0.171200
C6561	C656	0.717800	0.318300	0.153000
C6571	C657	0.711700	0.315100	0.121000
C6581	C658	0.731300	0.292400	0.168500
C6591	C659	0.720300	0.286500	0.105900
C6601	C660	0.740300	0.265300	0.151100
C6611	C661	0.622700	0.464700	0.259600
C6621	C662	0.595200	0.480800	0.275600
C6631	C663	0.594300	0.483900	0.308400
C6641	C664	0.570700	0.493700	0.257700
C6651	C665	0.546100	0.508800	0.274300
C6661	C666	0.566400	0.496700	0.321900
C6671	C667	0.752800	0.452400	0.036200
C6681	C668	0.734100	0.451000	0.066400
C6691	C669	0.710500	0.428700	0.072700
C6701	C670	0.740200	0.475000	0.089500
C6711	C671	0.723100	0.472800	0.118700
C6721	C672	0.696000	0.427700	0.102300
C6731	C673	0.712700	0.496800	0.385800
C6741	C674	0.716500	0.476600	0.357400
C6751	C675	0.705600	0.445700	0.357600
C6761	C676	0.725400	0.487400	0.330200
C6771	C677	0.709100	0.427000	0.330300
C6781	C678	0.728100	0.464700	0.303300
C6791	C679	0.406200	0.524400	0.385300
C6801	C680	0.388300	0.514900	0.413600
C6811	C681	0.403000	0.502500	0.440400
C6821	C682	0.355400	0.517700	0.416000
C6831	C683	0.386200	0.494700	0.467500
C6841	C684	0.339800	0.509700	0.443400
C6851	C685	0.274400	0.020400	0.786400
C6861	C686	0.304100	0.001800	0.785200
C6871	C687	0.327000	0.007600	0.761200
C6881	C688	0.311200	0.978800	0.808000
C6891	C689	0.355100	0.990000	0.760800
C6901	C690	0.341200	0.963100	0.805500
C6911	C691	0.208500	0.152600	0.828800
C6921	C692	0.217800	0.181700	0.847000
C6931	C693	0.211700	0.184900	0.879000
C6941	C694	0.231300	0.207600	0.831500
C6951	C695	0.220300	0.213500	0.894100
C6961	C696	0.240300	0.234700	0.848900
C6971	C697	0.122700	0.035300	0.740400
C6981	C698	0.095200	0.019200	0.724400
C6991	C699	0.094300	0.016100	0.691600
C7001	C700	0.070700	0.006300	0.742300
C7011	C701	0.046100	0.991200	0.725700
C7021	C702	0.066400	0.003300	0.678100
C7031	C703	0.252800	0.047600	0.963800
C7041	C704	0.234100	0.049000	0.933600
C7051	C705	0.210500	0.071300	0.927300
C7061	C706	0.240200	0.025000	0.910500
C7071	C707	0.223100	0.027200	0.881300
C7081	C708	0.196000	0.072300	0.897700
C7091	C709	0.212700	0.003200	0.614200
C7101	C710	0.216500	0.023400	0.642600
C7111	C711	0.205600	0.054300	0.642400
C7121	C712	0.225400	0.012600	0.669800
C7131	C713	0.209100	0.073000	0.669700
C7141	C714	0.228100	0.035300	0.696700
C7151	C715	0.906200	0.975600	0.614700
C7161	C716	0.888300	0.985100	0.586400
C7171	C717	0.903000	0.997500	0.559600
C7181	C718	0.855400	0.982300	0.584000
C7191	C719	0.886200	0.005300	0.532500
C7201	C720	0.839800	0.990300	0.556600
C7211	C721	0.713600	0.725600	0.520400
C7221	C722	0.714800	0.695900	0.501800
C7231	C723	0.738800	0.673000	0.507600
C7241	C724	0.692000	0.688800	0.478800
C7251	C725	0.739200	0.644900	0.490000
C7261	C726	0.694500	0.658800	0.463100
C7271	C727	0.671200	0.791500	0.652600
C7281	C728	0.653000	0.782200	0.681700
C7291	C729	0.621000	0.788300	0.684900
C7301	C730	0.668500	0.768700	0.707600
C7311	C731	0.605900	0.779700	0.713500
C7321	C732	0.651100	0.759700	0.734700
C7331	C733	0.759600	0.877300	0.535300
C7341	C734	0.775600	0.904800	0.519200
C7351	C735	0.808400	0.905700	0.516100
C7361	C736	0.757700	0.929300	0.506300
C7371	C737	0.774300	0.953900	0.491200
C7381	C738	0.821900	0.933600	0.503300
C7391	C739	0.536200	0.747200	0.547600
C7401	C740	0.566400	0.765900	0.549000
C7411	C741	0.572700	0.789500	0.571300
C7421	C742	0.589500	0.759800	0.525000
C7431	C743	0.618700	0.776900	0.527200
C7441	C744	0.602300	0.804000	0.572300
C7451	C745	0.885800	0.787300	0.503200
C7461	C746	0.857400	0.783500	0.523400
C7471	C747	0.857600	0.794400	0.554300
C7481	C748	0.830200	0.774600	0.512600
C7491	C749	0.830300	0.790900	0.573000
C7501	C750	0.803300	0.771900	0.535300
C7511	C751	0.885300	0.093800	0.475600
C7521	C752	0.913600	0.111700	0.485100
C7531	C753	0.940400	0.097000	0.497500
C7541	C754	0.916000	0.144600	0.482300
C7551	C755	0.967500	0.113800	0.505300
C7561	C756	0.943400	0.160200	0.490300
C7571	C757	0.286400	0.225600	0.979600
C7581	C758	0.285200	0.195900	0.998200
C7591	C759	0.261200	0.173000	0.992400
C7601	C760	0.308000	0.188800	0.021200
C7611	C761	0.260800	0.144900	0.010000
C7621	C762	0.305500	0.158800	0.036900
C7631	C763	0.328800	0.291500	0.847400
C7641	C764	0.347000	0.282200	0.818300
C7651	C765	0.379000	0.288300	0.815100
C7661	C766	0.331500	0.268700	0.792400
C7671	C767	0.394100	0.279700	0.786500
C7681	C768	0.348900	0.259700	0.765300
C7691	C769	0.240400	0.377300	0.964700
C7701	C770	0.224400	0.404800	0.980800
C7711	C771	0.191600	0.405700	0.983900
C7721	C772	0.242300	0.429300	0.993700
C7731	C773	0.225700	0.453900	0.008800
C7741	C774	0.178100	0.433600	0.996700
C7751	C775	0.463800	0.247200	0.952400
C7761	C776	0.433600	0.265900	0.951000
C7771	C777	0.427300	0.289500	0.928700
C7781	C778	0.410500	0.259800	0.975000
C7791	C779	0.381300	0.276900	0.972800
C7801	C780	0.397700	0.304000	0.927700
C7811	C781	0.114200	0.287300	0.996800
C7821	C782	0.142600	0.283500	0.976600
C7831	C783	0.142400	0.294400	0.945700
C7841	C784	0.169800	0.274600	0.987400
C7851	C785	0.169700	0.290900	0.927000
C7861	C786	0.196700	0.271900	0.964700
C7871	C787	0.114700	0.593800	0.024400
C7881	C788	0.086400	0.611700	0.014900
C7891	C789	0.059600	0.597000	0.002500
C7901	C790	0.084000	0.644600	0.017700
C7911	C791	0.032500	0.613800	0.994700
C7921	C792	0.056600	0.660200	0.009700
C7931	C793	0.213600	0.774400	0.479600
C7941	C794	0.214800	0.804100	0.498200
C7951	C795	0.238800	0.827000	0.492400
C7961	C796	0.192000	0.811200	0.521200
C7971	C797	0.239200	0.855100	0.510000
C7981	C798	0.194500	0.841200	0.536900
C7991	C799	0.171200	0.708500	0.347400
C8001	C800	0.153000	0.717800	0.318300
C8011	C801	0.121000	0.711700	0.315100
C8021	C802	0.168500	0.731300	0.292400
C8031	C803	0.105900	0.720300	0.286500
C8041	C804	0.151100	0.740300	0.265300
C8051	C805	0.259600	0.622700	0.464700
C8061	C806	0.275600	0.595200	0.480800
C8071	C807	0.308400	0.594300	0.483900
C8081	C808	0.257700	0.570700	0.493700
C8091	C809	0.274300	0.546100	0.508800
C8101	C810	0.321900	0.566400	0.496700
C8111	C811	0.036200	0.752800	0.452400
C8121	C812	0.066400	0.734100	0.451000
C8131	C813	0.072700	0.710500	0.428700
C8141	C814	0.089500	0.740200	0.475000
C8151	C815	0.118700	0.723100	0.472800
C8161	C816	0.102300	0.696000	0.427700
C8171	C817	0.385800	0.712700	0.496800
C8181	C818	0.357400	0.716500	0.476600
C8191	C819	0.357600	0.705600	0.445700
C8201	C820	0.330200	0.725400	0.487400
C8211	C821	0.330300	0.709100	0.427000
C8221	C822	0.303300	0.728100	0.464700
C8231	C823	0.385300	0.406200	0.524400
C8241	C824	0.413600	0.388300	0.514900
C8251	C825	0.440400	0.403000	0.502500
C8261	C826	0.416000	0.355400	0.517700
C8271	C827	0.467500	0.386200	0.494700
C8281	C828	0.443400	0.339800	0.509700
C8291	C829	0.786400	0.274400	0.020400
C8301	C830	0.785200	0.304100	0.001800
C8311	C831	0.761200	0.327000	0.007600
C8321	C832	0.808000	0.311200	0.978800
C8331	C833	0.760800	0.355100	0.990000
C8341	C834	0.805500	0.341200	0.963100
C8351	C835	0.828800	0.208500	0.152600
C8361	C836	0.847000	0.217800	0.181700
C8371	C837	0.879000	0.211700	0.184900
C8381	C838	0.831500	0.231300	0.207600
C8391	C839	0.894100	0.220300	0.213500
C8401	C840	0.848900	0.240300	0.234700
C8411	C841	0.740400	0.122700	0.035300
C8421	C842	0.724400	0.095200	0.019200
C8431	C843	0.691600	0.094300	0.016100
C8441	C844	0.742300	0.070700	0.006300
C8451	C845	0.725700	0.046100	0.991200
C8461	C846	0.678100	0.066400	0.003300
C8471	C847	0.963800	0.252800	0.047600
C8481	C848	0.933600	0.234100	0.049000
C8491	C849	0.927300	0.210500	0.071300
C8501	C850	0.910500	0.240200	0.025000
C8511	C851	0.881300	0.223100	0.027200
C8521	C852	0.897700	0.196000	0.072300
C8531	C853	0.614200	0.212700	0.003200
C8541	C854	0.642600	0.216500	0.023400
C8551	C855	0.642400	0.205600	0.054300
C8561	C856	0.669800	0.225400	0.012600
C8571	C857	0.669700	0.209100	0.073000
C8581	C858	0.696700	0.228100	0.035300
C8591	C859	0.614700	0.906200	0.975600
C8601	C860	0.586400	0.888300	0.985100
C8611	C861	0.559600	0.903000	0.997500
C8621	C862	0.584000	0.855400	0.982300
C8631	C863	0.532500	0.886200	0.005300
C8641	C864	0.556600	0.839800	0.990300
N11	N1	0.461400	0.299600	0.229100
N21	N2	0.482600	0.308800	0.251600
N31	N3	0.446000	0.273100	0.238500
N41	N4	0.457500	0.264200	0.267090
N51	N5	0.532200	0.282600	0.362600
N61	N6	0.394200	0.318700	0.193200
N71	N7	0.373700	0.343500	0.195900
N81	N8	0.381000	0.291400	0.202500
N91	N9	0.350600	0.297200	0.212800
N101	N10	0.261300	0.379900	0.234500
N111	N11	0.437700	0.249000	0.164800
N121	N12	0.446700	0.226000	0.144400
N131	N13	0.450100	0.277600	0.154400
N141	N14	0.467000	0.272300	0.127800
N151	N15	0.508700	0.194600	0.042900
N161	N16	0.465300	0.498900	0.286200
N171	N17	0.439700	0.509400	0.271300
N181	N18	0.430800	0.487800	0.249200
N191	N19	0.473400	0.469700	0.274000
N201	N20	0.449600	0.375400	0.201700
N211	N21	0.530400	0.147100	0.944400
N221	N22	0.541940	0.160900	0.917800
N231	N23	0.520000	0.117600	0.937800
N241	N24	0.538400	0.140500	0.893370
N251	N25	0.498400	0.029500	0.854700
N261	N26	0.511100	0.067500	0.198400
N271	N27	0.535700	0.081700	0.212100
N281	N28	0.485500	0.087300	0.198400
N291	N29	0.527700	0.111600	0.221000
N301	N30	0.436500	0.197000	0.219300
N311	N31	0.038600	0.700400	0.729100
N321	N32	0.017400	0.691200	0.751600
N331	N33	0.054000	0.726900	0.738500
N341	N34	0.042500	0.735800	0.767090
N351	N35	0.967800	0.717400	0.862600
N361	N36	0.105800	0.681300	0.693200
N371	N37	0.126300	0.656500	0.695900
N381	N38	0.119000	0.708600	0.702500
N391	N39	0.149400	0.702800	0.712800
N401	N40	0.238700	0.620100	0.734500
N411	N41	0.062300	0.751000	0.664800
N421	N42	0.053300	0.774000	0.644400
N431	N43	0.049900	0.722400	0.654400
N441	N44	0.033000	0.727700	0.627800
N451	N45	0.991300	0.805400	0.542900
N461	N46	0.034700	0.501100	0.786200
N471	N47	0.060300	0.490600	0.771300
N481	N48	0.069200	0.512200	0.749200
N491	N49	0.026600	0.530300	0.774000
N501	N50	0.050400	0.624600	0.701700
N511	N51	0.969600	0.852900	0.444400
N521	N52	0.958060	0.839100	0.417800
N531	N53	0.980000	0.882400	0.437800
N541	N54	0.961600	0.859500	0.393370
N551	N55	0.001600	0.970500	0.354700
N561	N56	0.988900	0.932500	0.698400
N571	N57	0.964300	0.918300	0.712100
N581	N58	0.014500	0.912700	0.698400
N591	N59	0.972300	0.888400	0.721000
N601	N60	0.063500	0.803000	0.719300
N611	N61	0.538600	0.799600	0.270900
N621	N62	0.517400	0.808800	0.248400
N631	N63	0.554000	0.773100	0.261500
N641	N64	0.542500	0.764200	0.232910
N651	N65	0.467800	0.782600	0.137400
N661	N66	0.605800	0.818700	0.306800
N671	N67	0.626300	0.843500	0.304100
N681	N68	0.619000	0.791400	0.297500
N691	N69	0.649400	0.797200	0.287200
N701	N70	0.738700	0.879900	0.265500
N711	N71	0.562300	0.749000	0.335200
N721	N72	0.553300	0.726000	0.355600
N731	N73	0.549900	0.777600	0.345600
N741	N74	0.533000	0.772300	0.372200
N751	N75	0.491300	0.694600	0.457100
N761	N76	0.534700	0.998900	0.213800
N771	N77	0.560300	0.009400	0.228700
N781	N78	0.569200	0.987800	0.250800
N791	N79	0.526600	0.969700	0.226000
N801	N80	0.550400	0.875400	0.298300
N811	N81	0.469600	0.647100	0.555600
N821	N82	0.458060	0.660900	0.582200
N831	N83	0.480000	0.617600	0.562200
N841	N84	0.461600	0.640500	0.606630
N851	N85	0.501600	0.529500	0.645300
N861	N86	0.488900	0.567500	0.301600
N871	N87	0.464300	0.581700	0.287900
N881	N88	0.514500	0.587300	0.301600
N891	N89	0.472300	0.611600	0.279000
N901	N90	0.563500	0.697000	0.280700
N911	N91	0.961400	0.200400	0.770900
N921	N92	0.982600	0.191200	0.748400
N931	N93	0.946000	0.226900	0.761500
N941	N94	0.957500	0.235800	0.732910
N951	N95	0.032200	0.217400	0.637400
N961	N96	0.894200	0.181300	0.806800
N971	N97	0.873700	0.156500	0.804100
N981	N98	0.881000	0.208600	0.797500
N991	N99	0.850600	0.202800	0.787200
N1001	N100	0.761300	0.120100	0.765500
N1011	N101	0.937700	0.251000	0.835200
N1021	N102	0.946700	0.274000	0.855600
N1031	N103	0.950100	0.222400	0.845600
N1041	N104	0.967000	0.227700	0.872200
N1051	N105	0.008700	0.305400	0.957100
N1061	N106	0.965300	0.001100	0.713800
N1071	N107	0.939700	0.990600	0.728700
N1081	N108	0.930800	0.012200	0.750800
N1091	N109	0.973400	0.030300	0.726000
N1101	N110	0.949600	0.124600	0.798300
N1111	N111	0.030400	0.352900	0.055600
N1121	N112	0.041940	0.339100	0.082200
N1131	N113	0.020000	0.382400	0.062200
N1141	N114	0.038400	0.359500	0.106630
N1151	N115	0.998400	0.470500	0.145300
N1161	N116	0.011100	0.432500	0.801600
N1171	N117	0.035700	0.418300	0.787900
N1181	N118	0.985500	0.412700	0.801600
N1191	N119	0.027700	0.388400	0.779000
N1201	N120	0.936500	0.303000	0.780700
N1211	N121	0.229100	0.461400	0.299600
N1221	N122	0.251600	0.482600	0.308800
N1231	N123	0.238500	0.446000	0.273100
N1241	N124	0.267090	0.457500	0.264200
N1251	N125	0.362600	0.532200	0.282600
N1261	N126	0.193200	0.394200	0.318700
N1271	N127	0.195900	0.373700	0.343500
N1281	N128	0.202500	0.381000	0.291400
N1291	N129	0.212800	0.350600	0.297200
N1301	N130	0.234500	0.261300	0.379900
N1311	N131	0.164800	0.437700	0.249000
N1321	N132	0.144400	0.446700	0.226000
N1331	N133	0.154400	0.450100	0.277600
N1341	N134	0.127800	0.467000	0.272300
N1351	N135	0.042900	0.508700	0.194600
N1361	N136	0.286200	0.465300	0.498900
N1371	N137	0.271300	0.439700	0.509400
N1381	N138	0.249200	0.430800	0.487800
N1391	N139	0.274000	0.473400	0.469700
N1401	N140	0.201700	0.449600	0.375400
N1411	N141	0.944400	0.530400	0.147100
N1421	N142	0.917800	0.541940	0.160900
N1431	N143	0.937800	0.520000	0.117600
N1441	N144	0.893370	0.538400	0.140500
N1451	N145	0.854700	0.498400	0.029500
N1461	N146	0.198400	0.511100	0.067500
N1471	N147	0.212100	0.535700	0.081700
N1481	N148	0.198400	0.485500	0.087300
N1491	N149	0.221000	0.527700	0.111600
N1501	N150	0.219300	0.436500	0.197000
N1511	N151	0.729100	0.038600	0.700400
N1521	N152	0.751600	0.017400	0.691200
N1531	N153	0.738500	0.054000	0.726900
N1541	N154	0.767090	0.042500	0.735800
N1551	N155	0.862600	0.967800	0.717400
N1561	N156	0.693200	0.105800	0.681300
N1571	N157	0.695900	0.126300	0.656500
N1581	N158	0.702500	0.119000	0.708600
N1591	N159	0.712800	0.149400	0.702800
N1601	N160	0.734500	0.238700	0.620100
N1611	N161	0.664800	0.062300	0.751000
N1621	N162	0.644400	0.053300	0.774000
N1631	N163	0.654400	0.049900	0.722400
N1641	N164	0.627800	0.033000	0.727700
N1651	N165	0.542900	0.991300	0.805400
N1661	N166	0.786200	0.034700	0.501100
N1671	N167	0.771300	0.060300	0.490600
N1681	N168	0.749200	0.069200	0.512200
N1691	N169	0.774000	0.026600	0.530300
N1701	N170	0.701700	0.050400	0.624600
N1711	N171	0.444400	0.969600	0.852900
N1721	N172	0.417800	0.958060	0.839100
N1731	N173	0.437800	0.980000	0.882400
N1741	N174	0.393370	0.961600	0.859500
N1751	N175	0.354700	0.001600	0.970500
N1761	N176	0.698400	0.988900	0.932500
N1771	N177	0.712100	0.964300	0.918300
N1781	N178	0.698400	0.014500	0.912700
N1791	N179	0.721000	0.972300	0.888400
N1801	N180	0.719300	0.063500	0.803000
N1811	N181	0.270900	0.538600	0.799600
N1821	N182	0.248400	0.517400	0.808800
N1831	N183	0.261500	0.554000	0.773100
N1841	N184	0.232910	0.542500	0.764200
N1851	N185	0.137400	0.467800	0.782600
N1861	N186	0.306800	0.605800	0.818700
N1871	N187	0.304100	0.626300	0.843500
N1881	N188	0.297500	0.619000	0.791400
N1891	N189	0.287200	0.649400	0.797200
N1901	N190	0.265500	0.738700	0.879900
N1911	N191	0.335200	0.562300	0.749000
N1921	N192	0.355600	0.553300	0.726000
N1931	N193	0.345600	0.549900	0.777600
N1941	N194	0.372200	0.533000	0.772300
N1951	N195	0.457100	0.491300	0.694600
N1961	N196	0.213800	0.534700	0.998900
N1971	N197	0.228700	0.560300	0.009400
N1981	N198	0.250800	0.569200	0.987800
N1991	N199	0.226000	0.526600	0.969700
N2001	N200	0.298300	0.550400	0.875400
N2011	N201	0.555600	0.469600	0.647100
N2021	N202	0.582200	0.458060	0.660900
N2031	N203	0.562200	0.480000	0.617600
N2041	N204	0.606630	0.461600	0.640500
N2051	N205	0.645300	0.501600	0.529500
N2061	N206	0.301600	0.488900	0.567500
N2071	N207	0.287900	0.464300	0.581700
N2081	N208	0.301600	0.514500	0.587300
N2091	N209	0.279000	0.472300	0.611600
N2101	N210	0.280700	0.563500	0.697000
N2111	N211	0.770900	0.961400	0.200400
N2121	N212	0.748400	0.982600	0.191200
N2131	N213	0.761500	0.946000	0.226900
N2141	N214	0.732910	0.957500	0.235800
N2151	N215	0.637400	0.032200	0.217400
N2161	N216	0.806800	0.894200	0.181300
N2171	N217	0.804100	0.873700	0.156500
N2181	N218	0.797500	0.881000	0.208600
N2191	N219	0.787200	0.850600	0.202800
N2201	N220	0.765500	0.761300	0.120100
N2211	N221	0.835200	0.937700	0.251000
N2221	N222	0.855600	0.946700	0.274000
N2231	N223	0.845600	0.950100	0.222400
N2241	N224	0.872200	0.967000	0.227700
N2251	N225	0.957100	0.008700	0.305400
N2261	N226	0.713800	0.965300	0.001100
N2271	N227	0.728700	0.939700	0.990600
N2281	N228	0.750800	0.930800	0.012200
N2291	N229	0.726000	0.973400	0.030300
N2301	N230	0.798300	0.949600	0.124600
N2311	N231	0.055600	0.030400	0.352900
N2321	N232	0.082200	0.041940	0.339100
N2331	N233	0.062200	0.020000	0.382400
N2341	N234	0.106630	0.038400	0.359500
N2351	N235	0.145300	0.998400	0.470500
N2361	N236	0.801600	0.011100	0.432500
N2371	N237	0.787900	0.035700	0.418300
N2381	N238	0.801600	0.985500	0.412700
N2391	N239	0.779000	0.027700	0.388400
N2401	N240	0.780700	0.936500	0.303000
N2411	N241	0.299600	0.229100	0.461400
N2421	N242	0.308800	0.251600	0.482600
N2431	N243	0.273100	0.238500	0.446000
N2441	N244	0.264200	0.267090	0.457500
N2451	N245	0.282600	0.362600	0.532200
N2461	N246	0.318700	0.193200	0.394200
N2471	N247	0.343500	0.195900	0.373700
N2481	N248	0.291400	0.202500	0.381000
N2491	N249	0.297200	0.212800	0.350600
N2501	N250	0.379900	0.234500	0.261300
N2511	N251	0.249000	0.164800	0.437700
N2521	N252	0.226000	0.144400	0.446700
N2531	N253	0.277600	0.154400	0.450100
N2541	N254	0.272300	0.127800	0.467000
N2551	N255	0.194600	0.042900	0.508700
N2561	N256	0.498900	0.286200	0.465300
N2571	N257	0.509400	0.271300	0.439700
N2581	N258	0.487800	0.249200	0.430800
N2591	N259	0.469700	0.274000	0.473400
N2601	N260	0.375400	0.201700	0.449600
N2611	N261	0.147100	0.944400	0.530400
N2621	N262	0.160900	0.917800	0.541940
N2631	N263	0.117600	0.937800	0.520000
N2641	N264	0.140500	0.893370	0.538400
N2651	N265	0.029500	0.854700	0.498400
N2661	N266	0.067500	0.198400	0.511100
N2671	N267	0.081700	0.212100	0.535700
N2681	N268	0.087300	0.198400	0.485500
N2691	N269	0.111600	0.221000	0.527700
N2701	N270	0.197000	0.219300	0.436500
N2711	N271	0.700400	0.729100	0.038600
N2721	N272	0.691200	0.751600	0.017400
N2731	N273	0.726900	0.738500	0.054000
N2741	N274	0.735800	0.767090	0.042500
N2751	N275	0.717400	0.862600	0.967800
N2761	N276	0.681300	0.693200	0.105800
N2771	N277	0.656500	0.695900	0.126300
N2781	N278	0.708600	0.702500	0.119000
N2791	N279	0.702800	0.712800	0.149400
N2801	N280	0.620100	0.734500	0.238700
N2811	N281	0.751000	0.664800	0.062300
N2821	N282	0.774000	0.644400	0.053300
N2831	N283	0.722400	0.654400	0.049900
N2841	N284	0.727700	0.627800	0.033000
N2851	N285	0.805400	0.542900	0.991300
N2861	N286	0.501100	0.786200	0.034700
N2871	N287	0.490600	0.771300	0.060300
N2881	N288	0.512200	0.749200	0.069200
N2891	N289	0.530300	0.774000	0.026600
N2901	N290	0.624600	0.701700	0.050400
N2911	N291	0.852900	0.444400	0.969600
N2921	N292	0.839100	0.417800	0.958060
N2931	N293	0.882400	0.437800	0.980000
N2941	N294	0.859500	0.393370	0.961600
N2951	N295	0.970500	0.354700	0.001600
N2961	N296	0.932500	0.698400	0.988900
N2971	N297	0.918300	0.712100	0.964300
N2981	N298	0.912700	0.698400	0.014500
N2991	N299	0.888400	0.721000	0.972300
N3001	N300	0.803000	0.719300	0.063500
N3011	N301	0.799600	0.270900	0.538600
N3021	N302	0.808800	0.248400	0.517400
N3031	N303	0.773100	0.261500	0.554000
N3041	N304	0.764200	0.232910	0.542500
N3051	N305	0.782600	0.137400	0.467800
N3061	N306	0.818700	0.306800	0.605800
N3071	N307	0.843500	0.304100	0.626300
N3081	N308	0.791400	0.297500	0.619000
N3091	N309	0.797200	0.287200	0.649400
N3101	N310	0.879900	0.265500	0.738700
N3111	N311	0.749000	0.335200	0.562300
N3121	N312	0.726000	0.355600	0.553300
N3131	N313	0.777600	0.345600	0.549900
N3141	N314	0.772300	0.372200	0.533000
N3151	N315	0.694600	0.457100	0.491300
N3161	N316	0.998900	0.213800	0.534700
N3171	N317	0.009400	0.228700	0.560300
N3181	N318	0.987800	0.250800	0.569200
N3191	N319	0.969700	0.226000	0.526600
N3201	N320	0.875400	0.298300	0.550400
N3211	N321	0.647100	0.555600	0.469600
N3221	N322	0.660900	0.582200	0.458060
N3231	N323	0.617600	0.562200	0.480000
N3241	N324	0.640500	0.606630	0.461600
N3251	N325	0.529500	0.645300	0.501600
N3261	N326	0.567500	0.301600	0.488900
N3271	N327	0.581700	0.287900	0.464300
N3281	N328	0.587300	0.301600	0.514500
N3291	N329	0.611600	0.279000	0.472300
N3301	N330	0.697000	0.280700	0.563500
N3311	N331	0.200400	0.770900	0.961400
N3321	N332	0.191200	0.748400	0.982600
N3331	N333	0.226900	0.761500	0.946000
N3341	N334	0.235800	0.732910	0.957500
N3351	N335	0.217400	0.637400	0.032200
N3361	N336	0.181300	0.806800	0.894200
N3371	N337	0.156500	0.804100	0.873700
N3381	N338	0.208600	0.797500	0.881000
N3391	N339	0.202800	0.787200	0.850600
N3401	N340	0.120100	0.765500	0.761300
N3411	N341	0.251000	0.835200	0.937700
N3421	N342	0.274000	0.855600	0.946700
N3431	N343	0.222400	0.845600	0.950100
N3441	N344	0.227700	0.872200	0.967000
N3451	N345	0.305400	0.957100	0.008700
N3461	N346	0.001100	0.713800	0.965300
N3471	N347	0.990600	0.728700	0.939700
N3481	N348	0.012200	0.750800	0.930800
N3491	N349	0.030300	0.726000	0.973400
N3501	N350	0.124600	0.798300	0.949600
N3511	N351	0.352900	0.055600	0.030400
N3521	N352	0.339100	0.082200	0.041940
N3531	N353	0.382400	0.062200	0.020000
N3541	N354	0.359500	0.106630	0.038400
N3551	N355	0.470500	0.145300	0.998400
N3561	N356	0.432500	0.801600	0.011100
N3571	N357	0.418300	0.787900	0.035700
N3581	N358	0.412700	0.801600	0.985500
N3591	N359	0.388400	0.779000	0.027700
N3601	N360	0.303000	0.780700	0.936500
N3611	N361	0.538600	0.700400	0.770900
N3621	N362	0.517400	0.691200	0.748400
N3631	N363	0.554000	0.726900	0.761500
N3641	N364	0.542500	0.735800	0.732910
N3651	N365	0.467800	0.717400	0.637400
N3661	N366	0.605800	0.681300	0.806800
N3671	N367	0.626300	0.656500	0.804100
N3681	N368	0.619000	0.708600	0.797500
N3691	N369	0.649400	0.702800	0.787200
N3701	N370	0.738700	0.620100	0.765500
N3711	N371	0.562300	0.751000	0.835200
N3721	N372	0.553300	0.774000	0.855600
N3731	N373	0.549900	0.722400	0.845600
N3741	N374	0.533000	0.727700	0.872200
N3751	N375	0.491300	0.805400	0.957100
N3761	N376	0.534700	0.501100	0.713800
N3771	N377	0.560300	0.490600	0.728700
N3781	N378	0.569200	0.512200	0.750800
N3791	N379	0.526600	0.530300	0.726000
N3801	N380	0.550400	0.624600	0.798300
N3811	N381	0.469600	0.852900	0.055600
N3821	N382	0.458060	0.839100	0.082200
N3831	N383	0.480000	0.882400	0.062200
N3841	N384	0.461600	0.859500	0.106630
N3851	N385	0.501600	0.970500	0.145300
N3861	N386	0.488900	0.932500	0.801600
N3871	N387	0.464300	0.918300	0.787900
N3881	N388	0.514500	0.912700	0.801600
N3891	N389	0.472300	0.888400	0.779000
N3901	N390	0.563500	0.803000	0.780700
N3911	N391	0.961400	0.299600	0.270900
N3921	N392	0.982600	0.308800	0.248400
N3931	N393	0.946000	0.273100	0.261500
N3941	N394	0.957500	0.264200	0.232910
N3951	N395	0.032200	0.282600	0.137400
N3961	N396	0.894200	0.318700	0.306800
N3971	N397	0.873700	0.343500	0.304100
N3981	N398	0.881000	0.291400	0.297500
N3991	N399	0.850600	0.297200	0.287200
N4001	N400	0.761300	0.379900	0.265500
N4011	N401	0.937700	0.249000	0.335200
N4021	N402	0.946700	0.226000	0.355600
N4031	N403	0.950100	0.277600	0.345600
N4041	N404	0.967000	0.272300	0.372200
N4051	N405	0.008700	0.194600	0.457100
N4061	N406	0.965300	0.498900	0.213800
N4071	N407	0.939700	0.509400	0.228700
N4081	N408	0.930800	0.487800	0.250800
N4091	N409	0.973400	0.469700	0.226000
N4101	N410	0.949600	0.375400	0.298300
N4111	N411	0.030400	0.147100	0.555600
N4121	N412	0.041940	0.160900	0.582200
N4131	N413	0.020000	0.117600	0.562200
N4141	N414	0.038400	0.140500	0.606630
N4151	N415	0.998400	0.029500	0.645300
N4161	N416	0.011100	0.067500	0.301600
N4171	N417	0.035700	0.081700	0.287900
N4181	N418	0.985500	0.087300	0.301600
N4191	N419	0.027700	0.111600	0.279000
N4201	N420	0.936500	0.197000	0.280700
N4211	N421	0.461400	0.200400	0.729100
N4221	N422	0.482600	0.191200	0.751600
N4231	N423	0.446000	0.226900	0.738500
N4241	N424	0.457500	0.235800	0.767090
N4251	N425	0.532200	0.217400	0.862600
N4261	N426	0.394200	0.181300	0.693200
N4271	N427	0.373700	0.156500	0.695900
N4281	N428	0.381000	0.208600	0.702500
N4291	N429	0.350600	0.202800	0.712800
N4301	N430	0.261300	0.120100	0.734500
N4311	N431	0.437700	0.251000	0.664800
N4321	N432	0.446700	0.274000	0.644400
N4331	N433	0.450100	0.222400	0.654400
N4341	N434	0.467000	0.227700	0.627800
N4351	N435	0.508700	0.305400	0.542900
N4361	N436	0.465300	0.001100	0.786200
N4371	N437	0.439700	0.990600	0.771300
N4381	N438	0.430800	0.012200	0.749200
N4391	N439	0.473400	0.030300	0.774000
N4401	N440	0.449600	0.124600	0.701700
N4411	N441	0.530400	0.352900	0.444400
N4421	N442	0.541940	0.339100	0.417800
N4431	N443	0.520000	0.382400	0.437800
N4441	N444	0.538400	0.359500	0.393370
N4451	N445	0.498400	0.470500	0.354700
N4461	N446	0.511100	0.432500	0.698400
N4471	N447	0.535700	0.418300	0.712100
N4481	N448	0.485500	0.412700	0.698400
N4491	N449	0.527700	0.388400	0.721000
N4501	N450	0.436500	0.303000	0.719300
N4511	N451	0.038600	0.799600	0.229100
N4521	N452	0.017400	0.808800	0.251600
N4531	N453	0.054000	0.773100	0.238500
N4541	N454	0.042500	0.764200	0.267090
N4551	N455	0.967800	0.782600	0.362600
N4561	N456	0.105800	0.818700	0.193200
N4571	N457	0.126300	0.843500	0.195900
N4581	N458	0.119000	0.791400	0.202500
N4591	N459	0.149400	0.797200	0.212800
N4601	N460	0.238700	0.879900	0.234500
N4611	N461	0.062300	0.749000	0.164800
N4621	N462	0.053300	0.726000	0.144400
N4631	N463	0.049900	0.777600	0.154400
N4641	N464	0.033000	0.772300	0.127800
N4651	N465	0.991300	0.694600	0.042900
N4661	N466	0.034700	0.998900	0.286200
N4671	N467	0.060300	0.009400	0.271300
N4681	N468	0.069200	0.987800	0.249200
N4691	N469	0.026600	0.969700	0.274000
N4701	N470	0.050400	0.875400	0.201700
N4711	N471	0.969600	0.647100	0.944400
N4721	N472	0.958060	0.660900	0.917800
N4731	N473	0.980000	0.617600	0.937800
N4741	N474	0.961600	0.640500	0.893370
N4751	N475	0.001600	0.529500	0.854700
N4761	N476	0.988900	0.567500	0.198400
N4771	N477	0.964300	0.581700	0.212100
N4781	N478	0.014500	0.587300	0.198400
N4791	N479	0.972300	0.611600	0.221000
N4801	N480	0.063500	0.697000	0.219300
N4811	N481	0.770900	0.538600	0.700400
N4821	N482	0.748400	0.517400	0.691200
N4831	N483	0.761500	0.554000	0.726900
N4841	N484	0.732910	0.542500	0.735800
N4851	N485	0.637400	0.467800	0.717400
N4861	N486	0.806800	0.605800	0.681300
N4871	N487	0.804100	0.626300	0.656500
N4881	N488	0.797500	0.619000	0.708600
N4891	N489	0.787200	0.649400	0.702800
N4901	N490	0.765500	0.738700	0.620100
N4911	N491	0.835200	0.562300	0.751000
N4921	N492	0.855600	0.553300	0.774000
N4931	N493	0.845600	0.549900	0.722400
N4941	N494	0.872200	0.533000	0.727700
N4951	N495	0.957100	0.491300	0.805400
N4961	N496	0.713800	0.534700	0.501100
N4971	N497	0.728700	0.560300	0.490600
N4981	N498	0.750800	0.569200	0.512200
N4991	N499	0.726000	0.526600	0.530300
N5001	N500	0.798300	0.550400	0.624600
N5011	N501	0.055600	0.469600	0.852900
N5021	N502	0.082200	0.458060	0.839100
N5031	N503	0.062200	0.480000	0.882400
N5041	N504	0.106630	0.461600	0.859500
N5051	N505	0.145300	0.501600	0.970500
N5061	N506	0.801600	0.488900	0.932500
N5071	N507	0.787900	0.464300	0.918300
N5081	N508	0.801600	0.514500	0.912700
N5091	N509	0.779000	0.472300	0.888400
N5101	N510	0.780700	0.563500	0.803000
N5111	N511	0.270900	0.961400	0.299600
N5121	N512	0.248400	0.982600	0.308800
N5131	N513	0.261500	0.946000	0.273100
N5141	N514	0.232910	0.957500	0.264200
N5151	N515	0.137400	0.032200	0.282600
N5161	N516	0.306800	0.894200	0.318700
N5171	N517	0.304100	0.873700	0.343500
N5181	N518	0.297500	0.881000	0.291400
N5191	N519	0.287200	0.850600	0.297200
N5201	N520	0.265500	0.761300	0.379900
N5211	N521	0.335200	0.937700	0.249000
N5221	N522	0.355600	0.946700	0.226000
N5231	N523	0.345600	0.950100	0.277600
N5241	N524	0.372200	0.967000	0.272300
N5251	N525	0.457100	0.008700	0.194600
N5261	N526	0.213800	0.965300	0.498900
N5271	N527	0.228700	0.939700	0.509400
N5281	N528	0.250800	0.930800	0.487800
N5291	N529	0.226000	0.973400	0.469700
N5301	N530	0.298300	0.949600	0.375400
N5311	N531	0.555600	0.030400	0.147100
N5321	N532	0.582200	0.041940	0.160900
N5331	N533	0.562200	0.020000	0.117600
N5341	N534	0.606630	0.038400	0.140500
N5351	N535	0.645300	0.998400	0.029500
N5361	N536	0.301600	0.011100	0.067500
N5371	N537	0.287900	0.035700	0.081700
N5381	N538	0.301600	0.985500	0.087300
N5391	N539	0.279000	0.027700	0.111600
N5401	N540	0.280700	0.936500	0.197000
N5411	N541	0.729100	0.461400	0.200400
N5421	N542	0.751600	0.482600	0.191200
N5431	N543	0.738500	0.446000	0.226900
N5441	N544	0.767090	0.457500	0.235800
N5451	N545	0.862600	0.532200	0.217400
N5461	N546	0.693200	0.394200	0.181300
N5471	N547	0.695900	0.373700	0.156500
N5481	N548	0.702500	0.381000	0.208600
N5491	N549	0.712800	0.350600	0.202800
N5501	N550	0.734500	0.261300	0.120100
N5511	N551	0.664800	0.437700	0.251000
N5521	N552	0.644400	0.446700	0.274000
N5531	N553	0.654400	0.450100	0.222400
N5541	N554	0.627800	0.467000	0.227700
N5551	N555	0.542900	0.508700	0.305400
N5561	N556	0.786200	0.465300	0.001100
N5571	N557	0.771300	0.439700	0.990600
N5581	N558	0.749200	0.430800	0.012200
N5591	N559	0.774000	0.473400	0.030300
N5601	N560	0.701700	0.449600	0.124600
N5611	N561	0.444400	0.530400	0.352900
N5621	N562	0.417800	0.541940	0.339100
N5631	N563	0.437800	0.520000	0.382400
N5641	N564	0.393370	0.538400	0.359500
N5651	N565	0.354700	0.498400	0.470500
N5661	N566	0.698400	0.511100	0.432500
N5671	N567	0.712100	0.535700	0.418300
N5681	N568	0.698400	0.485500	0.412700
N5691	N569	0.721000	0.527700	0.388400
N5701	N570	0.719300	0.436500	0.303000
N5711	N571	0.229100	0.038600	0.799600
N5721	N572	0.251600	0.017400	0.808800
N5731	N573	0.238500	0.054000	0.773100
N5741	N574	0.267090	0.042500	0.764200
N5751	N575	0.362600	0.967800	0.782600
N5761	N576	0.193200	0.105800	0.818700
N5771	N577	0.195900	0.126300	0.843500
N5781	N578	0.202500	0.119000	0.791400
N5791	N579	0.212800	0.149400	0.797200
N5801	N580	0.234500	0.238700	0.879900
N5811	N581	0.164800	0.062300	0.749000
N5821	N582	0.144400	0.053300	0.726000
N5831	N583	0.154400	0.049900	0.777600
N5841	N584	0.127800	0.033000	0.772300
N5851	N585	0.042900	0.991300	0.694600
N5861	N586	0.286200	0.034700	0.998900
N5871	N587	0.271300	0.060300	0.009400
N5881	N588	0.249200	0.069200	0.987800
N5891	N589	0.274000	0.026600	0.969700
N5901	N590	0.201700	0.050400	0.875400
N5911	N591	0.944400	0.969600	0.647100
N5921	N592	0.917800	0.958060	0.660900
N5931	N593	0.937800	0.980000	0.617600
N5941	N594	0.893370	0.961600	0.640500
N5951	N595	0.854700	0.001600	0.529500
N5961	N596	0.198400	0.988900	0.567500
N5971	N597	0.212100	0.964300	0.581700
N5981	N598	0.198400	0.014500	0.587300
N5991	N599	0.221000	0.972300	0.611600
N6001	N600	0.219300	0.063500	0.697000
N6011	N601	0.700400	0.770900	0.538600
N6021	N602	0.691200	0.748400	0.517400
N6031	N603	0.726900	0.761500	0.554000
N6041	N604	0.735800	0.732910	0.542500
N6051	N605	0.717400	0.637400	0.467800
N6061	N606	0.681300	0.806800	0.605800
N6071	N607	0.656500	0.804100	0.626300
N6081	N608	0.708600	0.797500	0.619000
N6091	N609	0.702800	0.787200	0.649400
N6101	N610	0.620100	0.765500	0.738700
N6111	N611	0.751000	0.835200	0.562300
N6121	N612	0.774000	0.855600	0.553300
N6131	N613	0.722400	0.845600	0.549900
N6141	N614	0.727700	0.872200	0.533000
N6151	N615	0.805400	0.957100	0.491300
N6161	N616	0.501100	0.713800	0.534700
N6171	N617	0.490600	0.728700	0.560300
N6181	N618	0.512200	0.750800	0.569200
N6191	N619	0.530300	0.726000	0.526600
N6201	N620	0.624600	0.798300	0.550400
N6211	N621	0.852900	0.055600	0.469600
N6221	N622	0.839100	0.082200	0.458060
N6231	N623	0.882400	0.062200	0.480000
N6241	N624	0.859500	0.106630	0.461600
N6251	N625	0.970500	0.145300	0.501600
N6261	N626	0.932500	0.801600	0.488900
N6271	N627	0.918300	0.787900	0.464300
N6281	N628	0.912700	0.801600	0.514500
N6291	N629	0.888400	0.779000	0.472300
N6301	N630	0.803000	0.780700	0.563500
N6311	N631	0.299600	0.270900	0.961400
N6321	N632	0.308800	0.248400	0.982600
N6331	N633	0.273100	0.261500	0.946000
N6341	N634	0.264200	0.232910	0.957500
N6351	N635	0.282600	0.137400	0.032200
N6361	N636	0.318700	0.306800	0.894200
N6371	N637	0.343500	0.304100	0.873700
N6381	N638	0.291400	0.297500	0.881000
N6391	N639	0.297200	0.287200	0.850600
N6401	N640	0.379900	0.265500	0.761300
N6411	N641	0.249000	0.335200	0.937700
N6421	N642	0.226000	0.355600	0.946700
N6431	N643	0.277600	0.345600	0.950100
N6441	N644	0.272300	0.372200	0.967000
N6451	N645	0.194600	0.457100	0.008700
N6461	N646	0.498900	0.213800	0.965300
N6471	N647	0.509400	0.228700	0.939700
N6481	N648	0.487800	0.250800	0.930800
N6491	N649	0.469700	0.226000	0.973400
N6501	N650	0.375400	0.298300	0.949600
N6511	N651	0.147100	0.555600	0.030400
N6521	N652	0.160900	0.582200	0.041940
N6531	N653	0.117600	0.562200	0.020000
N6541	N654	0.140500	0.606630	0.038400
N6551	N655	0.029500	0.645300	0.998400
N6561	N656	0.067500	0.301600	0.011100
N6571	N657	0.081700	0.287900	0.035700
N6581	N658	0.087300	0.301600	0.985500
N6591	N659	0.111600	0.279000	0.027700
N6601	N660	0.197000	0.280700	0.936500
N6611	N661	0.200400	0.729100	0.461400
N6621	N662	0.191200	0.751600	0.482600
N6631	N663	0.226900	0.738500	0.446000
N6641	N664	0.235800	0.767090	0.457500
N6651	N665	0.217400	0.862600	0.532200
N6661	N666	0.181300	0.693200	0.394200
N6671	N667	0.156500	0.695900	0.373700
N6681	N668	0.208600	0.702500	0.381000
N6691	N669	0.202800	0.712800	0.350600
N6701	N670	0.120100	0.734500	0.261300
N6711	N671	0.251000	0.664800	0.437700
N6721	N672	0.274000	0.644400	0.446700
N6731	N673	0.222400	0.654400	0.450100
N6741	N674	0.227700	0.627800	0.467000
N6751	N675	0.305400	0.542900	0.508700
N6761	N676	0.001100	0.786200	0.465300
N6771	N677	0.990600	0.771300	0.439700
N6781	N678	0.012200	0.749200	0.430800
N6791	N679	0.030300	0.774000	0.473400
N6801	N680	0.124600	0.701700	0.449600
N6811	N681	0.352900	0.444400	0.530400
N6821	N682	0.339100	0.417800	0.541940
N6831	N683	0.382400	0.437800	0.520000
N6841	N684	0.359500	0.393370	0.538400
N6851	N685	0.470500	0.354700	0.498400
N6861	N686	0.432500	0.698400	0.511100
N6871	N687	0.418300	0.712100	0.535700
N6881	N688	0.412700	0.698400	0.485500
N6891	N689	0.388400	0.721000	0.527700
N6901	N690	0.303000	0.719300	0.436500
N6911	N691	0.799600	0.229100	0.038600
N6921	N692	0.808800	0.251600	0.017400
N6931	N693	0.773100	0.238500	0.054000
N6941	N694	0.764200	0.267090	0.042500
N6951	N695	0.782600	0.362600	0.967800
N6961	N696	0.818700	0.193200	0.105800
N6971	N697	0.843500	0.195900	0.126300
N6981	N698	0.791400	0.202500	0.119000
N6991	N699	0.797200	0.212800	0.149400
N7001	N700	0.879900	0.234500	0.238700
N7011	N701	0.749000	0.164800	0.062300
N7021	N702	0.726000	0.144400	0.053300
N7031	N703	0.777600	0.154400	0.049900
N7041	N704	0.772300	0.127800	0.033000
N7051	N705	0.694600	0.042900	0.991300
N7061	N706	0.998900	0.286200	0.034700
N7071	N707	0.009400	0.271300	0.060300
N7081	N708	0.987800	0.249200	0.069200
N7091	N709	0.969700	0.274000	0.026600
N7101	N710	0.875400	0.201700	0.050400
N7111	N711	0.647100	0.944400	0.969600
N7121	N712	0.660900	0.917800	0.958060
N7131	N713	0.617600	0.937800	0.980000
N7141	N714	0.640500	0.893370	0.961600
N7151	N715	0.529500	0.854700	0.001600
N7161	N716	0.567500	0.198400	0.988900
N7171	N717	0.581700	0.212100	0.964300
N7181	N718	0.587300	0.198400	0.014500
N7191	N719	0.611600	0.221000	0.972300
N7201	N720	0.697000	0.219300	0.063500
