data_GUNFAW01_neutral_PM
_symmetry_space_group_name_H-M	'P1'
_cell_length_a	15.490100
_cell_length_b	15.490100
_cell_length_c	15.490100
_cell_angle_alpha	90.000000
_cell_angle_beta	90.000000
_cell_angle_gamma	90.000000
_symmetry_Int_Tables_number 1

loop_
_symmetry_equiv_pos_as_xyz
'x,y,z'

loop_
_atom_site_label
_atom_site_type_symbol
_atom_site_fract_x
_atom_site_fract_y
_atom_site_fract_z
Mn11	Mn1	0.853500	0.353500	0.146500
Mn21	Mn2	0.646500	0.646500	0.646500
Mn31	Mn3	0.146500	0.853500	0.353500
Mn41	Mn4	0.353500	0.146500	0.853500
Cr11	Cr1	0.597300	0.402700	0.902700
Cr21	Cr2	0.902700	0.597300	0.402700
Cr31	Cr3	0.402700	0.902700	0.597300
Cr41	Cr4	0.097300	0.097300	0.097300
C11	C1	0.763000	0.378000	0.993000
C21	C2	0.695000	0.375000	0.066000
C31	C3	0.737000	0.622000	0.493000
C41	C4	0.805000	0.625000	0.566000
C51	C5	0.237000	0.878000	0.507000
C61	C6	0.305000	0.875000	0.434000
C71	C7	0.263000	0.122000	0.007000
C81	C8	0.195000	0.125000	0.934000
C91	C9	0.993000	0.763000	0.378000
C101	C10	0.066000	0.695000	0.375000
C111	C11	0.493000	0.737000	0.622000
C121	C12	0.566000	0.805000	0.625000
C131	C13	0.507000	0.237000	0.878000
C141	C14	0.434000	0.305000	0.875000
C151	C15	0.007000	0.263000	0.122000
C161	C16	0.934000	0.195000	0.125000
C171	C17	0.378000	0.993000	0.763000
C181	C18	0.375000	0.066000	0.695000
C191	C19	0.622000	0.493000	0.737000
C201	C20	0.625000	0.566000	0.805000
C211	C21	0.878000	0.507000	0.237000
C221	C22	0.875000	0.434000	0.305000
C231	C23	0.122000	0.007000	0.263000
C241	C24	0.125000	0.934000	0.195000
O11	O1	0.842100	0.365800	0.020300
O21	O2	0.726000	0.359300	0.143300
O31	O3	0.740000	0.387300	0.919800
O41	O4	0.618000	0.389600	0.047400
O51	O5	0.657900	0.634200	0.520300
O61	O6	0.774000	0.640700	0.643300
O71	O7	0.760000	0.612700	0.419800
O81	O8	0.882000	0.610400	0.547400
O91	O9	0.157900	0.865800	0.479700
O101	O10	0.274000	0.859300	0.356700
O111	O11	0.260000	0.887300	0.580200
O121	O12	0.382000	0.889600	0.452600
O131	O13	0.342100	0.134200	0.979700
O141	O14	0.226000	0.140700	0.856700
O151	O15	0.240000	0.112700	0.080200
O161	O16	0.118000	0.110400	0.952600
O171	O17	0.020300	0.842100	0.365800
O181	O18	0.143300	0.726000	0.359300
O191	O19	0.919800	0.740000	0.387300
O201	O20	0.047400	0.618000	0.389600
O211	O21	0.520300	0.657900	0.634200
O221	O22	0.643300	0.774000	0.640700
O231	O23	0.419800	0.760000	0.612700
O241	O24	0.547400	0.882000	0.610400
O251	O25	0.479700	0.157900	0.865800
O261	O26	0.356700	0.274000	0.859300
O271	O27	0.580200	0.260000	0.887300
O281	O28	0.452600	0.382000	0.889600
O291	O29	0.979700	0.342100	0.134200
O301	O30	0.856700	0.226000	0.140700
O311	O31	0.080200	0.240000	0.112700
O321	O32	0.952600	0.118000	0.110400
O331	O33	0.365800	0.020300	0.842100
O341	O34	0.359300	0.143300	0.726000
O351	O35	0.387300	0.919800	0.740000
O361	O36	0.389600	0.047400	0.618000
O371	O37	0.634200	0.520300	0.657900
O381	O38	0.640700	0.643300	0.774000
O391	O39	0.612700	0.419800	0.760000
O401	O40	0.610400	0.547400	0.882000
O411	O41	0.865800	0.479700	0.157900
O421	O42	0.859300	0.356700	0.274000
O431	O43	0.887300	0.580200	0.260000
O441	O44	0.889600	0.452600	0.382000
O451	O45	0.134200	0.979700	0.342100
O461	O46	0.140700	0.856700	0.226000
O471	O47	0.112700	0.080200	0.240000
O481	O48	0.110400	0.952600	0.118000
