data_GUNZIA_clean_PM
_symmetry_space_group_name_H-M	'P1'
_cell_length_a	22.022300
_cell_length_b	22.022300
_cell_length_c	21.628000
_cell_angle_alpha	90.000000
_cell_angle_beta	90.000000
_cell_angle_gamma	90.000000
_symmetry_Int_Tables_number 1

loop_
_symmetry_equiv_pos_as_xyz
'x,y,z'

loop_
_atom_site_label
_atom_site_type_symbol
_atom_site_fract_x
_atom_site_fract_y
_atom_site_fract_z
Cd11	Cd1	0.206390	0.810470	0.071100
O11	O1	0.211900	0.708180	0.076300
N11	N1	0.188800	0.771140	0.971500
C11	C1	0.204200	0.677500	0.025200
O21	O2	0.254370	0.909000	0.067600
C21	C2	0.208700	0.614600	0.021000
H11	H1	0.218700	0.592000	0.056400
O31	O3	0.306000	0.827700	0.040000
C31	C3	0.198500	0.584000	0.964900
H21	H2	0.201500	0.541400	0.963900
C41	C4	0.184800	0.613200	0.913800
H31	H3	0.177700	0.591200	0.877300
C51	C5	0.180600	0.677500	0.913000
C61	C6	0.191100	0.709300	0.968900
C71	C7	0.169800	0.712100	0.859800
H41	H4	0.162500	0.692400	0.822000
C81	C8	0.169500	0.774800	0.862200
H51	H5	0.163400	0.797800	0.826100
C91	C9	0.178400	0.803500	0.919100
C101	C10	0.178900	0.868900	0.927600
H61	H6	0.191900	0.882800	0.966500
C111	C11	0.163200	0.911400	0.887100
H71	H7	0.149300	0.898400	0.848200
C121	C12	0.165700	0.976400	0.898000
C131	C13	0.139600	0.016700	0.857900
H81	H8	0.120800	0.002300	0.821700
C141	C14	0.140600	0.079000	0.870000
H91	H9	0.120200	0.105200	0.842700
C151	C15	0.195200	0.063600	0.956000
H101	H10	0.217300	0.079200	0.989700
C161	C16	0.192800	0.001900	0.949800
H111	H11	0.209500	0.976700	0.980500
C171	C17	0.303300	0.883200	0.050900
C181	C18	0.360800	0.920400	0.044600
C191	C19	0.412500	0.891600	0.022500
H121	H12	0.410500	0.851000	0.009500
C201	C20	0.467200	0.923300	0.019500
H131	H13	0.502200	0.903800	0.004500
C211	C21	0.470400	0.984200	0.038800
C221	C22	0.417800	0.012800	0.057000
H141	H14	0.418800	0.054200	0.067200
C231	C23	0.362600	0.981000	0.060500
H151	H15	0.327100	0.001000	0.073600
N21	N2	0.169400	0.102900	0.919000
Cd21	Cd2	0.706390	0.310470	0.571100
O41	O4	0.711900	0.208180	0.576300
N31	N3	0.688800	0.271140	0.471500
C241	C24	0.704200	0.177500	0.525200
O51	O5	0.754370	0.409000	0.567600
C251	C25	0.708700	0.114600	0.521000
H161	H16	0.718700	0.092000	0.556400
O61	O6	0.806000	0.327700	0.540000
C261	C26	0.698500	0.084000	0.464900
H171	H17	0.701500	0.041400	0.463900
C271	C27	0.684800	0.113200	0.413800
H181	H18	0.677700	0.091200	0.377300
C281	C28	0.680600	0.177500	0.413000
C291	C29	0.691100	0.209300	0.468900
C301	C30	0.669800	0.212100	0.359800
H191	H19	0.662500	0.192400	0.322000
C311	C31	0.669500	0.274800	0.362200
H201	H20	0.663400	0.297800	0.326100
C321	C32	0.678400	0.303500	0.419100
C331	C33	0.678900	0.368900	0.427600
H211	H21	0.691900	0.382800	0.466500
C341	C34	0.663200	0.411400	0.387100
H221	H22	0.649300	0.398400	0.348200
C351	C35	0.665700	0.476400	0.398000
C361	C36	0.639600	0.516700	0.357900
H231	H23	0.620800	0.502300	0.321700
C371	C37	0.640600	0.579000	0.370000
H241	H24	0.620200	0.605200	0.342700
C381	C38	0.695200	0.563600	0.456000
H251	H25	0.717300	0.579200	0.489700
C391	C39	0.692800	0.501900	0.449800
H261	H26	0.709500	0.476700	0.480500
C401	C40	0.803300	0.383200	0.550900
C411	C41	0.860800	0.420400	0.544600
C421	C42	0.912500	0.391600	0.522500
H271	H27	0.910500	0.351000	0.509500
C431	C43	0.967200	0.423300	0.519500
H281	H28	0.002200	0.403800	0.504500
C441	C44	0.970400	0.484200	0.538800
C451	C45	0.917800	0.512800	0.557000
H291	H29	0.918800	0.554200	0.567200
C461	C46	0.862600	0.481000	0.560500
H301	H30	0.827100	0.501000	0.573600
N41	N4	0.669400	0.602900	0.419000
Cd31	Cd3	0.793610	0.189530	0.071100
O71	O7	0.788100	0.291820	0.076300
N51	N5	0.811200	0.228860	0.971500
C471	C47	0.795800	0.322500	0.025200
O81	O8	0.745630	0.091000	0.067600
C481	C48	0.791300	0.385400	0.021000
H311	H31	0.781300	0.408000	0.056400
O91	O9	0.694000	0.172300	0.040000
C491	C49	0.801500	0.416000	0.964900
H321	H32	0.798500	0.458600	0.963900
C501	C50	0.815200	0.386800	0.913800
H331	H33	0.822300	0.408800	0.877300
C511	C51	0.819400	0.322500	0.913000
C521	C52	0.808900	0.290700	0.968900
C531	C53	0.830200	0.287900	0.859800
H341	H34	0.837500	0.307600	0.822000
C541	C54	0.830500	0.225200	0.862200
H351	H35	0.836600	0.202200	0.826100
C551	C55	0.821600	0.196500	0.919100
C561	C56	0.821100	0.131100	0.927600
H361	H36	0.808100	0.117200	0.966500
C571	C57	0.836800	0.088600	0.887100
H371	H37	0.850700	0.101600	0.848200
C581	C58	0.834300	0.023600	0.898000
C591	C59	0.860400	0.983300	0.857900
H381	H38	0.879200	0.997700	0.821700
C601	C60	0.859400	0.921000	0.870000
H391	H39	0.879800	0.894800	0.842700
C611	C61	0.804800	0.936400	0.956000
H401	H40	0.782700	0.920800	0.989700
C621	C62	0.807200	0.998100	0.949800
H411	H41	0.790500	0.023300	0.980500
C631	C63	0.696700	0.116800	0.050900
C641	C64	0.639200	0.079600	0.044600
C651	C65	0.587500	0.108400	0.022500
H421	H42	0.589500	0.149000	0.009500
C661	C66	0.532800	0.076700	0.019500
H431	H43	0.497800	0.096200	0.004500
C671	C67	0.529600	0.015800	0.038800
C681	C68	0.582200	0.987200	0.057000
H441	H44	0.581200	0.945800	0.067200
C691	C69	0.637400	0.019000	0.060500
H451	H45	0.672900	0.999000	0.073600
N61	N6	0.830600	0.897100	0.919000
Cd41	Cd4	0.293610	0.689530	0.571100
O101	O10	0.288100	0.791820	0.576300
N71	N7	0.311200	0.728860	0.471500
C701	C70	0.295800	0.822500	0.525200
O111	O11	0.245630	0.591000	0.567600
C711	C71	0.291300	0.885400	0.521000
H461	H46	0.281300	0.908000	0.556400
O121	O12	0.194000	0.672300	0.540000
C721	C72	0.301500	0.916000	0.464900
H471	H47	0.298500	0.958600	0.463900
C731	C73	0.315200	0.886800	0.413800
H481	H48	0.322300	0.908800	0.377300
C741	C74	0.319400	0.822500	0.413000
C751	C75	0.308900	0.790700	0.468900
C761	C76	0.330200	0.787900	0.359800
H491	H49	0.337500	0.807600	0.322000
C771	C77	0.330500	0.725200	0.362200
H501	H50	0.336600	0.702200	0.326100
C781	C78	0.321600	0.696500	0.419100
C791	C79	0.321100	0.631100	0.427600
H511	H51	0.308100	0.617200	0.466500
C801	C80	0.336800	0.588600	0.387100
H521	H52	0.350700	0.601600	0.348200
C811	C81	0.334300	0.523600	0.398000
C821	C82	0.360400	0.483300	0.357900
H531	H53	0.379200	0.497700	0.321700
C831	C83	0.359400	0.421000	0.370000
H541	H54	0.379800	0.394800	0.342700
C841	C84	0.304800	0.436400	0.456000
H551	H55	0.282700	0.420800	0.489700
C851	C85	0.307200	0.498100	0.449800
H561	H56	0.290500	0.523300	0.480500
C861	C86	0.196700	0.616800	0.550900
C871	C87	0.139200	0.579600	0.544600
C881	C88	0.087500	0.608400	0.522500
H571	H57	0.089500	0.649000	0.509500
C891	C89	0.032800	0.576700	0.519500
H581	H58	0.997800	0.596200	0.504500
C901	C90	0.029600	0.515800	0.538800
C911	C91	0.082200	0.487200	0.557000
H591	H59	0.081200	0.445800	0.567200
C921	C92	0.137400	0.519000	0.560500
H601	H60	0.172900	0.499000	0.573600
N81	N8	0.330600	0.397100	0.419000
Cd51	Cd5	0.810470	0.793610	0.928900
O131	O13	0.708180	0.788100	0.923700
N91	N9	0.771140	0.811200	0.028500
C931	C93	0.677500	0.795800	0.974800
O141	O14	0.909000	0.745630	0.932400
C941	C94	0.614600	0.791300	0.979000
H611	H61	0.592000	0.781300	0.943600
O151	O15	0.827700	0.694000	0.960000
C951	C95	0.584000	0.801500	0.035100
H621	H62	0.541400	0.798500	0.036100
C961	C96	0.613200	0.815200	0.086200
H631	H63	0.591200	0.822300	0.122700
C971	C97	0.677500	0.819400	0.087000
C981	C98	0.709300	0.808900	0.031100
C991	C99	0.712100	0.830200	0.140200
H641	H64	0.692400	0.837500	0.178000
C1001	C100	0.774800	0.830500	0.137800
H651	H65	0.797800	0.836600	0.173900
C1011	C101	0.803500	0.821600	0.080900
C1021	C102	0.868900	0.821100	0.072400
H661	H66	0.882800	0.808100	0.033500
C1031	C103	0.911400	0.836800	0.112900
H671	H67	0.898400	0.850700	0.151800
C1041	C104	0.976400	0.834300	0.102000
C1051	C105	0.016700	0.860400	0.142100
H681	H68	0.002300	0.879200	0.178300
C1061	C106	0.079000	0.859400	0.130000
H691	H69	0.105200	0.879800	0.157300
C1071	C107	0.063600	0.804800	0.044000
H701	H70	0.079200	0.782700	0.010300
C1081	C108	0.001900	0.807200	0.050200
H711	H71	0.976700	0.790500	0.019500
C1091	C109	0.883200	0.696700	0.949100
C1101	C110	0.920400	0.639200	0.955400
C1111	C111	0.891600	0.587500	0.977500
H721	H72	0.851000	0.589500	0.990500
C1121	C112	0.923300	0.532800	0.980500
H731	H73	0.903800	0.497800	0.995500
C1131	C113	0.984200	0.529600	0.961200
C1141	C114	0.012800	0.582200	0.943000
H741	H74	0.054200	0.581200	0.932800
C1151	C115	0.981000	0.637400	0.939500
H751	H75	0.001000	0.672900	0.926400
N101	N10	0.102900	0.830600	0.081000
Cd61	Cd6	0.310470	0.293610	0.428900
O161	O16	0.208180	0.288100	0.423700
N111	N11	0.271140	0.311200	0.528500
C1161	C116	0.177500	0.295800	0.474800
O171	O17	0.409000	0.245630	0.432400
C1171	C117	0.114600	0.291300	0.479000
H761	H76	0.092000	0.281300	0.443600
O181	O18	0.327700	0.194000	0.460000
C1181	C118	0.084000	0.301500	0.535100
H771	H77	0.041400	0.298500	0.536100
C1191	C119	0.113200	0.315200	0.586200
H781	H78	0.091200	0.322300	0.622700
C1201	C120	0.177500	0.319400	0.587000
C1211	C121	0.209300	0.308900	0.531100
C1221	C122	0.212100	0.330200	0.640200
H791	H79	0.192400	0.337500	0.678000
C1231	C123	0.274800	0.330500	0.637800
H801	H80	0.297800	0.336600	0.673900
C1241	C124	0.303500	0.321600	0.580900
C1251	C125	0.368900	0.321100	0.572400
H811	H81	0.382800	0.308100	0.533500
C1261	C126	0.411400	0.336800	0.612900
H821	H82	0.398400	0.350700	0.651800
C1271	C127	0.476400	0.334300	0.602000
C1281	C128	0.516700	0.360400	0.642100
H831	H83	0.502300	0.379200	0.678300
C1291	C129	0.579000	0.359400	0.630000
H841	H84	0.605200	0.379800	0.657300
C1301	C130	0.563600	0.304800	0.544000
H851	H85	0.579200	0.282700	0.510300
C1311	C131	0.501900	0.307200	0.550200
H861	H86	0.476700	0.290500	0.519500
C1321	C132	0.383200	0.196700	0.449100
C1331	C133	0.420400	0.139200	0.455400
C1341	C134	0.391600	0.087500	0.477500
H871	H87	0.351000	0.089500	0.490500
C1351	C135	0.423300	0.032800	0.480500
H881	H88	0.403800	0.997800	0.495500
C1361	C136	0.484200	0.029600	0.461200
C1371	C137	0.512800	0.082200	0.443000
H891	H89	0.554200	0.081200	0.432800
C1381	C138	0.481000	0.137400	0.439500
H901	H90	0.501000	0.172900	0.426400
N121	N12	0.602900	0.330600	0.581000
Cd71	Cd7	0.189530	0.206390	0.928900
O191	O19	0.291820	0.211900	0.923700
N131	N13	0.228860	0.188800	0.028500
C1391	C139	0.322500	0.204200	0.974800
O201	O20	0.091000	0.254370	0.932400
C1401	C140	0.385400	0.208700	0.979000
H911	H91	0.408000	0.218700	0.943600
O211	O21	0.172300	0.306000	0.960000
C1411	C141	0.416000	0.198500	0.035100
H921	H92	0.458600	0.201500	0.036100
C1421	C142	0.386800	0.184800	0.086200
H931	H93	0.408800	0.177700	0.122700
C1431	C143	0.322500	0.180600	0.087000
C1441	C144	0.290700	0.191100	0.031100
C1451	C145	0.287900	0.169800	0.140200
H941	H94	0.307600	0.162500	0.178000
C1461	C146	0.225200	0.169500	0.137800
H951	H95	0.202200	0.163400	0.173900
C1471	C147	0.196500	0.178400	0.080900
C1481	C148	0.131100	0.178900	0.072400
H961	H96	0.117200	0.191900	0.033500
C1491	C149	0.088600	0.163200	0.112900
H971	H97	0.101600	0.149300	0.151800
C1501	C150	0.023600	0.165700	0.102000
C1511	C151	0.983300	0.139600	0.142100
H981	H98	0.997700	0.120800	0.178300
C1521	C152	0.921000	0.140600	0.130000
H991	H99	0.894800	0.120200	0.157300
C1531	C153	0.936400	0.195200	0.044000
H1001	H100	0.920800	0.217300	0.010300
C1541	C154	0.998100	0.192800	0.050200
H1011	H101	0.023300	0.209500	0.019500
C1551	C155	0.116800	0.303300	0.949100
C1561	C156	0.079600	0.360800	0.955400
C1571	C157	0.108400	0.412500	0.977500
H1021	H102	0.149000	0.410500	0.990500
C1581	C158	0.076700	0.467200	0.980500
H1031	H103	0.096200	0.502200	0.995500
C1591	C159	0.015800	0.470400	0.961200
C1601	C160	0.987200	0.417800	0.943000
H1041	H104	0.945800	0.418800	0.932800
C1611	C161	0.019000	0.362600	0.939500
H1051	H105	0.999000	0.327100	0.926400
N141	N14	0.897100	0.169400	0.081000
Cd81	Cd8	0.689530	0.706390	0.428900
O221	O22	0.791820	0.711900	0.423700
N151	N15	0.728860	0.688800	0.528500
C1621	C162	0.822500	0.704200	0.474800
O231	O23	0.591000	0.754370	0.432400
C1631	C163	0.885400	0.708700	0.479000
H1061	H106	0.908000	0.718700	0.443600
O241	O24	0.672300	0.806000	0.460000
C1641	C164	0.916000	0.698500	0.535100
H1071	H107	0.958600	0.701500	0.536100
C1651	C165	0.886800	0.684800	0.586200
H1081	H108	0.908800	0.677700	0.622700
C1661	C166	0.822500	0.680600	0.587000
C1671	C167	0.790700	0.691100	0.531100
C1681	C168	0.787900	0.669800	0.640200
H1091	H109	0.807600	0.662500	0.678000
C1691	C169	0.725200	0.669500	0.637800
H1101	H110	0.702200	0.663400	0.673900
C1701	C170	0.696500	0.678400	0.580900
C1711	C171	0.631100	0.678900	0.572400
H1111	H111	0.617200	0.691900	0.533500
C1721	C172	0.588600	0.663200	0.612900
H1121	H112	0.601600	0.649300	0.651800
C1731	C173	0.523600	0.665700	0.602000
C1741	C174	0.483300	0.639600	0.642100
H1131	H113	0.497700	0.620800	0.678300
C1751	C175	0.421000	0.640600	0.630000
H1141	H114	0.394800	0.620200	0.657300
C1761	C176	0.436400	0.695200	0.544000
H1151	H115	0.420800	0.717300	0.510300
C1771	C177	0.498100	0.692800	0.550200
H1161	H116	0.523300	0.709500	0.519500
C1781	C178	0.616800	0.803300	0.449100
C1791	C179	0.579600	0.860800	0.455400
C1801	C180	0.608400	0.912500	0.477500
H1171	H117	0.649000	0.910500	0.490500
C1811	C181	0.576700	0.967200	0.480500
H1181	H118	0.596200	0.002200	0.495500
C1821	C182	0.515800	0.970400	0.461200
C1831	C183	0.487200	0.917800	0.443000
H1191	H119	0.445800	0.918800	0.432800
C1841	C184	0.519000	0.862600	0.439500
H1201	H120	0.499000	0.827100	0.426400
N161	N16	0.397100	0.669400	0.581000
Cd91	Cd9	0.293610	0.810470	0.678900
O251	O25	0.288100	0.708180	0.673700
N171	N17	0.311200	0.771140	0.778500
C1851	C185	0.295800	0.677500	0.724800
O261	O26	0.245630	0.909000	0.682400
C1861	C186	0.291300	0.614600	0.729000
H1211	H121	0.281300	0.592000	0.693600
O271	O27	0.194000	0.827700	0.710000
C1871	C187	0.301500	0.584000	0.785100
H1221	H122	0.298500	0.541400	0.786100
C1881	C188	0.315200	0.613200	0.836200
H1231	H123	0.322300	0.591200	0.872700
C1891	C189	0.319400	0.677500	0.837000
C1901	C190	0.308900	0.709300	0.781100
C1911	C191	0.330200	0.712100	0.890200
H1241	H124	0.337500	0.692400	0.928000
C1921	C192	0.330500	0.774800	0.887800
H1251	H125	0.336600	0.797800	0.923900
C1931	C193	0.321600	0.803500	0.830900
C1941	C194	0.321100	0.868900	0.822400
H1261	H126	0.308100	0.882800	0.783500
C1951	C195	0.336800	0.911400	0.862900
H1271	H127	0.350700	0.898400	0.901800
C1961	C196	0.334300	0.976400	0.852000
C1971	C197	0.360400	0.016700	0.892100
H1281	H128	0.379200	0.002300	0.928300
C1981	C198	0.359400	0.079000	0.880000
H1291	H129	0.379800	0.105200	0.907300
C1991	C199	0.304800	0.063600	0.794000
H1301	H130	0.282700	0.079200	0.760300
C2001	C200	0.307200	0.001900	0.800200
H1311	H131	0.290500	0.976700	0.769500
C2011	C201	0.196700	0.883200	0.699100
C2021	C202	0.139200	0.920400	0.705400
C2031	C203	0.087500	0.891600	0.727500
H1321	H132	0.089500	0.851000	0.740500
C2041	C204	0.032800	0.923300	0.730500
H1331	H133	0.997800	0.903800	0.745500
C2051	C205	0.029600	0.984200	0.711200
C2061	C206	0.082200	0.012800	0.693000
H1341	H134	0.081200	0.054200	0.682800
C2071	C207	0.137400	0.981000	0.689500
H1351	H135	0.172900	0.001000	0.676400
N181	N18	0.330600	0.102900	0.831000
Cd101	Cd10	0.793610	0.310470	0.178900
O281	O28	0.788100	0.208180	0.173700
N191	N19	0.811200	0.271140	0.278500
C2081	C208	0.795800	0.177500	0.224800
O291	O29	0.745630	0.409000	0.182400
C2091	C209	0.791300	0.114600	0.229000
H1361	H136	0.781300	0.092000	0.193600
O301	O30	0.694000	0.327700	0.210000
C2101	C210	0.801500	0.084000	0.285100
H1371	H137	0.798500	0.041400	0.286100
C2111	C211	0.815200	0.113200	0.336200
H1381	H138	0.822300	0.091200	0.372700
C2121	C212	0.819400	0.177500	0.337000
C2131	C213	0.808900	0.209300	0.281100
C2141	C214	0.830200	0.212100	0.390200
H1391	H139	0.837500	0.192400	0.428000
C2151	C215	0.830500	0.274800	0.387800
H1401	H140	0.836600	0.297800	0.423900
C2161	C216	0.821600	0.303500	0.330900
C2171	C217	0.821100	0.368900	0.322400
H1411	H141	0.808100	0.382800	0.283500
C2181	C218	0.836800	0.411400	0.362900
H1421	H142	0.850700	0.398400	0.401800
C2191	C219	0.834300	0.476400	0.352000
C2201	C220	0.860400	0.516700	0.392100
H1431	H143	0.879200	0.502300	0.428300
C2211	C221	0.859400	0.579000	0.380000
H1441	H144	0.879800	0.605200	0.407300
C2221	C222	0.804800	0.563600	0.294000
H1451	H145	0.782700	0.579200	0.260300
C2231	C223	0.807200	0.501900	0.300200
H1461	H146	0.790500	0.476700	0.269500
C2241	C224	0.696700	0.383200	0.199100
C2251	C225	0.639200	0.420400	0.205400
C2261	C226	0.587500	0.391600	0.227500
H1471	H147	0.589500	0.351000	0.240500
C2271	C227	0.532800	0.423300	0.230500
H1481	H148	0.497800	0.403800	0.245500
C2281	C228	0.529600	0.484200	0.211200
C2291	C229	0.582200	0.512800	0.193000
H1491	H149	0.581200	0.554200	0.182800
C2301	C230	0.637400	0.481000	0.189500
H1501	H150	0.672900	0.501000	0.176400
N201	N20	0.830600	0.602900	0.331000
Cd111	Cd11	0.706390	0.189530	0.678900
O311	O31	0.711900	0.291820	0.673700
N211	N21	0.688800	0.228860	0.778500
C2311	C231	0.704200	0.322500	0.724800
O321	O32	0.754370	0.091000	0.682400
C2321	C232	0.708700	0.385400	0.729000
H1511	H151	0.718700	0.408000	0.693600
O331	O33	0.806000	0.172300	0.710000
C2331	C233	0.698500	0.416000	0.785100
H1521	H152	0.701500	0.458600	0.786100
C2341	C234	0.684800	0.386800	0.836200
H1531	H153	0.677700	0.408800	0.872700
C2351	C235	0.680600	0.322500	0.837000
C2361	C236	0.691100	0.290700	0.781100
C2371	C237	0.669800	0.287900	0.890200
H1541	H154	0.662500	0.307600	0.928000
C2381	C238	0.669500	0.225200	0.887800
H1551	H155	0.663400	0.202200	0.923900
C2391	C239	0.678400	0.196500	0.830900
C2401	C240	0.678900	0.131100	0.822400
H1561	H156	0.691900	0.117200	0.783500
C2411	C241	0.663200	0.088600	0.862900
H1571	H157	0.649300	0.101600	0.901800
C2421	C242	0.665700	0.023600	0.852000
C2431	C243	0.639600	0.983300	0.892100
H1581	H158	0.620800	0.997700	0.928300
C2441	C244	0.640600	0.921000	0.880000
H1591	H159	0.620200	0.894800	0.907300
C2451	C245	0.695200	0.936400	0.794000
H1601	H160	0.717300	0.920800	0.760300
C2461	C246	0.692800	0.998100	0.800200
H1611	H161	0.709500	0.023300	0.769500
C2471	C247	0.803300	0.116800	0.699100
C2481	C248	0.860800	0.079600	0.705400
C2491	C249	0.912500	0.108400	0.727500
H1621	H162	0.910500	0.149000	0.740500
C2501	C250	0.967200	0.076700	0.730500
H1631	H163	0.002200	0.096200	0.745500
C2511	C251	0.970400	0.015800	0.711200
C2521	C252	0.917800	0.987200	0.693000
H1641	H164	0.918800	0.945800	0.682800
C2531	C253	0.862600	0.019000	0.689500
H1651	H165	0.827100	0.999000	0.676400
N221	N22	0.669400	0.897100	0.831000
Cd121	Cd12	0.206390	0.689530	0.178900
O341	O34	0.211900	0.791820	0.173700
N231	N23	0.188800	0.728860	0.278500
C2541	C254	0.204200	0.822500	0.224800
O351	O35	0.254370	0.591000	0.182400
C2551	C255	0.208700	0.885400	0.229000
H1661	H166	0.218700	0.908000	0.193600
O361	O36	0.306000	0.672300	0.210000
C2561	C256	0.198500	0.916000	0.285100
H1671	H167	0.201500	0.958600	0.286100
C2571	C257	0.184800	0.886800	0.336200
H1681	H168	0.177700	0.908800	0.372700
C2581	C258	0.180600	0.822500	0.337000
C2591	C259	0.191100	0.790700	0.281100
C2601	C260	0.169800	0.787900	0.390200
H1691	H169	0.162500	0.807600	0.428000
C2611	C261	0.169500	0.725200	0.387800
H1701	H170	0.163400	0.702200	0.423900
C2621	C262	0.178400	0.696500	0.330900
C2631	C263	0.178900	0.631100	0.322400
H1711	H171	0.191900	0.617200	0.283500
C2641	C264	0.163200	0.588600	0.362900
H1721	H172	0.149300	0.601600	0.401800
C2651	C265	0.165700	0.523600	0.352000
C2661	C266	0.139600	0.483300	0.392100
H1731	H173	0.120800	0.497700	0.428300
C2671	C267	0.140600	0.421000	0.380000
H1741	H174	0.120200	0.394800	0.407300
C2681	C268	0.195200	0.436400	0.294000
H1751	H175	0.217300	0.420800	0.260300
C2691	C269	0.192800	0.498100	0.300200
H1761	H176	0.209500	0.523300	0.269500
C2701	C270	0.303300	0.616800	0.199100
C2711	C271	0.360800	0.579600	0.205400
C2721	C272	0.412500	0.608400	0.227500
H1771	H177	0.410500	0.649000	0.240500
C2731	C273	0.467200	0.576700	0.230500
H1781	H178	0.502200	0.596200	0.245500
C2741	C274	0.470400	0.515800	0.211200
C2751	C275	0.417800	0.487200	0.193000
H1791	H179	0.418800	0.445800	0.182800
C2761	C276	0.362600	0.519000	0.189500
H1801	H180	0.327100	0.499000	0.176400
N241	N24	0.169400	0.397100	0.331000
Cd131	Cd13	0.689530	0.793610	0.821100
O371	O37	0.791820	0.788100	0.826300
N251	N25	0.728860	0.811200	0.721500
C2771	C277	0.822500	0.795800	0.775200
O381	O38	0.591000	0.745630	0.817600
C2781	C278	0.885400	0.791300	0.771000
H1811	H181	0.908000	0.781300	0.806400
O391	O39	0.672300	0.694000	0.790000
C2791	C279	0.916000	0.801500	0.714900
H1821	H182	0.958600	0.798500	0.713900
C2801	C280	0.886800	0.815200	0.663800
H1831	H183	0.908800	0.822300	0.627300
C2811	C281	0.822500	0.819400	0.663000
C2821	C282	0.790700	0.808900	0.718900
C2831	C283	0.787900	0.830200	0.609800
H1841	H184	0.807600	0.837500	0.572000
C2841	C284	0.725200	0.830500	0.612200
H1851	H185	0.702200	0.836600	0.576100
C2851	C285	0.696500	0.821600	0.669100
C2861	C286	0.631100	0.821100	0.677600
H1861	H186	0.617200	0.808100	0.716500
C2871	C287	0.588600	0.836800	0.637100
H1871	H187	0.601600	0.850700	0.598200
C2881	C288	0.523600	0.834300	0.648000
C2891	C289	0.483300	0.860400	0.607900
H1881	H188	0.497700	0.879200	0.571700
C2901	C290	0.421000	0.859400	0.620000
H1891	H189	0.394800	0.879800	0.592700
C2911	C291	0.436400	0.804800	0.706000
H1901	H190	0.420800	0.782700	0.739700
C2921	C292	0.498100	0.807200	0.699800
H1911	H191	0.523300	0.790500	0.730500
C2931	C293	0.616800	0.696700	0.800900
C2941	C294	0.579600	0.639200	0.794600
C2951	C295	0.608400	0.587500	0.772500
H1921	H192	0.649000	0.589500	0.759500
C2961	C296	0.576700	0.532800	0.769500
H1931	H193	0.596200	0.497800	0.754500
C2971	C297	0.515800	0.529600	0.788800
C2981	C298	0.487200	0.582200	0.807000
H1941	H194	0.445800	0.581200	0.817200
C2991	C299	0.519000	0.637400	0.810500
H1951	H195	0.499000	0.672900	0.823600
N261	N26	0.397100	0.830600	0.669000
Cd141	Cd14	0.189530	0.293610	0.321100
O401	O40	0.291820	0.288100	0.326300
N271	N27	0.228860	0.311200	0.221500
C3001	C300	0.322500	0.295800	0.275200
O411	O41	0.091000	0.245630	0.317600
C3011	C301	0.385400	0.291300	0.271000
H1961	H196	0.408000	0.281300	0.306400
O421	O42	0.172300	0.194000	0.290000
C3021	C302	0.416000	0.301500	0.214900
H1971	H197	0.458600	0.298500	0.213900
C3031	C303	0.386800	0.315200	0.163800
H1981	H198	0.408800	0.322300	0.127300
C3041	C304	0.322500	0.319400	0.163000
C3051	C305	0.290700	0.308900	0.218900
C3061	C306	0.287900	0.330200	0.109800
H1991	H199	0.307600	0.337500	0.072000
C3071	C307	0.225200	0.330500	0.112200
H2001	H200	0.202200	0.336600	0.076100
C3081	C308	0.196500	0.321600	0.169100
C3091	C309	0.131100	0.321100	0.177600
H2011	H201	0.117200	0.308100	0.216500
C3101	C310	0.088600	0.336800	0.137100
H2021	H202	0.101600	0.350700	0.098200
C3111	C311	0.023600	0.334300	0.148000
C3121	C312	0.983300	0.360400	0.107900
H2031	H203	0.997700	0.379200	0.071700
C3131	C313	0.921000	0.359400	0.120000
H2041	H204	0.894800	0.379800	0.092700
C3141	C314	0.936400	0.304800	0.206000
H2051	H205	0.920800	0.282700	0.239700
C3151	C315	0.998100	0.307200	0.199800
H2061	H206	0.023300	0.290500	0.230500
C3161	C316	0.116800	0.196700	0.300900
C3171	C317	0.079600	0.139200	0.294600
C3181	C318	0.108400	0.087500	0.272500
H2071	H207	0.149000	0.089500	0.259500
C3191	C319	0.076700	0.032800	0.269500
H2081	H208	0.096200	0.997800	0.254500
C3201	C320	0.015800	0.029600	0.288800
C3211	C321	0.987200	0.082200	0.307000
H2091	H209	0.945800	0.081200	0.317200
C3221	C322	0.019000	0.137400	0.310500
H2101	H210	0.999000	0.172900	0.323600
N281	N28	0.897100	0.330600	0.169000
Cd151	Cd15	0.310470	0.206390	0.821100
O431	O43	0.208180	0.211900	0.826300
N291	N29	0.271140	0.188800	0.721500
C3231	C323	0.177500	0.204200	0.775200
O441	O44	0.409000	0.254370	0.817600
C3241	C324	0.114600	0.208700	0.771000
H2111	H211	0.092000	0.218700	0.806400
O451	O45	0.327700	0.306000	0.790000
C3251	C325	0.084000	0.198500	0.714900
H2121	H212	0.041400	0.201500	0.713900
C3261	C326	0.113200	0.184800	0.663800
H2131	H213	0.091200	0.177700	0.627300
C3271	C327	0.177500	0.180600	0.663000
C3281	C328	0.209300	0.191100	0.718900
C3291	C329	0.212100	0.169800	0.609800
H2141	H214	0.192400	0.162500	0.572000
C3301	C330	0.274800	0.169500	0.612200
H2151	H215	0.297800	0.163400	0.576100
C3311	C331	0.303500	0.178400	0.669100
C3321	C332	0.368900	0.178900	0.677600
H2161	H216	0.382800	0.191900	0.716500
C3331	C333	0.411400	0.163200	0.637100
H2171	H217	0.398400	0.149300	0.598200
C3341	C334	0.476400	0.165700	0.648000
C3351	C335	0.516700	0.139600	0.607900
H2181	H218	0.502300	0.120800	0.571700
C3361	C336	0.579000	0.140600	0.620000
H2191	H219	0.605200	0.120200	0.592700
C3371	C337	0.563600	0.195200	0.706000
H2201	H220	0.579200	0.217300	0.739700
C3381	C338	0.501900	0.192800	0.699800
H2211	H221	0.476700	0.209500	0.730500
C3391	C339	0.383200	0.303300	0.800900
C3401	C340	0.420400	0.360800	0.794600
C3411	C341	0.391600	0.412500	0.772500
H2221	H222	0.351000	0.410500	0.759500
C3421	C342	0.423300	0.467200	0.769500
H2231	H223	0.403800	0.502200	0.754500
C3431	C343	0.484200	0.470400	0.788800
C3441	C344	0.512800	0.417800	0.807000
H2241	H224	0.554200	0.418800	0.817200
C3451	C345	0.481000	0.362600	0.810500
H2251	H225	0.501000	0.327100	0.823600
N301	N30	0.602900	0.169400	0.669000
Cd161	Cd16	0.810470	0.706390	0.321100
O461	O46	0.708180	0.711900	0.326300
N311	N31	0.771140	0.688800	0.221500
C3461	C346	0.677500	0.704200	0.275200
O471	O47	0.909000	0.754370	0.317600
C3471	C347	0.614600	0.708700	0.271000
H2261	H226	0.592000	0.718700	0.306400
O481	O48	0.827700	0.806000	0.290000
C3481	C348	0.584000	0.698500	0.214900
H2271	H227	0.541400	0.701500	0.213900
C3491	C349	0.613200	0.684800	0.163800
H2281	H228	0.591200	0.677700	0.127300
C3501	C350	0.677500	0.680600	0.163000
C3511	C351	0.709300	0.691100	0.218900
C3521	C352	0.712100	0.669800	0.109800
H2291	H229	0.692400	0.662500	0.072000
C3531	C353	0.774800	0.669500	0.112200
H2301	H230	0.797800	0.663400	0.076100
C3541	C354	0.803500	0.678400	0.169100
C3551	C355	0.868900	0.678900	0.177600
H2311	H231	0.882800	0.691900	0.216500
C3561	C356	0.911400	0.663200	0.137100
H2321	H232	0.898400	0.649300	0.098200
C3571	C357	0.976400	0.665700	0.148000
C3581	C358	0.016700	0.639600	0.107900
H2331	H233	0.002300	0.620800	0.071700
C3591	C359	0.079000	0.640600	0.120000
H2341	H234	0.105200	0.620200	0.092700
C3601	C360	0.063600	0.695200	0.206000
H2351	H235	0.079200	0.717300	0.239700
C3611	C361	0.001900	0.692800	0.199800
H2361	H236	0.976700	0.709500	0.230500
C3621	C362	0.883200	0.803300	0.300900
C3631	C363	0.920400	0.860800	0.294600
C3641	C364	0.891600	0.912500	0.272500
H2371	H237	0.851000	0.910500	0.259500
C3651	C365	0.923300	0.967200	0.269500
H2381	H238	0.903800	0.002200	0.254500
C3661	C366	0.984200	0.970400	0.288800
C3671	C367	0.012800	0.917800	0.307000
H2391	H239	0.054200	0.918800	0.317200
C3681	C368	0.981000	0.862600	0.310500
H2401	H240	0.001000	0.827100	0.323600
N321	N32	0.102900	0.669400	0.169000
