data_GUPBEZ02_clean_PM
_symmetry_space_group_name_H-M	'P1'
_cell_length_a	44.061200
_cell_length_b	44.061200
_cell_length_c	44.061200
_cell_angle_alpha	60.000000
_cell_angle_beta	60.000000
_cell_angle_gamma	60.000000
_symmetry_Int_Tables_number 1

loop_
_symmetry_equiv_pos_as_xyz
'x,y,z'

loop_
_atom_site_label
_atom_site_type_symbol
_atom_site_fract_x
_atom_site_fract_y
_atom_site_fract_z
Cu11	Cu1	0.994740	0.852300	0.240160
Cu21	Cu2	0.352300	0.494740	0.912800
Cu31	Cu3	0.740160	0.912800	0.494740
Cu41	Cu4	0.412800	0.240160	0.852300
Cu51	Cu5	0.994740	0.240160	0.912800
Cu61	Cu6	0.352300	0.912800	0.240160
Cu71	Cu7	0.740160	0.494740	0.852300
Cu81	Cu8	0.412800	0.852300	0.494740
Cu91	Cu9	0.994740	0.912800	0.852300
Cu101	Cu10	0.352300	0.240160	0.494740
Cu111	Cu11	0.740160	0.852300	0.912800
Cu121	Cu12	0.412800	0.494740	0.240160
Cu131	Cu13	0.647700	0.505260	0.759840
Cu141	Cu14	0.005260	0.147700	0.087200
Cu151	Cu15	0.587200	0.759840	0.505260
Cu161	Cu16	0.259840	0.087200	0.147700
Cu171	Cu17	0.259840	0.505260	0.087200
Cu181	Cu18	0.587200	0.147700	0.759840
Cu191	Cu19	0.005260	0.759840	0.147700
Cu201	Cu20	0.647700	0.087200	0.505260
Cu211	Cu21	0.587200	0.505260	0.147700
Cu221	Cu22	0.259840	0.147700	0.505260
Cu231	Cu23	0.647700	0.759840	0.087200
Cu241	Cu24	0.005260	0.087200	0.759840
Cu251	Cu25	0.005260	0.147700	0.759840
Cu261	Cu26	0.647700	0.505260	0.087200
Cu271	Cu27	0.259840	0.087200	0.505260
Cu281	Cu28	0.587200	0.759840	0.147700
Cu291	Cu29	0.005260	0.759840	0.087200
Cu301	Cu30	0.647700	0.087200	0.759840
Cu311	Cu31	0.259840	0.505260	0.147700
Cu321	Cu32	0.587200	0.147700	0.505260
Cu331	Cu33	0.005260	0.087200	0.147700
Cu341	Cu34	0.647700	0.759840	0.505260
Cu351	Cu35	0.259840	0.147700	0.087200
Cu361	Cu36	0.587200	0.505260	0.759840
Cu371	Cu37	0.352300	0.494740	0.240160
Cu381	Cu38	0.994740	0.852300	0.912800
Cu391	Cu39	0.412800	0.240160	0.494740
Cu401	Cu40	0.740160	0.912800	0.852300
Cu411	Cu41	0.740160	0.494740	0.912800
Cu421	Cu42	0.412800	0.852300	0.240160
Cu431	Cu43	0.994740	0.240160	0.852300
Cu441	Cu44	0.352300	0.912800	0.494740
Cu451	Cu45	0.412800	0.494740	0.852300
Cu461	Cu46	0.740160	0.852300	0.494740
Cu471	Cu47	0.352300	0.240160	0.912800
Cu481	Cu48	0.994740	0.912800	0.240160
Cu491	Cu49	0.140110	0.640110	0.579670
Cu501	Cu50	0.202560	0.702560	0.392320
Cu511	Cu51	0.140110	0.640110	0.640110
Cu521	Cu52	0.202560	0.702560	0.702560
Cu531	Cu53	0.079670	0.640110	0.640110
Cu541	Cu54	0.892320	0.702560	0.702560
Cu551	Cu55	0.140110	0.579670	0.640110
Cu561	Cu56	0.202560	0.392320	0.702560
Cu571	Cu57	0.859890	0.359890	0.420330
Cu581	Cu58	0.797440	0.297440	0.607680
Cu591	Cu59	0.859890	0.359890	0.359890
Cu601	Cu60	0.797440	0.297440	0.297440
Cu611	Cu61	0.859890	0.420330	0.359890
Cu621	Cu62	0.797440	0.607680	0.297440
Cu631	Cu63	0.920330	0.359890	0.359890
Cu641	Cu64	0.107680	0.297440	0.297440
Cu651	Cu65	0.182810	0.742970	0.331250
Cu661	Cu66	0.030790	0.845990	0.277230
Cu671	Cu67	0.955690	0.871530	0.301250
Cu681	Cu68	0.242970	0.682810	0.742970
Cu691	Cu69	0.345990	0.530790	0.845990
Cu701	Cu70	0.371530	0.455690	0.871530
Cu711	Cu71	0.831250	0.742970	0.682810
Cu721	Cu72	0.777230	0.845990	0.530790
Cu731	Cu73	0.801250	0.871530	0.455690
Cu741	Cu74	0.242970	0.331250	0.742970
Cu751	Cu75	0.345990	0.277230	0.845990
Cu761	Cu76	0.371530	0.301250	0.871530
Cu771	Cu77	0.182810	0.331250	0.742970
Cu781	Cu78	0.030790	0.277230	0.845990
Cu791	Cu79	0.955690	0.301250	0.871530
Cu801	Cu80	0.242970	0.742970	0.331250
Cu811	Cu81	0.345990	0.845990	0.277230
Cu821	Cu82	0.371530	0.871530	0.301250
Cu831	Cu83	0.831250	0.682810	0.742970
Cu841	Cu84	0.777230	0.530790	0.845990
Cu851	Cu85	0.801250	0.455690	0.871530
Cu861	Cu86	0.242970	0.742970	0.682810
Cu871	Cu87	0.345990	0.845990	0.530790
Cu881	Cu88	0.371530	0.871530	0.455690
Cu891	Cu89	0.182810	0.742970	0.742970
Cu901	Cu90	0.030790	0.845990	0.845990
Cu911	Cu91	0.955690	0.871530	0.871530
Cu921	Cu92	0.242970	0.331250	0.682810
Cu931	Cu93	0.345990	0.277230	0.530790
Cu941	Cu94	0.371530	0.301250	0.455690
Cu951	Cu95	0.831250	0.742970	0.742970
Cu961	Cu96	0.777230	0.845990	0.845990
Cu971	Cu97	0.801250	0.871530	0.871530
Cu981	Cu98	0.242970	0.682810	0.331250
Cu991	Cu99	0.345990	0.530790	0.277230
Cu1001	Cu100	0.371530	0.455690	0.301250
Cu1011	Cu101	0.757030	0.317190	0.668750
Cu1021	Cu102	0.654010	0.469210	0.722770
Cu1031	Cu103	0.628470	0.544310	0.698750
Cu1041	Cu104	0.817190	0.257030	0.257030
Cu1051	Cu105	0.969210	0.154010	0.154010
Cu1061	Cu106	0.044310	0.128470	0.128470
Cu1071	Cu107	0.757030	0.668750	0.317190
Cu1081	Cu108	0.654010	0.722770	0.469210
Cu1091	Cu109	0.628470	0.698750	0.544310
Cu1101	Cu110	0.168750	0.257030	0.257030
Cu1111	Cu111	0.222770	0.154010	0.154010
Cu1121	Cu112	0.198750	0.128470	0.128470
Cu1131	Cu113	0.168750	0.317190	0.257030
Cu1141	Cu114	0.222770	0.469210	0.154010
Cu1151	Cu115	0.198750	0.544310	0.128470
Cu1161	Cu116	0.757030	0.257030	0.668750
Cu1171	Cu117	0.654010	0.154010	0.722770
Cu1181	Cu118	0.628470	0.128470	0.698750
Cu1191	Cu119	0.817190	0.668750	0.257030
Cu1201	Cu120	0.969210	0.722770	0.154010
Cu1211	Cu121	0.044310	0.698750	0.128470
Cu1221	Cu122	0.757030	0.257030	0.317190
Cu1231	Cu123	0.654010	0.154010	0.469210
Cu1241	Cu124	0.628470	0.128470	0.544310
Cu1251	Cu125	0.757030	0.317190	0.257030
Cu1261	Cu126	0.654010	0.469210	0.154010
Cu1271	Cu127	0.628470	0.544310	0.128470
Cu1281	Cu128	0.168750	0.257030	0.317190
Cu1291	Cu129	0.222770	0.154010	0.469210
Cu1301	Cu130	0.198750	0.128470	0.544310
Cu1311	Cu131	0.757030	0.668750	0.257030
Cu1321	Cu132	0.654010	0.722770	0.154010
Cu1331	Cu133	0.628470	0.698750	0.128470
Cu1341	Cu134	0.817190	0.257030	0.668750
Cu1351	Cu135	0.969210	0.154010	0.722770
Cu1361	Cu136	0.044310	0.128470	0.698750
H11	H1	0.204200	0.670200	0.512000
H21	H2	0.189200	0.724600	0.451200
H31	H3	0.100800	0.786400	0.361400
H41	H4	0.137900	0.827500	0.302700
H51	H5	0.161000	0.816800	0.266200
H61	H6	0.052200	0.786200	0.340000
H71	H7	0.112000	0.849200	0.248600
H81	H8	0.089000	0.859800	0.284800
H91	H9	0.978500	0.870900	0.169700
H101	H10	0.021900	0.855300	0.156900
H111	H11	0.055300	0.800100	0.195300
H121	H12	0.033100	0.775700	0.232500
H131	H13	0.943100	0.835700	0.226300
H141	H14	0.963500	0.798500	0.251700
H151	H15	0.896600	0.923400	0.350000
H161	H16	0.874600	0.928200	0.328000
H171	H17	0.170200	0.704200	0.613600
H181	H18	0.224600	0.689200	0.635000
H191	H19	0.286400	0.600800	0.751400
H201	H20	0.327500	0.637900	0.731900
H211	H21	0.316800	0.661000	0.756000
H221	H22	0.286200	0.552200	0.821600
H231	H23	0.349200	0.612000	0.790200
H241	H24	0.359800	0.589000	0.766400
H251	H25	0.370900	0.478500	0.980900
H261	H26	0.355300	0.521900	0.965900
H271	H27	0.300100	0.555300	0.949300
H281	H28	0.275700	0.533100	0.958700
H291	H29	0.335700	0.443100	0.994900
H301	H30	0.298500	0.463500	0.986300
H311	H31	0.423400	0.396600	0.830000
H321	H32	0.428200	0.374600	0.869200
H331	H33	0.012000	0.613600	0.704200
H341	H34	0.951200	0.635000	0.689200
H351	H35	0.861400	0.751400	0.600800
H361	H36	0.802700	0.731900	0.637900
H371	H37	0.766200	0.756000	0.661000
H381	H38	0.840000	0.821600	0.552200
H391	H39	0.748600	0.790200	0.612000
H401	H40	0.784800	0.766400	0.589000
H411	H41	0.669700	0.980900	0.478500
H421	H42	0.656900	0.965900	0.521900
H431	H43	0.695300	0.949300	0.555300
H441	H44	0.732500	0.958700	0.533100
H451	H45	0.726300	0.994900	0.443100
H461	H46	0.751700	0.986300	0.463500
H471	H47	0.850000	0.830000	0.396600
H481	H48	0.828000	0.869200	0.374600
H491	H49	0.113600	0.512000	0.670200
H501	H50	0.135000	0.451200	0.724600
H511	H51	0.251400	0.361400	0.786400
H521	H52	0.231900	0.302700	0.827500
H531	H53	0.256000	0.266200	0.816800
H541	H54	0.321600	0.340000	0.786200
H551	H55	0.290200	0.248600	0.849200
H561	H56	0.266400	0.284800	0.859800
H571	H57	0.480900	0.169700	0.870900
H581	H58	0.465900	0.156900	0.855300
H591	H59	0.449300	0.195300	0.800100
H601	H60	0.458700	0.232500	0.775700
H611	H61	0.494900	0.226300	0.835700
H621	H62	0.486300	0.251700	0.798500
H631	H63	0.330000	0.350000	0.923400
H641	H64	0.369200	0.328000	0.928200
H651	H65	0.204200	0.512000	0.613600
H661	H66	0.189200	0.451200	0.635000
H671	H67	0.100800	0.361400	0.751400
H681	H68	0.137900	0.302700	0.731900
H691	H69	0.161000	0.266200	0.756000
H701	H70	0.052200	0.340000	0.821600
H711	H71	0.112000	0.248600	0.790200
H721	H72	0.089000	0.284800	0.766400
H731	H73	0.978500	0.169700	0.980900
H741	H74	0.021900	0.156900	0.965900
H751	H75	0.055300	0.195300	0.949300
H761	H76	0.033100	0.232500	0.958700
H771	H77	0.943100	0.226300	0.994900
H781	H78	0.963500	0.251700	0.986300
H791	H79	0.896600	0.350000	0.830000
H801	H80	0.874600	0.328000	0.869200
H811	H81	0.170200	0.613600	0.512000
H821	H82	0.224600	0.635000	0.451200
H831	H83	0.286400	0.751400	0.361400
H841	H84	0.327500	0.731900	0.302700
H851	H85	0.316800	0.756000	0.266200
H861	H86	0.286200	0.821600	0.340000
H871	H87	0.349200	0.790200	0.248600
H881	H88	0.359800	0.766400	0.284800
H891	H89	0.370900	0.980900	0.169700
H901	H90	0.355300	0.965900	0.156900
H911	H91	0.300100	0.949300	0.195300
H921	H92	0.275700	0.958700	0.232500
H931	H93	0.335700	0.994900	0.226300
H941	H94	0.298500	0.986300	0.251700
H951	H95	0.423400	0.830000	0.350000
H961	H96	0.428200	0.869200	0.328000
H971	H97	0.012000	0.704200	0.670200
H981	H98	0.951200	0.689200	0.724600
H991	H99	0.861400	0.600800	0.786400
H1001	H100	0.802700	0.637900	0.827500
H1011	H101	0.766200	0.661000	0.816800
H1021	H102	0.840000	0.552200	0.786200
H1031	H103	0.748600	0.612000	0.849200
H1041	H104	0.784800	0.589000	0.859800
H1051	H105	0.669700	0.478500	0.870900
H1061	H106	0.656900	0.521900	0.855300
H1071	H107	0.695300	0.555300	0.800100
H1081	H108	0.732500	0.533100	0.775700
H1091	H109	0.726300	0.443100	0.835700
H1101	H110	0.751700	0.463500	0.798500
H1111	H111	0.850000	0.396600	0.923400
H1121	H112	0.828000	0.374600	0.928200
H1131	H113	0.113600	0.670200	0.704200
H1141	H114	0.135000	0.724600	0.689200
H1151	H115	0.251400	0.786400	0.600800
H1161	H116	0.231900	0.827500	0.637900
H1171	H117	0.256000	0.816800	0.661000
H1181	H118	0.321600	0.786200	0.552200
H1191	H119	0.290200	0.849200	0.612000
H1201	H120	0.266400	0.859800	0.589000
H1211	H121	0.480900	0.870900	0.478500
H1221	H122	0.465900	0.855300	0.521900
H1231	H123	0.449300	0.800100	0.555300
H1241	H124	0.458700	0.775700	0.533100
H1251	H125	0.494900	0.835700	0.443100
H1261	H126	0.486300	0.798500	0.463500
H1271	H127	0.330000	0.923400	0.396600
H1281	H128	0.369200	0.928200	0.374600
H1291	H129	0.204200	0.613600	0.670200
H1301	H130	0.189200	0.635000	0.724600
H1311	H131	0.100800	0.751400	0.786400
H1321	H132	0.137900	0.731900	0.827500
H1331	H133	0.161000	0.756000	0.816800
H1341	H134	0.052200	0.821600	0.786200
H1351	H135	0.112000	0.790200	0.849200
H1361	H136	0.089000	0.766400	0.859800
H1371	H137	0.978500	0.980900	0.870900
H1381	H138	0.021900	0.965900	0.855300
H1391	H139	0.055300	0.949300	0.800100
H1401	H140	0.033100	0.958700	0.775700
H1411	H141	0.943100	0.994900	0.835700
H1421	H142	0.963500	0.986300	0.798500
H1431	H143	0.896600	0.830000	0.923400
H1441	H144	0.874600	0.869200	0.928200
H1451	H145	0.170200	0.512000	0.704200
H1461	H146	0.224600	0.451200	0.689200
H1471	H147	0.286400	0.361400	0.600800
H1481	H148	0.327500	0.302700	0.637900
H1491	H149	0.316800	0.266200	0.661000
H1501	H150	0.286200	0.340000	0.552200
H1511	H151	0.349200	0.248600	0.612000
H1521	H152	0.359800	0.284800	0.589000
H1531	H153	0.370900	0.169700	0.478500
H1541	H154	0.355300	0.156900	0.521900
H1551	H155	0.300100	0.195300	0.555300
H1561	H156	0.275700	0.232500	0.533100
H1571	H157	0.335700	0.226300	0.443100
H1581	H158	0.298500	0.251700	0.463500
H1591	H159	0.423400	0.350000	0.396600
H1601	H160	0.428200	0.328000	0.374600
H1611	H161	0.012000	0.670200	0.613600
H1621	H162	0.951200	0.724600	0.635000
H1631	H163	0.861400	0.786400	0.751400
H1641	H164	0.802700	0.827500	0.731900
H1651	H165	0.766200	0.816800	0.756000
H1661	H166	0.840000	0.786200	0.821600
H1671	H167	0.748600	0.849200	0.790200
H1681	H168	0.784800	0.859800	0.766400
H1691	H169	0.669700	0.870900	0.980900
H1701	H170	0.656900	0.855300	0.965900
H1711	H171	0.695300	0.800100	0.949300
H1721	H172	0.732500	0.775700	0.958700
H1731	H173	0.726300	0.835700	0.994900
H1741	H174	0.751700	0.798500	0.986300
H1751	H175	0.850000	0.923400	0.830000
H1761	H176	0.828000	0.928200	0.869200
H1771	H177	0.113600	0.704200	0.512000
H1781	H178	0.135000	0.689200	0.451200
H1791	H179	0.251400	0.600800	0.361400
H1801	H180	0.231900	0.637900	0.302700
H1811	H181	0.256000	0.661000	0.266200
H1821	H182	0.321600	0.552200	0.340000
H1831	H183	0.290200	0.612000	0.248600
H1841	H184	0.266400	0.589000	0.284800
H1851	H185	0.480900	0.478500	0.169700
H1861	H186	0.465900	0.521900	0.156900
H1871	H187	0.449300	0.555300	0.195300
H1881	H188	0.458700	0.533100	0.232500
H1891	H189	0.494900	0.443100	0.226300
H1901	H190	0.486300	0.463500	0.251700
H1911	H191	0.330000	0.396600	0.350000
H1921	H192	0.369200	0.374600	0.328000
H1931	H193	0.829800	0.295800	0.488000
H1941	H194	0.775400	0.310800	0.548800
H1951	H195	0.713600	0.399200	0.638600
H1961	H196	0.672500	0.362100	0.697300
H1971	H197	0.683200	0.339000	0.733800
H1981	H198	0.713800	0.447800	0.660000
H1991	H199	0.650800	0.388000	0.751400
H2001	H200	0.640200	0.411000	0.715200
H2011	H201	0.629100	0.521500	0.830300
H2021	H202	0.644700	0.478100	0.843100
H2031	H203	0.699900	0.444700	0.804700
H2041	H204	0.724300	0.466900	0.767500
H2051	H205	0.664300	0.556900	0.773700
H2061	H206	0.701500	0.536500	0.748300
H2071	H207	0.576600	0.603400	0.650000
H2081	H208	0.571800	0.625400	0.672000
H2091	H209	0.795800	0.329800	0.386400
H2101	H210	0.810800	0.275400	0.365000
H2111	H211	0.899200	0.213600	0.248600
H2121	H212	0.862100	0.172500	0.268100
H2131	H213	0.839000	0.183200	0.244000
H2141	H214	0.947800	0.213800	0.178400
H2151	H215	0.888000	0.150800	0.209800
H2161	H216	0.911000	0.140200	0.233600
H2171	H217	0.021500	0.129100	0.019100
H2181	H218	0.978100	0.144700	0.034100
H2191	H219	0.944700	0.199900	0.050700
H2201	H220	0.966900	0.224300	0.041300
H2211	H221	0.056900	0.164300	0.005100
H2221	H222	0.036500	0.201500	0.013700
H2231	H223	0.103400	0.076600	0.170000
H2241	H224	0.125400	0.071800	0.130800
H2251	H225	0.886400	0.488000	0.295800
H2261	H226	0.865000	0.548800	0.310800
H2271	H227	0.748600	0.638600	0.399200
H2281	H228	0.768100	0.697300	0.362100
H2291	H229	0.744000	0.733800	0.339000
H2301	H230	0.678400	0.660000	0.447800
H2311	H231	0.709800	0.751400	0.388000
H2321	H232	0.733600	0.715200	0.411000
H2331	H233	0.519100	0.830300	0.521500
H2341	H234	0.534100	0.843100	0.478100
H2351	H235	0.550700	0.804700	0.444700
H2361	H236	0.541300	0.767500	0.466900
H2371	H237	0.505100	0.773700	0.556900
H2381	H238	0.513700	0.748300	0.536500
H2391	H239	0.670000	0.650000	0.603400
H2401	H240	0.630800	0.672000	0.625400
H2411	H241	0.988000	0.386400	0.329800
H2421	H242	0.048800	0.365000	0.275400
H2431	H243	0.138600	0.248600	0.213600
H2441	H244	0.197300	0.268100	0.172500
H2451	H245	0.233800	0.244000	0.183200
H2461	H246	0.160000	0.178400	0.213800
H2471	H247	0.251400	0.209800	0.150800
H2481	H248	0.215200	0.233600	0.140200
H2491	H249	0.330300	0.019100	0.129100
H2501	H250	0.343100	0.034100	0.144700
H2511	H251	0.304700	0.050700	0.199900
H2521	H252	0.267500	0.041300	0.224300
H2531	H253	0.273700	0.005100	0.164300
H2541	H254	0.248300	0.013700	0.201500
H2551	H255	0.150000	0.170000	0.076600
H2561	H256	0.172000	0.130800	0.071800
H2571	H257	0.988000	0.295800	0.386400
H2581	H258	0.048800	0.310800	0.365000
H2591	H259	0.138600	0.399200	0.248600
H2601	H260	0.197300	0.362100	0.268100
H2611	H261	0.233800	0.339000	0.244000
H2621	H262	0.160000	0.447800	0.178400
H2631	H263	0.251400	0.388000	0.209800
H2641	H264	0.215200	0.411000	0.233600
H2651	H265	0.330300	0.521500	0.019100
H2661	H266	0.343100	0.478100	0.034100
H2671	H267	0.304700	0.444700	0.050700
H2681	H268	0.267500	0.466900	0.041300
H2691	H269	0.273700	0.556900	0.005100
H2701	H270	0.248300	0.536500	0.013700
H2711	H271	0.150000	0.603400	0.170000
H2721	H272	0.172000	0.625400	0.130800
H2731	H273	0.886400	0.329800	0.488000
H2741	H274	0.865000	0.275400	0.548800
H2751	H275	0.748600	0.213600	0.638600
H2761	H276	0.768100	0.172500	0.697300
H2771	H277	0.744000	0.183200	0.733800
H2781	H278	0.678400	0.213800	0.660000
H2791	H279	0.709800	0.150800	0.751400
H2801	H280	0.733600	0.140200	0.715200
H2811	H281	0.519100	0.129100	0.830300
H2821	H282	0.534100	0.144700	0.843100
H2831	H283	0.550700	0.199900	0.804700
H2841	H284	0.541300	0.224300	0.767500
H2851	H285	0.505100	0.164300	0.773700
H2861	H286	0.513700	0.201500	0.748300
H2871	H287	0.670000	0.076600	0.650000
H2881	H288	0.630800	0.071800	0.672000
H2891	H289	0.795800	0.488000	0.329800
H2901	H290	0.810800	0.548800	0.275400
H2911	H291	0.899200	0.638600	0.213600
H2921	H292	0.862100	0.697300	0.172500
H2931	H293	0.839000	0.733800	0.183200
H2941	H294	0.947800	0.660000	0.213800
H2951	H295	0.888000	0.751400	0.150800
H2961	H296	0.911000	0.715200	0.140200
H2971	H297	0.021500	0.830300	0.129100
H2981	H298	0.978100	0.843100	0.144700
H2991	H299	0.944700	0.804700	0.199900
H3001	H300	0.966900	0.767500	0.224300
H3011	H301	0.056900	0.773700	0.164300
H3021	H302	0.036500	0.748300	0.201500
H3031	H303	0.103400	0.650000	0.076600
H3041	H304	0.125400	0.672000	0.071800
H3051	H305	0.829800	0.386400	0.295800
H3061	H306	0.775400	0.365000	0.310800
H3071	H307	0.713600	0.248600	0.399200
H3081	H308	0.672500	0.268100	0.362100
H3091	H309	0.683200	0.244000	0.339000
H3101	H310	0.713800	0.178400	0.447800
H3111	H311	0.650800	0.209800	0.388000
H3121	H312	0.640200	0.233600	0.411000
H3131	H313	0.629100	0.019100	0.521500
H3141	H314	0.644700	0.034100	0.478100
H3151	H315	0.699900	0.050700	0.444700
H3161	H316	0.724300	0.041300	0.466900
H3171	H317	0.664300	0.005100	0.556900
H3181	H318	0.701500	0.013700	0.536500
H3191	H319	0.576600	0.170000	0.603400
H3201	H320	0.571800	0.130800	0.625400
H3211	H321	0.886400	0.295800	0.329800
H3221	H322	0.865000	0.310800	0.275400
H3231	H323	0.748600	0.399200	0.213600
H3241	H324	0.768100	0.362100	0.172500
H3251	H325	0.744000	0.339000	0.183200
H3261	H326	0.678400	0.447800	0.213800
H3271	H327	0.709800	0.388000	0.150800
H3281	H328	0.733600	0.411000	0.140200
H3291	H329	0.519100	0.521500	0.129100
H3301	H330	0.534100	0.478100	0.144700
H3311	H331	0.550700	0.444700	0.199900
H3321	H332	0.541300	0.466900	0.224300
H3331	H333	0.505100	0.556900	0.164300
H3341	H334	0.513700	0.536500	0.201500
H3351	H335	0.670000	0.603400	0.076600
H3361	H336	0.630800	0.625400	0.071800
H3371	H337	0.988000	0.329800	0.295800
H3381	H338	0.048800	0.275400	0.310800
H3391	H339	0.138600	0.213600	0.399200
H3401	H340	0.197300	0.172500	0.362100
H3411	H341	0.233800	0.183200	0.339000
H3421	H342	0.160000	0.213800	0.447800
H3431	H343	0.251400	0.150800	0.388000
H3441	H344	0.215200	0.140200	0.411000
H3451	H345	0.330300	0.129100	0.521500
H3461	H346	0.343100	0.144700	0.478100
H3471	H347	0.304700	0.199900	0.444700
H3481	H348	0.267500	0.224300	0.466900
H3491	H349	0.273700	0.164300	0.556900
H3501	H350	0.248300	0.201500	0.536500
H3511	H351	0.150000	0.076600	0.603400
H3521	H352	0.172000	0.071800	0.625400
H3531	H353	0.829800	0.488000	0.386400
H3541	H354	0.775400	0.548800	0.365000
H3551	H355	0.713600	0.638600	0.248600
H3561	H356	0.672500	0.697300	0.268100
H3571	H357	0.683200	0.733800	0.244000
H3581	H358	0.713800	0.660000	0.178400
H3591	H359	0.650800	0.751400	0.209800
H3601	H360	0.640200	0.715200	0.233600
H3611	H361	0.629100	0.830300	0.019100
H3621	H362	0.644700	0.843100	0.034100
H3631	H363	0.699900	0.804700	0.050700
H3641	H364	0.724300	0.767500	0.041300
H3651	H365	0.664300	0.773700	0.005100
H3661	H366	0.701500	0.748300	0.013700
H3671	H367	0.576600	0.650000	0.170000
H3681	H368	0.571800	0.672000	0.130800
H3691	H369	0.795800	0.386400	0.488000
H3701	H370	0.810800	0.365000	0.548800
H3711	H371	0.899200	0.248600	0.638600
H3721	H372	0.862100	0.268100	0.697300
H3731	H373	0.839000	0.244000	0.733800
H3741	H374	0.947800	0.178400	0.660000
H3751	H375	0.888000	0.209800	0.751400
H3761	H376	0.911000	0.233600	0.715200
H3771	H377	0.021500	0.019100	0.830300
H3781	H378	0.978100	0.034100	0.843100
H3791	H379	0.944700	0.050700	0.804700
H3801	H380	0.966900	0.041300	0.767500
H3811	H381	0.056900	0.005100	0.773700
H3821	H382	0.036500	0.013700	0.748300
H3831	H383	0.103400	0.170000	0.650000
H3841	H384	0.125400	0.130800	0.672000
H3851	H385	0.795800	0.329800	0.488000
H3861	H386	0.810800	0.275400	0.548800
H3871	H387	0.899200	0.213600	0.638600
H3881	H388	0.862100	0.172500	0.697300
H3891	H389	0.839000	0.183200	0.733800
H3901	H390	0.947800	0.213800	0.660000
H3911	H391	0.888000	0.150800	0.751400
H3921	H392	0.911000	0.140200	0.715200
H3931	H393	0.021500	0.129100	0.830300
H3941	H394	0.978100	0.144700	0.843100
H3951	H395	0.944700	0.199900	0.804700
H3961	H396	0.966900	0.224300	0.767500
H3971	H397	0.056900	0.164300	0.773700
H3981	H398	0.036500	0.201500	0.748300
H3991	H399	0.103400	0.076600	0.650000
H4001	H400	0.125400	0.071800	0.672000
H4011	H401	0.829800	0.295800	0.386400
H4021	H402	0.775400	0.310800	0.365000
H4031	H403	0.713600	0.399200	0.248600
H4041	H404	0.672500	0.362100	0.268100
H4051	H405	0.683200	0.339000	0.244000
H4061	H406	0.713800	0.447800	0.178400
H4071	H407	0.650800	0.388000	0.209800
H4081	H408	0.640200	0.411000	0.233600
H4091	H409	0.629100	0.521500	0.019100
H4101	H410	0.644700	0.478100	0.034100
H4111	H411	0.699900	0.444700	0.050700
H4121	H412	0.724300	0.466900	0.041300
H4131	H413	0.664300	0.556900	0.005100
H4141	H414	0.701500	0.536500	0.013700
H4151	H415	0.576600	0.603400	0.170000
H4161	H416	0.571800	0.625400	0.130800
H4171	H417	0.988000	0.386400	0.295800
H4181	H418	0.048800	0.365000	0.310800
H4191	H419	0.138600	0.248600	0.399200
H4201	H420	0.197300	0.268100	0.362100
H4211	H421	0.233800	0.244000	0.339000
H4221	H422	0.160000	0.178400	0.447800
H4231	H423	0.251400	0.209800	0.388000
H4241	H424	0.215200	0.233600	0.411000
H4251	H425	0.330300	0.019100	0.521500
H4261	H426	0.343100	0.034100	0.478100
H4271	H427	0.304700	0.050700	0.444700
H4281	H428	0.267500	0.041300	0.466900
H4291	H429	0.273700	0.005100	0.556900
H4301	H430	0.248300	0.013700	0.536500
H4311	H431	0.150000	0.170000	0.603400
H4321	H432	0.172000	0.130800	0.625400
H4331	H433	0.886400	0.488000	0.329800
H4341	H434	0.865000	0.548800	0.275400
H4351	H435	0.748600	0.638600	0.213600
H4361	H436	0.768100	0.697300	0.172500
H4371	H437	0.744000	0.733800	0.183200
H4381	H438	0.678400	0.660000	0.213800
H4391	H439	0.709800	0.751400	0.150800
H4401	H440	0.733600	0.715200	0.140200
H4411	H441	0.519100	0.830300	0.129100
H4421	H442	0.534100	0.843100	0.144700
H4431	H443	0.550700	0.804700	0.199900
H4441	H444	0.541300	0.767500	0.224300
H4451	H445	0.505100	0.773700	0.164300
H4461	H446	0.513700	0.748300	0.201500
H4471	H447	0.670000	0.650000	0.076600
H4481	H448	0.630800	0.672000	0.071800
H4491	H449	0.795800	0.488000	0.386400
H4501	H450	0.810800	0.548800	0.365000
H4511	H451	0.899200	0.638600	0.248600
H4521	H452	0.862100	0.697300	0.268100
H4531	H453	0.839000	0.733800	0.244000
H4541	H454	0.947800	0.660000	0.178400
H4551	H455	0.888000	0.751400	0.209800
H4561	H456	0.911000	0.715200	0.233600
H4571	H457	0.021500	0.830300	0.019100
H4581	H458	0.978100	0.843100	0.034100
H4591	H459	0.944700	0.804700	0.050700
H4601	H460	0.966900	0.767500	0.041300
H4611	H461	0.056900	0.773700	0.005100
H4621	H462	0.036500	0.748300	0.013700
H4631	H463	0.103400	0.650000	0.170000
H4641	H464	0.125400	0.672000	0.130800
H4651	H465	0.829800	0.386400	0.488000
H4661	H466	0.775400	0.365000	0.548800
H4671	H467	0.713600	0.248600	0.638600
H4681	H468	0.672500	0.268100	0.697300
H4691	H469	0.683200	0.244000	0.733800
H4701	H470	0.713800	0.178400	0.660000
H4711	H471	0.650800	0.209800	0.751400
H4721	H472	0.640200	0.233600	0.715200
H4731	H473	0.629100	0.019100	0.830300
H4741	H474	0.644700	0.034100	0.843100
H4751	H475	0.699900	0.050700	0.804700
H4761	H476	0.724300	0.041300	0.767500
H4771	H477	0.664300	0.005100	0.773700
H4781	H478	0.701500	0.013700	0.748300
H4791	H479	0.576600	0.170000	0.650000
H4801	H480	0.571800	0.130800	0.672000
H4811	H481	0.988000	0.295800	0.329800
H4821	H482	0.048800	0.310800	0.275400
H4831	H483	0.138600	0.399200	0.213600
H4841	H484	0.197300	0.362100	0.172500
H4851	H485	0.233800	0.339000	0.183200
H4861	H486	0.160000	0.447800	0.213800
H4871	H487	0.251400	0.388000	0.150800
H4881	H488	0.215200	0.411000	0.140200
H4891	H489	0.330300	0.521500	0.129100
H4901	H490	0.343100	0.478100	0.144700
H4911	H491	0.304700	0.444700	0.199900
H4921	H492	0.267500	0.466900	0.224300
H4931	H493	0.273700	0.556900	0.164300
H4941	H494	0.248300	0.536500	0.201500
H4951	H495	0.150000	0.603400	0.076600
H4961	H496	0.172000	0.625400	0.071800
H4971	H497	0.886400	0.329800	0.295800
H4981	H498	0.865000	0.275400	0.310800
H4991	H499	0.748600	0.213600	0.399200
H5001	H500	0.768100	0.172500	0.362100
H5011	H501	0.744000	0.183200	0.339000
H5021	H502	0.678400	0.213800	0.447800
H5031	H503	0.709800	0.150800	0.388000
H5041	H504	0.733600	0.140200	0.411000
H5051	H505	0.519100	0.129100	0.521500
H5061	H506	0.534100	0.144700	0.478100
H5071	H507	0.550700	0.199900	0.444700
H5081	H508	0.541300	0.224300	0.466900
H5091	H509	0.505100	0.164300	0.556900
H5101	H510	0.513700	0.201500	0.536500
H5111	H511	0.670000	0.076600	0.603400
H5121	H512	0.630800	0.071800	0.625400
H5131	H513	0.795800	0.386400	0.329800
H5141	H514	0.810800	0.365000	0.275400
H5151	H515	0.899200	0.248600	0.213600
H5161	H516	0.862100	0.268100	0.172500
H5171	H517	0.839000	0.244000	0.183200
H5181	H518	0.947800	0.178400	0.213800
H5191	H519	0.888000	0.209800	0.150800
H5201	H520	0.911000	0.233600	0.140200
H5211	H521	0.021500	0.019100	0.129100
H5221	H522	0.978100	0.034100	0.144700
H5231	H523	0.944700	0.050700	0.199900
H5241	H524	0.966900	0.041300	0.224300
H5251	H525	0.056900	0.005100	0.164300
H5261	H526	0.036500	0.013700	0.201500
H5271	H527	0.103400	0.170000	0.076600
H5281	H528	0.125400	0.130800	0.071800
H5291	H529	0.829800	0.488000	0.295800
H5301	H530	0.775400	0.548800	0.310800
H5311	H531	0.713600	0.638600	0.399200
H5321	H532	0.672500	0.697300	0.362100
H5331	H533	0.683200	0.733800	0.339000
H5341	H534	0.713800	0.660000	0.447800
H5351	H535	0.650800	0.751400	0.388000
H5361	H536	0.640200	0.715200	0.411000
H5371	H537	0.629100	0.830300	0.521500
H5381	H538	0.644700	0.843100	0.478100
H5391	H539	0.699900	0.804700	0.444700
H5401	H540	0.724300	0.767500	0.466900
H5411	H541	0.664300	0.773700	0.556900
H5421	H542	0.701500	0.748300	0.536500
H5431	H543	0.576600	0.650000	0.603400
H5441	H544	0.571800	0.672000	0.625400
H5451	H545	0.988000	0.329800	0.386400
H5461	H546	0.048800	0.275400	0.365000
H5471	H547	0.138600	0.213600	0.248600
H5481	H548	0.197300	0.172500	0.268100
H5491	H549	0.233800	0.183200	0.244000
H5501	H550	0.160000	0.213800	0.178400
H5511	H551	0.251400	0.150800	0.209800
H5521	H552	0.215200	0.140200	0.233600
H5531	H553	0.330300	0.129100	0.019100
H5541	H554	0.343100	0.144700	0.034100
H5551	H555	0.304700	0.199900	0.050700
H5561	H556	0.267500	0.224300	0.041300
H5571	H557	0.273700	0.164300	0.005100
H5581	H558	0.248300	0.201500	0.013700
H5591	H559	0.150000	0.076600	0.170000
H5601	H560	0.172000	0.071800	0.130800
H5611	H561	0.886400	0.295800	0.488000
H5621	H562	0.865000	0.310800	0.548800
H5631	H563	0.748600	0.399200	0.638600
H5641	H564	0.768100	0.362100	0.697300
H5651	H565	0.744000	0.339000	0.733800
H5661	H566	0.678400	0.447800	0.660000
H5671	H567	0.709800	0.388000	0.751400
H5681	H568	0.733600	0.411000	0.715200
H5691	H569	0.519100	0.521500	0.830300
H5701	H570	0.534100	0.478100	0.843100
H5711	H571	0.550700	0.444700	0.804700
H5721	H572	0.541300	0.466900	0.767500
H5731	H573	0.505100	0.556900	0.773700
H5741	H574	0.513700	0.536500	0.748300
H5751	H575	0.670000	0.603400	0.650000
H5761	H576	0.630800	0.625400	0.672000
H5771	H577	0.170200	0.704200	0.512000
H5781	H578	0.224600	0.689200	0.451200
H5791	H579	0.286400	0.600800	0.361400
H5801	H580	0.327500	0.637900	0.302700
H5811	H581	0.316800	0.661000	0.266200
H5821	H582	0.286200	0.552200	0.340000
H5831	H583	0.349200	0.612000	0.248600
H5841	H584	0.359800	0.589000	0.284800
H5851	H585	0.370900	0.478500	0.169700
H5861	H586	0.355300	0.521900	0.156900
H5871	H587	0.300100	0.555300	0.195300
H5881	H588	0.275700	0.533100	0.232500
H5891	H589	0.335700	0.443100	0.226300
H5901	H590	0.298500	0.463500	0.251700
H5911	H591	0.423400	0.396600	0.350000
H5921	H592	0.428200	0.374600	0.328000
H5931	H593	0.204200	0.670200	0.613600
H5941	H594	0.189200	0.724600	0.635000
H5951	H595	0.100800	0.786400	0.751400
H5961	H596	0.137900	0.827500	0.731900
H5971	H597	0.161000	0.816800	0.756000
H5981	H598	0.052200	0.786200	0.821600
H5991	H599	0.112000	0.849200	0.790200
H6001	H600	0.089000	0.859800	0.766400
H6011	H601	0.978500	0.870900	0.980900
H6021	H602	0.021900	0.855300	0.965900
H6031	H603	0.055300	0.800100	0.949300
H6041	H604	0.033100	0.775700	0.958700
H6051	H605	0.943100	0.835700	0.994900
H6061	H606	0.963500	0.798500	0.986300
H6071	H607	0.896600	0.923400	0.830000
H6081	H608	0.874600	0.928200	0.869200
H6091	H609	0.113600	0.512000	0.704200
H6101	H610	0.135000	0.451200	0.689200
H6111	H611	0.251400	0.361400	0.600800
H6121	H612	0.231900	0.302700	0.637900
H6131	H613	0.256000	0.266200	0.661000
H6141	H614	0.321600	0.340000	0.552200
H6151	H615	0.290200	0.248600	0.612000
H6161	H616	0.266400	0.284800	0.589000
H6171	H617	0.480900	0.169700	0.478500
H6181	H618	0.465900	0.156900	0.521900
H6191	H619	0.449300	0.195300	0.555300
H6201	H620	0.458700	0.232500	0.533100
H6211	H621	0.494900	0.226300	0.443100
H6221	H622	0.486300	0.251700	0.463500
H6231	H623	0.330000	0.350000	0.396600
H6241	H624	0.369200	0.328000	0.374600
H6251	H625	0.012000	0.613600	0.670200
H6261	H626	0.951200	0.635000	0.724600
H6271	H627	0.861400	0.751400	0.786400
H6281	H628	0.802700	0.731900	0.827500
H6291	H629	0.766200	0.756000	0.816800
H6301	H630	0.840000	0.821600	0.786200
H6311	H631	0.748600	0.790200	0.849200
H6321	H632	0.784800	0.766400	0.859800
H6331	H633	0.669700	0.980900	0.870900
H6341	H634	0.656900	0.965900	0.855300
H6351	H635	0.695300	0.949300	0.800100
H6361	H636	0.732500	0.958700	0.775700
H6371	H637	0.726300	0.994900	0.835700
H6381	H638	0.751700	0.986300	0.798500
H6391	H639	0.850000	0.830000	0.923400
H6401	H640	0.828000	0.869200	0.928200
H6411	H641	0.012000	0.704200	0.613600
H6421	H642	0.951200	0.689200	0.635000
H6431	H643	0.861400	0.600800	0.751400
H6441	H644	0.802700	0.637900	0.731900
H6451	H645	0.766200	0.661000	0.756000
H6461	H646	0.840000	0.552200	0.821600
H6471	H647	0.748600	0.612000	0.790200
H6481	H648	0.784800	0.589000	0.766400
H6491	H649	0.669700	0.478500	0.980900
H6501	H650	0.656900	0.521900	0.965900
H6511	H651	0.695300	0.555300	0.949300
H6521	H652	0.732500	0.533100	0.958700
H6531	H653	0.726300	0.443100	0.994900
H6541	H654	0.751700	0.463500	0.986300
H6551	H655	0.850000	0.396600	0.830000
H6561	H656	0.828000	0.374600	0.869200
H6571	H657	0.113600	0.670200	0.512000
H6581	H658	0.135000	0.724600	0.451200
H6591	H659	0.251400	0.786400	0.361400
H6601	H660	0.231900	0.827500	0.302700
H6611	H661	0.256000	0.816800	0.266200
H6621	H662	0.321600	0.786200	0.340000
H6631	H663	0.290200	0.849200	0.248600
H6641	H664	0.266400	0.859800	0.284800
H6651	H665	0.480900	0.870900	0.169700
H6661	H666	0.465900	0.855300	0.156900
H6671	H667	0.449300	0.800100	0.195300
H6681	H668	0.458700	0.775700	0.232500
H6691	H669	0.494900	0.835700	0.226300
H6701	H670	0.486300	0.798500	0.251700
H6711	H671	0.330000	0.923400	0.350000
H6721	H672	0.369200	0.928200	0.328000
H6731	H673	0.204200	0.512000	0.670200
H6741	H674	0.189200	0.451200	0.724600
H6751	H675	0.100800	0.361400	0.786400
H6761	H676	0.137900	0.302700	0.827500
H6771	H677	0.161000	0.266200	0.816800
H6781	H678	0.052200	0.340000	0.786200
H6791	H679	0.112000	0.248600	0.849200
H6801	H680	0.089000	0.284800	0.859800
H6811	H681	0.978500	0.169700	0.870900
H6821	H682	0.021900	0.156900	0.855300
H6831	H683	0.055300	0.195300	0.800100
H6841	H684	0.033100	0.232500	0.775700
H6851	H685	0.943100	0.226300	0.835700
H6861	H686	0.963500	0.251700	0.798500
H6871	H687	0.896600	0.350000	0.923400
H6881	H688	0.874600	0.328000	0.928200
H6891	H689	0.170200	0.613600	0.704200
H6901	H690	0.224600	0.635000	0.689200
H6911	H691	0.286400	0.751400	0.600800
H6921	H692	0.327500	0.731900	0.637900
H6931	H693	0.316800	0.756000	0.661000
H6941	H694	0.286200	0.821600	0.552200
H6951	H695	0.349200	0.790200	0.612000
H6961	H696	0.359800	0.766400	0.589000
H6971	H697	0.370900	0.980900	0.478500
H6981	H698	0.355300	0.965900	0.521900
H6991	H699	0.300100	0.949300	0.555300
H7001	H700	0.275700	0.958700	0.533100
H7011	H701	0.335700	0.994900	0.443100
H7021	H702	0.298500	0.986300	0.463500
H7031	H703	0.423400	0.830000	0.396600
H7041	H704	0.428200	0.869200	0.374600
H7051	H705	0.113600	0.704200	0.670200
H7061	H706	0.135000	0.689200	0.724600
H7071	H707	0.251400	0.600800	0.786400
H7081	H708	0.231900	0.637900	0.827500
H7091	H709	0.256000	0.661000	0.816800
H7101	H710	0.321600	0.552200	0.786200
H7111	H711	0.290200	0.612000	0.849200
H7121	H712	0.266400	0.589000	0.859800
H7131	H713	0.480900	0.478500	0.870900
H7141	H714	0.465900	0.521900	0.855300
H7151	H715	0.449300	0.555300	0.800100
H7161	H716	0.458700	0.533100	0.775700
H7171	H717	0.494900	0.443100	0.835700
H7181	H718	0.486300	0.463500	0.798500
H7191	H719	0.330000	0.396600	0.923400
H7201	H720	0.369200	0.374600	0.928200
H7211	H721	0.012000	0.670200	0.704200
H7221	H722	0.951200	0.724600	0.689200
H7231	H723	0.861400	0.786400	0.600800
H7241	H724	0.802700	0.827500	0.637900
H7251	H725	0.766200	0.816800	0.661000
H7261	H726	0.840000	0.786200	0.552200
H7271	H727	0.748600	0.849200	0.612000
H7281	H728	0.784800	0.859800	0.589000
H7291	H729	0.669700	0.870900	0.478500
H7301	H730	0.656900	0.855300	0.521900
H7311	H731	0.695300	0.800100	0.555300
H7321	H732	0.732500	0.775700	0.533100
H7331	H733	0.726300	0.835700	0.443100
H7341	H734	0.751700	0.798500	0.463500
H7351	H735	0.850000	0.923400	0.396600
H7361	H736	0.828000	0.928200	0.374600
H7371	H737	0.170200	0.512000	0.613600
H7381	H738	0.224600	0.451200	0.635000
H7391	H739	0.286400	0.361400	0.751400
H7401	H740	0.327500	0.302700	0.731900
H7411	H741	0.316800	0.266200	0.756000
H7421	H742	0.286200	0.340000	0.821600
H7431	H743	0.349200	0.248600	0.790200
H7441	H744	0.359800	0.284800	0.766400
H7451	H745	0.370900	0.169700	0.980900
H7461	H746	0.355300	0.156900	0.965900
H7471	H747	0.300100	0.195300	0.949300
H7481	H748	0.275700	0.232500	0.958700
H7491	H749	0.335700	0.226300	0.994900
H7501	H750	0.298500	0.251700	0.986300
H7511	H751	0.423400	0.350000	0.830000
H7521	H752	0.428200	0.328000	0.869200
H7531	H753	0.204200	0.613600	0.512000
H7541	H754	0.189200	0.635000	0.451200
H7551	H755	0.100800	0.751400	0.361400
H7561	H756	0.137900	0.731900	0.302700
H7571	H757	0.161000	0.756000	0.266200
H7581	H758	0.052200	0.821600	0.340000
H7591	H759	0.112000	0.790200	0.248600
H7601	H760	0.089000	0.766400	0.284800
H7611	H761	0.978500	0.980900	0.169700
H7621	H762	0.021900	0.965900	0.156900
H7631	H763	0.055300	0.949300	0.195300
H7641	H764	0.033100	0.958700	0.232500
H7651	H765	0.943100	0.994900	0.226300
H7661	H766	0.963500	0.986300	0.251700
H7671	H767	0.896600	0.830000	0.350000
H7681	H768	0.874600	0.869200	0.328000
C11	C1	0.138500	0.816700	0.287700
C21	C2	0.103900	0.839100	0.275500
C31	C3	0.999800	0.848400	0.170000
C41	C4	0.033800	0.792400	0.207400
C51	C5	0.965300	0.813900	0.226100
C61	C6	0.882100	0.912700	0.349900
C71	C7	0.316700	0.638500	0.757100
C81	C8	0.339100	0.603900	0.781500
C91	C9	0.348400	0.499800	0.981800
C101	C10	0.292400	0.533800	0.966400
C111	C11	0.313900	0.465300	0.994700
C121	C12	0.412700	0.382100	0.855300
C131	C13	0.787700	0.757100	0.638500
C141	C14	0.775500	0.781500	0.603900
C151	C15	0.670000	0.981800	0.499800
C161	C16	0.707400	0.966400	0.533800
C171	C17	0.726100	0.994700	0.465300
C181	C18	0.849900	0.855300	0.382100
C191	C19	0.257100	0.287700	0.816700
C201	C20	0.281500	0.275500	0.839100
C211	C21	0.481800	0.170000	0.848400
C221	C22	0.466400	0.207400	0.792400
C231	C23	0.494700	0.226100	0.813900
C241	C24	0.355300	0.349900	0.912700
C251	C25	0.138500	0.287700	0.757100
C261	C26	0.103900	0.275500	0.781500
C271	C27	0.999800	0.170000	0.981800
C281	C28	0.033800	0.207400	0.966400
C291	C29	0.965300	0.226100	0.994700
C301	C30	0.882100	0.349900	0.855300
C311	C31	0.316700	0.757100	0.287700
C321	C32	0.339100	0.781500	0.275500
C331	C33	0.348400	0.981800	0.170000
C341	C34	0.292400	0.966400	0.207400
C351	C35	0.313900	0.994700	0.226100
C361	C36	0.412700	0.855300	0.349900
C371	C37	0.787700	0.638500	0.816700
C381	C38	0.775500	0.603900	0.839100
C391	C39	0.670000	0.499800	0.848400
C401	C40	0.707400	0.533800	0.792400
C411	C41	0.726100	0.465300	0.813900
C421	C42	0.849900	0.382100	0.912700
C431	C43	0.257100	0.816700	0.638500
C441	C44	0.281500	0.839100	0.603900
C451	C45	0.481800	0.848400	0.499800
C461	C46	0.466400	0.792400	0.533800
C471	C47	0.494700	0.813900	0.465300
C481	C48	0.355300	0.912700	0.382100
C491	C49	0.138500	0.757100	0.816700
C501	C50	0.103900	0.781500	0.839100
C511	C51	0.999800	0.981800	0.848400
C521	C52	0.033800	0.966400	0.792400
C531	C53	0.965300	0.994700	0.813900
C541	C54	0.882100	0.855300	0.912700
C551	C55	0.316700	0.287700	0.638500
C561	C56	0.339100	0.275500	0.603900
C571	C57	0.348400	0.170000	0.499800
C581	C58	0.292400	0.207400	0.533800
C591	C59	0.313900	0.226100	0.465300
C601	C60	0.412700	0.349900	0.382100
C611	C61	0.787700	0.816700	0.757100
C621	C62	0.775500	0.839100	0.781500
C631	C63	0.670000	0.848400	0.981800
C641	C64	0.707400	0.792400	0.966400
C651	C65	0.726100	0.813900	0.994700
C661	C66	0.849900	0.912700	0.855300
C671	C67	0.257100	0.638500	0.287700
C681	C68	0.281500	0.603900	0.275500
C691	C69	0.481800	0.499800	0.170000
C701	C70	0.466400	0.533800	0.207400
C711	C71	0.494700	0.465300	0.226100
C721	C72	0.355300	0.382100	0.349900
C731	C73	0.683300	0.361500	0.712300
C741	C74	0.660900	0.396100	0.724500
C751	C75	0.651600	0.500200	0.830000
C761	C76	0.707600	0.466200	0.792600
C771	C77	0.686100	0.534700	0.773900
C781	C78	0.587300	0.617900	0.650100
C791	C79	0.861500	0.183300	0.242900
C801	C80	0.896100	0.160900	0.218500
C811	C81	0.000200	0.151600	0.018200
C821	C82	0.966200	0.207600	0.033600
C831	C83	0.034700	0.186100	0.005300
C841	C84	0.117900	0.087300	0.144700
C851	C85	0.742900	0.712300	0.361500
C861	C86	0.718500	0.724500	0.396100
C871	C87	0.518200	0.830000	0.500200
C881	C88	0.533600	0.792600	0.466200
C891	C89	0.505300	0.773900	0.534700
C901	C90	0.644700	0.650100	0.617900
C911	C91	0.212300	0.242900	0.183300
C921	C92	0.224500	0.218500	0.160900
C931	C93	0.330000	0.018200	0.151600
C941	C94	0.292600	0.033600	0.207600
C951	C95	0.273900	0.005300	0.186100
C961	C96	0.150100	0.144700	0.087300
C971	C97	0.212300	0.361500	0.242900
C981	C98	0.224500	0.396100	0.218500
C991	C99	0.330000	0.500200	0.018200
C1001	C100	0.292600	0.466200	0.033600
C1011	C101	0.273900	0.534700	0.005300
C1021	C102	0.150100	0.617900	0.144700
C1031	C103	0.742900	0.183300	0.712300
C1041	C104	0.718500	0.160900	0.724500
C1051	C105	0.518200	0.151600	0.830000
C1061	C106	0.533600	0.207600	0.792600
C1071	C107	0.505300	0.186100	0.773900
C1081	C108	0.644700	0.087300	0.650100
C1091	C109	0.861500	0.712300	0.183300
C1101	C110	0.896100	0.724500	0.160900
C1111	C111	0.000200	0.830000	0.151600
C1121	C112	0.966200	0.792600	0.207600
C1131	C113	0.034700	0.773900	0.186100
C1141	C114	0.117900	0.650100	0.087300
C1151	C115	0.683300	0.242900	0.361500
C1161	C116	0.660900	0.218500	0.396100
C1171	C117	0.651600	0.018200	0.500200
C1181	C118	0.707600	0.033600	0.466200
C1191	C119	0.686100	0.005300	0.534700
C1201	C120	0.587300	0.144700	0.617900
C1211	C121	0.742900	0.361500	0.183300
C1221	C122	0.718500	0.396100	0.160900
C1231	C123	0.518200	0.500200	0.151600
C1241	C124	0.533600	0.466200	0.207600
C1251	C125	0.505300	0.534700	0.186100
C1261	C126	0.644700	0.617900	0.087300
C1271	C127	0.212300	0.183300	0.361500
C1281	C128	0.224500	0.160900	0.396100
C1291	C129	0.330000	0.151600	0.500200
C1301	C130	0.292600	0.207600	0.466200
C1311	C131	0.273900	0.186100	0.534700
C1321	C132	0.150100	0.087300	0.617900
C1331	C133	0.683300	0.712300	0.242900
C1341	C134	0.660900	0.724500	0.218500
C1351	C135	0.651600	0.830000	0.018200
C1361	C136	0.707600	0.792600	0.033600
C1371	C137	0.686100	0.773900	0.005300
C1381	C138	0.587300	0.650100	0.144700
C1391	C139	0.861500	0.242900	0.712300
C1401	C140	0.896100	0.218500	0.724500
C1411	C141	0.000200	0.018200	0.830000
C1421	C142	0.966200	0.033600	0.792600
C1431	C143	0.034700	0.005300	0.773900
C1441	C144	0.117900	0.144700	0.650100
C1451	C145	0.861500	0.183300	0.712300
C1461	C146	0.896100	0.160900	0.724500
C1471	C147	0.000200	0.151600	0.830000
C1481	C148	0.966200	0.207600	0.792600
C1491	C149	0.034700	0.186100	0.773900
C1501	C150	0.117900	0.087300	0.650100
C1511	C151	0.683300	0.361500	0.242900
C1521	C152	0.660900	0.396100	0.218500
C1531	C153	0.651600	0.500200	0.018200
C1541	C154	0.707600	0.466200	0.033600
C1551	C155	0.686100	0.534700	0.005300
C1561	C156	0.587300	0.617900	0.144700
C1571	C157	0.212300	0.242900	0.361500
C1581	C158	0.224500	0.218500	0.396100
C1591	C159	0.330000	0.018200	0.500200
C1601	C160	0.292600	0.033600	0.466200
C1611	C161	0.273900	0.005300	0.534700
C1621	C162	0.150100	0.144700	0.617900
C1631	C163	0.742900	0.712300	0.183300
C1641	C164	0.718500	0.724500	0.160900
C1651	C165	0.518200	0.830000	0.151600
C1661	C166	0.533600	0.792600	0.207600
C1671	C167	0.505300	0.773900	0.186100
C1681	C168	0.644700	0.650100	0.087300
C1691	C169	0.861500	0.712300	0.242900
C1701	C170	0.896100	0.724500	0.218500
C1711	C171	0.000200	0.830000	0.018200
C1721	C172	0.966200	0.792600	0.033600
C1731	C173	0.034700	0.773900	0.005300
C1741	C174	0.117900	0.650100	0.144700
C1751	C175	0.683300	0.242900	0.712300
C1761	C176	0.660900	0.218500	0.724500
C1771	C177	0.651600	0.018200	0.830000
C1781	C178	0.707600	0.033600	0.792600
C1791	C179	0.686100	0.005300	0.773900
C1801	C180	0.587300	0.144700	0.650100
C1811	C181	0.212300	0.361500	0.183300
C1821	C182	0.224500	0.396100	0.160900
C1831	C183	0.330000	0.500200	0.151600
C1841	C184	0.292600	0.466200	0.207600
C1851	C185	0.273900	0.534700	0.186100
C1861	C186	0.150100	0.617900	0.087300
C1871	C187	0.742900	0.183300	0.361500
C1881	C188	0.718500	0.160900	0.396100
C1891	C189	0.518200	0.151600	0.500200
C1901	C190	0.533600	0.207600	0.466200
C1911	C191	0.505300	0.186100	0.534700
C1921	C192	0.644700	0.087300	0.617900
C1931	C193	0.861500	0.242900	0.183300
C1941	C194	0.896100	0.218500	0.160900
C1951	C195	0.000200	0.018200	0.151600
C1961	C196	0.966200	0.033600	0.207600
C1971	C197	0.034700	0.005300	0.186100
C1981	C198	0.117900	0.144700	0.087300
C1991	C199	0.683300	0.712300	0.361500
C2001	C200	0.660900	0.724500	0.396100
C2011	C201	0.651600	0.830000	0.500200
C2021	C202	0.707600	0.792600	0.466200
C2031	C203	0.686100	0.773900	0.534700
C2041	C204	0.587300	0.650100	0.617900
C2051	C205	0.212300	0.183300	0.242900
C2061	C206	0.224500	0.160900	0.218500
C2071	C207	0.330000	0.151600	0.018200
C2081	C208	0.292600	0.207600	0.033600
C2091	C209	0.273900	0.186100	0.005300
C2101	C210	0.150100	0.087300	0.144700
C2111	C211	0.742900	0.361500	0.712300
C2121	C212	0.718500	0.396100	0.724500
C2131	C213	0.518200	0.500200	0.830000
C2141	C214	0.533600	0.466200	0.792600
C2151	C215	0.505300	0.534700	0.773900
C2161	C216	0.644700	0.617900	0.650100
C2171	C217	0.316700	0.638500	0.287700
C2181	C218	0.339100	0.603900	0.275500
C2191	C219	0.348400	0.499800	0.170000
C2201	C220	0.292400	0.533800	0.207400
C2211	C221	0.313900	0.465300	0.226100
C2221	C222	0.412700	0.382100	0.349900
C2231	C223	0.138500	0.816700	0.757100
C2241	C224	0.103900	0.839100	0.781500
C2251	C225	0.999800	0.848400	0.981800
C2261	C226	0.033800	0.792400	0.966400
C2271	C227	0.965300	0.813900	0.994700
C2281	C228	0.882100	0.912700	0.855300
C2291	C229	0.257100	0.287700	0.638500
C2301	C230	0.281500	0.275500	0.603900
C2311	C231	0.481800	0.170000	0.499800
C2321	C232	0.466400	0.207400	0.533800
C2331	C233	0.494700	0.226100	0.465300
C2341	C234	0.355300	0.349900	0.382100
C2351	C235	0.787700	0.757100	0.816700
C2361	C236	0.775500	0.781500	0.839100
C2371	C237	0.670000	0.981800	0.848400
C2381	C238	0.707400	0.966400	0.792400
C2391	C239	0.726100	0.994700	0.813900
C2401	C240	0.849900	0.855300	0.912700
C2411	C241	0.787700	0.638500	0.757100
C2421	C242	0.775500	0.603900	0.781500
C2431	C243	0.670000	0.499800	0.981800
C2441	C244	0.707400	0.533800	0.966400
C2451	C245	0.726100	0.465300	0.994700
C2461	C246	0.849900	0.382100	0.855300
C2471	C247	0.257100	0.816700	0.287700
C2481	C248	0.281500	0.839100	0.275500
C2491	C249	0.481800	0.848400	0.170000
C2501	C250	0.466400	0.792400	0.207400
C2511	C251	0.494700	0.813900	0.226100
C2521	C252	0.355300	0.912700	0.349900
C2531	C253	0.138500	0.287700	0.816700
C2541	C254	0.103900	0.275500	0.839100
C2551	C255	0.999800	0.170000	0.848400
C2561	C256	0.033800	0.207400	0.792400
C2571	C257	0.965300	0.226100	0.813900
C2581	C258	0.882100	0.349900	0.912700
C2591	C259	0.316700	0.757100	0.638500
C2601	C260	0.339100	0.781500	0.603900
C2611	C261	0.348400	0.981800	0.499800
C2621	C262	0.292400	0.966400	0.533800
C2631	C263	0.313900	0.994700	0.465300
C2641	C264	0.412700	0.855300	0.382100
C2651	C265	0.257100	0.638500	0.816700
C2661	C266	0.281500	0.603900	0.839100
C2671	C267	0.481800	0.499800	0.848400
C2681	C268	0.466400	0.533800	0.792400
C2691	C269	0.494700	0.465300	0.813900
C2701	C270	0.355300	0.382100	0.912700
C2711	C271	0.787700	0.816700	0.638500
C2721	C272	0.775500	0.839100	0.603900
C2731	C273	0.670000	0.848400	0.499800
C2741	C274	0.707400	0.792400	0.533800
C2751	C275	0.726100	0.813900	0.465300
C2761	C276	0.849900	0.912700	0.382100
C2771	C277	0.316700	0.287700	0.757100
C2781	C278	0.339100	0.275500	0.781500
C2791	C279	0.348400	0.170000	0.981800
C2801	C280	0.292400	0.207400	0.966400
C2811	C281	0.313900	0.226100	0.994700
C2821	C282	0.412700	0.349900	0.855300
C2831	C283	0.138500	0.757100	0.287700
C2841	C284	0.103900	0.781500	0.275500
C2851	C285	0.999800	0.981800	0.170000
C2861	C286	0.033800	0.966400	0.207400
C2871	C287	0.965300	0.994700	0.226100
C2881	C288	0.882100	0.855300	0.349900
C2891	C289	0.183700	0.683700	0.504100
C2901	C290	0.197900	0.697900	0.460500
C2911	C291	0.183700	0.683700	0.628500
C2921	C292	0.197900	0.697900	0.643700
C2931	C293	0.004100	0.628500	0.683700
C2941	C294	0.960500	0.643700	0.697900
C2951	C295	0.128500	0.504100	0.683700
C2961	C296	0.143700	0.460500	0.697900
C2971	C297	0.183700	0.504100	0.628500
C2981	C298	0.197900	0.460500	0.643700
C2991	C299	0.183700	0.628500	0.504100
C3001	C300	0.197900	0.643700	0.460500
C3011	C301	0.004100	0.683700	0.683700
C3021	C302	0.960500	0.697900	0.697900
C3031	C303	0.128500	0.683700	0.683700
C3041	C304	0.143700	0.697900	0.697900
C3051	C305	0.183700	0.628500	0.683700
C3061	C306	0.197900	0.643700	0.697900
C3071	C307	0.183700	0.504100	0.683700
C3081	C308	0.197900	0.460500	0.697900
C3091	C309	0.004100	0.683700	0.628500
C3101	C310	0.960500	0.697900	0.643700
C3111	C311	0.128500	0.683700	0.504100
C3121	C312	0.143700	0.697900	0.460500
C3131	C313	0.816300	0.316300	0.495900
C3141	C314	0.802100	0.302100	0.539500
C3151	C315	0.816300	0.316300	0.371500
C3161	C316	0.802100	0.302100	0.356300
C3171	C317	0.871500	0.495900	0.316300
C3181	C318	0.856300	0.539500	0.302100
C3191	C319	0.995900	0.371500	0.316300
C3201	C320	0.039500	0.356300	0.302100
C3211	C321	0.995900	0.316300	0.371500
C3221	C322	0.039500	0.302100	0.356300
C3231	C323	0.871500	0.316300	0.495900
C3241	C324	0.856300	0.302100	0.539500
C3251	C325	0.816300	0.495900	0.316300
C3261	C326	0.802100	0.539500	0.302100
C3271	C327	0.816300	0.371500	0.316300
C3281	C328	0.802100	0.356300	0.302100
C3291	C329	0.871500	0.316300	0.316300
C3301	C330	0.856300	0.302100	0.302100
C3311	C331	0.995900	0.316300	0.316300
C3321	C332	0.039500	0.302100	0.302100
C3331	C333	0.816300	0.495900	0.371500
C3341	C334	0.802100	0.539500	0.356300
C3351	C335	0.816300	0.371500	0.495900
C3361	C336	0.802100	0.356300	0.539500
C3371	C337	0.101900	0.775900	0.346300
C3381	C338	0.067400	0.801000	0.330600
C3391	C339	0.275900	0.601900	0.775900
C3401	C340	0.301000	0.567400	0.801000
C3411	C341	0.846300	0.775900	0.601900
C3421	C342	0.830600	0.801000	0.567400
C3431	C343	0.275900	0.346300	0.775900
C3441	C344	0.301000	0.330600	0.801000
C3451	C345	0.101900	0.346300	0.775900
C3461	C346	0.067400	0.330600	0.801000
C3471	C347	0.275900	0.775900	0.346300
C3481	C348	0.301000	0.801000	0.330600
C3491	C349	0.846300	0.601900	0.775900
C3501	C350	0.830600	0.567400	0.801000
C3511	C351	0.275900	0.775900	0.601900
C3521	C352	0.301000	0.801000	0.567400
C3531	C353	0.101900	0.775900	0.775900
C3541	C354	0.067400	0.801000	0.801000
C3551	C355	0.275900	0.346300	0.601900
C3561	C356	0.301000	0.330600	0.567400
C3571	C357	0.846300	0.775900	0.775900
C3581	C358	0.830600	0.801000	0.801000
C3591	C359	0.275900	0.601900	0.346300
C3601	C360	0.301000	0.567400	0.330600
C3611	C361	0.724100	0.398100	0.653700
C3621	C362	0.699000	0.432600	0.669400
C3631	C363	0.898100	0.224100	0.224100
C3641	C364	0.932600	0.199000	0.199000
C3651	C365	0.724100	0.653700	0.398100
C3661	C366	0.699000	0.669400	0.432600
C3671	C367	0.153700	0.224100	0.224100
C3681	C368	0.169400	0.199000	0.199000
C3691	C369	0.153700	0.398100	0.224100
C3701	C370	0.169400	0.432600	0.199000
C3711	C371	0.724100	0.224100	0.653700
C3721	C372	0.699000	0.199000	0.669400
C3731	C373	0.898100	0.653700	0.224100
C3741	C374	0.932600	0.669400	0.199000
C3751	C375	0.724100	0.224100	0.398100
C3761	C376	0.699000	0.199000	0.432600
C3771	C377	0.724100	0.398100	0.224100
C3781	C378	0.699000	0.432600	0.199000
C3791	C379	0.153700	0.224100	0.398100
C3801	C380	0.169400	0.199000	0.432600
C3811	C381	0.724100	0.653700	0.224100
C3821	C382	0.699000	0.669400	0.199000
C3831	C383	0.898100	0.224100	0.653700
C3841	C384	0.932600	0.199000	0.669400
I11	I1	0.993060	0.799040	0.307940
I21	I2	0.299040	0.493060	0.899960
I31	I3	0.807940	0.899960	0.493060
I41	I4	0.399960	0.307940	0.799040
I51	I5	0.993060	0.307940	0.899960
I61	I6	0.299040	0.899960	0.307940
I71	I7	0.807940	0.493060	0.799040
I81	I8	0.399960	0.799040	0.493060
I91	I9	0.993060	0.899960	0.799040
I101	I10	0.299040	0.307940	0.493060
I111	I11	0.807940	0.799040	0.899960
I121	I12	0.399960	0.493060	0.307940
I131	I13	0.700960	0.506940	0.692060
I141	I14	0.006940	0.200960	0.100040
I151	I15	0.600040	0.692060	0.506940
I161	I16	0.192060	0.100040	0.200960
I171	I17	0.192060	0.506940	0.100040
I181	I18	0.600040	0.200960	0.692060
I191	I19	0.006940	0.692060	0.200960
I201	I20	0.700960	0.100040	0.506940
I211	I21	0.600040	0.506940	0.200960
I221	I22	0.192060	0.200960	0.506940
I231	I23	0.700960	0.692060	0.100040
I241	I24	0.006940	0.100040	0.692060
I251	I25	0.006940	0.200960	0.692060
I261	I26	0.700960	0.506940	0.100040
I271	I27	0.192060	0.100040	0.506940
I281	I28	0.600040	0.692060	0.200960
I291	I29	0.006940	0.692060	0.100040
I301	I30	0.700960	0.100040	0.692060
I311	I31	0.192060	0.506940	0.200960
I321	I32	0.600040	0.200960	0.506940
I331	I33	0.006940	0.100040	0.200960
I341	I34	0.700960	0.692060	0.506940
I351	I35	0.192060	0.200960	0.100040
I361	I36	0.600040	0.506940	0.692060
I371	I37	0.299040	0.493060	0.307940
I381	I38	0.993060	0.799040	0.899960
I391	I39	0.399960	0.307940	0.493060
I401	I40	0.807940	0.899960	0.799040
I411	I41	0.807940	0.493060	0.899960
I421	I42	0.399960	0.799040	0.307940
I431	I43	0.993060	0.307940	0.799040
I441	I44	0.299040	0.899960	0.493060
I451	I45	0.399960	0.493060	0.799040
I461	I46	0.807940	0.799040	0.493060
I471	I47	0.299040	0.307940	0.899960
I481	I48	0.993060	0.899960	0.307940
I491	I49	0.099310	0.702070	0.599310
I501	I50	0.202070	0.599310	0.599310
I511	I51	0.099310	0.599310	0.599310
I521	I52	0.099310	0.599310	0.702070
I531	I53	0.797930	0.400690	0.400690
I541	I54	0.900690	0.297930	0.400690
I551	I55	0.900690	0.400690	0.400690
I561	I56	0.900690	0.400690	0.297930
I571	I57	0.243390	0.743390	0.269830
I581	I58	0.243390	0.743390	0.743390
I591	I59	0.769830	0.743390	0.743390
I601	I60	0.243390	0.269830	0.743390
I611	I61	0.756610	0.256610	0.730170
I621	I62	0.756610	0.256610	0.256610
I631	I63	0.756610	0.730170	0.256610
I641	I64	0.230170	0.256610	0.256610
I651	I65	0.174790	0.777870	0.372550
I661	I66	0.277870	0.674790	0.674790
I671	I67	0.872550	0.674790	0.674790
I681	I68	0.174790	0.372550	0.777870
I691	I69	0.174790	0.372550	0.674790
I701	I70	0.277870	0.674790	0.372550
I711	I71	0.872550	0.674790	0.777870
I721	I72	0.174790	0.777870	0.674790
I731	I73	0.174790	0.674790	0.777870
I741	I74	0.277870	0.372550	0.674790
I751	I75	0.872550	0.777870	0.674790
I761	I76	0.174790	0.674790	0.372550
I771	I77	0.722130	0.325210	0.627450
I781	I78	0.825210	0.222130	0.325210
I791	I79	0.825210	0.627450	0.325210
I801	I80	0.127450	0.325210	0.222130
I811	I81	0.127450	0.325210	0.325210
I821	I82	0.825210	0.222130	0.627450
I831	I83	0.825210	0.627450	0.222130
I841	I84	0.722130	0.325210	0.325210
I851	I85	0.825210	0.325210	0.222130
I861	I86	0.127450	0.222130	0.325210
I871	I87	0.722130	0.627450	0.325210
I881	I88	0.825210	0.325210	0.627450
I891	I89	0.058200	0.869920	0.201960
I901	I90	0.933570	0.912630	0.241170
I911	I91	0.369920	0.558200	0.869920
I921	I92	0.412630	0.433570	0.912630
I931	I93	0.701960	0.869920	0.558200
I941	I94	0.741170	0.912630	0.433570
I951	I95	0.369920	0.201960	0.869920
I961	I96	0.412630	0.241170	0.912630
I971	I97	0.058200	0.201960	0.869920
I981	I98	0.933570	0.241170	0.912630
I991	I99	0.369920	0.869920	0.201960
I1001	I100	0.412630	0.912630	0.241170
I1011	I101	0.701960	0.558200	0.869920
I1021	I102	0.741170	0.433570	0.912630
I1031	I103	0.369920	0.869920	0.558200
I1041	I104	0.412630	0.912630	0.433570
I1051	I105	0.058200	0.869920	0.869920
I1061	I106	0.933570	0.912630	0.912630
I1071	I107	0.369920	0.201960	0.558200
I1081	I108	0.412630	0.241170	0.433570
I1091	I109	0.701960	0.869920	0.869920
I1101	I110	0.741170	0.912630	0.912630
I1111	I111	0.369920	0.558200	0.201960
I1121	I112	0.412630	0.433570	0.241170
I1131	I113	0.630080	0.441800	0.798040
I1141	I114	0.587370	0.566430	0.758830
I1151	I115	0.941800	0.130080	0.130080
I1161	I116	0.066430	0.087370	0.087370
I1171	I117	0.630080	0.798040	0.441800
I1181	I118	0.587370	0.758830	0.566430
I1191	I119	0.298040	0.130080	0.130080
I1201	I120	0.258830	0.087370	0.087370
I1211	I121	0.298040	0.441800	0.130080
I1221	I122	0.258830	0.566430	0.087370
I1231	I123	0.630080	0.130080	0.798040
I1241	I124	0.587370	0.087370	0.758830
I1251	I125	0.941800	0.798040	0.130080
I1261	I126	0.066430	0.758830	0.087370
I1271	I127	0.630080	0.130080	0.441800
I1281	I128	0.587370	0.087370	0.566430
I1291	I129	0.630080	0.441800	0.130080
I1301	I130	0.587370	0.566430	0.087370
I1311	I131	0.298040	0.130080	0.441800
I1321	I132	0.258830	0.087370	0.566430
I1331	I133	0.630080	0.798040	0.130080
I1341	I134	0.587370	0.758830	0.087370
I1351	I135	0.941800	0.130080	0.798040
I1361	I136	0.066430	0.087370	0.758830
N11	N1	0.998300	0.825900	0.207900
N21	N2	0.325900	0.498300	0.967900
N31	N3	0.707900	0.967900	0.498300
N41	N4	0.467900	0.207900	0.825900
N51	N5	0.998300	0.207900	0.967900
N61	N6	0.325900	0.967900	0.207900
N71	N7	0.707900	0.498300	0.825900
N81	N8	0.467900	0.825900	0.498300
N91	N9	0.998300	0.967900	0.825900
N101	N10	0.325900	0.207900	0.498300
N111	N11	0.707900	0.825900	0.967900
N121	N12	0.467900	0.498300	0.207900
N131	N13	0.674100	0.501700	0.792100
N141	N14	0.001700	0.174100	0.032100
N151	N15	0.532100	0.792100	0.501700
N161	N16	0.292100	0.032100	0.174100
N171	N17	0.292100	0.501700	0.032100
N181	N18	0.532100	0.174100	0.792100
N191	N19	0.001700	0.792100	0.174100
N201	N20	0.674100	0.032100	0.501700
N211	N21	0.532100	0.501700	0.174100
N221	N22	0.292100	0.174100	0.501700
N231	N23	0.674100	0.792100	0.032100
N241	N24	0.001700	0.032100	0.792100
N251	N25	0.001700	0.174100	0.792100
N261	N26	0.674100	0.501700	0.032100
N271	N27	0.292100	0.032100	0.501700
N281	N28	0.532100	0.792100	0.174100
N291	N29	0.001700	0.792100	0.032100
N301	N30	0.674100	0.032100	0.792100
N311	N31	0.292100	0.501700	0.174100
N321	N32	0.532100	0.174100	0.501700
N331	N33	0.001700	0.032100	0.174100
N341	N34	0.674100	0.792100	0.501700
N351	N35	0.292100	0.174100	0.032100
N361	N36	0.532100	0.501700	0.792100
N371	N37	0.325900	0.498300	0.207900
N381	N38	0.998300	0.825900	0.967900
N391	N39	0.467900	0.207900	0.498300
N401	N40	0.707900	0.967900	0.825900
N411	N41	0.707900	0.498300	0.967900
N421	N42	0.467900	0.825900	0.207900
N431	N43	0.998300	0.207900	0.825900
N441	N44	0.325900	0.967900	0.498300
N451	N45	0.467900	0.498300	0.825900
N461	N46	0.707900	0.825900	0.498300
N471	N47	0.325900	0.207900	0.967900
N481	N48	0.998300	0.967900	0.207900
N491	N49	0.159400	0.659400	0.521800
N501	N50	0.184000	0.684000	0.448000
N511	N51	0.159400	0.659400	0.659400
N521	N52	0.184000	0.684000	0.684000
N531	N53	0.021800	0.659400	0.659400
N541	N54	0.948000	0.684000	0.684000
N551	N55	0.159400	0.521800	0.659400
N561	N56	0.184000	0.448000	0.684000
N571	N57	0.840600	0.340600	0.478200
N581	N58	0.816000	0.316000	0.552000
N591	N59	0.840600	0.340600	0.340600
N601	N60	0.816000	0.316000	0.316000
N611	N61	0.840600	0.478200	0.340600
N621	N62	0.816000	0.552000	0.316000
N631	N63	0.978200	0.340600	0.340600
N641	N64	0.052000	0.316000	0.316000
N651	N65	0.137300	0.775700	0.311300
N661	N66	0.078900	0.815900	0.289300
N671	N67	0.907400	0.872800	0.347000
N681	N68	0.275700	0.637300	0.775700
N691	N69	0.315900	0.578900	0.815900
N701	N70	0.372800	0.407400	0.872800
N711	N71	0.811300	0.775700	0.637300
N721	N72	0.789300	0.815900	0.578900
N731	N73	0.847000	0.872800	0.407400
N741	N74	0.275700	0.311300	0.775700
N751	N75	0.315900	0.289300	0.815900
N761	N76	0.372800	0.347000	0.872800
N771	N77	0.137300	0.311300	0.775700
N781	N78	0.078900	0.289300	0.815900
N791	N79	0.907400	0.347000	0.872800
N801	N80	0.275700	0.775700	0.311300
N811	N81	0.315900	0.815900	0.289300
N821	N82	0.372800	0.872800	0.347000
N831	N83	0.811300	0.637300	0.775700
N841	N84	0.789300	0.578900	0.815900
N851	N85	0.847000	0.407400	0.872800
N861	N86	0.275700	0.775700	0.637300
N871	N87	0.315900	0.815900	0.578900
N881	N88	0.372800	0.872800	0.407400
N891	N89	0.137300	0.775700	0.775700
N901	N90	0.078900	0.815900	0.815900
N911	N91	0.907400	0.872800	0.872800
N921	N92	0.275700	0.311300	0.637300
N931	N93	0.315900	0.289300	0.578900
N941	N94	0.372800	0.347000	0.407400
N951	N95	0.811300	0.775700	0.775700
N961	N96	0.789300	0.815900	0.815900
N971	N97	0.847000	0.872800	0.872800
N981	N98	0.275700	0.637300	0.311300
N991	N99	0.315900	0.578900	0.289300
N1001	N100	0.372800	0.407400	0.347000
N1011	N101	0.724300	0.362700	0.688700
N1021	N102	0.684100	0.421100	0.710700
N1031	N103	0.627200	0.592600	0.653000
N1041	N104	0.862700	0.224300	0.224300
N1051	N105	0.921100	0.184100	0.184100
N1061	N106	0.092600	0.127200	0.127200
N1071	N107	0.724300	0.688700	0.362700
N1081	N108	0.684100	0.710700	0.421100
N1091	N109	0.627200	0.653000	0.592600
N1101	N110	0.188700	0.224300	0.224300
N1111	N111	0.210700	0.184100	0.184100
N1121	N112	0.153000	0.127200	0.127200
N1131	N113	0.188700	0.362700	0.224300
N1141	N114	0.210700	0.421100	0.184100
N1151	N115	0.153000	0.592600	0.127200
N1161	N116	0.724300	0.224300	0.688700
N1171	N117	0.684100	0.184100	0.710700
N1181	N118	0.627200	0.127200	0.653000
N1191	N119	0.862700	0.688700	0.224300
N1201	N120	0.921100	0.710700	0.184100
N1211	N121	0.092600	0.653000	0.127200
N1221	N122	0.724300	0.224300	0.362700
N1231	N123	0.684100	0.184100	0.421100
N1241	N124	0.627200	0.127200	0.592600
N1251	N125	0.724300	0.362700	0.224300
N1261	N126	0.684100	0.421100	0.184100
N1271	N127	0.627200	0.592600	0.127200
N1281	N128	0.188700	0.224300	0.362700
N1291	N129	0.210700	0.184100	0.421100
N1301	N130	0.153000	0.127200	0.592600
N1311	N131	0.724300	0.688700	0.224300
N1321	N132	0.684100	0.710700	0.184100
N1331	N133	0.627200	0.653000	0.127200
N1341	N134	0.862700	0.224300	0.688700
N1351	N135	0.921100	0.184100	0.710700
N1361	N136	0.092600	0.127200	0.653000
