data_GUSJOU_clean_PM
_symmetry_space_group_name_H-M	'P1'
_cell_length_a	12.311000
_cell_length_b	14.049000
_cell_length_c	14.181000
_cell_angle_alpha	116.920000
_cell_angle_beta	111.720000
_cell_angle_gamma	91.660000
_symmetry_Int_Tables_number 1

loop_
_symmetry_equiv_pos_as_xyz
'x,y,z'

loop_
_atom_site_label
_atom_site_type_symbol
_atom_site_fract_x
_atom_site_fract_y
_atom_site_fract_z
Mn11	Mn1	0.811530	0.652640	0.209340
Mn21	Mn2	0.188470	0.347360	0.790660
Mn31	Mn3	0.500000	0.500000	0.000000
Mn41	Mn4	0.000000	0.500000	0.000000
Ge11	Ge1	0.634620	0.111290	0.867850
Ge21	Ge2	0.340250	0.966230	0.653620
Ge31	Ge3	0.518890	0.853370	0.810010
Ge41	Ge4	0.589220	0.883940	0.604970
Ge51	Ge5	0.365380	0.888710	0.132150
Ge61	Ge6	0.659750	0.033770	0.346380
Ge71	Ge7	0.481110	0.146630	0.189990
Ge81	Ge8	0.410780	0.116060	0.395030
H11	H1	0.807000	0.259200	0.028700
H21	H2	0.689800	0.290000	0.041600
H31	H3	0.645300	0.317700	0.872500
H41	H4	0.780500	0.317200	0.896400
H51	H5	0.204800	0.082200	0.620500
H61	H6	0.138800	0.991800	0.629200
H71	H7	0.058500	0.983300	0.440800
H81	H8	0.169500	0.938500	0.425900
H91	H9	0.490800	0.684700	0.816600
H101	H10	0.460500	0.776600	0.912200
H111	H11	0.698200	0.770000	0.937600
H121	H12	0.664600	0.855600	0.034200
H131	H13	0.723400	0.806300	0.516900
H141	H14	0.658400	0.875800	0.462700
H151	H15	0.552500	0.662400	0.398000
H161	H16	0.483000	0.732100	0.346900
H171	H17	0.193000	0.740800	0.971300
H181	H18	0.310200	0.710000	0.958400
H191	H19	0.354700	0.682300	0.127500
H201	H20	0.219500	0.682800	0.103600
H211	H21	0.795200	0.917800	0.379500
H221	H22	0.861200	0.008200	0.370800
H231	H23	0.941500	0.016700	0.559200
H241	H24	0.830500	0.061500	0.574100
H251	H25	0.509200	0.315300	0.183400
H261	H26	0.539500	0.223400	0.087800
H271	H27	0.301800	0.230000	0.062400
H281	H28	0.335400	0.144400	0.965800
H291	H29	0.276600	0.193700	0.483100
H301	H30	0.341600	0.124200	0.537300
H311	H31	0.447500	0.337600	0.602000
H321	H32	0.517000	0.267900	0.653100
C11	C1	0.724800	0.259800	0.986200
C21	C2	0.725200	0.333100	0.932600
C31	C3	0.762700	0.451900	0.025700
C41	C4	0.188100	0.004300	0.594200
C51	C5	0.115400	0.942200	0.462100
C61	C6	0.046800	0.826100	0.412600
C71	C7	0.517400	0.761200	0.877900
C81	C8	0.640800	0.780000	0.971200
C91	C9	0.648000	0.704700	0.022700
C101	C10	0.646100	0.821700	0.484800
C111	C11	0.561400	0.717400	0.376200
C121	C12	0.601000	0.669500	0.277100
C131	C13	0.275200	0.740200	0.013800
C141	C14	0.274800	0.666900	0.067400
C151	C15	0.237300	0.548100	0.974300
C161	C16	0.811900	0.995700	0.405800
C171	C17	0.884600	0.057800	0.537900
C181	C18	0.953200	0.173900	0.587400
C191	C19	0.482600	0.238800	0.122100
C201	C20	0.359200	0.220000	0.028800
C211	C21	0.352000	0.295300	0.977300
C221	C22	0.353900	0.178300	0.515200
C231	C23	0.438600	0.282600	0.623800
C241	C24	0.399000	0.330500	0.722900
S11	S1	0.453700	0.131590	0.790600
S21	S2	0.713800	0.047830	0.740550
S31	S3	0.641880	0.014960	0.956490
S41	S4	0.400450	0.890180	0.512510
S51	S5	0.328750	0.858780	0.726730
S61	S6	0.595380	0.774350	0.680780
S71	S7	0.546300	0.868410	0.209400
S81	S8	0.286200	0.952170	0.259450
S91	S9	0.358120	0.985040	0.043510
S101	S10	0.599550	0.109820	0.487490
S111	S11	0.671250	0.141220	0.273270
S121	S12	0.404620	0.225650	0.319220
O11	O1	0.691300	0.488600	0.071300
O21	O2	0.861600	0.514100	0.061800
O31	O3	0.968300	0.780400	0.308600
O41	O4	0.073600	0.781800	0.474200
O51	O5	0.751000	0.720600	0.100600
O61	O6	0.555500	0.637000	0.986900
O71	O7	0.710400	0.705500	0.304800
O81	O8	0.524600	0.598700	0.179400
O91	O9	0.308700	0.511400	0.928700
O101	O10	0.138400	0.485900	0.938200
O111	O11	0.031700	0.219600	0.691400
O121	O12	0.926400	0.218200	0.525800
O131	O13	0.249000	0.279400	0.899400
O141	O14	0.444500	0.363000	0.013100
O151	O15	0.289600	0.294500	0.695200
O161	O16	0.475400	0.401300	0.820600
