data_GUSNEN_SL_PM
_symmetry_space_group_name_H-M	'P1'
_cell_length_a	19.685000
_cell_length_b	7.849000
_cell_length_c	6.782000
_cell_angle_alpha	90.000000
_cell_angle_beta	75.099400
_cell_angle_gamma	90.000000
_symmetry_Int_Tables_number 1

loop_
_symmetry_equiv_pos_as_xyz
'x,y,z'

loop_
_atom_site_label
_atom_site_type_symbol
_atom_site_fract_x
_atom_site_fract_y
_atom_site_fract_z
C11	C1	0.111000	0.190000	0.170000
C21	C2	0.198000	0.296000	0.882000
C31	C3	0.229000	0.180000	0.204000
C41	C4	0.184000	0.210000	0.079000
O51	O5	0.068000	0.166000	0.055000
O61	O6	0.087000	0.141000	0.348000
H71	H7	0.155520	0.338620	0.806560
H81	H8	0.207860	0.137740	0.369220
H91	H9	0.500000	0.740400	0.750000
C101	C10	0.611000	0.690000	0.170000
C111	C11	0.698000	0.796000	0.882000
C121	C12	0.729000	0.680000	0.204000
C131	C13	0.684000	0.710000	0.079000
O141	O14	0.568000	0.666000	0.055000
O151	O15	0.587000	0.641000	0.348000
H161	H16	0.655520	0.838620	0.806560
H171	H17	0.707860	0.637740	0.369220
H181	H18	0.000000	0.240400	0.750000
C191	C19	0.889000	0.190000	0.330000
C201	C20	0.802000	0.296000	0.618000
C211	C21	0.771000	0.180000	0.296000
C221	C22	0.816000	0.210000	0.421000
O231	O23	0.932000	0.166000	0.445000
O241	O24	0.913000	0.141000	0.152000
H251	H25	0.844480	0.338620	0.693440
H261	H26	0.792140	0.137740	0.130780
C281	C28	0.389000	0.690000	0.330000
C291	C29	0.302000	0.796000	0.618000
C301	C30	0.271000	0.680000	0.296000
C311	C31	0.316000	0.710000	0.421000
O321	O32	0.432000	0.666000	0.445000
O331	O33	0.413000	0.641000	0.152000
H341	H34	0.344480	0.838620	0.693440
H351	H35	0.292140	0.637740	0.130780
C371	C37	0.889000	0.810000	0.830000
C381	C38	0.802000	0.704000	0.118000
C391	C39	0.771000	0.820000	0.796000
C401	C40	0.816000	0.790000	0.921000
O411	O41	0.932000	0.834000	0.945000
O421	O42	0.913000	0.859000	0.652000
H431	H43	0.844480	0.661380	0.193440
H441	H44	0.792140	0.862260	0.630780
H451	H45	0.500000	0.259600	0.250000
C461	C46	0.389000	0.310000	0.830000
C471	C47	0.302000	0.204000	0.118000
C481	C48	0.271000	0.320000	0.796000
C491	C49	0.316000	0.290000	0.921000
O501	O50	0.432000	0.334000	0.945000
O511	O51	0.413000	0.359000	0.652000
H521	H52	0.344480	0.161380	0.193440
H531	H53	0.292140	0.362260	0.630780
H541	H54	0.000000	0.759600	0.250000
C551	C55	0.111000	0.810000	0.670000
C561	C56	0.198000	0.704000	0.382000
C571	C57	0.229000	0.820000	0.704000
C581	C58	0.184000	0.790000	0.579000
O591	O59	0.068000	0.834000	0.555000
O601	O60	0.087000	0.859000	0.848000
H611	H61	0.155520	0.661380	0.306560
H621	H62	0.207860	0.862260	0.869220
C641	C64	0.611000	0.310000	0.670000
C651	C65	0.698000	0.204000	0.382000
C661	C66	0.729000	0.320000	0.704000
C671	C67	0.684000	0.290000	0.579000
O681	O68	0.568000	0.334000	0.555000
O691	O69	0.587000	0.359000	0.848000
H701	H70	0.655520	0.161380	0.306560
H711	H71	0.707860	0.362260	0.869220
Cr731	Cr73	0.000000	0.000000	0.500000
Cr741	Cr74	0.500000	0.500000	0.500000
Cr751	Cr75	0.000000	0.000000	0.000000
Cr761	Cr76	0.500000	0.500000	0.000000
O771	O77	0.000000	0.887000	0.250000
O781	O78	0.500000	0.387000	0.250000
O791	O79	0.000000	0.113000	0.750000
O801	O80	0.500000	0.613000	0.750000
