data_GUTYIE_clean_PM
_symmetry_space_group_name_H-M	'P1'
_cell_length_a	9.921800
_cell_length_b	12.653000
_cell_length_c	15.513100
_cell_angle_alpha	90.000000
_cell_angle_beta	90.761000
_cell_angle_gamma	90.000000
_symmetry_Int_Tables_number 1

loop_
_symmetry_equiv_pos_as_xyz
'x,y,z'

loop_
_atom_site_label
_atom_site_type_symbol
_atom_site_fract_x
_atom_site_fract_y
_atom_site_fract_z
O11	O1	0.080330	0.912610	0.338450
O21	O2	0.244740	0.826300	0.272830
O31	O3	0.425780	0.602250	0.333550
O41	O4	0.205980	0.593790	0.304870
C11	C1	0.210480	0.792610	0.419980
C21	C2	0.280470	0.696620	0.423400
C31	C3	0.319840	0.656440	0.503190
H11	H1	0.368000	0.593400	0.505300
C41	C4	0.176170	0.846690	0.335560
C51	C5	0.304480	0.627370	0.345560
O51	O5	0.580330	0.412610	0.338450
O61	O6	0.744740	0.326300	0.272830
O71	O7	0.925780	0.102250	0.333550
O81	O8	0.705980	0.093790	0.304870
C61	C6	0.710480	0.292610	0.419980
C71	C7	0.780470	0.196620	0.423400
C81	C8	0.819840	0.156440	0.503190
H21	H2	0.868000	0.093400	0.505300
C91	C9	0.676170	0.346690	0.335560
C101	C10	0.804480	0.127370	0.345560
O91	O9	0.919670	0.912610	0.161550
O101	O10	0.755260	0.826300	0.227170
O111	O11	0.574220	0.602250	0.166450
O121	O12	0.794020	0.593790	0.195130
C111	C11	0.789520	0.792610	0.080020
C121	C12	0.719530	0.696620	0.076600
C131	C13	0.680160	0.656440	0.996810
H31	H3	0.632000	0.593400	0.994700
C141	C14	0.823830	0.846690	0.164440
C151	C15	0.695520	0.627370	0.154440
O131	O13	0.419670	0.412610	0.161550
O141	O14	0.255260	0.326300	0.227170
O151	O15	0.074220	0.102250	0.166450
O161	O16	0.294020	0.093790	0.195130
C161	C16	0.289520	0.292610	0.080020
C171	C17	0.219530	0.196620	0.076600
C181	C18	0.180160	0.156440	0.996810
H41	H4	0.132000	0.093400	0.994700
C191	C19	0.323830	0.346690	0.164440
C201	C20	0.195520	0.127370	0.154440
O171	O17	0.919670	0.087390	0.661550
O181	O18	0.755260	0.173700	0.727170
O191	O19	0.574220	0.397750	0.666450
O201	O20	0.794020	0.406210	0.695130
C211	C21	0.789520	0.207390	0.580020
C221	C22	0.719530	0.303380	0.576600
C231	C23	0.680160	0.343560	0.496810
H51	H5	0.632000	0.406600	0.494700
C241	C24	0.823830	0.153310	0.664440
C251	C25	0.695520	0.372630	0.654440
O211	O21	0.419670	0.587390	0.661550
O221	O22	0.255260	0.673700	0.727170
O231	O23	0.074220	0.897750	0.666450
O241	O24	0.294020	0.906210	0.695130
C261	C26	0.289520	0.707390	0.580020
C271	C27	0.219530	0.803380	0.576600
C281	C28	0.180160	0.843560	0.496810
H61	H6	0.132000	0.906600	0.494700
C291	C29	0.323830	0.653310	0.664440
C301	C30	0.195520	0.872630	0.654440
O251	O25	0.080330	0.087390	0.838450
O261	O26	0.244740	0.173700	0.772830
O271	O27	0.425780	0.397750	0.833550
O281	O28	0.205980	0.406210	0.804870
C311	C31	0.210480	0.207390	0.919980
C321	C32	0.280470	0.303380	0.923400
C331	C33	0.319840	0.343560	0.003190
H71	H7	0.368000	0.406600	0.005300
C341	C34	0.176170	0.153310	0.835560
C351	C35	0.304480	0.372630	0.845560
O291	O29	0.580330	0.587390	0.838450
O301	O30	0.744740	0.673700	0.772830
O311	O31	0.925780	0.897750	0.833550
O321	O32	0.705980	0.906210	0.804870
C361	C36	0.710480	0.707390	0.919980
C371	C37	0.780470	0.803380	0.923400
C381	C38	0.819840	0.843560	0.003190
H81	H8	0.868000	0.906600	0.005300
C391	C39	0.676170	0.653310	0.835560
C401	C40	0.804480	0.872630	0.845560
Zn11	Zn1	0.000000	0.003410	0.250000
Zn21	Zn2	0.500000	0.503410	0.250000
Zn31	Zn3	0.000000	0.996590	0.750000
Zn41	Zn4	0.500000	0.496590	0.750000
