data_GUVBOQ_clean_PM
_symmetry_space_group_name_H-M	'P1'
_cell_length_a	26.011900
_cell_length_b	26.011900
_cell_length_c	26.011900
_cell_angle_alpha	90.000000
_cell_angle_beta	90.000000
_cell_angle_gamma	90.000000
_symmetry_Int_Tables_number 1

loop_
_symmetry_equiv_pos_as_xyz
'x,y,z'

loop_
_atom_site_label
_atom_site_type_symbol
_atom_site_fract_x
_atom_site_fract_y
_atom_site_fract_z
Zn11	Zn1	0.455480	0.547490	0.545790
C11	C1	0.370700	0.601500	0.508600
C21	C2	0.330500	0.615400	0.470000
C31	C3	0.317700	0.582600	0.429300
C41	C4	0.277400	0.595700	0.396400
H11	H1	0.268700	0.573100	0.370100
C51	C5	0.250200	0.640200	0.401300
C61	C6	0.263000	0.672000	0.442300
H21	H2	0.245000	0.702500	0.447200
C71	C7	0.301800	0.659400	0.475900
C81	C8	0.206100	0.654000	0.367400
C91	C9	0.194500	0.621300	0.325700
H31	H3	0.215100	0.592700	0.319200
C101	C10	0.151800	0.631700	0.293800
C111	C11	0.121000	0.673600	0.305500
H41	H4	0.092200	0.680100	0.285300
C121	C12	0.131900	0.705700	0.346000
C131	C13	0.175100	0.695100	0.376400
H51	H5	0.182900	0.716900	0.403600
C141	C14	0.138800	0.596200	0.250500
C151	C15	0.174900	0.560300	0.233200
H61	H6	0.207200	0.559100	0.248400
C161	C16	0.163100	0.526700	0.193900
C171	C17	0.114400	0.527500	0.170200
C181	C18	0.078300	0.562600	0.188300
C191	C19	0.090700	0.596500	0.228200
H71	H7	0.066100	0.619700	0.239800
C201	C20	0.100500	0.490200	0.128900
C211	C21	0.097100	0.748500	0.359900
C221	C22	0.060500	0.766300	0.323800
H81	H8	0.059400	0.751900	0.291100
C231	C23	0.026500	0.804700	0.336500
C241	C24	0.027200	0.826800	0.385300
C251	C25	0.063300	0.809800	0.420900
C261	C26	0.097100	0.771200	0.409000
H91	H9	0.120400	0.759800	0.433700
C271	C27	0.990200	0.868300	0.399800
O11	O1	0.396700	0.560200	0.500200
O21	O2	0.378100	0.630200	0.545400
O31	O3	0.131700	0.454300	0.120900
O41	O4	0.061500	0.498200	0.102600
O51	O5	0.954100	0.878500	0.368800
O61	O6	0.998200	0.893000	0.440100
O71	O7	0.314200	0.695000	0.508600
H101	H10	0.297900	0.690900	0.535300
O81	O8	0.199600	0.491700	0.182000
H111	H11	0.186800	0.468800	0.164400
O91	O9	0.992400	0.817800	0.299200
H121	H12	0.966600	0.830100	0.312400
O101	O10	0.037000	0.561000	0.181000
O111	O11	0.062500	0.826800	0.468800
H131	H13	0.043100	0.808800	0.486000
O121	O12	0.351000	0.547200	0.414300
H141	H14	0.350800	0.523200	0.434700
Zn21	Zn2	0.044520	0.452510	0.045790
C281	C28	0.129300	0.398500	0.008600
C291	C29	0.169500	0.384600	0.970000
C301	C30	0.182300	0.417400	0.929300
C311	C31	0.222600	0.404300	0.896400
H151	H15	0.231300	0.426900	0.870100
C321	C32	0.249800	0.359800	0.901300
C331	C33	0.237000	0.328000	0.942300
H161	H16	0.255000	0.297500	0.947200
C341	C34	0.198200	0.340600	0.975900
C351	C35	0.293900	0.346000	0.867400
C361	C36	0.305500	0.378700	0.825700
H171	H17	0.284900	0.407300	0.819200
C371	C37	0.348200	0.368300	0.793800
C381	C38	0.379000	0.326400	0.805500
H181	H18	0.407800	0.319900	0.785300
C391	C39	0.368100	0.294300	0.846000
C401	C40	0.324900	0.304900	0.876400
H191	H19	0.317100	0.283100	0.903600
C411	C41	0.361200	0.403800	0.750500
C421	C42	0.325100	0.439700	0.733200
H201	H20	0.292800	0.440900	0.748400
C431	C43	0.336900	0.473300	0.693900
C441	C44	0.385600	0.472500	0.670200
C451	C45	0.421700	0.437400	0.688300
C461	C46	0.409300	0.403500	0.728200
H211	H21	0.433900	0.380300	0.739800
C471	C47	0.399500	0.509800	0.628900
C481	C48	0.402900	0.251500	0.859900
C491	C49	0.439500	0.233700	0.823800
H221	H22	0.440600	0.248100	0.791100
C501	C50	0.473500	0.195300	0.836500
C511	C51	0.472800	0.173200	0.885300
C521	C52	0.436700	0.190200	0.920900
C531	C53	0.402900	0.228800	0.909000
H231	H23	0.379600	0.240200	0.933700
C541	C54	0.509800	0.131700	0.899800
O131	O13	0.103300	0.439800	0.000200
O141	O14	0.121900	0.369800	0.045400
O151	O15	0.368300	0.545700	0.620900
O161	O16	0.438500	0.501800	0.602600
O171	O17	0.545900	0.121500	0.868800
O181	O18	0.501800	0.107000	0.940100
O191	O19	0.185800	0.305000	0.008600
H241	H24	0.202100	0.309100	0.035300
O201	O20	0.300400	0.508300	0.682000
H251	H25	0.313200	0.531200	0.664400
O211	O21	0.507600	0.182200	0.799200
H261	H26	0.533400	0.169900	0.812400
O221	O22	0.463000	0.439000	0.681000
O231	O23	0.437500	0.173200	0.968800
H271	H27	0.456900	0.191200	0.986000
O241	O24	0.149000	0.452800	0.914300
H281	H28	0.149200	0.476800	0.934700
Zn31	Zn3	0.544520	0.047490	0.954210
C551	C55	0.629300	0.101500	0.991400
C561	C56	0.669500	0.115400	0.030000
C571	C57	0.682300	0.082600	0.070700
C581	C58	0.722600	0.095700	0.103600
H291	H29	0.731300	0.073100	0.129900
C591	C59	0.749800	0.140200	0.098700
C601	C60	0.737000	0.172000	0.057700
H301	H30	0.755000	0.202500	0.052800
C611	C61	0.698200	0.159400	0.024100
C621	C62	0.793900	0.154000	0.132600
C631	C63	0.805500	0.121300	0.174300
H311	H31	0.784900	0.092700	0.180800
C641	C64	0.848200	0.131700	0.206200
C651	C65	0.879000	0.173600	0.194500
H321	H32	0.907800	0.180100	0.214700
C661	C66	0.868100	0.205700	0.154000
C671	C67	0.824900	0.195100	0.123600
H331	H33	0.817100	0.216900	0.096400
C681	C68	0.861200	0.096200	0.249500
C691	C69	0.825100	0.060300	0.266800
H341	H34	0.792800	0.059100	0.251600
C701	C70	0.836900	0.026700	0.306100
C711	C71	0.885600	0.027500	0.329800
C721	C72	0.921700	0.062600	0.311700
C731	C73	0.909300	0.096500	0.271800
H351	H35	0.933900	0.119700	0.260200
C741	C74	0.899500	0.990200	0.371100
C751	C75	0.902900	0.248500	0.140100
C761	C76	0.939500	0.266300	0.176200
H361	H36	0.940600	0.251900	0.208900
C771	C77	0.973500	0.304700	0.163500
C781	C78	0.972800	0.326800	0.114700
C791	C79	0.936700	0.309800	0.079100
C801	C80	0.902900	0.271200	0.091000
H371	H37	0.879600	0.259800	0.066300
C811	C81	0.009800	0.368300	0.100200
O251	O25	0.603300	0.060200	0.999800
O261	O26	0.621900	0.130200	0.954600
O271	O27	0.868300	0.954300	0.379100
O281	O28	0.938500	0.998200	0.397400
O291	O29	0.045900	0.378500	0.131200
O301	O30	0.001800	0.393000	0.059900
O311	O31	0.685800	0.195000	0.991400
H381	H38	0.702100	0.190900	0.964700
O321	O32	0.800400	0.991700	0.318000
H391	H39	0.813200	0.968800	0.335600
O331	O33	0.007600	0.317800	0.200800
H401	H40	0.033400	0.330100	0.187600
O341	O34	0.963000	0.061000	0.319000
O351	O35	0.937500	0.326800	0.031200
H411	H41	0.956900	0.308800	0.014000
O361	O36	0.649000	0.047200	0.085700
H421	H42	0.649200	0.023200	0.065300
Zn41	Zn4	0.955480	0.952510	0.454210
C821	C82	0.870700	0.898500	0.491400
C831	C83	0.830500	0.884600	0.530000
C841	C84	0.817700	0.917400	0.570700
C851	C85	0.777400	0.904300	0.603600
H431	H43	0.768700	0.926900	0.629900
C861	C86	0.750200	0.859800	0.598700
C871	C87	0.763000	0.828000	0.557700
H441	H44	0.745000	0.797500	0.552800
C881	C88	0.801800	0.840600	0.524100
C891	C89	0.706100	0.846000	0.632600
C901	C90	0.694500	0.878700	0.674300
H451	H45	0.715100	0.907300	0.680800
C911	C91	0.651800	0.868300	0.706200
C921	C92	0.621000	0.826400	0.694500
H461	H46	0.592200	0.819900	0.714700
C931	C93	0.631900	0.794300	0.654000
C941	C94	0.675100	0.804900	0.623600
H471	H47	0.682900	0.783100	0.596400
C951	C95	0.638800	0.903800	0.749500
C961	C96	0.674900	0.939700	0.766800
H481	H48	0.707200	0.940900	0.751600
C971	C97	0.663100	0.973300	0.806100
C981	C98	0.614400	0.972500	0.829800
C991	C99	0.578300	0.937400	0.811700
C1001	C100	0.590700	0.903500	0.771800
H491	H49	0.566100	0.880300	0.760200
C1011	C101	0.600500	0.009800	0.871100
C1021	C102	0.597100	0.751500	0.640100
C1031	C103	0.560500	0.733700	0.676200
H501	H50	0.559400	0.748100	0.708900
C1041	C104	0.526500	0.695300	0.663500
C1051	C105	0.527200	0.673200	0.614700
C1061	C106	0.563300	0.690200	0.579100
C1071	C107	0.597100	0.728800	0.591000
H511	H51	0.620400	0.740200	0.566300
C1081	C108	0.490200	0.631700	0.600200
O371	O37	0.896700	0.939800	0.499800
O381	O38	0.878100	0.869800	0.454600
O391	O39	0.631700	0.045700	0.879100
O401	O40	0.561500	0.001800	0.897400
O411	O41	0.454100	0.621500	0.631200
O421	O42	0.498200	0.607000	0.559900
O431	O43	0.814200	0.805000	0.491400
H521	H52	0.797900	0.809100	0.464700
O441	O44	0.699600	0.008300	0.818000
H531	H53	0.686800	0.031200	0.835600
O451	O45	0.492400	0.682200	0.700800
H541	H54	0.466600	0.669900	0.687600
O461	O46	0.537000	0.939000	0.819000
O471	O47	0.562500	0.673200	0.531200
H551	H55	0.543100	0.691200	0.514000
O481	O48	0.851000	0.952800	0.585700
H561	H56	0.850800	0.976800	0.565300
Zn51	Zn5	0.545790	0.455480	0.547490
C1091	C109	0.508600	0.370700	0.601500
C1101	C110	0.470000	0.330500	0.615400
C1111	C111	0.429300	0.317700	0.582600
C1121	C112	0.396400	0.277400	0.595700
H571	H57	0.370100	0.268700	0.573100
C1131	C113	0.401300	0.250200	0.640200
C1141	C114	0.442300	0.263000	0.672000
H581	H58	0.447200	0.245000	0.702500
C1151	C115	0.475900	0.301800	0.659400
C1161	C116	0.367400	0.206100	0.654000
C1171	C117	0.325700	0.194500	0.621300
H591	H59	0.319200	0.215100	0.592700
C1181	C118	0.293800	0.151800	0.631700
C1191	C119	0.305500	0.121000	0.673600
H601	H60	0.285300	0.092200	0.680100
C1201	C120	0.346000	0.131900	0.705700
C1211	C121	0.376400	0.175100	0.695100
H611	H61	0.403600	0.182900	0.716900
C1221	C122	0.250500	0.138800	0.596200
C1231	C123	0.233200	0.174900	0.560300
H621	H62	0.248400	0.207200	0.559100
C1241	C124	0.193900	0.163100	0.526700
C1251	C125	0.170200	0.114400	0.527500
C1261	C126	0.188300	0.078300	0.562600
C1271	C127	0.228200	0.090700	0.596500
H631	H63	0.239800	0.066100	0.619700
C1281	C128	0.128900	0.100500	0.490200
C1291	C129	0.359900	0.097100	0.748500
C1301	C130	0.323800	0.060500	0.766300
H641	H64	0.291100	0.059400	0.751900
C1311	C131	0.336500	0.026500	0.804700
C1321	C132	0.385300	0.027200	0.826800
C1331	C133	0.420900	0.063300	0.809800
C1341	C134	0.409000	0.097100	0.771200
H651	H65	0.433700	0.120400	0.759800
C1351	C135	0.399800	0.990200	0.868300
O491	O49	0.500200	0.396700	0.560200
O501	O50	0.545400	0.378100	0.630200
O511	O51	0.120900	0.131700	0.454300
O521	O52	0.102600	0.061500	0.498200
O531	O53	0.368800	0.954100	0.878500
O541	O54	0.440100	0.998200	0.893000
O551	O55	0.508600	0.314200	0.695000
H661	H66	0.535300	0.297900	0.690900
O561	O56	0.182000	0.199600	0.491700
H671	H67	0.164400	0.186800	0.468800
O571	O57	0.299200	0.992400	0.817800
H681	H68	0.312400	0.966600	0.830100
O581	O58	0.181000	0.037000	0.561000
O591	O59	0.468800	0.062500	0.826800
H691	H69	0.486000	0.043100	0.808800
O601	O60	0.414300	0.351000	0.547200
H701	H70	0.434700	0.350800	0.523200
Zn61	Zn6	0.045790	0.044520	0.452510
C1361	C136	0.008600	0.129300	0.398500
C1371	C137	0.970000	0.169500	0.384600
C1381	C138	0.929300	0.182300	0.417400
C1391	C139	0.896400	0.222600	0.404300
H711	H71	0.870100	0.231300	0.426900
C1401	C140	0.901300	0.249800	0.359800
C1411	C141	0.942300	0.237000	0.328000
H721	H72	0.947200	0.255000	0.297500
C1421	C142	0.975900	0.198200	0.340600
C1431	C143	0.867400	0.293900	0.346000
C1441	C144	0.825700	0.305500	0.378700
H731	H73	0.819200	0.284900	0.407300
C1451	C145	0.793800	0.348200	0.368300
C1461	C146	0.805500	0.379000	0.326400
H741	H74	0.785300	0.407800	0.319900
C1471	C147	0.846000	0.368100	0.294300
C1481	C148	0.876400	0.324900	0.304900
H751	H75	0.903600	0.317100	0.283100
C1491	C149	0.750500	0.361200	0.403800
C1501	C150	0.733200	0.325100	0.439700
H761	H76	0.748400	0.292800	0.440900
C1511	C151	0.693900	0.336900	0.473300
C1521	C152	0.670200	0.385600	0.472500
C1531	C153	0.688300	0.421700	0.437400
C1541	C154	0.728200	0.409300	0.403500
H771	H77	0.739800	0.433900	0.380300
C1551	C155	0.628900	0.399500	0.509800
C1561	C156	0.859900	0.402900	0.251500
C1571	C157	0.823800	0.439500	0.233700
H781	H78	0.791100	0.440600	0.248100
C1581	C158	0.836500	0.473500	0.195300
C1591	C159	0.885300	0.472800	0.173200
C1601	C160	0.920900	0.436700	0.190200
C1611	C161	0.909000	0.402900	0.228800
H791	H79	0.933700	0.379600	0.240200
C1621	C162	0.899800	0.509800	0.131700
O611	O61	0.000200	0.103300	0.439800
O621	O62	0.045400	0.121900	0.369800
O631	O63	0.620900	0.368300	0.545700
O641	O64	0.602600	0.438500	0.501800
O651	O65	0.868800	0.545900	0.121500
O661	O66	0.940100	0.501800	0.107000
O671	O67	0.008600	0.185800	0.305000
H801	H80	0.035300	0.202100	0.309100
O681	O68	0.682000	0.300400	0.508300
H811	H81	0.664400	0.313200	0.531200
O691	O69	0.799200	0.507600	0.182200
H821	H82	0.812400	0.533400	0.169900
O701	O70	0.681000	0.463000	0.439000
O711	O71	0.968800	0.437500	0.173200
H831	H83	0.986000	0.456900	0.191200
O721	O72	0.914300	0.149000	0.452800
H841	H84	0.934700	0.149200	0.476800
Zn71	Zn7	0.954210	0.544520	0.047490
C1631	C163	0.991400	0.629300	0.101500
C1641	C164	0.030000	0.669500	0.115400
C1651	C165	0.070700	0.682300	0.082600
C1661	C166	0.103600	0.722600	0.095700
H851	H85	0.129900	0.731300	0.073100
C1671	C167	0.098700	0.749800	0.140200
C1681	C168	0.057700	0.737000	0.172000
H861	H86	0.052800	0.755000	0.202500
C1691	C169	0.024100	0.698200	0.159400
C1701	C170	0.132600	0.793900	0.154000
C1711	C171	0.174300	0.805500	0.121300
H871	H87	0.180800	0.784900	0.092700
C1721	C172	0.206200	0.848200	0.131700
C1731	C173	0.194500	0.879000	0.173600
H881	H88	0.214700	0.907800	0.180100
C1741	C174	0.154000	0.868100	0.205700
C1751	C175	0.123600	0.824900	0.195100
H891	H89	0.096400	0.817100	0.216900
C1761	C176	0.249500	0.861200	0.096200
C1771	C177	0.266800	0.825100	0.060300
H901	H90	0.251600	0.792800	0.059100
C1781	C178	0.306100	0.836900	0.026700
C1791	C179	0.329800	0.885600	0.027500
C1801	C180	0.311700	0.921700	0.062600
C1811	C181	0.271800	0.909300	0.096500
H911	H91	0.260200	0.933900	0.119700
C1821	C182	0.371100	0.899500	0.990200
C1831	C183	0.140100	0.902900	0.248500
C1841	C184	0.176200	0.939500	0.266300
H921	H92	0.208900	0.940600	0.251900
C1851	C185	0.163500	0.973500	0.304700
C1861	C186	0.114700	0.972800	0.326800
C1871	C187	0.079100	0.936700	0.309800
C1881	C188	0.091000	0.902900	0.271200
H931	H93	0.066300	0.879600	0.259800
C1891	C189	0.100200	0.009800	0.368300
O731	O73	0.999800	0.603300	0.060200
O741	O74	0.954600	0.621900	0.130200
O751	O75	0.379100	0.868300	0.954300
O761	O76	0.397400	0.938500	0.998200
O771	O77	0.131200	0.045900	0.378500
O781	O78	0.059900	0.001800	0.393000
O791	O79	0.991400	0.685800	0.195000
H941	H94	0.964700	0.702100	0.190900
O801	O80	0.318000	0.800400	0.991700
H951	H95	0.335600	0.813200	0.968800
O811	O81	0.200800	0.007600	0.317800
H961	H96	0.187600	0.033400	0.330100
O821	O82	0.319000	0.963000	0.061000
O831	O83	0.031200	0.937500	0.326800
H971	H97	0.014000	0.956900	0.308800
O841	O84	0.085700	0.649000	0.047200
H981	H98	0.065300	0.649200	0.023200
Zn81	Zn8	0.454210	0.955480	0.952510
C1901	C190	0.491400	0.870700	0.898500
C1911	C191	0.530000	0.830500	0.884600
C1921	C192	0.570700	0.817700	0.917400
C1931	C193	0.603600	0.777400	0.904300
H991	H99	0.629900	0.768700	0.926900
C1941	C194	0.598700	0.750200	0.859800
C1951	C195	0.557700	0.763000	0.828000
H1001	H100	0.552800	0.745000	0.797500
C1961	C196	0.524100	0.801800	0.840600
C1971	C197	0.632600	0.706100	0.846000
C1981	C198	0.674300	0.694500	0.878700
H1011	H101	0.680800	0.715100	0.907300
C1991	C199	0.706200	0.651800	0.868300
C2001	C200	0.694500	0.621000	0.826400
H1021	H102	0.714700	0.592200	0.819900
C2011	C201	0.654000	0.631900	0.794300
C2021	C202	0.623600	0.675100	0.804900
H1031	H103	0.596400	0.682900	0.783100
C2031	C203	0.749500	0.638800	0.903800
C2041	C204	0.766800	0.674900	0.939700
H1041	H104	0.751600	0.707200	0.940900
C2051	C205	0.806100	0.663100	0.973300
C2061	C206	0.829800	0.614400	0.972500
C2071	C207	0.811700	0.578300	0.937400
C2081	C208	0.771800	0.590700	0.903500
H1051	H105	0.760200	0.566100	0.880300
C2091	C209	0.871100	0.600500	0.009800
C2101	C210	0.640100	0.597100	0.751500
C2111	C211	0.676200	0.560500	0.733700
H1061	H106	0.708900	0.559400	0.748100
C2121	C212	0.663500	0.526500	0.695300
C2131	C213	0.614700	0.527200	0.673200
C2141	C214	0.579100	0.563300	0.690200
C2151	C215	0.591000	0.597100	0.728800
H1071	H107	0.566300	0.620400	0.740200
C2161	C216	0.600200	0.490200	0.631700
O851	O85	0.499800	0.896700	0.939800
O861	O86	0.454600	0.878100	0.869800
O871	O87	0.879100	0.631700	0.045700
O881	O88	0.897400	0.561500	0.001800
O891	O89	0.631200	0.454100	0.621500
O901	O90	0.559900	0.498200	0.607000
O911	O91	0.491400	0.814200	0.805000
H1081	H108	0.464700	0.797900	0.809100
O921	O92	0.818000	0.699600	0.008300
H1091	H109	0.835600	0.686800	0.031200
O931	O93	0.700800	0.492400	0.682200
H1101	H110	0.687600	0.466600	0.669900
O941	O94	0.819000	0.537000	0.939000
O951	O95	0.531200	0.562500	0.673200
H1111	H111	0.514000	0.543100	0.691200
O961	O96	0.585700	0.851000	0.952800
H1121	H112	0.565300	0.850800	0.976800
Zn91	Zn9	0.547490	0.545790	0.455480
C2171	C217	0.601500	0.508600	0.370700
C2181	C218	0.615400	0.470000	0.330500
C2191	C219	0.582600	0.429300	0.317700
C2201	C220	0.595700	0.396400	0.277400
H1131	H113	0.573100	0.370100	0.268700
C2211	C221	0.640200	0.401300	0.250200
C2221	C222	0.672000	0.442300	0.263000
H1141	H114	0.702500	0.447200	0.245000
C2231	C223	0.659400	0.475900	0.301800
C2241	C224	0.654000	0.367400	0.206100
C2251	C225	0.621300	0.325700	0.194500
H1151	H115	0.592700	0.319200	0.215100
C2261	C226	0.631700	0.293800	0.151800
C2271	C227	0.673600	0.305500	0.121000
H1161	H116	0.680100	0.285300	0.092200
C2281	C228	0.705700	0.346000	0.131900
C2291	C229	0.695100	0.376400	0.175100
H1171	H117	0.716900	0.403600	0.182900
C2301	C230	0.596200	0.250500	0.138800
C2311	C231	0.560300	0.233200	0.174900
H1181	H118	0.559100	0.248400	0.207200
C2321	C232	0.526700	0.193900	0.163100
C2331	C233	0.527500	0.170200	0.114400
C2341	C234	0.562600	0.188300	0.078300
C2351	C235	0.596500	0.228200	0.090700
H1191	H119	0.619700	0.239800	0.066100
C2361	C236	0.490200	0.128900	0.100500
C2371	C237	0.748500	0.359900	0.097100
C2381	C238	0.766300	0.323800	0.060500
H1201	H120	0.751900	0.291100	0.059400
C2391	C239	0.804700	0.336500	0.026500
C2401	C240	0.826800	0.385300	0.027200
C2411	C241	0.809800	0.420900	0.063300
C2421	C242	0.771200	0.409000	0.097100
H1211	H121	0.759800	0.433700	0.120400
C2431	C243	0.868300	0.399800	0.990200
O971	O97	0.560200	0.500200	0.396700
O981	O98	0.630200	0.545400	0.378100
O991	O99	0.454300	0.120900	0.131700
O1001	O100	0.498200	0.102600	0.061500
O1011	O101	0.878500	0.368800	0.954100
O1021	O102	0.893000	0.440100	0.998200
O1031	O103	0.695000	0.508600	0.314200
H1221	H122	0.690900	0.535300	0.297900
O1041	O104	0.491700	0.182000	0.199600
H1231	H123	0.468800	0.164400	0.186800
O1051	O105	0.817800	0.299200	0.992400
H1241	H124	0.830100	0.312400	0.966600
O1061	O106	0.561000	0.181000	0.037000
O1071	O107	0.826800	0.468800	0.062500
H1251	H125	0.808800	0.486000	0.043100
O1081	O108	0.547200	0.414300	0.351000
H1261	H126	0.523200	0.434700	0.350800
Zn101	Zn10	0.452510	0.045790	0.044520
C2441	C244	0.398500	0.008600	0.129300
C2451	C245	0.384600	0.970000	0.169500
C2461	C246	0.417400	0.929300	0.182300
C2471	C247	0.404300	0.896400	0.222600
H1271	H127	0.426900	0.870100	0.231300
C2481	C248	0.359800	0.901300	0.249800
C2491	C249	0.328000	0.942300	0.237000
H1281	H128	0.297500	0.947200	0.255000
C2501	C250	0.340600	0.975900	0.198200
C2511	C251	0.346000	0.867400	0.293900
C2521	C252	0.378700	0.825700	0.305500
H1291	H129	0.407300	0.819200	0.284900
C2531	C253	0.368300	0.793800	0.348200
C2541	C254	0.326400	0.805500	0.379000
H1301	H130	0.319900	0.785300	0.407800
C2551	C255	0.294300	0.846000	0.368100
C2561	C256	0.304900	0.876400	0.324900
H1311	H131	0.283100	0.903600	0.317100
C2571	C257	0.403800	0.750500	0.361200
C2581	C258	0.439700	0.733200	0.325100
H1321	H132	0.440900	0.748400	0.292800
C2591	C259	0.473300	0.693900	0.336900
C2601	C260	0.472500	0.670200	0.385600
C2611	C261	0.437400	0.688300	0.421700
C2621	C262	0.403500	0.728200	0.409300
H1331	H133	0.380300	0.739800	0.433900
C2631	C263	0.509800	0.628900	0.399500
C2641	C264	0.251500	0.859900	0.402900
C2651	C265	0.233700	0.823800	0.439500
H1341	H134	0.248100	0.791100	0.440600
C2661	C266	0.195300	0.836500	0.473500
C2671	C267	0.173200	0.885300	0.472800
C2681	C268	0.190200	0.920900	0.436700
C2691	C269	0.228800	0.909000	0.402900
H1351	H135	0.240200	0.933700	0.379600
C2701	C270	0.131700	0.899800	0.509800
O1091	O109	0.439800	0.000200	0.103300
O1101	O110	0.369800	0.045400	0.121900
O1111	O111	0.545700	0.620900	0.368300
O1121	O112	0.501800	0.602600	0.438500
O1131	O113	0.121500	0.868800	0.545900
O1141	O114	0.107000	0.940100	0.501800
O1151	O115	0.305000	0.008600	0.185800
H1361	H136	0.309100	0.035300	0.202100
O1161	O116	0.508300	0.682000	0.300400
H1371	H137	0.531200	0.664400	0.313200
O1171	O117	0.182200	0.799200	0.507600
H1381	H138	0.169900	0.812400	0.533400
O1181	O118	0.439000	0.681000	0.463000
O1191	O119	0.173200	0.968800	0.437500
H1391	H139	0.191200	0.986000	0.456900
O1201	O120	0.452800	0.914300	0.149000
H1401	H140	0.476800	0.934700	0.149200
Zn111	Zn11	0.047490	0.954210	0.544520
C2711	C271	0.101500	0.991400	0.629300
C2721	C272	0.115400	0.030000	0.669500
C2731	C273	0.082600	0.070700	0.682300
C2741	C274	0.095700	0.103600	0.722600
H1411	H141	0.073100	0.129900	0.731300
C2751	C275	0.140200	0.098700	0.749800
C2761	C276	0.172000	0.057700	0.737000
H1421	H142	0.202500	0.052800	0.755000
C2771	C277	0.159400	0.024100	0.698200
C2781	C278	0.154000	0.132600	0.793900
C2791	C279	0.121300	0.174300	0.805500
H1431	H143	0.092700	0.180800	0.784900
C2801	C280	0.131700	0.206200	0.848200
C2811	C281	0.173600	0.194500	0.879000
H1441	H144	0.180100	0.214700	0.907800
C2821	C282	0.205700	0.154000	0.868100
C2831	C283	0.195100	0.123600	0.824900
H1451	H145	0.216900	0.096400	0.817100
C2841	C284	0.096200	0.249500	0.861200
C2851	C285	0.060300	0.266800	0.825100
H1461	H146	0.059100	0.251600	0.792800
C2861	C286	0.026700	0.306100	0.836900
C2871	C287	0.027500	0.329800	0.885600
C2881	C288	0.062600	0.311700	0.921700
C2891	C289	0.096500	0.271800	0.909300
H1471	H147	0.119700	0.260200	0.933900
C2901	C290	0.990200	0.371100	0.899500
C2911	C291	0.248500	0.140100	0.902900
C2921	C292	0.266300	0.176200	0.939500
H1481	H148	0.251900	0.208900	0.940600
C2931	C293	0.304700	0.163500	0.973500
C2941	C294	0.326800	0.114700	0.972800
C2951	C295	0.309800	0.079100	0.936700
C2961	C296	0.271200	0.091000	0.902900
H1491	H149	0.259800	0.066300	0.879600
C2971	C297	0.368300	0.100200	0.009800
O1211	O121	0.060200	0.999800	0.603300
O1221	O122	0.130200	0.954600	0.621900
O1231	O123	0.954300	0.379100	0.868300
O1241	O124	0.998200	0.397400	0.938500
O1251	O125	0.378500	0.131200	0.045900
O1261	O126	0.393000	0.059900	0.001800
O1271	O127	0.195000	0.991400	0.685800
H1501	H150	0.190900	0.964700	0.702100
O1281	O128	0.991700	0.318000	0.800400
H1511	H151	0.968800	0.335600	0.813200
O1291	O129	0.317800	0.200800	0.007600
H1521	H152	0.330100	0.187600	0.033400
O1301	O130	0.061000	0.319000	0.963000
O1311	O131	0.326800	0.031200	0.937500
H1531	H153	0.308800	0.014000	0.956900
O1321	O132	0.047200	0.085700	0.649000
H1541	H154	0.023200	0.065300	0.649200
Zn121	Zn12	0.952510	0.454210	0.955480
C2981	C298	0.898500	0.491400	0.870700
C2991	C299	0.884600	0.530000	0.830500
C3001	C300	0.917400	0.570700	0.817700
C3011	C301	0.904300	0.603600	0.777400
H1551	H155	0.926900	0.629900	0.768700
C3021	C302	0.859800	0.598700	0.750200
C3031	C303	0.828000	0.557700	0.763000
H1561	H156	0.797500	0.552800	0.745000
C3041	C304	0.840600	0.524100	0.801800
C3051	C305	0.846000	0.632600	0.706100
C3061	C306	0.878700	0.674300	0.694500
H1571	H157	0.907300	0.680800	0.715100
C3071	C307	0.868300	0.706200	0.651800
C3081	C308	0.826400	0.694500	0.621000
H1581	H158	0.819900	0.714700	0.592200
C3091	C309	0.794300	0.654000	0.631900
C3101	C310	0.804900	0.623600	0.675100
H1591	H159	0.783100	0.596400	0.682900
C3111	C311	0.903800	0.749500	0.638800
C3121	C312	0.939700	0.766800	0.674900
H1601	H160	0.940900	0.751600	0.707200
C3131	C313	0.973300	0.806100	0.663100
C3141	C314	0.972500	0.829800	0.614400
C3151	C315	0.937400	0.811700	0.578300
C3161	C316	0.903500	0.771800	0.590700
H1611	H161	0.880300	0.760200	0.566100
C3171	C317	0.009800	0.871100	0.600500
C3181	C318	0.751500	0.640100	0.597100
C3191	C319	0.733700	0.676200	0.560500
H1621	H162	0.748100	0.708900	0.559400
C3201	C320	0.695300	0.663500	0.526500
C3211	C321	0.673200	0.614700	0.527200
C3221	C322	0.690200	0.579100	0.563300
C3231	C323	0.728800	0.591000	0.597100
H1631	H163	0.740200	0.566300	0.620400
C3241	C324	0.631700	0.600200	0.490200
O1331	O133	0.939800	0.499800	0.896700
O1341	O134	0.869800	0.454600	0.878100
O1351	O135	0.045700	0.879100	0.631700
O1361	O136	0.001800	0.897400	0.561500
O1371	O137	0.621500	0.631200	0.454100
O1381	O138	0.607000	0.559900	0.498200
O1391	O139	0.805000	0.491400	0.814200
H1641	H164	0.809100	0.464700	0.797900
O1401	O140	0.008300	0.818000	0.699600
H1651	H165	0.031200	0.835600	0.686800
O1411	O141	0.682200	0.700800	0.492400
H1661	H166	0.669900	0.687600	0.466600
O1421	O142	0.939000	0.819000	0.537000
O1431	O143	0.673200	0.531200	0.562500
H1671	H167	0.691200	0.514000	0.543100
O1441	O144	0.952800	0.585700	0.851000
H1681	H168	0.976800	0.565300	0.850800
Zn131	Zn13	0.297490	0.705480	0.704210
C3251	C325	0.351500	0.620700	0.741400
C3261	C326	0.365400	0.580500	0.780000
C3271	C327	0.332600	0.567700	0.820700
C3281	C328	0.345700	0.527400	0.853600
H1691	H169	0.323100	0.518700	0.879900
C3291	C329	0.390200	0.500200	0.848700
C3301	C330	0.422000	0.513000	0.807700
H1701	H170	0.452500	0.495000	0.802800
C3311	C331	0.409400	0.551800	0.774100
C3321	C332	0.404000	0.456100	0.882600
C3331	C333	0.371300	0.444500	0.924300
H1711	H171	0.342700	0.465100	0.930800
C3341	C334	0.381700	0.401800	0.956200
C3351	C335	0.423600	0.371000	0.944500
H1721	H172	0.430100	0.342200	0.964700
C3361	C336	0.455700	0.381900	0.904000
C3371	C337	0.445100	0.425100	0.873600
H1731	H173	0.466900	0.432900	0.846400
C3381	C338	0.346200	0.388800	0.999500
C3391	C339	0.310300	0.424900	0.016800
H1741	H174	0.309100	0.457200	0.001600
C3401	C340	0.276700	0.413100	0.056100
C3411	C341	0.277500	0.364400	0.079800
C3421	C342	0.312600	0.328300	0.061700
C3431	C343	0.346500	0.340700	0.021800
H1751	H175	0.369700	0.316100	0.010200
C3441	C344	0.240200	0.350500	0.121100
C3451	C345	0.498500	0.347100	0.890100
C3461	C346	0.516300	0.310500	0.926200
H1761	H176	0.501900	0.309400	0.958900
C3471	C347	0.554700	0.276500	0.913500
C3481	C348	0.576800	0.277200	0.864700
C3491	C349	0.559800	0.313300	0.829100
C3501	C350	0.521200	0.347100	0.841000
H1771	H177	0.509800	0.370400	0.816300
C3511	C351	0.618300	0.240200	0.850200
O1451	O145	0.310200	0.646700	0.749800
O1461	O146	0.380200	0.628100	0.704600
O1471	O147	0.204300	0.381700	0.129100
O1481	O148	0.248200	0.311500	0.147400
O1491	O149	0.628500	0.204100	0.881200
O1501	O150	0.643000	0.248200	0.809900
O1511	O151	0.445000	0.564200	0.741400
H1781	H178	0.440900	0.547900	0.714700
O1521	O152	0.241700	0.449600	0.068000
H1791	H179	0.218800	0.436800	0.085600
O1531	O153	0.567800	0.242400	0.950800
H1801	H180	0.580100	0.216600	0.937600
O1541	O154	0.311000	0.287000	0.069000
O1551	O155	0.576800	0.312500	0.781200
H1811	H181	0.558800	0.293100	0.764000
O1561	O156	0.297200	0.601000	0.835700
H1821	H182	0.273200	0.600800	0.815300
Zn141	Zn14	0.202510	0.294520	0.204210
C3521	C352	0.148500	0.379300	0.241400
C3531	C353	0.134600	0.419500	0.280000
C3541	C354	0.167400	0.432300	0.320700
C3551	C355	0.154300	0.472600	0.353600
H1831	H183	0.176900	0.481300	0.379900
C3561	C356	0.109800	0.499800	0.348700
C3571	C357	0.078000	0.487000	0.307700
H1841	H184	0.047500	0.505000	0.302800
C3581	C358	0.090600	0.448200	0.274100
C3591	C359	0.096000	0.543900	0.382600
C3601	C360	0.128700	0.555500	0.424300
H1851	H185	0.157300	0.534900	0.430800
C3611	C361	0.118300	0.598200	0.456200
C3621	C362	0.076400	0.629000	0.444500
H1861	H186	0.069900	0.657800	0.464700
C3631	C363	0.044300	0.618100	0.404000
C3641	C364	0.054900	0.574900	0.373600
H1871	H187	0.033100	0.567100	0.346400
C3651	C365	0.153800	0.611200	0.499500
C3661	C366	0.189700	0.575100	0.516800
H1881	H188	0.190900	0.542800	0.501600
C3671	C367	0.223300	0.586900	0.556100
C3681	C368	0.222500	0.635600	0.579800
C3691	C369	0.187400	0.671700	0.561700
C3701	C370	0.153500	0.659300	0.521800
H1891	H189	0.130300	0.683900	0.510200
C3711	C371	0.259800	0.649500	0.621100
C3721	C372	0.001500	0.652900	0.390100
C3731	C373	0.983700	0.689500	0.426200
H1901	H190	0.998100	0.690600	0.458900
C3741	C374	0.945300	0.723500	0.413500
C3751	C375	0.923200	0.722800	0.364700
C3761	C376	0.940200	0.686700	0.329100
C3771	C377	0.978800	0.652900	0.341000
H1911	H191	0.990200	0.629600	0.316300
C3781	C378	0.881700	0.759800	0.350200
O1571	O157	0.189800	0.353300	0.249800
O1581	O158	0.119800	0.371900	0.204600
O1591	O159	0.295700	0.618300	0.629100
O1601	O160	0.251800	0.688500	0.647400
O1611	O161	0.871500	0.795900	0.381200
O1621	O162	0.857000	0.751800	0.309900
O1631	O163	0.055000	0.435800	0.241400
H1921	H192	0.059100	0.452100	0.214700
O1641	O164	0.258300	0.550400	0.568000
H1931	H193	0.281200	0.563200	0.585600
O1651	O165	0.932200	0.757600	0.450800
H1941	H194	0.919900	0.783400	0.437600
O1661	O166	0.189000	0.713000	0.569000
O1671	O167	0.923200	0.687500	0.281200
H1951	H195	0.941200	0.706900	0.264000
O1681	O168	0.202800	0.399000	0.335700
H1961	H196	0.226800	0.399200	0.315300
Zn151	Zn15	0.797490	0.794520	0.295790
C3791	C379	0.851500	0.879300	0.258600
C3801	C380	0.865400	0.919500	0.220000
C3811	C381	0.832600	0.932300	0.179300
C3821	C382	0.845700	0.972600	0.146400
H1971	H197	0.823100	0.981300	0.120100
C3831	C383	0.890200	0.999800	0.151300
C3841	C384	0.922000	0.987000	0.192300
H1981	H198	0.952500	0.005000	0.197200
C3851	C385	0.909400	0.948200	0.225900
C3861	C386	0.904000	0.043900	0.117400
C3871	C387	0.871300	0.055500	0.075700
H1991	H199	0.842700	0.034900	0.069200
C3881	C388	0.881700	0.098200	0.043800
C3891	C389	0.923600	0.129000	0.055500
H2001	H200	0.930100	0.157800	0.035300
C3901	C390	0.955700	0.118100	0.096000
C3911	C391	0.945100	0.074900	0.126400
H2011	H201	0.966900	0.067100	0.153600
C3921	C392	0.846200	0.111200	0.000500
C3931	C393	0.810300	0.075100	0.983200
H2021	H202	0.809100	0.042800	0.998400
C3941	C394	0.776700	0.086900	0.943900
C3951	C395	0.777500	0.135600	0.920200
C3961	C396	0.812600	0.171700	0.938300
C3971	C397	0.846500	0.159300	0.978200
H2031	H203	0.869700	0.183900	0.989800
C3981	C398	0.740200	0.149500	0.878900
C3991	C399	0.998500	0.152900	0.109900
C4001	C400	0.016300	0.189500	0.073800
H2041	H204	0.001900	0.190600	0.041100
C4011	C401	0.054700	0.223500	0.086500
C4021	C402	0.076800	0.222800	0.135300
C4031	C403	0.059800	0.186700	0.170900
C4041	C404	0.021200	0.152900	0.159000
H2051	H205	0.009800	0.129600	0.183700
C4051	C405	0.118300	0.259800	0.149800
O1691	O169	0.810200	0.853300	0.250200
O1701	O170	0.880200	0.871900	0.295400
O1711	O171	0.704300	0.118300	0.870900
O1721	O172	0.748200	0.188500	0.852600
O1731	O173	0.128500	0.295900	0.118800
O1741	O174	0.143000	0.251800	0.190100
O1751	O175	0.945000	0.935800	0.258600
H2061	H206	0.940900	0.952100	0.285300
O1761	O176	0.741700	0.050400	0.932000
H2071	H207	0.718800	0.063200	0.914400
O1771	O177	0.067800	0.257600	0.049200
H2081	H208	0.080100	0.283400	0.062400
O1781	O178	0.811000	0.213000	0.931000
O1791	O179	0.076800	0.187500	0.218800
H2091	H209	0.058800	0.206900	0.236000
O1801	O180	0.797200	0.899000	0.164300
H2101	H210	0.773200	0.899200	0.184700
Zn161	Zn16	0.702510	0.205480	0.795790
C4061	C406	0.648500	0.120700	0.758600
C4071	C407	0.634600	0.080500	0.720000
C4081	C408	0.667400	0.067700	0.679300
C4091	C409	0.654300	0.027400	0.646400
H2111	H211	0.676900	0.018700	0.620100
C4101	C410	0.609800	0.000200	0.651300
C4111	C411	0.578000	0.013000	0.692300
H2121	H212	0.547500	0.995000	0.697200
C4121	C412	0.590600	0.051800	0.725900
C4131	C413	0.596000	0.956100	0.617400
C4141	C414	0.628700	0.944500	0.575700
H2131	H213	0.657300	0.965100	0.569200
C4151	C415	0.618300	0.901800	0.543800
C4161	C416	0.576400	0.871000	0.555500
H2141	H214	0.569900	0.842200	0.535300
C4171	C417	0.544300	0.881900	0.596000
C4181	C418	0.554900	0.925100	0.626400
H2151	H215	0.533100	0.932900	0.653600
C4191	C419	0.653800	0.888800	0.500500
C4201	C420	0.689700	0.924900	0.483200
H2161	H216	0.690900	0.957200	0.498400
C4211	C421	0.723300	0.913100	0.443900
C4221	C422	0.722500	0.864400	0.420200
C4231	C423	0.687400	0.828300	0.438300
C4241	C424	0.653500	0.840700	0.478200
H2171	H217	0.630300	0.816100	0.489800
C4251	C425	0.759800	0.850500	0.378900
C4261	C426	0.501500	0.847100	0.609900
C4271	C427	0.483700	0.810500	0.573800
H2181	H218	0.498100	0.809400	0.541100
C4281	C428	0.445300	0.776500	0.586500
C4291	C429	0.423200	0.777200	0.635300
C4301	C430	0.440200	0.813300	0.670900
C4311	C431	0.478800	0.847100	0.659000
H2191	H219	0.490200	0.870400	0.683700
C4321	C432	0.381700	0.740200	0.649800
O1811	O181	0.689800	0.146700	0.750200
O1821	O182	0.619800	0.128100	0.795400
O1831	O183	0.795700	0.881700	0.370900
O1841	O184	0.751800	0.811500	0.352600
O1851	O185	0.371500	0.704100	0.618800
O1861	O186	0.357000	0.748200	0.690100
O1871	O187	0.555000	0.064200	0.758600
H2201	H220	0.559100	0.047900	0.785300
O1881	O188	0.758300	0.949600	0.432000
H2211	H221	0.781200	0.936800	0.414400
O1891	O189	0.432200	0.742400	0.549200
H2221	H222	0.419900	0.716600	0.562400
O1901	O190	0.689000	0.787000	0.431000
O1911	O191	0.423200	0.812500	0.718800
H2231	H223	0.441200	0.793100	0.736000
O1921	O192	0.702800	0.101000	0.664300
H2241	H224	0.726800	0.100800	0.684700
Zn171	Zn17	0.205480	0.795790	0.702510
C4331	C433	0.120700	0.758600	0.648500
C4341	C434	0.080500	0.720000	0.634600
C4351	C435	0.067700	0.679300	0.667400
C4361	C436	0.027400	0.646400	0.654300
H2251	H225	0.018700	0.620100	0.676900
C4371	C437	0.000200	0.651300	0.609800
C4381	C438	0.013000	0.692300	0.578000
H2261	H226	0.995000	0.697200	0.547500
C4391	C439	0.051800	0.725900	0.590600
C4401	C440	0.956100	0.617400	0.596000
C4411	C441	0.944500	0.575700	0.628700
H2271	H227	0.965100	0.569200	0.657300
C4421	C442	0.901800	0.543800	0.618300
C4431	C443	0.871000	0.555500	0.576400
H2281	H228	0.842200	0.535300	0.569900
C4441	C444	0.881900	0.596000	0.544300
C4451	C445	0.925100	0.626400	0.554900
H2291	H229	0.932900	0.653600	0.533100
C4461	C446	0.888800	0.500500	0.653800
C4471	C447	0.924900	0.483200	0.689700
H2301	H230	0.957200	0.498400	0.690900
C4481	C448	0.913100	0.443900	0.723300
C4491	C449	0.864400	0.420200	0.722500
C4501	C450	0.828300	0.438300	0.687400
C4511	C451	0.840700	0.478200	0.653500
H2311	H231	0.816100	0.489800	0.630300
C4521	C452	0.850500	0.378900	0.759800
C4531	C453	0.847100	0.609900	0.501500
C4541	C454	0.810500	0.573800	0.483700
H2321	H232	0.809400	0.541100	0.498100
C4551	C455	0.776500	0.586500	0.445300
C4561	C456	0.777200	0.635300	0.423200
C4571	C457	0.813300	0.670900	0.440200
C4581	C458	0.847100	0.659000	0.478800
H2331	H233	0.870400	0.683700	0.490200
C4591	C459	0.740200	0.649800	0.381700
O1931	O193	0.146700	0.750200	0.689800
O1941	O194	0.128100	0.795400	0.619800
O1951	O195	0.881700	0.370900	0.795700
O1961	O196	0.811500	0.352600	0.751800
O1971	O197	0.704100	0.618800	0.371500
O1981	O198	0.748200	0.690100	0.357000
O1991	O199	0.064200	0.758600	0.555000
H2341	H234	0.047900	0.785300	0.559100
O2001	O200	0.949600	0.432000	0.758300
H2351	H235	0.936800	0.414400	0.781200
O2011	O201	0.742400	0.549200	0.432200
H2361	H236	0.716600	0.562400	0.419900
O2021	O202	0.787000	0.431000	0.689000
O2031	O203	0.812500	0.718800	0.423200
H2371	H237	0.793100	0.736000	0.441200
O2041	O204	0.101000	0.664300	0.702800
H2381	H238	0.100800	0.684700	0.726800
Zn181	Zn18	0.794520	0.295790	0.797490
C4601	C460	0.879300	0.258600	0.851500
C4611	C461	0.919500	0.220000	0.865400
C4621	C462	0.932300	0.179300	0.832600
C4631	C463	0.972600	0.146400	0.845700
H2391	H239	0.981300	0.120100	0.823100
C4641	C464	0.999800	0.151300	0.890200
C4651	C465	0.987000	0.192300	0.922000
H2401	H240	0.005000	0.197200	0.952500
C4661	C466	0.948200	0.225900	0.909400
C4671	C467	0.043900	0.117400	0.904000
C4681	C468	0.055500	0.075700	0.871300
H2411	H241	0.034900	0.069200	0.842700
C4691	C469	0.098200	0.043800	0.881700
C4701	C470	0.129000	0.055500	0.923600
H2421	H242	0.157800	0.035300	0.930100
C4711	C471	0.118100	0.096000	0.955700
C4721	C472	0.074900	0.126400	0.945100
H2431	H243	0.067100	0.153600	0.966900
C4731	C473	0.111200	0.000500	0.846200
C4741	C474	0.075100	0.983200	0.810300
H2441	H244	0.042800	0.998400	0.809100
C4751	C475	0.086900	0.943900	0.776700
C4761	C476	0.135600	0.920200	0.777500
C4771	C477	0.171700	0.938300	0.812600
C4781	C478	0.159300	0.978200	0.846500
H2451	H245	0.183900	0.989800	0.869700
C4791	C479	0.149500	0.878900	0.740200
C4801	C480	0.152900	0.109900	0.998500
C4811	C481	0.189500	0.073800	0.016300
H2461	H246	0.190600	0.041100	0.001900
C4821	C482	0.223500	0.086500	0.054700
C4831	C483	0.222800	0.135300	0.076800
C4841	C484	0.186700	0.170900	0.059800
C4851	C485	0.152900	0.159000	0.021200
H2471	H247	0.129600	0.183700	0.009800
C4861	C486	0.259800	0.149800	0.118300
O2051	O205	0.853300	0.250200	0.810200
O2061	O206	0.871900	0.295400	0.880200
O2071	O207	0.118300	0.870900	0.704300
O2081	O208	0.188500	0.852600	0.748200
O2091	O209	0.295900	0.118800	0.128500
O2101	O210	0.251800	0.190100	0.143000
O2111	O211	0.935800	0.258600	0.945000
H2481	H248	0.952100	0.285300	0.940900
O2121	O212	0.050400	0.932000	0.741700
H2491	H249	0.063200	0.914400	0.718800
O2131	O213	0.257600	0.049200	0.067800
H2501	H250	0.283400	0.062400	0.080100
O2141	O214	0.213000	0.931000	0.811000
O2151	O215	0.187500	0.218800	0.076800
H2511	H251	0.206900	0.236000	0.058800
O2161	O216	0.899000	0.164300	0.797200
H2521	H252	0.899200	0.184700	0.773200
Zn191	Zn19	0.294520	0.204210	0.202510
C4871	C487	0.379300	0.241400	0.148500
C4881	C488	0.419500	0.280000	0.134600
C4891	C489	0.432300	0.320700	0.167400
C4901	C490	0.472600	0.353600	0.154300
H2531	H253	0.481300	0.379900	0.176900
C4911	C491	0.499800	0.348700	0.109800
C4921	C492	0.487000	0.307700	0.078000
H2541	H254	0.505000	0.302800	0.047500
C4931	C493	0.448200	0.274100	0.090600
C4941	C494	0.543900	0.382600	0.096000
C4951	C495	0.555500	0.424300	0.128700
H2551	H255	0.534900	0.430800	0.157300
C4961	C496	0.598200	0.456200	0.118300
C4971	C497	0.629000	0.444500	0.076400
H2561	H256	0.657800	0.464700	0.069900
C4981	C498	0.618100	0.404000	0.044300
C4991	C499	0.574900	0.373600	0.054900
H2571	H257	0.567100	0.346400	0.033100
C5001	C500	0.611200	0.499500	0.153800
C5011	C501	0.575100	0.516800	0.189700
H2581	H258	0.542800	0.501600	0.190900
C5021	C502	0.586900	0.556100	0.223300
C5031	C503	0.635600	0.579800	0.222500
C5041	C504	0.671700	0.561700	0.187400
C5051	C505	0.659300	0.521800	0.153500
H2591	H259	0.683900	0.510200	0.130300
C5061	C506	0.649500	0.621100	0.259800
C5071	C507	0.652900	0.390100	0.001500
C5081	C508	0.689500	0.426200	0.983700
H2601	H260	0.690600	0.458900	0.998100
C5091	C509	0.723500	0.413500	0.945300
C5101	C510	0.722800	0.364700	0.923200
C5111	C511	0.686700	0.329100	0.940200
C5121	C512	0.652900	0.341000	0.978800
H2611	H261	0.629600	0.316300	0.990200
C5131	C513	0.759800	0.350200	0.881700
O2171	O217	0.353300	0.249800	0.189800
O2181	O218	0.371900	0.204600	0.119800
O2191	O219	0.618300	0.629100	0.295700
O2201	O220	0.688500	0.647400	0.251800
O2211	O221	0.795900	0.381200	0.871500
O2221	O222	0.751800	0.309900	0.857000
O2231	O223	0.435800	0.241400	0.055000
H2621	H262	0.452100	0.214700	0.059100
O2241	O224	0.550400	0.568000	0.258300
H2631	H263	0.563200	0.585600	0.281200
O2251	O225	0.757600	0.450800	0.932200
H2641	H264	0.783400	0.437600	0.919900
O2261	O226	0.713000	0.569000	0.189000
O2271	O227	0.687500	0.281200	0.923200
H2651	H265	0.706900	0.264000	0.941200
O2281	O228	0.399000	0.335700	0.202800
H2661	H266	0.399200	0.315300	0.226800
Zn201	Zn20	0.705480	0.704210	0.297490
C5141	C514	0.620700	0.741400	0.351500
C5151	C515	0.580500	0.780000	0.365400
C5161	C516	0.567700	0.820700	0.332600
C5171	C517	0.527400	0.853600	0.345700
H2671	H267	0.518700	0.879900	0.323100
C5181	C518	0.500200	0.848700	0.390200
C5191	C519	0.513000	0.807700	0.422000
H2681	H268	0.495000	0.802800	0.452500
C5201	C520	0.551800	0.774100	0.409400
C5211	C521	0.456100	0.882600	0.404000
C5221	C522	0.444500	0.924300	0.371300
H2691	H269	0.465100	0.930800	0.342700
C5231	C523	0.401800	0.956200	0.381700
C5241	C524	0.371000	0.944500	0.423600
H2701	H270	0.342200	0.964700	0.430100
C5251	C525	0.381900	0.904000	0.455700
C5261	C526	0.425100	0.873600	0.445100
H2711	H271	0.432900	0.846400	0.466900
C5271	C527	0.388800	0.999500	0.346200
C5281	C528	0.424900	0.016800	0.310300
H2721	H272	0.457200	0.001600	0.309100
C5291	C529	0.413100	0.056100	0.276700
C5301	C530	0.364400	0.079800	0.277500
C5311	C531	0.328300	0.061700	0.312600
C5321	C532	0.340700	0.021800	0.346500
H2731	H273	0.316100	0.010200	0.369700
C5331	C533	0.350500	0.121100	0.240200
C5341	C534	0.347100	0.890100	0.498500
C5351	C535	0.310500	0.926200	0.516300
H2741	H274	0.309400	0.958900	0.501900
C5361	C536	0.276500	0.913500	0.554700
C5371	C537	0.277200	0.864700	0.576800
C5381	C538	0.313300	0.829100	0.559800
C5391	C539	0.347100	0.841000	0.521200
H2751	H275	0.370400	0.816300	0.509800
C5401	C540	0.240200	0.850200	0.618300
O2291	O229	0.646700	0.749800	0.310200
O2301	O230	0.628100	0.704600	0.380200
O2311	O231	0.381700	0.129100	0.204300
O2321	O232	0.311500	0.147400	0.248200
O2331	O233	0.204100	0.881200	0.628500
O2341	O234	0.248200	0.809900	0.643000
O2351	O235	0.564200	0.741400	0.445000
H2761	H276	0.547900	0.714700	0.440900
O2361	O236	0.449600	0.068000	0.241700
H2771	H277	0.436800	0.085600	0.218800
O2371	O237	0.242400	0.950800	0.567800
H2781	H278	0.216600	0.937600	0.580100
O2381	O238	0.287000	0.069000	0.311000
O2391	O239	0.312500	0.781200	0.576800
H2791	H279	0.293100	0.764000	0.558800
O2401	O240	0.601000	0.835700	0.297200
H2801	H280	0.600800	0.815300	0.273200
Zn211	Zn21	0.295790	0.797490	0.794520
C5411	C541	0.258600	0.851500	0.879300
C5421	C542	0.220000	0.865400	0.919500
C5431	C543	0.179300	0.832600	0.932300
C5441	C544	0.146400	0.845700	0.972600
H2811	H281	0.120100	0.823100	0.981300
C5451	C545	0.151300	0.890200	0.999800
C5461	C546	0.192300	0.922000	0.987000
H2821	H282	0.197200	0.952500	0.005000
C5471	C547	0.225900	0.909400	0.948200
C5481	C548	0.117400	0.904000	0.043900
C5491	C549	0.075700	0.871300	0.055500
H2831	H283	0.069200	0.842700	0.034900
C5501	C550	0.043800	0.881700	0.098200
C5511	C551	0.055500	0.923600	0.129000
H2841	H284	0.035300	0.930100	0.157800
C5521	C552	0.096000	0.955700	0.118100
C5531	C553	0.126400	0.945100	0.074900
H2851	H285	0.153600	0.966900	0.067100
C5541	C554	0.000500	0.846200	0.111200
C5551	C555	0.983200	0.810300	0.075100
H2861	H286	0.998400	0.809100	0.042800
C5561	C556	0.943900	0.776700	0.086900
C5571	C557	0.920200	0.777500	0.135600
C5581	C558	0.938300	0.812600	0.171700
C5591	C559	0.978200	0.846500	0.159300
H2871	H287	0.989800	0.869700	0.183900
C5601	C560	0.878900	0.740200	0.149500
C5611	C561	0.109900	0.998500	0.152900
C5621	C562	0.073800	0.016300	0.189500
H2881	H288	0.041100	0.001900	0.190600
C5631	C563	0.086500	0.054700	0.223500
C5641	C564	0.135300	0.076800	0.222800
C5651	C565	0.170900	0.059800	0.186700
C5661	C566	0.159000	0.021200	0.152900
H2891	H289	0.183700	0.009800	0.129600
C5671	C567	0.149800	0.118300	0.259800
O2411	O241	0.250200	0.810200	0.853300
O2421	O242	0.295400	0.880200	0.871900
O2431	O243	0.870900	0.704300	0.118300
O2441	O244	0.852600	0.748200	0.188500
O2451	O245	0.118800	0.128500	0.295900
O2461	O246	0.190100	0.143000	0.251800
O2471	O247	0.258600	0.945000	0.935800
H2901	H290	0.285300	0.940900	0.952100
O2481	O248	0.932000	0.741700	0.050400
H2911	H291	0.914400	0.718800	0.063200
O2491	O249	0.049200	0.067800	0.257600
H2921	H292	0.062400	0.080100	0.283400
O2501	O250	0.931000	0.811000	0.213000
O2511	O251	0.218800	0.076800	0.187500
H2931	H293	0.236000	0.058800	0.206900
O2521	O252	0.164300	0.797200	0.899000
H2941	H294	0.184700	0.773200	0.899200
Zn221	Zn22	0.795790	0.702510	0.205480
C5681	C568	0.758600	0.648500	0.120700
C5691	C569	0.720000	0.634600	0.080500
C5701	C570	0.679300	0.667400	0.067700
C5711	C571	0.646400	0.654300	0.027400
H2951	H295	0.620100	0.676900	0.018700
C5721	C572	0.651300	0.609800	0.000200
C5731	C573	0.692300	0.578000	0.013000
H2961	H296	0.697200	0.547500	0.995000
C5741	C574	0.725900	0.590600	0.051800
C5751	C575	0.617400	0.596000	0.956100
C5761	C576	0.575700	0.628700	0.944500
H2971	H297	0.569200	0.657300	0.965100
C5771	C577	0.543800	0.618300	0.901800
C5781	C578	0.555500	0.576400	0.871000
H2981	H298	0.535300	0.569900	0.842200
C5791	C579	0.596000	0.544300	0.881900
C5801	C580	0.626400	0.554900	0.925100
H2991	H299	0.653600	0.533100	0.932900
C5811	C581	0.500500	0.653800	0.888800
C5821	C582	0.483200	0.689700	0.924900
H3001	H300	0.498400	0.690900	0.957200
C5831	C583	0.443900	0.723300	0.913100
C5841	C584	0.420200	0.722500	0.864400
C5851	C585	0.438300	0.687400	0.828300
C5861	C586	0.478200	0.653500	0.840700
H3011	H301	0.489800	0.630300	0.816100
C5871	C587	0.378900	0.759800	0.850500
C5881	C588	0.609900	0.501500	0.847100
C5891	C589	0.573800	0.483700	0.810500
H3021	H302	0.541100	0.498100	0.809400
C5901	C590	0.586500	0.445300	0.776500
C5911	C591	0.635300	0.423200	0.777200
C5921	C592	0.670900	0.440200	0.813300
C5931	C593	0.659000	0.478800	0.847100
H3031	H303	0.683700	0.490200	0.870400
C5941	C594	0.649800	0.381700	0.740200
O2531	O253	0.750200	0.689800	0.146700
O2541	O254	0.795400	0.619800	0.128100
O2551	O255	0.370900	0.795700	0.881700
O2561	O256	0.352600	0.751800	0.811500
O2571	O257	0.618800	0.371500	0.704100
O2581	O258	0.690100	0.357000	0.748200
O2591	O259	0.758600	0.555000	0.064200
H3041	H304	0.785300	0.559100	0.047900
O2601	O260	0.432000	0.758300	0.949600
H3051	H305	0.414400	0.781200	0.936800
O2611	O261	0.549200	0.432200	0.742400
H3061	H306	0.562400	0.419900	0.716600
O2621	O262	0.431000	0.689000	0.787000
O2631	O263	0.718800	0.423200	0.812500
H3071	H307	0.736000	0.441200	0.793100
O2641	O264	0.664300	0.702800	0.101000
H3081	H308	0.684700	0.726800	0.100800
Zn231	Zn23	0.704210	0.297490	0.705480
C5951	C595	0.741400	0.351500	0.620700
C5961	C596	0.780000	0.365400	0.580500
C5971	C597	0.820700	0.332600	0.567700
C5981	C598	0.853600	0.345700	0.527400
H3091	H309	0.879900	0.323100	0.518700
C5991	C599	0.848700	0.390200	0.500200
C6001	C600	0.807700	0.422000	0.513000
H3101	H310	0.802800	0.452500	0.495000
C6011	C601	0.774100	0.409400	0.551800
C6021	C602	0.882600	0.404000	0.456100
C6031	C603	0.924300	0.371300	0.444500
H3111	H311	0.930800	0.342700	0.465100
C6041	C604	0.956200	0.381700	0.401800
C6051	C605	0.944500	0.423600	0.371000
H3121	H312	0.964700	0.430100	0.342200
C6061	C606	0.904000	0.455700	0.381900
C6071	C607	0.873600	0.445100	0.425100
H3131	H313	0.846400	0.466900	0.432900
C6081	C608	0.999500	0.346200	0.388800
C6091	C609	0.016800	0.310300	0.424900
H3141	H314	0.001600	0.309100	0.457200
C6101	C610	0.056100	0.276700	0.413100
C6111	C611	0.079800	0.277500	0.364400
C6121	C612	0.061700	0.312600	0.328300
C6131	C613	0.021800	0.346500	0.340700
H3151	H315	0.010200	0.369700	0.316100
C6141	C614	0.121100	0.240200	0.350500
C6151	C615	0.890100	0.498500	0.347100
C6161	C616	0.926200	0.516300	0.310500
H3161	H316	0.958900	0.501900	0.309400
C6171	C617	0.913500	0.554700	0.276500
C6181	C618	0.864700	0.576800	0.277200
C6191	C619	0.829100	0.559800	0.313300
C6201	C620	0.841000	0.521200	0.347100
H3171	H317	0.816300	0.509800	0.370400
C6211	C621	0.850200	0.618300	0.240200
O2651	O265	0.749800	0.310200	0.646700
O2661	O266	0.704600	0.380200	0.628100
O2671	O267	0.129100	0.204300	0.381700
O2681	O268	0.147400	0.248200	0.311500
O2691	O269	0.881200	0.628500	0.204100
O2701	O270	0.809900	0.643000	0.248200
O2711	O271	0.741400	0.445000	0.564200
H3181	H318	0.714700	0.440900	0.547900
O2721	O272	0.068000	0.241700	0.449600
H3191	H319	0.085600	0.218800	0.436800
O2731	O273	0.950800	0.567800	0.242400
H3201	H320	0.937600	0.580100	0.216600
O2741	O274	0.069000	0.311000	0.287000
O2751	O275	0.781200	0.576800	0.312500
H3211	H321	0.764000	0.558800	0.293100
O2761	O276	0.835700	0.297200	0.601000
H3221	H322	0.815300	0.273200	0.600800
Zn241	Zn24	0.204210	0.202510	0.294520
C6221	C622	0.241400	0.148500	0.379300
C6231	C623	0.280000	0.134600	0.419500
C6241	C624	0.320700	0.167400	0.432300
C6251	C625	0.353600	0.154300	0.472600
H3231	H323	0.379900	0.176900	0.481300
C6261	C626	0.348700	0.109800	0.499800
C6271	C627	0.307700	0.078000	0.487000
H3241	H324	0.302800	0.047500	0.505000
C6281	C628	0.274100	0.090600	0.448200
C6291	C629	0.382600	0.096000	0.543900
C6301	C630	0.424300	0.128700	0.555500
H3251	H325	0.430800	0.157300	0.534900
C6311	C631	0.456200	0.118300	0.598200
C6321	C632	0.444500	0.076400	0.629000
H3261	H326	0.464700	0.069900	0.657800
C6331	C633	0.404000	0.044300	0.618100
C6341	C634	0.373600	0.054900	0.574900
H3271	H327	0.346400	0.033100	0.567100
C6351	C635	0.499500	0.153800	0.611200
C6361	C636	0.516800	0.189700	0.575100
H3281	H328	0.501600	0.190900	0.542800
C6371	C637	0.556100	0.223300	0.586900
C6381	C638	0.579800	0.222500	0.635600
C6391	C639	0.561700	0.187400	0.671700
C6401	C640	0.521800	0.153500	0.659300
H3291	H329	0.510200	0.130300	0.683900
C6411	C641	0.621100	0.259800	0.649500
C6421	C642	0.390100	0.001500	0.652900
C6431	C643	0.426200	0.983700	0.689500
H3301	H330	0.458900	0.998100	0.690600
C6441	C644	0.413500	0.945300	0.723500
C6451	C645	0.364700	0.923200	0.722800
C6461	C646	0.329100	0.940200	0.686700
C6471	C647	0.341000	0.978800	0.652900
H3311	H331	0.316300	0.990200	0.629600
C6481	C648	0.350200	0.881700	0.759800
O2771	O277	0.249800	0.189800	0.353300
O2781	O278	0.204600	0.119800	0.371900
O2791	O279	0.629100	0.295700	0.618300
O2801	O280	0.647400	0.251800	0.688500
O2811	O281	0.381200	0.871500	0.795900
O2821	O282	0.309900	0.857000	0.751800
O2831	O283	0.241400	0.055000	0.435800
H3321	H332	0.214700	0.059100	0.452100
O2841	O284	0.568000	0.258300	0.550400
H3331	H333	0.585600	0.281200	0.563200
O2851	O285	0.450800	0.932200	0.757600
H3341	H334	0.437600	0.919900	0.783400
O2861	O286	0.569000	0.189000	0.713000
O2871	O287	0.281200	0.923200	0.687500
H3351	H335	0.264000	0.941200	0.706900
O2881	O288	0.335700	0.202800	0.399000
H3361	H336	0.315300	0.226800	0.399200
Zn251	Zn25	0.124280	0.374280	0.125000
Zn261	Zn26	0.375720	0.625720	0.625000
Zn271	Zn27	0.875720	0.874280	0.375000
Zn281	Zn28	0.624280	0.125720	0.875000
Zn291	Zn29	0.125000	0.124280	0.374280
Zn301	Zn30	0.625000	0.375720	0.625720
Zn311	Zn31	0.375000	0.875720	0.874280
Zn321	Zn32	0.875000	0.624280	0.125720
Zn331	Zn33	0.374280	0.125000	0.124280
Zn341	Zn34	0.625720	0.625000	0.375720
Zn351	Zn35	0.874280	0.375000	0.875720
Zn361	Zn36	0.125720	0.875000	0.624280
O2891	O289	0.503200	0.503200	0.503200
O2901	O290	0.996800	0.496800	0.003200
O2911	O291	0.496800	0.003200	0.996800
O2921	O292	0.003200	0.996800	0.496800
O2931	O293	0.253200	0.753200	0.746800
O2941	O294	0.246800	0.246800	0.246800
O2951	O295	0.753200	0.746800	0.253200
O2961	O296	0.746800	0.253200	0.753200
