data_GUVCOP_clean_PM
_symmetry_space_group_name_H-M	'P1'
_cell_length_a	24.042000
_cell_length_b	12.490000
_cell_length_c	31.150000
_cell_angle_alpha	90.000000
_cell_angle_beta	107.800000
_cell_angle_gamma	90.000000
_symmetry_Int_Tables_number 1

loop_
_symmetry_equiv_pos_as_xyz
'x,y,z'

loop_
_atom_site_label
_atom_site_type_symbol
_atom_site_fract_x
_atom_site_fract_y
_atom_site_fract_z
Pt11	Pt1	0.282170	0.492480	0.390290
Cu11	Cu1	0.537360	0.802810	0.457020
Cu21	Cu2	0.599800	0.870480	0.570710
N11	N1	0.292000	0.534400	0.330300
H11	H1	0.270600	0.592800	0.319200
H21	H2	0.329700	0.548800	0.333400
N21	N2	0.273300	0.341600	0.364300
H31	H3	0.299700	0.298000	0.382800
H41	H4	0.237400	0.316500	0.361900
N31	N3	0.294600	0.644600	0.414300
N41	N4	0.775700	0.942900	0.450100
N51	N5	0.529200	0.612400	0.795300
H51	H5	0.567200	0.622200	0.810500
H61	H6	0.508700	0.611000	0.815100
N61	N6	0.469200	0.845700	0.701600
O11	O1	0.422700	0.935200	0.467400
O21	O2	0.451400	0.788200	0.438100
O31	O3	0.620100	0.835500	0.466900
O41	O4	0.660000	0.849300	0.542100
O51	O5	0.477600	0.002400	0.567200
O61	O6	0.548000	0.894400	0.606300
O71	O7	0.534500	0.858000	0.515200
C11	C1	0.271300	0.440000	0.299200
H71	H7	0.229600	0.446800	0.284800
H81	H8	0.290000	0.442900	0.275600
C21	C2	0.282100	0.343000	0.319300
H91	H9	0.322100	0.322100	0.322400
H101	H10	0.256500	0.290100	0.300200
C31	C3	0.344100	0.695700	0.420800
H111	H11	0.374200	0.661600	0.413100
C41	C4	0.353800	0.797900	0.438500
C51	C5	0.310100	0.851500	0.447800
H121	H12	0.315800	0.919900	0.460300
C61	C6	0.256900	0.801100	0.438200
H131	H13	0.225200	0.838000	0.442100
C71	C7	0.249700	0.698800	0.423000
H141	H14	0.213800	0.665000	0.418500
C81	C8	0.414200	0.845100	0.448400
C91	C9	0.725300	0.905900	0.455400
H151	H15	0.693100	0.896500	0.430000
C101	C10	0.719800	0.881300	0.497900
C111	C11	0.768600	0.889700	0.535000
H161	H16	0.767400	0.871100	0.563600
C121	C12	0.819200	0.926500	0.528400
H171	H17	0.852900	0.934100	0.552700
C131	C13	0.819900	0.952200	0.485400
H181	H18	0.854600	0.977800	0.481900
C141	C14	0.660600	0.852900	0.501100
C151	C15	0.521000	0.508600	0.768900
H191	H19	0.557100	0.491600	0.762900
H201	H20	0.513500	0.451900	0.787700
C161	C16	0.493500	0.857900	0.668500
H211	H21	0.524300	0.813800	0.667600
C171	C17	0.473700	0.933800	0.636300
C181	C18	0.425300	0.995800	0.636400
H221	H22	0.409600	0.045300	0.613600
C191	C19	0.402400	0.983000	0.669700
H231	H23	0.371600	0.025900	0.671100
C201	C20	0.423600	0.905000	0.702000
H241	H24	0.405800	0.895000	0.724400
C211	C21	0.501600	0.947100	0.599700
Pt21	Pt2	0.782170	0.992480	0.390290
Cu31	Cu3	0.037360	0.302810	0.457020
Cu41	Cu4	0.099800	0.370480	0.570710
N71	N7	0.792000	0.034400	0.330300
H251	H25	0.770600	0.092800	0.319200
H261	H26	0.829700	0.048800	0.333400
N81	N8	0.773300	0.841600	0.364300
H271	H27	0.799700	0.798000	0.382800
H281	H28	0.737400	0.816500	0.361900
N91	N9	0.794600	0.144600	0.414300
N101	N10	0.275700	0.442900	0.450100
N111	N11	0.029200	0.112400	0.795300
H291	H29	0.067200	0.122200	0.810500
H301	H30	0.008700	0.111000	0.815100
N121	N12	0.969200	0.345700	0.701600
O81	O8	0.922700	0.435200	0.467400
O91	O9	0.951400	0.288200	0.438100
O101	O10	0.120100	0.335500	0.466900
O111	O11	0.160000	0.349300	0.542100
O121	O12	0.977600	0.502400	0.567200
O131	O13	0.048000	0.394400	0.606300
O141	O14	0.034500	0.358000	0.515200
C221	C22	0.771300	0.940000	0.299200
H311	H31	0.729600	0.946800	0.284800
H321	H32	0.790000	0.942900	0.275600
C231	C23	0.782100	0.843000	0.319300
H331	H33	0.822100	0.822100	0.322400
H341	H34	0.756500	0.790100	0.300200
C241	C24	0.844100	0.195700	0.420800
H351	H35	0.874200	0.161600	0.413100
C251	C25	0.853800	0.297900	0.438500
C261	C26	0.810100	0.351500	0.447800
H361	H36	0.815800	0.419900	0.460300
C271	C27	0.756900	0.301100	0.438200
H371	H37	0.725200	0.338000	0.442100
C281	C28	0.749700	0.198800	0.423000
H381	H38	0.713800	0.165000	0.418500
C291	C29	0.914200	0.345100	0.448400
C301	C30	0.225300	0.405900	0.455400
H391	H39	0.193100	0.396500	0.430000
C311	C31	0.219800	0.381300	0.497900
C321	C32	0.268600	0.389700	0.535000
H401	H40	0.267400	0.371100	0.563600
C331	C33	0.319200	0.426500	0.528400
H411	H41	0.352900	0.434100	0.552700
C341	C34	0.319900	0.452200	0.485400
H421	H42	0.354600	0.477800	0.481900
C351	C35	0.160600	0.352900	0.501100
C361	C36	0.021000	0.008600	0.768900
H431	H43	0.057100	0.991600	0.762900
H441	H44	0.013500	0.951900	0.787700
C371	C37	0.993500	0.357900	0.668500
H451	H45	0.024300	0.313800	0.667600
C381	C38	0.973700	0.433800	0.636300
C391	C39	0.925300	0.495800	0.636400
H461	H46	0.909600	0.545300	0.613600
C401	C40	0.902400	0.483000	0.669700
H471	H47	0.871600	0.525900	0.671100
C411	C41	0.923600	0.405000	0.702000
H481	H48	0.905800	0.395000	0.724400
C421	C42	0.001600	0.447100	0.599700
Pt31	Pt3	0.717830	0.492480	0.109710
Cu51	Cu5	0.462640	0.802810	0.042980
Cu61	Cu6	0.400200	0.870480	0.929290
N131	N13	0.708000	0.534400	0.169700
H491	H49	0.729400	0.592800	0.180800
H501	H50	0.670300	0.548800	0.166600
N141	N14	0.726700	0.341600	0.135700
H511	H51	0.700300	0.298000	0.117200
H521	H52	0.762600	0.316500	0.138100
N151	N15	0.705400	0.644600	0.085700
N161	N16	0.224300	0.942900	0.049900
N171	N17	0.470800	0.612400	0.704700
H531	H53	0.432800	0.622200	0.689500
H541	H54	0.491300	0.611000	0.684900
N181	N18	0.530800	0.845700	0.798400
O151	O15	0.577300	0.935200	0.032600
O161	O16	0.548600	0.788200	0.061900
O171	O17	0.379900	0.835500	0.033100
O181	O18	0.340000	0.849300	0.957900
O191	O19	0.522400	0.002400	0.932800
O201	O20	0.452000	0.894400	0.893700
O211	O21	0.465500	0.858000	0.984800
C431	C43	0.728700	0.440000	0.200800
H551	H55	0.770400	0.446800	0.215200
H561	H56	0.710000	0.442900	0.224400
C441	C44	0.717900	0.343000	0.180700
H571	H57	0.677900	0.322100	0.177600
H581	H58	0.743500	0.290100	0.199800
C451	C45	0.655900	0.695700	0.079200
H591	H59	0.625800	0.661600	0.086900
C461	C46	0.646200	0.797900	0.061500
C471	C47	0.689900	0.851500	0.052200
H601	H60	0.684200	0.919900	0.039700
C481	C48	0.743100	0.801100	0.061800
H611	H61	0.774800	0.838000	0.057900
C491	C49	0.750300	0.698800	0.077000
H621	H62	0.786200	0.665000	0.081500
C501	C50	0.585800	0.845100	0.051600
C511	C51	0.274700	0.905900	0.044600
H631	H63	0.306900	0.896500	0.070000
C521	C52	0.280200	0.881300	0.002100
C531	C53	0.231400	0.889700	0.965000
H641	H64	0.232600	0.871100	0.936400
C541	C54	0.180800	0.926500	0.971600
H651	H65	0.147100	0.934100	0.947300
C551	C55	0.180100	0.952200	0.014600
H661	H66	0.145400	0.977800	0.018100
C561	C56	0.339400	0.852900	0.998900
C571	C57	0.479000	0.508600	0.731100
H671	H67	0.442900	0.491600	0.737100
H681	H68	0.486500	0.451900	0.712300
C581	C58	0.506500	0.857900	0.831500
H691	H69	0.475700	0.813800	0.832400
C591	C59	0.526300	0.933800	0.863700
C601	C60	0.574700	0.995800	0.863600
H701	H70	0.590400	0.045300	0.886400
C611	C61	0.597600	0.983000	0.830300
H711	H71	0.628400	0.025900	0.828900
C621	C62	0.576400	0.905000	0.798000
H721	H72	0.594200	0.895000	0.775600
C631	C63	0.498400	0.947100	0.900300
Pt41	Pt4	0.217830	0.992480	0.109710
Cu71	Cu7	0.962640	0.302810	0.042980
Cu81	Cu8	0.900200	0.370480	0.929290
N191	N19	0.208000	0.034400	0.169700
H731	H73	0.229400	0.092800	0.180800
H741	H74	0.170300	0.048800	0.166600
N201	N20	0.226700	0.841600	0.135700
H751	H75	0.200300	0.798000	0.117200
H761	H76	0.262600	0.816500	0.138100
N211	N21	0.205400	0.144600	0.085700
N221	N22	0.724300	0.442900	0.049900
N231	N23	0.970800	0.112400	0.704700
H771	H77	0.932800	0.122200	0.689500
H781	H78	0.991300	0.111000	0.684900
N241	N24	0.030800	0.345700	0.798400
O221	O22	0.077300	0.435200	0.032600
O231	O23	0.048600	0.288200	0.061900
O241	O24	0.879900	0.335500	0.033100
O251	O25	0.840000	0.349300	0.957900
O261	O26	0.022400	0.502400	0.932800
O271	O27	0.952000	0.394400	0.893700
O281	O28	0.965500	0.358000	0.984800
C641	C64	0.228700	0.940000	0.200800
H791	H79	0.270400	0.946800	0.215200
H801	H80	0.210000	0.942900	0.224400
C651	C65	0.217900	0.843000	0.180700
H811	H81	0.177900	0.822100	0.177600
H821	H82	0.243500	0.790100	0.199800
C661	C66	0.155900	0.195700	0.079200
H831	H83	0.125800	0.161600	0.086900
C671	C67	0.146200	0.297900	0.061500
C681	C68	0.189900	0.351500	0.052200
H841	H84	0.184200	0.419900	0.039700
C691	C69	0.243100	0.301100	0.061800
H851	H85	0.274800	0.338000	0.057900
C701	C70	0.250300	0.198800	0.077000
H861	H86	0.286200	0.165000	0.081500
C711	C71	0.085800	0.345100	0.051600
C721	C72	0.774700	0.405900	0.044600
H871	H87	0.806900	0.396500	0.070000
C731	C73	0.780200	0.381300	0.002100
C741	C74	0.731400	0.389700	0.965000
H881	H88	0.732600	0.371100	0.936400
C751	C75	0.680800	0.426500	0.971600
H891	H89	0.647100	0.434100	0.947300
C761	C76	0.680100	0.452200	0.014600
H901	H90	0.645400	0.477800	0.018100
C771	C77	0.839400	0.352900	0.998900
C781	C78	0.979000	0.008600	0.731100
H911	H91	0.942900	0.991600	0.737100
H921	H92	0.986500	0.951900	0.712300
C791	C79	0.006500	0.357900	0.831500
H931	H93	0.975700	0.313800	0.832400
C801	C80	0.026300	0.433800	0.863700
C811	C81	0.074700	0.495800	0.863600
H941	H94	0.090400	0.545300	0.886400
C821	C82	0.097600	0.483000	0.830300
H951	H95	0.128400	0.525900	0.828900
C831	C83	0.076400	0.405000	0.798000
H961	H96	0.094200	0.395000	0.775600
C841	C84	0.998400	0.447100	0.900300
Pt51	Pt5	0.717830	0.507520	0.609710
Cu91	Cu9	0.462640	0.197190	0.542980
Cu101	Cu10	0.400200	0.129520	0.429290
N251	N25	0.708000	0.465600	0.669700
H971	H97	0.729400	0.407200	0.680800
H981	H98	0.670300	0.451200	0.666600
N261	N26	0.726700	0.658400	0.635700
H991	H99	0.700300	0.702000	0.617200
H1001	H100	0.762600	0.683500	0.638100
N271	N27	0.705400	0.355400	0.585700
N281	N28	0.224300	0.057100	0.549900
N291	N29	0.470800	0.387600	0.204700
H1011	H101	0.432800	0.377800	0.189500
H1021	H102	0.491300	0.389000	0.184900
N301	N30	0.530800	0.154300	0.298400
O291	O29	0.577300	0.064800	0.532600
O301	O30	0.548600	0.211800	0.561900
O311	O31	0.379900	0.164500	0.533100
O321	O32	0.340000	0.150700	0.457900
O331	O33	0.522400	0.997600	0.432800
O341	O34	0.452000	0.105600	0.393700
O351	O35	0.465500	0.142000	0.484800
C851	C85	0.728700	0.560000	0.700800
H1031	H103	0.770400	0.553200	0.715200
H1041	H104	0.710000	0.557100	0.724400
C861	C86	0.717900	0.657000	0.680700
H1051	H105	0.677900	0.677900	0.677600
H1061	H106	0.743500	0.709900	0.699800
C871	C87	0.655900	0.304300	0.579200
H1071	H107	0.625800	0.338400	0.586900
C881	C88	0.646200	0.202100	0.561500
C891	C89	0.689900	0.148500	0.552200
H1081	H108	0.684200	0.080100	0.539700
C901	C90	0.743100	0.198900	0.561800
H1091	H109	0.774800	0.162000	0.557900
C911	C91	0.750300	0.301200	0.577000
H1101	H110	0.786200	0.335000	0.581500
C921	C92	0.585800	0.154900	0.551600
C931	C93	0.274700	0.094100	0.544600
H1111	H111	0.306900	0.103500	0.570000
C941	C94	0.280200	0.118700	0.502100
C951	C95	0.231400	0.110300	0.465000
H1121	H112	0.232600	0.128900	0.436400
C961	C96	0.180800	0.073500	0.471600
H1131	H113	0.147100	0.065900	0.447300
C971	C97	0.180100	0.047800	0.514600
H1141	H114	0.145400	0.022200	0.518100
C981	C98	0.339400	0.147100	0.498900
C991	C99	0.479000	0.491400	0.231100
H1151	H115	0.442900	0.508400	0.237100
H1161	H116	0.486500	0.548100	0.212300
C1001	C100	0.506500	0.142100	0.331500
H1171	H117	0.475700	0.186200	0.332400
C1011	C101	0.526300	0.066200	0.363700
C1021	C102	0.574700	0.004200	0.363600
H1181	H118	0.590400	0.954700	0.386400
C1031	C103	0.597600	0.017000	0.330300
H1191	H119	0.628400	0.974100	0.328900
C1041	C104	0.576400	0.095000	0.298000
H1201	H120	0.594200	0.105000	0.275600
C1051	C105	0.498400	0.052900	0.400300
Pt61	Pt6	0.217830	0.007520	0.609710
Cu111	Cu11	0.962640	0.697190	0.542980
Cu121	Cu12	0.900200	0.629520	0.429290
N311	N31	0.208000	0.965600	0.669700
H1211	H121	0.229400	0.907200	0.680800
H1221	H122	0.170300	0.951200	0.666600
N321	N32	0.226700	0.158400	0.635700
H1231	H123	0.200300	0.202000	0.617200
H1241	H124	0.262600	0.183500	0.638100
N331	N33	0.205400	0.855400	0.585700
N341	N34	0.724300	0.557100	0.549900
N351	N35	0.970800	0.887600	0.204700
H1251	H125	0.932800	0.877800	0.189500
H1261	H126	0.991300	0.889000	0.184900
N361	N36	0.030800	0.654300	0.298400
O361	O36	0.077300	0.564800	0.532600
O371	O37	0.048600	0.711800	0.561900
O381	O38	0.879900	0.664500	0.533100
O391	O39	0.840000	0.650700	0.457900
O401	O40	0.022400	0.497600	0.432800
O411	O41	0.952000	0.605600	0.393700
O421	O42	0.965500	0.642000	0.484800
C1061	C106	0.228700	0.060000	0.700800
H1271	H127	0.270400	0.053200	0.715200
H1281	H128	0.210000	0.057100	0.724400
C1071	C107	0.217900	0.157000	0.680700
H1291	H129	0.177900	0.177900	0.677600
H1301	H130	0.243500	0.209900	0.699800
C1081	C108	0.155900	0.804300	0.579200
H1311	H131	0.125800	0.838400	0.586900
C1091	C109	0.146200	0.702100	0.561500
C1101	C110	0.189900	0.648500	0.552200
H1321	H132	0.184200	0.580100	0.539700
C1111	C111	0.243100	0.698900	0.561800
H1331	H133	0.274800	0.662000	0.557900
C1121	C112	0.250300	0.801200	0.577000
H1341	H134	0.286200	0.835000	0.581500
C1131	C113	0.085800	0.654900	0.551600
C1141	C114	0.774700	0.594100	0.544600
H1351	H135	0.806900	0.603500	0.570000
C1151	C115	0.780200	0.618700	0.502100
C1161	C116	0.731400	0.610300	0.465000
H1361	H136	0.732600	0.628900	0.436400
C1171	C117	0.680800	0.573500	0.471600
H1371	H137	0.647100	0.565900	0.447300
C1181	C118	0.680100	0.547800	0.514600
H1381	H138	0.645400	0.522200	0.518100
C1191	C119	0.839400	0.647100	0.498900
C1201	C120	0.979000	0.991400	0.231100
H1391	H139	0.942900	0.008400	0.237100
H1401	H140	0.986500	0.048100	0.212300
C1211	C121	0.006500	0.642100	0.331500
H1411	H141	0.975700	0.686200	0.332400
C1221	C122	0.026300	0.566200	0.363700
C1231	C123	0.074700	0.504200	0.363600
H1421	H142	0.090400	0.454700	0.386400
C1241	C124	0.097600	0.517000	0.330300
H1431	H143	0.128400	0.474100	0.328900
C1251	C125	0.076400	0.595000	0.298000
H1441	H144	0.094200	0.605000	0.275600
C1261	C126	0.998400	0.552900	0.400300
Pt71	Pt7	0.282170	0.507520	0.890290
Cu131	Cu13	0.537360	0.197190	0.957020
Cu141	Cu14	0.599800	0.129520	0.070710
N371	N37	0.292000	0.465600	0.830300
H1451	H145	0.270600	0.407200	0.819200
H1461	H146	0.329700	0.451200	0.833400
N381	N38	0.273300	0.658400	0.864300
H1471	H147	0.299700	0.702000	0.882800
H1481	H148	0.237400	0.683500	0.861900
N391	N39	0.294600	0.355400	0.914300
N401	N40	0.775700	0.057100	0.950100
N411	N41	0.529200	0.387600	0.295300
H1491	H149	0.567200	0.377800	0.310500
H1501	H150	0.508700	0.389000	0.315100
N421	N42	0.469200	0.154300	0.201600
O431	O43	0.422700	0.064800	0.967400
O441	O44	0.451400	0.211800	0.938100
O451	O45	0.620100	0.164500	0.966900
O461	O46	0.660000	0.150700	0.042100
O471	O47	0.477600	0.997600	0.067200
O481	O48	0.548000	0.105600	0.106300
O491	O49	0.534500	0.142000	0.015200
C1271	C127	0.271300	0.560000	0.799200
H1511	H151	0.229600	0.553200	0.784800
H1521	H152	0.290000	0.557100	0.775600
C1281	C128	0.282100	0.657000	0.819300
H1531	H153	0.322100	0.677900	0.822400
H1541	H154	0.256500	0.709900	0.800200
C1291	C129	0.344100	0.304300	0.920800
H1551	H155	0.374200	0.338400	0.913100
C1301	C130	0.353800	0.202100	0.938500
C1311	C131	0.310100	0.148500	0.947800
H1561	H156	0.315800	0.080100	0.960300
C1321	C132	0.256900	0.198900	0.938200
H1571	H157	0.225200	0.162000	0.942100
C1331	C133	0.249700	0.301200	0.923000
H1581	H158	0.213800	0.335000	0.918500
C1341	C134	0.414200	0.154900	0.948400
C1351	C135	0.725300	0.094100	0.955400
H1591	H159	0.693100	0.103500	0.930000
C1361	C136	0.719800	0.118700	0.997900
C1371	C137	0.768600	0.110300	0.035000
H1601	H160	0.767400	0.128900	0.063600
C1381	C138	0.819200	0.073500	0.028400
H1611	H161	0.852900	0.065900	0.052700
C1391	C139	0.819900	0.047800	0.985400
H1621	H162	0.854600	0.022200	0.981900
C1401	C140	0.660600	0.147100	0.001100
C1411	C141	0.521000	0.491400	0.268900
H1631	H163	0.557100	0.508400	0.262900
H1641	H164	0.513500	0.548100	0.287700
C1421	C142	0.493500	0.142100	0.168500
H1651	H165	0.524300	0.186200	0.167600
C1431	C143	0.473700	0.066200	0.136300
C1441	C144	0.425300	0.004200	0.136400
H1661	H166	0.409600	0.954700	0.113600
C1451	C145	0.402400	0.017000	0.169700
H1671	H167	0.371600	0.974100	0.171100
C1461	C146	0.423600	0.095000	0.202000
H1681	H168	0.405800	0.105000	0.224400
C1471	C147	0.501600	0.052900	0.099700
Pt81	Pt8	0.782170	0.007520	0.890290
Cu151	Cu15	0.037360	0.697190	0.957020
Cu161	Cu16	0.099800	0.629520	0.070710
N431	N43	0.792000	0.965600	0.830300
H1691	H169	0.770600	0.907200	0.819200
H1701	H170	0.829700	0.951200	0.833400
N441	N44	0.773300	0.158400	0.864300
H1711	H171	0.799700	0.202000	0.882800
H1721	H172	0.737400	0.183500	0.861900
N451	N45	0.794600	0.855400	0.914300
N461	N46	0.275700	0.557100	0.950100
N471	N47	0.029200	0.887600	0.295300
H1731	H173	0.067200	0.877800	0.310500
H1741	H174	0.008700	0.889000	0.315100
N481	N48	0.969200	0.654300	0.201600
O501	O50	0.922700	0.564800	0.967400
O511	O51	0.951400	0.711800	0.938100
O521	O52	0.120100	0.664500	0.966900
O531	O53	0.160000	0.650700	0.042100
O541	O54	0.977600	0.497600	0.067200
O551	O55	0.048000	0.605600	0.106300
O561	O56	0.034500	0.642000	0.015200
C1481	C148	0.771300	0.060000	0.799200
H1751	H175	0.729600	0.053200	0.784800
H1761	H176	0.790000	0.057100	0.775600
C1491	C149	0.782100	0.157000	0.819300
H1771	H177	0.822100	0.177900	0.822400
H1781	H178	0.756500	0.209900	0.800200
C1501	C150	0.844100	0.804300	0.920800
H1791	H179	0.874200	0.838400	0.913100
C1511	C151	0.853800	0.702100	0.938500
C1521	C152	0.810100	0.648500	0.947800
H1801	H180	0.815800	0.580100	0.960300
C1531	C153	0.756900	0.698900	0.938200
H1811	H181	0.725200	0.662000	0.942100
C1541	C154	0.749700	0.801200	0.923000
H1821	H182	0.713800	0.835000	0.918500
C1551	C155	0.914200	0.654900	0.948400
C1561	C156	0.225300	0.594100	0.955400
H1831	H183	0.193100	0.603500	0.930000
C1571	C157	0.219800	0.618700	0.997900
C1581	C158	0.268600	0.610300	0.035000
H1841	H184	0.267400	0.628900	0.063600
C1591	C159	0.319200	0.573500	0.028400
H1851	H185	0.352900	0.565900	0.052700
C1601	C160	0.319900	0.547800	0.985400
H1861	H186	0.354600	0.522200	0.981900
C1611	C161	0.160600	0.647100	0.001100
C1621	C162	0.021000	0.991400	0.268900
H1871	H187	0.057100	0.008400	0.262900
H1881	H188	0.013500	0.048100	0.287700
C1631	C163	0.993500	0.642100	0.168500
H1891	H189	0.024300	0.686200	0.167600
C1641	C164	0.973700	0.566200	0.136300
C1651	C165	0.925300	0.504200	0.136400
H1901	H190	0.909600	0.454700	0.113600
C1661	C166	0.902400	0.517000	0.169700
H1911	H191	0.871600	0.474100	0.171100
C1671	C167	0.923600	0.595000	0.202000
H1921	H192	0.905800	0.605000	0.224400
C1681	C168	0.001600	0.552900	0.099700
Pt91	Pt9	0.500000	0.731170	0.750000
Pt101	Pt10	0.000000	0.231170	0.750000
Pt111	Pt11	0.500000	0.268830	0.250000
Pt121	Pt12	0.000000	0.768830	0.250000
Cu171	Cu17	0.500000	0.000000	0.500000
Cu181	Cu18	0.000000	0.500000	0.500000
Cu191	Cu19	0.500000	0.000000	0.000000
Cu201	Cu20	0.000000	0.500000	0.000000
