data_GUVZII_clean_PM
_symmetry_space_group_name_H-M	'P1'
_cell_length_a	26.008700
_cell_length_b	26.008700
_cell_length_c	6.813100
_cell_angle_alpha	90.000000
_cell_angle_beta	90.000000
_cell_angle_gamma	120.000000
_symmetry_Int_Tables_number 1

loop_
_symmetry_equiv_pos_as_xyz
'x,y,z'

loop_
_atom_site_label
_atom_site_type_symbol
_atom_site_fract_x
_atom_site_fract_y
_atom_site_fract_z
Fe11	Fe1	0.380400	0.347900	0.141000
O11	O1	0.326600	0.296800	0.349100
O21	O2	0.299700	0.220600	0.608000
O31	O3	0.356800	0.273000	0.007300
C11	C1	0.317500	0.246500	0.414500
C21	C2	0.333600	0.209100	0.300500
C31	C3	0.346000	0.225900	0.097100
C41	C4	0.353700	0.182300	0.983900
H11	H1	0.370100	0.192200	0.820000
Fe21	Fe2	0.047070	0.681230	0.474330
O41	O4	0.993270	0.630130	0.682430
O51	O5	0.966370	0.553930	0.941330
O61	O6	0.023470	0.606330	0.340630
C51	C5	0.984170	0.579830	0.747830
C61	C6	0.000270	0.542430	0.633830
C71	C7	0.012670	0.559230	0.430430
C81	C8	0.020370	0.515630	0.317230
H21	H2	0.036770	0.525530	0.153330
Fe31	Fe3	0.713730	0.014570	0.807670
O71	O7	0.659930	0.963470	0.015770
O81	O8	0.633030	0.887270	0.274670
O91	O9	0.690130	0.939670	0.673970
C91	C9	0.650830	0.913170	0.081170
C101	C10	0.666930	0.875770	0.967170
C111	C11	0.679330	0.892570	0.763770
C121	C12	0.687030	0.848970	0.650570
H31	H3	0.703430	0.858870	0.486670
Fe41	Fe4	0.652100	0.032500	0.141000
O101	O10	0.703200	0.029800	0.349100
O111	O11	0.779400	0.079100	0.608000
O121	O12	0.727000	0.083800	0.007300
C131	C13	0.753500	0.071000	0.414500
C141	C14	0.790900	0.124500	0.300500
C151	C15	0.774100	0.120100	0.097100
C161	C16	0.817700	0.171400	0.983900
H41	H4	0.807800	0.177900	0.820000
Fe51	Fe5	0.318770	0.365830	0.474330
O131	O13	0.369870	0.363130	0.682430
O141	O14	0.446070	0.412430	0.941330
O151	O15	0.393670	0.417130	0.340630
C171	C17	0.420170	0.404330	0.747830
C181	C18	0.457570	0.457830	0.633830
C191	C19	0.440770	0.453430	0.430430
C201	C20	0.484370	0.504730	0.317230
H51	H5	0.474470	0.511230	0.153330
Fe61	Fe6	0.985430	0.699170	0.807670
O161	O16	0.036530	0.696470	0.015770
O171	O17	0.112730	0.745770	0.274670
O181	O18	0.060330	0.750470	0.673970
C211	C21	0.086830	0.737670	0.081170
C221	C22	0.124230	0.791170	0.967170
C231	C23	0.107430	0.786770	0.763770
C241	C24	0.151030	0.838070	0.650570
H61	H6	0.141130	0.844570	0.486670
Fe71	Fe7	0.967500	0.619600	0.141000
O191	O19	0.970200	0.673400	0.349100
O201	O20	0.920900	0.700300	0.608000
O211	O21	0.916200	0.643200	0.007300
C251	C25	0.929000	0.682500	0.414500
C261	C26	0.875500	0.666400	0.300500
C271	C27	0.879900	0.654000	0.097100
C281	C28	0.828600	0.646300	0.983900
H71	H7	0.822100	0.629900	0.820000
Fe81	Fe8	0.634170	0.952930	0.474330
O221	O22	0.636870	0.006730	0.682430
O231	O23	0.587570	0.033630	0.941330
O241	O24	0.582870	0.976530	0.340630
C291	C29	0.595670	0.015830	0.747830
C301	C30	0.542170	0.999730	0.633830
C311	C31	0.546570	0.987330	0.430430
C321	C32	0.495270	0.979630	0.317230
H81	H8	0.488770	0.963230	0.153330
Fe91	Fe9	0.300830	0.286270	0.807670
O251	O25	0.303530	0.340070	0.015770
O261	O26	0.254230	0.366970	0.274670
O271	O27	0.249530	0.309870	0.673970
C331	C33	0.262330	0.349170	0.081170
C341	C34	0.208830	0.333070	0.967170
C351	C35	0.213230	0.320670	0.763770
C361	C36	0.161930	0.312970	0.650570
H91	H9	0.155430	0.296570	0.486670
Fe101	Fe10	0.619600	0.652100	0.859000
O281	O28	0.673400	0.703200	0.650900
O291	O29	0.700300	0.779400	0.392000
O301	O30	0.643200	0.727000	0.992700
C371	C37	0.682500	0.753500	0.585500
C381	C38	0.666400	0.790900	0.699500
C391	C39	0.654000	0.774100	0.902900
C401	C40	0.646300	0.817700	0.016100
H101	H10	0.629900	0.807800	0.180000
Fe111	Fe11	0.286270	0.985430	0.192330
O311	O31	0.340070	0.036530	0.984230
O321	O32	0.366970	0.112730	0.725330
O331	O33	0.309870	0.060330	0.326030
C411	C41	0.349170	0.086830	0.918830
C421	C42	0.333070	0.124230	0.032830
C431	C43	0.320670	0.107430	0.236230
C441	C44	0.312970	0.151030	0.349430
H111	H11	0.296570	0.141130	0.513330
Fe121	Fe12	0.952930	0.318770	0.525670
O341	O34	0.006730	0.369870	0.317570
O351	O35	0.033630	0.446070	0.058670
O361	O36	0.976530	0.393670	0.659370
C451	C45	0.015830	0.420170	0.252170
C461	C46	0.999730	0.457570	0.366170
C471	C47	0.987330	0.440770	0.569570
C481	C48	0.979630	0.484370	0.682770
H121	H12	0.963230	0.474470	0.846670
Fe131	Fe13	0.347900	0.967500	0.859000
O371	O37	0.296800	0.970200	0.650900
O381	O38	0.220600	0.920900	0.392000
O391	O39	0.273000	0.916200	0.992700
C491	C49	0.246500	0.929000	0.585500
C501	C50	0.209100	0.875500	0.699500
C511	C51	0.225900	0.879900	0.902900
C521	C52	0.182300	0.828600	0.016100
H131	H13	0.192200	0.822100	0.180000
Fe141	Fe14	0.014570	0.300830	0.192330
O401	O40	0.963470	0.303530	0.984230
O411	O41	0.887270	0.254230	0.725330
O421	O42	0.939670	0.249530	0.326030
C531	C53	0.913170	0.262330	0.918830
C541	C54	0.875770	0.208830	0.032830
C551	C55	0.892570	0.213230	0.236230
C561	C56	0.848970	0.161930	0.349430
H141	H14	0.858870	0.155430	0.513330
Fe151	Fe15	0.681230	0.634170	0.525670
O431	O43	0.630130	0.636870	0.317570
O441	O44	0.553930	0.587570	0.058670
O451	O45	0.606330	0.582870	0.659370
C571	C57	0.579830	0.595670	0.252170
C581	C58	0.542430	0.542170	0.366170
C591	C59	0.559230	0.546570	0.569570
C601	C60	0.515630	0.495270	0.682770
H151	H15	0.525530	0.488770	0.846670
Fe161	Fe16	0.032500	0.380400	0.859000
O461	O46	0.029800	0.326600	0.650900
O471	O47	0.079100	0.299700	0.392000
O481	O48	0.083800	0.356800	0.992700
C611	C61	0.071000	0.317500	0.585500
C621	C62	0.124500	0.333600	0.699500
C631	C63	0.120100	0.346000	0.902900
C641	C64	0.171400	0.353700	0.016100
H161	H16	0.177900	0.370100	0.180000
Fe171	Fe17	0.699170	0.713730	0.192330
O491	O49	0.696470	0.659930	0.984230
O501	O50	0.745770	0.633030	0.725330
O511	O51	0.750470	0.690130	0.326030
C651	C65	0.737670	0.650830	0.918830
C661	C66	0.791170	0.666930	0.032830
C671	C67	0.786770	0.679330	0.236230
C681	C68	0.838070	0.687030	0.349430
H171	H17	0.844570	0.703430	0.513330
Fe181	Fe18	0.365830	0.047070	0.525670
O521	O52	0.363130	0.993270	0.317570
O531	O53	0.412430	0.966370	0.058670
O541	O54	0.417130	0.023470	0.659370
C691	C69	0.404330	0.984170	0.252170
C701	C70	0.457830	0.000270	0.366170
C711	C71	0.453430	0.012670	0.569570
C721	C72	0.504730	0.020370	0.682770
H181	H18	0.511230	0.036770	0.846670
