data_GUXPOF_clean_PM
_symmetry_space_group_name_H-M	'P1'
_cell_length_a	9.538400
_cell_length_b	12.175900
_cell_length_c	19.313000
_cell_angle_alpha	101.152000
_cell_angle_beta	100.351000
_cell_angle_gamma	105.304000
_symmetry_Int_Tables_number 1

loop_
_symmetry_equiv_pos_as_xyz
'x,y,z'

loop_
_atom_site_label
_atom_site_type_symbol
_atom_site_fract_x
_atom_site_fract_y
_atom_site_fract_z
Co11	Co1	0.995940	0.422700	0.646610
Co21	Co2	0.004060	0.577300	0.353390
Co31	Co3	0.000000	0.500000	0.500000
Co41	Co4	0.500000	0.000000	0.000000
H11	H1	0.152900	0.257500	0.247200
H21	H2	0.129500	0.317600	0.321900
H31	H3	0.280200	0.366400	0.300200
H41	H4	0.173300	0.045600	0.344200
H51	H5	0.067300	0.123700	0.352400
H61	H6	0.085500	0.070300	0.275100
H71	H7	0.330000	0.141300	0.245000
H81	H8	0.457300	0.251100	0.297100
H91	H9	0.422200	0.129900	0.317700
H101	H10	0.494800	0.416400	0.614500
H111	H11	0.551300	0.298000	0.415700
H121	H12	0.140000	0.281500	0.441500
H131	H13	0.702000	0.207100	0.205100
H141	H14	0.589400	0.914600	0.276100
H151	H15	0.839200	0.220300	0.416600
H161	H16	0.784400	0.861900	0.364800
H171	H17	0.828900	0.881600	0.449500
H181	H18	0.920300	0.969800	0.412400
H191	H19	0.491600	0.956900	0.413400
H201	H20	0.564400	0.879100	0.454700
H211	H21	0.530200	0.850900	0.369600
H221	H22	0.874200	0.130100	0.500100
H231	H23	0.770900	0.039200	0.531300
H241	H24	0.709700	0.130900	0.499100
H251	H25	0.157900	0.298000	0.741300
H261	H26	0.123400	0.200000	0.829800
H271	H27	0.699900	0.206500	0.792900
H281	H28	0.744400	0.301000	0.704700
H291	H29	0.139600	0.245400	0.998300
H301	H30	0.348700	0.194200	0.039500
H311	H31	0.176900	0.883800	0.908300
H321	H32	0.962200	0.924700	0.864900
H331	H33	0.847100	0.742500	0.752800
H341	H34	0.870500	0.682400	0.678100
H351	H35	0.719800	0.633600	0.699800
H361	H36	0.826700	0.954400	0.655800
H371	H37	0.932700	0.876300	0.647600
H381	H38	0.914500	0.929700	0.724900
H391	H39	0.670000	0.858700	0.755000
H401	H40	0.542700	0.748900	0.702900
H411	H41	0.577800	0.870100	0.682300
H421	H42	0.505200	0.583600	0.385500
H431	H43	0.448700	0.702000	0.584300
H441	H44	0.860000	0.718500	0.558500
H451	H45	0.298000	0.792900	0.794900
H461	H46	0.410600	0.085400	0.723900
H471	H47	0.160800	0.779700	0.583400
H481	H48	0.215600	0.138100	0.635200
H491	H49	0.171100	0.118400	0.550500
H501	H50	0.079700	0.030200	0.587600
H511	H51	0.508400	0.043100	0.586600
H521	H52	0.435600	0.120900	0.545300
H531	H53	0.469800	0.149100	0.630400
H541	H54	0.125800	0.869900	0.499900
H551	H55	0.229100	0.960800	0.468700
H561	H56	0.290300	0.869100	0.500900
H571	H57	0.842100	0.702000	0.258700
H581	H58	0.876600	0.800000	0.170200
H591	H59	0.300100	0.793500	0.207100
H601	H60	0.255600	0.699000	0.295300
H611	H61	0.860400	0.754600	0.001700
H621	H62	0.651300	0.805800	0.960500
H631	H63	0.823100	0.116200	0.091700
H641	H64	0.037800	0.075300	0.135100
C11	C1	0.201400	0.296600	0.297300
C21	C2	0.136100	0.102900	0.325600
C31	C3	0.379400	0.181000	0.294900
C41	C4	0.301700	0.353700	0.534600
C51	C5	0.455500	0.383700	0.564830
C61	C6	0.548500	0.363800	0.519560
C71	C7	0.487400	0.310300	0.445470
C81	C8	0.333700	0.274700	0.414790
C91	C9	0.242500	0.300500	0.460790
C101	C10	0.199100	0.377000	0.582230
C111	C11	0.716000	0.399400	0.545840
C121	C12	0.267900	0.213300	0.333900
C131	C13	0.786800	0.232100	0.312750
C141	C14	0.705700	0.169600	0.242710
C151	C15	0.630100	0.050300	0.229330
C161	C16	0.636800	0.995100	0.285920
C171	C17	0.713300	0.057900	0.357330
C181	C18	0.787600	0.176600	0.369540
C191	C19	0.876500	0.358000	0.328510
C201	C20	0.541200	0.981800	0.153310
C211	C21	0.717400	0.994300	0.418710
C221	C22	0.822500	0.920000	0.410600
C231	C23	0.561400	0.912700	0.413600
C241	C24	0.773300	0.081900	0.494440
C251	C25	0.064600	0.279700	0.752000
C261	C26	0.045100	0.221100	0.805600
C271	C27	0.907700	0.194200	0.822980
C281	C28	0.794500	0.224800	0.783500
C291	C29	0.822300	0.281800	0.730840
C301	C30	0.028600	0.091000	0.924510
C311	C31	0.145100	0.171200	0.978500
C321	C32	0.270600	0.139400	0.002900
C331	C33	0.170100	0.958200	0.926600
C341	C34	0.040700	0.982300	0.899700
C351	C35	0.798600	0.703400	0.702700
C361	C36	0.863900	0.897100	0.674400
C371	C37	0.620600	0.819000	0.705100
C381	C38	0.698300	0.646300	0.465400
C391	C39	0.544500	0.616300	0.435170
C401	C40	0.451500	0.636200	0.480440
C411	C41	0.512600	0.689700	0.554530
C421	C42	0.666300	0.725300	0.585210
C431	C43	0.757500	0.699500	0.539210
C441	C44	0.800900	0.623000	0.417770
C451	C45	0.284000	0.600600	0.454160
C461	C46	0.732100	0.786700	0.666100
C471	C47	0.213200	0.767900	0.687250
C481	C48	0.294300	0.830400	0.757290
C491	C49	0.369900	0.949700	0.770670
C501	C50	0.363200	0.004900	0.714080
C511	C51	0.286700	0.942100	0.642670
C521	C52	0.212400	0.823400	0.630460
C531	C53	0.123500	0.642000	0.671490
C541	C54	0.458800	0.018200	0.846690
C551	C55	0.282600	0.005700	0.581290
C561	C56	0.177500	0.080000	0.589400
C571	C57	0.438600	0.087300	0.586400
C581	C58	0.226700	0.918100	0.505560
C591	C59	0.935400	0.720300	0.248000
C601	C60	0.954900	0.778900	0.194400
C611	C61	0.092300	0.805800	0.177020
C621	C62	0.205500	0.775200	0.216500
C631	C63	0.177700	0.718200	0.269160
C641	C64	0.971400	0.909000	0.075490
C651	C65	0.854900	0.828800	0.021500
C661	C66	0.729400	0.860600	0.997100
C671	C67	0.829900	0.041800	0.073400
C681	C68	0.959300	0.017700	0.100300
S11	S1	0.861450	0.123010	0.890800
S21	S2	0.138550	0.876990	0.109200
N11	N1	0.957000	0.311700	0.714600
N21	N2	0.285700	0.035700	0.977240
N31	N3	0.043000	0.688300	0.285400
N41	N4	0.714300	0.964300	0.022760
O11	O1	0.062250	0.368820	0.551620
O21	O2	0.239800	0.402000	0.649260
O31	O3	0.774100	0.401960	0.610710
O41	O4	0.787500	0.421600	0.498900
O51	O5	0.877700	0.413960	0.279660
O61	O6	0.957400	0.409960	0.391960
O71	O7	0.522800	0.043540	0.108650
O81	O8	0.492400	0.873000	0.139280
O91	O9	0.937750	0.631180	0.448380
O101	O10	0.760200	0.598000	0.350740
O111	O11	0.225900	0.598040	0.389290
O121	O12	0.212500	0.578400	0.501100
O131	O13	0.122300	0.586040	0.720340
O141	O14	0.042600	0.590040	0.608040
O151	O15	0.477200	0.956460	0.891350
O161	O16	0.507600	0.127000	0.860720
