data_GUXSIC_clean_PM
_symmetry_space_group_name_H-M	'P1'
_cell_length_a	26.447300
_cell_length_b	17.944200
_cell_length_c	17.380400
_cell_angle_alpha	90.000000
_cell_angle_beta	90.000000
_cell_angle_gamma	90.000000
_symmetry_Int_Tables_number 1

loop_
_symmetry_equiv_pos_as_xyz
'x,y,z'

loop_
_atom_site_label
_atom_site_type_symbol
_atom_site_fract_x
_atom_site_fract_y
_atom_site_fract_z
O11	O1	0.929770	0.302260	0.435300
O21	O2	0.925750	0.285980	0.309080
O31	O3	0.113900	0.028760	0.339440
O41	O4	0.067500	0.963100	0.419500
N11	N1	0.046080	0.135680	0.333080
C11	C1	0.940370	0.269000	0.375000
C21	C2	0.973990	0.201800	0.381200
C31	C3	0.014070	0.192900	0.332100
H11	H1	0.019300	0.229700	0.295300
C41	C4	0.966600	0.147800	0.434300
H21	H2	0.940500	0.151400	0.469900
C51	C5	0.998600	0.087600	0.434500
H31	H3	0.993300	0.049200	0.469500
C61	C6	0.038300	0.083400	0.384200
C71	C7	0.075800	0.019100	0.381500
O51	O5	0.929770	0.802260	0.935300
O61	O6	0.925750	0.785980	0.809080
O71	O7	0.113900	0.528760	0.839440
O81	O8	0.067500	0.463100	0.919500
N21	N2	0.046080	0.635680	0.833080
C81	C8	0.940370	0.769000	0.875000
C91	C9	0.973990	0.701800	0.881200
C101	C10	0.014070	0.692900	0.832100
H41	H4	0.019300	0.729700	0.795300
C111	C11	0.966600	0.647800	0.934300
H51	H5	0.940500	0.651400	0.969900
C121	C12	0.998600	0.587600	0.934500
H61	H6	0.993300	0.549200	0.969500
C131	C13	0.038300	0.583400	0.884200
C141	C14	0.075800	0.519100	0.881500
O91	O9	0.429770	0.302260	0.935300
O101	O10	0.425750	0.285980	0.809080
O111	O11	0.613900	0.028760	0.839440
O121	O12	0.567500	0.963100	0.919500
N31	N3	0.546080	0.135680	0.833080
C151	C15	0.440370	0.269000	0.875000
C161	C16	0.473990	0.201800	0.881200
C171	C17	0.514070	0.192900	0.832100
H71	H7	0.519300	0.229700	0.795300
C181	C18	0.466600	0.147800	0.934300
H81	H8	0.440500	0.151400	0.969900
C191	C19	0.498600	0.087600	0.934500
H91	H9	0.493300	0.049200	0.969500
C201	C20	0.538300	0.083400	0.884200
C211	C21	0.575800	0.019100	0.881500
O131	O13	0.429770	0.802260	0.435300
O141	O14	0.425750	0.785980	0.309080
O151	O15	0.613900	0.528760	0.339440
O161	O16	0.567500	0.463100	0.419500
N41	N4	0.546080	0.635680	0.333080
C221	C22	0.440370	0.769000	0.375000
C231	C23	0.473990	0.701800	0.381200
C241	C24	0.514070	0.692900	0.332100
H101	H10	0.519300	0.729700	0.295300
C251	C25	0.466600	0.647800	0.434300
H111	H11	0.440500	0.651400	0.469900
C261	C26	0.498600	0.587600	0.434500
H121	H12	0.493300	0.549200	0.469500
C271	C27	0.538300	0.583400	0.384200
C281	C28	0.575800	0.519100	0.381500
O171	O17	0.820230	0.447740	0.435300
O181	O18	0.824250	0.464020	0.309080
O191	O19	0.636100	0.721240	0.339440
O201	O20	0.682500	0.786900	0.419500
N51	N5	0.703920	0.614320	0.333080
C291	C29	0.809630	0.481000	0.375000
C301	C30	0.776010	0.548200	0.381200
C311	C31	0.735930	0.557100	0.332100
H131	H13	0.730700	0.520300	0.295300
C321	C32	0.783400	0.602200	0.434300
H141	H14	0.809500	0.598600	0.469900
C331	C33	0.751400	0.662400	0.434500
H151	H15	0.756700	0.700800	0.469500
C341	C34	0.711700	0.666600	0.384200
C351	C35	0.674200	0.730900	0.381500
O211	O21	0.820230	0.947740	0.935300
O221	O22	0.824250	0.964020	0.809080
O231	O23	0.636100	0.221240	0.839440
O241	O24	0.682500	0.286900	0.919500
N61	N6	0.703920	0.114320	0.833080
C361	C36	0.809630	0.981000	0.875000
C371	C37	0.776010	0.048200	0.881200
C381	C38	0.735930	0.057100	0.832100
H161	H16	0.730700	0.020300	0.795300
C391	C39	0.783400	0.102200	0.934300
H171	H17	0.809500	0.098600	0.969900
C401	C40	0.751400	0.162400	0.934500
H181	H18	0.756700	0.200800	0.969500
C411	C41	0.711700	0.166600	0.884200
C421	C42	0.674200	0.230900	0.881500
O251	O25	0.320230	0.447740	0.935300
O261	O26	0.324250	0.464020	0.809080
O271	O27	0.136100	0.721240	0.839440
O281	O28	0.182500	0.786900	0.919500
N71	N7	0.203920	0.614320	0.833080
C431	C43	0.309630	0.481000	0.875000
C441	C44	0.276010	0.548200	0.881200
C451	C45	0.235930	0.557100	0.832100
H191	H19	0.230700	0.520300	0.795300
C461	C46	0.283400	0.602200	0.934300
H201	H20	0.309500	0.598600	0.969900
C471	C47	0.251400	0.662400	0.934500
H211	H21	0.256700	0.700800	0.969500
C481	C48	0.211700	0.666600	0.884200
C491	C49	0.174200	0.730900	0.881500
O291	O29	0.320230	0.947740	0.435300
O301	O30	0.324250	0.964020	0.309080
O311	O31	0.136100	0.221240	0.339440
O321	O32	0.182500	0.286900	0.419500
N81	N8	0.203920	0.114320	0.333080
C501	C50	0.309630	0.981000	0.375000
C511	C51	0.276010	0.048200	0.381200
C521	C52	0.235930	0.057100	0.332100
H221	H22	0.230700	0.020300	0.295300
C531	C53	0.283400	0.102200	0.434300
H231	H23	0.309500	0.098600	0.469900
C541	C54	0.251400	0.162400	0.434500
H241	H24	0.256700	0.200800	0.469500
C551	C55	0.211700	0.166600	0.384200
C561	C56	0.174200	0.230900	0.381500
O331	O33	0.820230	0.302260	0.314700
O341	O34	0.824250	0.285980	0.440920
O351	O35	0.636100	0.028760	0.410560
O361	O36	0.682500	0.963100	0.330500
N91	N9	0.703920	0.135680	0.416920
C571	C57	0.809630	0.269000	0.375000
C581	C58	0.776010	0.201800	0.368800
C591	C59	0.735930	0.192900	0.417900
H251	H25	0.730700	0.229700	0.454700
C601	C60	0.783400	0.147800	0.315700
H261	H26	0.809500	0.151400	0.280100
C611	C61	0.751400	0.087600	0.315500
H271	H27	0.756700	0.049200	0.280500
C621	C62	0.711700	0.083400	0.365800
C631	C63	0.674200	0.019100	0.368500
O371	O37	0.820230	0.802260	0.814700
O381	O38	0.824250	0.785980	0.940920
O391	O39	0.636100	0.528760	0.910560
O401	O40	0.682500	0.463100	0.830500
N101	N10	0.703920	0.635680	0.916920
C641	C64	0.809630	0.769000	0.875000
C651	C65	0.776010	0.701800	0.868800
C661	C66	0.735930	0.692900	0.917900
H281	H28	0.730700	0.729700	0.954700
C671	C67	0.783400	0.647800	0.815700
H291	H29	0.809500	0.651400	0.780100
C681	C68	0.751400	0.587600	0.815500
H301	H30	0.756700	0.549200	0.780500
C691	C69	0.711700	0.583400	0.865800
C701	C70	0.674200	0.519100	0.868500
O411	O41	0.320230	0.302260	0.814700
O421	O42	0.324250	0.285980	0.940920
O431	O43	0.136100	0.028760	0.910560
O441	O44	0.182500	0.963100	0.830500
N111	N11	0.203920	0.135680	0.916920
C711	C71	0.309630	0.269000	0.875000
C721	C72	0.276010	0.201800	0.868800
C731	C73	0.235930	0.192900	0.917900
H311	H31	0.230700	0.229700	0.954700
C741	C74	0.283400	0.147800	0.815700
H321	H32	0.309500	0.151400	0.780100
C751	C75	0.251400	0.087600	0.815500
H331	H33	0.256700	0.049200	0.780500
C761	C76	0.211700	0.083400	0.865800
C771	C77	0.174200	0.019100	0.868500
O451	O45	0.320230	0.802260	0.314700
O461	O46	0.324250	0.785980	0.440920
O471	O47	0.136100	0.528760	0.410560
O481	O48	0.182500	0.463100	0.330500
N121	N12	0.203920	0.635680	0.416920
C781	C78	0.309630	0.769000	0.375000
C791	C79	0.276010	0.701800	0.368800
C801	C80	0.235930	0.692900	0.417900
H341	H34	0.230700	0.729700	0.454700
C811	C81	0.283400	0.647800	0.315700
H351	H35	0.309500	0.651400	0.280100
C821	C82	0.251400	0.587600	0.315500
H361	H36	0.256700	0.549200	0.280500
C831	C83	0.211700	0.583400	0.365800
C841	C84	0.174200	0.519100	0.368500
O491	O49	0.929770	0.447740	0.314700
O501	O50	0.925750	0.464020	0.440920
O511	O51	0.113900	0.721240	0.410560
O521	O52	0.067500	0.786900	0.330500
N131	N13	0.046080	0.614320	0.416920
C851	C85	0.940370	0.481000	0.375000
C861	C86	0.973990	0.548200	0.368800
C871	C87	0.014070	0.557100	0.417900
H371	H37	0.019300	0.520300	0.454700
C881	C88	0.966600	0.602200	0.315700
H381	H38	0.940500	0.598600	0.280100
C891	C89	0.998600	0.662400	0.315500
H391	H39	0.993300	0.700800	0.280500
C901	C90	0.038300	0.666600	0.365800
C911	C91	0.075800	0.730900	0.368500
O531	O53	0.929770	0.947740	0.814700
O541	O54	0.925750	0.964020	0.940920
O551	O55	0.113900	0.221240	0.910560
O561	O56	0.067500	0.286900	0.830500
N141	N14	0.046080	0.114320	0.916920
C921	C92	0.940370	0.981000	0.875000
C931	C93	0.973990	0.048200	0.868800
C941	C94	0.014070	0.057100	0.917900
H401	H40	0.019300	0.020300	0.954700
C951	C95	0.966600	0.102200	0.815700
H411	H41	0.940500	0.098600	0.780100
C961	C96	0.998600	0.162400	0.815500
H421	H42	0.993300	0.200800	0.780500
C971	C97	0.038300	0.166600	0.865800
C981	C98	0.075800	0.230900	0.868500
O571	O57	0.429770	0.447740	0.814700
O581	O58	0.425750	0.464020	0.940920
O591	O59	0.613900	0.721240	0.910560
O601	O60	0.567500	0.786900	0.830500
N151	N15	0.546080	0.614320	0.916920
C991	C99	0.440370	0.481000	0.875000
C1001	C100	0.473990	0.548200	0.868800
C1011	C101	0.514070	0.557100	0.917900
H431	H43	0.519300	0.520300	0.954700
C1021	C102	0.466600	0.602200	0.815700
H441	H44	0.440500	0.598600	0.780100
C1031	C103	0.498600	0.662400	0.815500
H451	H45	0.493300	0.700800	0.780500
C1041	C104	0.538300	0.666600	0.865800
C1051	C105	0.575800	0.730900	0.868500
O611	O61	0.429770	0.947740	0.314700
O621	O62	0.425750	0.964020	0.440920
O631	O63	0.613900	0.221240	0.410560
O641	O64	0.567500	0.286900	0.330500
N161	N16	0.546080	0.114320	0.416920
C1061	C106	0.440370	0.981000	0.375000
C1071	C107	0.473990	0.048200	0.368800
C1081	C108	0.514070	0.057100	0.417900
H461	H46	0.519300	0.020300	0.454700
C1091	C109	0.466600	0.102200	0.315700
H471	H47	0.440500	0.098600	0.280100
C1101	C110	0.498600	0.162400	0.315500
H481	H48	0.493300	0.200800	0.280500
C1111	C111	0.538300	0.166600	0.365800
C1121	C112	0.575800	0.230900	0.368500
O651	O65	0.070230	0.697740	0.564700
O661	O66	0.074250	0.714020	0.690920
O671	O67	0.886100	0.971240	0.660560
O681	O68	0.932500	0.036900	0.580500
N171	N17	0.953920	0.864320	0.666920
C1131	C113	0.059630	0.731000	0.625000
C1141	C114	0.026010	0.798200	0.618800
C1151	C115	0.985930	0.807100	0.667900
H491	H49	0.980700	0.770300	0.704700
C1161	C116	0.033400	0.852200	0.565700
H501	H50	0.059500	0.848600	0.530100
C1171	C117	0.001400	0.912400	0.565500
H511	H51	0.006700	0.950800	0.530500
C1181	C118	0.961700	0.916600	0.615800
C1191	C119	0.924200	0.980900	0.618500
O691	O69	0.070230	0.197740	0.064700
O701	O70	0.074250	0.214020	0.190920
O711	O71	0.886100	0.471240	0.160560
O721	O72	0.932500	0.536900	0.080500
N181	N18	0.953920	0.364320	0.166920
C1201	C120	0.059630	0.231000	0.125000
C1211	C121	0.026010	0.298200	0.118800
C1221	C122	0.985930	0.307100	0.167900
H521	H52	0.980700	0.270300	0.204700
C1231	C123	0.033400	0.352200	0.065700
H531	H53	0.059500	0.348600	0.030100
C1241	C124	0.001400	0.412400	0.065500
H541	H54	0.006700	0.450800	0.030500
C1251	C125	0.961700	0.416600	0.115800
C1261	C126	0.924200	0.480900	0.118500
O731	O73	0.570230	0.697740	0.064700
O741	O74	0.574250	0.714020	0.190920
O751	O75	0.386100	0.971240	0.160560
O761	O76	0.432500	0.036900	0.080500
N191	N19	0.453920	0.864320	0.166920
C1271	C127	0.559630	0.731000	0.125000
C1281	C128	0.526010	0.798200	0.118800
C1291	C129	0.485930	0.807100	0.167900
H551	H55	0.480700	0.770300	0.204700
C1301	C130	0.533400	0.852200	0.065700
H561	H56	0.559500	0.848600	0.030100
C1311	C131	0.501400	0.912400	0.065500
H571	H57	0.506700	0.950800	0.030500
C1321	C132	0.461700	0.916600	0.115800
C1331	C133	0.424200	0.980900	0.118500
O771	O77	0.570230	0.197740	0.564700
O781	O78	0.574250	0.214020	0.690920
O791	O79	0.386100	0.471240	0.660560
O801	O80	0.432500	0.536900	0.580500
N201	N20	0.453920	0.364320	0.666920
C1341	C134	0.559630	0.231000	0.625000
C1351	C135	0.526010	0.298200	0.618800
C1361	C136	0.485930	0.307100	0.667900
H581	H58	0.480700	0.270300	0.704700
C1371	C137	0.533400	0.352200	0.565700
H591	H59	0.559500	0.348600	0.530100
C1381	C138	0.501400	0.412400	0.565500
H601	H60	0.506700	0.450800	0.530500
C1391	C139	0.461700	0.416600	0.615800
C1401	C140	0.424200	0.480900	0.618500
O811	O81	0.179770	0.552260	0.564700
O821	O82	0.175750	0.535980	0.690920
O831	O83	0.363900	0.278760	0.660560
O841	O84	0.317500	0.213100	0.580500
N211	N21	0.296080	0.385680	0.666920
C1411	C141	0.190370	0.519000	0.625000
C1421	C142	0.223990	0.451800	0.618800
C1431	C143	0.264070	0.442900	0.667900
H611	H61	0.269300	0.479700	0.704700
C1441	C144	0.216600	0.397800	0.565700
H621	H62	0.190500	0.401400	0.530100
C1451	C145	0.248600	0.337600	0.565500
H631	H63	0.243300	0.299200	0.530500
C1461	C146	0.288300	0.333400	0.615800
C1471	C147	0.325800	0.269100	0.618500
O851	O85	0.179770	0.052260	0.064700
O861	O86	0.175750	0.035980	0.190920
O871	O87	0.363900	0.778760	0.160560
O881	O88	0.317500	0.713100	0.080500
N221	N22	0.296080	0.885680	0.166920
C1481	C148	0.190370	0.019000	0.125000
C1491	C149	0.223990	0.951800	0.118800
C1501	C150	0.264070	0.942900	0.167900
H641	H64	0.269300	0.979700	0.204700
C1511	C151	0.216600	0.897800	0.065700
H651	H65	0.190500	0.901400	0.030100
C1521	C152	0.248600	0.837600	0.065500
H661	H66	0.243300	0.799200	0.030500
C1531	C153	0.288300	0.833400	0.115800
C1541	C154	0.325800	0.769100	0.118500
O891	O89	0.679770	0.552260	0.064700
O901	O90	0.675750	0.535980	0.190920
O911	O91	0.863900	0.278760	0.160560
O921	O92	0.817500	0.213100	0.080500
N231	N23	0.796080	0.385680	0.166920
C1551	C155	0.690370	0.519000	0.125000
C1561	C156	0.723990	0.451800	0.118800
C1571	C157	0.764070	0.442900	0.167900
H671	H67	0.769300	0.479700	0.204700
C1581	C158	0.716600	0.397800	0.065700
H681	H68	0.690500	0.401400	0.030100
C1591	C159	0.748600	0.337600	0.065500
H691	H69	0.743300	0.299200	0.030500
C1601	C160	0.788300	0.333400	0.115800
C1611	C161	0.825800	0.269100	0.118500
O931	O93	0.679770	0.052260	0.564700
O941	O94	0.675750	0.035980	0.690920
O951	O95	0.863900	0.778760	0.660560
O961	O96	0.817500	0.713100	0.580500
N241	N24	0.796080	0.885680	0.666920
C1621	C162	0.690370	0.019000	0.625000
C1631	C163	0.723990	0.951800	0.618800
C1641	C164	0.764070	0.942900	0.667900
H701	H70	0.769300	0.979700	0.704700
C1651	C165	0.716600	0.897800	0.565700
H711	H71	0.690500	0.901400	0.530100
C1661	C166	0.748600	0.837600	0.565500
H721	H72	0.743300	0.799200	0.530500
C1671	C167	0.788300	0.833400	0.615800
C1681	C168	0.825800	0.769100	0.618500
O971	O97	0.179770	0.697740	0.685300
O981	O98	0.175750	0.714020	0.559080
O991	O99	0.363900	0.971240	0.589440
O1001	O100	0.317500	0.036900	0.669500
N251	N25	0.296080	0.864320	0.583080
C1691	C169	0.190370	0.731000	0.625000
C1701	C170	0.223990	0.798200	0.631200
C1711	C171	0.264070	0.807100	0.582100
H731	H73	0.269300	0.770300	0.545300
C1721	C172	0.216600	0.852200	0.684300
H741	H74	0.190500	0.848600	0.719900
C1731	C173	0.248600	0.912400	0.684500
H751	H75	0.243300	0.950800	0.719500
C1741	C174	0.288300	0.916600	0.634200
C1751	C175	0.325800	0.980900	0.631500
O1011	O101	0.179770	0.197740	0.185300
O1021	O102	0.175750	0.214020	0.059080
O1031	O103	0.363900	0.471240	0.089440
O1041	O104	0.317500	0.536900	0.169500
N261	N26	0.296080	0.364320	0.083080
C1761	C176	0.190370	0.231000	0.125000
C1771	C177	0.223990	0.298200	0.131200
C1781	C178	0.264070	0.307100	0.082100
H761	H76	0.269300	0.270300	0.045300
C1791	C179	0.216600	0.352200	0.184300
H771	H77	0.190500	0.348600	0.219900
C1801	C180	0.248600	0.412400	0.184500
H781	H78	0.243300	0.450800	0.219500
C1811	C181	0.288300	0.416600	0.134200
C1821	C182	0.325800	0.480900	0.131500
O1051	O105	0.679770	0.697740	0.185300
O1061	O106	0.675750	0.714020	0.059080
O1071	O107	0.863900	0.971240	0.089440
O1081	O108	0.817500	0.036900	0.169500
N271	N27	0.796080	0.864320	0.083080
C1831	C183	0.690370	0.731000	0.125000
C1841	C184	0.723990	0.798200	0.131200
C1851	C185	0.764070	0.807100	0.082100
H791	H79	0.769300	0.770300	0.045300
C1861	C186	0.716600	0.852200	0.184300
H801	H80	0.690500	0.848600	0.219900
C1871	C187	0.748600	0.912400	0.184500
H811	H81	0.743300	0.950800	0.219500
C1881	C188	0.788300	0.916600	0.134200
C1891	C189	0.825800	0.980900	0.131500
O1091	O109	0.679770	0.197740	0.685300
O1101	O110	0.675750	0.214020	0.559080
O1111	O111	0.863900	0.471240	0.589440
O1121	O112	0.817500	0.536900	0.669500
N281	N28	0.796080	0.364320	0.583080
C1901	C190	0.690370	0.231000	0.625000
C1911	C191	0.723990	0.298200	0.631200
C1921	C192	0.764070	0.307100	0.582100
H821	H82	0.769300	0.270300	0.545300
C1931	C193	0.716600	0.352200	0.684300
H831	H83	0.690500	0.348600	0.719900
C1941	C194	0.748600	0.412400	0.684500
H841	H84	0.743300	0.450800	0.719500
C1951	C195	0.788300	0.416600	0.634200
C1961	C196	0.825800	0.480900	0.631500
O1131	O113	0.070230	0.552260	0.685300
O1141	O114	0.074250	0.535980	0.559080
O1151	O115	0.886100	0.278760	0.589440
O1161	O116	0.932500	0.213100	0.669500
N291	N29	0.953920	0.385680	0.583080
C1971	C197	0.059630	0.519000	0.625000
C1981	C198	0.026010	0.451800	0.631200
C1991	C199	0.985930	0.442900	0.582100
H851	H85	0.980700	0.479700	0.545300
C2001	C200	0.033400	0.397800	0.684300
H861	H86	0.059500	0.401400	0.719900
C2011	C201	0.001400	0.337600	0.684500
H871	H87	0.006700	0.299200	0.719500
C2021	C202	0.961700	0.333400	0.634200
C2031	C203	0.924200	0.269100	0.631500
O1171	O117	0.070230	0.052260	0.185300
O1181	O118	0.074250	0.035980	0.059080
O1191	O119	0.886100	0.778760	0.089440
O1201	O120	0.932500	0.713100	0.169500
N301	N30	0.953920	0.885680	0.083080
C2041	C204	0.059630	0.019000	0.125000
C2051	C205	0.026010	0.951800	0.131200
C2061	C206	0.985930	0.942900	0.082100
H881	H88	0.980700	0.979700	0.045300
C2071	C207	0.033400	0.897800	0.184300
H891	H89	0.059500	0.901400	0.219900
C2081	C208	0.001400	0.837600	0.184500
H901	H90	0.006700	0.799200	0.219500
C2091	C209	0.961700	0.833400	0.134200
C2101	C210	0.924200	0.769100	0.131500
O1211	O121	0.570230	0.552260	0.185300
O1221	O122	0.574250	0.535980	0.059080
O1231	O123	0.386100	0.278760	0.089440
O1241	O124	0.432500	0.213100	0.169500
N311	N31	0.453920	0.385680	0.083080
C2111	C211	0.559630	0.519000	0.125000
C2121	C212	0.526010	0.451800	0.131200
C2131	C213	0.485930	0.442900	0.082100
H911	H91	0.480700	0.479700	0.045300
C2141	C214	0.533400	0.397800	0.184300
H921	H92	0.559500	0.401400	0.219900
C2151	C215	0.501400	0.337600	0.184500
H931	H93	0.506700	0.299200	0.219500
C2161	C216	0.461700	0.333400	0.134200
C2171	C217	0.424200	0.269100	0.131500
O1251	O125	0.570230	0.052260	0.685300
O1261	O126	0.574250	0.035980	0.559080
O1271	O127	0.386100	0.778760	0.589440
O1281	O128	0.432500	0.713100	0.669500
N321	N32	0.453920	0.885680	0.583080
C2181	C218	0.559630	0.019000	0.625000
C2191	C219	0.526010	0.951800	0.631200
C2201	C220	0.485930	0.942900	0.582100
H941	H94	0.480700	0.979700	0.545300
C2211	C221	0.533400	0.897800	0.684300
H951	H95	0.559500	0.901400	0.719900
C2221	C222	0.501400	0.837600	0.684500
H961	H96	0.506700	0.799200	0.719500
C2231	C223	0.461700	0.833400	0.634200
C2241	C224	0.424200	0.769100	0.631500
Er11	Er1	0.875000	0.375000	0.502830
Er21	Er2	0.875000	0.875000	0.002830
Er31	Er3	0.375000	0.375000	0.002830
Er41	Er4	0.375000	0.875000	0.502830
Er51	Er5	0.875000	0.375000	0.247170
Er61	Er6	0.875000	0.875000	0.747170
Er71	Er7	0.375000	0.375000	0.747170
Er81	Er8	0.375000	0.875000	0.247170
Er91	Er9	0.125000	0.625000	0.497170
Er101	Er10	0.125000	0.125000	0.997170
Er111	Er11	0.625000	0.625000	0.997170
Er121	Er12	0.625000	0.125000	0.497170
Er131	Er13	0.125000	0.625000	0.752830
Er141	Er14	0.125000	0.125000	0.252830
Er151	Er15	0.625000	0.625000	0.252830
Er161	Er16	0.625000	0.125000	0.752830
