data_HADLOQ01_clean_PM
_symmetry_space_group_name_H-M	'P1'
_cell_length_a	13.290900
_cell_length_b	13.290900
_cell_length_c	14.356000
_cell_angle_alpha	90.000000
_cell_angle_beta	90.000000
_cell_angle_gamma	90.000000
_symmetry_Int_Tables_number 1

loop_
_symmetry_equiv_pos_as_xyz
'x,y,z'

loop_
_atom_site_label
_atom_site_type_symbol
_atom_site_fract_x
_atom_site_fract_y
_atom_site_fract_z
N11	N1	0.111160	0.992820	0.203130
N21	N2	0.867510	0.015150	0.295060
C11	C1	0.207930	0.989200	0.175500
H11	H1	0.228600	0.980600	0.114100
C21	C2	0.436480	0.023300	0.329530
H21	H2	0.402000	0.040200	0.383700
C31	C3	0.541700	0.021900	0.329610
H31	H3	0.575900	0.036100	0.384600
C41	C4	0.771380	0.024500	0.321600
H41	H4	0.750800	0.044900	0.380600
N31	N3	0.888840	0.007180	0.703130
N41	N4	0.132490	0.984850	0.795060
C51	C5	0.792070	0.010800	0.675500
H51	H5	0.771400	0.019400	0.614100
C61	C6	0.563520	0.976700	0.829530
H61	H6	0.598000	0.959800	0.883700
C71	C7	0.458300	0.978100	0.829610
H71	H7	0.424100	0.963900	0.884600
C81	C8	0.228620	0.975500	0.821600
H81	H8	0.249200	0.955100	0.880600
N51	N5	0.007180	0.111160	0.953130
N61	N6	0.984850	0.867510	0.045060
C91	C9	0.010800	0.207930	0.925500
H91	H9	0.019400	0.228600	0.864100
C101	C10	0.976700	0.436480	0.079530
H101	H10	0.959800	0.402000	0.133700
C111	C11	0.978100	0.541700	0.079610
H111	H11	0.963900	0.575900	0.134600
C121	C12	0.975500	0.771380	0.071600
H121	H12	0.955100	0.750800	0.130600
N71	N7	0.992820	0.888840	0.453130
N81	N8	0.015150	0.132490	0.545060
C131	C13	0.989200	0.792070	0.425500
H131	H13	0.980600	0.771400	0.364100
C141	C14	0.023300	0.563520	0.579530
H141	H14	0.040200	0.598000	0.633700
C151	C15	0.021900	0.458300	0.579610
H151	H15	0.036100	0.424100	0.634600
C161	C16	0.024500	0.228620	0.571600
H161	H16	0.044900	0.249200	0.630600
N91	N9	0.888840	0.992820	0.796870
N101	N10	0.132490	0.015150	0.704940
C171	C17	0.792070	0.989200	0.824500
H171	H17	0.771400	0.980600	0.885900
C181	C18	0.563520	0.023300	0.670470
H181	H18	0.598000	0.040200	0.616300
C191	C19	0.458300	0.021900	0.670390
H191	H19	0.424100	0.036100	0.615400
C201	C20	0.228620	0.024500	0.678400
H201	H20	0.249200	0.044900	0.619400
N111	N11	0.111160	0.007180	0.296870
N121	N12	0.867510	0.984850	0.204940
C211	C21	0.207930	0.010800	0.324500
H211	H21	0.228600	0.019400	0.385900
C221	C22	0.436480	0.976700	0.170470
H221	H22	0.402000	0.959800	0.116300
C231	C23	0.541700	0.978100	0.170390
H231	H23	0.575900	0.963900	0.115400
C241	C24	0.771380	0.975500	0.178400
H241	H24	0.750800	0.955100	0.119400
N131	N13	0.992820	0.111160	0.046870
N141	N14	0.015150	0.867510	0.954940
C251	C25	0.989200	0.207930	0.074500
H251	H25	0.980600	0.228600	0.135900
C261	C26	0.023300	0.436480	0.920470
H261	H26	0.040200	0.402000	0.866300
C271	C27	0.021900	0.541700	0.920390
H271	H27	0.036100	0.575900	0.865400
C281	C28	0.024500	0.771380	0.928400
H281	H28	0.044900	0.750800	0.869400
N151	N15	0.007180	0.888840	0.546870
N161	N16	0.984850	0.132490	0.454940
C291	C29	0.010800	0.792070	0.574500
H291	H29	0.019400	0.771400	0.635900
C301	C30	0.976700	0.563520	0.420470
H301	H30	0.959800	0.598000	0.366300
C311	C31	0.978100	0.458300	0.420390
H311	H31	0.963900	0.424100	0.365400
C321	C32	0.975500	0.228620	0.428400
H321	H32	0.955100	0.249200	0.369400
Co11	Co1	0.989120	0.989120	0.125000
Co21	Co2	0.010880	0.010880	0.625000
Co31	Co3	0.010880	0.989120	0.875000
Co41	Co4	0.989120	0.010880	0.375000
C331	C33	0.272400	0.000000	0.250000
C341	C34	0.383500	0.000000	0.250000
C351	C35	0.596100	0.000000	0.250000
C361	C36	0.707100	0.000000	0.250000
C371	C37	0.727600	0.000000	0.750000
C381	C38	0.616500	0.000000	0.750000
C391	C39	0.403900	0.000000	0.750000
C401	C40	0.292900	0.000000	0.750000
C411	C41	0.000000	0.272400	0.000000
C421	C42	0.000000	0.383500	0.000000
C431	C43	0.000000	0.596100	0.000000
C441	C44	0.000000	0.707100	0.000000
C451	C45	0.000000	0.727600	0.500000
C461	C46	0.000000	0.616500	0.500000
C471	C47	0.000000	0.403900	0.500000
C481	C48	0.000000	0.292900	0.500000
