data_HADPOU_clean_PM
_symmetry_space_group_name_H-M	'P1'
_cell_length_a	7.278200
_cell_length_b	7.561300
_cell_length_c	7.482000
_cell_angle_alpha	90.000000
_cell_angle_beta	101.494000
_cell_angle_gamma	90.000000
_symmetry_Int_Tables_number 1

loop_
_symmetry_equiv_pos_as_xyz
'x,y,z'

loop_
_atom_site_label
_atom_site_type_symbol
_atom_site_fract_x
_atom_site_fract_y
_atom_site_fract_z
N11	N1	0.290300	0.299400	0.971900
C11	C1	0.184700	0.187600	0.981000
N21	N2	0.709700	0.299400	0.028100
C21	C2	0.815300	0.187600	0.019000
N31	N3	0.709700	0.700600	0.028100
C31	C3	0.815300	0.812400	0.019000
N41	N4	0.290300	0.700600	0.971900
C41	C4	0.184700	0.812400	0.981000
Pt11	Pt1	0.000000	0.000000	0.000000
Fe11	Fe1	0.500000	0.500000	0.000000
N51	N5	0.504600	0.500000	0.291500
C51	C5	0.343000	0.500000	0.377000
H11	H1	0.226600	0.500000	0.298900
C61	C6	0.658000	0.500000	0.442000
F11	F1	0.848000	0.500000	0.403000
N61	N6	0.495400	0.500000	0.708500
C71	C7	0.657000	0.500000	0.623000
H21	H2	0.773400	0.500000	0.701100
C81	C8	0.342000	0.500000	0.558000
F21	F2	0.152000	0.500000	0.597000
