data_HADXOC_clean_PM
_symmetry_space_group_name_H-M	'P1'
_cell_length_a	6.806100
_cell_length_b	8.246800
_cell_length_c	9.095600
_cell_angle_alpha	103.824000
_cell_angle_beta	94.823000
_cell_angle_gamma	102.719000
_symmetry_Int_Tables_number 1

loop_
_symmetry_equiv_pos_as_xyz
'x,y,z'

loop_
_atom_site_label
_atom_site_type_symbol
_atom_site_fract_x
_atom_site_fract_y
_atom_site_fract_z
O11	O1	0.076000	0.796400	0.093700
O21	O2	0.244400	0.526900	0.137700
O31	O3	0.796600	0.806800	0.309900
O41	O4	0.785700	0.953000	0.624000
O51	O5	0.484500	0.839100	0.308200
O61	O6	0.882600	0.819900	0.794400
C11	C1	0.778900	0.822000	0.675000
O71	O7	0.460200	0.360800	0.086300
C21	C2	0.619900	0.770700	0.347500
C31	C3	0.634600	0.656800	0.584100
C41	C4	0.564200	0.631800	0.429100
C51	C5	0.432200	0.475000	0.345200
C61	C6	0.373500	0.448600	0.175500
U11	U1	0.112870	0.748190	0.274960
O81	O8	0.924000	0.203600	0.906300
O91	O9	0.755600	0.473100	0.862300
O101	O10	0.203400	0.193200	0.690100
O111	O11	0.214300	0.047000	0.376000
O121	O12	0.515500	0.160900	0.691800
O131	O13	0.117400	0.180100	0.205600
C71	C7	0.221100	0.178000	0.325000
O141	O14	0.539800	0.639200	0.913700
C81	C8	0.380100	0.229300	0.652500
C91	C9	0.365400	0.343200	0.415900
C101	C10	0.435800	0.368200	0.570900
C111	C11	0.567800	0.525000	0.654800
C121	C12	0.626500	0.551400	0.824500
U21	U2	0.887130	0.251810	0.725040
Co11	Co1	0.000000	0.000000	0.000000
