data_HADXIW_clean_PM
_symmetry_space_group_name_H-M	'P1'
_cell_length_a	6.885000
_cell_length_b	8.522900
_cell_length_c	11.384000
_cell_angle_alpha	95.411000
_cell_angle_beta	90.800000
_cell_angle_gamma	108.870000
_symmetry_Int_Tables_number 1

loop_
_symmetry_equiv_pos_as_xyz
'x,y,z'

loop_
_atom_site_label
_atom_site_type_symbol
_atom_site_fract_x
_atom_site_fract_y
_atom_site_fract_z
U11	U1	0.342970	0.169880	0.329210
O11	O1	0.971800	0.090400	0.346700
O21	O2	0.759100	0.083600	0.589500
O31	O3	0.661200	0.112400	0.343400
O41	O4	0.791500	0.645100	0.770350
O51	O5	0.024700	0.531300	0.819410
C11	C1	0.883600	0.368400	0.560900
O61	O6	0.670800	0.263400	0.715810
C21	C2	0.952900	0.531500	0.616100
C31	C3	0.759600	0.229100	0.628800
C41	C4	0.847500	0.166200	0.376400
C51	C5	0.916200	0.568800	0.745200
C61	C6	0.930600	0.337600	0.444200
U21	U2	0.657030	0.830120	0.670790
O71	O7	0.028200	0.909600	0.653300
O81	O8	0.240900	0.916400	0.410500
O91	O9	0.338800	0.887600	0.656600
O101	O10	0.208500	0.354900	0.229650
O111	O11	0.975300	0.468700	0.180590
C71	C7	0.116400	0.631600	0.439100
O121	O12	0.329200	0.736600	0.284190
C81	C8	0.047100	0.468500	0.383900
C91	C9	0.240400	0.770900	0.371200
C101	C10	0.152500	0.833800	0.623600
C111	C11	0.083800	0.431200	0.254800
C121	C12	0.069400	0.662400	0.555800
Co11	Co1	0.000000	0.500000	0.000000
