data_HAFSOZ_clean_PM
_symmetry_space_group_name_H-M	'P1'
_cell_length_a	10.997000
_cell_length_b	14.914000
_cell_length_c	14.368000
_cell_angle_alpha	90.000000
_cell_angle_beta	109.310000
_cell_angle_gamma	90.000000
_symmetry_Int_Tables_number 1

loop_
_symmetry_equiv_pos_as_xyz
'x,y,z'

loop_
_atom_site_label
_atom_site_type_symbol
_atom_site_fract_x
_atom_site_fract_y
_atom_site_fract_z
O11	O1	0.908200	0.141900	0.196300
O21	O2	0.566300	0.372200	0.369800
Zn11	Zn1	0.620340	0.029990	0.966340
Zn21	Zn2	0.072370	0.150070	0.161010
O31	O3	0.532600	0.056200	0.068900
C11	C1	0.465000	0.161500	0.164300
O41	O4	0.252200	0.179100	0.157600
C21	C2	0.621700	0.264400	0.269600
C31	C3	0.560000	0.122300	0.131400
C41	C4	0.326900	0.133600	0.128800
C51	C5	0.714600	0.225500	0.237400
H11	H1	0.798400	0.247500	0.261400
C61	C6	0.497500	0.231100	0.231700
H21	H2	0.433400	0.256500	0.252300
C71	C7	0.688400	0.155600	0.171300
O51	O5	0.780400	0.066000	0.073100
O61	O6	0.764200	0.373900	0.362700
O71	O7	0.287800	0.069200	0.071800
C81	C8	0.797800	0.118700	0.143700
C91	C9	0.655300	0.342100	0.338600
N11	N1	0.021200	0.281800	0.097300
C101	C10	0.003400	0.454100	0.019700
C111	C11	0.998600	0.296100	0.003100
H31	H3	0.991100	0.246500	0.962400
C121	C12	0.020900	0.438300	0.117000
H41	H4	0.027700	0.486700	0.159300
C131	C13	0.028700	0.352400	0.153900
H51	H5	0.039500	0.344100	0.220300
C141	C14	0.985500	0.380000	0.960400
H61	H6	0.964800	0.386100	0.892500
O81	O8	0.091800	0.641900	0.303700
O91	O9	0.433700	0.872200	0.130200
Zn31	Zn3	0.379660	0.529990	0.533660
Zn41	Zn4	0.927630	0.650070	0.338990
O101	O10	0.467400	0.556200	0.431100
C151	C15	0.535000	0.661500	0.335700
O111	O11	0.747800	0.679100	0.342400
C161	C16	0.378300	0.764400	0.230400
C171	C17	0.440000	0.622300	0.368600
C181	C18	0.673100	0.633600	0.371200
C191	C19	0.285400	0.725500	0.262600
H71	H7	0.201600	0.747500	0.238600
C201	C20	0.502500	0.731100	0.268300
H81	H8	0.566600	0.756500	0.247700
C211	C21	0.311600	0.655600	0.328700
O121	O12	0.219600	0.566000	0.426900
O131	O13	0.235800	0.873900	0.137300
O141	O14	0.712200	0.569200	0.428200
C221	C22	0.202200	0.618700	0.356300
C231	C23	0.344700	0.842100	0.161400
N21	N2	0.978800	0.781800	0.402700
C241	C24	0.996600	0.954100	0.480300
C251	C25	0.001400	0.796100	0.496900
H91	H9	0.008900	0.746500	0.537600
C261	C26	0.979100	0.938300	0.383000
H101	H10	0.972300	0.986700	0.340700
C271	C27	0.971300	0.852400	0.346100
H111	H11	0.960500	0.844100	0.279700
C281	C28	0.014500	0.880000	0.539600
H121	H12	0.035200	0.886100	0.607500
O151	O15	0.091800	0.858100	0.803700
O161	O16	0.433700	0.627800	0.630200
Zn51	Zn5	0.379660	0.970010	0.033660
Zn61	Zn6	0.927630	0.849930	0.838990
O171	O17	0.467400	0.943800	0.931100
C291	C29	0.535000	0.838500	0.835700
O181	O18	0.747800	0.820900	0.842400
C301	C30	0.378300	0.735600	0.730400
C311	C31	0.440000	0.877700	0.868600
C321	C32	0.673100	0.866400	0.871200
C331	C33	0.285400	0.774500	0.762600
H131	H13	0.201600	0.752500	0.738600
C341	C34	0.502500	0.768900	0.768300
H141	H14	0.566600	0.743500	0.747700
C351	C35	0.311600	0.844400	0.828700
O191	O19	0.219600	0.934000	0.926900
O201	O20	0.235800	0.626100	0.637300
O211	O21	0.712200	0.930800	0.928200
C361	C36	0.202200	0.881300	0.856300
C371	C37	0.344700	0.657900	0.661400
N31	N3	0.978800	0.718200	0.902700
C381	C38	0.996600	0.545900	0.980300
C391	C39	0.001400	0.703900	0.996900
H151	H15	0.008900	0.753500	0.037600
C401	C40	0.979100	0.561700	0.883000
H161	H16	0.972300	0.513300	0.840700
C411	C41	0.971300	0.647600	0.846100
H171	H17	0.960500	0.655900	0.779700
C421	C42	0.014500	0.620000	0.039600
H181	H18	0.035200	0.613900	0.107500
O221	O22	0.908200	0.358100	0.696300
O231	O23	0.566300	0.127800	0.869800
Zn71	Zn7	0.620340	0.470010	0.466340
Zn81	Zn8	0.072370	0.349930	0.661010
O241	O24	0.532600	0.443800	0.568900
C431	C43	0.465000	0.338500	0.664300
O251	O25	0.252200	0.320900	0.657600
C441	C44	0.621700	0.235600	0.769600
C451	C45	0.560000	0.377700	0.631400
C461	C46	0.326900	0.366400	0.628800
C471	C47	0.714600	0.274500	0.737400
H191	H19	0.798400	0.252500	0.761400
C481	C48	0.497500	0.268900	0.731700
H201	H20	0.433400	0.243500	0.752300
C491	C49	0.688400	0.344400	0.671300
O261	O26	0.780400	0.434000	0.573100
O271	O27	0.764200	0.126100	0.862700
O281	O28	0.287800	0.430800	0.571800
C501	C50	0.797800	0.381300	0.643700
C511	C51	0.655300	0.157900	0.838600
N41	N4	0.021200	0.218200	0.597300
C521	C52	0.003400	0.045900	0.519700
C531	C53	0.998600	0.203900	0.503100
H211	H21	0.991100	0.253500	0.462400
C541	C54	0.020900	0.061700	0.617000
H221	H22	0.027700	0.013300	0.659300
C551	C55	0.028700	0.147600	0.653900
H231	H23	0.039500	0.155900	0.720300
C561	C56	0.985500	0.120000	0.460400
H241	H24	0.964800	0.113900	0.392500
