data_HAHPIQ_charged_PM
_symmetry_space_group_name_H-M	'P1'
_cell_length_a	12.020000
_cell_length_b	21.790000
_cell_length_c	21.790000
_cell_angle_alpha	120.000000
_cell_angle_beta	90.000000
_cell_angle_gamma	90.000000
_symmetry_Int_Tables_number 1

loop_
_symmetry_equiv_pos_as_xyz
'x,y,z'

loop_
_atom_site_label
_atom_site_type_symbol
_atom_site_fract_x
_atom_site_fract_y
_atom_site_fract_z
Ag11	Ag1	0.250000	0.262420	0.737580
Ag21	Ag2	0.250000	0.475160	0.737580
Ag31	Ag3	0.250000	0.262420	0.524840
Ag41	Ag4	0.750000	0.737580	0.262420
Ag51	Ag5	0.750000	0.524840	0.262420
Ag61	Ag6	0.750000	0.737580	0.475160
Ag71	Ag7	0.410020	0.333330	0.666660
Ag81	Ag8	0.910020	0.666670	0.333340
Ag91	Ag9	0.589980	0.666670	0.333340
Ag101	Ag10	0.089980	0.333330	0.666660
Ag111	Ag11	0.500000	0.500580	0.000000
Ag121	Ag12	0.500000	0.499420	0.499420
Ag131	Ag13	0.500000	0.000000	0.500580
Ag141	Ag14	0.000000	0.499420	0.000000
Ag151	Ag15	0.000000	0.500580	0.500580
Ag161	Ag16	0.000000	0.000000	0.499420
H11	H1	0.076300	0.068000	0.416100
H21	H2	0.010700	0.077700	0.321200
H31	H3	0.905000	0.175100	0.341300
H41	H4	0.864800	0.262800	0.456400
H51	H5	0.930300	0.253200	0.551300
H61	H6	0.209200	0.991700	0.555100
H71	H7	0.262000	0.918100	0.598500
H81	H8	0.251800	0.958400	0.719000
H91	H9	0.188700	0.072200	0.796200
H101	H10	0.135900	0.145800	0.752800
H111	H11	0.076300	0.348100	0.932000
H121	H12	0.010700	0.243500	0.922300
H131	H13	0.905000	0.166200	0.824900
H141	H14	0.864800	0.193600	0.737200
H151	H15	0.930300	0.298100	0.746800
H161	H16	0.209200	0.563400	0.008300
H171	H17	0.262000	0.680400	0.081900
H181	H18	0.251800	0.760600	0.041600
H191	H19	0.188700	0.724000	0.927800
H201	H20	0.135900	0.607000	0.854200
H211	H21	0.076300	0.583900	0.651900
H221	H22	0.010700	0.678800	0.756500
H231	H23	0.905000	0.658700	0.833800
H241	H24	0.864800	0.543600	0.806400
H251	H25	0.930300	0.448700	0.701900
H261	H26	0.209200	0.444900	0.436600
H271	H27	0.262000	0.401500	0.319600
H281	H28	0.251800	0.281000	0.239400
H291	H29	0.188700	0.203800	0.276000
H301	H30	0.135900	0.247200	0.393000
H311	H31	0.576300	0.932000	0.583900
H321	H32	0.510700	0.922300	0.678800
H331	H33	0.405000	0.824900	0.658700
H341	H34	0.364800	0.737200	0.543600
H351	H35	0.430300	0.746800	0.448700
H361	H36	0.709200	0.008300	0.444900
H371	H37	0.762000	0.081900	0.401500
H381	H38	0.751800	0.041600	0.281000
H391	H39	0.688700	0.927800	0.203800
H401	H40	0.635900	0.854200	0.247200
H411	H41	0.576300	0.651900	0.068000
H421	H42	0.510700	0.756500	0.077700
H431	H43	0.405000	0.833800	0.175100
H441	H44	0.364800	0.806400	0.262800
H451	H45	0.430300	0.701900	0.253200
H461	H46	0.709200	0.436600	0.991700
H471	H47	0.762000	0.319600	0.918100
H481	H48	0.751800	0.239400	0.958400
H491	H49	0.688700	0.276000	0.072200
H501	H50	0.635900	0.393000	0.145800
H511	H51	0.576300	0.416100	0.348100
H521	H52	0.510700	0.321200	0.243500
H531	H53	0.405000	0.341300	0.166200
H541	H54	0.364800	0.456400	0.193600
H551	H55	0.430300	0.551300	0.298100
H561	H56	0.709200	0.555100	0.563400
H571	H57	0.762000	0.598500	0.680400
H581	H58	0.751800	0.719000	0.760600
H591	H59	0.688700	0.796200	0.724000
H601	H60	0.635900	0.752800	0.607000
H611	H61	0.923700	0.651900	0.583900
H621	H62	0.989300	0.756500	0.678800
H631	H63	0.095000	0.833800	0.658700
H641	H64	0.135200	0.806400	0.543600
H651	H65	0.069700	0.701900	0.448700
H661	H66	0.790800	0.436600	0.444900
H671	H67	0.738000	0.319600	0.401500
H681	H68	0.748200	0.239400	0.281000
H691	H69	0.811300	0.276000	0.203800
H701	H70	0.864100	0.393000	0.247200
H711	H71	0.923700	0.416100	0.068000
H721	H72	0.989300	0.321200	0.077700
H731	H73	0.095000	0.341300	0.175100
H741	H74	0.135200	0.456400	0.262800
H751	H75	0.069700	0.551300	0.253200
H761	H76	0.790800	0.555100	0.991700
H771	H77	0.738000	0.598500	0.918100
H781	H78	0.748200	0.719000	0.958400
H791	H79	0.811300	0.796200	0.072200
H801	H80	0.864100	0.752800	0.145800
H811	H81	0.923700	0.932000	0.348100
H821	H82	0.989300	0.922300	0.243500
H831	H83	0.095000	0.824900	0.166200
H841	H84	0.135200	0.737200	0.193600
H851	H85	0.069700	0.746800	0.298100
H861	H86	0.790800	0.008300	0.563400
H871	H87	0.738000	0.081900	0.680400
H881	H88	0.748200	0.041600	0.760600
H891	H89	0.811300	0.927800	0.724000
H901	H90	0.864100	0.854200	0.607000
H911	H91	0.423700	0.348100	0.416100
H921	H92	0.489300	0.243500	0.321200
H931	H93	0.595000	0.166200	0.341300
H941	H94	0.635200	0.193600	0.456400
H951	H95	0.569700	0.298100	0.551300
H961	H96	0.290800	0.563400	0.555100
H971	H97	0.238000	0.680400	0.598500
H981	H98	0.248200	0.760600	0.719000
H991	H99	0.311300	0.724000	0.796200
H1001	H100	0.364100	0.607000	0.752800
H1011	H101	0.423700	0.583900	0.932000
H1021	H102	0.489300	0.678800	0.922300
H1031	H103	0.595000	0.658700	0.824900
H1041	H104	0.635200	0.543600	0.737200
H1051	H105	0.569700	0.448700	0.746800
H1061	H106	0.290800	0.444900	0.008300
H1071	H107	0.238000	0.401500	0.081900
H1081	H108	0.248200	0.281000	0.041600
H1091	H109	0.311300	0.203800	0.927800
H1101	H110	0.364100	0.247200	0.854200
H1111	H111	0.423700	0.068000	0.651900
H1121	H112	0.489300	0.077700	0.756500
H1131	H113	0.595000	0.175100	0.833800
H1141	H114	0.635200	0.262800	0.806400
H1151	H115	0.569700	0.253200	0.701900
H1161	H116	0.290800	0.991700	0.436600
H1171	H117	0.238000	0.918100	0.319600
H1181	H118	0.248200	0.958400	0.239400
H1191	H119	0.311300	0.072200	0.276000
H1201	H120	0.364100	0.145800	0.393000
C11	C1	0.438000	0.449200	0.841200
C21	C2	0.128700	0.119400	0.621400
C31	C3	0.009800	0.159600	0.493100
C41	C4	0.033900	0.107100	0.424200
C51	C5	0.994600	0.112900	0.367300
C61	C6	0.931300	0.171200	0.379300
C71	C7	0.907200	0.223800	0.448300
C81	C8	0.946400	0.218000	0.505200
C91	C9	0.167300	0.076000	0.649700
C101	C10	0.205100	0.007800	0.603400
C111	C11	0.236700	0.963700	0.629400
C121	C12	0.230600	0.987900	0.701600
C131	C13	0.192800	0.056000	0.747900
C141	C14	0.161200	0.100100	0.721900
C151	C15	0.438000	0.392000	0.550800
C161	C16	0.128700	0.502000	0.880600
C171	C17	0.009800	0.333500	0.840400
C181	C18	0.033900	0.317100	0.892900
C191	C19	0.994600	0.254400	0.887100
C201	C20	0.931300	0.208100	0.828800
C211	C21	0.907200	0.224500	0.776200
C221	C22	0.946400	0.287200	0.782000
C231	C23	0.167300	0.573700	0.924000
C241	C24	0.205100	0.595600	0.992200
C251	C25	0.236700	0.665700	0.036300
C261	C26	0.230600	0.713700	0.012100
C271	C27	0.192800	0.691900	0.944000
C281	C28	0.161200	0.621800	0.899900
C291	C29	0.438000	0.158800	0.608000
C301	C30	0.128700	0.378600	0.498000
C311	C31	0.009800	0.506900	0.666500
C321	C32	0.033900	0.575800	0.682900
C331	C33	0.994600	0.632700	0.745600
C341	C34	0.931300	0.620700	0.791900
C351	C35	0.907200	0.551700	0.775500
C361	C36	0.946400	0.494800	0.712800
C371	C37	0.167300	0.350300	0.426300
C381	C38	0.205100	0.396600	0.404400
C391	C39	0.236700	0.370600	0.334300
C401	C40	0.230600	0.298400	0.286300
C411	C41	0.192800	0.252100	0.308100
C421	C42	0.161200	0.278100	0.378200
C431	C43	0.938000	0.550800	0.158800
C441	C44	0.628700	0.880600	0.378600
C451	C45	0.509800	0.840400	0.506900
C461	C46	0.533900	0.892900	0.575800
C471	C47	0.494600	0.887100	0.632700
C481	C48	0.431300	0.828800	0.620700
C491	C49	0.407200	0.776200	0.551700
C501	C50	0.446400	0.782000	0.494800
C511	C51	0.667300	0.924000	0.350300
C521	C52	0.705100	0.992200	0.396600
C531	C53	0.736700	0.036300	0.370600
C541	C54	0.730600	0.012100	0.298400
C551	C55	0.692800	0.944000	0.252100
C561	C56	0.661200	0.899900	0.278100
C571	C57	0.938000	0.608000	0.449200
C581	C58	0.628700	0.498000	0.119400
C591	C59	0.509800	0.666500	0.159600
C601	C60	0.533900	0.682900	0.107100
C611	C61	0.494600	0.745600	0.112900
C621	C62	0.431300	0.791900	0.171200
C631	C63	0.407200	0.775500	0.223800
C641	C64	0.446400	0.712800	0.218000
C651	C65	0.667300	0.426300	0.076000
C661	C66	0.705100	0.404400	0.007800
C671	C67	0.736700	0.334300	0.963700
C681	C68	0.730600	0.286300	0.987900
C691	C69	0.692800	0.308100	0.056000
C701	C70	0.661200	0.378200	0.100100
C711	C71	0.938000	0.841200	0.392000
C721	C72	0.628700	0.621400	0.502000
C731	C73	0.509800	0.493100	0.333500
C741	C74	0.533900	0.424200	0.317100
C751	C75	0.494600	0.367300	0.254400
C761	C76	0.431300	0.379300	0.208100
C771	C77	0.407200	0.448300	0.224500
C781	C78	0.446400	0.505200	0.287200
C791	C79	0.667300	0.649700	0.573700
C801	C80	0.705100	0.603400	0.595600
C811	C81	0.736700	0.629400	0.665700
C821	C82	0.730600	0.701600	0.713700
C831	C83	0.692800	0.747900	0.691900
C841	C84	0.661200	0.721900	0.621800
C851	C85	0.562000	0.608000	0.158800
C861	C86	0.871300	0.498000	0.378600
C871	C87	0.990200	0.666500	0.506900
C881	C88	0.966100	0.682900	0.575800
C891	C89	0.005400	0.745600	0.632700
C901	C90	0.068700	0.791900	0.620700
C911	C91	0.092800	0.775500	0.551700
C921	C92	0.053600	0.712800	0.494800
C931	C93	0.832700	0.426300	0.350300
C941	C94	0.794900	0.404400	0.396600
C951	C95	0.763300	0.334300	0.370600
C961	C96	0.769400	0.286300	0.298400
C971	C97	0.807200	0.308100	0.252100
C981	C98	0.838800	0.378200	0.278100
C991	C99	0.562000	0.841200	0.449200
C1001	C100	0.871300	0.621400	0.119400
C1011	C101	0.990200	0.493100	0.159600
C1021	C102	0.966100	0.424200	0.107100
C1031	C103	0.005400	0.367300	0.112900
C1041	C104	0.068700	0.379300	0.171200
C1051	C105	0.092800	0.448300	0.223800
C1061	C106	0.053600	0.505200	0.218000
C1071	C107	0.832700	0.649700	0.076000
C1081	C108	0.794900	0.603400	0.007800
C1091	C109	0.763300	0.629400	0.963700
C1101	C110	0.769400	0.701600	0.987900
C1111	C111	0.807200	0.747900	0.056000
C1121	C112	0.838800	0.721900	0.100100
C1131	C113	0.562000	0.550800	0.392000
C1141	C114	0.871300	0.880600	0.502000
C1151	C115	0.990200	0.840400	0.333500
C1161	C116	0.966100	0.892900	0.317100
C1171	C117	0.005400	0.887100	0.254400
C1181	C118	0.068700	0.828800	0.208100
C1191	C119	0.092800	0.776200	0.224500
C1201	C120	0.053600	0.782000	0.287200
C1211	C121	0.832700	0.924000	0.573700
C1221	C122	0.794900	0.992200	0.595600
C1231	C123	0.763300	0.036300	0.665700
C1241	C124	0.769400	0.012100	0.713700
C1251	C125	0.807200	0.944000	0.691900
C1261	C126	0.838800	0.899900	0.621800
C1271	C127	0.062000	0.392000	0.841200
C1281	C128	0.371300	0.502000	0.621400
C1291	C129	0.490200	0.333500	0.493100
C1301	C130	0.466100	0.317100	0.424200
C1311	C131	0.505400	0.254400	0.367300
C1321	C132	0.568700	0.208100	0.379300
C1331	C133	0.592800	0.224500	0.448300
C1341	C134	0.553600	0.287200	0.505200
C1351	C135	0.332700	0.573700	0.649700
C1361	C136	0.294900	0.595600	0.603400
C1371	C137	0.263300	0.665700	0.629400
C1381	C138	0.269400	0.713700	0.701600
C1391	C139	0.307200	0.691900	0.747900
C1401	C140	0.338800	0.621800	0.721900
C1411	C141	0.062000	0.158800	0.550800
C1421	C142	0.371300	0.378600	0.880600
C1431	C143	0.490200	0.506900	0.840400
C1441	C144	0.466100	0.575800	0.892900
C1451	C145	0.505400	0.632700	0.887100
C1461	C146	0.568700	0.620700	0.828800
C1471	C147	0.592800	0.551700	0.776200
C1481	C148	0.553600	0.494800	0.782000
C1491	C149	0.332700	0.350300	0.924000
C1501	C150	0.294900	0.396600	0.992200
C1511	C151	0.263300	0.370600	0.036300
C1521	C152	0.269400	0.298400	0.012100
C1531	C153	0.307200	0.252100	0.944000
C1541	C154	0.338800	0.278100	0.899900
C1551	C155	0.062000	0.449200	0.608000
C1561	C156	0.371300	0.119400	0.498000
C1571	C157	0.490200	0.159600	0.666500
C1581	C158	0.466100	0.107100	0.682900
C1591	C159	0.505400	0.112900	0.745600
C1601	C160	0.568700	0.171200	0.791900
C1611	C161	0.592800	0.223800	0.775500
C1621	C162	0.553600	0.218000	0.712800
C1631	C163	0.332700	0.076000	0.426300
C1641	C164	0.294900	0.007800	0.404400
C1651	C165	0.263300	0.963700	0.334300
C1661	C166	0.269400	0.987900	0.286300
C1671	C167	0.307200	0.056000	0.308100
C1681	C168	0.338800	0.100100	0.378200
N11	N1	0.143900	0.463700	0.807400
N21	N2	0.398300	0.392800	0.784300
N31	N3	0.420600	0.443500	0.902800
N41	N4	0.143900	0.343700	0.536300
N51	N5	0.398300	0.391500	0.607200
N61	N6	0.420600	0.459300	0.556500
N71	N7	0.143900	0.192600	0.656300
N81	N8	0.398300	0.215700	0.608500
N91	N9	0.420600	0.097200	0.540700
N101	N10	0.643900	0.536300	0.192600
N111	N11	0.898300	0.607200	0.215700
N121	N12	0.920600	0.556500	0.097200
N131	N13	0.643900	0.656300	0.463700
N141	N14	0.898300	0.608500	0.392800
N151	N15	0.920600	0.540700	0.443500
N161	N16	0.643900	0.807400	0.343700
N171	N17	0.898300	0.784300	0.391500
N181	N18	0.920600	0.902800	0.459300
N191	N19	0.856100	0.656300	0.192600
N201	N20	0.601700	0.608500	0.215700
N211	N21	0.579400	0.540700	0.097200
N221	N22	0.856100	0.807400	0.463700
N231	N23	0.601700	0.784300	0.392800
N241	N24	0.579400	0.902800	0.443500
N251	N25	0.856100	0.536300	0.343700
N261	N26	0.601700	0.607200	0.391500
N271	N27	0.579400	0.556500	0.459300
N281	N28	0.356100	0.343700	0.807400
N291	N29	0.101700	0.391500	0.784300
N301	N30	0.079400	0.459300	0.902800
N311	N31	0.356100	0.192600	0.536300
N321	N32	0.101700	0.215700	0.607200
N331	N33	0.079400	0.097200	0.556500
N341	N34	0.356100	0.463700	0.656300
N351	N35	0.101700	0.392800	0.608500
N361	N36	0.079400	0.443500	0.540700
N371	N37	0.750000	0.414950	0.585050
O11	O1	0.824000	0.364900	0.563300
O21	O2	0.676000	0.436700	0.635100
O31	O3	0.750000	0.443500	0.556500
N381	N38	0.750000	0.170100	0.585050
O41	O4	0.824000	0.198400	0.635100
O51	O5	0.676000	0.198400	0.563300
O61	O6	0.750000	0.113000	0.556500
N391	N39	0.750000	0.414950	0.829900
O71	O7	0.824000	0.436700	0.801600
O81	O8	0.676000	0.364900	0.801600
O91	O9	0.750000	0.443500	0.887000
N401	N40	0.250000	0.585050	0.414950
O101	O10	0.324000	0.635100	0.436700
O111	O11	0.176000	0.563300	0.364900
O121	O12	0.250000	0.556500	0.443500
N411	N41	0.250000	0.829900	0.414950
O131	O13	0.324000	0.801600	0.364900
O141	O14	0.176000	0.801600	0.436700
O151	O15	0.250000	0.887000	0.443500
N421	N42	0.250000	0.585050	0.170100
O161	O16	0.324000	0.563300	0.198400
O171	O17	0.176000	0.635100	0.198400
O181	O18	0.250000	0.556500	0.113000
