data_HAJJAE_clean_PM
_symmetry_space_group_name_H-M	'P1'
_cell_length_a	4.709600
_cell_length_b	11.094700
_cell_length_c	20.041700
_cell_angle_alpha	90.000000
_cell_angle_beta	90.000000
_cell_angle_gamma	96.843500
_symmetry_Int_Tables_number 1

loop_
_symmetry_equiv_pos_as_xyz
'x,y,z'

loop_
_atom_site_label
_atom_site_type_symbol
_atom_site_fract_x
_atom_site_fract_y
_atom_site_fract_z
Cu11	Cu1	0.304000	0.942100	0.839500
Cu21	Cu2	0.696000	0.557900	0.339500
Cu31	Cu3	0.696000	0.057900	0.160500
Cu41	Cu4	0.304000	0.442100	0.660500
H11	H1	0.265450	0.912840	0.592840
H21	H2	0.438230	0.004440	0.692910
H31	H3	0.622300	0.826900	0.954010
H41	H4	0.220440	0.114680	0.941340
H51	H5	0.734550	0.587160	0.092840
H61	H6	0.561770	0.495560	0.192910
H71	H7	0.377700	0.673100	0.454010
H81	H8	0.779560	0.385320	0.441340
H91	H9	0.734550	0.087160	0.407160
H101	H10	0.561770	0.995560	0.307090
H111	H11	0.377700	0.173100	0.045990
H121	H12	0.779560	0.885320	0.058660
H131	H13	0.265450	0.412840	0.907160
H141	H14	0.438230	0.504440	0.807090
H151	H15	0.622300	0.326900	0.545990
H161	H16	0.220440	0.614680	0.558660
C11	C1	0.054000	0.773000	0.750000
C21	C2	0.960000	0.714000	0.691000
C31	C3	0.210000	0.868000	0.629000
C41	C4	0.309000	0.923000	0.689000
C51	C5	0.999000	0.722000	0.822000
C61	C6	0.758000	0.598000	0.688000
C71	C7	0.560000	0.905000	0.969000
C81	C8	0.347000	0.069000	0.968000
C91	C9	0.946000	0.727000	0.250000
C101	C10	0.040000	0.786000	0.191000
C111	C11	0.790000	0.632000	0.129000
C121	C12	0.691000	0.577000	0.189000
C131	C13	0.001000	0.778000	0.322000
C141	C14	0.242000	0.902000	0.188000
C151	C15	0.440000	0.595000	0.469000
C161	C16	0.653000	0.431000	0.468000
C171	C17	0.946000	0.227000	0.250000
C181	C18	0.040000	0.286000	0.309000
C191	C19	0.790000	0.132000	0.371000
C201	C20	0.691000	0.077000	0.311000
C211	C21	0.001000	0.278000	0.178000
C221	C22	0.242000	0.402000	0.312000
C231	C23	0.440000	0.095000	0.031000
C241	C24	0.653000	0.931000	0.032000
C251	C25	0.054000	0.273000	0.750000
C261	C26	0.960000	0.214000	0.809000
C271	C27	0.210000	0.368000	0.871000
C281	C28	0.309000	0.423000	0.811000
C291	C29	0.999000	0.222000	0.678000
C301	C30	0.758000	0.098000	0.812000
C311	C31	0.560000	0.405000	0.531000
C321	C32	0.347000	0.569000	0.532000
N11	N1	0.237000	0.879000	0.752000
N21	N2	0.048000	0.760000	0.631000
N31	N3	0.411000	0.973000	0.940000
N41	N4	0.763000	0.621000	0.252000
N51	N5	0.952000	0.740000	0.131000
N61	N6	0.589000	0.527000	0.440000
N71	N7	0.763000	0.121000	0.248000
N81	N8	0.952000	0.240000	0.369000
N91	N9	0.589000	0.027000	0.060000
N101	N10	0.237000	0.379000	0.748000
N111	N11	0.048000	0.260000	0.869000
N121	N12	0.411000	0.473000	0.560000
O11	O1	0.113000	0.771000	0.873000
O21	O2	0.869000	0.619000	0.827000
O31	O3	0.493000	0.599000	0.689000
O41	O4	0.870000	0.510000	0.668000
O51	O5	0.887000	0.729000	0.373000
O61	O6	0.131000	0.881000	0.327000
O71	O7	0.507000	0.901000	0.189000
O81	O8	0.130000	0.990000	0.168000
O91	O9	0.887000	0.229000	0.127000
O101	O10	0.131000	0.381000	0.173000
O111	O11	0.507000	0.401000	0.311000
O121	O12	0.130000	0.490000	0.332000
O131	O13	0.113000	0.271000	0.627000
O141	O14	0.869000	0.119000	0.673000
O151	O15	0.493000	0.099000	0.811000
O161	O16	0.870000	0.010000	0.832000
