data_HAJLOU_clean_PM
_symmetry_space_group_name_H-M	'P1'
_cell_length_a	10.967200
_cell_length_b	15.058700
_cell_length_c	15.058700
_cell_angle_alpha	65.694800
_cell_angle_beta	75.950200
_cell_angle_gamma	104.050000
_symmetry_Int_Tables_number 1

loop_
_symmetry_equiv_pos_as_xyz
'x,y,z'

loop_
_atom_site_label
_atom_site_type_symbol
_atom_site_fract_x
_atom_site_fract_y
_atom_site_fract_z
Fe11	Fe1	0.500000	0.500000	0.500000
H11	H1	0.230800	0.341600	0.536000
H21	H2	0.476400	0.689100	0.294000
H31	H3	0.347800	0.709200	0.270900
H41	H4	0.443500	0.678000	0.200400
H51	H5	0.031700	0.237300	0.531900
H61	H6	0.043200	0.272900	0.413300
H71	H7	0.950900	0.306800	0.482900
H81	H8	0.028300	0.715800	0.236700
H91	H9	0.165400	0.718800	0.257100
H101	H10	0.020800	0.633000	0.348900
H111	H11	0.129000	0.369200	0.146600
H121	H12	0.118800	0.324800	0.266000
H131	H13	0.259100	0.412300	0.169900
H141	H14	0.991300	0.631300	0.134200
H151	H15	0.769200	0.658400	0.464000
H161	H16	0.523600	0.310900	0.706000
H171	H17	0.652200	0.290800	0.729100
H181	H18	0.556500	0.322000	0.799600
H191	H19	0.968300	0.762700	0.468100
H201	H20	0.956800	0.727100	0.586700
H211	H21	0.049100	0.693200	0.517100
H221	H22	0.971700	0.284200	0.763300
H231	H23	0.834600	0.281200	0.742900
H241	H24	0.979200	0.367000	0.651100
H251	H25	0.871000	0.630800	0.853400
H261	H26	0.881200	0.675200	0.734000
H271	H27	0.740900	0.587700	0.830100
H281	H28	0.008700	0.368700	0.865800
C11	C1	0.274580	0.348310	0.738670
C21	C2	0.316010	0.552590	0.346460
C31	C3	0.200260	0.491370	0.340590
C41	C4	0.153620	0.391500	0.428040
C51	C5	0.403440	0.667050	0.271530
C61	C6	0.034770	0.293880	0.467370
C71	C7	0.084650	0.597210	0.233460
C81	C8	0.140140	0.521450	0.260030
C91	C9	0.116410	0.472450	0.199720
C101	C10	0.073820	0.672660	0.272400
C111	C11	0.159500	0.387450	0.195150
C121	C12	0.725420	0.651690	0.261330
C131	C13	0.683990	0.447410	0.653540
C141	C14	0.799740	0.508630	0.659410
C151	C15	0.846380	0.608500	0.571960
C161	C16	0.596560	0.332950	0.728470
C171	C17	0.965230	0.706120	0.532630
C181	C18	0.915350	0.402790	0.766540
C191	C19	0.859860	0.478550	0.739970
C201	C20	0.883590	0.527550	0.800280
C211	C21	0.926180	0.327340	0.727600
C221	C22	0.840500	0.612550	0.804850
S11	S1	0.181500	0.280570	0.865360
S21	S2	0.818500	0.719430	0.134640
N11	N1	0.343240	0.396290	0.648530
N21	N2	0.339350	0.493390	0.430720
N31	N3	0.239060	0.395980	0.478360
N41	N4	0.049130	0.514180	0.140680
N51	N5	0.032220	0.590560	0.162850
N61	N6	0.656760	0.603710	0.351470
N71	N7	0.660650	0.506610	0.569280
N81	N8	0.760940	0.604020	0.521640
N91	N9	0.950870	0.485820	0.859320
N101	N10	0.967780	0.409440	0.837150
Fe21	Fe2	0.000000	0.500000	0.000000
H291	H29	0.766800	0.536000	0.122400
H301	H30	0.770400	0.294000	0.016900
H311	H31	0.618700	0.270900	0.019900
H321	H32	0.643900	0.200400	0.121600
H331	H33	0.563600	0.531900	0.230800
H341	H34	0.456500	0.413300	0.313800
H351	H35	0.433800	0.482900	0.210300
H361	H36	0.265000	0.236700	0.047500
H371	H37	0.422500	0.257100	0.024100
H381	H38	0.369700	0.348900	0.018100
H391	H39	0.275600	0.146600	0.484200
H401	H40	0.384800	0.266000	0.409200
H411	H41	0.429000	0.169900	0.417800
H421	H42	0.125500	0.134200	0.234500
H431	H43	0.233200	0.464000	0.877600
H441	H44	0.229600	0.706000	0.983100
H451	H45	0.381300	0.729100	0.980100
H461	H46	0.356100	0.799600	0.878400
H471	H47	0.436400	0.468100	0.769200
H481	H48	0.543500	0.586700	0.686200
H491	H49	0.566200	0.517100	0.789700
H501	H50	0.735000	0.763300	0.952500
H511	H51	0.577500	0.742900	0.975900
H521	H52	0.630300	0.651100	0.981900
H531	H53	0.724400	0.853400	0.515800
H541	H54	0.615200	0.734000	0.590800
H551	H55	0.571000	0.830100	0.582200
H561	H56	0.874500	0.865800	0.765500
C231	C23	0.013250	0.738670	0.913020
C241	C24	0.662470	0.346460	0.100950
C251	C25	0.540850	0.340590	0.168040
C261	C26	0.581660	0.428040	0.180460
C271	C27	0.674970	0.271530	0.061420
C281	C28	0.502140	0.467370	0.238750
C291	C29	0.318110	0.233460	0.169330
C301	C30	0.400170	0.260030	0.218520
C311	C31	0.316130	0.199720	0.327830
C321	C32	0.346220	0.272400	0.054940
C331	C33	0.354650	0.195150	0.417400
C341	C34	0.986750	0.261330	0.086980
C351	C35	0.337530	0.653540	0.899050
C361	C36	0.459150	0.659410	0.831960
C371	C37	0.418340	0.571960	0.819540
C381	C38	0.325030	0.728470	0.938580
C391	C39	0.497860	0.532630	0.761250
C401	C40	0.681890	0.766540	0.830670
C411	C41	0.599830	0.739970	0.781480
C421	C42	0.683870	0.800280	0.672170
C431	C43	0.653780	0.727600	0.945060
C441	C44	0.645350	0.804850	0.582600
S31	S3	0.046860	0.865360	0.854070
S41	S4	0.953140	0.134640	0.145930
N111	N11	0.991770	0.648530	0.955180
N121	N12	0.770070	0.430720	0.075890
N131	N13	0.717420	0.478360	0.125660
N141	N14	0.189810	0.140680	0.345140
N151	N15	0.195070	0.162850	0.246590
N161	N16	0.008230	0.351470	0.044820
N171	N17	0.229930	0.569280	0.924110
N181	N18	0.282580	0.521640	0.874340
N191	N19	0.810190	0.859320	0.654860
N201	N20	0.804930	0.837150	0.753410
Fe31	Fe3	0.000000	0.000000	0.500000
H571	H57	0.889200	0.122400	0.341600
H581	H58	0.787300	0.016900	0.689100
H591	H59	0.638600	0.019900	0.709200
H601	H60	0.765500	0.121600	0.678000
H611	H61	0.794400	0.230800	0.237300
H621	H62	0.770300	0.313800	0.272900
H631	H63	0.644100	0.210300	0.306800
H641	H64	0.312500	0.047500	0.715800
H651	H65	0.446600	0.024100	0.718800
H661	H66	0.387800	0.018100	0.633000
H671	H67	0.759800	0.484200	0.369200
H681	H68	0.794000	0.409200	0.324800
H691	H69	0.846800	0.417800	0.412300
H701	H70	0.360000	0.234500	0.631300
H711	H71	0.110800	0.877600	0.658400
H721	H72	0.212700	0.983100	0.310900
H731	H73	0.361400	0.980100	0.290800
H741	H74	0.234500	0.878400	0.322000
H751	H75	0.205600	0.769200	0.762700
H761	H76	0.229700	0.686200	0.727100
H771	H77	0.355900	0.789700	0.693200
H781	H78	0.687500	0.952500	0.284200
H791	H79	0.553400	0.975900	0.281200
H801	H80	0.612200	0.981900	0.367000
H811	H81	0.240200	0.515800	0.630800
H821	H82	0.206000	0.590800	0.675200
H831	H83	0.153200	0.582200	0.587700
H841	H84	0.640000	0.765500	0.368700
C451	C45	0.926270	0.913020	0.348310
C461	C46	0.763420	0.100950	0.552590
C471	C47	0.708890	0.168040	0.491370
C481	C48	0.762120	0.180460	0.391500
C491	C49	0.736390	0.061420	0.667050
C501	C50	0.740890	0.238750	0.293880
C511	C51	0.487440	0.169330	0.597210
C521	C52	0.618690	0.218520	0.521450
C531	C53	0.643960	0.327830	0.472450
C541	C54	0.401160	0.054940	0.672660
C551	C55	0.772050	0.417400	0.387450
C561	C56	0.073730	0.086980	0.651690
C571	C57	0.236580	0.899050	0.447410
C581	C58	0.291110	0.831960	0.508630
C591	C59	0.237880	0.819540	0.608500
C601	C60	0.263610	0.938580	0.332950
C611	C61	0.259110	0.761250	0.706120
C621	C62	0.512560	0.830670	0.402790
C631	C63	0.381310	0.781480	0.478550
C641	C64	0.356040	0.672170	0.527550
C651	C65	0.598840	0.945060	0.327340
C661	C66	0.227950	0.582600	0.612550
S51	S5	0.900930	0.854070	0.280570
S61	S6	0.099070	0.145930	0.719430
N211	N21	0.946950	0.955180	0.396290
N221	N22	0.845960	0.075890	0.493390
N231	N23	0.843080	0.125660	0.395980
N241	N24	0.534950	0.345140	0.514180
N251	N25	0.441660	0.246590	0.590560
N261	N26	0.053050	0.044820	0.603710
N271	N27	0.154040	0.924110	0.506610
N281	N28	0.156920	0.874340	0.604020
N291	N29	0.465050	0.654860	0.485820
N301	N30	0.558340	0.753410	0.409440
