data_HAJLEK_clean_PM
_symmetry_space_group_name_H-M	'P1'
_cell_length_a	10.962000
_cell_length_b	15.047500
_cell_length_c	15.047500
_cell_angle_alpha	65.697800
_cell_angle_beta	75.946300
_cell_angle_gamma	104.054000
_symmetry_Int_Tables_number 1

loop_
_symmetry_equiv_pos_as_xyz
'x,y,z'

loop_
_atom_site_label
_atom_site_type_symbol
_atom_site_fract_x
_atom_site_fract_y
_atom_site_fract_z
Fe11	Fe1	0.500000	0.500000	0.500000
H11	H1	0.231100	0.340700	0.536300
H21	H2	0.475400	0.689300	0.293900
H31	H3	0.345700	0.708300	0.271800
H41	H4	0.442000	0.678000	0.200400
H51	H5	0.031400	0.236800	0.532900
H61	H6	0.042600	0.272100	0.414300
H71	H7	0.950500	0.306400	0.483700
H81	H8	0.027900	0.714600	0.239100
H91	H9	0.165000	0.716700	0.259500
H101	H10	0.020400	0.630800	0.350900
H111	H11	0.129300	0.368900	0.146300
H121	H12	0.119700	0.324800	0.265400
H131	H13	0.259700	0.412900	0.169000
H141	H14	0.991200	0.631800	0.135000
H151	H15	0.768900	0.659300	0.463700
H161	H16	0.524600	0.310700	0.706100
H171	H17	0.654300	0.291700	0.728200
H181	H18	0.558000	0.322000	0.799600
H191	H19	0.968600	0.763200	0.467100
H201	H20	0.957400	0.727900	0.585700
H211	H21	0.049500	0.693600	0.516300
H221	H22	0.972100	0.285400	0.760900
H231	H23	0.835000	0.283300	0.740500
H241	H24	0.979600	0.369200	0.649100
H251	H25	0.870700	0.631100	0.853700
H261	H26	0.880300	0.675200	0.734600
H271	H27	0.740300	0.587100	0.831000
H281	H28	0.008800	0.368200	0.865000
C11	C1	0.273360	0.346460	0.739280
C21	C2	0.315870	0.552000	0.346890
C31	C3	0.200040	0.490440	0.341220
C41	C4	0.153240	0.391210	0.428590
C51	C5	0.402250	0.666900	0.271650
C61	C6	0.034500	0.293500	0.468100
C71	C7	0.083870	0.596270	0.234260
C81	C8	0.140380	0.521420	0.260480
C91	C9	0.115880	0.472240	0.199600
C101	C10	0.073450	0.671100	0.274350
C111	C11	0.159980	0.387460	0.194620
C121	C12	0.726640	0.653540	0.260720
C131	C13	0.684130	0.448000	0.653110
C141	C14	0.799960	0.509560	0.658780
C151	C15	0.846760	0.608790	0.571410
C161	C16	0.597750	0.333100	0.728350
C171	C17	0.965500	0.706500	0.531900
C181	C18	0.916130	0.403730	0.765740
C191	C19	0.859620	0.478580	0.739520
C201	C20	0.884120	0.527760	0.800400
C211	C21	0.926550	0.328900	0.725650
C221	C22	0.840020	0.612540	0.805380
S11	S1	0.179720	0.277880	0.865730
S21	S2	0.820280	0.722120	0.134270
N11	N1	0.342470	0.395460	0.649350
N21	N2	0.339480	0.492580	0.431440
N31	N3	0.239200	0.395400	0.478800
N41	N4	0.049640	0.514390	0.140470
N51	N5	0.032000	0.590730	0.163530
N61	N6	0.657530	0.604540	0.350650
N71	N7	0.660520	0.507420	0.568560
N81	N8	0.760800	0.604600	0.521200
N91	N9	0.950360	0.485610	0.859530
N101	N10	0.968000	0.409270	0.836470
Fe21	Fe2	0.000000	0.500000	0.000000
H291	H29	0.767400	0.536300	0.123000
H301	H30	0.769300	0.293900	0.016800
H311	H31	0.617500	0.271800	0.019900
H321	H32	0.642400	0.200400	0.121600
H331	H33	0.564300	0.532900	0.230300
H341	H34	0.456900	0.414300	0.313600
H351	H35	0.434200	0.483700	0.209900
H361	H36	0.267000	0.239100	0.046300
H371	H37	0.424500	0.259500	0.023800
H381	H38	0.371300	0.350900	0.018300
H391	H39	0.275600	0.146300	0.484800
H401	H40	0.385100	0.265400	0.409800
H411	H41	0.428700	0.169000	0.418100
H421	H42	0.126200	0.135000	0.233200
H431	H43	0.232600	0.463700	0.877000
H441	H44	0.230700	0.706100	0.983200
H451	H45	0.382500	0.728200	0.980100
H461	H46	0.357600	0.799600	0.878400
H471	H47	0.435700	0.467100	0.769700
H481	H48	0.543100	0.585700	0.686400
H491	H49	0.565800	0.516300	0.790100
H501	H50	0.733000	0.760900	0.953700
H511	H51	0.575500	0.740500	0.976200
H521	H52	0.628700	0.649100	0.981700
H531	H53	0.724400	0.853700	0.515200
H541	H54	0.614900	0.734600	0.590200
H551	H55	0.571300	0.831000	0.581900
H561	H56	0.873800	0.865000	0.766800
C231	C23	0.012640	0.739280	0.914260
C241	C24	0.662760	0.346890	0.101110
C251	C25	0.541260	0.341220	0.168340
C261	C26	0.581830	0.428590	0.180200
C271	C27	0.673900	0.271650	0.061450
C281	C28	0.502600	0.468100	0.238400
C291	C29	0.318130	0.234260	0.169470
C301	C30	0.400860	0.260480	0.218100
C311	C31	0.315480	0.199600	0.328160
C321	C32	0.347800	0.274350	0.054550
C331	C33	0.354600	0.194620	0.417920
C341	C34	0.987360	0.260720	0.085740
C351	C35	0.337240	0.653110	0.898890
C361	C36	0.458740	0.658780	0.831660
C371	C37	0.418170	0.571410	0.819800
C381	C38	0.326100	0.728350	0.938550
C391	C39	0.497400	0.531900	0.761600
C401	C40	0.681870	0.765740	0.830530
C411	C41	0.599140	0.739520	0.781900
C421	C42	0.684520	0.800400	0.671840
C431	C43	0.652200	0.725650	0.945450
C441	C44	0.645400	0.805380	0.582080
S31	S3	0.045450	0.865730	0.856390
S41	S4	0.954550	0.134270	0.143610
N111	N11	0.991820	0.649350	0.955190
N121	N12	0.770920	0.431440	0.075980
N131	N13	0.718000	0.478800	0.125800
N141	N14	0.190110	0.140470	0.345140
N151	N15	0.195530	0.163530	0.245740
N161	N16	0.008180	0.350650	0.044810
N171	N17	0.229080	0.568560	0.924020
N181	N18	0.282000	0.521200	0.874200
N191	N19	0.809890	0.859530	0.654860
N201	N20	0.804470	0.836470	0.754260
Fe31	Fe3	0.000000	0.000000	0.500000
H571	H57	0.890400	0.123000	0.340700
H581	H58	0.786100	0.016800	0.689300
H591	H59	0.637400	0.019900	0.708300
H601	H60	0.764000	0.121600	0.678000
H611	H61	0.794600	0.230300	0.236800
H621	H62	0.770500	0.313600	0.272100
H631	H63	0.644100	0.209900	0.306400
H641	H64	0.313300	0.046300	0.714600
H651	H65	0.448300	0.023800	0.716700
H661	H66	0.389600	0.018300	0.630800
H671	H67	0.760400	0.484800	0.368900
H681	H68	0.794900	0.409800	0.324800
H691	H69	0.846800	0.418100	0.412900
H701	H70	0.359400	0.233200	0.631800
H711	H71	0.109600	0.877000	0.659300
H721	H72	0.213900	0.983200	0.310700
H731	H73	0.362600	0.980100	0.291700
H741	H74	0.236000	0.878400	0.322000
H751	H75	0.205400	0.769700	0.763200
H761	H76	0.229500	0.686400	0.727900
H771	H77	0.355900	0.790100	0.693600
H781	H78	0.686700	0.953700	0.285400
H791	H79	0.551700	0.976200	0.283300
H801	H80	0.610400	0.981700	0.369200
H811	H81	0.239600	0.515200	0.631100
H821	H82	0.205100	0.590200	0.675200
H831	H83	0.153200	0.581900	0.587100
H841	H84	0.640600	0.766800	0.368200
C451	C45	0.926900	0.914260	0.346460
C461	C46	0.763870	0.101110	0.552000
C471	C47	0.709600	0.168340	0.490440
C481	C48	0.762030	0.180200	0.391210
C491	C49	0.735350	0.061450	0.666900
C501	C50	0.741000	0.238400	0.293500
C511	C51	0.487600	0.169470	0.596270
C521	C52	0.618960	0.218100	0.521420
C531	C53	0.643640	0.328160	0.472240
C541	C54	0.402350	0.054550	0.671100
C551	C55	0.772520	0.417920	0.387460
C561	C56	0.073100	0.085740	0.653540
C571	C57	0.236130	0.898890	0.448000
C581	C58	0.290400	0.831660	0.509560
C591	C59	0.237970	0.819800	0.608790
C601	C60	0.264650	0.938550	0.333100
C611	C61	0.259000	0.761600	0.706500
C621	C62	0.512400	0.830530	0.403730
C631	C63	0.381040	0.781900	0.478580
C641	C64	0.356360	0.671840	0.527760
C651	C65	0.597650	0.945450	0.328900
C661	C66	0.227480	0.582080	0.612540
S51	S5	0.901840	0.856390	0.277880
S61	S6	0.098160	0.143610	0.722120
N211	N21	0.947010	0.955190	0.395460
N221	N22	0.846900	0.075980	0.492580
N231	N23	0.843800	0.125800	0.395400
N241	N24	0.535250	0.345140	0.514390
N251	N25	0.441270	0.245740	0.590730
N261	N26	0.052990	0.044810	0.604540
N271	N27	0.153100	0.924020	0.507420
N281	N28	0.156200	0.874200	0.604600
N291	N29	0.464750	0.654860	0.485610
N301	N30	0.558730	0.754260	0.409270
