data_HAJMIQ_clean_PM
_symmetry_space_group_name_H-M	'P1'
_cell_length_a	26.402200
_cell_length_b	26.402200
_cell_length_c	26.402200
_cell_angle_alpha	90.000000
_cell_angle_beta	90.000000
_cell_angle_gamma	90.000000
_symmetry_Int_Tables_number 1

loop_
_symmetry_equiv_pos_as_xyz
'x,y,z'

loop_
_atom_site_label
_atom_site_type_symbol
_atom_site_fract_x
_atom_site_fract_y
_atom_site_fract_z
O11	O1	0.816660	0.947440	0.243190
O21	O2	0.816660	0.447440	0.743190
O31	O3	0.316660	0.947440	0.743190
O41	O4	0.316660	0.447440	0.243190
O51	O5	0.183340	0.052560	0.243190
O61	O6	0.183340	0.552560	0.743190
O71	O7	0.683340	0.052560	0.743190
O81	O8	0.683340	0.552560	0.243190
O91	O9	0.183340	0.947440	0.756810
O101	O10	0.183340	0.447440	0.256810
O111	O11	0.683340	0.947440	0.256810
O121	O12	0.683340	0.447440	0.756810
O131	O13	0.816660	0.052560	0.756810
O141	O14	0.816660	0.552560	0.256810
O151	O15	0.316660	0.052560	0.256810
O161	O16	0.316660	0.552560	0.756810
O171	O17	0.243190	0.816660	0.947440
O181	O18	0.243190	0.316660	0.447440
O191	O19	0.743190	0.816660	0.447440
O201	O20	0.743190	0.316660	0.947440
O211	O21	0.243190	0.183340	0.052560
O221	O22	0.243190	0.683340	0.552560
O231	O23	0.743190	0.183340	0.552560
O241	O24	0.743190	0.683340	0.052560
O251	O25	0.756810	0.183340	0.947440
O261	O26	0.756810	0.683340	0.447440
O271	O27	0.256810	0.183340	0.447440
O281	O28	0.256810	0.683340	0.947440
O291	O29	0.756810	0.816660	0.052560
O301	O30	0.756810	0.316660	0.552560
O311	O31	0.256810	0.816660	0.552560
O321	O32	0.256810	0.316660	0.052560
O331	O33	0.947440	0.243190	0.816660
O341	O34	0.947440	0.743190	0.316660
O351	O35	0.447440	0.243190	0.316660
O361	O36	0.447440	0.743190	0.816660
O371	O37	0.052560	0.243190	0.183340
O381	O38	0.052560	0.743190	0.683340
O391	O39	0.552560	0.243190	0.683340
O401	O40	0.552560	0.743190	0.183340
O411	O41	0.947440	0.756810	0.183340
O421	O42	0.947440	0.256810	0.683340
O431	O43	0.447440	0.756810	0.683340
O441	O44	0.447440	0.256810	0.183340
O451	O45	0.052560	0.756810	0.816660
O461	O46	0.052560	0.256810	0.316660
O471	O47	0.552560	0.756810	0.316660
O481	O48	0.552560	0.256810	0.816660
O491	O49	0.947440	0.816660	0.756810
O501	O50	0.947440	0.316660	0.256810
O511	O51	0.447440	0.816660	0.256810
O521	O52	0.447440	0.316660	0.756810
O531	O53	0.052560	0.183340	0.756810
O541	O54	0.052560	0.683340	0.256810
O551	O55	0.552560	0.183340	0.256810
O561	O56	0.552560	0.683340	0.756810
O571	O57	0.947440	0.183340	0.243190
O581	O58	0.947440	0.683340	0.743190
O591	O59	0.447440	0.183340	0.743190
O601	O60	0.447440	0.683340	0.243190
O611	O61	0.052560	0.816660	0.243190
O621	O62	0.052560	0.316660	0.743190
O631	O63	0.552560	0.816660	0.743190
O641	O64	0.552560	0.316660	0.243190
O651	O65	0.816660	0.243190	0.052560
O661	O66	0.816660	0.743190	0.552560
O671	O67	0.316660	0.243190	0.552560
O681	O68	0.316660	0.743190	0.052560
O691	O69	0.183340	0.243190	0.947440
O701	O70	0.183340	0.743190	0.447440
O711	O71	0.683340	0.243190	0.447440
O721	O72	0.683340	0.743190	0.947440
O731	O73	0.183340	0.756810	0.052560
O741	O74	0.183340	0.256810	0.552560
O751	O75	0.683340	0.756810	0.552560
O761	O76	0.683340	0.256810	0.052560
O771	O77	0.816660	0.756810	0.947440
O781	O78	0.816660	0.256810	0.447440
O791	O79	0.316660	0.756810	0.447440
O801	O80	0.316660	0.256810	0.947440
O811	O81	0.243190	0.947440	0.183340
O821	O82	0.243190	0.447440	0.683340
O831	O83	0.743190	0.947440	0.683340
O841	O84	0.743190	0.447440	0.183340
O851	O85	0.243190	0.052560	0.816660
O861	O86	0.243190	0.552560	0.316660
O871	O87	0.743190	0.052560	0.316660
O881	O88	0.743190	0.552560	0.816660
O891	O89	0.756810	0.947440	0.816660
O901	O90	0.756810	0.447440	0.316660
O911	O91	0.256810	0.947440	0.316660
O921	O92	0.256810	0.447440	0.816660
O931	O93	0.756810	0.052560	0.183340
O941	O94	0.756810	0.552560	0.683340
O951	O95	0.256810	0.052560	0.683340
O961	O96	0.256810	0.552560	0.183340
O971	O97	0.183340	0.052560	0.756810
O981	O98	0.183340	0.552560	0.256810
O991	O99	0.683340	0.052560	0.256810
O1001	O100	0.683340	0.552560	0.756810
O1011	O101	0.816660	0.947440	0.756810
O1021	O102	0.816660	0.447440	0.256810
O1031	O103	0.316660	0.947440	0.256810
O1041	O104	0.316660	0.447440	0.756810
O1051	O105	0.816660	0.052560	0.243190
O1061	O106	0.816660	0.552560	0.743190
O1071	O107	0.316660	0.052560	0.743190
O1081	O108	0.316660	0.552560	0.243190
O1091	O109	0.183340	0.947440	0.243190
O1101	O110	0.183340	0.447440	0.743190
O1111	O111	0.683340	0.947440	0.743190
O1121	O112	0.683340	0.447440	0.243190
O1131	O113	0.756810	0.183340	0.052560
O1141	O114	0.756810	0.683340	0.552560
O1151	O115	0.256810	0.183340	0.552560
O1161	O116	0.256810	0.683340	0.052560
O1171	O117	0.756810	0.816660	0.947440
O1181	O118	0.756810	0.316660	0.447440
O1191	O119	0.256810	0.816660	0.447440
O1201	O120	0.256810	0.316660	0.947440
O1211	O121	0.243190	0.816660	0.052560
O1221	O122	0.243190	0.316660	0.552560
O1231	O123	0.743190	0.816660	0.552560
O1241	O124	0.743190	0.316660	0.052560
O1251	O125	0.243190	0.183340	0.947440
O1261	O126	0.243190	0.683340	0.447440
O1271	O127	0.743190	0.183340	0.447440
O1281	O128	0.743190	0.683340	0.947440
O1291	O129	0.052560	0.756810	0.183340
O1301	O130	0.052560	0.256810	0.683340
O1311	O131	0.552560	0.756810	0.683340
O1321	O132	0.552560	0.256810	0.183340
O1331	O133	0.947440	0.756810	0.816660
O1341	O134	0.947440	0.256810	0.316660
O1351	O135	0.447440	0.756810	0.316660
O1361	O136	0.447440	0.256810	0.816660
O1371	O137	0.052560	0.243190	0.816660
O1381	O138	0.052560	0.743190	0.316660
O1391	O139	0.552560	0.243190	0.316660
O1401	O140	0.552560	0.743190	0.816660
O1411	O141	0.947440	0.243190	0.183340
O1421	O142	0.947440	0.743190	0.683340
O1431	O143	0.447440	0.243190	0.683340
O1441	O144	0.447440	0.743190	0.183340
O1451	O145	0.052560	0.183340	0.243190
O1461	O146	0.052560	0.683340	0.743190
O1471	O147	0.552560	0.183340	0.743190
O1481	O148	0.552560	0.683340	0.243190
O1491	O149	0.947440	0.816660	0.243190
O1501	O150	0.947440	0.316660	0.743190
O1511	O151	0.447440	0.816660	0.743190
O1521	O152	0.447440	0.316660	0.243190
O1531	O153	0.052560	0.816660	0.756810
O1541	O154	0.052560	0.316660	0.256810
O1551	O155	0.552560	0.816660	0.256810
O1561	O156	0.552560	0.316660	0.756810
O1571	O157	0.947440	0.183340	0.756810
O1581	O158	0.947440	0.683340	0.256810
O1591	O159	0.447440	0.183340	0.256810
O1601	O160	0.447440	0.683340	0.756810
O1611	O161	0.183340	0.756810	0.947440
O1621	O162	0.183340	0.256810	0.447440
O1631	O163	0.683340	0.756810	0.447440
O1641	O164	0.683340	0.256810	0.947440
O1651	O165	0.816660	0.756810	0.052560
O1661	O166	0.816660	0.256810	0.552560
O1671	O167	0.316660	0.756810	0.552560
O1681	O168	0.316660	0.256810	0.052560
O1691	O169	0.816660	0.243190	0.947440
O1701	O170	0.816660	0.743190	0.447440
O1711	O171	0.316660	0.243190	0.447440
O1721	O172	0.316660	0.743190	0.947440
O1731	O173	0.183340	0.243190	0.052560
O1741	O174	0.183340	0.743190	0.552560
O1751	O175	0.683340	0.243190	0.552560
O1761	O176	0.683340	0.743190	0.052560
O1771	O177	0.756810	0.052560	0.816660
O1781	O178	0.756810	0.552560	0.316660
O1791	O179	0.256810	0.052560	0.316660
O1801	O180	0.256810	0.552560	0.816660
O1811	O181	0.756810	0.947440	0.183340
O1821	O182	0.756810	0.447440	0.683340
O1831	O183	0.256810	0.947440	0.683340
O1841	O184	0.256810	0.447440	0.183340
O1851	O185	0.243190	0.052560	0.183340
O1861	O186	0.243190	0.552560	0.683340
O1871	O187	0.743190	0.052560	0.683340
O1881	O188	0.743190	0.552560	0.183340
O1891	O189	0.243190	0.947440	0.816660
O1901	O190	0.243190	0.447440	0.316660
O1911	O191	0.743190	0.947440	0.316660
O1921	O192	0.743190	0.447440	0.816660
Cu11	Cu1	0.784910	0.000000	0.284910
Cu21	Cu2	0.784910	0.500000	0.784910
Cu31	Cu3	0.215090	0.000000	0.284910
Cu41	Cu4	0.215090	0.500000	0.784910
Cu51	Cu5	0.215090	0.000000	0.715090
Cu61	Cu6	0.215090	0.500000	0.215090
Cu71	Cu7	0.784910	0.000000	0.715090
Cu81	Cu8	0.784910	0.500000	0.215090
Cu91	Cu9	0.284910	0.784910	0.000000
Cu101	Cu10	0.284910	0.284910	0.500000
Cu111	Cu11	0.284910	0.215090	0.000000
Cu121	Cu12	0.284910	0.715090	0.500000
Cu131	Cu13	0.715090	0.215090	0.000000
Cu141	Cu14	0.715090	0.715090	0.500000
Cu151	Cu15	0.715090	0.784910	0.000000
Cu161	Cu16	0.715090	0.284910	0.500000
Cu171	Cu17	0.000000	0.284910	0.784910
Cu181	Cu18	0.500000	0.284910	0.284910
Cu191	Cu19	0.000000	0.284910	0.215090
Cu201	Cu20	0.500000	0.284910	0.715090
Cu211	Cu21	0.000000	0.715090	0.215090
Cu221	Cu22	0.500000	0.715090	0.715090
Cu231	Cu23	0.000000	0.715090	0.784910
Cu241	Cu24	0.500000	0.715090	0.284910
Cu251	Cu25	0.000000	0.784910	0.715090
Cu261	Cu26	0.500000	0.784910	0.215090
Cu271	Cu27	0.000000	0.215090	0.715090
Cu281	Cu28	0.500000	0.215090	0.215090
Cu291	Cu29	0.000000	0.215090	0.284910
Cu301	Cu30	0.500000	0.215090	0.784910
Cu311	Cu31	0.000000	0.784910	0.284910
Cu321	Cu32	0.500000	0.784910	0.784910
Cu331	Cu33	0.784910	0.284910	0.000000
Cu341	Cu34	0.784910	0.784910	0.500000
Cu351	Cu35	0.215090	0.284910	0.000000
Cu361	Cu36	0.215090	0.784910	0.500000
Cu371	Cu37	0.215090	0.715090	0.000000
Cu381	Cu38	0.215090	0.215090	0.500000
Cu391	Cu39	0.784910	0.715090	0.000000
Cu401	Cu40	0.784910	0.215090	0.500000
Cu411	Cu41	0.284910	0.000000	0.215090
Cu421	Cu42	0.284910	0.500000	0.715090
Cu431	Cu43	0.284910	0.000000	0.784910
Cu441	Cu44	0.284910	0.500000	0.284910
Cu451	Cu45	0.715090	0.000000	0.784910
Cu461	Cu46	0.715090	0.500000	0.284910
Cu471	Cu47	0.715090	0.000000	0.215090
Cu481	Cu48	0.715090	0.500000	0.715090
C11	C1	0.797230	0.931400	0.202770
C21	C2	0.822560	0.887700	0.177440
C31	C3	0.797230	0.431400	0.702770
C41	C4	0.822560	0.387700	0.677440
C51	C5	0.297230	0.931400	0.702770
C61	C6	0.322560	0.887700	0.677440
C71	C7	0.297230	0.431400	0.202770
C81	C8	0.322560	0.387700	0.177440
C91	C9	0.202770	0.068600	0.202770
C101	C10	0.177440	0.112300	0.177440
C111	C11	0.202770	0.568600	0.702770
C121	C12	0.177440	0.612300	0.677440
C131	C13	0.702770	0.068600	0.702770
C141	C14	0.677440	0.112300	0.677440
C151	C15	0.702770	0.568600	0.202770
C161	C16	0.677440	0.612300	0.177440
C171	C17	0.202770	0.931400	0.797230
C181	C18	0.177440	0.887700	0.822560
C191	C19	0.202770	0.431400	0.297230
C201	C20	0.177440	0.387700	0.322560
C211	C21	0.702770	0.931400	0.297230
C221	C22	0.677440	0.887700	0.322560
C231	C23	0.702770	0.431400	0.797230
C241	C24	0.677440	0.387700	0.822560
C251	C25	0.797230	0.068600	0.797230
C261	C26	0.822560	0.112300	0.822560
C271	C27	0.797230	0.568600	0.297230
C281	C28	0.822560	0.612300	0.322560
C291	C29	0.297230	0.068600	0.297230
C301	C30	0.322560	0.112300	0.322560
C311	C31	0.297230	0.568600	0.797230
C321	C32	0.322560	0.612300	0.822560
C331	C33	0.202770	0.797230	0.931400
C341	C34	0.177440	0.822560	0.887700
C351	C35	0.202770	0.297230	0.431400
C361	C36	0.177440	0.322560	0.387700
C371	C37	0.702770	0.797230	0.431400
C381	C38	0.677440	0.822560	0.387700
C391	C39	0.702770	0.297230	0.931400
C401	C40	0.677440	0.322560	0.887700
C411	C41	0.202770	0.202770	0.068600
C421	C42	0.177440	0.177440	0.112300
C431	C43	0.202770	0.702770	0.568600
C441	C44	0.177440	0.677440	0.612300
C451	C45	0.702770	0.202770	0.568600
C461	C46	0.677440	0.177440	0.612300
C471	C47	0.702770	0.702770	0.068600
C481	C48	0.677440	0.677440	0.112300
C491	C49	0.797230	0.202770	0.931400
C501	C50	0.822560	0.177440	0.887700
C511	C51	0.797230	0.702770	0.431400
C521	C52	0.822560	0.677440	0.387700
C531	C53	0.297230	0.202770	0.431400
C541	C54	0.322560	0.177440	0.387700
C551	C55	0.297230	0.702770	0.931400
C561	C56	0.322560	0.677440	0.887700
C571	C57	0.797230	0.797230	0.068600
C581	C58	0.822560	0.822560	0.112300
C591	C59	0.797230	0.297230	0.568600
C601	C60	0.822560	0.322560	0.612300
C611	C61	0.297230	0.797230	0.568600
C621	C62	0.322560	0.822560	0.612300
C631	C63	0.297230	0.297230	0.068600
C641	C64	0.322560	0.322560	0.112300
C651	C65	0.931400	0.202770	0.797230
C661	C66	0.887700	0.177440	0.822560
C671	C67	0.931400	0.702770	0.297230
C681	C68	0.887700	0.677440	0.322560
C691	C69	0.431400	0.202770	0.297230
C701	C70	0.387700	0.177440	0.322560
C711	C71	0.431400	0.702770	0.797230
C721	C72	0.387700	0.677440	0.822560
C731	C73	0.068600	0.202770	0.202770
C741	C74	0.112300	0.177440	0.177440
C751	C75	0.068600	0.702770	0.702770
C761	C76	0.112300	0.677440	0.677440
C771	C77	0.568600	0.202770	0.702770
C781	C78	0.612300	0.177440	0.677440
C791	C79	0.568600	0.702770	0.202770
C801	C80	0.612300	0.677440	0.177440
C811	C81	0.931400	0.797230	0.202770
C821	C82	0.887700	0.822560	0.177440
C831	C83	0.931400	0.297230	0.702770
C841	C84	0.887700	0.322560	0.677440
C851	C85	0.431400	0.797230	0.702770
C861	C86	0.387700	0.822560	0.677440
C871	C87	0.431400	0.297230	0.202770
C881	C88	0.387700	0.322560	0.177440
C891	C89	0.068600	0.797230	0.797230
C901	C90	0.112300	0.822560	0.822560
C911	C91	0.068600	0.297230	0.297230
C921	C92	0.112300	0.322560	0.322560
C931	C93	0.568600	0.797230	0.297230
C941	C94	0.612300	0.822560	0.322560
C951	C95	0.568600	0.297230	0.797230
C961	C96	0.612300	0.322560	0.822560
C971	C97	0.931400	0.797230	0.797230
C981	C98	0.887700	0.822560	0.822560
C991	C99	0.931400	0.297230	0.297230
C1001	C100	0.887700	0.322560	0.322560
C1011	C101	0.431400	0.797230	0.297230
C1021	C102	0.387700	0.822560	0.322560
C1031	C103	0.431400	0.297230	0.797230
C1041	C104	0.387700	0.322560	0.822560
C1051	C105	0.068600	0.202770	0.797230
C1061	C106	0.112300	0.177440	0.822560
C1071	C107	0.068600	0.702770	0.297230
C1081	C108	0.112300	0.677440	0.322560
C1091	C109	0.568600	0.202770	0.297230
C1101	C110	0.612300	0.177440	0.322560
C1111	C111	0.568600	0.702770	0.797230
C1121	C112	0.612300	0.677440	0.822560
C1131	C113	0.931400	0.202770	0.202770
C1141	C114	0.887700	0.177440	0.177440
C1151	C115	0.931400	0.702770	0.702770
C1161	C116	0.887700	0.677440	0.677440
C1171	C117	0.431400	0.202770	0.702770
C1181	C118	0.387700	0.177440	0.677440
C1191	C119	0.431400	0.702770	0.202770
C1201	C120	0.387700	0.677440	0.177440
C1211	C121	0.068600	0.797230	0.202770
C1221	C122	0.112300	0.822560	0.177440
C1231	C123	0.068600	0.297230	0.702770
C1241	C124	0.112300	0.322560	0.677440
C1251	C125	0.568600	0.797230	0.702770
C1261	C126	0.612300	0.822560	0.677440
C1271	C127	0.568600	0.297230	0.202770
C1281	C128	0.612300	0.322560	0.177440
C1291	C129	0.797230	0.202770	0.068600
C1301	C130	0.822560	0.177440	0.112300
C1311	C131	0.797230	0.702770	0.568600
C1321	C132	0.822560	0.677440	0.612300
C1331	C133	0.297230	0.202770	0.568600
C1341	C134	0.322560	0.177440	0.612300
C1351	C135	0.297230	0.702770	0.068600
C1361	C136	0.322560	0.677440	0.112300
C1371	C137	0.202770	0.202770	0.931400
C1381	C138	0.177440	0.177440	0.887700
C1391	C139	0.202770	0.702770	0.431400
C1401	C140	0.177440	0.677440	0.387700
C1411	C141	0.702770	0.202770	0.431400
C1421	C142	0.677440	0.177440	0.387700
C1431	C143	0.702770	0.702770	0.931400
C1441	C144	0.677440	0.677440	0.887700
C1451	C145	0.202770	0.797230	0.068600
C1461	C146	0.177440	0.822560	0.112300
C1471	C147	0.202770	0.297230	0.568600
C1481	C148	0.177440	0.322560	0.612300
C1491	C149	0.702770	0.797230	0.568600
C1501	C150	0.677440	0.822560	0.612300
C1511	C151	0.702770	0.297230	0.068600
C1521	C152	0.677440	0.322560	0.112300
C1531	C153	0.797230	0.797230	0.931400
C1541	C154	0.822560	0.822560	0.887700
C1551	C155	0.797230	0.297230	0.431400
C1561	C156	0.822560	0.322560	0.387700
C1571	C157	0.297230	0.797230	0.431400
C1581	C158	0.322560	0.822560	0.387700
C1591	C159	0.297230	0.297230	0.931400
C1601	C160	0.322560	0.322560	0.887700
C1611	C161	0.202770	0.931400	0.202770
C1621	C162	0.177440	0.887700	0.177440
C1631	C163	0.202770	0.431400	0.702770
C1641	C164	0.177440	0.387700	0.677440
C1651	C165	0.702770	0.931400	0.702770
C1661	C166	0.677440	0.887700	0.677440
C1671	C167	0.702770	0.431400	0.202770
C1681	C168	0.677440	0.387700	0.177440
C1691	C169	0.202770	0.068600	0.797230
C1701	C170	0.177440	0.112300	0.822560
C1711	C171	0.202770	0.568600	0.297230
C1721	C172	0.177440	0.612300	0.322560
C1731	C173	0.702770	0.068600	0.297230
C1741	C174	0.677440	0.112300	0.322560
C1751	C175	0.702770	0.568600	0.797230
C1761	C176	0.677440	0.612300	0.822560
C1771	C177	0.797230	0.931400	0.797230
C1781	C178	0.822560	0.887700	0.822560
C1791	C179	0.797230	0.431400	0.297230
C1801	C180	0.822560	0.387700	0.322560
C1811	C181	0.297230	0.931400	0.297230
C1821	C182	0.322560	0.887700	0.322560
C1831	C183	0.297230	0.431400	0.797230
C1841	C184	0.322560	0.387700	0.822560
C1851	C185	0.797230	0.068600	0.202770
C1861	C186	0.822560	0.112300	0.177440
C1871	C187	0.797230	0.568600	0.702770
C1881	C188	0.822560	0.612300	0.677440
C1891	C189	0.297230	0.068600	0.702770
C1901	C190	0.322560	0.112300	0.677440
C1911	C191	0.297230	0.568600	0.202770
C1921	C192	0.322560	0.612300	0.177440
C1931	C193	0.865950	0.865950	0.199100
H11	H1	0.880300	0.880300	0.227900
C1941	C194	0.865950	0.365950	0.699100
H21	H2	0.880300	0.380300	0.727900
C1951	C195	0.365950	0.865950	0.699100
H31	H3	0.380300	0.880300	0.727900
C1961	C196	0.365950	0.365950	0.199100
H41	H4	0.380300	0.380300	0.227900
C1971	C197	0.134050	0.134050	0.199100
H51	H5	0.119700	0.119700	0.227900
C1981	C198	0.134050	0.634050	0.699100
H61	H6	0.119700	0.619700	0.727900
C1991	C199	0.634050	0.134050	0.699100
H71	H7	0.619700	0.119700	0.727900
C2001	C200	0.634050	0.634050	0.199100
H81	H8	0.619700	0.619700	0.227900
C2011	C201	0.134050	0.865950	0.800900
H91	H9	0.119700	0.880300	0.772100
C2021	C202	0.134050	0.365950	0.300900
H101	H10	0.119700	0.380300	0.272100
C2031	C203	0.634050	0.865950	0.300900
H111	H11	0.619700	0.880300	0.272100
C2041	C204	0.634050	0.365950	0.800900
H121	H12	0.619700	0.380300	0.772100
C2051	C205	0.865950	0.134050	0.800900
H131	H13	0.880300	0.119700	0.772100
C2061	C206	0.865950	0.634050	0.300900
H141	H14	0.880300	0.619700	0.272100
C2071	C207	0.365950	0.134050	0.300900
H151	H15	0.380300	0.119700	0.272100
C2081	C208	0.365950	0.634050	0.800900
H161	H16	0.380300	0.619700	0.772100
C2091	C209	0.199100	0.865950	0.865950
H171	H17	0.227900	0.880300	0.880300
C2101	C210	0.199100	0.365950	0.365950
H181	H18	0.227900	0.380300	0.380300
C2111	C211	0.699100	0.865950	0.365950
H191	H19	0.727900	0.880300	0.380300
C2121	C212	0.699100	0.365950	0.865950
H201	H20	0.727900	0.380300	0.880300
C2131	C213	0.199100	0.134050	0.134050
H211	H21	0.227900	0.119700	0.119700
C2141	C214	0.199100	0.634050	0.634050
H221	H22	0.227900	0.619700	0.619700
C2151	C215	0.699100	0.134050	0.634050
H231	H23	0.727900	0.119700	0.619700
C2161	C216	0.699100	0.634050	0.134050
H241	H24	0.727900	0.619700	0.119700
C2171	C217	0.800900	0.134050	0.865950
H251	H25	0.772100	0.119700	0.880300
C2181	C218	0.800900	0.634050	0.365950
H261	H26	0.772100	0.619700	0.380300
C2191	C219	0.300900	0.134050	0.365950
H271	H27	0.272100	0.119700	0.380300
C2201	C220	0.300900	0.634050	0.865950
H281	H28	0.272100	0.619700	0.880300
C2211	C221	0.800900	0.865950	0.134050
H291	H29	0.772100	0.880300	0.119700
C2221	C222	0.800900	0.365950	0.634050
H301	H30	0.772100	0.380300	0.619700
C2231	C223	0.300900	0.865950	0.634050
H311	H31	0.272100	0.880300	0.619700
C2241	C224	0.300900	0.365950	0.134050
H321	H32	0.272100	0.380300	0.119700
C2251	C225	0.865950	0.199100	0.865950
H331	H33	0.880300	0.227900	0.880300
C2261	C226	0.865950	0.699100	0.365950
H341	H34	0.880300	0.727900	0.380300
C2271	C227	0.365950	0.199100	0.365950
H351	H35	0.380300	0.227900	0.380300
C2281	C228	0.365950	0.699100	0.865950
H361	H36	0.380300	0.727900	0.880300
C2291	C229	0.134050	0.199100	0.134050
H371	H37	0.119700	0.227900	0.119700
C2301	C230	0.134050	0.699100	0.634050
H381	H38	0.119700	0.727900	0.619700
C2311	C231	0.634050	0.199100	0.634050
H391	H39	0.619700	0.227900	0.619700
C2321	C232	0.634050	0.699100	0.134050
H401	H40	0.619700	0.727900	0.119700
C2331	C233	0.865950	0.800900	0.134050
H411	H41	0.880300	0.772100	0.119700
C2341	C234	0.865950	0.300900	0.634050
H421	H42	0.880300	0.272100	0.619700
C2351	C235	0.365950	0.800900	0.634050
H431	H43	0.380300	0.772100	0.619700
C2361	C236	0.365950	0.300900	0.134050
H441	H44	0.380300	0.272100	0.119700
C2371	C237	0.134050	0.800900	0.865950
H451	H45	0.119700	0.772100	0.880300
C2381	C238	0.134050	0.300900	0.365950
H461	H46	0.119700	0.272100	0.380300
C2391	C239	0.634050	0.800900	0.365950
H471	H47	0.619700	0.772100	0.380300
C2401	C240	0.634050	0.300900	0.865950
H481	H48	0.619700	0.272100	0.880300
C2411	C241	0.865950	0.865950	0.800900
H491	H49	0.880300	0.880300	0.772100
C2421	C242	0.865950	0.365950	0.300900
H501	H50	0.880300	0.380300	0.272100
C2431	C243	0.365950	0.865950	0.300900
H511	H51	0.380300	0.880300	0.272100
C2441	C244	0.365950	0.365950	0.800900
H521	H52	0.380300	0.380300	0.772100
C2451	C245	0.134050	0.134050	0.800900
H531	H53	0.119700	0.119700	0.772100
C2461	C246	0.134050	0.634050	0.300900
H541	H54	0.119700	0.619700	0.272100
C2471	C247	0.634050	0.134050	0.300900
H551	H55	0.619700	0.119700	0.272100
C2481	C248	0.634050	0.634050	0.800900
H561	H56	0.619700	0.619700	0.772100
C2491	C249	0.865950	0.134050	0.199100
H571	H57	0.880300	0.119700	0.227900
C2501	C250	0.865950	0.634050	0.699100
H581	H58	0.880300	0.619700	0.727900
C2511	C251	0.365950	0.134050	0.699100
H591	H59	0.380300	0.119700	0.727900
C2521	C252	0.365950	0.634050	0.199100
H601	H60	0.380300	0.619700	0.227900
C2531	C253	0.134050	0.865950	0.199100
H611	H61	0.119700	0.880300	0.227900
C2541	C254	0.134050	0.365950	0.699100
H621	H62	0.119700	0.380300	0.727900
C2551	C255	0.634050	0.865950	0.699100
H631	H63	0.619700	0.880300	0.727900
C2561	C256	0.634050	0.365950	0.199100
H641	H64	0.619700	0.380300	0.227900
C2571	C257	0.865950	0.199100	0.134050
H651	H65	0.880300	0.227900	0.119700
C2581	C258	0.865950	0.699100	0.634050
H661	H66	0.880300	0.727900	0.619700
C2591	C259	0.365950	0.199100	0.634050
H671	H67	0.380300	0.227900	0.619700
C2601	C260	0.365950	0.699100	0.134050
H681	H68	0.380300	0.727900	0.119700
C2611	C261	0.134050	0.199100	0.865950
H691	H69	0.119700	0.227900	0.880300
C2621	C262	0.134050	0.699100	0.365950
H701	H70	0.119700	0.727900	0.380300
C2631	C263	0.634050	0.199100	0.365950
H711	H71	0.619700	0.227900	0.380300
C2641	C264	0.634050	0.699100	0.865950
H721	H72	0.619700	0.727900	0.880300
C2651	C265	0.134050	0.800900	0.134050
H731	H73	0.119700	0.772100	0.119700
C2661	C266	0.134050	0.300900	0.634050
H741	H74	0.119700	0.272100	0.619700
C2671	C267	0.634050	0.800900	0.634050
H751	H75	0.619700	0.772100	0.619700
C2681	C268	0.634050	0.300900	0.134050
H761	H76	0.619700	0.272100	0.119700
C2691	C269	0.865950	0.800900	0.865950
H771	H77	0.880300	0.772100	0.880300
C2701	C270	0.865950	0.300900	0.365950
H781	H78	0.880300	0.272100	0.380300
C2711	C271	0.365950	0.800900	0.365950
H791	H79	0.380300	0.772100	0.380300
C2721	C272	0.365950	0.300900	0.865950
H801	H80	0.380300	0.272100	0.880300
C2731	C273	0.199100	0.865950	0.134050
H811	H81	0.227900	0.880300	0.119700
C2741	C274	0.199100	0.365950	0.634050
H821	H82	0.227900	0.380300	0.619700
C2751	C275	0.699100	0.865950	0.634050
H831	H83	0.727900	0.880300	0.619700
C2761	C276	0.699100	0.365950	0.134050
H841	H84	0.727900	0.380300	0.119700
C2771	C277	0.199100	0.134050	0.865950
H851	H85	0.227900	0.119700	0.880300
C2781	C278	0.199100	0.634050	0.365950
H861	H86	0.227900	0.619700	0.380300
C2791	C279	0.699100	0.134050	0.365950
H871	H87	0.727900	0.119700	0.380300
C2801	C280	0.699100	0.634050	0.865950
H881	H88	0.727900	0.619700	0.880300
C2811	C281	0.800900	0.865950	0.865950
H891	H89	0.772100	0.880300	0.880300
C2821	C282	0.800900	0.365950	0.365950
H901	H90	0.772100	0.380300	0.380300
C2831	C283	0.300900	0.865950	0.365950
H911	H91	0.272100	0.880300	0.380300
C2841	C284	0.300900	0.365950	0.865950
H921	H92	0.272100	0.380300	0.880300
C2851	C285	0.800900	0.134050	0.134050
H931	H93	0.772100	0.119700	0.119700
C2861	C286	0.800900	0.634050	0.634050
H941	H94	0.772100	0.619700	0.619700
C2871	C287	0.300900	0.134050	0.634050
H951	H95	0.272100	0.119700	0.619700
C2881	C288	0.300900	0.634050	0.134050
H961	H96	0.272100	0.619700	0.119700
