data_HAJMAH_clean_PM
_symmetry_space_group_name_H-M	'P1'
_cell_length_a	11.038500
_cell_length_b	15.175800
_cell_length_c	15.175800
_cell_angle_alpha	65.680700
_cell_angle_beta	75.968400
_cell_angle_gamma	104.032000
_symmetry_Int_Tables_number 1

loop_
_symmetry_equiv_pos_as_xyz
'x,y,z'

loop_
_atom_site_label
_atom_site_type_symbol
_atom_site_fract_x
_atom_site_fract_y
_atom_site_fract_z
Fe11	Fe1	0.500000	0.500000	0.500000
H11	H1	0.233200	0.344500	0.531700
H21	H2	0.476600	0.686800	0.291700
H31	H3	0.352100	0.706900	0.268300
H41	H4	0.444600	0.675200	0.200900
H51	H5	0.034300	0.242400	0.529200
H61	H6	0.043600	0.276100	0.414400
H71	H7	0.955800	0.310400	0.481700
H81	H8	0.026900	0.710800	0.241300
H91	H9	0.159800	0.713600	0.262100
H101	H10	0.019000	0.629500	0.350200
H111	H11	0.135400	0.375200	0.144800
H121	H12	0.128100	0.331200	0.260100
H131	H13	0.262600	0.418700	0.166100
H141	H14	0.991600	0.628700	0.139400
H151	H15	0.766800	0.655500	0.468300
H161	H16	0.523400	0.313200	0.708300
H171	H17	0.647900	0.293100	0.731700
H181	H18	0.555400	0.324800	0.799100
H191	H19	0.965700	0.757600	0.470800
H201	H20	0.956400	0.723900	0.585600
H211	H21	0.044200	0.689600	0.518300
H221	H22	0.973100	0.289200	0.758700
H231	H23	0.840200	0.286400	0.737900
H241	H24	0.981000	0.370500	0.649800
H251	H25	0.864600	0.624800	0.855200
H261	H26	0.871900	0.668800	0.739900
H271	H27	0.737400	0.581300	0.833900
H281	H28	0.008400	0.371300	0.860600
C11	C1	0.275990	0.349280	0.735710
C21	C2	0.318480	0.552950	0.344510
C31	C3	0.202770	0.492660	0.339450
C41	C4	0.155800	0.393900	0.426000
C51	C5	0.405700	0.665400	0.269700
C61	C6	0.036900	0.297200	0.466400
C71	C7	0.083700	0.595200	0.236100
C81	C8	0.141810	0.521950	0.260620
C91	C9	0.119640	0.474640	0.199420
C101	C10	0.071300	0.668900	0.275900
C111	C11	0.165500	0.392700	0.192000
C121	C12	0.724010	0.650720	0.264290
C131	C13	0.681520	0.447050	0.655490
C141	C14	0.797230	0.507340	0.660550
C151	C15	0.844200	0.606100	0.574000
C161	C16	0.594300	0.334600	0.730300
C171	C17	0.963100	0.702800	0.533600
C181	C18	0.916300	0.404800	0.763900
C191	C19	0.858190	0.478050	0.739380
C201	C20	0.880360	0.525360	0.800580
C211	C21	0.928700	0.331100	0.724100
C221	C22	0.834500	0.607300	0.808000
S11	S1	0.184440	0.282770	0.860660
S21	S2	0.815560	0.717230	0.139340
N11	N1	0.343680	0.396360	0.646620
N21	N2	0.341380	0.493980	0.428340
N31	N3	0.241300	0.397560	0.475860
N41	N4	0.050680	0.515000	0.142460
N51	N5	0.032150	0.589520	0.166370
N61	N6	0.656320	0.603640	0.353380
N71	N7	0.658620	0.506020	0.571660
N81	N8	0.758700	0.602440	0.524140
N91	N9	0.949320	0.485000	0.857540
N101	N10	0.967850	0.410480	0.833630
Fe21	Fe2	0.000000	0.500000	0.000000
H291	H29	0.764900	0.531700	0.123800
H301	H30	0.768300	0.291700	0.021500
H311	H31	0.620400	0.268300	0.024800
H321	H32	0.645500	0.200900	0.123900
H331	H33	0.563500	0.529200	0.228400
H341	H34	0.458000	0.414400	0.309500
H351	H35	0.437500	0.481700	0.207900
H361	H36	0.268200	0.241300	0.047900
H371	H37	0.421900	0.262100	0.024300
H381	H38	0.369200	0.350200	0.020300
H391	H39	0.280200	0.144800	0.480000
H401	H40	0.388200	0.260100	0.408700
H411	H41	0.428700	0.166100	0.415200
H421	H42	0.131000	0.139400	0.231900
H431	H43	0.235100	0.468300	0.876200
H441	H44	0.231700	0.708300	0.978500
H451	H45	0.379600	0.731700	0.975200
H461	H46	0.354500	0.799100	0.876100
H471	H47	0.436500	0.470800	0.771600
H481	H48	0.542000	0.585600	0.690500
H491	H49	0.562500	0.518300	0.792100
H501	H50	0.731800	0.758700	0.952100
H511	H51	0.578100	0.737900	0.975700
H521	H52	0.630800	0.649800	0.979700
H531	H53	0.719800	0.855200	0.520000
H541	H54	0.611800	0.739900	0.591300
H551	H55	0.571300	0.833900	0.584800
H561	H56	0.869000	0.860600	0.768100
C231	C23	0.011700	0.735710	0.915010
C241	C24	0.662990	0.344510	0.102540
C251	C25	0.542220	0.339450	0.167890
C261	C26	0.581800	0.426000	0.180100
C271	C27	0.675400	0.269700	0.064900
C281	C28	0.503300	0.466400	0.236400
C291	C29	0.319800	0.236100	0.168700
C301	C30	0.402430	0.260620	0.217430
C311	C31	0.319060	0.199420	0.325940
C321	C32	0.347200	0.275900	0.055200
C331	C33	0.357500	0.192000	0.415300
C341	C34	0.988300	0.264290	0.084990
C351	C35	0.337010	0.655490	0.897460
C361	C36	0.457780	0.660550	0.832110
C371	C37	0.418200	0.574000	0.819900
C381	C38	0.324600	0.730300	0.935100
C391	C39	0.496700	0.533600	0.763600
C401	C40	0.680200	0.763900	0.831300
C411	C41	0.597570	0.739380	0.782570
C421	C42	0.680940	0.800580	0.674060
C431	C43	0.652800	0.724100	0.944800
C441	C44	0.642500	0.808000	0.584700
S31	S3	0.045100	0.860660	0.856570
S41	S4	0.954900	0.139340	0.143430
N111	N11	0.990300	0.646620	0.957020
N121	N12	0.769720	0.428340	0.077680
N131	N13	0.717160	0.475860	0.126580
N141	N14	0.193140	0.142460	0.342540
N151	N15	0.198520	0.166370	0.244110
N161	N16	0.009700	0.353380	0.042980
N171	N17	0.230280	0.571660	0.922320
N181	N18	0.282840	0.524140	0.873420
N191	N19	0.806860	0.857540	0.657460
N201	N20	0.801480	0.833630	0.755890
Fe31	Fe3	0.000000	0.000000	0.500000
H571	H57	0.888700	0.123800	0.344500
H581	H58	0.789800	0.021500	0.686800
H591	H59	0.645200	0.024800	0.706900
H601	H60	0.769400	0.123900	0.675200
H611	H61	0.791900	0.228400	0.242400
H621	H62	0.767500	0.309500	0.276100
H631	H63	0.645400	0.207900	0.310400
H641	H64	0.316100	0.047900	0.710800
H651	H65	0.446200	0.024300	0.713600
H661	H66	0.389500	0.020300	0.629500
H671	H67	0.760200	0.480000	0.375200
H681	H68	0.796900	0.408700	0.331200
H691	H69	0.843900	0.415200	0.418700
H701	H70	0.362900	0.231900	0.628700
H711	H71	0.111300	0.876200	0.655500
H721	H72	0.210200	0.978500	0.313200
H731	H73	0.354800	0.975200	0.293100
H741	H74	0.230600	0.876100	0.324800
H751	H75	0.208100	0.771600	0.757600
H761	H76	0.232500	0.690500	0.723900
H771	H77	0.354600	0.792100	0.689600
H781	H78	0.683900	0.952100	0.289200
H791	H79	0.553800	0.975700	0.286400
H801	H80	0.610500	0.979700	0.370500
H811	H81	0.239800	0.520000	0.624800
H821	H82	0.203100	0.591300	0.668800
H831	H83	0.156100	0.584800	0.581300
H841	H84	0.637100	0.768100	0.371300
C451	C45	0.926710	0.915010	0.349280
C461	C46	0.765530	0.102540	0.552950
C471	C47	0.710110	0.167890	0.492660
C481	C48	0.761900	0.180100	0.393900
C491	C49	0.740300	0.064900	0.665400
C501	C50	0.739700	0.236400	0.297200
C511	C51	0.488500	0.168700	0.595200
C521	C52	0.619860	0.217430	0.521950
C531	C53	0.645000	0.325940	0.474640
C541	C54	0.402400	0.055200	0.668900
C551	C55	0.772800	0.415300	0.392700
C561	C56	0.073290	0.084990	0.650720
C571	C57	0.234470	0.897460	0.447050
C581	C58	0.289890	0.832110	0.507340
C591	C59	0.238100	0.819900	0.606100
C601	C60	0.259700	0.935100	0.334600
C611	C61	0.260300	0.763600	0.702800
C621	C62	0.511500	0.831300	0.404800
C631	C63	0.380140	0.782570	0.478050
C641	C64	0.355000	0.674060	0.525360
C651	C65	0.597600	0.944800	0.331100
C661	C66	0.227200	0.584700	0.607300
S51	S5	0.901670	0.856570	0.282770
S61	S6	0.098330	0.143430	0.717230
N211	N21	0.947320	0.957020	0.396360
N221	N22	0.847400	0.077680	0.493980
N231	N23	0.843740	0.126580	0.397560
N241	N24	0.535680	0.342540	0.515000
N251	N25	0.442630	0.244110	0.589520
N261	N26	0.052680	0.042980	0.603640
N271	N27	0.152600	0.922320	0.506020
N281	N28	0.156260	0.873420	0.602440
N291	N29	0.464320	0.657460	0.485000
N301	N30	0.557370	0.755890	0.410480
