data_HAKSEU_clean_PM
_symmetry_space_group_name_H-M	'P1'
_cell_length_a	13.861800
_cell_length_b	13.861800
_cell_length_c	18.507900
_cell_angle_alpha	90.000000
_cell_angle_beta	90.000000
_cell_angle_gamma	120.000000
_symmetry_Int_Tables_number 1

loop_
_symmetry_equiv_pos_as_xyz
'x,y,z'

loop_
_atom_site_label
_atom_site_type_symbol
_atom_site_fract_x
_atom_site_fract_y
_atom_site_fract_z
O11	O1	0.648300	0.135500	0.164500
C11	C1	0.598800	0.026600	0.033300
H11	H1	0.666200	0.044600	0.055000
O21	O2	0.864500	0.512800	0.164500
C21	C2	0.973400	0.572200	0.033300
H21	H2	0.955400	0.621600	0.055000
O31	O3	0.487200	0.351700	0.164500
C31	C3	0.427800	0.401200	0.033300
H31	H3	0.378400	0.333800	0.055000
O41	O4	0.351700	0.864500	0.664500
C41	C4	0.401200	0.973400	0.533300
H41	H4	0.333800	0.955400	0.555000
O51	O5	0.135500	0.487200	0.664500
C51	C5	0.026600	0.427800	0.533300
H51	H5	0.044600	0.378400	0.555000
O61	O6	0.512800	0.648300	0.664500
C61	C6	0.572200	0.598800	0.533300
H61	H6	0.621600	0.666200	0.555000
O71	O7	0.135500	0.648300	0.835500
C71	C7	0.026600	0.598800	0.966700
H71	H7	0.044600	0.666200	0.945000
O81	O8	0.512800	0.864500	0.835500
C81	C8	0.572200	0.973400	0.966700
H81	H8	0.621600	0.955400	0.945000
O91	O9	0.351700	0.487200	0.835500
C91	C9	0.401200	0.427800	0.966700
H91	H9	0.333800	0.378400	0.945000
O101	O10	0.864500	0.351700	0.335500
C101	C10	0.973400	0.401200	0.466700
H101	H10	0.955400	0.333800	0.445000
O111	O11	0.487200	0.135500	0.335500
C111	C11	0.427800	0.026600	0.466700
H111	H11	0.378400	0.044600	0.445000
O121	O12	0.648300	0.512800	0.335500
C121	C12	0.598800	0.572200	0.466700
H121	H12	0.666200	0.621600	0.445000
O131	O13	0.351700	0.864500	0.835500
C131	C13	0.401200	0.973400	0.966700
H131	H13	0.333800	0.955400	0.945000
O141	O14	0.135500	0.487200	0.835500
C141	C14	0.026600	0.427800	0.966700
H141	H14	0.044600	0.378400	0.945000
O151	O15	0.512800	0.648300	0.835500
C151	C15	0.572200	0.598800	0.966700
H151	H15	0.621600	0.666200	0.945000
O161	O16	0.648300	0.135500	0.335500
C161	C16	0.598800	0.026600	0.466700
H161	H16	0.666200	0.044600	0.445000
O171	O17	0.864500	0.512800	0.335500
C171	C17	0.973400	0.572200	0.466700
H171	H17	0.955400	0.621600	0.445000
O181	O18	0.487200	0.351700	0.335500
C181	C18	0.427800	0.401200	0.466700
H181	H18	0.378400	0.333800	0.445000
O191	O19	0.864500	0.351700	0.164500
C191	C19	0.973400	0.401200	0.033300
H191	H19	0.955400	0.333800	0.055000
O201	O20	0.487200	0.135500	0.164500
C201	C20	0.427800	0.026600	0.033300
H201	H20	0.378400	0.044600	0.055000
O211	O21	0.648300	0.512800	0.164500
C211	C21	0.598800	0.572200	0.033300
H211	H21	0.666200	0.621600	0.055000
O221	O22	0.135500	0.648300	0.664500
C221	C22	0.026600	0.598800	0.533300
H221	H22	0.044600	0.666200	0.555000
O231	O23	0.512800	0.864500	0.664500
C231	C23	0.572200	0.973400	0.533300
H231	H23	0.621600	0.955400	0.555000
O241	O24	0.351700	0.487200	0.664500
C241	C24	0.401200	0.427800	0.533300
H241	H24	0.333800	0.378400	0.555000
In11	In1	0.751360	0.248640	0.250000
N11	N1	0.841200	0.158800	0.250000
In21	In2	0.751360	0.502720	0.250000
N21	N2	0.841200	0.682400	0.250000
In31	In3	0.497280	0.248640	0.250000
N31	N3	0.317600	0.158800	0.250000
In41	In4	0.248640	0.751360	0.750000
N41	N4	0.158800	0.841200	0.750000
In51	In5	0.248640	0.497280	0.750000
N51	N5	0.158800	0.317600	0.750000
In61	In6	0.502720	0.751360	0.750000
N61	N6	0.682400	0.841200	0.750000
O251	O25	0.666670	0.333330	0.250000
O261	O26	0.333330	0.666670	0.750000
C251	C25	0.556700	0.113400	0.137800
C261	C26	0.526700	0.053400	0.067800
C271	C27	0.886600	0.443300	0.137800
C281	C28	0.946600	0.473300	0.067800
C291	C29	0.556700	0.443300	0.137800
C301	C30	0.526700	0.473300	0.067800
C311	C31	0.443300	0.886600	0.637800
C321	C32	0.473300	0.946600	0.567800
C331	C33	0.113400	0.556700	0.637800
C341	C34	0.053400	0.526700	0.567800
C351	C35	0.443300	0.556700	0.637800
C361	C36	0.473300	0.526700	0.567800
C371	C37	0.113400	0.556700	0.862200
C381	C38	0.053400	0.526700	0.932200
C391	C39	0.443300	0.886600	0.862200
C401	C40	0.473300	0.946600	0.932200
C411	C41	0.443300	0.556700	0.862200
C421	C42	0.473300	0.526700	0.932200
C431	C43	0.886600	0.443300	0.362200
C441	C44	0.946600	0.473300	0.432200
C451	C45	0.556700	0.113400	0.362200
C461	C46	0.526700	0.053400	0.432200
C471	C47	0.556700	0.443300	0.362200
C481	C48	0.526700	0.473300	0.432200
C491	C49	0.874800	0.125200	0.307000
H251	H25	0.862100	0.137900	0.354500
N71	N7	0.927900	0.072100	0.289300
C501	C50	0.874800	0.749600	0.307000
H261	H26	0.862100	0.724200	0.354500
N81	N8	0.927900	0.855800	0.289300
C511	C51	0.250400	0.125200	0.307000
H271	H27	0.275800	0.137900	0.354500
N91	N9	0.144200	0.072100	0.289300
C521	C52	0.125200	0.874800	0.807000
H281	H28	0.137900	0.862100	0.854500
N101	N10	0.072100	0.927900	0.789300
C531	C53	0.125200	0.250400	0.807000
H291	H29	0.137900	0.275800	0.854500
N111	N11	0.072100	0.144200	0.789300
C541	C54	0.749600	0.874800	0.807000
H301	H30	0.724200	0.862100	0.854500
N121	N12	0.855800	0.927900	0.789300
C551	C55	0.125200	0.874800	0.693000
H311	H31	0.137900	0.862100	0.645500
N131	N13	0.072100	0.927900	0.710700
C561	C56	0.749600	0.874800	0.693000
H321	H32	0.724200	0.862100	0.645500
N141	N14	0.855800	0.927900	0.710700
C571	C57	0.125200	0.250400	0.693000
H331	H33	0.137900	0.275800	0.645500
N151	N15	0.072100	0.144200	0.710700
C581	C58	0.874800	0.125200	0.193000
H341	H34	0.862100	0.137900	0.145500
N161	N16	0.927900	0.072100	0.210700
C591	C59	0.250400	0.125200	0.193000
H351	H35	0.275800	0.137900	0.145500
N171	N17	0.144200	0.072100	0.210700
C601	C60	0.874800	0.749600	0.193000
H361	H36	0.862100	0.724200	0.145500
N181	N18	0.927900	0.855800	0.210700
Ni11	Ni1	0.000000	0.000000	0.360510
Ni21	Ni2	0.000000	0.000000	0.860510
Ni31	Ni3	0.000000	0.000000	0.639490
Ni41	Ni4	0.000000	0.000000	0.139490
