data_HAKTOF_clean_PM
_symmetry_space_group_name_H-M	'P1'
_cell_length_a	13.893000
_cell_length_b	13.893000
_cell_length_c	18.368000
_cell_angle_alpha	90.000000
_cell_angle_beta	90.000000
_cell_angle_gamma	120.000000
_symmetry_Int_Tables_number 1

loop_
_symmetry_equiv_pos_as_xyz
'x,y,z'

loop_
_atom_site_label
_atom_site_type_symbol
_atom_site_fract_x
_atom_site_fract_y
_atom_site_fract_z
O11	O1	0.861000	0.349900	0.334700
C11	C1	0.971600	0.571300	0.465900
O21	O2	0.944000	0.641000	0.442200
O31	O3	0.650100	0.511100	0.334700
C21	C2	0.428700	0.400300	0.465900
O41	O4	0.359000	0.303000	0.442200
O51	O5	0.488900	0.139000	0.334700
C31	C3	0.599700	0.028400	0.465900
O61	O6	0.697000	0.056000	0.442200
O71	O7	0.139000	0.650100	0.834700
C41	C4	0.028400	0.428700	0.965900
O81	O8	0.056000	0.359000	0.942200
O91	O9	0.349900	0.488900	0.834700
C51	C5	0.571300	0.599700	0.965900
O101	O10	0.641000	0.697000	0.942200
O111	O11	0.511100	0.861000	0.834700
C61	C6	0.400300	0.971600	0.965900
O121	O12	0.303000	0.944000	0.942200
O131	O13	0.349900	0.861000	0.665300
C71	C7	0.571300	0.971600	0.534100
O141	O14	0.641000	0.944000	0.557800
O151	O15	0.511100	0.650100	0.665300
C81	C8	0.400300	0.428700	0.534100
O161	O16	0.303000	0.359000	0.557800
O171	O17	0.139000	0.488900	0.665300
C91	C9	0.028400	0.599700	0.534100
O181	O18	0.056000	0.697000	0.557800
O191	O19	0.650100	0.139000	0.165300
C101	C10	0.428700	0.028400	0.034100
O201	O20	0.359000	0.056000	0.057800
O211	O21	0.488900	0.349900	0.165300
C111	C11	0.599700	0.571300	0.034100
O221	O22	0.697000	0.641000	0.057800
O231	O23	0.861000	0.511100	0.165300
C121	C12	0.971600	0.400300	0.034100
O241	O24	0.944000	0.303000	0.057800
O251	O25	0.139000	0.650100	0.665300
C131	C13	0.028400	0.428700	0.534100
O261	O26	0.056000	0.359000	0.557800
O271	O27	0.349900	0.488900	0.665300
C141	C14	0.571300	0.599700	0.534100
O281	O28	0.641000	0.697000	0.557800
O291	O29	0.511100	0.861000	0.665300
C151	C15	0.400300	0.971600	0.534100
O301	O30	0.303000	0.944000	0.557800
O311	O31	0.861000	0.349900	0.165300
C161	C16	0.971600	0.571300	0.034100
O321	O32	0.944000	0.641000	0.057800
O331	O33	0.650100	0.511100	0.165300
C171	C17	0.428700	0.400300	0.034100
O341	O34	0.359000	0.303000	0.057800
O351	O35	0.488900	0.139000	0.165300
C181	C18	0.599700	0.028400	0.034100
O361	O36	0.697000	0.056000	0.057800
O371	O37	0.650100	0.139000	0.334700
C191	C19	0.428700	0.028400	0.465900
O381	O38	0.359000	0.056000	0.442200
O391	O39	0.488900	0.349900	0.334700
C201	C20	0.599700	0.571300	0.465900
O401	O40	0.697000	0.641000	0.442200
O411	O41	0.861000	0.511100	0.334700
C211	C21	0.971600	0.400300	0.465900
O421	O42	0.944000	0.303000	0.442200
O431	O43	0.349900	0.861000	0.834700
C221	C22	0.571300	0.971600	0.965900
O441	O44	0.641000	0.944000	0.942200
O451	O45	0.511100	0.650100	0.834700
C231	C23	0.400300	0.428700	0.965900
O461	O46	0.303000	0.359000	0.942200
O471	O47	0.139000	0.488900	0.834700
C241	C24	0.028400	0.599700	0.965900
O481	O48	0.056000	0.697000	0.942200
In11	In1	0.751520	0.248480	0.250000
N11	N1	0.841000	0.159000	0.250000
In21	In2	0.751520	0.503040	0.250000
N21	N2	0.841000	0.682000	0.250000
In31	In3	0.496960	0.248480	0.250000
N31	N3	0.318000	0.159000	0.250000
In41	In4	0.248480	0.751520	0.750000
N41	N4	0.159000	0.841000	0.750000
In51	In5	0.248480	0.496960	0.750000
N51	N5	0.159000	0.318000	0.750000
In61	In6	0.503040	0.751520	0.750000
N61	N6	0.682000	0.841000	0.750000
O491	O49	0.666670	0.333330	0.250000
O501	O50	0.333330	0.666670	0.750000
C251	C25	0.885400	0.442700	0.361600
C261	C26	0.944900	0.472450	0.432400
C271	C27	0.557300	0.442700	0.361600
C281	C28	0.527550	0.472450	0.432400
C291	C29	0.557300	0.114600	0.361600
C301	C30	0.527550	0.055100	0.432400
C311	C31	0.114600	0.557300	0.861600
C321	C32	0.055100	0.527550	0.932400
C331	C33	0.442700	0.557300	0.861600
C341	C34	0.472450	0.527550	0.932400
C351	C35	0.442700	0.885400	0.861600
C361	C36	0.472450	0.944900	0.932400
C371	C37	0.442700	0.885400	0.638400
C381	C38	0.472450	0.944900	0.567600
C391	C39	0.442700	0.557300	0.638400
C401	C40	0.472450	0.527550	0.567600
C411	C41	0.114600	0.557300	0.638400
C421	C42	0.055100	0.527550	0.567600
C431	C43	0.557300	0.114600	0.138400
C441	C44	0.527550	0.055100	0.067600
C451	C45	0.557300	0.442700	0.138400
C461	C46	0.527550	0.472450	0.067600
C471	C47	0.885400	0.442700	0.138400
C481	C48	0.944900	0.472450	0.067600
C491	C49	0.873700	0.126300	0.303300
H11	H1	0.860700	0.139300	0.350900
N71	N7	0.927600	0.072400	0.288400
C501	C50	0.873700	0.747400	0.303300
H21	H2	0.860700	0.721400	0.350900
N81	N8	0.927600	0.855200	0.288400
C511	C51	0.252600	0.126300	0.303300
H31	H3	0.278600	0.139300	0.350900
N91	N9	0.144800	0.072400	0.288400
C521	C52	0.126300	0.873700	0.803300
H41	H4	0.139300	0.860700	0.850900
N101	N10	0.072400	0.927600	0.788400
C531	C53	0.126300	0.252600	0.803300
H51	H5	0.139300	0.278600	0.850900
N111	N11	0.072400	0.144800	0.788400
C541	C54	0.747400	0.873700	0.803300
H61	H6	0.721400	0.860700	0.850900
N121	N12	0.855200	0.927600	0.788400
C551	C55	0.126300	0.873700	0.696700
H71	H7	0.139300	0.860700	0.649100
N131	N13	0.072400	0.927600	0.711600
C561	C56	0.747400	0.873700	0.696700
H81	H8	0.721400	0.860700	0.649100
N141	N14	0.855200	0.927600	0.711600
C571	C57	0.126300	0.252600	0.696700
H91	H9	0.139300	0.278600	0.649100
N151	N15	0.072400	0.144800	0.711600
C581	C58	0.873700	0.126300	0.196700
H101	H10	0.860700	0.139300	0.149100
N161	N16	0.927600	0.072400	0.211600
C591	C59	0.252600	0.126300	0.196700
H111	H11	0.278600	0.139300	0.149100
N171	N17	0.144800	0.072400	0.211600
C601	C60	0.873700	0.747400	0.196700
H121	H12	0.860700	0.721400	0.149100
N181	N18	0.927600	0.855200	0.211600
Co11	Co1	0.000000	0.000000	0.353230
Co21	Co2	0.000000	0.000000	0.853230
Co31	Co3	0.000000	0.000000	0.646770
Co41	Co4	0.000000	0.000000	0.146770
