data_HAKVAT_clean_PM
_symmetry_space_group_name_H-M	'P1'
_cell_length_a	13.804000
_cell_length_b	13.804000
_cell_length_c	18.435000
_cell_angle_alpha	90.000000
_cell_angle_beta	90.000000
_cell_angle_gamma	120.000000
_symmetry_Int_Tables_number 1

loop_
_symmetry_equiv_pos_as_xyz
'x,y,z'

loop_
_atom_site_label
_atom_site_type_symbol
_atom_site_fract_x
_atom_site_fract_y
_atom_site_fract_z
O11	O1	0.488500	0.350300	0.334600
C11	C1	0.428600	0.402200	0.466200
O21	O2	0.349700	0.305200	0.434900
O31	O3	0.649700	0.138200	0.334600
C21	C2	0.597800	0.026400	0.466200
O41	O4	0.694800	0.044500	0.434900
O51	O5	0.861800	0.511500	0.334600
C31	C3	0.973600	0.571400	0.466200
O61	O6	0.955500	0.650300	0.434900
O71	O7	0.511500	0.649700	0.834600
C41	C4	0.571400	0.597800	0.966200
O81	O8	0.650300	0.694800	0.934900
O91	O9	0.350300	0.861800	0.834600
C51	C5	0.402200	0.973600	0.966200
O101	O10	0.305200	0.955500	0.934900
O111	O11	0.138200	0.488500	0.834600
C61	C6	0.026400	0.428600	0.966200
O121	O12	0.044500	0.349700	0.934900
O131	O13	0.350300	0.488500	0.665400
C71	C7	0.402200	0.428600	0.533800
O141	O14	0.305200	0.349700	0.565100
O151	O15	0.138200	0.649700	0.665400
C81	C8	0.026400	0.597800	0.533800
O161	O16	0.044500	0.694800	0.565100
O171	O17	0.511500	0.861800	0.665400
C91	C9	0.571400	0.973600	0.533800
O181	O18	0.650300	0.955500	0.565100
O191	O19	0.649700	0.511500	0.165400
C101	C10	0.597800	0.571400	0.033800
O201	O20	0.694800	0.650300	0.065100
O211	O21	0.861800	0.350300	0.165400
C111	C11	0.973600	0.402200	0.033800
O221	O22	0.955500	0.305200	0.065100
O231	O23	0.488500	0.138200	0.165400
C121	C12	0.428600	0.026400	0.033800
O241	O24	0.349700	0.044500	0.065100
O251	O25	0.511500	0.649700	0.665400
C131	C13	0.571400	0.597800	0.533800
O261	O26	0.650300	0.694800	0.565100
O271	O27	0.350300	0.861800	0.665400
C141	C14	0.402200	0.973600	0.533800
O281	O28	0.305200	0.955500	0.565100
O291	O29	0.138200	0.488500	0.665400
C151	C15	0.026400	0.428600	0.533800
O301	O30	0.044500	0.349700	0.565100
O311	O31	0.488500	0.350300	0.165400
C161	C16	0.428600	0.402200	0.033800
O321	O32	0.349700	0.305200	0.065100
O331	O33	0.649700	0.138200	0.165400
C171	C17	0.597800	0.026400	0.033800
O341	O34	0.694800	0.044500	0.065100
O351	O35	0.861800	0.511500	0.165400
C181	C18	0.973600	0.571400	0.033800
O361	O36	0.955500	0.650300	0.065100
O371	O37	0.649700	0.511500	0.334600
C191	C19	0.597800	0.571400	0.466200
O381	O38	0.694800	0.650300	0.434900
O391	O39	0.861800	0.350300	0.334600
C201	C20	0.973600	0.402200	0.466200
O401	O40	0.955500	0.305200	0.434900
O411	O41	0.488500	0.138200	0.334600
C211	C21	0.428600	0.026400	0.466200
O421	O42	0.349700	0.044500	0.434900
O431	O43	0.350300	0.488500	0.834600
C221	C22	0.402200	0.428600	0.966200
O441	O44	0.305200	0.349700	0.934900
O451	O45	0.138200	0.649700	0.834600
C231	C23	0.026400	0.597800	0.966200
O461	O46	0.044500	0.694800	0.934900
O471	O47	0.511500	0.861800	0.834600
C241	C24	0.571400	0.973600	0.966200
O481	O48	0.650300	0.955500	0.934900
In11	In1	0.497660	0.248830	0.250000
N11	N1	0.317600	0.158800	0.250000
In21	In2	0.751170	0.248830	0.250000
N21	N2	0.841200	0.158800	0.250000
In31	In3	0.751170	0.502340	0.250000
N31	N3	0.841200	0.682400	0.250000
In41	In4	0.502340	0.751170	0.750000
N41	N4	0.682400	0.841200	0.750000
In51	In5	0.248830	0.751170	0.750000
N51	N5	0.158800	0.841200	0.750000
In61	In6	0.248830	0.497660	0.750000
N61	N6	0.158800	0.317600	0.750000
O491	O49	0.666670	0.333330	0.250000
O501	O50	0.333330	0.666670	0.750000
C251	C25	0.557000	0.443000	0.361300
C261	C26	0.528700	0.471300	0.434000
C271	C27	0.557000	0.114000	0.361300
C281	C28	0.528700	0.057400	0.434000
C291	C29	0.886000	0.443000	0.361300
C301	C30	0.942600	0.471300	0.434000
C311	C31	0.443000	0.557000	0.861300
C321	C32	0.471300	0.528700	0.934000
C331	C33	0.443000	0.886000	0.861300
C341	C34	0.471300	0.942600	0.934000
C351	C35	0.114000	0.557000	0.861300
C361	C36	0.057400	0.528700	0.934000
C371	C37	0.443000	0.557000	0.638700
C381	C38	0.471300	0.528700	0.566000
C391	C39	0.114000	0.557000	0.638700
C401	C40	0.057400	0.528700	0.566000
C411	C41	0.443000	0.886000	0.638700
C421	C42	0.471300	0.942600	0.566000
C431	C43	0.557000	0.443000	0.138700
C441	C44	0.528700	0.471300	0.066000
C451	C45	0.886000	0.443000	0.138700
C461	C46	0.942600	0.471300	0.066000
C471	C47	0.557000	0.114000	0.138700
C481	C48	0.528700	0.057400	0.066000
C491	C49	0.252100	0.126050	0.304600
N71	N7	0.145400	0.072700	0.287400
H11	H1	0.277500	0.138750	0.352200
C501	C50	0.873950	0.126050	0.304600
N81	N8	0.927300	0.072700	0.287400
H21	H2	0.861250	0.138750	0.352200
C511	C51	0.873950	0.747900	0.304600
N91	N9	0.927300	0.854600	0.287400
H31	H3	0.861250	0.722500	0.352200
C521	C52	0.747900	0.873950	0.804600
N101	N10	0.854600	0.927300	0.787400
H41	H4	0.722500	0.861250	0.852200
C531	C53	0.126050	0.873950	0.804600
N111	N11	0.072700	0.927300	0.787400
H51	H5	0.138750	0.861250	0.852200
C541	C54	0.126050	0.252100	0.804600
N121	N12	0.072700	0.145400	0.787400
H61	H6	0.138750	0.277500	0.852200
C551	C55	0.126050	0.252100	0.695400
N131	N13	0.072700	0.145400	0.712600
H71	H7	0.138750	0.277500	0.647800
C561	C56	0.126050	0.873950	0.695400
N141	N14	0.072700	0.927300	0.712600
H81	H8	0.138750	0.861250	0.647800
C571	C57	0.747900	0.873950	0.695400
N151	N15	0.854600	0.927300	0.712600
H91	H9	0.722500	0.861250	0.647800
C581	C58	0.873950	0.747900	0.195400
N161	N16	0.927300	0.854600	0.212600
H101	H10	0.861250	0.722500	0.147800
C591	C59	0.873950	0.126050	0.195400
N171	N17	0.927300	0.072700	0.212600
H111	H11	0.861250	0.138750	0.147800
C601	C60	0.252100	0.126050	0.195400
N181	N18	0.145400	0.072700	0.212600
H121	H12	0.277500	0.138750	0.147800
Co11	Co1	0.000000	0.000000	0.352630
Co21	Co2	0.000000	0.000000	0.852630
Co31	Co3	0.000000	0.000000	0.647370
Co41	Co4	0.000000	0.000000	0.147370
