data_HAKWAU_clean_PM
_symmetry_space_group_name_H-M	'P1'
_cell_length_a	13.169600
_cell_length_b	13.169600
_cell_length_c	14.797300
_cell_angle_alpha	90.000000
_cell_angle_beta	90.000000
_cell_angle_gamma	120.000000
_symmetry_Int_Tables_number 1

loop_
_symmetry_equiv_pos_as_xyz
'x,y,z'

loop_
_atom_site_label
_atom_site_type_symbol
_atom_site_fract_x
_atom_site_fract_y
_atom_site_fract_z
O11	O1	0.882200	0.490100	0.647800
O21	O2	0.762300	0.565100	0.652700
C11	C1	0.927600	0.759100	0.554300
H11	H1	0.875000	0.768100	0.590500
C21	C2	0.927800	0.654200	0.558700
C31	C3	0.848500	0.560100	0.626000
O31	O3	0.509900	0.392100	0.647800
O41	O4	0.434900	0.197200	0.652700
C41	C4	0.240900	0.168500	0.554300
H21	H2	0.231900	0.106900	0.590500
C51	C5	0.345800	0.273600	0.558700
C61	C6	0.439900	0.288400	0.626000
O51	O5	0.607900	0.117800	0.647800
O61	O6	0.802800	0.237700	0.652700
C71	C7	0.831500	0.072400	0.554300
H31	H3	0.893100	0.125000	0.590500
C81	C8	0.726400	0.072200	0.558700
C91	C9	0.711600	0.151500	0.626000
O71	O7	0.882200	0.490100	0.852200
O81	O8	0.762300	0.565100	0.847300
C101	C10	0.927600	0.759100	0.945700
H41	H4	0.875000	0.768100	0.909500
C111	C11	0.927800	0.654200	0.941300
C121	C12	0.848500	0.560100	0.874000
O91	O9	0.509900	0.392100	0.852200
O101	O10	0.434900	0.197200	0.847300
C131	C13	0.240900	0.168500	0.945700
H51	H5	0.231900	0.106900	0.909500
C141	C14	0.345800	0.273600	0.941300
C151	C15	0.439900	0.288400	0.874000
O111	O11	0.607900	0.117800	0.852200
O121	O12	0.802800	0.237700	0.847300
C161	C16	0.831500	0.072400	0.945700
H61	H6	0.893100	0.125000	0.909500
C171	C17	0.726400	0.072200	0.941300
C181	C18	0.711600	0.151500	0.874000
O131	O13	0.490100	0.882200	0.352200
O141	O14	0.565100	0.762300	0.347300
C191	C19	0.759100	0.927600	0.445700
H71	H7	0.768100	0.875000	0.409500
C201	C20	0.654200	0.927800	0.441300
C211	C21	0.560100	0.848500	0.374000
O151	O15	0.392100	0.509900	0.352200
O161	O16	0.197200	0.434900	0.347300
C221	C22	0.168500	0.240900	0.445700
H81	H8	0.106900	0.231900	0.409500
C231	C23	0.273600	0.345800	0.441300
C241	C24	0.288400	0.439900	0.374000
O171	O17	0.117800	0.607900	0.352200
O181	O18	0.237700	0.802800	0.347300
C251	C25	0.072400	0.831500	0.445700
H91	H9	0.125000	0.893100	0.409500
C261	C26	0.072200	0.726400	0.441300
C271	C27	0.151500	0.711600	0.374000
O191	O19	0.490100	0.882200	0.147800
O201	O20	0.565100	0.762300	0.152700
C281	C28	0.759100	0.927600	0.054300
H101	H10	0.768100	0.875000	0.090500
C291	C29	0.654200	0.927800	0.058700
C301	C30	0.560100	0.848500	0.126000
O211	O21	0.392100	0.509900	0.147800
O221	O22	0.197200	0.434900	0.152700
C311	C31	0.168500	0.240900	0.054300
H111	H11	0.106900	0.231900	0.090500
C321	C32	0.273600	0.345800	0.058700
C331	C33	0.288400	0.439900	0.126000
O231	O23	0.117800	0.607900	0.147800
O241	O24	0.237700	0.802800	0.152700
C341	C34	0.072400	0.831500	0.054300
H121	H12	0.125000	0.893100	0.090500
C351	C35	0.072200	0.726400	0.058700
C361	C36	0.151500	0.711600	0.126000
Cu11	Cu1	0.000000	0.000000	0.500000
Cu21	Cu2	0.000000	0.000000	0.000000
Mg11	Mg1	0.834000	0.364650	0.750000
Mg21	Mg2	0.635350	0.469350	0.750000
Mg31	Mg3	0.530650	0.166000	0.750000
Mg41	Mg4	0.364650	0.834000	0.250000
Mg51	Mg5	0.469350	0.635350	0.250000
Mg61	Mg6	0.166000	0.530650	0.250000
O251	O25	0.666670	0.333330	0.750000
O261	O26	0.333330	0.666670	0.250000
N11	N1	0.000000	0.849000	0.500000
C371	C37	0.000000	0.636800	0.500000
H131	H13	0.000000	0.566200	0.500000
N21	N2	0.151000	0.151000	0.500000
C381	C38	0.363200	0.363200	0.500000
H141	H14	0.433800	0.433800	0.500000
N31	N3	0.849000	0.000000	0.500000
C391	C39	0.636800	0.000000	0.500000
H151	H15	0.566200	0.000000	0.500000
N41	N4	0.000000	0.849000	0.000000
C401	C40	0.000000	0.636800	0.000000
H161	H16	0.000000	0.566200	0.000000
N51	N5	0.151000	0.151000	0.000000
C411	C41	0.363200	0.363200	0.000000
H171	H17	0.433800	0.433800	0.000000
N61	N6	0.849000	0.000000	0.000000
C421	C42	0.636800	0.000000	0.000000
H181	H18	0.566200	0.000000	0.000000
