data_HAMLIT_clean_PM
_symmetry_space_group_name_H-M	'P1'
_cell_length_a	12.146700
_cell_length_b	18.109100
_cell_length_c	24.133800
_cell_angle_alpha	107.541000
_cell_angle_beta	98.670000
_cell_angle_gamma	91.332000
_symmetry_Int_Tables_number 1

loop_
_symmetry_equiv_pos_as_xyz
'x,y,z'

loop_
_atom_site_label
_atom_site_type_symbol
_atom_site_fract_x
_atom_site_fract_y
_atom_site_fract_z
C11	C1	0.855500	0.951200	0.778100
H11	H1	0.892100	0.932900	0.744900
C21	C2	0.746700	0.924500	0.775490
C31	C3	0.691800	0.950800	0.823900
H21	H2	0.618100	0.930700	0.822300
C41	C4	0.620500	0.897400	0.682660
C51	C5	0.577000	0.843200	0.623610
C61	C6	0.607000	0.764300	0.609350
C71	C7	0.672100	0.736900	0.650750
C81	C8	0.717000	0.790900	0.710020
C91	C9	0.696900	0.660200	0.636130
H31	H3	0.739300	0.641500	0.664800
C101	C10	0.660100	0.609900	0.579500
H41	H4	0.678800	0.557400	0.569600
C111	C11	0.596500	0.636100	0.537520
C121	C12	0.569200	0.714400	0.551860
C131	C13	0.506200	0.742200	0.509660
C141	C14	0.475500	0.818100	0.525870
H51	H5	0.431300	0.836600	0.497600
C151	C15	0.508500	0.867300	0.582960
H61	H6	0.483300	0.918200	0.593900
C161	C16	0.473800	0.691100	0.448620
C171	C17	0.556700	0.581600	0.477960
C181	C18	0.442400	0.560600	0.380010
C191	C19	0.329500	0.560800	0.361530
H71	H7	0.285800	0.594500	0.386300
C201	C20	0.279700	0.512300	0.307250
C211	C21	0.344800	0.461700	0.271400
H81	H8	0.311100	0.427500	0.234100
C221	C22	0.458700	0.461600	0.290520
C231	C23	0.508600	0.511900	0.344710
H91	H9	0.586700	0.513000	0.357500
C241	C24	0.527400	0.407200	0.252850
C251	C25	0.211000	0.379700	0.704280
C261	C26	0.157100	0.514800	0.284520
C271	C27	0.759900	0.404800	0.181070
H101	H10	0.727100	0.433100	0.213700
C281	C28	0.780700	0.319100	0.100770
C291	C29	0.876700	0.369100	0.122420
C301	C30	0.966800	0.355300	0.090830
C311	C31	0.856300	0.252700	0.022430
H111	H11	0.849900	0.212300	0.986000
C321	C32	0.544900	0.208800	0.223190
H121	H12	0.507500	0.252900	0.241600
C331	C33	0.623300	0.139970	0.145940
C341	C34	0.702500	0.050700	0.090420
H131	H13	0.734300	0.021900	0.057600
C351	C35	0.343700	0.329400	0.080520
H141	H14	0.350800	0.372300	0.115500
C361	C36	0.228000	0.255000	0.995150
C371	C37	0.319800	0.210500	0.982010
C381	C38	0.418800	0.230000	0.021450
C391	C39	0.437400	0.129900	0.949530
H151	H15	0.469900	0.087500	0.925200
C401	C40	0.683500	0.036000	0.925940
C411	C41	0.746000	0.006510	0.874280
C421	C42	0.855100	0.034100	0.877320
H161	H16	0.891400	0.072700	0.911900
C431	C43	0.645800	0.083900	0.173490
C441	C44	0.615400	0.093800	0.229240
C451	C45	0.030800	0.030600	0.832600
C461	C46	0.911600	0.005500	0.830060
C471	C47	0.252900	0.168000	0.796240
C481	C48	0.275300	0.200400	0.748590
C491	C49	0.238900	0.272900	0.748580
H171	H17	0.202200	0.301900	0.779400
C501	C50	0.255900	0.302600	0.704040
C511	C51	0.307400	0.260000	0.658060
H181	H18	0.318200	0.279800	0.626900
C521	C52	0.342600	0.187900	0.658680
C531	C53	0.326600	0.157900	0.703230
H191	H19	0.350700	0.108200	0.702700
C541	C54	0.318200	0.103600	0.557210
C551	C55	0.366700	0.046500	0.510740
C561	C56	0.302500	0.011200	0.457340
H201	H20	0.227600	0.024400	0.450100
C571	C57	0.477400	0.027900	0.521810
C581	C58	0.547700	0.065500	0.576620
C591	C59	0.502900	0.123500	0.623590
C601	C60	0.654900	0.044300	0.587180
H211	H21	0.700100	0.067100	0.624600
N11	N1	0.692000	0.868400	0.721340
N21	N2	0.490600	0.612650	0.437420
N31	N3	0.861600	0.423970	0.174150
N41	N4	0.705800	0.342150	0.138480
N51	N5	0.767600	0.257700	0.050780
N61	N6	0.951700	0.297270	0.039140
N71	N7	0.065800	0.395070	0.107990
H221	H22	0.118300	0.383200	0.085900
H231	H23	0.078900	0.433300	0.141400
N81	N8	0.660100	0.119360	0.092920
N91	N9	0.571200	0.206160	0.169620
N101	N10	0.434300	0.288820	0.072570
N111	N11	0.245600	0.316840	0.045480
N121	N12	0.125200	0.239310	0.963440
H241	H24	0.071000	0.268500	0.975200
H251	H25	0.111700	0.199800	0.930800
N131	N13	0.495200	0.178660	0.000060
N141	N14	0.332500	0.145230	0.936110
N151	N15	0.697400	0.025370	0.136280
N161	N16	0.636200	0.045600	0.260020
H261	H26	0.617100	0.055900	0.295200
H271	H27	0.669300	0.003000	0.245500
N171	N17	0.563800	0.159710	0.252690
N181	N18	0.391700	0.139960	0.610140
O11	O1	0.777000	0.771100	0.746970
O21	O2	0.599100	0.964620	0.697390
O31	O3	0.432300	0.716710	0.409020
O41	O4	0.577800	0.513890	0.463340
O51	O5	0.481740	0.375220	0.199810
O61	O6	0.621300	0.395180	0.274220
O71	O7	0.158800	0.410060	0.746500
O81	O8	0.227200	0.407980	0.665020
O91	O9	0.107000	0.570440	0.309310
O101	O10	0.110280	0.459940	0.240500
O111	O11	0.723750	0.101930	0.962470
O121	O12	0.601300	0.998160	0.928790
O131	O13	0.195800	0.201560	0.833990
O141	O14	0.295700	0.103150	0.796850
O151	O15	0.076900	0.006790	0.788820
O161	O16	0.082940	0.074390	0.881490
O171	O17	0.557500	0.156970	0.671690
O181	O18	0.222600	0.119800	0.550650
Zn11	Zn1	0.555780	0.301740	0.143220
Zn21	Zn2	0.654690	0.164360	0.027060
Zn31	Zn3	0.955690	0.512420	0.240240
Zn41	Zn4	0.236870	0.076230	0.861120
C611	C61	0.144500	0.048800	0.221900
H281	H28	0.107900	0.067100	0.255100
C621	C62	0.253300	0.075500	0.224510
C631	C63	0.308200	0.049200	0.176100
H291	H29	0.381900	0.069300	0.177700
C641	C64	0.379500	0.102600	0.317340
C651	C65	0.423000	0.156800	0.376390
C661	C66	0.393000	0.235700	0.390650
C671	C67	0.327900	0.263100	0.349250
C681	C68	0.283000	0.209100	0.289980
C691	C69	0.303100	0.339800	0.363870
H301	H30	0.260700	0.358500	0.335200
C701	C70	0.339900	0.390100	0.420500
H311	H31	0.321200	0.442600	0.430400
C711	C71	0.403500	0.363900	0.462480
C721	C72	0.430800	0.285600	0.448140
C731	C73	0.493800	0.257800	0.490340
C741	C74	0.524500	0.181900	0.474130
H321	H32	0.568700	0.163400	0.502400
C751	C75	0.491500	0.132700	0.417040
H331	H33	0.516700	0.081800	0.406100
C761	C76	0.526200	0.308900	0.551380
C771	C77	0.443300	0.418400	0.522040
C781	C78	0.557600	0.439400	0.619990
C791	C79	0.670500	0.439200	0.638470
H341	H34	0.714200	0.405500	0.613700
C801	C80	0.720300	0.487700	0.692750
C811	C81	0.655200	0.538300	0.728600
H351	H35	0.688900	0.572500	0.765900
C821	C82	0.541300	0.538400	0.709480
C831	C83	0.491400	0.488100	0.655290
H361	H36	0.413300	0.487000	0.642500
C841	C84	0.472600	0.592800	0.747150
C851	C85	0.789000	0.620300	0.295720
C861	C86	0.842900	0.485200	0.715480
C871	C87	0.240100	0.595200	0.818930
H371	H37	0.272900	0.566900	0.786300
C881	C88	0.219300	0.680900	0.899230
C891	C89	0.123300	0.630900	0.877580
C901	C90	0.033200	0.644700	0.909170
C911	C91	0.143700	0.747300	0.977570
H381	H38	0.150100	0.787700	0.014000
C921	C92	0.455100	0.791200	0.776810
H391	H39	0.492500	0.747100	0.758400
C931	C93	0.376700	0.860030	0.854060
C941	C94	0.297500	0.949300	0.909580
H401	H40	0.265700	0.978100	0.942400
C951	C95	0.656300	0.670600	0.919480
H411	H41	0.649200	0.627700	0.884500
C961	C96	0.772000	0.745000	0.004850
C971	C97	0.680200	0.789500	0.017990
C981	C98	0.581200	0.770000	0.978550
C991	C99	0.562600	0.870100	0.050470
H421	H42	0.530100	0.912500	0.074800
C1001	C100	0.316500	0.964000	0.074060
C1011	C101	0.254000	0.993490	0.125720
C1021	C102	0.144900	0.965900	0.122680
H431	H43	0.108600	0.927300	0.088100
C1031	C103	0.354200	0.916100	0.826510
C1041	C104	0.384600	0.906200	0.770760
C1051	C105	0.969200	0.969400	0.167400
C1061	C106	0.088400	0.994500	0.169940
C1071	C107	0.747100	0.832000	0.203760
C1081	C108	0.724700	0.799600	0.251410
C1091	C109	0.761100	0.727100	0.251420
H441	H44	0.797800	0.698100	0.220600
C1101	C110	0.744100	0.697400	0.295960
C1111	C111	0.692600	0.740000	0.341940
H451	H45	0.681800	0.720200	0.373100
C1121	C112	0.657400	0.812100	0.341320
C1131	C113	0.673400	0.842100	0.296770
H461	H46	0.649300	0.891800	0.297300
C1141	C114	0.681800	0.896400	0.442790
C1151	C115	0.633300	0.953500	0.489260
C1161	C116	0.697500	0.988800	0.542660
H471	H47	0.772400	0.975600	0.549900
C1171	C117	0.522600	0.972100	0.478190
C1181	C118	0.452300	0.934500	0.423380
C1191	C119	0.497100	0.876500	0.376410
C1201	C120	0.345100	0.955700	0.412820
H481	H48	0.299900	0.932900	0.375400
N191	N19	0.308000	0.131600	0.278660
N201	N20	0.509400	0.387350	0.562580
N211	N21	0.138400	0.576030	0.825850
N221	N22	0.294200	0.657850	0.861520
N231	N23	0.232400	0.742300	0.949220
N241	N24	0.048300	0.702730	0.960860
N251	N25	0.934200	0.604930	0.892010
H491	H49	0.881700	0.616800	0.914100
H501	H50	0.921100	0.566700	0.858600
N261	N26	0.339900	0.880640	0.907080
N271	N27	0.428800	0.793840	0.830380
N281	N28	0.565700	0.711180	0.927430
N291	N29	0.754400	0.683160	0.954520
N301	N30	0.874800	0.760690	0.036560
H511	H51	0.929000	0.731500	0.024800
H521	H52	0.888300	0.800200	0.069200
N311	N31	0.504800	0.821340	0.999940
N321	N32	0.667500	0.854770	0.063890
N331	N33	0.302600	0.974630	0.863720
N341	N34	0.363800	0.954400	0.739980
H531	H53	0.382900	0.944100	0.704800
H541	H54	0.330700	0.997000	0.754500
N351	N35	0.436200	0.840290	0.747310
N361	N36	0.608300	0.860040	0.389860
O191	O19	0.223000	0.228900	0.253030
O201	O20	0.400900	0.035380	0.302610
O211	O21	0.567700	0.283290	0.590980
O221	O22	0.422200	0.486110	0.536660
O231	O23	0.518260	0.624780	0.800190
O241	O24	0.378700	0.604820	0.725780
O251	O25	0.841200	0.589940	0.253500
O261	O26	0.772800	0.592020	0.334980
O271	O27	0.893000	0.429560	0.690690
O281	O28	0.889720	0.540060	0.759500
O291	O29	0.276250	0.898070	0.037530
O301	O30	0.398700	0.001840	0.071210
O311	O31	0.804200	0.798440	0.166010
O321	O32	0.704300	0.896850	0.203150
O331	O33	0.923100	0.993210	0.211180
O341	O34	0.917060	0.925610	0.118510
O351	O35	0.442500	0.843030	0.328310
O361	O36	0.777400	0.880200	0.449350
Zn51	Zn5	0.444220	0.698260	0.856780
Zn61	Zn6	0.345310	0.835640	0.972940
Zn71	Zn7	0.044310	0.487580	0.759760
Zn81	Zn8	0.763130	0.923770	0.138880
