data_HANWAW_clean_PM
_symmetry_space_group_name_H-M	'P1'
_cell_length_a	20.015700
_cell_length_b	26.893200
_cell_length_c	26.989000
_cell_angle_alpha	90.000000
_cell_angle_beta	90.000000
_cell_angle_gamma	90.000000
_symmetry_Int_Tables_number 1

loop_
_symmetry_equiv_pos_as_xyz
'x,y,z'

loop_
_atom_site_label
_atom_site_type_symbol
_atom_site_fract_x
_atom_site_fract_y
_atom_site_fract_z
Cu11	Cu1	0.956010	0.463240	0.499860
Cu21	Cu2	0.543990	0.536760	0.999860
Cu31	Cu3	0.043990	0.963240	0.500140
Cu41	Cu4	0.456010	0.036760	0.000140
Cu51	Cu5	0.043990	0.536760	0.500140
Cu61	Cu6	0.456010	0.463240	0.000140
Cu71	Cu7	0.956010	0.036760	0.499860
Cu81	Cu8	0.543990	0.963240	0.999860
Cu91	Cu9	0.053790	0.250000	0.232760
Cu101	Cu10	0.968720	0.250000	0.308650
Cu111	Cu11	0.446210	0.750000	0.732760
Cu121	Cu12	0.531280	0.750000	0.808650
Cu131	Cu13	0.946210	0.750000	0.767240
Cu141	Cu14	0.031280	0.750000	0.691350
Cu151	Cu15	0.553790	0.250000	0.267240
Cu161	Cu16	0.468720	0.250000	0.191350
Cu171	Cu17	0.446760	0.750000	0.267360
Cu181	Cu18	0.533010	0.750000	0.193660
Cu191	Cu19	0.053240	0.250000	0.767360
Cu201	Cu20	0.966990	0.250000	0.693660
Cu211	Cu21	0.553240	0.250000	0.732640
Cu221	Cu22	0.466990	0.250000	0.806340
Cu231	Cu23	0.946760	0.750000	0.232640
Cu241	Cu24	0.033010	0.750000	0.306340
H11	H1	0.328200	0.422700	0.484200
H21	H2	0.087100	0.628800	0.018700
H31	H3	0.078100	0.674500	0.131300
H41	H4	0.214200	0.561300	0.131000
H51	H5	0.145400	0.616100	0.260400
H61	H6	0.354500	0.477700	0.224500
H71	H7	0.137700	0.520100	0.266000
H81	H8	0.165300	0.378600	0.273600
H91	H9	0.048300	0.375000	0.393500
H101	H10	0.159500	0.498000	0.375300
H111	H11	0.355300	0.383000	0.240200
H121	H12	0.296500	0.444900	0.370200
H131	H13	0.438400	0.337300	0.370500
H141	H14	0.457400	0.634800	0.110700
H151	H15	0.344300	0.506000	0.132600
H161	H16	0.319200	0.620100	0.222800
H171	H17	0.171800	0.577300	0.984200
H181	H18	0.412900	0.371200	0.518700
H191	H19	0.421900	0.325500	0.631300
H201	H20	0.285800	0.438700	0.631000
H211	H21	0.354600	0.383900	0.760400
H221	H22	0.145500	0.522300	0.724500
H231	H23	0.362300	0.479900	0.766000
H241	H24	0.334700	0.621400	0.773600
H251	H25	0.451700	0.625000	0.893500
H261	H26	0.340500	0.502000	0.875300
H271	H27	0.144700	0.617000	0.740200
H281	H28	0.203500	0.555100	0.870200
H291	H29	0.061600	0.662700	0.870500
H301	H30	0.042600	0.365200	0.610700
H311	H31	0.155700	0.494000	0.632600
H321	H32	0.180800	0.379900	0.722800
H331	H33	0.671800	0.922700	0.515800
H341	H34	0.912900	0.128800	0.981300
H351	H35	0.921900	0.174500	0.868700
H361	H36	0.785800	0.061300	0.869000
H371	H37	0.854600	0.116100	0.739600
H381	H38	0.645500	0.977700	0.775500
H391	H39	0.862300	0.020100	0.734000
H401	H40	0.834700	0.878600	0.726400
H411	H41	0.951700	0.875000	0.606500
H421	H42	0.840500	0.998000	0.624700
H431	H43	0.644700	0.883000	0.759800
H441	H44	0.703500	0.944900	0.629800
H451	H45	0.561600	0.837300	0.629500
H461	H46	0.542600	0.134800	0.889300
H471	H47	0.655700	0.006000	0.867400
H481	H48	0.680800	0.120100	0.777200
H491	H49	0.828200	0.077300	0.015800
H501	H50	0.587100	0.871200	0.481300
H511	H51	0.578100	0.825500	0.368700
H521	H52	0.714200	0.938700	0.369000
H531	H53	0.645400	0.883900	0.239600
H541	H54	0.854500	0.022300	0.275500
H551	H55	0.637700	0.979900	0.234000
H561	H56	0.665300	0.121400	0.226400
H571	H57	0.548300	0.125000	0.106500
H581	H58	0.659500	0.002000	0.124700
H591	H59	0.855300	0.117000	0.259800
H601	H60	0.796500	0.055100	0.129800
H611	H61	0.938400	0.162700	0.129500
H621	H62	0.957400	0.865200	0.389300
H631	H63	0.844300	0.994000	0.367400
H641	H64	0.819200	0.879900	0.277200
H651	H65	0.671800	0.577300	0.515800
H661	H66	0.912900	0.371200	0.981300
H671	H67	0.921900	0.325500	0.868700
H681	H68	0.785800	0.438700	0.869000
H691	H69	0.854600	0.383900	0.739600
H701	H70	0.645500	0.522300	0.775500
H711	H71	0.862300	0.479900	0.734000
H721	H72	0.834700	0.621400	0.726400
H731	H73	0.951700	0.625000	0.606500
H741	H74	0.840500	0.502000	0.624700
H751	H75	0.644700	0.617000	0.759800
H761	H76	0.703500	0.555100	0.629800
H771	H77	0.561600	0.662700	0.629500
H781	H78	0.542600	0.365200	0.889300
H791	H79	0.655700	0.494000	0.867400
H801	H80	0.680800	0.379900	0.777200
H811	H81	0.828200	0.422700	0.015800
H821	H82	0.587100	0.628800	0.481300
H831	H83	0.578100	0.674500	0.368700
H841	H84	0.714200	0.561300	0.369000
H851	H85	0.645400	0.616100	0.239600
H861	H86	0.854500	0.477700	0.275500
H871	H87	0.637700	0.520100	0.234000
H881	H88	0.665300	0.378600	0.226400
H891	H89	0.548300	0.375000	0.106500
H901	H90	0.659500	0.498000	0.124700
H911	H91	0.855300	0.383000	0.259800
H921	H92	0.796500	0.444900	0.129800
H931	H93	0.938400	0.337300	0.129500
H941	H94	0.957400	0.634800	0.389300
H951	H95	0.844300	0.506000	0.367400
H961	H96	0.819200	0.620100	0.277200
H971	H97	0.328200	0.077300	0.484200
H981	H98	0.087100	0.871200	0.018700
H991	H99	0.078100	0.825500	0.131300
H1001	H100	0.214200	0.938700	0.131000
H1011	H101	0.145400	0.883900	0.260400
H1021	H102	0.354500	0.022300	0.224500
H1031	H103	0.137700	0.979900	0.266000
H1041	H104	0.165300	0.121400	0.273600
H1051	H105	0.048300	0.125000	0.393500
H1061	H106	0.159500	0.002000	0.375300
H1071	H107	0.355300	0.117000	0.240200
H1081	H108	0.296500	0.055100	0.370200
H1091	H109	0.438400	0.162700	0.370500
H1101	H110	0.457400	0.865200	0.110700
H1111	H111	0.344300	0.994000	0.132600
H1121	H112	0.319200	0.879900	0.222800
H1131	H113	0.171800	0.922700	0.984200
H1141	H114	0.412900	0.128800	0.518700
H1151	H115	0.421900	0.174500	0.631300
H1161	H116	0.285800	0.061300	0.631000
H1171	H117	0.354600	0.116100	0.760400
H1181	H118	0.145500	0.977700	0.724500
H1191	H119	0.362300	0.020100	0.766000
H1201	H120	0.334700	0.878600	0.773600
H1211	H121	0.451700	0.875000	0.893500
H1221	H122	0.340500	0.998000	0.875300
H1231	H123	0.144700	0.883000	0.740200
H1241	H124	0.203500	0.944900	0.870200
H1251	H125	0.061600	0.837300	0.870500
H1261	H126	0.042600	0.134800	0.610700
H1271	H127	0.155700	0.006000	0.632600
H1281	H128	0.180800	0.120100	0.722800
C11	C1	0.429700	0.678400	0.187600
C21	C2	0.077400	0.319500	0.307000
C31	C3	0.104200	0.365300	0.328300
C41	C4	0.058600	0.462800	0.432000
C51	C5	0.431900	0.545100	0.066400
C61	C6	0.059300	0.684800	0.225700
C71	C7	0.103900	0.645100	0.201500
C81	C8	0.101300	0.648400	0.147600
C91	C9	0.134300	0.611700	0.121400
C101	C10	0.183200	0.581400	0.148600
C111	C11	0.183900	0.582200	0.200300
C121	C12	0.143900	0.615100	0.225300
C131	C13	0.219200	0.540100	0.227000
C141	C14	0.286900	0.529300	0.216100
C151	C15	0.312300	0.488500	0.236600
C161	C16	0.282200	0.458500	0.275700
C171	C17	0.216700	0.472800	0.285700
C181	C18	0.183500	0.512900	0.259900
C191	C19	0.166100	0.444200	0.317300
C201	C20	0.146400	0.392400	0.302800
C211	C21	0.080100	0.392200	0.373700
C221	C22	0.144200	0.466600	0.363800
C231	C23	0.439600	0.314100	0.271300
C241	C24	0.320100	0.420900	0.300600
C251	C25	0.358600	0.384000	0.275300
C261	C26	0.402300	0.347800	0.298800
C271	C27	0.321500	0.421200	0.351800
C281	C28	0.405700	0.354400	0.351500
C291	C29	0.359600	0.386500	0.374800
C301	C30	0.363700	0.391200	0.434400
C311	C31	0.130900	0.609600	0.072900
C321	C32	0.097700	0.436800	0.389600
C331	C33	0.396500	0.631400	0.171100
C341	C34	0.426000	0.615500	0.128600
C351	C35	0.405000	0.566200	0.113200
C361	C36	0.325100	0.560700	0.179900
C371	C37	0.355300	0.539100	0.141500
C381	C38	0.342000	0.605300	0.195700
C391	C39	0.070300	0.321600	0.687600
C401	C40	0.422600	0.680500	0.807000
C411	C41	0.395800	0.634700	0.828300
C421	C42	0.441400	0.537200	0.932000
C431	C43	0.068100	0.454900	0.566400
C441	C44	0.440700	0.315200	0.725700
C451	C45	0.396100	0.354900	0.701500
C461	C46	0.398700	0.351600	0.647600
C471	C47	0.365700	0.388300	0.621400
C481	C48	0.316800	0.418600	0.648600
C491	C49	0.316100	0.417800	0.700300
C501	C50	0.356100	0.384900	0.725300
C511	C51	0.280800	0.459900	0.727000
C521	C52	0.213100	0.470700	0.716100
C531	C53	0.187700	0.511500	0.736600
C541	C54	0.217800	0.541500	0.775700
C551	C55	0.283300	0.527200	0.785700
C561	C56	0.316500	0.487100	0.759900
C571	C57	0.333900	0.555800	0.817300
C581	C58	0.353600	0.607600	0.802800
C591	C59	0.419900	0.607800	0.873700
C601	C60	0.355800	0.533400	0.863800
C611	C61	0.060400	0.685900	0.771300
C621	C62	0.179900	0.579100	0.800600
C631	C63	0.141400	0.616000	0.775300
C641	C64	0.097700	0.652200	0.798800
C651	C65	0.178500	0.578800	0.851800
C661	C66	0.094300	0.645600	0.851500
C671	C67	0.140400	0.613500	0.874800
C681	C68	0.136300	0.608800	0.934400
C691	C69	0.369100	0.390400	0.572900
C701	C70	0.402300	0.563200	0.889600
C711	C71	0.103500	0.368600	0.671100
C721	C72	0.074000	0.384500	0.628600
C731	C73	0.095000	0.433800	0.613200
C741	C74	0.174900	0.439300	0.679900
C751	C75	0.144700	0.460900	0.641500
C761	C76	0.158000	0.394700	0.695700
C771	C77	0.570300	0.178400	0.812400
C781	C78	0.922600	0.819500	0.693000
C791	C79	0.895800	0.865300	0.671700
C801	C80	0.941400	0.962800	0.568000
C811	C81	0.568100	0.045100	0.933600
C821	C82	0.940700	0.184800	0.774300
C831	C83	0.896100	0.145100	0.798500
C841	C84	0.898700	0.148400	0.852400
C851	C85	0.865700	0.111700	0.878600
C861	C86	0.816800	0.081400	0.851400
C871	C87	0.816100	0.082200	0.799700
C881	C88	0.856100	0.115100	0.774700
C891	C89	0.780800	0.040100	0.773000
C901	C90	0.713100	0.029300	0.783900
C911	C91	0.687700	0.988500	0.763400
C921	C92	0.717800	0.958500	0.724300
C931	C93	0.783300	0.972800	0.714300
C941	C94	0.816500	0.012900	0.740100
C951	C95	0.833900	0.944200	0.682700
C961	C96	0.853600	0.892400	0.697200
C971	C97	0.919900	0.892200	0.626300
C981	C98	0.855800	0.966600	0.636200
C991	C99	0.560400	0.814100	0.728700
C1001	C100	0.679900	0.920900	0.699400
C1011	C101	0.641400	0.884000	0.724700
C1021	C102	0.597700	0.847800	0.701200
C1031	C103	0.678500	0.921200	0.648200
C1041	C104	0.594300	0.854400	0.648500
C1051	C105	0.640400	0.886500	0.625200
C1061	C106	0.636300	0.891200	0.565600
C1071	C107	0.869100	0.109600	0.927100
C1081	C108	0.902300	0.936800	0.610400
C1091	C109	0.603500	0.131400	0.828900
C1101	C110	0.574000	0.115500	0.871400
C1111	C111	0.595000	0.066200	0.886800
C1121	C112	0.674900	0.060700	0.820100
C1131	C113	0.644700	0.039100	0.858500
C1141	C114	0.658000	0.105300	0.804300
C1151	C115	0.929700	0.821600	0.312400
C1161	C116	0.577400	0.180500	0.193000
C1171	C117	0.604200	0.134700	0.171700
C1181	C118	0.558600	0.037200	0.068000
C1191	C119	0.931900	0.954900	0.433600
C1201	C120	0.559300	0.815200	0.274300
C1211	C121	0.603900	0.854900	0.298500
C1221	C122	0.601300	0.851600	0.352400
C1231	C123	0.634300	0.888300	0.378600
C1241	C124	0.683200	0.918600	0.351400
C1251	C125	0.683900	0.917800	0.299700
C1261	C126	0.643900	0.884900	0.274700
C1271	C127	0.719200	0.959900	0.273000
C1281	C128	0.786900	0.970700	0.283900
C1291	C129	0.812300	0.011500	0.263400
C1301	C130	0.782200	0.041500	0.224300
C1311	C131	0.716700	0.027200	0.214300
C1321	C132	0.683500	0.987100	0.240100
C1331	C133	0.666100	0.055800	0.182700
C1341	C134	0.646400	0.107600	0.197200
C1351	C135	0.580100	0.107800	0.126300
C1361	C136	0.644200	0.033400	0.136200
C1371	C137	0.939600	0.185900	0.228700
C1381	C138	0.820100	0.079100	0.199400
C1391	C139	0.858600	0.116000	0.224700
C1401	C140	0.902300	0.152200	0.201200
C1411	C141	0.821500	0.078800	0.148200
C1421	C142	0.905700	0.145600	0.148500
C1431	C143	0.859600	0.113500	0.125200
C1441	C144	0.863700	0.108800	0.065600
C1451	C145	0.630900	0.890400	0.427100
C1461	C146	0.597700	0.063200	0.110400
C1471	C147	0.896500	0.868600	0.328900
C1481	C148	0.926000	0.884500	0.371400
C1491	C149	0.905000	0.933800	0.386800
C1501	C150	0.825100	0.939300	0.320100
C1511	C151	0.855300	0.960900	0.358500
C1521	C152	0.842000	0.894700	0.304300
C1531	C153	0.570300	0.321600	0.812400
C1541	C154	0.922600	0.680500	0.693000
C1551	C155	0.895800	0.634700	0.671700
C1561	C156	0.941400	0.537200	0.568000
C1571	C157	0.568100	0.454900	0.933600
C1581	C158	0.940700	0.315200	0.774300
C1591	C159	0.896100	0.354900	0.798500
C1601	C160	0.898700	0.351600	0.852400
C1611	C161	0.865700	0.388300	0.878600
C1621	C162	0.816800	0.418600	0.851400
C1631	C163	0.816100	0.417800	0.799700
C1641	C164	0.856100	0.384900	0.774700
C1651	C165	0.780800	0.459900	0.773000
C1661	C166	0.713100	0.470700	0.783900
C1671	C167	0.687700	0.511500	0.763400
C1681	C168	0.717800	0.541500	0.724300
C1691	C169	0.783300	0.527200	0.714300
C1701	C170	0.816500	0.487100	0.740100
C1711	C171	0.833900	0.555800	0.682700
C1721	C172	0.853600	0.607600	0.697200
C1731	C173	0.919900	0.607800	0.626300
C1741	C174	0.855800	0.533400	0.636200
C1751	C175	0.560400	0.685900	0.728700
C1761	C176	0.679900	0.579100	0.699400
C1771	C177	0.641400	0.616000	0.724700
C1781	C178	0.597700	0.652200	0.701200
C1791	C179	0.678500	0.578800	0.648200
C1801	C180	0.594300	0.645600	0.648500
C1811	C181	0.640400	0.613500	0.625200
C1821	C182	0.636300	0.608800	0.565600
C1831	C183	0.869100	0.390400	0.927100
C1841	C184	0.902300	0.563200	0.610400
C1851	C185	0.603500	0.368600	0.828900
C1861	C186	0.574000	0.384500	0.871400
C1871	C187	0.595000	0.433800	0.886800
C1881	C188	0.674900	0.439300	0.820100
C1891	C189	0.644700	0.460900	0.858500
C1901	C190	0.658000	0.394700	0.804300
C1911	C191	0.929700	0.678400	0.312400
C1921	C192	0.577400	0.319500	0.193000
C1931	C193	0.604200	0.365300	0.171700
C1941	C194	0.558600	0.462800	0.068000
C1951	C195	0.931900	0.545100	0.433600
C1961	C196	0.559300	0.684800	0.274300
C1971	C197	0.603900	0.645100	0.298500
C1981	C198	0.601300	0.648400	0.352400
C1991	C199	0.634300	0.611700	0.378600
C2001	C200	0.683200	0.581400	0.351400
C2011	C201	0.683900	0.582200	0.299700
C2021	C202	0.643900	0.615100	0.274700
C2031	C203	0.719200	0.540100	0.273000
C2041	C204	0.786900	0.529300	0.283900
C2051	C205	0.812300	0.488500	0.263400
C2061	C206	0.782200	0.458500	0.224300
C2071	C207	0.716700	0.472800	0.214300
C2081	C208	0.683500	0.512900	0.240100
C2091	C209	0.666100	0.444200	0.182700
C2101	C210	0.646400	0.392400	0.197200
C2111	C211	0.580100	0.392200	0.126300
C2121	C212	0.644200	0.466600	0.136200
C2131	C213	0.939600	0.314100	0.228700
C2141	C214	0.820100	0.420900	0.199400
C2151	C215	0.858600	0.384000	0.224700
C2161	C216	0.902300	0.347800	0.201200
C2171	C217	0.821500	0.421200	0.148200
C2181	C218	0.905700	0.354400	0.148500
C2191	C219	0.859600	0.386500	0.125200
C2201	C220	0.863700	0.391200	0.065600
C2211	C221	0.630900	0.609600	0.427100
C2221	C222	0.597700	0.436800	0.110400
C2231	C223	0.896500	0.631400	0.328900
C2241	C224	0.926000	0.615500	0.371400
C2251	C225	0.905000	0.566200	0.386800
C2261	C226	0.825100	0.560700	0.320100
C2271	C227	0.855300	0.539100	0.358500
C2281	C228	0.842000	0.605300	0.304300
C2291	C229	0.429700	0.821600	0.187600
C2301	C230	0.077400	0.180500	0.307000
C2311	C231	0.104200	0.134700	0.328300
C2321	C232	0.058600	0.037200	0.432000
C2331	C233	0.431900	0.954900	0.066400
C2341	C234	0.059300	0.815200	0.225700
C2351	C235	0.103900	0.854900	0.201500
C2361	C236	0.101300	0.851600	0.147600
C2371	C237	0.134300	0.888300	0.121400
C2381	C238	0.183200	0.918600	0.148600
C2391	C239	0.183900	0.917800	0.200300
C2401	C240	0.143900	0.884900	0.225300
C2411	C241	0.219200	0.959900	0.227000
C2421	C242	0.286900	0.970700	0.216100
C2431	C243	0.312300	0.011500	0.236600
C2441	C244	0.282200	0.041500	0.275700
C2451	C245	0.216700	0.027200	0.285700
C2461	C246	0.183500	0.987100	0.259900
C2471	C247	0.166100	0.055800	0.317300
C2481	C248	0.146400	0.107600	0.302800
C2491	C249	0.080100	0.107800	0.373700
C2501	C250	0.144200	0.033400	0.363800
C2511	C251	0.439600	0.185900	0.271300
C2521	C252	0.320100	0.079100	0.300600
C2531	C253	0.358600	0.116000	0.275300
C2541	C254	0.402300	0.152200	0.298800
C2551	C255	0.321500	0.078800	0.351800
C2561	C256	0.405700	0.145600	0.351500
C2571	C257	0.359600	0.113500	0.374800
C2581	C258	0.363700	0.108800	0.434400
C2591	C259	0.130900	0.890400	0.072900
C2601	C260	0.097700	0.063200	0.389600
C2611	C261	0.396500	0.868600	0.171100
C2621	C262	0.426000	0.884500	0.128600
C2631	C263	0.405000	0.933800	0.113200
C2641	C264	0.325100	0.939300	0.179900
C2651	C265	0.355300	0.960900	0.141500
C2661	C266	0.342000	0.894700	0.195700
C2671	C267	0.070300	0.178400	0.687600
C2681	C268	0.422600	0.819500	0.807000
C2691	C269	0.395800	0.865300	0.828300
C2701	C270	0.441400	0.962800	0.932000
C2711	C271	0.068100	0.045100	0.566400
C2721	C272	0.440700	0.184800	0.725700
C2731	C273	0.396100	0.145100	0.701500
C2741	C274	0.398700	0.148400	0.647600
C2751	C275	0.365700	0.111700	0.621400
C2761	C276	0.316800	0.081400	0.648600
C2771	C277	0.316100	0.082200	0.700300
C2781	C278	0.356100	0.115100	0.725300
C2791	C279	0.280800	0.040100	0.727000
C2801	C280	0.213100	0.029300	0.716100
C2811	C281	0.187700	0.988500	0.736600
C2821	C282	0.217800	0.958500	0.775700
C2831	C283	0.283300	0.972800	0.785700
C2841	C284	0.316500	0.012900	0.759900
C2851	C285	0.333900	0.944200	0.817300
C2861	C286	0.353600	0.892400	0.802800
C2871	C287	0.419900	0.892200	0.873700
C2881	C288	0.355800	0.966600	0.863800
C2891	C289	0.060400	0.814100	0.771300
C2901	C290	0.179900	0.920900	0.800600
C2911	C291	0.141400	0.884000	0.775300
C2921	C292	0.097700	0.847800	0.798800
C2931	C293	0.178500	0.921200	0.851800
C2941	C294	0.094300	0.854400	0.851500
C2951	C295	0.140400	0.886500	0.874800
C2961	C296	0.136300	0.891200	0.934400
C2971	C297	0.369100	0.109600	0.572900
C2981	C298	0.402300	0.936800	0.889600
C2991	C299	0.103500	0.131400	0.671100
C3001	C300	0.074000	0.115500	0.628600
C3011	C301	0.095000	0.066200	0.613200
C3021	C302	0.174900	0.060700	0.679900
C3031	C303	0.144700	0.039100	0.641500
C3041	C304	0.158000	0.105300	0.695700
O11	O1	0.401500	0.696500	0.229500
O21	O2	0.475600	0.698100	0.164400
O31	O3	0.007200	0.699200	0.206800
O41	O4	0.081500	0.697400	0.269600
O51	O5	0.026900	0.300800	0.332400
O61	O6	0.101400	0.302200	0.269400
O71	O7	0.423000	0.300200	0.229500
O81	O8	0.492400	0.298700	0.293700
O91	O9	0.016000	0.434200	0.449400
O101	O10	0.487400	0.562800	0.051100
O111	O11	0.412800	0.503100	0.051800
O121	O12	0.334100	0.428100	0.453800
O131	O13	0.397500	0.354300	0.452900
O141	O14	0.184400	0.590500	0.045600
O151	O15	0.077100	0.623200	0.048400
O161	O16	0.085900	0.495800	0.447500
O171	O17	0.098500	0.303500	0.729500
O181	O18	0.024400	0.301900	0.664400
O191	O19	0.492800	0.300800	0.706800
O201	O20	0.418500	0.302600	0.769600
O211	O21	0.473100	0.699200	0.832400
O221	O22	0.398600	0.697800	0.769400
O231	O23	0.077000	0.699800	0.729500
O241	O24	0.007600	0.701300	0.793700
O251	O25	0.484000	0.565800	0.949400
O261	O26	0.012600	0.437200	0.551100
O271	O27	0.087200	0.496900	0.551800
O281	O28	0.165900	0.571900	0.953800
O291	O29	0.102500	0.645700	0.952900
O301	O30	0.315600	0.409500	0.545600
O311	O31	0.422900	0.376800	0.548400
O321	O32	0.414100	0.504200	0.947500
O331	O33	0.598500	0.196500	0.770500
O341	O34	0.524400	0.198100	0.835600
O351	O35	0.992800	0.199200	0.793200
O361	O36	0.918500	0.197400	0.730400
O371	O37	0.973100	0.800800	0.667600
O381	O38	0.898600	0.802200	0.730600
O391	O39	0.577000	0.800200	0.770500
O401	O40	0.507600	0.798700	0.706300
O411	O41	0.984000	0.934200	0.550600
O421	O42	0.512600	0.062800	0.948900
O431	O43	0.587200	0.003100	0.948200
O441	O44	0.665900	0.928100	0.546200
O451	O45	0.602500	0.854300	0.547100
O461	O46	0.815600	0.090500	0.954400
O471	O47	0.922900	0.123200	0.951600
O481	O48	0.914100	0.995800	0.552500
O491	O49	0.901500	0.803500	0.270500
O501	O50	0.975600	0.801900	0.335600
O511	O51	0.507200	0.800800	0.293200
O521	O52	0.581500	0.802600	0.230400
O531	O53	0.526900	0.199200	0.167600
O541	O54	0.601400	0.197800	0.230600
O551	O55	0.923000	0.199800	0.270500
O561	O56	0.992400	0.201300	0.206300
O571	O57	0.516000	0.065800	0.050600
O581	O58	0.987400	0.937200	0.448900
O591	O59	0.912800	0.996900	0.448200
O601	O60	0.834100	0.071900	0.046200
O611	O61	0.897500	0.145700	0.047100
O621	O62	0.684400	0.909500	0.454400
O631	O63	0.577100	0.876800	0.451600
O641	O64	0.585900	0.004200	0.052500
O651	O65	0.598500	0.303500	0.770500
O661	O66	0.524400	0.301900	0.835600
O671	O67	0.992800	0.300800	0.793200
O681	O68	0.918500	0.302600	0.730400
O691	O69	0.973100	0.699200	0.667600
O701	O70	0.898600	0.697800	0.730600
O711	O71	0.577000	0.699800	0.770500
O721	O72	0.507600	0.701300	0.706300
O731	O73	0.984000	0.565800	0.550600
O741	O74	0.512600	0.437200	0.948900
O751	O75	0.587200	0.496900	0.948200
O761	O76	0.665900	0.571900	0.546200
O771	O77	0.602500	0.645700	0.547100
O781	O78	0.815600	0.409500	0.954400
O791	O79	0.922900	0.376800	0.951600
O801	O80	0.914100	0.504200	0.552500
O811	O81	0.901500	0.696500	0.270500
O821	O82	0.975600	0.698100	0.335600
O831	O83	0.507200	0.699200	0.293200
O841	O84	0.581500	0.697400	0.230400
O851	O85	0.526900	0.300800	0.167600
O861	O86	0.601400	0.302200	0.230600
O871	O87	0.923000	0.300200	0.270500
O881	O88	0.992400	0.298700	0.206300
O891	O89	0.516000	0.434200	0.050600
O901	O90	0.987400	0.562800	0.448900
O911	O91	0.912800	0.503100	0.448200
O921	O92	0.834100	0.428100	0.046200
O931	O93	0.897500	0.354300	0.047100
O941	O94	0.684400	0.590500	0.454400
O951	O95	0.577100	0.623200	0.451600
O961	O96	0.585900	0.495800	0.052500
O971	O97	0.401500	0.803500	0.229500
O981	O98	0.475600	0.801900	0.164400
O991	O99	0.007200	0.800800	0.206800
O1001	O100	0.081500	0.802600	0.269600
O1011	O101	0.026900	0.199200	0.332400
O1021	O102	0.101400	0.197800	0.269400
O1031	O103	0.423000	0.199800	0.229500
O1041	O104	0.492400	0.201300	0.293700
O1051	O105	0.016000	0.065800	0.449400
O1061	O106	0.487400	0.937200	0.051100
O1071	O107	0.412800	0.996900	0.051800
O1081	O108	0.334100	0.071900	0.453800
O1091	O109	0.397500	0.145700	0.452900
O1101	O110	0.184400	0.909500	0.045600
O1111	O111	0.077100	0.876800	0.048400
O1121	O112	0.085900	0.004200	0.447500
O1131	O113	0.098500	0.196500	0.729500
O1141	O114	0.024400	0.198100	0.664400
O1151	O115	0.492800	0.199200	0.706800
O1161	O116	0.418500	0.197400	0.769600
O1171	O117	0.473100	0.800800	0.832400
O1181	O118	0.398600	0.802200	0.769400
O1191	O119	0.077000	0.800200	0.729500
O1201	O120	0.007600	0.798700	0.793700
O1211	O121	0.484000	0.934200	0.949400
O1221	O122	0.012600	0.062800	0.551100
O1231	O123	0.087200	0.003100	0.551800
O1241	O124	0.165900	0.928100	0.953800
O1251	O125	0.102500	0.854300	0.952900
O1261	O126	0.315600	0.090500	0.545600
O1271	O127	0.422900	0.123200	0.548400
O1281	O128	0.414100	0.995800	0.947500
