data_HAOAER_clean_PM
_symmetry_space_group_name_H-M	'P1'
_cell_length_a	6.173000
_cell_length_b	9.045000
_cell_length_c	14.654000
_cell_angle_alpha	90.000000
_cell_angle_beta	93.920000
_cell_angle_gamma	90.000000
_symmetry_Int_Tables_number 1

loop_
_symmetry_equiv_pos_as_xyz
'x,y,z'

loop_
_atom_site_label
_atom_site_type_symbol
_atom_site_fract_x
_atom_site_fract_y
_atom_site_fract_z
C11	C1	0.903500	0.768900	0.185900
C21	C2	0.885300	0.752100	0.081500
C31	C3	0.592800	0.219200	0.105700
C41	C4	0.715600	0.355400	0.084200
Er11	Er1	0.076600	0.080000	0.114400
O11	O1	0.860400	0.659400	0.234400
O21	O2	0.967500	0.893000	0.215100
O31	O3	0.955200	0.877500	0.036400
O41	O4	0.392600	0.226700	0.101800
O51	O5	0.706000	0.115000	0.124700
O61	O6	0.945500	0.338800	0.106400
C51	C5	0.096500	0.268900	0.314100
C61	C6	0.114700	0.252100	0.418500
C71	C7	0.407200	0.719200	0.394300
C81	C8	0.284400	0.855400	0.415800
Er21	Er2	0.923400	0.580000	0.385600
O71	O7	0.139600	0.159400	0.265600
O81	O8	0.032500	0.393000	0.284900
O91	O9	0.044800	0.377500	0.463600
O101	O10	0.607400	0.726700	0.398200
O111	O11	0.294000	0.615000	0.375300
O121	O12	0.054500	0.838800	0.393600
C91	C9	0.096500	0.231100	0.814100
C101	C10	0.114700	0.247900	0.918500
C111	C11	0.407200	0.780800	0.894300
C121	C12	0.284400	0.644600	0.915800
Er31	Er3	0.923400	0.920000	0.885600
O131	O13	0.139600	0.340600	0.765600
O141	O14	0.032500	0.107000	0.784900
O151	O15	0.044800	0.122500	0.963600
O161	O16	0.607400	0.773300	0.898200
O171	O17	0.294000	0.885000	0.875300
O181	O18	0.054500	0.661200	0.893600
C131	C13	0.903500	0.731100	0.685900
C141	C14	0.885300	0.747900	0.581500
C151	C15	0.592800	0.280800	0.605700
C161	C16	0.715600	0.144600	0.584200
Er41	Er4	0.076600	0.420000	0.614400
O191	O19	0.860400	0.840600	0.734400
O201	O20	0.967500	0.607000	0.715100
O211	O21	0.955200	0.622500	0.536400
O221	O22	0.392600	0.273300	0.601800
O231	O23	0.706000	0.385000	0.624700
O241	O24	0.945500	0.161200	0.606400
