data_HAPBAE_clean_PM
_symmetry_space_group_name_H-M	'P1'
_cell_length_a	13.543000
_cell_length_b	25.778000
_cell_length_c	26.753000
_cell_angle_alpha	98.786000
_cell_angle_beta	103.609000
_cell_angle_gamma	103.991000
_symmetry_Int_Tables_number 1

loop_
_symmetry_equiv_pos_as_xyz
'x,y,z'

loop_
_atom_site_label
_atom_site_type_symbol
_atom_site_fract_x
_atom_site_fract_y
_atom_site_fract_z
Ti11	Ti1	0.481720	0.377930	0.450770
Ti21	Ti2	0.337080	0.424120	0.509160
Ti31	Ti3	0.632950	0.465130	0.548830
Ti41	Ti4	0.310130	0.041860	0.947560
Ti51	Ti5	0.510380	0.026890	0.918680
Ti61	Ti6	0.498900	0.096940	0.049510
Ti71	Ti7	0.616650	0.074970	0.570240
Ti81	Ti8	0.712830	0.057820	0.477300
Ti91	Ti9	0.636480	0.942380	0.501070
Ti101	Ti10	0.940910	0.532940	0.890690
Ti111	Ti11	0.150620	0.532510	0.968110
Ti121	Ti12	0.899210	0.416680	0.916860
Cu11	Cu1	0.329280	0.259040	0.707570
Cu21	Cu2	0.316280	0.257600	0.805090
Cu31	Cu3	0.158830	0.192600	0.717010
Cu41	Cu4	0.181110	0.296450	0.745030
I11	I1	0.348210	0.171210	0.745690
I21	I2	0.130380	0.249000	0.642960
I31	I3	0.396550	0.351160	0.780290
I41	I4	0.112910	0.233620	0.806110
P11	P1	0.492700	0.517990	0.610710
P21	P2	0.711000	0.079780	0.021940
P31	P3	0.114500	0.415630	0.000070
P41	P4	0.530100	0.957590	0.597060
N11	N1	0.414100	0.264000	0.655000
N21	N2	0.413800	0.259900	0.875800
N31	N3	0.058900	0.115400	0.689300
N41	N4	0.130500	0.364100	0.748200
C11	C1	0.403800	0.296100	0.620600
H11	H1	0.361700	0.320200	0.624400
C21	C2	0.449800	0.296600	0.579800
C31	C3	0.506100	0.260500	0.572400
H21	H2	0.540000	0.260500	0.545000
C41	C4	0.514000	0.223000	0.605300
H31	H3	0.549000	0.195800	0.599300
C51	C5	0.470000	0.227000	0.646000
H41	H4	0.478100	0.203000	0.669400
C61	C6	0.431200	0.332600	0.542300
C71	C7	0.485800	0.529500	0.677200
C81	C8	0.509800	0.583500	0.706300
H51	H5	0.528500	0.613500	0.690400
C91	C9	0.506000	0.592800	0.757400
H61	H6	0.528700	0.629300	0.777800
C101	C10	0.471100	0.550100	0.779400
H71	H7	0.460300	0.556700	0.813400
C111	C11	0.452800	0.501200	0.753700
H81	H8	0.435000	0.471700	0.770400
C121	C12	0.458100	0.489500	0.701700
H91	H9	0.441600	0.452400	0.683700
C131	C13	0.234800	0.342500	0.402800
C141	C14	0.197400	0.283400	0.405700
H101	H10	0.132900	0.264500	0.376700
H111	H11	0.182100	0.281400	0.439500
H121	H12	0.252800	0.265700	0.402700
C151	C15	0.232000	0.359200	0.355700
H131	H13	0.270200	0.398400	0.363200
H141	H14	0.158500	0.352900	0.335400
H151	H15	0.266800	0.338200	0.335300
C161	C16	0.722900	0.397100	0.470800
C171	C17	0.746300	0.351100	0.490000
H161	H16	0.807600	0.344200	0.479800
H171	H17	0.684700	0.318600	0.474900
H181	H18	0.762500	0.359100	0.528600
C181	C18	0.793000	0.442100	0.465900
H191	H19	0.755700	0.469100	0.456700
H201	H20	0.825000	0.431700	0.438200
H211	H21	0.848400	0.458100	0.499400
C191	C19	0.500200	0.301500	0.901800
H221	H22	0.511900	0.333700	0.888200
C201	C20	0.571400	0.300900	0.945700
H231	H23	0.631200	0.331900	0.962500
C211	C21	0.556500	0.253700	0.966600
H241	H24	0.606700	0.251800	0.997300
C221	C22	0.468200	0.210700	0.941900
C231	C23	0.400900	0.214500	0.896300
H251	H25	0.341900	0.183600	0.878100
C241	C24	0.443200	0.159900	0.962500
C251	C25	0.833800	0.131300	0.032100
C261	C26	0.862000	0.159800	0.000500
H261	H26	0.812300	0.151400	0.966600
C271	C27	0.955000	0.201900	0.008500
H271	H27	0.963300	0.221000	0.981400
C281	C28	0.025000	0.214200	0.050200
C291	C29	0.989000	0.201500	0.089100
H281	H28	0.020200	0.223700	0.123700
C301	C30	0.901000	0.152200	0.078000
H291	H29	0.892600	0.134500	0.106100
C311	C31	0.286600	0.988000	0.834500
C321	C32	0.294000	0.935800	0.815800
H301	H30	0.302500	0.916700	0.844800
H311	H31	0.354600	0.939100	0.801600
H321	H32	0.228500	0.915000	0.788000
C331	C33	0.280600	0.026600	0.801000
H331	H33	0.237000	0.007100	0.765200
H341	H34	0.352200	0.045200	0.800100
H351	H35	0.248600	0.053800	0.814900
C341	C34	0.261400	0.086500	0.047000
C351	C35	0.255000	0.145700	0.051400
H361	H36	0.203800	0.151200	0.070500
H371	H37	0.232800	0.152400	0.016000
H381	H38	0.325200	0.171200	0.070500
C361	C36	0.237000	0.053900	0.077800
H391	H39	0.258900	0.020800	0.069100
H401	H40	0.160700	0.043900	0.073000
H411	H41	0.274800	0.072700	0.114600
C371	C37	0.065400	0.080100	0.719400
H421	H42	0.112800	0.092700	0.754000
C381	C38	0.007000	0.025400	0.703500
H431	H43	0.015600	0.000700	0.726100
C391	C39	0.936200	0.007800	0.654000
H441	H44	0.894300	0.970600	0.642100
C401	C40	0.925700	0.044500	0.621300
C411	C41	0.989600	0.097300	0.641200
H451	H45	0.984400	0.122900	0.619300
C421	C42	0.846400	0.026700	0.569300
C431	C43	0.558900	0.935000	0.656500
C441	C44	0.660000	0.941200	0.683900
H461	H46	0.717900	0.955900	0.670900
C451	C45	0.677000	0.924400	0.734600
H471	H47	0.747100	0.931000	0.756500
C461	C46	0.598000	0.900900	0.749200
H481	H48	0.609600	0.884400	0.778700
C471	C47	0.505000	0.899100	0.725200
H491	H49	0.448500	0.886500	0.739900
C481	C48	0.484000	0.914900	0.679200
H501	H50	0.412300	0.911500	0.661800
C491	C49	0.717200	0.951000	0.403300
H511	H51	0.682700	0.911400	0.400700
C501	C50	0.657000	0.964600	0.353400
H521	H52	0.581700	0.958100	0.352600
H531	H53	0.661800	0.941100	0.322300
H541	H54	0.687200	0.003100	0.353400
C511	C51	0.829600	0.956400	0.411500
H551	H55	0.840000	0.935900	0.380100
H561	H56	0.855600	0.941600	0.442000
H571	H57	0.869100	0.995100	0.417900
C521	C52	0.717300	0.175300	0.531400
H581	H58	0.687900	0.187700	0.560600
C531	C53	0.657600	0.188900	0.487000
H591	H59	0.582800	0.168000	0.478700
H601	H60	0.684300	0.180000	0.456700
H611	H61	0.664500	0.228300	0.494800
C541	C54	0.833400	0.203800	0.552000
H621	H62	0.845400	0.243400	0.555100
H631	H63	0.870000	0.190200	0.527700
H641	H64	0.861000	0.196700	0.586800
C551	C55	0.078600	0.379000	0.782300
H651	H65	0.054200	0.354000	0.802500
C561	C56	0.059700	0.429600	0.788900
C571	C57	0.095100	0.465800	0.760200
H661	H66	0.083400	0.500900	0.764500
C581	C58	0.147800	0.450600	0.724900
H671	H67	0.173400	0.475000	0.704500
C591	C59	0.162600	0.399100	0.720000
H681	H68	0.197500	0.388300	0.695000
C601	C60	0.003400	0.444500	0.829000
C611	C61	0.188100	0.366500	0.001500
C621	C62	0.185900	0.333100	0.957800
H691	H69	0.146400	0.336400	0.924600
C631	C63	0.239300	0.293800	0.959200
H701	H70	0.231800	0.268700	0.927600
C641	C64	0.300400	0.291100	0.004100
H711	H71	0.343300	0.266800	0.004000
C651	C65	0.303900	0.322400	0.051200
H721	H72	0.344400	0.318700	0.083900
C661	C66	0.244800	0.360200	0.048600
H731	H73	0.244100	0.382000	0.080500
C671	C67	0.142700	0.633100	0.917100
C681	C68	0.181000	0.630900	0.871900
H741	H74	0.217900	0.668000	0.870300
H751	H75	0.121200	0.614500	0.840000
H761	H76	0.230300	0.608500	0.874100
C691	C69	0.141000	0.674400	0.952800
H771	H77	0.121600	0.660500	0.982400
H781	H78	0.087900	0.691700	0.936800
H791	H79	0.210700	0.701400	0.965600
C701	C70	0.714000	0.447100	0.849200
H801	H80	0.688500	0.410600	0.857600
C711	C71	0.654000	0.478800	0.872100
H811	H81	0.674500	0.482900	0.910500
H821	H82	0.578000	0.459800	0.857600
H831	H83	0.669000	0.515100	0.863800
C721	C72	0.698500	0.432600	0.792800
H841	H84	0.739900	0.407500	0.785300
H851	H85	0.722200	0.465900	0.780100
H861	H86	0.623100	0.414700	0.774900
O11	O1	0.473300	0.329300	0.505700
O21	O2	0.374200	0.362900	0.550300
O31	O3	0.587000	0.496300	0.608400
O41	O4	0.388800	0.477600	0.577300
O51	O5	0.633000	0.408300	0.486600
O61	O6	0.509500	0.574400	0.597100
O71	O7	0.330300	0.370700	0.443900
O81	O8	0.308500	0.474600	0.469200
O91	O9	0.488100	0.436500	0.510000
O101	O10	0.365300	0.120300	0.934900
O111	O11	0.504700	0.160400	0.006100
O121	O12	0.656500	0.065200	0.963500
O131	O13	0.647500	0.104400	0.053800
O141	O14	0.353200	0.013500	0.886600
O151	O15	0.338700	0.079500	0.021600
O161	O16	0.485100	0.040800	0.085600
O171	O17	0.461700	0.050900	0.977100
O181	O18	0.739900	0.031300	0.040800
O191	O19	0.493400	0.087500	0.550400
O201	O20	0.785600	0.979000	0.559000
O211	O21	0.843200	0.061100	0.540500
O221	O22	0.410600	0.942900	0.577500
O231	O23	0.581400	0.019200	0.610400
O241	O24	0.576500	0.927900	0.559100
O251	O25	0.692800	0.117000	0.526000
O261	O26	0.701500	0.980400	0.450600
O271	O27	0.629800	0.019300	0.518900
O281	O28	0.972600	0.408900	0.853300
O291	O29	0.991300	0.491300	0.833500
O301	O30	0.102800	0.427700	0.055300
O311	O31	0.180200	0.466900	0.988300
O321	O32	0.009100	0.389900	0.958400
O331	O33	0.826200	0.464600	0.878100
O341	O34	0.090100	0.578900	0.921200
O351	O35	0.166000	0.573300	0.029600
O361	O36	0.007200	0.490700	0.937500
Ti131	Ti13	0.518280	0.622070	0.549230
Ti141	Ti14	0.662920	0.575880	0.490840
Ti151	Ti15	0.367050	0.534870	0.451170
Ti161	Ti16	0.689870	0.958140	0.052440
Ti171	Ti17	0.489620	0.973110	0.081320
Ti181	Ti18	0.501100	0.903060	0.950490
Ti191	Ti19	0.383350	0.925030	0.429760
Ti201	Ti20	0.287170	0.942180	0.522700
Ti211	Ti21	0.363520	0.057620	0.498930
Ti221	Ti22	0.059090	0.467060	0.109310
Ti231	Ti23	0.849380	0.467490	0.031890
Ti241	Ti24	0.100790	0.583320	0.083140
Cu51	Cu5	0.670720	0.740960	0.292430
Cu61	Cu6	0.683720	0.742400	0.194910
Cu71	Cu7	0.841170	0.807400	0.282990
Cu81	Cu8	0.818890	0.703550	0.254970
I51	I5	0.651790	0.828790	0.254310
I61	I6	0.869620	0.751000	0.357040
I71	I7	0.603450	0.648840	0.219710
I81	I8	0.887090	0.766380	0.193890
P51	P5	0.507300	0.482010	0.389290
P61	P6	0.289000	0.920220	0.978060
P71	P7	0.885500	0.584370	0.999930
P81	P8	0.469900	0.042410	0.402940
N51	N5	0.585900	0.736000	0.345000
N61	N6	0.586200	0.740100	0.124200
N71	N7	0.941100	0.884600	0.310700
N81	N8	0.869500	0.635900	0.251800
C731	C73	0.596200	0.703900	0.379400
H871	H87	0.638300	0.679800	0.375600
C741	C74	0.550200	0.703400	0.420200
C751	C75	0.493900	0.739500	0.427600
H881	H88	0.460000	0.739500	0.455000
C761	C76	0.486000	0.777000	0.394700
H891	H89	0.451000	0.804200	0.400700
C771	C77	0.530000	0.773000	0.354000
H901	H90	0.521900	0.797000	0.330600
C781	C78	0.568800	0.667400	0.457700
C791	C79	0.514200	0.470500	0.322800
C801	C80	0.490200	0.416500	0.293700
H911	H91	0.471500	0.386500	0.309600
C811	C81	0.494000	0.407200	0.242600
H921	H92	0.471300	0.370700	0.222200
C821	C82	0.528900	0.449900	0.220600
H931	H93	0.539700	0.443300	0.186600
C831	C83	0.547200	0.498800	0.246300
H941	H94	0.565000	0.528300	0.229600
C841	C84	0.541900	0.510500	0.298300
H951	H95	0.558400	0.547600	0.316300
C851	C85	0.765200	0.657500	0.597200
C861	C86	0.802600	0.716600	0.594300
H961	H96	0.867100	0.735500	0.623300
H971	H97	0.817900	0.718600	0.560500
H981	H98	0.747200	0.734300	0.597300
C871	C87	0.768000	0.640800	0.644300
H991	H99	0.729800	0.601600	0.636800
H1001	H100	0.841500	0.647100	0.664600
H1011	H101	0.733200	0.661800	0.664700
C881	C88	0.277100	0.602900	0.529200
C891	C89	0.253700	0.648900	0.510000
H1021	H102	0.192400	0.655800	0.520200
H1031	H103	0.315300	0.681400	0.525100
H1041	H104	0.237500	0.640900	0.471400
C901	C90	0.207000	0.557900	0.534100
H1051	H105	0.244300	0.530900	0.543300
H1061	H106	0.175000	0.568300	0.561800
H1071	H107	0.151600	0.541900	0.500600
C911	C91	0.499800	0.698500	0.098200
H1081	H108	0.488100	0.666300	0.111800
C921	C92	0.428600	0.699100	0.054300
H1091	H109	0.368800	0.668100	0.037500
C931	C93	0.443500	0.746300	0.033400
H1101	H110	0.393300	0.748200	0.002700
C941	C94	0.531800	0.789300	0.058100
C951	C95	0.599100	0.785500	0.103700
H1111	H111	0.658100	0.816400	0.121900
C961	C96	0.556800	0.840100	0.037500
C971	C97	0.166200	0.868700	0.967900
C981	C98	0.138000	0.840200	0.999500
H1121	H112	0.187700	0.848600	0.033400
C991	C99	0.045000	0.798100	0.991500
H1131	H113	0.036700	0.779000	0.018600
C1001	C100	0.975000	0.785800	0.949800
C1011	C101	0.011000	0.798500	0.910900
H1141	H114	0.979800	0.776300	0.876300
C1021	C102	0.099000	0.847800	0.922000
H1151	H115	0.107400	0.865500	0.893900
C1031	C103	0.713400	0.012000	0.165500
C1041	C104	0.706000	0.064200	0.184200
H1161	H116	0.697500	0.083300	0.155200
H1171	H117	0.645400	0.060900	0.198400
H1181	H118	0.771500	0.085000	0.212000
C1051	C105	0.719400	0.973400	0.199000
H1191	H119	0.763000	0.992900	0.234800
H1201	H120	0.647800	0.954800	0.199900
H1211	H121	0.751400	0.946200	0.185100
C1061	C106	0.738600	0.913500	0.953000
C1071	C107	0.745000	0.854300	0.948600
H1221	H122	0.796200	0.848800	0.929500
H1231	H123	0.767200	0.847600	0.984000
H1241	H124	0.674800	0.828800	0.929500
C1081	C108	0.763000	0.946100	0.922200
H1251	H125	0.741100	0.979200	0.930900
H1261	H126	0.839300	0.956100	0.927000
H1271	H127	0.725200	0.927300	0.885400
C1091	C109	0.934600	0.919900	0.280600
H1281	H128	0.887200	0.907300	0.246000
C1101	C110	0.993000	0.974600	0.296500
H1291	H129	0.984400	0.999300	0.273900
C1111	C111	0.063800	0.992200	0.346000
H1301	H130	0.105700	0.029400	0.357900
C1121	C112	0.074300	0.955500	0.378700
C1131	C113	0.010400	0.902700	0.358800
H1311	H131	0.015600	0.877100	0.380700
C1141	C114	0.153600	0.973300	0.430700
C1151	C115	0.441100	0.065000	0.343500
C1161	C116	0.340000	0.058800	0.316100
H1321	H132	0.282100	0.044100	0.329100
C1171	C117	0.323000	0.075600	0.265400
H1331	H133	0.252900	0.069000	0.243500
C1181	C118	0.402000	0.099100	0.250800
H1341	H134	0.390400	0.115600	0.221300
C1191	C119	0.495000	0.100900	0.274800
H1351	H135	0.551500	0.113500	0.260100
C1201	C120	0.516000	0.085100	0.320800
H1361	H136	0.587700	0.088500	0.338200
C1211	C121	0.282800	0.049000	0.596700
H1371	H137	0.317300	0.088600	0.599300
C1221	C122	0.343000	0.035400	0.646600
H1381	H138	0.418300	0.041900	0.647400
H1391	H139	0.338200	0.058900	0.677700
H1401	H140	0.312800	0.996900	0.646600
C1231	C123	0.170400	0.043600	0.588500
H1411	H141	0.160000	0.064100	0.619900
H1421	H142	0.144400	0.058400	0.558000
H1431	H143	0.130900	0.004900	0.582100
C1241	C124	0.282700	0.824700	0.468600
H1441	H144	0.312100	0.812300	0.439400
C1251	C125	0.342400	0.811100	0.513000
H1451	H145	0.417200	0.832000	0.521300
H1461	H146	0.315700	0.820000	0.543300
H1471	H147	0.335500	0.771700	0.505200
C1261	C126	0.166600	0.796200	0.448000
H1481	H148	0.154600	0.756600	0.444900
H1491	H149	0.130000	0.809800	0.472300
H1501	H150	0.139000	0.803300	0.413200
C1271	C127	0.921400	0.621000	0.217700
H1511	H151	0.945800	0.646000	0.197500
C1281	C128	0.940300	0.570400	0.211100
C1291	C129	0.904900	0.534200	0.239800
H1521	H152	0.916600	0.499100	0.235500
C1301	C130	0.852200	0.549400	0.275100
H1531	H153	0.826600	0.525000	0.295500
C1311	C131	0.837400	0.600900	0.280000
H1541	H154	0.802500	0.611700	0.305000
C1321	C132	0.996600	0.555500	0.171000
C1331	C133	0.811900	0.633500	0.998500
C1341	C134	0.814100	0.666900	0.042200
H1551	H155	0.853600	0.663600	0.075400
C1351	C135	0.760700	0.706200	0.040800
H1561	H156	0.768200	0.731300	0.072400
C1361	C136	0.699600	0.708900	0.995900
H1571	H157	0.656700	0.733200	0.996000
C1371	C137	0.696100	0.677600	0.948800
H1581	H158	0.655600	0.681300	0.916100
C1381	C138	0.755200	0.639800	0.951400
H1591	H159	0.755900	0.618000	0.919500
C1391	C139	0.857300	0.366900	0.082900
C1401	C140	0.819000	0.369100	0.128100
H1601	H160	0.782100	0.332000	0.129700
H1611	H161	0.878800	0.385500	0.160000
H1621	H162	0.769700	0.391500	0.125900
C1411	C141	0.859000	0.325600	0.047200
H1631	H163	0.878400	0.339500	0.017600
H1641	H164	0.912100	0.308300	0.063200
H1651	H165	0.789300	0.298600	0.034400
C1421	C142	0.286000	0.552900	0.150800
H1661	H166	0.311500	0.589400	0.142400
C1431	C143	0.346000	0.521200	0.127900
H1671	H167	0.325500	0.517100	0.089500
H1681	H168	0.422000	0.540200	0.142400
H1691	H169	0.331000	0.484900	0.136200
C1441	C144	0.301500	0.567400	0.207200
H1701	H170	0.260100	0.592500	0.214700
H1711	H171	0.277800	0.534100	0.219900
H1721	H172	0.376900	0.585300	0.225100
O371	O37	0.526700	0.670700	0.494300
O381	O38	0.625800	0.637100	0.449700
O391	O39	0.413000	0.503700	0.391600
O401	O40	0.611200	0.522400	0.422700
O411	O41	0.367000	0.591700	0.513400
O421	O42	0.490500	0.425600	0.402900
O431	O43	0.669700	0.629300	0.556100
O441	O44	0.691500	0.525400	0.530800
O451	O45	0.511900	0.563500	0.490000
O461	O46	0.634700	0.879700	0.065100
O471	O47	0.495300	0.839600	0.993900
O481	O48	0.343500	0.934800	0.036500
O491	O49	0.352500	0.895600	0.946200
O501	O50	0.646800	0.986500	0.113400
O511	O51	0.661300	0.920500	0.978400
O521	O52	0.514900	0.959200	0.914400
O531	O53	0.538300	0.949100	0.022900
O541	O54	0.260100	0.968700	0.959200
O551	O55	0.506600	0.912500	0.449600
O561	O56	0.214400	0.021000	0.441000
O571	O57	0.156800	0.938900	0.459500
O581	O58	0.589400	0.057100	0.422500
O591	O59	0.418600	0.980800	0.389600
O601	O60	0.423500	0.072100	0.440900
O611	O61	0.307200	0.883000	0.474000
O621	O62	0.298500	0.019600	0.549400
O631	O63	0.370200	0.980700	0.481100
O641	O64	0.027400	0.591100	0.146700
O651	O65	0.008700	0.508700	0.166500
O661	O66	0.897200	0.572300	0.944700
O671	O67	0.819800	0.533100	0.011700
O681	O68	0.990900	0.610100	0.041600
O691	O69	0.173800	0.535400	0.121900
O701	O70	0.909900	0.421100	0.078800
O711	O71	0.834000	0.426700	0.970400
O721	O72	0.992800	0.509300	0.062500
