data_HAPNEU_clean_PM
_symmetry_space_group_name_H-M	'P1'
_cell_length_a	13.560000
_cell_length_b	25.683000
_cell_length_c	26.590000
_cell_angle_alpha	99.185000
_cell_angle_beta	104.314000
_cell_angle_gamma	104.895000
_symmetry_Int_Tables_number 1

loop_
_symmetry_equiv_pos_as_xyz
'x,y,z'

loop_
_atom_site_label
_atom_site_type_symbol
_atom_site_fract_x
_atom_site_fract_y
_atom_site_fract_z
Ti11	Ti1	0.476690	0.376300	0.447990
Ti21	Ti2	0.334550	0.423300	0.507170
Ti31	Ti3	0.632780	0.464730	0.548640
Ti41	Ti4	0.310370	0.041190	0.944730
Ti51	Ti5	0.512810	0.027100	0.918460
Ti61	Ti6	0.500460	0.098100	0.050120
Ti71	Ti7	0.628490	0.077060	0.569650
Ti81	Ti8	0.706800	0.056620	0.470410
Ti91	Ti9	0.631620	0.940580	0.495780
Ti101	Ti10	0.932990	0.530950	0.889170
Ti111	Ti11	0.147870	0.532650	0.966280
Ti121	Ti12	0.892580	0.414440	0.916360
Cu11	Cu1	0.353190	0.271260	0.716620
Cu21	Cu2	0.309960	0.260690	0.807470
Cu31	Cu3	0.174870	0.195050	0.707840
Cu41	Cu4	0.165110	0.292400	0.741500
Br11	Br1	0.349270	0.181180	0.746020
Br21	Br2	0.146130	0.254340	0.647110
Br31	Br3	0.383790	0.350920	0.785710
Br41	Br4	0.117770	0.231660	0.798870
P11	P1	0.496180	0.518560	0.611880
P21	P2	0.714190	0.081870	0.025280
P31	P3	0.113130	0.415240	0.999190
P41	P4	0.543290	0.958930	0.598260
N11	N1	0.429800	0.272330	0.661180
N21	N2	0.414100	0.261560	0.876800
N31	N3	0.068700	0.118290	0.682410
N41	N4	0.123600	0.361870	0.747020
C11	C1	0.415200	0.302830	0.625630
H11	H1	0.375800	0.328000	0.630100
C21	C2	0.455100	0.299550	0.582040
C31	C3	0.509900	0.261670	0.574820
H21	H2	0.537500	0.258300	0.545300
C41	C4	0.524400	0.228710	0.610940
H31	H3	0.561300	0.202300	0.606600
C51	C5	0.483600	0.235620	0.653290
H41	H4	0.493800	0.213400	0.678300
C61	C6	0.431500	0.333370	0.542640
C71	C7	0.487000	0.528250	0.678700
C81	C8	0.503200	0.579990	0.708120
H51	H5	0.522000	0.611400	0.693700
C91	C9	0.492100	0.586900	0.759440
H61	H6	0.501900	0.622900	0.779500
C101	C10	0.467500	0.542600	0.780610
H71	H7	0.462800	0.547800	0.816000
C111	C11	0.449700	0.491870	0.752090
H81	H8	0.429200	0.460700	0.766600
C121	C12	0.460900	0.484340	0.701330
H91	H9	0.450200	0.448000	0.681800
C131	C13	0.228500	0.338240	0.398960
C141	C14	0.186700	0.281700	0.403800
H101	H10	0.120800	0.262100	0.374400
H111	H11	0.171200	0.282500	0.438000
H121	H12	0.239900	0.262400	0.402300
C151	C15	0.210400	0.357500	0.356900
H131	H13	0.249100	0.397200	0.366100
H141	H14	0.133400	0.351600	0.342600
H151	H15	0.234800	0.338200	0.329800
C161	C16	0.719600	0.398640	0.468260
C171	C17	0.741400	0.349200	0.484800
H161	H16	0.802600	0.343200	0.474100
H171	H17	0.678200	0.316600	0.467500
H181	H18	0.757800	0.355200	0.523700
C181	C18	0.781800	0.437800	0.455300
H191	H19	0.744700	0.464600	0.445900
H201	H20	0.801400	0.422000	0.424500
H211	H21	0.846600	0.456500	0.485500
C191	C19	0.502600	0.304000	0.902900
H221	H22	0.513300	0.336800	0.890100
C201	C20	0.578100	0.302930	0.946560
H231	H23	0.640600	0.333900	0.963200
C211	C21	0.562500	0.256170	0.966450
H241	H24	0.613800	0.254500	0.997300
C221	C22	0.473000	0.212530	0.941460
C231	C23	0.400200	0.215860	0.896350
H251	H25	0.338300	0.184900	0.878500
C241	C24	0.449600	0.161040	0.962050
C251	C25	0.840000	0.135080	0.037650
C261	C26	0.867500	0.158600	0.001800
H261	H26	0.819000	0.147400	0.966600
C271	C27	0.965800	0.200000	0.011900
H271	H27	0.981300	0.214100	0.982900
C281	C28	0.032500	0.219000	0.056200
C291	C29	0.007600	0.200500	0.094300
H281	H28	0.055500	0.215800	0.129500
C301	C30	0.906400	0.155600	0.086200
H291	H29	0.890400	0.142300	0.115500
C311	C31	0.288900	0.987300	0.829380
C321	C32	0.284000	0.935400	0.813900
H301	H30	0.293200	0.918900	0.844900
H311	H31	0.340800	0.933600	0.797700
H321	H32	0.214200	0.914900	0.787700
C331	C33	0.278400	0.026000	0.796590
H331	H33	0.233900	0.005900	0.760200
H341	H34	0.349400	0.046900	0.795900
H351	H35	0.244700	0.051800	0.811300
C341	C34	0.264800	0.090200	0.049100
C351	C35	0.253000	0.143900	0.049700
H361	H36	0.201600	0.149100	0.068800
H371	H37	0.226900	0.147300	0.013000
H381	H38	0.322400	0.172300	0.067900
C361	C36	0.217300	0.044700	0.066700
H391	H39	0.242300	0.013600	0.055100
H401	H40	0.139400	0.034000	0.051600
H411	H41	0.236900	0.054400	0.105800
C371	C37	0.074000	0.083110	0.712960
H421	H42	0.123500	0.096400	0.747900
C381	C38	0.012600	0.028340	0.697820
H431	H43	0.018400	0.004400	0.721500
C391	C39	0.942400	0.009690	0.646950
H441	H44	0.900500	0.971700	0.634500
C401	C40	0.932000	0.045230	0.613850
C411	C41	0.998600	0.099580	0.633090
H451	H45	0.994400	0.124600	0.610500
C421	C42	0.849200	0.026560	0.560800
C431	C43	0.582500	0.938490	0.659560
C441	C44	0.684400	0.939600	0.681400
H461	H46	0.737200	0.950800	0.664200
C451	C45	0.711200	0.923700	0.730600
H471	H47	0.783100	0.924700	0.745500
C461	C46	0.645900	0.908600	0.755700
H481	H48	0.667100	0.897500	0.788100
C471	C47	0.548800	0.908700	0.735700
H491	H49	0.499300	0.899500	0.755100
C481	C48	0.513900	0.921800	0.686900
H501	H50	0.440600	0.919000	0.672700
C491	C49	0.694900	0.945720	0.393630
H511	H51	0.663800	0.905900	0.393600
C501	C50	0.628400	0.953500	0.346600
H521	H52	0.555000	0.946200	0.348600
H531	H53	0.628800	0.927800	0.315200
H541	H54	0.655500	0.991700	0.343700
C511	C51	0.810700	0.953500	0.399300
H551	H55	0.817300	0.932300	0.366900
H561	H56	0.842200	0.940400	0.430200
H571	H57	0.848400	0.992900	0.404500
C521	C52	0.725700	0.177550	0.527190
H581	H58	0.700600	0.189900	0.558100
C531	C53	0.659400	0.191380	0.485300
H591	H59	0.584800	0.169300	0.478600
H601	H60	0.680700	0.183700	0.453000
H611	H61	0.666500	0.230900	0.495200
C541	C54	0.845400	0.204040	0.549800
H621	H62	0.863100	0.244300	0.553900
H631	H63	0.880400	0.189000	0.525400
H641	H64	0.870600	0.196100	0.584700
C551	C55	0.068900	0.375920	0.779890
H651	H65	0.040500	0.349600	0.798100
C561	C56	0.052000	0.426900	0.788460
C571	C57	0.092000	0.464960	0.761630
H661	H66	0.082200	0.500500	0.766700
C581	C58	0.146600	0.449970	0.727230
H671	H67	0.173900	0.475000	0.707600
C591	C59	0.161100	0.399320	0.721710
H681	H68	0.200300	0.390100	0.698400
C601	C60	0.994400	0.441170	0.827030
C611	C61	0.183900	0.365100	0.997900
C621	C62	0.175500	0.330710	0.952020
H691	H69	0.131600	0.333000	0.919000
C631	C63	0.230900	0.291680	0.952640
H701	H70	0.222300	0.267100	0.920000
C641	C64	0.295100	0.288110	0.997510
H711	H71	0.334100	0.262200	0.997000
C651	C65	0.304200	0.321740	0.043960
H721	H72	0.349400	0.319300	0.076500
C661	C66	0.248400	0.359840	0.044810
H731	H73	0.254500	0.382700	0.078000
C671	C67	0.139500	0.632990	0.915400
C681	C68	0.168500	0.629900	0.866100
H741	H74	0.206000	0.667200	0.864100
H751	H75	0.103600	0.613700	0.835500
H761	H76	0.215400	0.606600	0.865500
C691	C69	0.127300	0.675500	0.947900
H771	H77	0.108500	0.663100	0.978200
H781	H78	0.070100	0.687900	0.928000
H791	H79	0.194400	0.706300	0.961000
C701	C70	0.701900	0.441950	0.849760
H801	H80	0.675400	0.405800	0.859100
C711	C71	0.648800	0.477300	0.873220
H811	H81	0.669500	0.481500	0.912000
H821	H82	0.571100	0.460400	0.858200
H831	H83	0.670000	0.513800	0.865300
C721	C72	0.682500	0.426710	0.790830
H841	H84	0.723000	0.401700	0.782600
H851	H85	0.705600	0.460300	0.778300
H861	H86	0.605900	0.408100	0.772900
O11	O1	0.471590	0.328290	0.504290
O21	O2	0.374660	0.363450	0.549840
O31	O3	0.587910	0.495500	0.609170
O41	O4	0.389080	0.478740	0.575630
O51	O5	0.630580	0.408300	0.483970
O61	O6	0.518620	0.576360	0.601210
O71	O7	0.324710	0.368030	0.441170
O81	O8	0.304940	0.473440	0.466680
O91	O9	0.485940	0.436220	0.507450
O101	O10	0.367250	0.120470	0.932470
O111	O11	0.509310	0.161650	0.006020
O121	O12	0.658880	0.066700	0.965270
O131	O13	0.650510	0.106420	0.056870
O141	O14	0.354180	0.013150	0.883720
O151	O15	0.338990	0.079130	0.020170
O161	O16	0.485890	0.041900	0.086290
O171	O17	0.462680	0.050690	0.976560
O181	O18	0.741090	0.033030	0.044440
O191	O19	0.505030	0.090330	0.552520
O201	O20	0.787360	0.978140	0.550530
O211	O21	0.844500	0.060010	0.531410
O221	O22	0.421820	0.943970	0.581780
O231	O23	0.596530	0.021290	0.610560
O241	O24	0.581400	0.927280	0.557750
O251	O25	0.698790	0.118040	0.522230
O261	O26	0.687510	0.977370	0.442320
O271	O27	0.630710	0.019030	0.515350
O281	O28	0.963500	0.406130	0.851880
O291	O29	0.981750	0.488930	0.831480
O301	O30	0.106770	0.428520	0.055850
O311	O31	0.176750	0.466910	0.986470
O321	O32	0.003320	0.388420	0.957880
O331	O33	0.816590	0.460850	0.876700
O341	O34	0.083320	0.577860	0.919130
O351	O35	0.169700	0.575460	0.029440
O361	O36	0.001140	0.489310	0.936260
Ti131	Ti13	0.523310	0.623700	0.552010
Ti141	Ti14	0.665450	0.576700	0.492830
Ti151	Ti15	0.367220	0.535270	0.451360
Ti161	Ti16	0.689630	0.958810	0.055270
Ti171	Ti17	0.487190	0.972900	0.081540
Ti181	Ti18	0.499540	0.901900	0.949880
Ti191	Ti19	0.371510	0.922940	0.430350
Ti201	Ti20	0.293200	0.943380	0.529590
Ti211	Ti21	0.368380	0.059420	0.504220
Ti221	Ti22	0.067010	0.469050	0.110830
Ti231	Ti23	0.852130	0.467350	0.033720
Ti241	Ti24	0.107420	0.585560	0.083640
Cu51	Cu5	0.646810	0.728740	0.283380
Cu61	Cu6	0.690040	0.739310	0.192530
Cu71	Cu7	0.825130	0.804950	0.292160
Cu81	Cu8	0.834890	0.707600	0.258500
Br51	Br5	0.650730	0.818820	0.253980
Br61	Br6	0.853870	0.745660	0.352890
Br71	Br7	0.616210	0.649080	0.214290
Br81	Br8	0.882230	0.768340	0.201130
P51	P5	0.503820	0.481440	0.388120
P61	P6	0.285810	0.918130	0.974720
P71	P7	0.886870	0.584760	0.000810
P81	P8	0.456710	0.041070	0.401740
N51	N5	0.570200	0.727670	0.338820
N61	N6	0.585900	0.738440	0.123200
N71	N7	0.931300	0.881710	0.317590
N81	N8	0.876400	0.638130	0.252980
C731	C73	0.584800	0.697170	0.374370
H871	H87	0.624200	0.672000	0.369900
C741	C74	0.544900	0.700450	0.417960
C751	C75	0.490100	0.738330	0.425180
H881	H88	0.462500	0.741700	0.454700
C761	C76	0.475600	0.771290	0.389060
H891	H89	0.438700	0.797700	0.393400
C771	C77	0.516400	0.764380	0.346710
H901	H90	0.506200	0.786600	0.321700
C781	C78	0.568500	0.666630	0.457360
C791	C79	0.513000	0.471750	0.321300
C801	C80	0.496800	0.420010	0.291880
H911	H91	0.478000	0.388600	0.306300
C811	C81	0.507900	0.413100	0.240560
H921	H92	0.498100	0.377100	0.220500
C821	C82	0.532500	0.457400	0.219390
H931	H93	0.537200	0.452200	0.184000
C831	C83	0.550300	0.508130	0.247910
H941	H94	0.570800	0.539300	0.233400
C841	C84	0.539100	0.515660	0.298670
H951	H95	0.549800	0.552000	0.318200
C851	C85	0.771500	0.661760	0.601040
C861	C86	0.813300	0.718300	0.596200
H961	H96	0.879200	0.737900	0.625600
H971	H97	0.828800	0.717500	0.562000
H981	H98	0.760100	0.737600	0.597700
C871	C87	0.789600	0.642500	0.643100
H991	H99	0.750900	0.602800	0.633900
H1001	H100	0.866600	0.648400	0.657400
H1011	H101	0.765200	0.661800	0.670200
C881	C88	0.280400	0.601360	0.531740
C891	C89	0.258600	0.650800	0.515200
H1021	H102	0.197400	0.656800	0.525900
H1031	H103	0.321800	0.683400	0.532500
H1041	H104	0.242200	0.644800	0.476300
C901	C90	0.218200	0.562200	0.544700
H1051	H105	0.255300	0.535400	0.554100
H1061	H106	0.198600	0.578000	0.575500
H1071	H107	0.153400	0.543500	0.514500
C911	C91	0.497400	0.696000	0.097100
H1081	H108	0.486700	0.663200	0.109900
C921	C92	0.421900	0.697070	0.053440
H1091	H109	0.359400	0.666100	0.036800
C931	C93	0.437500	0.743830	0.033550
H1101	H110	0.386200	0.745500	0.002700
C941	C94	0.527000	0.787470	0.058540
C951	C95	0.599800	0.784140	0.103650
H1111	H111	0.661700	0.815100	0.121500
C961	C96	0.550400	0.838960	0.037950
C971	C97	0.160000	0.864920	0.962350
C981	C98	0.132500	0.841400	0.998200
H1121	H112	0.181000	0.852600	0.033400
C991	C99	0.034200	0.800000	0.988100
H1131	H113	0.018700	0.785900	0.017100
C1001	C100	0.967500	0.781000	0.943800
C1011	C101	0.992400	0.799500	0.905700
H1141	H114	0.944500	0.784200	0.870500
C1021	C102	0.093600	0.844400	0.913800
H1151	H115	0.109600	0.857700	0.884500
C1031	C103	0.711100	0.012700	0.170620
C1041	C104	0.716000	0.064600	0.186100
H1161	H116	0.706800	0.081100	0.155100
H1171	H117	0.659200	0.066400	0.202300
H1181	H118	0.785800	0.085100	0.212300
C1051	C105	0.721600	0.974000	0.203410
H1191	H119	0.766100	0.994100	0.239800
H1201	H120	0.650600	0.953100	0.204100
H1211	H121	0.755300	0.948200	0.188700
C1061	C106	0.735200	0.909800	0.950900
C1071	C107	0.747000	0.856100	0.950300
H1221	H122	0.798400	0.850900	0.931200
H1231	H123	0.773100	0.852700	0.987000
H1241	H124	0.677600	0.827700	0.932100
C1081	C108	0.782700	0.955300	0.933300
H1251	H125	0.757700	0.986400	0.944900
H1261	H126	0.860600	0.966000	0.948400
H1271	H127	0.763100	0.945600	0.894200
C1091	C109	0.926000	0.916890	0.287040
H1281	H128	0.876500	0.903600	0.252100
C1101	C110	0.987400	0.971660	0.302180
H1291	H129	0.981600	0.995600	0.278500
C1111	C111	0.057600	0.990310	0.353050
H1301	H130	0.099500	0.028300	0.365500
C1121	C112	0.068000	0.954770	0.386150
C1131	C113	0.001400	0.900420	0.366910
H1311	H131	0.005600	0.875400	0.389500
C1141	C114	0.150800	0.973440	0.439200
C1151	C115	0.417500	0.061510	0.340440
C1161	C116	0.315600	0.060400	0.318600
H1321	H132	0.262800	0.049200	0.335800
C1171	C117	0.288800	0.076300	0.269400
H1331	H133	0.216900	0.075300	0.254500
C1181	C118	0.354100	0.091400	0.244300
H1341	H134	0.332900	0.102500	0.211900
C1191	C119	0.451200	0.091300	0.264300
H1351	H135	0.500700	0.100500	0.244900
C1201	C120	0.486100	0.078200	0.313100
H1361	H136	0.559400	0.081000	0.327300
C1211	C121	0.305100	0.054280	0.606370
H1371	H137	0.336200	0.094100	0.606400
C1221	C122	0.371600	0.046500	0.653400
H1381	H138	0.445000	0.053800	0.651400
H1391	H139	0.371200	0.072200	0.684800
H1401	H140	0.344500	0.008300	0.656300
C1231	C123	0.189300	0.046500	0.600700
H1411	H141	0.182700	0.067700	0.633100
H1421	H142	0.157800	0.059600	0.569800
H1431	H143	0.151600	0.007100	0.595500
C1241	C124	0.274300	0.822450	0.472810
H1441	H144	0.299400	0.810100	0.441900
C1251	C125	0.340600	0.808620	0.514700
H1451	H145	0.415200	0.830700	0.521400
H1461	H146	0.319300	0.816300	0.547000
H1471	H147	0.333500	0.769100	0.504800
C1261	C126	0.154600	0.795960	0.450200
H1481	H148	0.136900	0.755700	0.446100
H1491	H149	0.119600	0.811000	0.474600
H1501	H150	0.129400	0.803900	0.415300
C1271	C127	0.931100	0.624080	0.220110
H1511	H151	0.959500	0.650400	0.201900
C1281	C128	0.948000	0.573100	0.211540
C1291	C129	0.908000	0.535040	0.238370
H1521	H152	0.917800	0.499500	0.233300
C1301	C130	0.853400	0.550030	0.272770
H1531	H153	0.826100	0.525000	0.292400
C1311	C131	0.838900	0.600680	0.278290
H1541	H154	0.799700	0.609900	0.301600
C1321	C132	0.005600	0.558830	0.172970
C1331	C133	0.816100	0.634900	0.002100
C1341	C134	0.824500	0.669290	0.047980
H1551	H155	0.868400	0.667000	0.081000
C1351	C135	0.769100	0.708320	0.047360
H1561	H156	0.777700	0.732900	0.080000
C1361	C136	0.704900	0.711890	0.002490
H1571	H157	0.665900	0.737800	0.003000
C1371	C137	0.695800	0.678260	0.956040
H1581	H158	0.650600	0.680700	0.923500
C1381	C138	0.751600	0.640160	0.955190
H1591	H159	0.745500	0.617300	0.922000
C1391	C139	0.860500	0.367010	0.084600
C1401	C140	0.831500	0.370100	0.133900
H1601	H160	0.794000	0.332800	0.135900
H1611	H161	0.896400	0.386300	0.164500
H1621	H162	0.784600	0.393400	0.134500
C1411	C141	0.872700	0.324500	0.052100
H1631	H163	0.891500	0.336900	0.021800
H1641	H164	0.929900	0.312100	0.072000
H1651	H165	0.805600	0.293700	0.039000
C1421	C142	0.298100	0.558050	0.150240
H1661	H166	0.324600	0.594200	0.140900
C1431	C143	0.351200	0.522700	0.126780
H1671	H167	0.330500	0.518500	0.088000
H1681	H168	0.428900	0.539600	0.141800
H1691	H169	0.330000	0.486200	0.134700
C1441	C144	0.317500	0.573290	0.209170
H1701	H170	0.277000	0.598300	0.217400
H1711	H171	0.294400	0.539700	0.221700
H1721	H172	0.394100	0.591900	0.227100
O371	O37	0.528410	0.671710	0.495710
O381	O38	0.625340	0.636550	0.450160
O391	O39	0.412090	0.504500	0.390830
O401	O40	0.610920	0.521260	0.424370
O411	O41	0.369420	0.591700	0.516030
O421	O42	0.481380	0.423640	0.398790
O431	O43	0.675290	0.631970	0.558830
O441	O44	0.695060	0.526560	0.533320
O451	O45	0.514060	0.563780	0.492550
O461	O46	0.632750	0.879530	0.067530
O471	O47	0.490690	0.838350	0.993980
O481	O48	0.341120	0.933300	0.034730
O491	O49	0.349490	0.893580	0.943130
O501	O50	0.645820	0.986850	0.116280
O511	O51	0.661010	0.920870	0.979830
O521	O52	0.514110	0.958100	0.913710
O531	O53	0.537320	0.949310	0.023440
O541	O54	0.258910	0.966970	0.955560
O551	O55	0.494970	0.909670	0.447480
O561	O56	0.212640	0.021860	0.449470
O571	O57	0.155500	0.939990	0.468590
O581	O58	0.578180	0.056030	0.418220
O591	O59	0.403470	0.978710	0.389440
O601	O60	0.418600	0.072720	0.442250
O611	O61	0.301210	0.881960	0.477770
O621	O62	0.312490	0.022630	0.557680
O631	O63	0.369290	0.980970	0.484650
O641	O64	0.036500	0.593870	0.148120
O651	O65	0.018250	0.511070	0.168520
O661	O66	0.893230	0.571480	0.944150
O671	O67	0.823250	0.533090	0.013530
O681	O68	0.996680	0.611580	0.042120
O691	O69	0.183410	0.539150	0.123300
O701	O70	0.916680	0.422140	0.080870
O711	O71	0.830300	0.424540	0.970560
O721	O72	0.998860	0.510690	0.063740
