data_HAPNOE_clean_PM
_symmetry_space_group_name_H-M	'P1'
_cell_length_a	21.894700
_cell_length_b	8.306200
_cell_length_c	23.203400
_cell_angle_alpha	90.000000
_cell_angle_beta	100.053000
_cell_angle_gamma	90.000000
_symmetry_Int_Tables_number 1

loop_
_symmetry_equiv_pos_as_xyz
'x,y,z'

loop_
_atom_site_label
_atom_site_type_symbol
_atom_site_fract_x
_atom_site_fract_y
_atom_site_fract_z
C11	C1	0.171000	0.216000	0.176800
C21	C2	0.127900	0.087200	0.151400
C31	C3	0.091800	0.119800	0.096700
H11	H1	0.095900	0.218800	0.079100
C41	C4	0.050600	0.009800	0.068400
C51	C5	0.043900	0.861900	0.095800
H21	H2	0.015700	0.785900	0.077700
C61	C6	0.078800	0.829900	0.149200
H31	H3	0.073500	0.731700	0.166900
C71	C7	0.122500	0.938800	0.178700
C81	C8	0.260000	0.297300	0.358200
C91	C9	0.280800	0.350900	0.420400
C101	C10	0.321000	0.253700	0.460200
C111	C11	0.342200	0.311100	0.516400
H41	H4	0.369300	0.248900	0.542700
C121	C12	0.323600	0.457900	0.533200
H51	H5	0.338300	0.494300	0.571000
C131	C13	0.283100	0.554400	0.495000
C141	C14	0.262800	0.498700	0.438600
H61	H6	0.236400	0.562700	0.412400
Er11	Er1	0.247550	0.465260	0.228380
H71	H7	0.332000	0.092000	0.410300
N11	N1	0.017900	0.053800	0.012300
N21	N2	0.265000	0.703400	0.518170
O11	O1	0.169530	0.352800	0.153880
O21	O2	0.210770	0.191400	0.224330
O31	O3	0.270860	0.154600	0.345140
O41	O4	0.155840	0.896300	0.229530
O51	O5	0.234430	0.401200	0.322990
O61	O6	0.340700	0.105500	0.447120
C151	C15	0.671000	0.716000	0.176800
C161	C16	0.627900	0.587200	0.151400
C171	C17	0.591800	0.619800	0.096700
H81	H8	0.595900	0.718800	0.079100
C181	C18	0.550600	0.509800	0.068400
C191	C19	0.543900	0.361900	0.095800
H91	H9	0.515700	0.285900	0.077700
C201	C20	0.578800	0.329900	0.149200
H101	H10	0.573500	0.231700	0.166900
C211	C21	0.622500	0.438800	0.178700
C221	C22	0.760000	0.797300	0.358200
C231	C23	0.780800	0.850900	0.420400
C241	C24	0.821000	0.753700	0.460200
C251	C25	0.842200	0.811100	0.516400
H111	H11	0.869300	0.748900	0.542700
C261	C26	0.823600	0.957900	0.533200
H121	H12	0.838300	0.994300	0.571000
C271	C27	0.783100	0.054400	0.495000
C281	C28	0.762800	0.998700	0.438600
H131	H13	0.736400	0.062700	0.412400
Er21	Er2	0.747550	0.965260	0.228380
H141	H14	0.832000	0.592000	0.410300
N31	N3	0.517900	0.553800	0.012300
N41	N4	0.765000	0.203400	0.518170
O71	O7	0.669530	0.852800	0.153880
O81	O8	0.710770	0.691400	0.224330
O91	O9	0.770860	0.654600	0.345140
O101	O10	0.655840	0.396300	0.229530
O111	O11	0.734430	0.901200	0.322990
O121	O12	0.840700	0.605500	0.447120
C291	C29	0.829000	0.216000	0.323200
C301	C30	0.872100	0.087200	0.348600
C311	C31	0.908200	0.119800	0.403300
H151	H15	0.904100	0.218800	0.420900
C321	C32	0.949400	0.009800	0.431600
C331	C33	0.956100	0.861900	0.404200
H161	H16	0.984300	0.785900	0.422300
C341	C34	0.921200	0.829900	0.350800
H171	H17	0.926500	0.731700	0.333100
C351	C35	0.877500	0.938800	0.321300
C361	C36	0.740000	0.297300	0.141800
C371	C37	0.719200	0.350900	0.079600
C381	C38	0.679000	0.253700	0.039800
C391	C39	0.657800	0.311100	0.983600
H181	H18	0.630700	0.248900	0.957300
C401	C40	0.676400	0.457900	0.966800
H191	H19	0.661700	0.494300	0.929000
C411	C41	0.716900	0.554400	0.005000
C421	C42	0.737200	0.498700	0.061400
H201	H20	0.763600	0.562700	0.087600
Er31	Er3	0.752450	0.465260	0.271620
H211	H21	0.668000	0.092000	0.089700
N51	N5	0.982100	0.053800	0.487700
N61	N6	0.735000	0.703400	0.981830
O131	O13	0.830470	0.352800	0.346120
O141	O14	0.789230	0.191400	0.275670
O151	O15	0.729140	0.154600	0.154860
O161	O16	0.844160	0.896300	0.270470
O171	O17	0.765570	0.401200	0.177010
O181	O18	0.659300	0.105500	0.052880
C431	C43	0.329000	0.716000	0.323200
C441	C44	0.372100	0.587200	0.348600
C451	C45	0.408200	0.619800	0.403300
H221	H22	0.404100	0.718800	0.420900
C461	C46	0.449400	0.509800	0.431600
C471	C47	0.456100	0.361900	0.404200
H231	H23	0.484300	0.285900	0.422300
C481	C48	0.421200	0.329900	0.350800
H241	H24	0.426500	0.231700	0.333100
C491	C49	0.377500	0.438800	0.321300
C501	C50	0.240000	0.797300	0.141800
C511	C51	0.219200	0.850900	0.079600
C521	C52	0.179000	0.753700	0.039800
C531	C53	0.157800	0.811100	0.983600
H251	H25	0.130700	0.748900	0.957300
C541	C54	0.176400	0.957900	0.966800
H261	H26	0.161700	0.994300	0.929000
C551	C55	0.216900	0.054400	0.005000
C561	C56	0.237200	0.998700	0.061400
H271	H27	0.263600	0.062700	0.087600
Er41	Er4	0.252450	0.965260	0.271620
H281	H28	0.168000	0.592000	0.089700
N71	N7	0.482100	0.553800	0.487700
N81	N8	0.235000	0.203400	0.981830
O191	O19	0.330470	0.852800	0.346120
O201	O20	0.289230	0.691400	0.275670
O211	O21	0.229140	0.654600	0.154860
O221	O22	0.344160	0.396300	0.270470
O231	O23	0.265570	0.901200	0.177010
O241	O24	0.159300	0.605500	0.052880
C571	C57	0.829000	0.784000	0.823200
C581	C58	0.872100	0.912800	0.848600
C591	C59	0.908200	0.880200	0.903300
H291	H29	0.904100	0.781200	0.920900
C601	C60	0.949400	0.990200	0.931600
C611	C61	0.956100	0.138100	0.904200
H301	H30	0.984300	0.214100	0.922300
C621	C62	0.921200	0.170100	0.850800
H311	H31	0.926500	0.268300	0.833100
C631	C63	0.877500	0.061200	0.821300
C641	C64	0.740000	0.702700	0.641800
C651	C65	0.719200	0.649100	0.579600
C661	C66	0.679000	0.746300	0.539800
C671	C67	0.657800	0.688900	0.483600
H321	H32	0.630700	0.751100	0.457300
C681	C68	0.676400	0.542100	0.466800
H331	H33	0.661700	0.505700	0.429000
C691	C69	0.716900	0.445600	0.505000
C701	C70	0.737200	0.501300	0.561400
H341	H34	0.763600	0.437300	0.587600
Er51	Er5	0.752450	0.534740	0.771620
H351	H35	0.668000	0.908000	0.589700
N91	N9	0.982100	0.946200	0.987700
N101	N10	0.735000	0.296600	0.481830
O251	O25	0.830470	0.647200	0.846120
O261	O26	0.789230	0.808600	0.775670
O271	O27	0.729140	0.845400	0.654860
O281	O28	0.844160	0.103700	0.770470
O291	O29	0.765570	0.598800	0.677010
O301	O30	0.659300	0.894500	0.552880
C711	C71	0.329000	0.284000	0.823200
C721	C72	0.372100	0.412800	0.848600
C731	C73	0.408200	0.380200	0.903300
H361	H36	0.404100	0.281200	0.920900
C741	C74	0.449400	0.490200	0.931600
C751	C75	0.456100	0.638100	0.904200
H371	H37	0.484300	0.714100	0.922300
C761	C76	0.421200	0.670100	0.850800
H381	H38	0.426500	0.768300	0.833100
C771	C77	0.377500	0.561200	0.821300
C781	C78	0.240000	0.202700	0.641800
C791	C79	0.219200	0.149100	0.579600
C801	C80	0.179000	0.246300	0.539800
C811	C81	0.157800	0.188900	0.483600
H391	H39	0.130700	0.251100	0.457300
C821	C82	0.176400	0.042100	0.466800
H401	H40	0.161700	0.005700	0.429000
C831	C83	0.216900	0.945600	0.505000
C841	C84	0.237200	0.001300	0.561400
H411	H41	0.263600	0.937300	0.587600
Er61	Er6	0.252450	0.034740	0.771620
H421	H42	0.168000	0.408000	0.589700
N111	N11	0.482100	0.446200	0.987700
N121	N12	0.235000	0.796600	0.481830
O311	O31	0.330470	0.147200	0.846120
O321	O32	0.289230	0.308600	0.775670
O331	O33	0.229140	0.345400	0.654860
O341	O34	0.344160	0.603700	0.770470
O351	O35	0.265570	0.098800	0.677010
O361	O36	0.159300	0.394500	0.552880
C851	C85	0.171000	0.784000	0.676800
C861	C86	0.127900	0.912800	0.651400
C871	C87	0.091800	0.880200	0.596700
H431	H43	0.095900	0.781200	0.579100
C881	C88	0.050600	0.990200	0.568400
C891	C89	0.043900	0.138100	0.595800
H441	H44	0.015700	0.214100	0.577700
C901	C90	0.078800	0.170100	0.649200
H451	H45	0.073500	0.268300	0.666900
C911	C91	0.122500	0.061200	0.678700
C921	C92	0.260000	0.702700	0.858200
C931	C93	0.280800	0.649100	0.920400
C941	C94	0.321000	0.746300	0.960200
C951	C95	0.342200	0.688900	0.016400
H461	H46	0.369300	0.751100	0.042700
C961	C96	0.323600	0.542100	0.033200
H471	H47	0.338300	0.505700	0.071000
C971	C97	0.283100	0.445600	0.995000
C981	C98	0.262800	0.501300	0.938600
H481	H48	0.236400	0.437300	0.912400
Er71	Er7	0.247550	0.534740	0.728380
H491	H49	0.332000	0.908000	0.910300
N131	N13	0.017900	0.946200	0.512300
N141	N14	0.265000	0.296600	0.018170
O371	O37	0.169530	0.647200	0.653880
O381	O38	0.210770	0.808600	0.724330
O391	O39	0.270860	0.845400	0.845140
O401	O40	0.155840	0.103700	0.729530
O411	O41	0.234430	0.598800	0.822990
O421	O42	0.340700	0.894500	0.947120
C991	C99	0.671000	0.284000	0.676800
C1001	C100	0.627900	0.412800	0.651400
C1011	C101	0.591800	0.380200	0.596700
H501	H50	0.595900	0.281200	0.579100
C1021	C102	0.550600	0.490200	0.568400
C1031	C103	0.543900	0.638100	0.595800
H511	H51	0.515700	0.714100	0.577700
C1041	C104	0.578800	0.670100	0.649200
H521	H52	0.573500	0.768300	0.666900
C1051	C105	0.622500	0.561200	0.678700
C1061	C106	0.760000	0.202700	0.858200
C1071	C107	0.780800	0.149100	0.920400
C1081	C108	0.821000	0.246300	0.960200
C1091	C109	0.842200	0.188900	0.016400
H531	H53	0.869300	0.251100	0.042700
C1101	C110	0.823600	0.042100	0.033200
H541	H54	0.838300	0.005700	0.071000
C1111	C111	0.783100	0.945600	0.995000
C1121	C112	0.762800	0.001300	0.938600
H551	H55	0.736400	0.937300	0.912400
Er81	Er8	0.747550	0.034740	0.728380
H561	H56	0.832000	0.408000	0.910300
N151	N15	0.517900	0.446200	0.512300
N161	N16	0.765000	0.796600	0.018170
O431	O43	0.669530	0.147200	0.653880
O441	O44	0.710770	0.308600	0.724330
O451	O45	0.770860	0.345400	0.845140
O461	O46	0.655840	0.603700	0.729530
O471	O47	0.734430	0.098800	0.822990
O481	O48	0.840700	0.394500	0.947120
