data_HAPNUK_clean_PM
_symmetry_space_group_name_H-M	'P1'
_cell_length_a	21.894700
_cell_length_b	8.306200
_cell_length_c	23.203400
_cell_angle_alpha	90.000000
_cell_angle_beta	100.053000
_cell_angle_gamma	90.000000
_symmetry_Int_Tables_number 1

loop_
_symmetry_equiv_pos_as_xyz
'x,y,z'

loop_
_atom_site_label
_atom_site_type_symbol
_atom_site_fract_x
_atom_site_fract_y
_atom_site_fract_z
C11	C1	0.078800	0.830000	0.149200
H11	H1	0.073400	0.731800	0.166900
C21	C2	0.122500	0.938800	0.178700
C31	C3	0.127900	0.087400	0.151500
C41	C4	0.170900	0.216000	0.176800
C51	C5	0.091700	0.119700	0.096700
H21	H2	0.095700	0.218800	0.079100
C61	C6	0.050600	0.009800	0.068400
C71	C7	0.044000	0.861900	0.095800
H31	H3	0.015800	0.785900	0.077600
C81	C8	0.240100	0.797400	0.141800
C91	C9	0.219200	0.850800	0.079600
C101	C10	0.179100	0.753700	0.039800
C111	C11	0.157800	0.811100	0.983600
H41	H4	0.130700	0.749000	0.957300
C121	C12	0.176400	0.958100	0.966800
H51	H5	0.161700	0.994600	0.929100
C131	C13	0.216900	0.054400	0.005000
C141	C14	0.237100	0.998200	0.061360
H61	H6	0.263600	0.062000	0.087600
H71	H7	0.169600	0.590500	0.089400
N11	N1	0.235000	0.203500	0.981870
N21	N2	0.017900	0.053700	0.012300
O11	O1	0.265560	0.901100	0.176980
O21	O2	0.229100	0.654600	0.154820
O31	O3	0.169510	0.352800	0.153880
O41	O4	0.210810	0.191500	0.224310
O51	O5	0.155840	0.896100	0.229500
O61	O6	0.159200	0.605600	0.052790
Tm11	Tm1	0.252450	0.965250	0.271620
C151	C15	0.578800	0.330000	0.149200
H81	H8	0.573400	0.231800	0.166900
C161	C16	0.622500	0.438800	0.178700
C171	C17	0.627900	0.587400	0.151500
C181	C18	0.670900	0.716000	0.176800
C191	C19	0.591700	0.619700	0.096700
H91	H9	0.595700	0.718800	0.079100
C201	C20	0.550600	0.509800	0.068400
C211	C21	0.544000	0.361900	0.095800
H101	H10	0.515800	0.285900	0.077600
C221	C22	0.740100	0.297400	0.141800
C231	C23	0.719200	0.350800	0.079600
C241	C24	0.679100	0.253700	0.039800
C251	C25	0.657800	0.311100	0.983600
H111	H11	0.630700	0.249000	0.957300
C261	C26	0.676400	0.458100	0.966800
H121	H12	0.661700	0.494600	0.929100
C271	C27	0.716900	0.554400	0.005000
C281	C28	0.737100	0.498200	0.061360
H131	H13	0.763600	0.562000	0.087600
H141	H14	0.669600	0.090500	0.089400
N31	N3	0.735000	0.703500	0.981870
N41	N4	0.517900	0.553700	0.012300
O71	O7	0.765560	0.401100	0.176980
O81	O8	0.729100	0.154600	0.154820
O91	O9	0.669510	0.852800	0.153880
O101	O10	0.710810	0.691500	0.224310
O111	O11	0.655840	0.396100	0.229500
O121	O12	0.659200	0.105600	0.052790
Tm21	Tm2	0.752450	0.465250	0.271620
C291	C29	0.921200	0.830000	0.350800
H151	H15	0.926600	0.731800	0.333100
C301	C30	0.877500	0.938800	0.321300
C311	C31	0.872100	0.087400	0.348500
C321	C32	0.829100	0.216000	0.323200
C331	C33	0.908300	0.119700	0.403300
H161	H16	0.904300	0.218800	0.420900
C341	C34	0.949400	0.009800	0.431600
C351	C35	0.956000	0.861900	0.404200
H171	H17	0.984200	0.785900	0.422400
C361	C36	0.759900	0.797400	0.358200
C371	C37	0.780800	0.850800	0.420400
C381	C38	0.820900	0.753700	0.460200
C391	C39	0.842200	0.811100	0.516400
H181	H18	0.869300	0.749000	0.542700
C401	C40	0.823600	0.958100	0.533200
H191	H19	0.838300	0.994600	0.570900
C411	C41	0.783100	0.054400	0.495000
C421	C42	0.762900	0.998200	0.438640
H201	H20	0.736400	0.062000	0.412400
H211	H21	0.830400	0.590500	0.410600
N51	N5	0.765000	0.203500	0.518130
N61	N6	0.982100	0.053700	0.487700
O131	O13	0.734440	0.901100	0.323020
O141	O14	0.770900	0.654600	0.345180
O151	O15	0.830490	0.352800	0.346120
O161	O16	0.789190	0.191500	0.275690
O171	O17	0.844160	0.896100	0.270500
O181	O18	0.840800	0.605600	0.447210
Tm31	Tm3	0.747550	0.965250	0.228380
C431	C43	0.421200	0.330000	0.350800
H221	H22	0.426600	0.231800	0.333100
C441	C44	0.377500	0.438800	0.321300
C451	C45	0.372100	0.587400	0.348500
C461	C46	0.329100	0.716000	0.323200
C471	C47	0.408300	0.619700	0.403300
H231	H23	0.404300	0.718800	0.420900
C481	C48	0.449400	0.509800	0.431600
C491	C49	0.456000	0.361900	0.404200
H241	H24	0.484200	0.285900	0.422400
C501	C50	0.259900	0.297400	0.358200
C511	C51	0.280800	0.350800	0.420400
C521	C52	0.320900	0.253700	0.460200
C531	C53	0.342200	0.311100	0.516400
H251	H25	0.369300	0.249000	0.542700
C541	C54	0.323600	0.458100	0.533200
H261	H26	0.338300	0.494600	0.570900
C551	C55	0.283100	0.554400	0.495000
C561	C56	0.262900	0.498200	0.438640
H271	H27	0.236400	0.562000	0.412400
H281	H28	0.330400	0.090500	0.410600
N71	N7	0.265000	0.703500	0.518130
N81	N8	0.482100	0.553700	0.487700
O191	O19	0.234440	0.401100	0.323020
O201	O20	0.270900	0.154600	0.345180
O211	O21	0.330490	0.852800	0.346120
O221	O22	0.289190	0.691500	0.275690
O231	O23	0.344160	0.396100	0.270500
O241	O24	0.340800	0.105600	0.447210
Tm41	Tm4	0.247550	0.465250	0.228380
C571	C57	0.921200	0.170000	0.850800
H291	H29	0.926600	0.268200	0.833100
C581	C58	0.877500	0.061200	0.821300
C591	C59	0.872100	0.912600	0.848500
C601	C60	0.829100	0.784000	0.823200
C611	C61	0.908300	0.880300	0.903300
H301	H30	0.904300	0.781200	0.920900
C621	C62	0.949400	0.990200	0.931600
C631	C63	0.956000	0.138100	0.904200
H311	H31	0.984200	0.214100	0.922400
C641	C64	0.759900	0.202600	0.858200
C651	C65	0.780800	0.149200	0.920400
C661	C66	0.820900	0.246300	0.960200
C671	C67	0.842200	0.188900	0.016400
H321	H32	0.869300	0.251000	0.042700
C681	C68	0.823600	0.041900	0.033200
H331	H33	0.838300	0.005400	0.070900
C691	C69	0.783100	0.945600	0.995000
C701	C70	0.762900	0.001800	0.938640
H341	H34	0.736400	0.938000	0.912400
H351	H35	0.830400	0.409500	0.910600
N91	N9	0.765000	0.796500	0.018130
N101	N10	0.982100	0.946300	0.987700
O251	O25	0.734440	0.098900	0.823020
O261	O26	0.770900	0.345400	0.845180
O271	O27	0.830490	0.647200	0.846120
O281	O28	0.789190	0.808500	0.775690
O291	O29	0.844160	0.103900	0.770500
O301	O30	0.840800	0.394400	0.947210
Tm51	Tm5	0.747550	0.034750	0.728380
C711	C71	0.421200	0.670000	0.850800
H361	H36	0.426600	0.768200	0.833100
C721	C72	0.377500	0.561200	0.821300
C731	C73	0.372100	0.412600	0.848500
C741	C74	0.329100	0.284000	0.823200
C751	C75	0.408300	0.380300	0.903300
H371	H37	0.404300	0.281200	0.920900
C761	C76	0.449400	0.490200	0.931600
C771	C77	0.456000	0.638100	0.904200
H381	H38	0.484200	0.714100	0.922400
C781	C78	0.259900	0.702600	0.858200
C791	C79	0.280800	0.649200	0.920400
C801	C80	0.320900	0.746300	0.960200
C811	C81	0.342200	0.688900	0.016400
H391	H39	0.369300	0.751000	0.042700
C821	C82	0.323600	0.541900	0.033200
H401	H40	0.338300	0.505400	0.070900
C831	C83	0.283100	0.445600	0.995000
C841	C84	0.262900	0.501800	0.938640
H411	H41	0.236400	0.438000	0.912400
H421	H42	0.330400	0.909500	0.910600
N111	N11	0.265000	0.296500	0.018130
N121	N12	0.482100	0.446300	0.987700
O311	O31	0.234440	0.598900	0.823020
O321	O32	0.270900	0.845400	0.845180
O331	O33	0.330490	0.147200	0.846120
O341	O34	0.289190	0.308500	0.775690
O351	O35	0.344160	0.603900	0.770500
O361	O36	0.340800	0.894400	0.947210
Tm61	Tm6	0.247550	0.534750	0.728380
C851	C85	0.078800	0.170000	0.649200
H431	H43	0.073400	0.268200	0.666900
C861	C86	0.122500	0.061200	0.678700
C871	C87	0.127900	0.912600	0.651500
C881	C88	0.170900	0.784000	0.676800
C891	C89	0.091700	0.880300	0.596700
H441	H44	0.095700	0.781200	0.579100
C901	C90	0.050600	0.990200	0.568400
C911	C91	0.044000	0.138100	0.595800
H451	H45	0.015800	0.214100	0.577600
C921	C92	0.240100	0.202600	0.641800
C931	C93	0.219200	0.149200	0.579600
C941	C94	0.179100	0.246300	0.539800
C951	C95	0.157800	0.188900	0.483600
H461	H46	0.130700	0.251000	0.457300
C961	C96	0.176400	0.041900	0.466800
H471	H47	0.161700	0.005400	0.429100
C971	C97	0.216900	0.945600	0.505000
C981	C98	0.237100	0.001800	0.561360
H481	H48	0.263600	0.938000	0.587600
H491	H49	0.169600	0.409500	0.589400
N131	N13	0.235000	0.796500	0.481870
N141	N14	0.017900	0.946300	0.512300
O371	O37	0.265560	0.098900	0.676980
O381	O38	0.229100	0.345400	0.654820
O391	O39	0.169510	0.647200	0.653880
O401	O40	0.210810	0.808500	0.724310
O411	O41	0.155840	0.103900	0.729500
O421	O42	0.159200	0.394400	0.552790
Tm71	Tm7	0.252450	0.034750	0.771620
C991	C99	0.578800	0.670000	0.649200
H501	H50	0.573400	0.768200	0.666900
C1001	C100	0.622500	0.561200	0.678700
C1011	C101	0.627900	0.412600	0.651500
C1021	C102	0.670900	0.284000	0.676800
C1031	C103	0.591700	0.380300	0.596700
H511	H51	0.595700	0.281200	0.579100
C1041	C104	0.550600	0.490200	0.568400
C1051	C105	0.544000	0.638100	0.595800
H521	H52	0.515800	0.714100	0.577600
C1061	C106	0.740100	0.702600	0.641800
C1071	C107	0.719200	0.649200	0.579600
C1081	C108	0.679100	0.746300	0.539800
C1091	C109	0.657800	0.688900	0.483600
H531	H53	0.630700	0.751000	0.457300
C1101	C110	0.676400	0.541900	0.466800
H541	H54	0.661700	0.505400	0.429100
C1111	C111	0.716900	0.445600	0.505000
C1121	C112	0.737100	0.501800	0.561360
H551	H55	0.763600	0.438000	0.587600
H561	H56	0.669600	0.909500	0.589400
N151	N15	0.735000	0.296500	0.481870
N161	N16	0.517900	0.446300	0.512300
O431	O43	0.765560	0.598900	0.676980
O441	O44	0.729100	0.845400	0.654820
O451	O45	0.669510	0.147200	0.653880
O461	O46	0.710810	0.308500	0.724310
O471	O47	0.655840	0.603900	0.729500
O481	O48	0.659200	0.894400	0.552790
Tm81	Tm8	0.752450	0.534750	0.771620
