data_HAPVAX_clean_PM
_symmetry_space_group_name_H-M	'P1'
_cell_length_a	11.618200
_cell_length_b	15.588700
_cell_length_c	13.113400
_cell_angle_alpha	90.000000
_cell_angle_beta	90.000000
_cell_angle_gamma	90.000000
_symmetry_Int_Tables_number 1

loop_
_symmetry_equiv_pos_as_xyz
'x,y,z'

loop_
_atom_site_label
_atom_site_type_symbol
_atom_site_fract_x
_atom_site_fract_y
_atom_site_fract_z
Ce11	Ce1	0.750000	0.713650	0.061210
Ce21	Ce2	0.250000	0.786350	0.561210
Ce31	Ce3	0.250000	0.286350	0.938790
Ce41	Ce4	0.750000	0.213650	0.438790
U11	U1	0.750000	0.753000	0.342950
U21	U2	0.250000	0.747000	0.842950
U31	U3	0.250000	0.247000	0.657050
U41	U4	0.750000	0.253000	0.157050
U51	U5	0.000000	0.000000	0.000000
U61	U6	0.000000	0.500000	0.500000
U71	U7	0.500000	0.000000	0.000000
U81	U8	0.500000	0.500000	0.500000
C11	C1	0.870200	0.768600	0.718900
C21	C2	0.000800	0.766100	0.719500
C31	C3	0.810200	0.809200	0.797100
C41	C4	0.873400	0.855000	0.881200
C51	C5	0.874100	0.672800	0.566300
C61	C6	0.809800	0.727700	0.640400
C71	C7	0.129800	0.731400	0.218900
C81	C8	0.999200	0.733900	0.219500
C91	C9	0.189800	0.690800	0.297100
C101	C10	0.126600	0.645000	0.381200
C111	C11	0.125900	0.827200	0.066300
C121	C12	0.190200	0.772300	0.140400
C131	C13	0.370200	0.231400	0.281100
C141	C14	0.500800	0.233900	0.280500
C151	C15	0.310200	0.190800	0.202900
C161	C16	0.373400	0.145000	0.118800
C171	C17	0.374100	0.327200	0.433700
C181	C18	0.309800	0.272300	0.359600
C191	C19	0.629800	0.268600	0.781100
C201	C20	0.499200	0.266100	0.780500
C211	C21	0.689800	0.309200	0.702900
C221	C22	0.626600	0.355000	0.618800
C231	C23	0.625900	0.172800	0.933700
C241	C24	0.690200	0.227700	0.859600
C251	C25	0.129800	0.231400	0.281100
C261	C26	0.999200	0.233900	0.280500
C271	C27	0.189800	0.190800	0.202900
C281	C28	0.126600	0.145000	0.118800
C291	C29	0.125900	0.327200	0.433700
C301	C30	0.190200	0.272300	0.359600
C311	C31	0.870200	0.268600	0.781100
C321	C32	0.000800	0.266100	0.780500
C331	C33	0.810200	0.309200	0.702900
C341	C34	0.873400	0.355000	0.618800
C351	C35	0.874100	0.172800	0.933700
C361	C36	0.809800	0.227700	0.859600
C371	C37	0.629800	0.768600	0.718900
C381	C38	0.499200	0.766100	0.719500
C391	C39	0.689800	0.809200	0.797100
C401	C40	0.626600	0.855000	0.881200
C411	C41	0.625900	0.672800	0.566300
C421	C42	0.690200	0.727700	0.640400
C431	C43	0.370200	0.731400	0.218900
C441	C44	0.500800	0.733900	0.219500
C451	C45	0.310200	0.690800	0.297100
C461	C46	0.373400	0.645000	0.381200
C471	C47	0.374100	0.827200	0.066300
C481	C48	0.309800	0.772300	0.140400
O11	O1	0.925300	0.923200	0.857400
O21	O2	0.870800	0.826200	0.969700
O31	O3	0.931100	0.612300	0.604800
O41	O4	0.868100	0.685500	0.472400
O51	O5	0.047000	0.738600	0.800700
O61	O6	0.051400	0.791000	0.641000
O71	O7	0.074700	0.576800	0.357400
O81	O8	0.129200	0.673800	0.469700
O91	O9	0.068900	0.887700	0.104800
O101	O10	0.131900	0.814500	0.972400
O111	O11	0.953000	0.761400	0.300700
O121	O12	0.948600	0.709000	0.141000
O131	O13	0.425300	0.076800	0.142600
O141	O14	0.370800	0.173800	0.030300
O151	O15	0.431100	0.387700	0.395200
O161	O16	0.368100	0.314500	0.527600
O171	O17	0.547000	0.261400	0.199300
O181	O18	0.551400	0.209000	0.359000
O191	O19	0.574700	0.423200	0.642600
O201	O20	0.629200	0.326200	0.530300
O211	O21	0.568900	0.112300	0.895200
O221	O22	0.631900	0.185500	0.027600
O231	O23	0.453000	0.238600	0.699300
O241	O24	0.448600	0.291000	0.859000
O251	O25	0.074700	0.076800	0.142600
O261	O26	0.129200	0.173800	0.030300
O271	O27	0.068900	0.387700	0.395200
O281	O28	0.131900	0.314500	0.527600
O291	O29	0.953000	0.261400	0.199300
O301	O30	0.948600	0.209000	0.359000
O311	O31	0.925300	0.423200	0.642600
O321	O32	0.870800	0.326200	0.530300
O331	O33	0.931100	0.112300	0.895200
O341	O34	0.868100	0.185500	0.027600
O351	O35	0.047000	0.238600	0.699300
O361	O36	0.051400	0.291000	0.859000
O371	O37	0.574700	0.923200	0.857400
O381	O38	0.629200	0.826200	0.969700
O391	O39	0.568900	0.612300	0.604800
O401	O40	0.631900	0.685500	0.472400
O411	O41	0.453000	0.738600	0.800700
O421	O42	0.448600	0.791000	0.641000
O431	O43	0.425300	0.576800	0.357400
O441	O44	0.370800	0.673800	0.469700
O451	O45	0.431100	0.887700	0.104800
O461	O46	0.368100	0.814500	0.972400
O471	O47	0.547000	0.761400	0.300700
O481	O48	0.551400	0.709000	0.141000
O491	O49	0.750000	0.658900	0.266400
O501	O50	0.750000	0.822100	0.192300
O511	O51	0.250000	0.841100	0.766400
O521	O52	0.250000	0.677900	0.692300
O531	O53	0.250000	0.341100	0.733600
O541	O54	0.250000	0.177900	0.807700
O551	O55	0.750000	0.158900	0.233600
O561	O56	0.750000	0.322100	0.307700
