data_HAQJIV_clean_PM
_symmetry_space_group_name_H-M	'P1'
_cell_length_a	18.616000
_cell_length_b	18.616000
_cell_length_c	37.566000
_cell_angle_alpha	90.000000
_cell_angle_beta	90.000000
_cell_angle_gamma	120.000000
_symmetry_Int_Tables_number 1

loop_
_symmetry_equiv_pos_as_xyz
'x,y,z'

loop_
_atom_site_label
_atom_site_type_symbol
_atom_site_fract_x
_atom_site_fract_y
_atom_site_fract_z
Cu11	Cu1	0.523310	0.046540	0.608030
Cu21	Cu2	0.476770	0.953500	0.666030
C11	C1	0.636200	0.088900	0.663600
C21	C2	0.806900	0.196300	0.734900
C31	C3	0.718400	0.153200	0.683100
O11	O1	0.586000	0.030700	0.682600
C41	C4	0.846900	0.280500	0.682800
C51	C5	0.733900	0.139600	0.717200
H11	H1	0.695210	0.091830	0.728930
O21	O2	0.628500	0.110900	0.632200
C61	C6	0.862000	0.264600	0.716700
H21	H2	0.911730	0.301970	0.727640
C71	C7	0.772500	0.225300	0.662800
H31	H3	0.761520	0.235540	0.639790
C81	C8	0.910900	0.363600	0.664700
O31	O3	0.889600	0.371000	0.632400
O41	O4	0.969800	0.412300	0.682100
C91	C9	0.947800	0.181600	0.928400
C101	C10	0.887100	0.110300	0.943800
H41	H4	0.894710	0.101840	0.967610
C111	C11	0.932300	0.196500	0.895000
H51	H5	0.970130	0.247510	0.885230
C121	C12	0.764700	0.974300	0.945800
C131	C13	0.023700	0.233100	0.944700
C141	C14	0.806100	0.064800	0.894200
H61	H6	0.759160	0.023150	0.882940
C151	C15	0.861700	0.140700	0.872500
O51	O5	0.038400	0.222800	0.974100
O61	O6	0.776500	0.960900	0.974600
O71	O7	0.073700	0.298900	0.926700
O81	O8	0.701500	0.923500	0.925900
C161	C16	0.818000	0.051700	0.928200
N11	N1	0.820500	0.180300	0.769100
N21	N2	0.849800	0.151400	0.841000
C171	C17	0.790100	0.097000	0.779900
H71	H7	0.824960	0.077160	0.769880
H81	H8	0.734480	0.062730	0.770610
C181	C18	0.788200	0.088100	0.818200
H91	H9	0.789000	0.037360	0.823120
H101	H10	0.734630	0.078970	0.826120
C191	C19	0.913300	0.216100	0.819200
H111	H11	0.891050	0.253540	0.822130
C201	C20	0.003410	0.287000	0.815500
H121	H12	0.027660	0.304030	0.838710
H131	H13	0.034560	0.268230	0.801910
H141	H14	0.004300	0.333050	0.803580
C211	C21	0.903300	0.211400	0.781100
H151	H15	0.937620	0.266500	0.771260
H161	H16	0.923560	0.176300	0.771740
Cu31	Cu3	0.189980	0.379870	0.941360
Cu41	Cu4	0.143440	0.286830	0.999360
C221	C22	0.302870	0.422230	0.996930
C231	C23	0.473570	0.529630	0.068230
C241	C24	0.385070	0.486530	0.016430
O91	O9	0.252670	0.364030	0.015930
C251	C25	0.513570	0.613830	0.016130
C261	C26	0.400570	0.472930	0.050530
H171	H17	0.361880	0.425160	0.062260
O101	O10	0.295170	0.444230	0.965530
C271	C27	0.528670	0.597930	0.050030
H181	H18	0.578400	0.635300	0.060970
C281	C28	0.439170	0.558630	0.996130
H191	H19	0.428190	0.568870	0.973120
C291	C29	0.577570	0.696930	0.998030
O111	O11	0.556270	0.704330	0.965730
O121	O12	0.636470	0.745630	0.015430
C301	C30	0.614470	0.514930	0.261730
C311	C31	0.553770	0.443630	0.277130
H201	H20	0.561380	0.435170	0.300940
C321	C32	0.598970	0.529830	0.228330
H211	H21	0.636800	0.580840	0.218560
C331	C33	0.431370	0.307630	0.279130
C341	C34	0.690370	0.566430	0.278030
C351	C35	0.472770	0.398130	0.227530
H221	H22	0.425830	0.356480	0.216270
C361	C36	0.528370	0.474030	0.205830
O131	O13	0.705070	0.556130	0.307430
O141	O14	0.443170	0.294230	0.307930
O151	O15	0.740370	0.632230	0.260030
O161	O16	0.368170	0.256830	0.259230
C371	C37	0.484670	0.385030	0.261530
N31	N3	0.487170	0.513630	0.102430
N41	N4	0.516470	0.484730	0.174330
C381	C38	0.456770	0.430330	0.113230
H231	H23	0.491630	0.410490	0.103210
H241	H24	0.401150	0.396060	0.103940
C391	C39	0.454870	0.421430	0.151530
H251	H25	0.455670	0.370690	0.156450
H261	H26	0.401300	0.412300	0.159450
C401	C40	0.579970	0.549430	0.152530
H271	H27	0.557720	0.586870	0.155460
C411	C41	0.670080	0.620330	0.148830
H281	H28	0.694330	0.637360	0.172040
H291	H29	0.701230	0.601560	0.135240
H301	H30	0.670970	0.666380	0.136910
C421	C42	0.569970	0.544730	0.114430
H311	H31	0.604290	0.599830	0.104590
H321	H32	0.590230	0.509630	0.105070
Cu51	Cu5	0.856640	0.713210	0.274700
Cu61	Cu6	0.810100	0.620170	0.332700
C431	C43	0.969530	0.755570	0.330270
C441	C44	0.140230	0.862970	0.401570
C451	C45	0.051730	0.819870	0.349770
O171	O17	0.919330	0.697370	0.349270
C461	C46	0.180230	0.947170	0.349470
C471	C47	0.067230	0.806270	0.383870
H331	H33	0.028540	0.758500	0.395600
O181	O18	0.961830	0.777570	0.298870
C481	C48	0.195330	0.931270	0.383370
H341	H34	0.245060	0.968640	0.394310
C491	C49	0.105830	0.891970	0.329470
H351	H35	0.094850	0.902210	0.306460
C501	C50	0.244230	0.030270	0.331370
O191	O19	0.222930	0.037670	0.299070
O201	O20	0.303130	0.078970	0.348770
C511	C51	0.281130	0.848270	0.595070
C521	C52	0.220430	0.776970	0.610470
H361	H36	0.228040	0.768510	0.634280
C531	C53	0.265630	0.863170	0.561670
H371	H37	0.303460	0.914180	0.551900
C541	C54	0.098030	0.640970	0.612470
C551	C55	0.357030	0.899770	0.611370
C561	C56	0.139430	0.731470	0.560870
H381	H38	0.092490	0.689820	0.549610
C571	C57	0.195030	0.807370	0.539170
O211	O21	0.371730	0.889470	0.640770
O221	O22	0.109830	0.627570	0.641270
O231	O23	0.407030	0.965570	0.593370
O241	O24	0.034830	0.590170	0.592570
C581	C58	0.151330	0.718370	0.594870
N51	N5	0.153830	0.846970	0.435770
N61	N6	0.183130	0.818070	0.507670
C591	C59	0.123430	0.763670	0.446570
H391	H39	0.158290	0.743830	0.436550
H401	H40	0.067810	0.729400	0.437280
C601	C60	0.121530	0.754770	0.484870
H411	H41	0.122330	0.704030	0.489790
H421	H42	0.067960	0.745640	0.492790
C611	C61	0.246630	0.882770	0.485870
H431	H43	0.224380	0.920210	0.488800
C621	C62	0.336740	0.953670	0.482170
H441	H44	0.360990	0.970700	0.505380
H451	H45	0.367890	0.934900	0.468580
H461	H46	0.337630	0.999720	0.470250
C631	C63	0.236630	0.878070	0.447770
H471	H47	0.270950	0.933170	0.437930
H481	H48	0.256890	0.842970	0.438410
Cu71	Cu7	0.953460	0.476770	0.608030
Cu81	Cu8	0.046500	0.523270	0.666030
C641	C64	0.911100	0.547300	0.663600
C651	C65	0.803700	0.610600	0.734900
C661	C66	0.846800	0.565200	0.683100
O251	O25	0.969300	0.555300	0.682600
C671	C67	0.719500	0.566400	0.682800
C681	C68	0.860400	0.594300	0.717200
H491	H49	0.908170	0.603380	0.728930
O261	O26	0.889100	0.517600	0.632200
C691	C69	0.735400	0.597400	0.716700
H501	H50	0.698030	0.609760	0.727640
C701	C70	0.774700	0.547200	0.662800
H511	H51	0.764460	0.525980	0.639790
C711	C71	0.636400	0.547300	0.664700
O271	O27	0.629000	0.518600	0.632400
O281	O28	0.587700	0.557500	0.682100
C721	C72	0.818400	0.766200	0.928400
C731	C73	0.889700	0.776800	0.943800
H521	H52	0.898160	0.792870	0.967610
C741	C74	0.803500	0.735800	0.895000
H531	H53	0.752490	0.722620	0.885230
C751	C75	0.025700	0.790400	0.945800
C761	C76	0.766900	0.790600	0.944700
C771	C77	0.935200	0.741300	0.894200
H541	H54	0.976850	0.736010	0.882940
C781	C78	0.859300	0.721000	0.872500
O291	O29	0.777200	0.815600	0.974100
O301	O30	0.039100	0.815600	0.974600
O311	O31	0.701100	0.774800	0.926700
O321	O32	0.076500	0.778000	0.925900
C791	C79	0.948300	0.766300	0.928200
N71	N7	0.819700	0.640200	0.769100
N81	N8	0.848600	0.698400	0.841000
C801	C80	0.903000	0.693100	0.779900
H551	H55	0.922840	0.747800	0.769880
H561	H56	0.937270	0.671750	0.770610
C811	C81	0.911900	0.700100	0.818200
H571	H57	0.962640	0.751640	0.823120
H581	H58	0.921030	0.655660	0.826120
C821	C82	0.783900	0.697200	0.819200
H591	H59	0.746460	0.637510	0.822130
C831	C83	0.713000	0.716410	0.815500
H601	H60	0.695970	0.723630	0.838710
H611	H61	0.731770	0.766330	0.801910
H621	H62	0.666950	0.671250	0.803580
C841	C84	0.788600	0.691900	0.781100
H631	H63	0.733500	0.671120	0.771260
H641	H64	0.823700	0.747260	0.771740
Cu91	Cu9	0.620130	0.810100	0.941360
Cu101	Cu10	0.713170	0.856600	0.999360
C851	C85	0.577770	0.880630	0.996930
C861	C86	0.470370	0.943930	0.068230
C871	C87	0.513470	0.898530	0.016430
O331	O33	0.635970	0.888630	0.015930
C881	C88	0.386170	0.899730	0.016130
C891	C89	0.527070	0.927630	0.050530
H651	H65	0.574840	0.936710	0.062260
O341	O34	0.555770	0.850930	0.965530
C901	C90	0.402070	0.930730	0.050030
H661	H66	0.364700	0.943090	0.060970
C911	C91	0.441370	0.880530	0.996130
H671	H67	0.431130	0.859310	0.973120
C921	C92	0.303070	0.880630	0.998030
O351	O35	0.295670	0.851930	0.965730
O361	O36	0.254370	0.890830	0.015430
C931	C93	0.485070	0.099530	0.261730
C941	C94	0.556370	0.110130	0.277130
H681	H68	0.564830	0.126200	0.300940
C951	C95	0.470170	0.069130	0.228330
H691	H69	0.419160	0.055950	0.218560
C961	C96	0.692370	0.123730	0.279130
C971	C97	0.433570	0.123930	0.278030
C981	C98	0.601870	0.074630	0.227530
H701	H70	0.643520	0.069340	0.216270
C991	C99	0.525970	0.054330	0.205830
O371	O37	0.443870	0.148930	0.307430
O381	O38	0.705770	0.148930	0.307930
O391	O39	0.367770	0.108130	0.260030
O401	O40	0.743170	0.111330	0.259230
C1001	C100	0.614970	0.099630	0.261530
N91	N9	0.486370	0.973530	0.102430
N101	N10	0.515270	0.031730	0.174330
C1011	C101	0.569670	0.026430	0.113230
H711	H71	0.589510	0.081130	0.103210
H721	H72	0.603940	0.005080	0.103940
C1021	C102	0.578570	0.033430	0.151530
H731	H73	0.629310	0.084970	0.156450
H741	H74	0.587700	0.988990	0.159450
C1031	C103	0.450570	0.030530	0.152530
H751	H75	0.413130	0.970840	0.155460
C1041	C104	0.379670	0.049740	0.148830
H761	H76	0.362640	0.056960	0.172040
H771	H77	0.398440	0.099660	0.135240
H781	H78	0.333620	0.004580	0.136910
C1051	C105	0.455270	0.025230	0.114430
H791	H79	0.400170	0.004450	0.104590
H801	H80	0.490370	0.080590	0.105070
Cu111	Cu11	0.286790	0.143440	0.274700
Cu121	Cu12	0.379830	0.189940	0.332700
C1061	C106	0.244430	0.213970	0.330270
C1071	C107	0.137030	0.277270	0.401570
C1081	C108	0.180130	0.231870	0.349770
O411	O41	0.302630	0.221970	0.349270
C1091	C109	0.052830	0.233070	0.349470
C1101	C110	0.193730	0.260970	0.383870
H811	H81	0.241500	0.270050	0.395600
O421	O42	0.222430	0.184270	0.298870
C1111	C111	0.068730	0.264070	0.383370
H821	H82	0.031360	0.276430	0.394310
C1121	C112	0.108030	0.213870	0.329470
H831	H83	0.097790	0.192650	0.306460
C1131	C113	0.969730	0.213970	0.331370
O431	O43	0.962330	0.185270	0.299070
O441	O44	0.921030	0.224170	0.348770
C1141	C114	0.151730	0.432870	0.595070
C1151	C115	0.223030	0.443470	0.610470
H841	H84	0.231490	0.459540	0.634280
C1161	C116	0.136830	0.402470	0.561670
H851	H85	0.085820	0.389290	0.551900
C1171	C117	0.359030	0.457070	0.612470
C1181	C118	0.100230	0.457270	0.611370
C1191	C119	0.268530	0.407970	0.560870
H861	H86	0.310180	0.402680	0.549610
C1201	C120	0.192630	0.387670	0.539170
O451	O45	0.110530	0.482270	0.640770
O461	O46	0.372430	0.482270	0.641270
O471	O47	0.034430	0.441470	0.593370
O481	O48	0.409830	0.444670	0.592570
C1211	C121	0.281630	0.432970	0.594870
N111	N11	0.153030	0.306870	0.435770
N121	N12	0.181930	0.365070	0.507670
C1221	C122	0.236330	0.359770	0.446570
H871	H87	0.256170	0.414470	0.436550
H881	H88	0.270600	0.338420	0.437280
C1231	C123	0.245230	0.366770	0.484870
H891	H89	0.295970	0.418310	0.489790
H901	H90	0.254360	0.322330	0.492790
C1241	C124	0.117230	0.363870	0.485870
H911	H91	0.079790	0.304180	0.488800
C1251	C125	0.046330	0.383080	0.482170
H921	H92	0.029300	0.390300	0.505380
H931	H93	0.065100	0.433000	0.468580
H941	H94	0.000280	0.337920	0.470250
C1261	C126	0.121930	0.358570	0.447770
H951	H95	0.066830	0.337790	0.437930
H961	H96	0.157030	0.413930	0.438410
Cu131	Cu13	0.523230	0.476690	0.608030
Cu141	Cu14	0.476730	0.523230	0.666030
C1271	C127	0.452700	0.363800	0.663600
C1281	C128	0.389400	0.193100	0.734900
C1291	C129	0.434800	0.281600	0.683100
O491	O49	0.444700	0.414000	0.682600
C1301	C130	0.433600	0.153100	0.682800
C1311	C131	0.405700	0.266100	0.717200
H971	H97	0.396620	0.304790	0.728930
O501	O50	0.482400	0.371500	0.632200
C1321	C132	0.402600	0.138000	0.716700
H981	H98	0.390240	0.088270	0.727640
C1331	C133	0.452800	0.227500	0.662800
H991	H99	0.474020	0.238480	0.639790
C1341	C134	0.452700	0.089100	0.664700
O511	O51	0.481400	0.110400	0.632400
O521	O52	0.442500	0.030200	0.682100
C1351	C135	0.233800	0.052200	0.928400
C1361	C136	0.223200	0.112900	0.943800
H1001	H100	0.207130	0.105290	0.967610
C1371	C137	0.264200	0.067700	0.895000
H1011	H101	0.277380	0.029870	0.885230
C1381	C138	0.209600	0.235300	0.945800
C1391	C139	0.209400	0.976300	0.944700
C1401	C140	0.258700	0.193900	0.894200
H1021	H102	0.263990	0.240840	0.882940
C1411	C141	0.279000	0.138300	0.872500
O531	O53	0.184400	0.961600	0.974100
O541	O54	0.184400	0.223500	0.974600
O551	O55	0.225200	0.926300	0.926700
O561	O56	0.222000	0.298500	0.925900
C1421	C142	0.233700	0.182000	0.928200
N131	N13	0.359800	0.179500	0.769100
N141	N14	0.301600	0.150200	0.841000
C1431	C143	0.306900	0.209900	0.779900
H1031	H103	0.252200	0.175040	0.769880
H1041	H104	0.328250	0.265520	0.770610
C1441	C144	0.299900	0.211800	0.818200
H1051	H105	0.248360	0.211000	0.823120
H1061	H106	0.344340	0.265370	0.826120
C1451	C145	0.302800	0.086700	0.819200
H1071	H107	0.362490	0.108950	0.822130
C1461	C146	0.283590	0.996590	0.815500
H1081	H108	0.276370	0.972340	0.838710
H1091	H109	0.233670	0.965440	0.801910
H1101	H110	0.328750	0.995700	0.803580
C1471	C147	0.308100	0.096700	0.781100
H1111	H111	0.328880	0.062380	0.771260
H1121	H112	0.252740	0.076440	0.771740
Cu151	Cu15	0.189900	0.810020	0.941360
Cu161	Cu16	0.143400	0.856560	0.999360
C1481	C148	0.119370	0.697130	0.996930
C1491	C149	0.056070	0.526430	0.068230
C1501	C150	0.101470	0.614930	0.016430
O571	O57	0.111370	0.747330	0.015930
C1511	C151	0.100270	0.486430	0.016130
C1521	C152	0.072370	0.599430	0.050530
H1131	H113	0.063290	0.638120	0.062260
O581	O58	0.149070	0.704830	0.965530
C1531	C153	0.069270	0.471330	0.050030
H1141	H114	0.056910	0.421600	0.060970
C1541	C154	0.119470	0.560830	0.996130
H1151	H115	0.140690	0.571810	0.973120
C1551	C155	0.119370	0.422430	0.998030
O591	O59	0.148070	0.443730	0.965730
O601	O60	0.109170	0.363530	0.015430
C1561	C156	0.900470	0.385530	0.261730
C1571	C157	0.889870	0.446230	0.277130
H1161	H116	0.873800	0.438620	0.300940
C1581	C158	0.930870	0.401030	0.228330
H1171	H117	0.944050	0.363200	0.218560
C1591	C159	0.876270	0.568630	0.279130
C1601	C160	0.876070	0.309630	0.278030
C1611	C161	0.925370	0.527230	0.227530
H1181	H118	0.930660	0.574170	0.216270
C1621	C162	0.945670	0.471630	0.205830
O611	O61	0.851070	0.294930	0.307430
O621	O62	0.851070	0.556830	0.307930
O631	O63	0.891870	0.259630	0.260030
O641	O64	0.888670	0.631830	0.259230
C1631	C163	0.900370	0.515330	0.261530
N151	N15	0.026470	0.512830	0.102430
N161	N16	0.968270	0.483530	0.174330
C1641	C164	0.973570	0.543230	0.113230
H1191	H119	0.918870	0.508370	0.103210
H1201	H120	0.994920	0.598850	0.103940
C1651	C165	0.966570	0.545130	0.151530
H1211	H121	0.915030	0.544330	0.156450
H1221	H122	0.011010	0.598700	0.159450
C1661	C166	0.969470	0.420030	0.152530
H1231	H123	0.029160	0.442280	0.155460
C1671	C167	0.950260	0.329920	0.148830
H1241	H124	0.943040	0.305670	0.172040
H1251	H125	0.900340	0.298770	0.135240
H1261	H126	0.995420	0.329030	0.136910
C1681	C168	0.974770	0.430030	0.114430
H1271	H127	0.995550	0.395710	0.104590
H1281	H128	0.919410	0.409770	0.105070
Cu171	Cu17	0.856560	0.143360	0.274700
Cu181	Cu18	0.810060	0.189900	0.332700
C1691	C169	0.786030	0.030470	0.330270
C1701	C170	0.722730	0.859770	0.401570
C1711	C171	0.768130	0.948270	0.349770
O651	O65	0.778030	0.080670	0.349270
C1721	C172	0.766930	0.819770	0.349470
C1731	C173	0.739030	0.932770	0.383870
H1291	H129	0.729950	0.971460	0.395600
O661	O66	0.815730	0.038170	0.298870
C1741	C174	0.735930	0.804670	0.383370
H1301	H130	0.723570	0.754940	0.394310
C1751	C175	0.786130	0.894170	0.329470
H1311	H131	0.807350	0.905150	0.306460
C1761	C176	0.786030	0.755770	0.331370
O671	O67	0.814730	0.777070	0.299070
O681	O68	0.775830	0.696870	0.348770
C1771	C177	0.567130	0.718870	0.595070
C1781	C178	0.556530	0.779570	0.610470
H1321	H132	0.540460	0.771960	0.634280
C1791	C179	0.597530	0.734370	0.561670
H1331	H133	0.610710	0.696540	0.551900
C1801	C180	0.542930	0.901970	0.612470
C1811	C181	0.542730	0.642970	0.611370
C1821	C182	0.592030	0.860570	0.560870
H1341	H134	0.597320	0.907510	0.549610
C1831	C183	0.612330	0.804970	0.539170
O691	O69	0.517730	0.628270	0.640770
O701	O70	0.517730	0.890170	0.641270
O711	O71	0.558530	0.592970	0.593370
O721	O72	0.555330	0.965170	0.592570
C1841	C184	0.567030	0.848670	0.594870
N171	N17	0.693130	0.846170	0.435770
N181	N18	0.634930	0.816870	0.507670
C1851	C185	0.640230	0.876570	0.446570
H1351	H135	0.585530	0.841710	0.436550
H1361	H136	0.661580	0.932190	0.437280
C1861	C186	0.633230	0.878470	0.484870
H1371	H137	0.581690	0.877670	0.489790
H1381	H138	0.677670	0.932040	0.492790
C1871	C187	0.636130	0.753370	0.485870
H1391	H139	0.695820	0.775620	0.488800
C1881	C188	0.616920	0.663260	0.482170
H1401	H140	0.609700	0.639010	0.505380
H1411	H141	0.567000	0.632110	0.468580
H1421	H142	0.662080	0.662370	0.470250
C1891	C189	0.641430	0.763370	0.447770
H1431	H143	0.662210	0.729050	0.437930
H1441	H144	0.586070	0.743110	0.438410
