data_HAQKES_clean_PM
_symmetry_space_group_name_H-M	'P1'
_cell_length_a	26.343000
_cell_length_b	27.158000
_cell_length_c	27.158000
_cell_angle_alpha	90.000000
_cell_angle_beta	90.000000
_cell_angle_gamma	90.000000
_symmetry_Int_Tables_number 1

loop_
_symmetry_equiv_pos_as_xyz
'x,y,z'

loop_
_atom_site_label
_atom_site_type_symbol
_atom_site_fract_x
_atom_site_fract_y
_atom_site_fract_z
Cd11	Cd1	0.634200	0.340210	0.187520
Cd21	Cd2	0.698280	0.142190	0.325250
Cd31	Cd3	0.831830	0.199190	0.124330
Cd41	Cd4	0.596350	0.111470	0.099020
Cu11	Cu1	0.618710	0.223660	0.145300
Cu21	Cu2	0.758090	0.171620	0.225260
Cu31	Cu3	0.665420	0.241660	0.251340
Cu41	Cu4	0.645300	0.132320	0.212780
Cu51	Cu5	0.732050	0.263450	0.157210
Cu61	Cu6	0.711880	0.154270	0.118660
C11	C1	0.663500	0.277000	0.905900
H11	H1	0.644300	0.264300	0.880100
C21	C2	0.717700	0.331800	0.934000
H21	H2	0.739000	0.358500	0.928000
C31	C3	0.716400	0.314200	0.980100
H31	H3	0.735100	0.329300	0.005000
C41	C4	0.686600	0.272800	0.990100
C51	C5	0.759300	0.246400	0.303600
H41	H4	0.786500	0.228500	0.319700
H51	H5	0.739900	0.263200	0.328900
C61	C6	0.542900	0.168100	0.199100
H61	H6	0.530500	0.135900	0.209200
H71	H7	0.518400	0.181700	0.176200
C71	C7	0.545600	0.201500	0.244500
C81	C8	0.582500	0.182400	0.283500
H81	H8	0.580700	0.204200	0.311700
H91	H9	0.570600	0.150300	0.294300
C91	C9	0.685600	0.250600	0.044300
C101	C10	0.650700	0.206000	0.045800
H101	H10	0.616800	0.216200	0.036300
H111	H11	0.662300	0.182200	0.021600
C111	C11	0.660000	0.253500	0.952400
H121	H12	0.639900	0.225700	0.956700
C121	C12	0.743500	0.319600	0.245300
H131	H13	0.727000	0.338800	0.270800
H141	H14	0.761200	0.342300	0.223700
C131	C13	0.782100	0.284300	0.269100
C141	C14	0.814400	0.260300	0.227900
H151	H15	0.830800	0.286200	0.209000
H161	H16	0.841000	0.240700	0.243000
C151	C15	0.694900	0.054800	0.155100
H171	H17	0.703700	0.043200	0.122400
H181	H18	0.671000	0.031600	0.169100
C161	C16	0.741600	0.055100	0.185900
C171	C17	0.729900	0.068800	0.238200
H191	H19	0.705300	0.045600	0.251100
H201	H20	0.760600	0.065600	0.257600
C181	C18	0.784500	0.086900	0.164600
H211	H21	0.814300	0.083900	0.185400
H221	H22	0.793300	0.074900	0.132100
C191	C19	0.559700	0.253200	0.229600
H231	H23	0.534300	0.265300	0.206700
H241	H24	0.558400	0.274000	0.258600
C201	C20	0.740900	0.234500	0.055000
H251	H25	0.750900	0.209400	0.031500
H261	H26	0.763300	0.262500	0.050700
C211	C21	0.493900	0.203200	0.271500
C221	C22	0.816900	0.318700	0.110600
C231	C23	0.764500	0.003400	0.186300
C241	C24	0.628200	0.333300	0.307800
C251	C25	0.819200	0.317600	0.301100
C261	C26	0.803700	0.347100	0.334300
H271	H27	0.768900	0.352500	0.336000
C271	C27	0.899900	0.337100	0.336100
H281	H28	0.934600	0.330400	0.335900
C281	C28	0.868300	0.312900	0.304200
H291	H29	0.883500	0.290900	0.282500
C291	C29	0.834100	0.372200	0.368500
H301	H30	0.819100	0.391300	0.392900
C301	C30	0.621000	0.359500	0.356400
H311	H31	0.611400	0.393100	0.350500
H321	H32	0.652200	0.358800	0.374700
H331	H33	0.594900	0.343400	0.375000
C311	C31	0.465200	0.161500	0.279100
H341	H34	0.476900	0.132000	0.266000
C321	C32	0.475000	0.243000	0.294200
H351	H35	0.492000	0.272900	0.292100
C331	C33	0.840400	0.367100	0.086800
H361	H36	0.873600	0.360000	0.074200
H371	H37	0.842600	0.392400	0.111300
H381	H38	0.819000	0.378000	0.060300
C341	C34	0.430300	0.239700	0.320600
H391	H39	0.418100	0.268600	0.334600
C351	C35	0.419800	0.160800	0.305000
H401	H40	0.400700	0.132100	0.306100
C361	C36	0.767400	0.975700	0.146500
H411	H41	0.754300	0.987100	0.116800
C371	C37	0.782800	0.981600	0.227200
H421	H42	0.778100	0.997300	0.257300
C381	C38	0.809900	0.934100	0.226700
H431	H43	0.823400	0.921300	0.255700
C391	C39	0.791200	0.927100	0.149000
H441	H44	0.788800	0.907100	0.121300
C401	C40	0.821700	0.134700	0.310300
C411	C41	0.876700	0.129700	0.336300
H451	H45	0.872200	0.122400	0.370700
H461	H46	0.894900	0.160200	0.332900
H471	H47	0.895500	0.103700	0.320900
C421	C42	0.654500	0.058000	0.362800
C431	C43	0.632900	0.014100	0.388700
H481	H48	0.638800	0.985100	0.369300
H491	H49	0.597000	0.018500	0.393200
H501	H50	0.648900	0.010400	0.420200
C441	C44	0.701300	0.093200	0.027700
C451	C45	0.667200	0.292400	0.077500
H511	H51	0.689900	0.320300	0.074000
H521	H52	0.633700	0.302700	0.066800
C461	C46	0.724000	0.083100	0.972100
H531	H53	0.759000	0.092700	0.971000
H541	H54	0.705000	0.102100	0.948600
H551	H55	0.721100	0.048800	0.964400
N11	N1	0.691600	0.314900	0.896900
N21	N2	0.882100	0.368900	0.366000
N31	N3	0.403800	0.200100	0.327800
N41	N4	0.814600	0.910300	0.185600
O11	O1	0.664700	0.278800	0.128700
O21	O2	0.705500	0.293000	0.217400
O31	O3	0.608700	0.258400	0.207300
O41	O4	0.726900	0.212000	0.278500
O51	O5	0.641200	0.288000	0.310500
O61	O6	0.648000	0.182400	0.092800
O71	O7	0.786800	0.230400	0.195600
O81	O8	0.590200	0.162000	0.174400
O91	O9	0.774700	0.323000	0.127600
O101	O10	0.770200	0.139600	0.161000
O111	O11	0.633500	0.177800	0.269900
O121	O12	0.746600	0.215800	0.103400
O131	O13	0.669800	0.103200	0.150600
O141	O14	0.821300	0.146400	0.264900
O151	O15	0.620100	0.357000	0.269200
O161	O16	0.734100	0.112700	0.054600
O171	O17	0.710300	0.118000	0.244400
O181	O18	0.845400	0.282200	0.107200
O191	O19	0.784100	0.132000	0.338000
O201	O20	0.632000	0.084600	0.342400
O211	O21	0.697400	0.065200	0.367500
O221	O22	0.645300	0.080900	0.037800
Cd51	Cd5	0.865800	0.659790	0.687520
Cd61	Cd6	0.801720	0.857810	0.825250
Cd71	Cd7	0.668170	0.800810	0.624330
Cd81	Cd8	0.903650	0.888530	0.599020
Cu71	Cu7	0.881290	0.776340	0.645300
Cu81	Cu8	0.741910	0.828380	0.725260
Cu91	Cu9	0.834580	0.758340	0.751340
Cu101	Cu10	0.854700	0.867680	0.712780
Cu111	Cu11	0.767950	0.736550	0.657210
Cu121	Cu12	0.788120	0.845730	0.618660
C471	C47	0.836500	0.723000	0.405900
H561	H56	0.855700	0.735700	0.380100
C481	C48	0.782300	0.668200	0.434000
H571	H57	0.761000	0.641500	0.428000
C491	C49	0.783600	0.685800	0.480100
H581	H58	0.764900	0.670700	0.505000
C501	C50	0.813400	0.727200	0.490100
C511	C51	0.740700	0.753600	0.803600
H591	H59	0.713500	0.771500	0.819700
H601	H60	0.760100	0.736800	0.828900
C521	C52	0.957100	0.831900	0.699100
H611	H61	0.969500	0.864100	0.709200
H621	H62	0.981600	0.818300	0.676200
C531	C53	0.954400	0.798500	0.744500
C541	C54	0.917500	0.817600	0.783500
H631	H63	0.919300	0.795800	0.811700
H641	H64	0.929400	0.849700	0.794300
C551	C55	0.814400	0.749400	0.544300
C561	C56	0.849300	0.794000	0.545800
H651	H65	0.883200	0.783800	0.536300
H661	H66	0.837700	0.817800	0.521600
C571	C57	0.840000	0.746500	0.452400
H671	H67	0.860100	0.774300	0.456700
C581	C58	0.756500	0.680400	0.745300
H681	H68	0.773000	0.661200	0.770800
H691	H69	0.738800	0.657700	0.723700
C591	C59	0.717900	0.715700	0.769100
C601	C60	0.685600	0.739700	0.727900
H701	H70	0.669200	0.713800	0.709000
H711	H71	0.659000	0.759300	0.743000
C611	C61	0.805100	0.945200	0.655100
H721	H72	0.796300	0.956800	0.622400
H731	H73	0.829000	0.968400	0.669100
C621	C62	0.758400	0.944900	0.685900
C631	C63	0.770100	0.931200	0.738200
H741	H74	0.794700	0.954400	0.751100
H751	H75	0.739400	0.934400	0.757600
C641	C64	0.715500	0.913100	0.664600
H761	H76	0.685700	0.916100	0.685400
H771	H77	0.706700	0.925100	0.632100
C651	C65	0.940300	0.746800	0.729600
H781	H78	0.965700	0.734700	0.706700
H791	H79	0.941600	0.726000	0.758600
C661	C66	0.759100	0.765500	0.555000
H801	H80	0.749100	0.790600	0.531500
H811	H81	0.736700	0.737500	0.550700
C671	C67	0.006100	0.796800	0.771500
C681	C68	0.683100	0.681300	0.610600
C691	C69	0.735500	0.996600	0.686300
C701	C70	0.871800	0.666700	0.807800
C711	C71	0.680800	0.682400	0.801100
C721	C72	0.696300	0.652900	0.834300
H821	H82	0.731100	0.647500	0.836000
C731	C73	0.600100	0.662900	0.836100
H831	H83	0.565400	0.669600	0.835900
C741	C74	0.631700	0.687100	0.804200
H841	H84	0.616500	0.709100	0.782500
C751	C75	0.665900	0.627800	0.868500
H851	H85	0.680900	0.608700	0.892900
C761	C76	0.879000	0.640500	0.856400
H861	H86	0.888600	0.606900	0.850500
H871	H87	0.847800	0.641200	0.874700
H881	H88	0.905100	0.656600	0.875000
C771	C77	0.034800	0.838500	0.779100
H891	H89	0.023100	0.868000	0.766000
C781	C78	0.025000	0.757000	0.794200
H901	H90	0.008000	0.727100	0.792100
C791	C79	0.659600	0.632900	0.586800
H911	H91	0.626400	0.640000	0.574200
H921	H92	0.657400	0.607600	0.611300
H931	H93	0.681000	0.622000	0.560300
C801	C80	0.069700	0.760300	0.820600
H941	H94	0.081900	0.731400	0.834600
C811	C81	0.080200	0.839200	0.805000
H951	H95	0.099300	0.867900	0.806100
C821	C82	0.732600	0.024300	0.646500
H961	H96	0.745700	0.012900	0.616800
C831	C83	0.717200	0.018400	0.727200
H971	H97	0.721900	0.002700	0.757300
C841	C84	0.690100	0.065900	0.726700
H981	H98	0.676600	0.078700	0.755700
C851	C85	0.708800	0.072900	0.649000
H991	H99	0.711200	0.092900	0.621300
C861	C86	0.678300	0.865300	0.810300
C871	C87	0.623300	0.870300	0.836300
H1001	H100	0.627800	0.877600	0.870700
H1011	H101	0.605100	0.839800	0.832900
H1021	H102	0.604500	0.896300	0.820900
C881	C88	0.845500	0.942000	0.862800
C891	C89	0.867100	0.985900	0.888700
H1031	H103	0.861200	0.014900	0.869300
H1041	H104	0.903000	0.981500	0.893200
H1051	H105	0.851100	0.989600	0.920200
C901	C90	0.798700	0.906800	0.527700
C911	C91	0.832800	0.707600	0.577500
H1061	H106	0.810100	0.679700	0.574000
H1071	H107	0.866300	0.697300	0.566800
C921	C92	0.776000	0.916900	0.472100
H1081	H108	0.741000	0.907300	0.471000
H1091	H109	0.795000	0.897900	0.448600
H1101	H110	0.778900	0.951200	0.464400
N51	N5	0.808400	0.685100	0.396900
N61	N6	0.617900	0.631100	0.866000
N71	N7	0.096200	0.799900	0.827800
N81	N8	0.685400	0.089700	0.685600
O231	O23	0.835300	0.721200	0.628700
O241	O24	0.794500	0.707000	0.717400
O251	O25	0.891300	0.741600	0.707300
O261	O26	0.773100	0.788000	0.778500
O271	O27	0.858800	0.712000	0.810500
O281	O28	0.852000	0.817600	0.592800
O291	O29	0.713200	0.769600	0.695600
O301	O30	0.909800	0.838000	0.674400
O311	O31	0.725300	0.677000	0.627600
O321	O32	0.729800	0.860400	0.661000
O331	O33	0.866500	0.822200	0.769900
O341	O34	0.753400	0.784200	0.603400
O351	O35	0.830200	0.896800	0.650600
O361	O36	0.678700	0.853600	0.764900
O371	O37	0.879900	0.643000	0.769200
O381	O38	0.765900	0.887300	0.554600
O391	O39	0.789700	0.882000	0.744400
O401	O40	0.654600	0.717800	0.607200
O411	O41	0.715900	0.868000	0.838000
O421	O42	0.868000	0.915400	0.842400
O431	O43	0.802600	0.934800	0.867500
O441	O44	0.854700	0.919100	0.537800
Cd91	Cd9	0.365800	0.840210	0.312480
Cd101	Cd10	0.301720	0.642190	0.174750
Cd111	Cd11	0.168170	0.699190	0.375670
Cd121	Cd12	0.403650	0.611470	0.400980
Cu131	Cu13	0.381290	0.723660	0.354700
Cu141	Cu14	0.241910	0.671620	0.274740
Cu151	Cu15	0.334580	0.741660	0.248660
Cu161	Cu16	0.354700	0.632320	0.287220
Cu171	Cu17	0.267950	0.763450	0.342790
Cu181	Cu18	0.288120	0.654270	0.381340
C931	C93	0.336500	0.777000	0.594100
H1111	H111	0.355700	0.764300	0.619900
C941	C94	0.282300	0.831800	0.566000
H1121	H112	0.261000	0.858500	0.572000
C951	C95	0.283600	0.814200	0.519900
H1131	H113	0.264900	0.829300	0.495000
C961	C96	0.313400	0.772800	0.509900
C971	C97	0.240700	0.746400	0.196400
H1141	H114	0.213500	0.728500	0.180300
H1151	H115	0.260100	0.763200	0.171100
C981	C98	0.457100	0.668100	0.300900
H1161	H116	0.469500	0.635900	0.290800
H1171	H117	0.481600	0.681700	0.323800
C991	C99	0.454400	0.701500	0.255500
C1001	C100	0.417500	0.682400	0.216500
H1181	H118	0.419300	0.704200	0.188300
H1191	H119	0.429400	0.650300	0.205700
C1011	C101	0.314400	0.750600	0.455700
C1021	C102	0.349300	0.706000	0.454200
H1201	H120	0.383200	0.716200	0.463700
H1211	H121	0.337700	0.682200	0.478400
C1031	C103	0.340000	0.753500	0.547600
H1221	H122	0.360100	0.725700	0.543300
C1041	C104	0.256500	0.819600	0.254700
H1231	H123	0.273000	0.838800	0.229200
H1241	H124	0.238800	0.842300	0.276300
C1051	C105	0.217900	0.784300	0.230900
C1061	C106	0.185600	0.760300	0.272100
H1251	H125	0.169200	0.786200	0.291000
H1261	H126	0.159000	0.740700	0.257000
C1071	C107	0.305100	0.554800	0.344900
H1271	H127	0.296300	0.543200	0.377600
H1281	H128	0.329000	0.531600	0.330900
C1081	C108	0.258400	0.555100	0.314100
C1091	C109	0.270100	0.568800	0.261800
H1291	H129	0.294700	0.545600	0.248900
H1301	H130	0.239400	0.565600	0.242400
C1101	C110	0.215500	0.586900	0.335400
H1311	H131	0.185700	0.583900	0.314600
H1321	H132	0.206700	0.574900	0.367900
C1111	C111	0.440300	0.753200	0.270400
H1331	H133	0.465700	0.765300	0.293300
H1341	H134	0.441600	0.774000	0.241400
C1121	C112	0.259100	0.734500	0.445000
H1351	H135	0.249100	0.709400	0.468500
H1361	H136	0.236700	0.762500	0.449300
C1131	C113	0.506100	0.703200	0.228500
C1141	C114	0.183100	0.818700	0.389400
C1151	C115	0.235500	0.503400	0.313700
C1161	C116	0.371800	0.833300	0.192200
C1171	C117	0.180800	0.817600	0.198900
C1181	C118	0.196300	0.847100	0.165700
H1371	H137	0.231100	0.852500	0.164000
C1191	C119	0.100100	0.837100	0.163900
H1381	H138	0.065400	0.830400	0.164100
C1201	C120	0.131700	0.812900	0.195800
H1391	H139	0.116500	0.790900	0.217500
C1211	C121	0.165900	0.872200	0.131500
H1401	H140	0.180900	0.891300	0.107100
C1221	C122	0.379000	0.859500	0.143600
H1411	H141	0.388600	0.893100	0.149500
H1421	H142	0.347800	0.858800	0.125300
H1431	H143	0.405100	0.843400	0.125000
C1231	C123	0.534800	0.661500	0.220900
H1441	H144	0.523100	0.632000	0.234000
C1241	C124	0.525000	0.743000	0.205800
H1451	H145	0.508000	0.772900	0.207900
C1251	C125	0.159600	0.867100	0.413200
H1461	H146	0.126400	0.860000	0.425800
H1471	H147	0.157400	0.892400	0.388700
H1481	H148	0.181000	0.878000	0.439700
C1261	C126	0.569700	0.739700	0.179400
H1491	H149	0.581900	0.768600	0.165400
C1271	C127	0.580200	0.660800	0.195000
H1501	H150	0.599300	0.632100	0.193900
C1281	C128	0.232600	0.475700	0.353500
H1511	H151	0.245700	0.487100	0.383200
C1291	C129	0.217200	0.481600	0.272800
H1521	H152	0.221900	0.497300	0.242700
C1301	C130	0.190100	0.434100	0.273300
H1531	H153	0.176600	0.421300	0.244300
C1311	C131	0.208800	0.427100	0.351000
H1541	H154	0.211200	0.407100	0.378700
C1321	C132	0.178300	0.634700	0.189700
C1331	C133	0.123300	0.629700	0.163700
H1551	H155	0.127800	0.622400	0.129300
H1561	H156	0.105100	0.660200	0.167100
H1571	H157	0.104500	0.603700	0.179100
C1341	C134	0.345500	0.558000	0.137200
C1351	C135	0.367100	0.514100	0.111300
H1581	H158	0.361200	0.485100	0.130700
H1591	H159	0.403000	0.518500	0.106800
H1601	H160	0.351100	0.510400	0.079800
C1361	C136	0.298700	0.593200	0.472300
C1371	C137	0.332800	0.792400	0.422500
H1611	H161	0.310100	0.820300	0.426000
H1621	H162	0.366300	0.802700	0.433200
C1381	C138	0.276000	0.583100	0.527900
H1631	H163	0.241000	0.592700	0.529000
H1641	H164	0.295000	0.602100	0.551400
H1651	H165	0.278900	0.548800	0.535600
N91	N9	0.308400	0.814900	0.603100
N101	N10	0.117900	0.868900	0.134000
N111	N11	0.596200	0.700100	0.172200
N121	N12	0.185400	0.410300	0.314400
O451	O45	0.335300	0.778800	0.371300
O461	O46	0.294500	0.793000	0.282600
O471	O47	0.391300	0.758400	0.292700
O481	O48	0.273100	0.712000	0.221500
O491	O49	0.358800	0.788000	0.189500
O501	O50	0.352000	0.682400	0.407200
O511	O51	0.213200	0.730400	0.304400
O521	O52	0.409800	0.662000	0.325600
O531	O53	0.225300	0.823000	0.372400
O541	O54	0.229800	0.639600	0.339000
O551	O55	0.366500	0.677800	0.230100
O561	O56	0.253400	0.715800	0.396600
O571	O57	0.330200	0.603200	0.349400
O581	O58	0.178700	0.646400	0.235100
O591	O59	0.379900	0.857000	0.230800
O601	O60	0.265900	0.612700	0.445400
O611	O61	0.289700	0.618000	0.255600
O621	O62	0.154600	0.782200	0.392800
O631	O63	0.215900	0.632000	0.162000
O641	O64	0.368000	0.584600	0.157600
O651	O65	0.302600	0.565200	0.132500
O661	O66	0.354700	0.580900	0.462200
Cd131	Cd13	0.134200	0.159790	0.812480
Cd141	Cd14	0.198280	0.357810	0.674750
Cd151	Cd15	0.331830	0.300810	0.875670
Cd161	Cd16	0.096350	0.388530	0.900980
Cu191	Cu19	0.118710	0.276340	0.854700
Cu201	Cu20	0.258090	0.328380	0.774740
Cu211	Cu21	0.165420	0.258340	0.748660
Cu221	Cu22	0.145300	0.367680	0.787220
Cu231	Cu23	0.232050	0.236550	0.842790
Cu241	Cu24	0.211880	0.345730	0.881340
C1391	C139	0.163500	0.223000	0.094100
H1661	H166	0.144300	0.235700	0.119900
C1401	C140	0.217700	0.168200	0.066000
H1671	H167	0.239000	0.141500	0.072000
C1411	C141	0.216400	0.185800	0.019900
H1681	H168	0.235100	0.170700	0.995000
C1421	C142	0.186600	0.227200	0.009900
C1431	C143	0.259300	0.253600	0.696400
H1691	H169	0.286500	0.271500	0.680300
H1701	H170	0.239900	0.236800	0.671100
C1441	C144	0.042900	0.331900	0.800900
H1711	H171	0.030500	0.364100	0.790800
H1721	H172	0.018400	0.318300	0.823800
C1451	C145	0.045600	0.298500	0.755500
C1461	C146	0.082500	0.317600	0.716500
H1731	H173	0.080700	0.295800	0.688300
H1741	H174	0.070600	0.349700	0.705700
C1471	C147	0.185600	0.249400	0.955700
C1481	C148	0.150700	0.294000	0.954200
H1751	H175	0.116800	0.283800	0.963700
H1761	H176	0.162300	0.317800	0.978400
C1491	C149	0.160000	0.246500	0.047600
H1771	H177	0.139900	0.274300	0.043300
C1501	C150	0.243500	0.180400	0.754700
H1781	H178	0.227000	0.161200	0.729200
H1791	H179	0.261200	0.157700	0.776300
C1511	C151	0.282100	0.215700	0.730900
C1521	C152	0.314400	0.239700	0.772100
H1801	H180	0.330800	0.213800	0.791000
H1811	H181	0.341000	0.259300	0.757000
C1531	C153	0.194900	0.445200	0.844900
H1821	H182	0.203700	0.456800	0.877600
H1831	H183	0.171000	0.468400	0.830900
C1541	C154	0.241600	0.444900	0.814100
C1551	C155	0.229900	0.431200	0.761800
H1841	H184	0.205300	0.454400	0.748900
H1851	H185	0.260600	0.434400	0.742400
C1561	C156	0.284500	0.413100	0.835400
H1861	H186	0.314300	0.416100	0.814600
H1871	H187	0.293300	0.425100	0.867900
C1571	C157	0.059700	0.246800	0.770400
H1881	H188	0.034300	0.234700	0.793300
H1891	H189	0.058400	0.226000	0.741400
C1581	C158	0.240900	0.265500	0.945000
H1901	H190	0.250900	0.290600	0.968500
H1911	H191	0.263300	0.237500	0.949300
C1591	C159	0.993900	0.296800	0.728500
C1601	C160	0.316900	0.181300	0.889400
C1611	C161	0.264500	0.496600	0.813700
C1621	C162	0.128200	0.166700	0.692200
C1631	C163	0.319200	0.182400	0.698900
C1641	C164	0.303700	0.152900	0.665700
H1921	H192	0.268900	0.147500	0.664000
C1651	C165	0.399900	0.162900	0.663900
H1931	H193	0.434600	0.169600	0.664100
C1661	C166	0.368300	0.187100	0.695800
H1941	H194	0.383500	0.209100	0.717500
C1671	C167	0.334100	0.127800	0.631500
H1951	H195	0.319100	0.108700	0.607100
C1681	C168	0.121000	0.140500	0.643600
H1961	H196	0.111400	0.106900	0.649500
H1971	H197	0.152200	0.141200	0.625300
H1981	H198	0.094900	0.156600	0.625000
C1691	C169	0.965200	0.338500	0.720900
H1991	H199	0.976900	0.368000	0.734000
C1701	C170	0.975000	0.257000	0.705800
H2001	H200	0.992000	0.227100	0.707900
C1711	C171	0.340400	0.132900	0.913200
H2011	H201	0.373600	0.140000	0.925800
H2021	H202	0.342600	0.107600	0.888700
H2031	H203	0.319000	0.122000	0.939700
C1721	C172	0.930300	0.260300	0.679400
H2041	H204	0.918100	0.231400	0.665400
C1731	C173	0.919800	0.339200	0.695000
H2051	H205	0.900700	0.367900	0.693900
C1741	C174	0.267400	0.524300	0.853500
H2061	H206	0.254300	0.512900	0.883200
C1751	C175	0.282800	0.518400	0.772800
H2071	H207	0.278100	0.502700	0.742700
C1761	C176	0.309900	0.565900	0.773300
H2081	H208	0.323400	0.578700	0.744300
C1771	C177	0.291200	0.572900	0.851000
H2091	H209	0.288800	0.592900	0.878700
C1781	C178	0.321700	0.365300	0.689700
C1791	C179	0.376700	0.370300	0.663700
H2101	H210	0.372200	0.377600	0.629300
H2111	H211	0.394900	0.339800	0.667100
H2121	H212	0.395500	0.396300	0.679100
C1801	C180	0.154500	0.442000	0.637200
C1811	C181	0.132900	0.485900	0.611300
H2131	H213	0.138800	0.514900	0.630700
H2141	H214	0.097000	0.481500	0.606800
H2151	H215	0.148900	0.489600	0.579800
C1821	C182	0.201300	0.406800	0.972300
C1831	C183	0.167200	0.207600	0.922500
H2161	H216	0.189900	0.179700	0.926000
H2171	H217	0.133700	0.197300	0.933200
C1841	C184	0.224000	0.416900	0.027900
H2181	H218	0.259000	0.407300	0.029000
H2191	H219	0.205000	0.397900	0.051400
H2201	H220	0.221100	0.451200	0.035600
N131	N13	0.191600	0.185100	0.103100
N141	N14	0.382100	0.131100	0.634000
N151	N15	0.903800	0.299900	0.672200
N161	N16	0.314600	0.589700	0.814400
O671	O67	0.164700	0.221200	0.871300
O681	O68	0.205500	0.207000	0.782600
O691	O69	0.108700	0.241600	0.792700
O701	O70	0.226900	0.288000	0.721500
O711	O71	0.141200	0.212000	0.689500
O721	O72	0.148000	0.317600	0.907200
O731	O73	0.286800	0.269600	0.804400
O741	O74	0.090200	0.338000	0.825600
O751	O75	0.274700	0.177000	0.872400
O761	O76	0.270200	0.360400	0.839000
O771	O77	0.133500	0.322200	0.730100
O781	O78	0.246600	0.284200	0.896600
O791	O79	0.169800	0.396800	0.849400
O801	O80	0.321300	0.353600	0.735100
O811	O81	0.120100	0.143000	0.730800
O821	O82	0.234100	0.387300	0.945400
O831	O83	0.210300	0.382000	0.755600
O841	O84	0.345400	0.217800	0.892800
O851	O85	0.284100	0.368000	0.662000
O861	O86	0.132000	0.415400	0.657600
O871	O87	0.197400	0.434800	0.632500
O881	O88	0.145300	0.419100	0.962200
Cd171	Cd17	0.365800	0.659790	0.812480
Cd181	Cd18	0.301720	0.857810	0.674750
Cd191	Cd19	0.168170	0.800810	0.875670
Cd201	Cd20	0.403650	0.888530	0.900980
Cu251	Cu25	0.381290	0.776340	0.854700
Cu261	Cu26	0.241910	0.828380	0.774740
Cu271	Cu27	0.334580	0.758340	0.748660
Cu281	Cu28	0.354700	0.867680	0.787220
Cu291	Cu29	0.267950	0.736550	0.842790
Cu301	Cu30	0.288120	0.845730	0.881340
C1851	C185	0.336500	0.723000	0.094100
H2211	H221	0.355700	0.735700	0.119900
C1861	C186	0.282300	0.668200	0.066000
H2221	H222	0.261000	0.641500	0.072000
C1871	C187	0.283600	0.685800	0.019900
H2231	H223	0.264900	0.670700	0.995000
C1881	C188	0.313400	0.727200	0.009900
C1891	C189	0.240700	0.753600	0.696400
H2241	H224	0.213500	0.771500	0.680300
H2251	H225	0.260100	0.736800	0.671100
C1901	C190	0.457100	0.831900	0.800900
H2261	H226	0.469500	0.864100	0.790800
H2271	H227	0.481600	0.818300	0.823800
C1911	C191	0.454400	0.798500	0.755500
C1921	C192	0.417500	0.817600	0.716500
H2281	H228	0.419300	0.795800	0.688300
H2291	H229	0.429400	0.849700	0.705700
C1931	C193	0.314400	0.749400	0.955700
C1941	C194	0.349300	0.794000	0.954200
H2301	H230	0.383200	0.783800	0.963700
H2311	H231	0.337700	0.817800	0.978400
C1951	C195	0.340000	0.746500	0.047600
H2321	H232	0.360100	0.774300	0.043300
C1961	C196	0.256500	0.680400	0.754700
H2331	H233	0.273000	0.661200	0.729200
H2341	H234	0.238800	0.657700	0.776300
C1971	C197	0.217900	0.715700	0.730900
C1981	C198	0.185600	0.739700	0.772100
H2351	H235	0.169200	0.713800	0.791000
H2361	H236	0.159000	0.759300	0.757000
C1991	C199	0.305100	0.945200	0.844900
H2371	H237	0.296300	0.956800	0.877600
H2381	H238	0.329000	0.968400	0.830900
C2001	C200	0.258400	0.944900	0.814100
C2011	C201	0.270100	0.931200	0.761800
H2391	H239	0.294700	0.954400	0.748900
H2401	H240	0.239400	0.934400	0.742400
C2021	C202	0.215500	0.913100	0.835400
H2411	H241	0.185700	0.916100	0.814600
H2421	H242	0.206700	0.925100	0.867900
C2031	C203	0.440300	0.746800	0.770400
H2431	H243	0.465700	0.734700	0.793300
H2441	H244	0.441600	0.726000	0.741400
C2041	C204	0.259100	0.765500	0.945000
H2451	H245	0.249100	0.790600	0.968500
H2461	H246	0.236700	0.737500	0.949300
C2051	C205	0.506100	0.796800	0.728500
C2061	C206	0.183100	0.681300	0.889400
C2071	C207	0.235500	0.996600	0.813700
C2081	C208	0.371800	0.666700	0.692200
C2091	C209	0.180800	0.682400	0.698900
C2101	C210	0.196300	0.652900	0.665700
H2471	H247	0.231100	0.647500	0.664000
C2111	C211	0.100100	0.662900	0.663900
H2481	H248	0.065400	0.669600	0.664100
C2121	C212	0.131700	0.687100	0.695800
H2491	H249	0.116500	0.709100	0.717500
C2131	C213	0.165900	0.627800	0.631500
H2501	H250	0.180900	0.608700	0.607100
C2141	C214	0.379000	0.640500	0.643600
H2511	H251	0.388600	0.606900	0.649500
H2521	H252	0.347800	0.641200	0.625300
H2531	H253	0.405100	0.656600	0.625000
C2151	C215	0.534800	0.838500	0.720900
H2541	H254	0.523100	0.868000	0.734000
C2161	C216	0.525000	0.757000	0.705800
H2551	H255	0.508000	0.727100	0.707900
C2171	C217	0.159600	0.632900	0.913200
H2561	H256	0.126400	0.640000	0.925800
H2571	H257	0.157400	0.607600	0.888700
H2581	H258	0.181000	0.622000	0.939700
C2181	C218	0.569700	0.760300	0.679400
H2591	H259	0.581900	0.731400	0.665400
C2191	C219	0.580200	0.839200	0.695000
H2601	H260	0.599300	0.867900	0.693900
C2201	C220	0.232600	0.024300	0.853500
H2611	H261	0.245700	0.012900	0.883200
C2211	C221	0.217200	0.018400	0.772800
H2621	H262	0.221900	0.002700	0.742700
C2221	C222	0.190100	0.065900	0.773300
H2631	H263	0.176600	0.078700	0.744300
C2231	C223	0.208800	0.072900	0.851000
H2641	H264	0.211200	0.092900	0.878700
C2241	C224	0.178300	0.865300	0.689700
C2251	C225	0.123300	0.870300	0.663700
H2651	H265	0.127800	0.877600	0.629300
H2661	H266	0.105100	0.839800	0.667100
H2671	H267	0.104500	0.896300	0.679100
C2261	C226	0.345500	0.942000	0.637200
C2271	C227	0.367100	0.985900	0.611300
H2681	H268	0.361200	0.014900	0.630700
H2691	H269	0.403000	0.981500	0.606800
H2701	H270	0.351100	0.989600	0.579800
C2281	C228	0.298700	0.906800	0.972300
C2291	C229	0.332800	0.707600	0.922500
H2711	H271	0.310100	0.679700	0.926000
H2721	H272	0.366300	0.697300	0.933200
C2301	C230	0.276000	0.916900	0.027900
H2731	H273	0.241000	0.907300	0.029000
H2741	H274	0.295000	0.897900	0.051400
H2751	H275	0.278900	0.951200	0.035600
N171	N17	0.308400	0.685100	0.103100
N181	N18	0.117900	0.631100	0.634000
N191	N19	0.596200	0.799900	0.672200
N201	N20	0.185400	0.089700	0.814400
O891	O89	0.335300	0.721200	0.871300
O901	O90	0.294500	0.707000	0.782600
O911	O91	0.391300	0.741600	0.792700
O921	O92	0.273100	0.788000	0.721500
O931	O93	0.358800	0.712000	0.689500
O941	O94	0.352000	0.817600	0.907200
O951	O95	0.213200	0.769600	0.804400
O961	O96	0.409800	0.838000	0.825600
O971	O97	0.225300	0.677000	0.872400
O981	O98	0.229800	0.860400	0.839000
O991	O99	0.366500	0.822200	0.730100
O1001	O100	0.253400	0.784200	0.896600
O1011	O101	0.330200	0.896800	0.849400
O1021	O102	0.178700	0.853600	0.735100
O1031	O103	0.379900	0.643000	0.730800
O1041	O104	0.265900	0.887300	0.945400
O1051	O105	0.289700	0.882000	0.755600
O1061	O106	0.154600	0.717800	0.892800
O1071	O107	0.215900	0.868000	0.662000
O1081	O108	0.368000	0.915400	0.657600
O1091	O109	0.302600	0.934800	0.632500
O1101	O110	0.354700	0.919100	0.962200
Cd211	Cd21	0.134200	0.340210	0.312480
Cd221	Cd22	0.198280	0.142190	0.174750
Cd231	Cd23	0.331830	0.199190	0.375670
Cd241	Cd24	0.096350	0.111470	0.400980
Cu311	Cu31	0.118710	0.223660	0.354700
Cu321	Cu32	0.258090	0.171620	0.274740
Cu331	Cu33	0.165420	0.241660	0.248660
Cu341	Cu34	0.145300	0.132320	0.287220
Cu351	Cu35	0.232050	0.263450	0.342790
Cu361	Cu36	0.211880	0.154270	0.381340
C2311	C231	0.163500	0.277000	0.594100
H2761	H276	0.144300	0.264300	0.619900
C2321	C232	0.217700	0.331800	0.566000
H2771	H277	0.239000	0.358500	0.572000
C2331	C233	0.216400	0.314200	0.519900
H2781	H278	0.235100	0.329300	0.495000
C2341	C234	0.186600	0.272800	0.509900
C2351	C235	0.259300	0.246400	0.196400
H2791	H279	0.286500	0.228500	0.180300
H2801	H280	0.239900	0.263200	0.171100
C2361	C236	0.042900	0.168100	0.300900
H2811	H281	0.030500	0.135900	0.290800
H2821	H282	0.018400	0.181700	0.323800
C2371	C237	0.045600	0.201500	0.255500
C2381	C238	0.082500	0.182400	0.216500
H2831	H283	0.080700	0.204200	0.188300
H2841	H284	0.070600	0.150300	0.205700
C2391	C239	0.185600	0.250600	0.455700
C2401	C240	0.150700	0.206000	0.454200
H2851	H285	0.116800	0.216200	0.463700
H2861	H286	0.162300	0.182200	0.478400
C2411	C241	0.160000	0.253500	0.547600
H2871	H287	0.139900	0.225700	0.543300
C2421	C242	0.243500	0.319600	0.254700
H2881	H288	0.227000	0.338800	0.229200
H2891	H289	0.261200	0.342300	0.276300
C2431	C243	0.282100	0.284300	0.230900
C2441	C244	0.314400	0.260300	0.272100
H2901	H290	0.330800	0.286200	0.291000
H2911	H291	0.341000	0.240700	0.257000
C2451	C245	0.194900	0.054800	0.344900
H2921	H292	0.203700	0.043200	0.377600
H2931	H293	0.171000	0.031600	0.330900
C2461	C246	0.241600	0.055100	0.314100
C2471	C247	0.229900	0.068800	0.261800
H2941	H294	0.205300	0.045600	0.248900
H2951	H295	0.260600	0.065600	0.242400
C2481	C248	0.284500	0.086900	0.335400
H2961	H296	0.314300	0.083900	0.314600
H2971	H297	0.293300	0.074900	0.367900
C2491	C249	0.059700	0.253200	0.270400
H2981	H298	0.034300	0.265300	0.293300
H2991	H299	0.058400	0.274000	0.241400
C2501	C250	0.240900	0.234500	0.445000
H3001	H300	0.250900	0.209400	0.468500
H3011	H301	0.263300	0.262500	0.449300
C2511	C251	0.993900	0.203200	0.228500
C2521	C252	0.316900	0.318700	0.389400
C2531	C253	0.264500	0.003400	0.313700
C2541	C254	0.128200	0.333300	0.192200
C2551	C255	0.319200	0.317600	0.198900
C2561	C256	0.303700	0.347100	0.165700
H3021	H302	0.268900	0.352500	0.164000
C2571	C257	0.399900	0.337100	0.163900
H3031	H303	0.434600	0.330400	0.164100
C2581	C258	0.368300	0.312900	0.195800
H3041	H304	0.383500	0.290900	0.217500
C2591	C259	0.334100	0.372200	0.131500
H3051	H305	0.319100	0.391300	0.107100
C2601	C260	0.121000	0.359500	0.143600
H3061	H306	0.111400	0.393100	0.149500
H3071	H307	0.152200	0.358800	0.125300
H3081	H308	0.094900	0.343400	0.125000
C2611	C261	0.965200	0.161500	0.220900
H3091	H309	0.976900	0.132000	0.234000
C2621	C262	0.975000	0.243000	0.205800
H3101	H310	0.992000	0.272900	0.207900
C2631	C263	0.340400	0.367100	0.413200
H3111	H311	0.373600	0.360000	0.425800
H3121	H312	0.342600	0.392400	0.388700
H3131	H313	0.319000	0.378000	0.439700
C2641	C264	0.930300	0.239700	0.179400
H3141	H314	0.918100	0.268600	0.165400
C2651	C265	0.919800	0.160800	0.195000
H3151	H315	0.900700	0.132100	0.193900
C2661	C266	0.267400	0.975700	0.353500
H3161	H316	0.254300	0.987100	0.383200
C2671	C267	0.282800	0.981600	0.272800
H3171	H317	0.278100	0.997300	0.242700
C2681	C268	0.309900	0.934100	0.273300
H3181	H318	0.323400	0.921300	0.244300
C2691	C269	0.291200	0.927100	0.351000
H3191	H319	0.288800	0.907100	0.378700
C2701	C270	0.321700	0.134700	0.189700
C2711	C271	0.376700	0.129700	0.163700
H3201	H320	0.372200	0.122400	0.129300
H3211	H321	0.394900	0.160200	0.167100
H3221	H322	0.395500	0.103700	0.179100
C2721	C272	0.154500	0.058000	0.137200
C2731	C273	0.132900	0.014100	0.111300
H3231	H323	0.138800	0.985100	0.130700
H3241	H324	0.097000	0.018500	0.106800
H3251	H325	0.148900	0.010400	0.079800
C2741	C274	0.201300	0.093200	0.472300
C2751	C275	0.167200	0.292400	0.422500
H3261	H326	0.189900	0.320300	0.426000
H3271	H327	0.133700	0.302700	0.433200
C2761	C276	0.224000	0.083100	0.527900
H3281	H328	0.259000	0.092700	0.529000
H3291	H329	0.205000	0.102100	0.551400
H3301	H330	0.221100	0.048800	0.535600
N211	N21	0.191600	0.314900	0.603100
N221	N22	0.382100	0.368900	0.134000
N231	N23	0.903800	0.200100	0.172200
N241	N24	0.314600	0.910300	0.314400
O1111	O111	0.164700	0.278800	0.371300
O1121	O112	0.205500	0.293000	0.282600
O1131	O113	0.108700	0.258400	0.292700
O1141	O114	0.226900	0.212000	0.221500
O1151	O115	0.141200	0.288000	0.189500
O1161	O116	0.148000	0.182400	0.407200
O1171	O117	0.286800	0.230400	0.304400
O1181	O118	0.090200	0.162000	0.325600
O1191	O119	0.274700	0.323000	0.372400
O1201	O120	0.270200	0.139600	0.339000
O1211	O121	0.133500	0.177800	0.230100
O1221	O122	0.246600	0.215800	0.396600
O1231	O123	0.169800	0.103200	0.349400
O1241	O124	0.321300	0.146400	0.235100
O1251	O125	0.120100	0.357000	0.230800
O1261	O126	0.234100	0.112700	0.445400
O1271	O127	0.210300	0.118000	0.255600
O1281	O128	0.345400	0.282200	0.392800
O1291	O129	0.284100	0.132000	0.162000
O1301	O130	0.132000	0.084600	0.157600
O1311	O131	0.197400	0.065200	0.132500
O1321	O132	0.145300	0.080900	0.462200
Cd251	Cd25	0.634200	0.159790	0.687520
Cd261	Cd26	0.698280	0.357810	0.825250
Cd271	Cd27	0.831830	0.300810	0.624330
Cd281	Cd28	0.596350	0.388530	0.599020
Cu371	Cu37	0.618710	0.276340	0.645300
Cu381	Cu38	0.758090	0.328380	0.725260
Cu391	Cu39	0.665420	0.258340	0.751340
Cu401	Cu40	0.645300	0.367680	0.712780
Cu411	Cu41	0.732050	0.236550	0.657210
Cu421	Cu42	0.711880	0.345730	0.618660
C2771	C277	0.663500	0.223000	0.405900
H3311	H331	0.644300	0.235700	0.380100
C2781	C278	0.717700	0.168200	0.434000
H3321	H332	0.739000	0.141500	0.428000
C2791	C279	0.716400	0.185800	0.480100
H3331	H333	0.735100	0.170700	0.505000
C2801	C280	0.686600	0.227200	0.490100
C2811	C281	0.759300	0.253600	0.803600
H3341	H334	0.786500	0.271500	0.819700
H3351	H335	0.739900	0.236800	0.828900
C2821	C282	0.542900	0.331900	0.699100
H3361	H336	0.530500	0.364100	0.709200
H3371	H337	0.518400	0.318300	0.676200
C2831	C283	0.545600	0.298500	0.744500
C2841	C284	0.582500	0.317600	0.783500
H3381	H338	0.580700	0.295800	0.811700
H3391	H339	0.570600	0.349700	0.794300
C2851	C285	0.685600	0.249400	0.544300
C2861	C286	0.650700	0.294000	0.545800
H3401	H340	0.616800	0.283800	0.536300
H3411	H341	0.662300	0.317800	0.521600
C2871	C287	0.660000	0.246500	0.452400
H3421	H342	0.639900	0.274300	0.456700
C2881	C288	0.743500	0.180400	0.745300
H3431	H343	0.727000	0.161200	0.770800
H3441	H344	0.761200	0.157700	0.723700
C2891	C289	0.782100	0.215700	0.769100
C2901	C290	0.814400	0.239700	0.727900
H3451	H345	0.830800	0.213800	0.709000
H3461	H346	0.841000	0.259300	0.743000
C2911	C291	0.694900	0.445200	0.655100
H3471	H347	0.703700	0.456800	0.622400
H3481	H348	0.671000	0.468400	0.669100
C2921	C292	0.741600	0.444900	0.685900
C2931	C293	0.729900	0.431200	0.738200
H3491	H349	0.705300	0.454400	0.751100
H3501	H350	0.760600	0.434400	0.757600
C2941	C294	0.784500	0.413100	0.664600
H3511	H351	0.814300	0.416100	0.685400
H3521	H352	0.793300	0.425100	0.632100
C2951	C295	0.559700	0.246800	0.729600
H3531	H353	0.534300	0.234700	0.706700
H3541	H354	0.558400	0.226000	0.758600
C2961	C296	0.740900	0.265500	0.555000
H3551	H355	0.750900	0.290600	0.531500
H3561	H356	0.763300	0.237500	0.550700
C2971	C297	0.493900	0.296800	0.771500
C2981	C298	0.816900	0.181300	0.610600
C2991	C299	0.764500	0.496600	0.686300
C3001	C300	0.628200	0.166700	0.807800
C3011	C301	0.819200	0.182400	0.801100
C3021	C302	0.803700	0.152900	0.834300
H3571	H357	0.768900	0.147500	0.836000
C3031	C303	0.899900	0.162900	0.836100
H3581	H358	0.934600	0.169600	0.835900
C3041	C304	0.868300	0.187100	0.804200
H3591	H359	0.883500	0.209100	0.782500
C3051	C305	0.834100	0.127800	0.868500
H3601	H360	0.819100	0.108700	0.892900
C3061	C306	0.621000	0.140500	0.856400
H3611	H361	0.611400	0.106900	0.850500
H3621	H362	0.652200	0.141200	0.874700
H3631	H363	0.594900	0.156600	0.875000
C3071	C307	0.465200	0.338500	0.779100
H3641	H364	0.476900	0.368000	0.766000
C3081	C308	0.475000	0.257000	0.794200
H3651	H365	0.492000	0.227100	0.792100
C3091	C309	0.840400	0.132900	0.586800
H3661	H366	0.873600	0.140000	0.574200
H3671	H367	0.842600	0.107600	0.611300
H3681	H368	0.819000	0.122000	0.560300
C3101	C310	0.430300	0.260300	0.820600
H3691	H369	0.418100	0.231400	0.834600
C3111	C311	0.419800	0.339200	0.805000
H3701	H370	0.400700	0.367900	0.806100
C3121	C312	0.767400	0.524300	0.646500
H3711	H371	0.754300	0.512900	0.616800
C3131	C313	0.782800	0.518400	0.727200
H3721	H372	0.778100	0.502700	0.757300
C3141	C314	0.809900	0.565900	0.726700
H3731	H373	0.823400	0.578700	0.755700
C3151	C315	0.791200	0.572900	0.649000
H3741	H374	0.788800	0.592900	0.621300
C3161	C316	0.821700	0.365300	0.810300
C3171	C317	0.876700	0.370300	0.836300
H3751	H375	0.872200	0.377600	0.870700
H3761	H376	0.894900	0.339800	0.832900
H3771	H377	0.895500	0.396300	0.820900
C3181	C318	0.654500	0.442000	0.862800
C3191	C319	0.632900	0.485900	0.888700
H3781	H378	0.638800	0.514900	0.869300
H3791	H379	0.597000	0.481500	0.893200
H3801	H380	0.648900	0.489600	0.920200
C3201	C320	0.701300	0.406800	0.527700
C3211	C321	0.667200	0.207600	0.577500
H3811	H381	0.689900	0.179700	0.574000
H3821	H382	0.633700	0.197300	0.566800
C3221	C322	0.724000	0.416900	0.472100
H3831	H383	0.759000	0.407300	0.471000
H3841	H384	0.705000	0.397900	0.448600
H3851	H385	0.721100	0.451200	0.464400
N251	N25	0.691600	0.185100	0.396900
N261	N26	0.882100	0.131100	0.866000
N271	N27	0.403800	0.299900	0.827800
N281	N28	0.814600	0.589700	0.685600
O1331	O133	0.664700	0.221200	0.628700
O1341	O134	0.705500	0.207000	0.717400
O1351	O135	0.608700	0.241600	0.707300
O1361	O136	0.726900	0.288000	0.778500
O1371	O137	0.641200	0.212000	0.810500
O1381	O138	0.648000	0.317600	0.592800
O1391	O139	0.786800	0.269600	0.695600
O1401	O140	0.590200	0.338000	0.674400
O1411	O141	0.774700	0.177000	0.627600
O1421	O142	0.770200	0.360400	0.661000
O1431	O143	0.633500	0.322200	0.769900
O1441	O144	0.746600	0.284200	0.603400
O1451	O145	0.669800	0.396800	0.650600
O1461	O146	0.821300	0.353600	0.764900
O1471	O147	0.620100	0.143000	0.769200
O1481	O148	0.734100	0.387300	0.554600
O1491	O149	0.710300	0.382000	0.744400
O1501	O150	0.845400	0.217800	0.607200
O1511	O151	0.784100	0.368000	0.838000
O1521	O152	0.632000	0.415400	0.842400
O1531	O153	0.697400	0.434800	0.867500
O1541	O154	0.645300	0.419100	0.537800
Cd291	Cd29	0.865800	0.840210	0.187520
Cd301	Cd30	0.801720	0.642190	0.325250
Cd311	Cd31	0.668170	0.699190	0.124330
Cd321	Cd32	0.903650	0.611470	0.099020
Cu431	Cu43	0.881290	0.723660	0.145300
Cu441	Cu44	0.741910	0.671620	0.225260
Cu451	Cu45	0.834580	0.741660	0.251340
Cu461	Cu46	0.854700	0.632320	0.212780
Cu471	Cu47	0.767950	0.763450	0.157210
Cu481	Cu48	0.788120	0.654270	0.118660
C3231	C323	0.836500	0.777000	0.905900
H3861	H386	0.855700	0.764300	0.880100
C3241	C324	0.782300	0.831800	0.934000
H3871	H387	0.761000	0.858500	0.928000
C3251	C325	0.783600	0.814200	0.980100
H3881	H388	0.764900	0.829300	0.005000
C3261	C326	0.813400	0.772800	0.990100
C3271	C327	0.740700	0.746400	0.303600
H3891	H389	0.713500	0.728500	0.319700
H3901	H390	0.760100	0.763200	0.328900
C3281	C328	0.957100	0.668100	0.199100
H3911	H391	0.969500	0.635900	0.209200
H3921	H392	0.981600	0.681700	0.176200
C3291	C329	0.954400	0.701500	0.244500
C3301	C330	0.917500	0.682400	0.283500
H3931	H393	0.919300	0.704200	0.311700
H3941	H394	0.929400	0.650300	0.294300
C3311	C331	0.814400	0.750600	0.044300
C3321	C332	0.849300	0.706000	0.045800
H3951	H395	0.883200	0.716200	0.036300
H3961	H396	0.837700	0.682200	0.021600
C3331	C333	0.840000	0.753500	0.952400
H3971	H397	0.860100	0.725700	0.956700
C3341	C334	0.756500	0.819600	0.245300
H3981	H398	0.773000	0.838800	0.270800
H3991	H399	0.738800	0.842300	0.223700
C3351	C335	0.717900	0.784300	0.269100
C3361	C336	0.685600	0.760300	0.227900
H4001	H400	0.669200	0.786200	0.209000
H4011	H401	0.659000	0.740700	0.243000
C3371	C337	0.805100	0.554800	0.155100
H4021	H402	0.796300	0.543200	0.122400
H4031	H403	0.829000	0.531600	0.169100
C3381	C338	0.758400	0.555100	0.185900
C3391	C339	0.770100	0.568800	0.238200
H4041	H404	0.794700	0.545600	0.251100
H4051	H405	0.739400	0.565600	0.257600
C3401	C340	0.715500	0.586900	0.164600
H4061	H406	0.685700	0.583900	0.185400
H4071	H407	0.706700	0.574900	0.132100
C3411	C341	0.940300	0.753200	0.229600
H4081	H408	0.965700	0.765300	0.206700
H4091	H409	0.941600	0.774000	0.258600
C3421	C342	0.759100	0.734500	0.055000
H4101	H410	0.749100	0.709400	0.031500
H4111	H411	0.736700	0.762500	0.050700
C3431	C343	0.006100	0.703200	0.271500
C3441	C344	0.683100	0.818700	0.110600
C3451	C345	0.735500	0.503400	0.186300
C3461	C346	0.871800	0.833300	0.307800
C3471	C347	0.680800	0.817600	0.301100
C3481	C348	0.696300	0.847100	0.334300
H4121	H412	0.731100	0.852500	0.336000
C3491	C349	0.600100	0.837100	0.336100
H4131	H413	0.565400	0.830400	0.335900
C3501	C350	0.631700	0.812900	0.304200
H4141	H414	0.616500	0.790900	0.282500
C3511	C351	0.665900	0.872200	0.368500
H4151	H415	0.680900	0.891300	0.392900
C3521	C352	0.879000	0.859500	0.356400
H4161	H416	0.888600	0.893100	0.350500
H4171	H417	0.847800	0.858800	0.374700
H4181	H418	0.905100	0.843400	0.375000
C3531	C353	0.034800	0.661500	0.279100
H4191	H419	0.023100	0.632000	0.266000
C3541	C354	0.025000	0.743000	0.294200
H4201	H420	0.008000	0.772900	0.292100
C3551	C355	0.659600	0.867100	0.086800
H4211	H421	0.626400	0.860000	0.074200
H4221	H422	0.657400	0.892400	0.111300
H4231	H423	0.681000	0.878000	0.060300
C3561	C356	0.069700	0.739700	0.320600
H4241	H424	0.081900	0.768600	0.334600
C3571	C357	0.080200	0.660800	0.305000
H4251	H425	0.099300	0.632100	0.306100
C3581	C358	0.732600	0.475700	0.146500
H4261	H426	0.745700	0.487100	0.116800
C3591	C359	0.717200	0.481600	0.227200
H4271	H427	0.721900	0.497300	0.257300
C3601	C360	0.690100	0.434100	0.226700
H4281	H428	0.676600	0.421300	0.255700
C3611	C361	0.708800	0.427100	0.149000
H4291	H429	0.711200	0.407100	0.121300
C3621	C362	0.678300	0.634700	0.310300
C3631	C363	0.623300	0.629700	0.336300
H4301	H430	0.627800	0.622400	0.370700
H4311	H431	0.605100	0.660200	0.332900
H4321	H432	0.604500	0.603700	0.320900
C3641	C364	0.845500	0.558000	0.362800
C3651	C365	0.867100	0.514100	0.388700
H4331	H433	0.861200	0.485100	0.369300
H4341	H434	0.903000	0.518500	0.393200
H4351	H435	0.851100	0.510400	0.420200
C3661	C366	0.798700	0.593200	0.027700
C3671	C367	0.832800	0.792400	0.077500
H4361	H436	0.810100	0.820300	0.074000
H4371	H437	0.866300	0.802700	0.066800
C3681	C368	0.776000	0.583100	0.972100
H4381	H438	0.741000	0.592700	0.971000
H4391	H439	0.795000	0.602100	0.948600
H4401	H440	0.778900	0.548800	0.964400
N291	N29	0.808400	0.814900	0.896900
N301	N30	0.617900	0.868900	0.366000
N311	N31	0.096200	0.700100	0.327800
N321	N32	0.685400	0.410300	0.185600
O1551	O155	0.835300	0.778800	0.128700
O1561	O156	0.794500	0.793000	0.217400
O1571	O157	0.891300	0.758400	0.207300
O1581	O158	0.773100	0.712000	0.278500
O1591	O159	0.858800	0.788000	0.310500
O1601	O160	0.852000	0.682400	0.092800
O1611	O161	0.713200	0.730400	0.195600
O1621	O162	0.909800	0.662000	0.174400
O1631	O163	0.725300	0.823000	0.127600
O1641	O164	0.729800	0.639600	0.161000
O1651	O165	0.866500	0.677800	0.269900
O1661	O166	0.753400	0.715800	0.103400
O1671	O167	0.830200	0.603200	0.150600
O1681	O168	0.678700	0.646400	0.264900
O1691	O169	0.879900	0.857000	0.269200
O1701	O170	0.765900	0.612700	0.054600
O1711	O171	0.789700	0.618000	0.244400
O1721	O172	0.654600	0.782200	0.107200
O1731	O173	0.715900	0.632000	0.338000
O1741	O174	0.868000	0.584600	0.342400
O1751	O175	0.802600	0.565200	0.367500
O1761	O176	0.854700	0.580900	0.037800
