data_HAQRID_clean_PM
_symmetry_space_group_name_H-M	'P1'
_cell_length_a	12.321500
_cell_length_b	30.711000
_cell_length_c	22.722400
_cell_angle_alpha	90.000000
_cell_angle_beta	94.229000
_cell_angle_gamma	90.000000
_symmetry_Int_Tables_number 1

loop_
_symmetry_equiv_pos_as_xyz
'x,y,z'

loop_
_atom_site_label
_atom_site_type_symbol
_atom_site_fract_x
_atom_site_fract_y
_atom_site_fract_z
Zn11	Zn1	0.740160	0.917170	0.661020
Zn21	Zn2	0.805350	0.630820	0.487920
O11	O1	0.447700	0.106500	0.475610
O21	O2	0.401400	0.097690	0.381370
O31	O3	0.674800	0.080830	0.237540
O41	O4	0.841700	0.076900	0.266430
O51	O5	0.174200	0.098240	0.491720
O61	O6	0.223400	0.061070	0.571880
O71	O7	0.944900	0.962930	0.655410
O81	O8	0.774300	0.970000	0.621530
O91	O9	0.820800	0.863440	0.653150
O101	O10	0.743000	0.827540	0.576060
O111	O11	0.828000	0.674820	0.548960
O121	O12	0.930000	0.638380	0.614420
C11	C1	0.470700	0.098270	0.423880
C21	C2	0.584800	0.089110	0.411310
C31	C3	0.664600	0.081170	0.456140
H11	H1	0.647000	0.082900	0.495200
C41	C4	0.771300	0.070580	0.443950
C51	C5	0.795700	0.070150	0.385700
H21	H2	0.866700	0.064200	0.376800
C61	C6	0.717600	0.078290	0.340220
C71	C7	0.612200	0.087420	0.352790
H31	H3	0.559300	0.092500	0.322200
C81	C8	0.748400	0.077700	0.277200
C91	C9	0.853600	0.057670	0.492020
C101	C10	0.825400	0.029170	0.535700
H41	H4	0.753800	0.019800	0.536500
C111	C11	0.903500	0.014540	0.578280
C121	C12	0.873900	0.980050	0.622430
C131	C13	0.009300	0.028760	0.577870
H51	H5	0.061100	0.019100	0.606800
C141	C14	0.039900	0.057550	0.534620
C151	C15	0.960900	0.071680	0.491390
H61	H6	0.980300	0.090600	0.462000
C161	C16	0.155000	0.073030	0.533100
C171	C17	0.802700	0.829920	0.623210
C181	C18	0.853900	0.788350	0.645360
C191	C19	0.915700	0.787740	0.700200
H71	H7	0.922100	0.813000	0.722700
C201	C20	0.966800	0.750170	0.720870
C211	C21	0.955000	0.712750	0.687220
H81	H8	0.988500	0.687200	0.700800
C221	C22	0.893500	0.712780	0.633160
C231	C23	0.844000	0.750380	0.613160
H91	H9	0.802800	0.750300	0.577200
C241	C24	0.883200	0.671320	0.596780
Zn31	Zn3	0.240160	0.417170	0.661020
Zn41	Zn4	0.305350	0.130820	0.487920
O131	O13	0.947700	0.606500	0.475610
O141	O14	0.901400	0.597690	0.381370
O151	O15	0.174800	0.580830	0.237540
O161	O16	0.341700	0.576900	0.266430
O171	O17	0.674200	0.598240	0.491720
O181	O18	0.723400	0.561070	0.571880
O191	O19	0.444900	0.462930	0.655410
O201	O20	0.274300	0.470000	0.621530
O211	O21	0.320800	0.363440	0.653150
O221	O22	0.243000	0.327540	0.576060
O231	O23	0.328000	0.174820	0.548960
O241	O24	0.430000	0.138380	0.614420
C251	C25	0.970700	0.598270	0.423880
C261	C26	0.084800	0.589110	0.411310
C271	C27	0.164600	0.581170	0.456140
H101	H10	0.147000	0.582900	0.495200
C281	C28	0.271300	0.570580	0.443950
C291	C29	0.295700	0.570150	0.385700
H111	H11	0.366700	0.564200	0.376800
C301	C30	0.217600	0.578290	0.340220
C311	C31	0.112200	0.587420	0.352790
H121	H12	0.059300	0.592500	0.322200
C321	C32	0.248400	0.577700	0.277200
C331	C33	0.353600	0.557670	0.492020
C341	C34	0.325400	0.529170	0.535700
H131	H13	0.253800	0.519800	0.536500
C351	C35	0.403500	0.514540	0.578280
C361	C36	0.373900	0.480050	0.622430
C371	C37	0.509300	0.528760	0.577870
H141	H14	0.561100	0.519100	0.606800
C381	C38	0.539900	0.557550	0.534620
C391	C39	0.460900	0.571680	0.491390
H151	H15	0.480300	0.590600	0.462000
C401	C40	0.655000	0.573030	0.533100
C411	C41	0.302700	0.329920	0.623210
C421	C42	0.353900	0.288350	0.645360
C431	C43	0.415700	0.287740	0.700200
H161	H16	0.422100	0.313000	0.722700
C441	C44	0.466800	0.250170	0.720870
C451	C45	0.455000	0.212750	0.687220
H171	H17	0.488500	0.187200	0.700800
C461	C46	0.393500	0.212780	0.633160
C471	C47	0.344000	0.250380	0.613160
H181	H18	0.302800	0.250300	0.577200
C481	C48	0.383200	0.171320	0.596780
Zn51	Zn5	0.259840	0.917170	0.838980
Zn61	Zn6	0.194650	0.630820	0.012080
O251	O25	0.552300	0.106500	0.024390
O261	O26	0.598600	0.097690	0.118630
O271	O27	0.325200	0.080830	0.262460
O281	O28	0.158300	0.076900	0.233570
O291	O29	0.825800	0.098240	0.008280
O301	O30	0.776600	0.061070	0.928120
O311	O31	0.055100	0.962930	0.844590
O321	O32	0.225700	0.970000	0.878470
O331	O33	0.179200	0.863440	0.846850
O341	O34	0.257000	0.827540	0.923940
O351	O35	0.172000	0.674820	0.951040
O361	O36	0.070000	0.638380	0.885580
C491	C49	0.529300	0.098270	0.076120
C501	C50	0.415200	0.089110	0.088690
C511	C51	0.335400	0.081170	0.043860
H191	H19	0.353000	0.082900	0.004800
C521	C52	0.228700	0.070580	0.056050
C531	C53	0.204300	0.070150	0.114300
H201	H20	0.133300	0.064200	0.123200
C541	C54	0.282400	0.078290	0.159780
C551	C55	0.387800	0.087420	0.147210
H211	H21	0.440700	0.092500	0.177800
C561	C56	0.251600	0.077700	0.222800
C571	C57	0.146400	0.057670	0.007980
C581	C58	0.174600	0.029170	0.964300
H221	H22	0.246200	0.019800	0.963500
C591	C59	0.096500	0.014540	0.921720
C601	C60	0.126100	0.980050	0.877570
C611	C61	0.990700	0.028760	0.922130
H231	H23	0.938900	0.019100	0.893200
C621	C62	0.960100	0.057550	0.965380
C631	C63	0.039100	0.071680	0.008610
H241	H24	0.019700	0.090600	0.038000
C641	C64	0.845000	0.073030	0.966900
C651	C65	0.197300	0.829920	0.876790
C661	C66	0.146100	0.788350	0.854640
C671	C67	0.084300	0.787740	0.799800
H251	H25	0.077900	0.813000	0.777300
C681	C68	0.033200	0.750170	0.779130
C691	C69	0.045000	0.712750	0.812780
H261	H26	0.011500	0.687200	0.799200
C701	C70	0.106500	0.712780	0.866840
C711	C71	0.156000	0.750380	0.886840
H271	H27	0.197200	0.750300	0.922800
C721	C72	0.116800	0.671320	0.903220
Zn71	Zn7	0.759840	0.417170	0.838980
Zn81	Zn8	0.694650	0.130820	0.012080
O371	O37	0.052300	0.606500	0.024390
O381	O38	0.098600	0.597690	0.118630
O391	O39	0.825200	0.580830	0.262460
O401	O40	0.658300	0.576900	0.233570
O411	O41	0.325800	0.598240	0.008280
O421	O42	0.276600	0.561070	0.928120
O431	O43	0.555100	0.462930	0.844590
O441	O44	0.725700	0.470000	0.878470
O451	O45	0.679200	0.363440	0.846850
O461	O46	0.757000	0.327540	0.923940
O471	O47	0.672000	0.174820	0.951040
O481	O48	0.570000	0.138380	0.885580
C731	C73	0.029300	0.598270	0.076120
C741	C74	0.915200	0.589110	0.088690
C751	C75	0.835400	0.581170	0.043860
H281	H28	0.853000	0.582900	0.004800
C761	C76	0.728700	0.570580	0.056050
C771	C77	0.704300	0.570150	0.114300
H291	H29	0.633300	0.564200	0.123200
C781	C78	0.782400	0.578290	0.159780
C791	C79	0.887800	0.587420	0.147210
H301	H30	0.940700	0.592500	0.177800
C801	C80	0.751600	0.577700	0.222800
C811	C81	0.646400	0.557670	0.007980
C821	C82	0.674600	0.529170	0.964300
H311	H31	0.746200	0.519800	0.963500
C831	C83	0.596500	0.514540	0.921720
C841	C84	0.626100	0.480050	0.877570
C851	C85	0.490700	0.528760	0.922130
H321	H32	0.438900	0.519100	0.893200
C861	C86	0.460100	0.557550	0.965380
C871	C87	0.539100	0.571680	0.008610
H331	H33	0.519700	0.590600	0.038000
C881	C88	0.345000	0.573030	0.966900
C891	C89	0.697300	0.329920	0.876790
C901	C90	0.646100	0.288350	0.854640
C911	C91	0.584300	0.287740	0.799800
H341	H34	0.577900	0.313000	0.777300
C921	C92	0.533200	0.250170	0.779130
C931	C93	0.545000	0.212750	0.812780
H351	H35	0.511500	0.187200	0.799200
C941	C94	0.606500	0.212780	0.866840
C951	C95	0.656000	0.250380	0.886840
H361	H36	0.697200	0.250300	0.922800
C961	C96	0.616800	0.171320	0.903220
Zn91	Zn9	0.259840	0.082830	0.338980
Zn101	Zn10	0.194650	0.369180	0.512080
O491	O49	0.552300	0.893500	0.524390
O501	O50	0.598600	0.902310	0.618630
O511	O51	0.325200	0.919170	0.762460
O521	O52	0.158300	0.923100	0.733570
O531	O53	0.825800	0.901760	0.508280
O541	O54	0.776600	0.938930	0.428120
O551	O55	0.055100	0.037070	0.344590
O561	O56	0.225700	0.030000	0.378470
O571	O57	0.179200	0.136560	0.346850
O581	O58	0.257000	0.172460	0.423940
O591	O59	0.172000	0.325180	0.451040
O601	O60	0.070000	0.361620	0.385580
C971	C97	0.529300	0.901730	0.576120
C981	C98	0.415200	0.910890	0.588690
C991	C99	0.335400	0.918830	0.543860
H371	H37	0.353000	0.917100	0.504800
C1001	C100	0.228700	0.929420	0.556050
C1011	C101	0.204300	0.929850	0.614300
H381	H38	0.133300	0.935800	0.623200
C1021	C102	0.282400	0.921710	0.659780
C1031	C103	0.387800	0.912580	0.647210
H391	H39	0.440700	0.907500	0.677800
C1041	C104	0.251600	0.922300	0.722800
C1051	C105	0.146400	0.942330	0.507980
C1061	C106	0.174600	0.970830	0.464300
H401	H40	0.246200	0.980200	0.463500
C1071	C107	0.096500	0.985460	0.421720
C1081	C108	0.126100	0.019950	0.377570
C1091	C109	0.990700	0.971240	0.422130
H411	H41	0.938900	0.980900	0.393200
C1101	C110	0.960100	0.942450	0.465380
C1111	C111	0.039100	0.928320	0.508610
H421	H42	0.019700	0.909400	0.538000
C1121	C112	0.845000	0.926970	0.466900
C1131	C113	0.197300	0.170080	0.376790
C1141	C114	0.146100	0.211650	0.354640
C1151	C115	0.084300	0.212260	0.299800
H431	H43	0.077900	0.187000	0.277300
C1161	C116	0.033200	0.249830	0.279130
C1171	C117	0.045000	0.287250	0.312780
H441	H44	0.011500	0.312800	0.299200
C1181	C118	0.106500	0.287220	0.366840
C1191	C119	0.156000	0.249620	0.386840
H451	H45	0.197200	0.249700	0.422800
C1201	C120	0.116800	0.328680	0.403220
Zn111	Zn11	0.759840	0.582830	0.338980
Zn121	Zn12	0.694650	0.869180	0.512080
O611	O61	0.052300	0.393500	0.524390
O621	O62	0.098600	0.402310	0.618630
O631	O63	0.825200	0.419170	0.762460
O641	O64	0.658300	0.423100	0.733570
O651	O65	0.325800	0.401760	0.508280
O661	O66	0.276600	0.438930	0.428120
O671	O67	0.555100	0.537070	0.344590
O681	O68	0.725700	0.530000	0.378470
O691	O69	0.679200	0.636560	0.346850
O701	O70	0.757000	0.672460	0.423940
O711	O71	0.672000	0.825180	0.451040
O721	O72	0.570000	0.861620	0.385580
C1211	C121	0.029300	0.401730	0.576120
C1221	C122	0.915200	0.410890	0.588690
C1231	C123	0.835400	0.418830	0.543860
H461	H46	0.853000	0.417100	0.504800
C1241	C124	0.728700	0.429420	0.556050
C1251	C125	0.704300	0.429850	0.614300
H471	H47	0.633300	0.435800	0.623200
C1261	C126	0.782400	0.421710	0.659780
C1271	C127	0.887800	0.412580	0.647210
H481	H48	0.940700	0.407500	0.677800
C1281	C128	0.751600	0.422300	0.722800
C1291	C129	0.646400	0.442330	0.507980
C1301	C130	0.674600	0.470830	0.464300
H491	H49	0.746200	0.480200	0.463500
C1311	C131	0.596500	0.485460	0.421720
C1321	C132	0.626100	0.519950	0.377570
C1331	C133	0.490700	0.471240	0.422130
H501	H50	0.438900	0.480900	0.393200
C1341	C134	0.460100	0.442450	0.465380
C1351	C135	0.539100	0.428320	0.508610
H511	H51	0.519700	0.409400	0.538000
C1361	C136	0.345000	0.426970	0.466900
C1371	C137	0.697300	0.670080	0.376790
C1381	C138	0.646100	0.711650	0.354640
C1391	C139	0.584300	0.712260	0.299800
H521	H52	0.577900	0.687000	0.277300
C1401	C140	0.533200	0.749830	0.279130
C1411	C141	0.545000	0.787250	0.312780
H531	H53	0.511500	0.812800	0.299200
C1421	C142	0.606500	0.787220	0.366840
C1431	C143	0.656000	0.749620	0.386840
H541	H54	0.697200	0.749700	0.422800
C1441	C144	0.616800	0.828680	0.403220
Zn131	Zn13	0.740160	0.082830	0.161020
Zn141	Zn14	0.805350	0.369180	0.987920
O731	O73	0.447700	0.893500	0.975610
O741	O74	0.401400	0.902310	0.881370
O751	O75	0.674800	0.919170	0.737540
O761	O76	0.841700	0.923100	0.766430
O771	O77	0.174200	0.901760	0.991720
O781	O78	0.223400	0.938930	0.071880
O791	O79	0.944900	0.037070	0.155410
O801	O80	0.774300	0.030000	0.121530
O811	O81	0.820800	0.136560	0.153150
O821	O82	0.743000	0.172460	0.076060
O831	O83	0.828000	0.325180	0.048960
O841	O84	0.930000	0.361620	0.114420
C1451	C145	0.470700	0.901730	0.923880
C1461	C146	0.584800	0.910890	0.911310
C1471	C147	0.664600	0.918830	0.956140
H551	H55	0.647000	0.917100	0.995200
C1481	C148	0.771300	0.929420	0.943950
C1491	C149	0.795700	0.929850	0.885700
H561	H56	0.866700	0.935800	0.876800
C1501	C150	0.717600	0.921710	0.840220
C1511	C151	0.612200	0.912580	0.852790
H571	H57	0.559300	0.907500	0.822200
C1521	C152	0.748400	0.922300	0.777200
C1531	C153	0.853600	0.942330	0.992020
C1541	C154	0.825400	0.970830	0.035700
H581	H58	0.753800	0.980200	0.036500
C1551	C155	0.903500	0.985460	0.078280
C1561	C156	0.873900	0.019950	0.122430
C1571	C157	0.009300	0.971240	0.077870
H591	H59	0.061100	0.980900	0.106800
C1581	C158	0.039900	0.942450	0.034620
C1591	C159	0.960900	0.928320	0.991390
H601	H60	0.980300	0.909400	0.962000
C1601	C160	0.155000	0.926970	0.033100
C1611	C161	0.802700	0.170080	0.123210
C1621	C162	0.853900	0.211650	0.145360
C1631	C163	0.915700	0.212260	0.200200
H611	H61	0.922100	0.187000	0.222700
C1641	C164	0.966800	0.249830	0.220870
C1651	C165	0.955000	0.287250	0.187220
H621	H62	0.988500	0.312800	0.200800
C1661	C166	0.893500	0.287220	0.133160
C1671	C167	0.844000	0.249620	0.113160
H631	H63	0.802800	0.249700	0.077200
C1681	C168	0.883200	0.328680	0.096780
Zn151	Zn15	0.240160	0.582830	0.161020
Zn161	Zn16	0.305350	0.869180	0.987920
O851	O85	0.947700	0.393500	0.975610
O861	O86	0.901400	0.402310	0.881370
O871	O87	0.174800	0.419170	0.737540
O881	O88	0.341700	0.423100	0.766430
O891	O89	0.674200	0.401760	0.991720
O901	O90	0.723400	0.438930	0.071880
O911	O91	0.444900	0.537070	0.155410
O921	O92	0.274300	0.530000	0.121530
O931	O93	0.320800	0.636560	0.153150
O941	O94	0.243000	0.672460	0.076060
O951	O95	0.328000	0.825180	0.048960
O961	O96	0.430000	0.861620	0.114420
C1691	C169	0.970700	0.401730	0.923880
C1701	C170	0.084800	0.410890	0.911310
C1711	C171	0.164600	0.418830	0.956140
H641	H64	0.147000	0.417100	0.995200
C1721	C172	0.271300	0.429420	0.943950
C1731	C173	0.295700	0.429850	0.885700
H651	H65	0.366700	0.435800	0.876800
C1741	C174	0.217600	0.421710	0.840220
C1751	C175	0.112200	0.412580	0.852790
H661	H66	0.059300	0.407500	0.822200
C1761	C176	0.248400	0.422300	0.777200
C1771	C177	0.353600	0.442330	0.992020
C1781	C178	0.325400	0.470830	0.035700
H671	H67	0.253800	0.480200	0.036500
C1791	C179	0.403500	0.485460	0.078280
C1801	C180	0.373900	0.519950	0.122430
C1811	C181	0.509300	0.471240	0.077870
H681	H68	0.561100	0.480900	0.106800
C1821	C182	0.539900	0.442450	0.034620
C1831	C183	0.460900	0.428320	0.991390
H691	H69	0.480300	0.409400	0.962000
C1841	C184	0.655000	0.426970	0.033100
C1851	C185	0.302700	0.670080	0.123210
C1861	C186	0.353900	0.711650	0.145360
C1871	C187	0.415700	0.712260	0.200200
H701	H70	0.422100	0.687000	0.222700
C1881	C188	0.466800	0.749830	0.220870
C1891	C189	0.455000	0.787250	0.187220
H711	H71	0.488500	0.812800	0.200800
C1901	C190	0.393500	0.787220	0.133160
C1911	C191	0.344000	0.749620	0.113160
H721	H72	0.302800	0.749700	0.077200
C1921	C192	0.383200	0.828680	0.096780
Zn171	Zn17	0.000000	0.948400	0.750000
Zn181	Zn18	0.500000	0.448400	0.750000
Zn191	Zn19	0.000000	0.051600	0.250000
Zn201	Zn20	0.500000	0.551600	0.250000
