data_HASMIZ_clean_PM
_symmetry_space_group_name_H-M	'P1'
_cell_length_a	11.373700
_cell_length_b	17.601300
_cell_length_c	17.905800
_cell_angle_alpha	90.000000
_cell_angle_beta	90.000000
_cell_angle_gamma	99.234000
_symmetry_Int_Tables_number 1

loop_
_symmetry_equiv_pos_as_xyz
'x,y,z'

loop_
_atom_site_label
_atom_site_type_symbol
_atom_site_fract_x
_atom_site_fract_y
_atom_site_fract_z
Co11	Co1	0.965660	0.075610	0.922050
Co21	Co2	0.034340	0.424390	0.422050
Co31	Co3	0.034340	0.924390	0.077950
Co41	Co4	0.965660	0.575610	0.577950
H11	H1	0.998500	0.780900	0.981200
H21	H2	0.011300	0.700200	0.955100
H31	H3	0.946700	0.901000	0.754700
H41	H4	0.997300	0.663600	0.826500
H51	H5	0.951400	0.823600	0.669900
H61	H6	0.528800	0.984300	0.850900
H71	H7	0.730700	0.982500	0.853600
H81	H8	0.779200	0.162800	0.993400
H91	H9	0.578900	0.165100	0.992300
H101	H10	0.355100	0.000700	0.835600
H111	H11	0.152400	0.999600	0.839000
H121	H12	0.194600	0.157500	0.000400
H131	H13	0.396400	0.151200	0.005700
H141	H14	0.001500	0.719100	0.481200
H151	H15	0.988700	0.799800	0.455100
H161	H16	0.053300	0.599000	0.254700
H171	H17	0.002700	0.836400	0.326500
H181	H18	0.048600	0.676400	0.169900
H191	H19	0.471200	0.515700	0.350900
H201	H20	0.269300	0.517500	0.353600
H211	H21	0.220800	0.337200	0.493400
H221	H22	0.421100	0.334900	0.492300
H231	H23	0.644900	0.499300	0.335600
H241	H24	0.847600	0.500400	0.339000
H251	H25	0.805400	0.342500	0.500400
H261	H26	0.603600	0.348800	0.505700
H271	H27	0.001500	0.219100	0.018800
H281	H28	0.988700	0.299800	0.044900
H291	H29	0.053300	0.099000	0.245300
H301	H30	0.002700	0.336400	0.173500
H311	H31	0.048600	0.176400	0.330100
H321	H32	0.471200	0.015700	0.149100
H331	H33	0.269300	0.017500	0.146400
H341	H34	0.220800	0.837200	0.006600
H351	H35	0.421100	0.834900	0.007700
H361	H36	0.644900	0.999300	0.164400
H371	H37	0.847600	0.000400	0.161000
H381	H38	0.805400	0.842500	0.999600
H391	H39	0.603600	0.848800	0.994300
H401	H40	0.998500	0.280900	0.518800
H411	H41	0.011300	0.200200	0.544900
H421	H42	0.946700	0.401000	0.745300
H431	H43	0.997300	0.163600	0.673500
H441	H44	0.951400	0.323600	0.830100
H451	H45	0.528800	0.484300	0.649100
H461	H46	0.730700	0.482500	0.646400
H471	H47	0.779200	0.662800	0.506600
H481	H48	0.578900	0.665100	0.507700
H491	H49	0.355100	0.500700	0.664400
H501	H50	0.152400	0.499600	0.661000
H511	H51	0.194600	0.657500	0.499600
H521	H52	0.396400	0.651200	0.494300
C11	C1	0.992600	0.846900	0.848700
C21	C2	0.002900	0.773800	0.866700
C31	C3	0.995100	0.715600	0.813100
C41	C4	0.983800	0.737300	0.739400
C51	C5	0.965300	0.811000	0.720400
C61	C6	0.967200	0.864900	0.775200
C71	C7	0.984600	0.903700	0.914500
C81	C8	0.980800	0.673200	0.677000
C91	C9	0.530200	0.074200	0.922000
C101	C10	0.579000	0.020800	0.880500
C111	C11	0.699100	0.020200	0.881900
C121	C12	0.728500	0.126200	0.964200
C131	C13	0.609500	0.127300	0.963600
C141	C14	0.408800	0.076000	0.920600
C151	C15	0.324900	0.032400	0.871500
C161	C16	0.203200	0.032400	0.871800
C171	C17	0.228400	0.124300	0.967800
C181	C18	0.349500	0.120900	0.969200
C191	C19	0.007400	0.653100	0.348700
C201	C20	0.997100	0.726200	0.366700
C211	C21	0.004900	0.784400	0.313100
C221	C22	0.016200	0.762700	0.239400
C231	C23	0.034700	0.689000	0.220400
C241	C24	0.032800	0.635100	0.275200
C251	C25	0.015400	0.596300	0.414500
C261	C26	0.019200	0.826800	0.177000
C271	C27	0.469800	0.425800	0.422000
C281	C28	0.421000	0.479200	0.380500
C291	C29	0.300900	0.479800	0.381900
C301	C30	0.271500	0.373800	0.464200
C311	C31	0.390500	0.372700	0.463600
C321	C32	0.591200	0.424000	0.420600
C331	C33	0.675100	0.467600	0.371500
C341	C34	0.796800	0.467600	0.371800
C351	C35	0.771600	0.375700	0.467800
C361	C36	0.650500	0.379100	0.469200
C371	C37	0.007400	0.153100	0.151300
C381	C38	0.997100	0.226200	0.133300
C391	C39	0.004900	0.284400	0.186900
C401	C40	0.016200	0.262700	0.260600
C411	C41	0.034700	0.189000	0.279600
C421	C42	0.032800	0.135100	0.224800
C431	C43	0.015400	0.096300	0.085500
C441	C44	0.019200	0.326800	0.323000
C451	C45	0.469800	0.925800	0.078000
C461	C46	0.421000	0.979200	0.119500
C471	C47	0.300900	0.979800	0.118100
C481	C48	0.271500	0.873800	0.035800
C491	C49	0.390500	0.872700	0.036400
C501	C50	0.591200	0.924000	0.079400
C511	C51	0.675100	0.967600	0.128500
C521	C52	0.796800	0.967600	0.128200
C531	C53	0.771600	0.875700	0.032200
C541	C54	0.650500	0.879100	0.030800
C551	C55	0.992600	0.346900	0.651300
C561	C56	0.002900	0.273800	0.633300
C571	C57	0.995100	0.215600	0.686900
C581	C58	0.983800	0.237300	0.760600
C591	C59	0.965300	0.311000	0.779600
C601	C60	0.967200	0.364900	0.724800
C611	C61	0.984600	0.403700	0.585500
C621	C62	0.980800	0.173200	0.823000
C631	C63	0.530200	0.574200	0.578000
C641	C64	0.579000	0.520800	0.619500
C651	C65	0.699100	0.520200	0.618100
C661	C66	0.728500	0.626200	0.535800
C671	C67	0.609500	0.627300	0.536400
C681	C68	0.408800	0.576000	0.579400
C691	C69	0.324900	0.532400	0.628500
C701	C70	0.203200	0.532400	0.628200
C711	C71	0.228400	0.624300	0.532200
C721	C72	0.349500	0.620900	0.530800
N11	N1	0.004000	0.748200	0.944800
N21	N2	0.776300	0.073300	0.923600
N31	N3	0.159200	0.078100	0.917800
N41	N4	0.996000	0.751800	0.444800
N51	N5	0.223700	0.426700	0.423600
N61	N6	0.840800	0.421900	0.417800
N71	N7	0.996000	0.251800	0.055200
N81	N8	0.223700	0.926700	0.076400
N91	N9	0.840800	0.921900	0.082200
N101	N10	0.004000	0.248200	0.555200
N111	N11	0.776300	0.573300	0.576400
N121	N12	0.159200	0.578100	0.582200
O11	O1	0.937500	0.964100	0.895500
O21	O2	0.033400	0.893800	0.970700
O31	O3	0.968200	0.604500	0.697300
O41	O4	0.988900	0.696600	0.611200
O51	O5	0.062500	0.535900	0.395500
O61	O6	0.966600	0.606200	0.470700
O71	O7	0.031800	0.895500	0.197300
O81	O8	0.011100	0.803400	0.111200
O91	O9	0.062500	0.035900	0.104500
O101	O10	0.966600	0.106200	0.029300
O111	O11	0.031800	0.395500	0.302700
O121	O12	0.011100	0.303400	0.388800
O131	O13	0.937500	0.464100	0.604500
O141	O14	0.033400	0.393800	0.529300
O151	O15	0.968200	0.104500	0.802700
O161	O16	0.988900	0.196600	0.888800
