data_HAVYOU_clean_PM
_symmetry_space_group_name_H-M	'P1'
_cell_length_a	12.703100
_cell_length_b	12.703100
_cell_length_c	35.759000
_cell_angle_alpha	90.000000
_cell_angle_beta	90.000000
_cell_angle_gamma	90.000000
_symmetry_Int_Tables_number 1

loop_
_symmetry_equiv_pos_as_xyz
'x,y,z'

loop_
_atom_site_label
_atom_site_type_symbol
_atom_site_fract_x
_atom_site_fract_y
_atom_site_fract_z
O11	O1	0.562300	0.179700	0.952600
O21	O2	0.703600	0.531800	0.994400
O31	O3	0.517700	0.504700	0.040600
O41	O4	0.681300	0.354200	0.029500
O51	O5	0.478800	0.306800	0.074800
C11	C1	0.717700	0.146400	0.106600
O61	O6	0.382200	0.141900	0.993000
O71	O7	0.450900	0.338600	0.916600
O81	O8	0.611700	0.993900	0.108900
O91	O9	0.594800	0.483200	0.897500
O101	O10	0.285900	0.297600	0.957300
O111	O11	0.667000	0.361600	0.956300
O121	O12	0.572400	0.167200	0.029200
O131	O13	0.480000	0.314700	0.994980
O141	O14	0.380600	0.130500	0.916800
O151	O15	0.636700	0.448800	0.093780
O161	O16	0.654900	0.638000	0.059700
C21	C2	0.890100	0.258900	0.085200
H11	H1	0.948200	0.298200	0.077700
C31	C3	0.618800	0.089900	0.117900
N11	N1	0.825600	0.299100	0.111500
O171	O17	0.549300	0.139400	0.135400
C41	C4	0.732900	0.245100	0.121700
H21	H2	0.684100	0.274900	0.138000
C51	C5	0.786000	0.104100	0.080000
H31	H3	0.773500	0.038000	0.069800
Ag11	Ag1	0.146400	0.177300	0.982270
O181	O18	0.932700	0.034200	0.027000
O191	O19	0.015400	0.187900	0.028000
C61	C6	0.946900	0.125100	0.038700
C71	C7	0.873500	0.163000	0.068900
W11	W1	0.694430	0.499560	0.045470
W21	W2	0.672260	0.502780	0.942250
W31	W3	0.640410	0.253130	0.993950
W41	W4	0.419370	0.227510	0.948040
W51	W5	0.423850	0.207300	0.038700
W61	W6	0.489250	0.438950	0.097270
Ag21	Ag2	0.950890	0.433310	0.890350
O201	O20	0.437700	0.820300	0.452600
O211	O21	0.296400	0.468200	0.494400
O221	O22	0.482300	0.495300	0.540600
O231	O23	0.318700	0.645800	0.529500
O241	O24	0.521200	0.693200	0.574800
C81	C8	0.282300	0.853600	0.606600
O251	O25	0.617800	0.858100	0.493000
O261	O26	0.549100	0.661400	0.416600
O271	O27	0.388300	0.006100	0.608900
O281	O28	0.405200	0.516800	0.397500
O291	O29	0.714100	0.702400	0.457300
O301	O30	0.333000	0.638400	0.456300
O311	O31	0.427600	0.832800	0.529200
O321	O32	0.520000	0.685300	0.494980
O331	O33	0.619400	0.869500	0.416800
O341	O34	0.363300	0.551200	0.593780
O351	O35	0.345100	0.362000	0.559700
C91	C9	0.109900	0.741100	0.585200
H41	H4	0.051800	0.701800	0.577700
C101	C10	0.381200	0.910100	0.617900
N21	N2	0.174400	0.700900	0.611500
O361	O36	0.450700	0.860600	0.635400
C111	C11	0.267100	0.754900	0.621700
H51	H5	0.315900	0.725100	0.638000
C121	C12	0.214000	0.895900	0.580000
H61	H6	0.226500	0.962000	0.569800
Ag31	Ag3	0.853600	0.822700	0.482270
O371	O37	0.067300	0.965800	0.527000
O381	O38	0.984600	0.812100	0.528000
C131	C13	0.053100	0.874900	0.538700
C141	C14	0.126500	0.837000	0.568900
W71	W7	0.305570	0.500440	0.545470
W81	W8	0.327740	0.497220	0.442250
W91	W9	0.359590	0.746870	0.493950
W101	W10	0.580630	0.772490	0.448040
W111	W11	0.576150	0.792700	0.538700
W121	W12	0.510750	0.561050	0.597270
Ag41	Ag4	0.049110	0.566690	0.390350
O391	O39	0.320300	0.062300	0.202600
O401	O40	0.968200	0.203600	0.244400
O411	O41	0.995300	0.017700	0.290600
O421	O42	0.145800	0.181300	0.279500
O431	O43	0.193200	0.978800	0.324800
C151	C15	0.353600	0.217700	0.356600
O441	O44	0.358100	0.882200	0.243000
O451	O45	0.161400	0.950900	0.166600
O461	O46	0.506100	0.111700	0.358900
O471	O47	0.016800	0.094800	0.147500
O481	O48	0.202400	0.785900	0.207300
O491	O49	0.138400	0.167000	0.206300
O501	O50	0.332800	0.072400	0.279200
O511	O51	0.185300	0.980000	0.244980
O521	O52	0.369500	0.880600	0.166800
O531	O53	0.051200	0.136700	0.343780
O541	O54	0.862000	0.154900	0.309700
C161	C16	0.241100	0.390100	0.335200
H71	H7	0.201800	0.448200	0.327700
C171	C17	0.410100	0.118800	0.367900
N31	N3	0.200900	0.325600	0.361500
O551	O55	0.360600	0.049300	0.385400
C181	C18	0.254900	0.232900	0.371700
H81	H8	0.225100	0.184100	0.388000
C191	C19	0.395900	0.286000	0.330000
H91	H9	0.462000	0.273500	0.319800
Ag51	Ag5	0.322700	0.646400	0.232270
O561	O56	0.465800	0.432700	0.277000
O571	O57	0.312100	0.515400	0.278000
C201	C20	0.374900	0.446900	0.288700
C211	C21	0.337000	0.373500	0.318900
W131	W13	0.000440	0.194430	0.295470
W141	W14	0.997220	0.172260	0.192250
W151	W15	0.246870	0.140410	0.243950
W161	W16	0.272490	0.919370	0.198040
W171	W17	0.292700	0.923850	0.288700
W181	W18	0.061050	0.989250	0.347270
Ag61	Ag6	0.066690	0.450890	0.140350
O581	O58	0.679700	0.937700	0.702600
O591	O59	0.031800	0.796400	0.744400
O601	O60	0.004700	0.982300	0.790600
O611	O61	0.854200	0.818700	0.779500
O621	O62	0.806800	0.021200	0.824800
C221	C22	0.646400	0.782300	0.856600
O631	O63	0.641900	0.117800	0.743000
O641	O64	0.838600	0.049100	0.666600
O651	O65	0.493900	0.888300	0.858900
O661	O66	0.983200	0.905200	0.647500
O671	O67	0.797600	0.214100	0.707300
O681	O68	0.861600	0.833000	0.706300
O691	O69	0.667200	0.927600	0.779200
O701	O70	0.814700	0.020000	0.744980
O711	O71	0.630500	0.119400	0.666800
O721	O72	0.948800	0.863300	0.843780
O731	O73	0.138000	0.845100	0.809700
C231	C23	0.758900	0.609900	0.835200
H101	H10	0.798200	0.551800	0.827700
C241	C24	0.589900	0.881200	0.867900
N41	N4	0.799100	0.674400	0.861500
O741	O74	0.639400	0.950700	0.885400
C251	C25	0.745100	0.767100	0.871700
H111	H11	0.774900	0.815900	0.888000
C261	C26	0.604100	0.714000	0.830000
H121	H12	0.538000	0.726500	0.819800
Ag71	Ag7	0.677300	0.353600	0.732270
O751	O75	0.534200	0.567300	0.777000
O761	O76	0.687900	0.484600	0.778000
C271	C27	0.625100	0.553100	0.788700
C281	C28	0.663000	0.626500	0.818900
W191	W19	0.999560	0.805570	0.795470
W201	W20	0.002780	0.827740	0.692250
W211	W21	0.753130	0.859590	0.743950
W221	W22	0.727510	0.080630	0.698040
W231	W23	0.707300	0.076150	0.788700
W241	W24	0.938950	0.010750	0.847270
Ag81	Ag8	0.933310	0.549110	0.640350
O771	O77	0.937700	0.679700	0.297400
O781	O78	0.796400	0.031800	0.255600
O791	O79	0.982300	0.004700	0.209400
O801	O80	0.818700	0.854200	0.220500
O811	O81	0.021200	0.806800	0.175200
C291	C29	0.782300	0.646400	0.143400
O821	O82	0.117800	0.641900	0.257000
O831	O83	0.049100	0.838600	0.333400
O841	O84	0.888300	0.493900	0.141100
O851	O85	0.905200	0.983200	0.352500
O861	O86	0.214100	0.797600	0.292700
O871	O87	0.833000	0.861600	0.293700
O881	O88	0.927600	0.667200	0.220800
O891	O89	0.020000	0.814700	0.255020
O901	O90	0.119400	0.630500	0.333200
O911	O91	0.863300	0.948800	0.156220
O921	O92	0.845100	0.138000	0.190300
C301	C30	0.609900	0.758900	0.164800
H131	H13	0.551800	0.798200	0.172300
C311	C31	0.881200	0.589900	0.132100
N51	N5	0.674400	0.799100	0.138500
O931	O93	0.950700	0.639400	0.114600
C321	C32	0.767100	0.745100	0.128300
H141	H14	0.815900	0.774900	0.112000
C331	C33	0.714000	0.604100	0.170000
H151	H15	0.726500	0.538000	0.180200
Ag91	Ag9	0.353600	0.677300	0.267730
O941	O94	0.567300	0.534200	0.223000
O951	O95	0.484600	0.687900	0.222000
C341	C34	0.553100	0.625100	0.211300
C351	C35	0.626500	0.663000	0.181100
W251	W25	0.805570	0.999560	0.204530
W261	W26	0.827740	0.002780	0.307750
W271	W27	0.859590	0.753130	0.256050
W281	W28	0.080630	0.727510	0.301960
W291	W29	0.076150	0.707300	0.211300
W301	W30	0.010750	0.938950	0.152730
Ag101	Ag10	0.549110	0.933310	0.359650
O961	O96	0.062300	0.320300	0.797400
O971	O97	0.203600	0.968200	0.755600
O981	O98	0.017700	0.995300	0.709400
O991	O99	0.181300	0.145800	0.720500
O1001	O100	0.978800	0.193200	0.675200
C361	C36	0.217700	0.353600	0.643400
O1011	O101	0.882200	0.358100	0.757000
O1021	O102	0.950900	0.161400	0.833400
O1031	O103	0.111700	0.506100	0.641100
O1041	O104	0.094800	0.016800	0.852500
O1051	O105	0.785900	0.202400	0.792700
O1061	O106	0.167000	0.138400	0.793700
O1071	O107	0.072400	0.332800	0.720800
O1081	O108	0.980000	0.185300	0.755020
O1091	O109	0.880600	0.369500	0.833200
O1101	O110	0.136700	0.051200	0.656220
O1111	O111	0.154900	0.862000	0.690300
C371	C37	0.390100	0.241100	0.664800
H161	H16	0.448200	0.201800	0.672300
C381	C38	0.118800	0.410100	0.632100
N61	N6	0.325600	0.200900	0.638500
O1121	O112	0.049300	0.360600	0.614600
C391	C39	0.232900	0.254900	0.628300
H171	H17	0.184100	0.225100	0.612000
C401	C40	0.286000	0.395900	0.670000
H181	H18	0.273500	0.462000	0.680200
Ag111	Ag11	0.646400	0.322700	0.767730
O1131	O113	0.432700	0.465800	0.723000
O1141	O114	0.515400	0.312100	0.722000
C411	C41	0.446900	0.374900	0.711300
C421	C42	0.373500	0.337000	0.681100
W311	W31	0.194430	0.000440	0.704530
W321	W32	0.172260	0.997220	0.807750
W331	W33	0.140410	0.246870	0.756050
W341	W34	0.919370	0.272490	0.801960
W351	W35	0.923850	0.292700	0.711300
W361	W36	0.989250	0.061050	0.652730
Ag121	Ag12	0.450890	0.066690	0.859650
O1151	O115	0.179700	0.562300	0.047400
O1161	O116	0.531800	0.703600	0.005600
O1171	O117	0.504700	0.517700	0.959400
O1181	O118	0.354200	0.681300	0.970500
O1191	O119	0.306800	0.478800	0.925200
C431	C43	0.146400	0.717700	0.893400
O1201	O120	0.141900	0.382200	0.007000
O1211	O121	0.338600	0.450900	0.083400
O1221	O122	0.993900	0.611700	0.891100
O1231	O123	0.483200	0.594800	0.102500
O1241	O124	0.297600	0.285900	0.042700
O1251	O125	0.361600	0.667000	0.043700
O1261	O126	0.167200	0.572400	0.970800
O1271	O127	0.314700	0.480000	0.005020
O1281	O128	0.130500	0.380600	0.083200
O1291	O129	0.448800	0.636700	0.906220
O1301	O130	0.638000	0.654900	0.940300
C441	C44	0.258900	0.890100	0.914800
H191	H19	0.298200	0.948200	0.922300
C451	C45	0.089900	0.618800	0.882100
N71	N7	0.299100	0.825600	0.888500
O1311	O131	0.139400	0.549300	0.864600
C461	C46	0.245100	0.732900	0.878300
H201	H20	0.274900	0.684100	0.862000
C471	C47	0.104100	0.786000	0.920000
H211	H21	0.038000	0.773500	0.930200
Ag131	Ag13	0.177300	0.146400	0.017730
O1321	O132	0.034200	0.932700	0.973000
O1331	O133	0.187900	0.015400	0.972000
C481	C48	0.125100	0.946900	0.961300
C491	C49	0.163000	0.873500	0.931100
W371	W37	0.499560	0.694430	0.954530
W381	W38	0.502780	0.672260	0.057750
W391	W39	0.253130	0.640410	0.006050
W401	W40	0.227510	0.419370	0.051960
W411	W41	0.207300	0.423850	0.961300
W421	W42	0.438950	0.489250	0.902730
Ag141	Ag14	0.433310	0.950890	0.109650
O1341	O134	0.820300	0.437700	0.547400
O1351	O135	0.468200	0.296400	0.505600
O1361	O136	0.495300	0.482300	0.459400
O1371	O137	0.645800	0.318700	0.470500
O1381	O138	0.693200	0.521200	0.425200
C501	C50	0.853600	0.282300	0.393400
O1391	O139	0.858100	0.617800	0.507000
O1401	O140	0.661400	0.549100	0.583400
O1411	O141	0.006100	0.388300	0.391100
O1421	O142	0.516800	0.405200	0.602500
O1431	O143	0.702400	0.714100	0.542700
O1441	O144	0.638400	0.333000	0.543700
O1451	O145	0.832800	0.427600	0.470800
O1461	O146	0.685300	0.520000	0.505020
O1471	O147	0.869500	0.619400	0.583200
O1481	O148	0.551200	0.363300	0.406220
O1491	O149	0.362000	0.345100	0.440300
C511	C51	0.741100	0.109900	0.414800
H221	H22	0.701800	0.051800	0.422300
C521	C52	0.910100	0.381200	0.382100
N81	N8	0.700900	0.174400	0.388500
O1501	O150	0.860600	0.450700	0.364600
C531	C53	0.754900	0.267100	0.378300
H231	H23	0.725100	0.315900	0.362000
C541	C54	0.895900	0.214000	0.420000
H241	H24	0.962000	0.226500	0.430200
Ag151	Ag15	0.822700	0.853600	0.517730
O1511	O151	0.965800	0.067300	0.473000
O1521	O152	0.812100	0.984600	0.472000
C551	C55	0.874900	0.053100	0.461300
C561	C56	0.837000	0.126500	0.431100
W431	W43	0.500440	0.305570	0.454530
W441	W44	0.497220	0.327740	0.557750
W451	W45	0.746870	0.359590	0.506050
W461	W46	0.772490	0.580630	0.551960
W471	W47	0.792700	0.576150	0.461300
W481	W48	0.561050	0.510750	0.402730
Ag161	Ag16	0.566690	0.049110	0.609650
