data_HAWGIX_charged_PM
_symmetry_space_group_name_H-M	'P1'
_cell_length_a	10.270000
_cell_length_b	16.594000
_cell_length_c	28.683000
_cell_angle_alpha	90.000000
_cell_angle_beta	90.000000
_cell_angle_gamma	104.964000
_symmetry_Int_Tables_number 1

loop_
_symmetry_equiv_pos_as_xyz
'x,y,z'

loop_
_atom_site_label
_atom_site_type_symbol
_atom_site_fract_x
_atom_site_fract_y
_atom_site_fract_z
Cd11	Cd1	0.960570	0.668120	0.347410
Cd21	Cd2	0.602000	0.600100	0.308250
Cd31	Cd3	0.039430	0.831880	0.847410
Cd41	Cd4	0.398000	0.899900	0.808250
Cd51	Cd5	0.039430	0.331880	0.652590
Cd61	Cd6	0.398000	0.399900	0.691750
Cd71	Cd7	0.960570	0.168120	0.152590
Cd81	Cd8	0.602000	0.100100	0.191750
H11	H1	0.735300	0.888300	0.246800
H21	H2	0.024700	0.075400	0.300300
H31	H3	0.922900	0.855600	0.366600
H41	H4	0.100500	0.934600	0.423700
H51	H5	0.960000	0.956200	0.424700
H61	H6	0.879300	0.151500	0.436800
H71	H7	0.839600	0.054500	0.443800
H81	H8	0.925100	0.094100	0.400400
H91	H9	0.207500	0.296100	0.543500
H101	H10	0.351900	0.281100	0.540900
H111	H11	0.249800	0.236000	0.579200
H121	H12	0.269200	0.952800	0.447400
H131	H13	0.343600	0.977600	0.495100
H141	H14	0.400300	0.026400	0.449500
H151	H15	0.742300	0.508700	0.479800
H161	H16	0.823200	0.303300	0.533100
H171	H17	0.033800	0.420200	0.424400
H181	H18	0.895500	0.197400	0.504200
H191	H19	0.009300	0.249000	0.537300
H201	H20	0.340700	0.997700	0.645900
H211	H21	0.623600	0.176100	0.582600
H221	H22	0.696300	0.095000	0.708600
H231	H23	0.474300	0.112900	0.514800
H241	H24	0.448200	0.189500	0.542200
H251	H25	0.399000	0.656000	0.360000
H261	H26	0.343000	0.642000	0.314000
H271	H27	0.667000	0.539000	0.392000
H281	H28	0.542000	0.554000	0.407100
H291	H29	0.264700	0.611700	0.746800
H301	H30	0.975300	0.424600	0.800300
H311	H31	0.077100	0.644400	0.866600
H321	H32	0.899500	0.565400	0.923700
H331	H33	0.040000	0.543800	0.924700
H341	H34	0.120700	0.348500	0.936800
H351	H35	0.160400	0.445500	0.943800
H361	H36	0.074900	0.405900	0.900400
H371	H37	0.792500	0.203900	0.043500
H381	H38	0.648100	0.218900	0.040900
H391	H39	0.750200	0.264000	0.079200
H401	H40	0.730800	0.547200	0.947400
H411	H41	0.656400	0.522400	0.995100
H421	H42	0.599700	0.473600	0.949500
H431	H43	0.257700	0.991300	0.979800
H441	H44	0.176800	0.196700	0.033100
H451	H45	0.966200	0.079800	0.924400
H461	H46	0.104500	0.302600	0.004200
H471	H47	0.990700	0.251000	0.037300
H481	H48	0.659300	0.502300	0.145900
H491	H49	0.376400	0.323900	0.082600
H501	H50	0.303700	0.405000	0.208600
H511	H51	0.525700	0.387100	0.014800
H521	H52	0.551800	0.310500	0.042200
H531	H53	0.601000	0.844000	0.860000
H541	H54	0.657000	0.858000	0.814000
H551	H55	0.333000	0.961000	0.892000
H561	H56	0.458000	0.946000	0.907100
H571	H57	0.264700	0.111700	0.753200
H581	H58	0.975300	0.924600	0.699700
H591	H59	0.077100	0.144400	0.633400
H601	H60	0.899500	0.065400	0.576300
H611	H61	0.040000	0.043800	0.575300
H621	H62	0.120700	0.848500	0.563200
H631	H63	0.160400	0.945500	0.556200
H641	H64	0.074900	0.905900	0.599600
H651	H65	0.792500	0.703900	0.456500
H661	H66	0.648100	0.718900	0.459100
H671	H67	0.750200	0.764000	0.420800
H681	H68	0.730800	0.047200	0.552600
H691	H69	0.656400	0.022400	0.504900
H701	H70	0.599700	0.973600	0.550500
H711	H71	0.257700	0.491300	0.520200
H721	H72	0.176800	0.696700	0.466900
H731	H73	0.966200	0.579800	0.575600
H741	H74	0.104500	0.802600	0.495800
H751	H75	0.990700	0.751000	0.462700
H761	H76	0.659300	0.002300	0.354100
H771	H77	0.376400	0.823900	0.417400
H781	H78	0.303700	0.905000	0.291400
H791	H79	0.525700	0.887100	0.485200
H801	H80	0.551800	0.810500	0.457800
H811	H81	0.601000	0.344000	0.640000
H821	H82	0.657000	0.358000	0.686000
H831	H83	0.333000	0.461000	0.608000
H841	H84	0.458000	0.446000	0.592900
H851	H85	0.735300	0.388300	0.253200
H861	H86	0.024700	0.575400	0.199700
H871	H87	0.922900	0.355600	0.133400
H881	H88	0.100500	0.434600	0.076300
H891	H89	0.960000	0.456200	0.075300
H901	H90	0.879300	0.651500	0.063200
H911	H91	0.839600	0.554500	0.056200
H921	H92	0.925100	0.594100	0.099600
H931	H93	0.207500	0.796100	0.956500
H941	H94	0.351900	0.781100	0.959100
H951	H95	0.249800	0.736000	0.920800
H961	H96	0.269200	0.452800	0.052600
H971	H97	0.343600	0.477600	0.004900
H981	H98	0.400300	0.526400	0.050500
H991	H99	0.742300	0.008700	0.020200
H1001	H100	0.823200	0.803300	0.966900
H1011	H101	0.033800	0.920200	0.075600
H1021	H102	0.895500	0.697400	0.995800
H1031	H103	0.009300	0.749000	0.962700
H1041	H104	0.340700	0.497700	0.854100
H1051	H105	0.623600	0.676100	0.917400
H1061	H106	0.696300	0.595000	0.791400
H1071	H107	0.474300	0.612900	0.985200
H1081	H108	0.448200	0.689500	0.957800
H1091	H109	0.399000	0.156000	0.140000
H1101	H110	0.343000	0.142000	0.186000
H1111	H111	0.667000	0.039000	0.108000
H1121	H112	0.542000	0.054000	0.092900
C11	C1	0.740500	0.767400	0.306600
C21	C2	0.817200	0.857200	0.306100
C31	C3	0.799700	0.908700	0.269600
C41	C4	0.877700	0.990000	0.267100
C51	C5	0.971200	0.021000	0.302100
C61	C6	0.985200	0.971300	0.339700
C71	C7	0.911300	0.889400	0.341900
C81	C8	0.864500	0.046000	0.226000
C91	C9	0.055600	0.978800	0.419000
C101	C10	0.112200	0.050000	0.452100
C111	C11	0.035500	0.108100	0.460000
C121	C12	0.080500	0.171800	0.492300
C131	C13	0.205900	0.182500	0.514400
C141	C14	0.281100	0.124200	0.506200
C151	C15	0.235600	0.058900	0.474900
C161	C16	0.908400	0.101400	0.432800
C171	C17	0.258700	0.255700	0.547600
C181	C18	0.319800	0.998400	0.465900
C191	C19	0.920200	0.543800	0.411000
C201	C20	0.891600	0.475300	0.446400
C211	C21	0.792900	0.469600	0.479400
C221	C22	0.767800	0.406300	0.512200
C231	C23	0.840500	0.346400	0.511400
C241	C24	0.938400	0.351700	0.478000
C251	C25	0.965400	0.416300	0.446200
C261	C26	0.660400	0.399800	0.549800
C271	C27	0.989600	0.228200	0.505800
C281	C28	0.466500	0.981300	0.725000
C291	C29	0.510100	0.036300	0.683800
C301	C30	0.426000	0.034600	0.646000
C311	C31	0.467200	0.087200	0.608200
C321	C32	0.595000	0.141400	0.608100
C331	C33	0.680000	0.144300	0.645700
C341	C34	0.638800	0.092700	0.683300
C351	C35	0.815500	0.204800	0.646500
C361	C36	0.409100	0.131900	0.533400
C371	C37	0.259500	0.732600	0.806600
C381	C38	0.182800	0.642800	0.806100
C391	C39	0.200300	0.591300	0.769600
C401	C40	0.122300	0.510000	0.767100
C411	C41	0.028800	0.479000	0.802100
C421	C42	0.014800	0.528700	0.839700
C431	C43	0.088700	0.610600	0.841900
C441	C44	0.135500	0.454000	0.726000
C451	C45	0.944400	0.521200	0.919000
C461	C46	0.887800	0.450000	0.952100
C471	C47	0.964500	0.391900	0.960000
C481	C48	0.919500	0.328200	0.992300
C491	C49	0.794100	0.317500	0.014400
C501	C50	0.718900	0.375800	0.006200
C511	C51	0.764400	0.441100	0.974900
C521	C52	0.091600	0.398600	0.932800
C531	C53	0.741300	0.244300	0.047600
C541	C54	0.680200	0.501600	0.965900
C551	C55	0.079800	0.956200	0.911000
C561	C56	0.108400	0.024700	0.946400
C571	C57	0.207100	0.030400	0.979400
C581	C58	0.232200	0.093700	0.012200
C591	C59	0.159500	0.153600	0.011400
C601	C60	0.061600	0.148300	0.978000
C611	C61	0.034600	0.083700	0.946200
C621	C62	0.339600	0.100200	0.049800
C631	C63	0.010400	0.271800	0.005800
C641	C64	0.533500	0.518700	0.225000
C651	C65	0.489900	0.463700	0.183800
C661	C66	0.574000	0.465400	0.146000
C671	C67	0.532800	0.412800	0.108200
C681	C68	0.405000	0.358600	0.108100
C691	C69	0.320000	0.355700	0.145700
C701	C70	0.361200	0.407300	0.183300
C711	C71	0.184500	0.295200	0.146500
C721	C72	0.590900	0.368100	0.033400
C731	C73	0.259500	0.232600	0.693400
C741	C74	0.182800	0.142800	0.693900
C751	C75	0.200300	0.091300	0.730400
C761	C76	0.122300	0.010000	0.732900
C771	C77	0.028800	0.979000	0.697900
C781	C78	0.014800	0.028700	0.660300
C791	C79	0.088700	0.110600	0.658100
C801	C80	0.135500	0.954000	0.774000
C811	C81	0.944400	0.021200	0.581000
C821	C82	0.887800	0.950000	0.547900
C831	C83	0.964500	0.891900	0.540000
C841	C84	0.919500	0.828200	0.507700
C851	C85	0.794100	0.817500	0.485600
C861	C86	0.718900	0.875800	0.493800
C871	C87	0.764400	0.941100	0.525100
C881	C88	0.091600	0.898600	0.567200
C891	C89	0.741300	0.744300	0.452400
C901	C90	0.680200	0.001600	0.534100
C911	C91	0.079800	0.456200	0.589000
C921	C92	0.108400	0.524700	0.553600
C931	C93	0.207100	0.530400	0.520600
C941	C94	0.232200	0.593700	0.487800
C951	C95	0.159500	0.653600	0.488600
C961	C96	0.061600	0.648300	0.522000
C971	C97	0.034600	0.583700	0.553800
C981	C98	0.339600	0.600200	0.450200
C991	C99	0.010400	0.771800	0.494200
C1001	C100	0.533500	0.018700	0.275000
C1011	C101	0.489900	0.963700	0.316200
C1021	C102	0.574000	0.965400	0.354000
C1031	C103	0.532800	0.912800	0.391800
C1041	C104	0.405000	0.858600	0.391900
C1051	C105	0.320000	0.855700	0.354300
C1061	C106	0.361200	0.907300	0.316700
C1071	C107	0.184500	0.795200	0.353500
C1081	C108	0.590900	0.868100	0.466600
C1091	C109	0.740500	0.267400	0.193400
C1101	C110	0.817200	0.357200	0.193900
C1111	C111	0.799700	0.408700	0.230400
C1121	C112	0.877700	0.490000	0.232900
C1131	C113	0.971200	0.521000	0.197900
C1141	C114	0.985200	0.471300	0.160300
C1151	C115	0.911300	0.389400	0.158100
C1161	C116	0.864500	0.546000	0.274000
C1171	C117	0.055600	0.478800	0.081000
C1181	C118	0.112200	0.550000	0.047900
C1191	C119	0.035500	0.608100	0.040000
C1201	C120	0.080500	0.671800	0.007700
C1211	C121	0.205900	0.682500	0.985600
C1221	C122	0.281100	0.624200	0.993800
C1231	C123	0.235600	0.558900	0.025100
C1241	C124	0.908400	0.601400	0.067200
C1251	C125	0.258700	0.755700	0.952400
C1261	C126	0.319800	0.498400	0.034100
C1271	C127	0.920200	0.043800	0.089000
C1281	C128	0.891600	0.975300	0.053600
C1291	C129	0.792900	0.969600	0.020600
C1301	C130	0.767800	0.906300	0.987800
C1311	C131	0.840500	0.846400	0.988600
C1321	C132	0.938400	0.851700	0.022000
C1331	C133	0.965400	0.916300	0.053800
C1341	C134	0.660400	0.899800	0.950200
C1351	C135	0.989600	0.728200	0.994200
C1361	C136	0.466500	0.481300	0.775000
C1371	C137	0.510100	0.536300	0.816200
C1381	C138	0.426000	0.534600	0.854000
C1391	C139	0.467200	0.587200	0.891800
C1401	C140	0.595000	0.641400	0.891900
C1411	C141	0.680000	0.644300	0.854300
C1421	C142	0.638800	0.592700	0.816700
C1431	C143	0.815500	0.704800	0.853500
C1441	C144	0.409100	0.631900	0.966600
O11	O1	0.773800	0.716200	0.333790
O21	O2	0.641900	0.744500	0.280370
O31	O3	0.769400	0.023900	0.198200
O41	O4	0.954400	0.113000	0.223430
O51	O5	0.077100	0.009900	0.372830
O61	O6	0.849900	0.595100	0.409890
O71	O7	0.017200	0.549300	0.382260
O81	O8	0.589200	0.452100	0.549000
O91	O9	0.634800	0.339400	0.576300
O101	O10	0.016200	0.295500	0.473500
O111	O11	0.375200	0.915800	0.721600
O121	O12	0.524100	0.003500	0.763600
O131	O13	0.868400	0.227500	0.685440
O141	O14	0.873900	0.232000	0.610620
O151	O15	0.374400	0.081500	0.573730
O161	O16	0.406000	0.629300	0.333300
O171	O17	0.586300	0.542400	0.382100
O181	O18	0.226200	0.783800	0.833790
O191	O19	0.358100	0.755500	0.780370
O201	O20	0.230600	0.476100	0.698200
O211	O21	0.045600	0.387000	0.723430
O221	O22	0.922900	0.490100	0.872830
O231	O23	0.150100	0.904900	0.909890
O241	O24	0.982800	0.950700	0.882260
O251	O25	0.410800	0.047900	0.049000
O261	O26	0.365200	0.160600	0.076300
O271	O27	0.983800	0.204500	0.973500
O281	O28	0.624800	0.584200	0.221600
O291	O29	0.475900	0.496500	0.263600
O301	O30	0.131600	0.272500	0.185440
O311	O31	0.126100	0.268000	0.110620
O321	O32	0.625600	0.418500	0.073730
O331	O33	0.594000	0.870700	0.833300
O341	O34	0.413700	0.957600	0.882100
O351	O35	0.226200	0.283800	0.666210
O361	O36	0.358100	0.255500	0.719630
O371	O37	0.230600	0.976100	0.801800
O381	O38	0.045600	0.887000	0.776570
O391	O39	0.922900	0.990100	0.627170
O401	O40	0.150100	0.404900	0.590110
O411	O41	0.982800	0.450700	0.617740
O421	O42	0.410800	0.547900	0.451000
O431	O43	0.365200	0.660600	0.423700
O441	O44	0.983800	0.704500	0.526500
O451	O45	0.624800	0.084200	0.278400
O461	O46	0.475900	0.996500	0.236400
O471	O47	0.131600	0.772500	0.314560
O481	O48	0.126100	0.768000	0.389380
O491	O49	0.625600	0.918500	0.426270
O501	O50	0.594000	0.370700	0.666700
O511	O51	0.413700	0.457600	0.617900
O521	O52	0.773800	0.216200	0.166210
O531	O53	0.641900	0.244500	0.219630
O541	O54	0.769400	0.523900	0.301800
O551	O55	0.954400	0.613000	0.276570
O561	O56	0.077100	0.509900	0.127170
O571	O57	0.849900	0.095100	0.090110
O581	O58	0.017200	0.049300	0.117740
O591	O59	0.589200	0.952100	0.951000
O601	O60	0.634800	0.839400	0.923700
O611	O61	0.016200	0.795500	0.026500
O621	O62	0.375200	0.415800	0.778400
O631	O63	0.524100	0.503500	0.736400
O641	O64	0.868400	0.727500	0.814560
O651	O65	0.873900	0.732000	0.889380
O661	O66	0.374400	0.581500	0.926270
O671	O67	0.406000	0.129300	0.166700
O681	O68	0.586300	0.042400	0.117900
