data_HAWWUZ_clean_PM
_symmetry_space_group_name_H-M	'P1'
_cell_length_a	12.145500
_cell_length_b	17.007200
_cell_length_c	25.593700
_cell_angle_alpha	102.385000
_cell_angle_beta	90.000000
_cell_angle_gamma	90.000000
_symmetry_Int_Tables_number 1

loop_
_symmetry_equiv_pos_as_xyz
'x,y,z'

loop_
_atom_site_label
_atom_site_type_symbol
_atom_site_fract_x
_atom_site_fract_y
_atom_site_fract_z
Nd11	Nd1	0.027400	0.985370	0.418990
Nd21	Nd2	0.500920	0.460750	0.417180
Nd31	Nd3	0.027400	0.514630	0.081010
Nd41	Nd4	0.500920	0.039250	0.082820
Nd51	Nd5	0.972600	0.014630	0.581010
Nd61	Nd6	0.499080	0.539250	0.582820
Nd71	Nd7	0.972600	0.485370	0.918990
Nd81	Nd8	0.499080	0.960750	0.917180
H11	H1	0.016100	0.075400	0.235700
H21	H2	0.900300	0.083500	0.159000
H31	H3	0.231900	0.248000	0.603900
H41	H4	0.329500	0.366200	0.589400
H51	H5	0.633000	0.267500	0.591500
H61	H6	0.745000	0.146600	0.574700
H71	H7	0.016100	0.424600	0.264300
H81	H8	0.900300	0.416500	0.341000
H91	H9	0.231900	0.252000	0.896100
H101	H10	0.329500	0.133800	0.910600
H111	H11	0.633000	0.232500	0.908500
H121	H12	0.745000	0.353400	0.925300
H131	H13	0.983900	0.924600	0.764300
H141	H14	0.099700	0.916500	0.841000
H151	H15	0.768100	0.752000	0.396100
H161	H16	0.670500	0.633800	0.410600
H171	H17	0.367000	0.732500	0.408500
H181	H18	0.255000	0.853400	0.425300
H191	H19	0.983900	0.575400	0.735700
H201	H20	0.099700	0.583500	0.659000
H211	H21	0.768100	0.748000	0.103900
H221	H22	0.670500	0.866200	0.089400
H231	H23	0.367000	0.767500	0.091500
H241	H24	0.255000	0.646600	0.074700
C11	C1	0.897200	0.012100	0.263300
C21	C2	0.946100	0.052900	0.230100
C31	C3	0.879100	0.057700	0.186000
C41	C4	0.781200	0.021000	0.187000
C51	C5	0.943100	0.996600	0.314300
C61	C6	0.689700	0.020200	0.149100
C71	C7	0.183500	0.220800	0.526400
C81	C8	0.234700	0.262800	0.571000
C91	C9	0.292100	0.330500	0.562600
C101	C10	0.286800	0.338000	0.511100
C111	C11	0.115900	0.145000	0.518900
C121	C12	0.339100	0.397200	0.485000
C131	C13	0.658800	0.280600	0.515600
C141	C14	0.666800	0.246600	0.558900
C151	C15	0.731000	0.177100	0.549300
C161	C16	0.770900	0.158500	0.498200
C171	C17	0.600900	0.356700	0.511400
C181	C18	0.846700	0.092200	0.473600
C191	C19	0.897200	0.487900	0.236700
C201	C20	0.946100	0.447100	0.269900
C211	C21	0.879100	0.442300	0.314000
C221	C22	0.781200	0.479000	0.313000
C231	C23	0.943100	0.503400	0.185700
C241	C24	0.689700	0.479800	0.350900
C251	C25	0.183500	0.279200	0.973600
C261	C26	0.234700	0.237200	0.929000
C271	C27	0.292100	0.169500	0.937400
C281	C28	0.286800	0.162000	0.988900
C291	C29	0.115900	0.355000	0.981100
C301	C30	0.339100	0.102800	0.015000
C311	C31	0.658800	0.219400	0.984400
C321	C32	0.666800	0.253400	0.941100
C331	C33	0.731000	0.322900	0.950700
C341	C34	0.770900	0.341500	0.001800
C351	C35	0.600900	0.143300	0.988600
C361	C36	0.846700	0.407800	0.026400
C371	C37	0.102800	0.987900	0.736700
C381	C38	0.053900	0.947100	0.769900
C391	C39	0.120900	0.942300	0.814000
C401	C40	0.218800	0.979000	0.813000
C411	C41	0.056900	0.003400	0.685700
C421	C42	0.310300	0.979800	0.850900
C431	C43	0.816500	0.779200	0.473600
C441	C44	0.765300	0.737200	0.429000
C451	C45	0.707900	0.669500	0.437400
C461	C46	0.713200	0.662000	0.488900
C471	C47	0.884100	0.855000	0.481100
C481	C48	0.660900	0.602800	0.515000
C491	C49	0.341200	0.719400	0.484400
C501	C50	0.333200	0.753400	0.441100
C511	C51	0.269000	0.822900	0.450700
C521	C52	0.229100	0.841500	0.501800
C531	C53	0.399100	0.643300	0.488600
C541	C54	0.153300	0.907800	0.526400
C551	C55	0.102800	0.512100	0.763300
C561	C56	0.053900	0.552900	0.730100
C571	C57	0.120900	0.557700	0.686000
C581	C58	0.218800	0.521000	0.687000
C591	C59	0.056900	0.496600	0.814300
C601	C60	0.310300	0.520200	0.649100
C611	C61	0.816500	0.720800	0.026400
C621	C62	0.765300	0.762800	0.071000
C631	C63	0.707900	0.830500	0.062600
C641	C64	0.713200	0.838000	0.011100
C651	C65	0.884100	0.645000	0.018900
C661	C66	0.660900	0.897200	0.985000
C671	C67	0.341200	0.780600	0.015600
C681	C68	0.333200	0.746600	0.058900
C691	C69	0.269000	0.677100	0.049300
C701	C70	0.229100	0.658500	0.998200
C711	C71	0.399100	0.856700	0.011400
C721	C72	0.153300	0.592200	0.973600
S11	S1	0.769830	0.977870	0.241480
S21	S2	0.209910	0.261590	0.472430
S31	S3	0.724730	0.224980	0.461740
S41	S4	0.769830	0.522130	0.258520
S51	S5	0.209910	0.238410	0.027570
S61	S6	0.724730	0.275020	0.038260
S71	S7	0.230170	0.022130	0.758520
S81	S8	0.790090	0.738410	0.527570
S91	S9	0.275270	0.775020	0.538260
S101	S10	0.230170	0.477870	0.741480
S111	S11	0.790090	0.761590	0.972430
S121	S12	0.275270	0.724980	0.961740
O11	O1	0.895200	0.948100	0.337200
O21	O2	0.028400	0.033900	0.333500
O31	O3	0.700500	0.059200	0.112700
O41	O4	0.601100	0.982600	0.154300
O51	O5	0.088800	0.113980	0.472080
O61	O6	0.093000	0.119200	0.560100
O71	O7	0.388900	0.457600	0.512000
O81	O8	0.334900	0.385600	0.434700
O91	O9	0.579700	0.365100	0.465100
O101	O10	0.579900	0.405800	0.554500
O111	O11	0.869600	0.083300	0.425200
O121	O12	0.887800	0.048550	0.502450
O131	O13	0.895200	0.551900	0.162800
O141	O14	0.028400	0.466100	0.166500
O151	O15	0.700500	0.440800	0.387300
O161	O16	0.601100	0.517400	0.345700
O171	O17	0.088800	0.386020	0.027920
O181	O18	0.093000	0.380800	0.939900
O191	O19	0.388900	0.042400	0.988000
O201	O20	0.334900	0.114400	0.065300
O211	O21	0.579700	0.134900	0.034900
O221	O22	0.579900	0.094200	0.945500
O231	O23	0.869600	0.416700	0.074800
O241	O24	0.887800	0.451450	0.997550
O251	O25	0.104800	0.051900	0.662800
O261	O26	0.971600	0.966100	0.666500
O271	O27	0.299500	0.940800	0.887300
O281	O28	0.398900	0.017400	0.845700
O291	O29	0.911200	0.886020	0.527920
O301	O30	0.907000	0.880800	0.439900
O311	O31	0.611100	0.542400	0.488000
O321	O32	0.665100	0.614400	0.565300
O331	O33	0.420300	0.634900	0.534900
O341	O34	0.420100	0.594200	0.445500
O351	O35	0.130400	0.916700	0.574800
O361	O36	0.112200	0.951450	0.497550
O371	O37	0.104800	0.448100	0.837200
O381	O38	0.971600	0.533900	0.833500
O391	O39	0.299500	0.559200	0.612700
O401	O40	0.398900	0.482600	0.654300
O411	O41	0.911200	0.613980	0.972080
O421	O42	0.907000	0.619200	0.060100
O431	O43	0.611100	0.957600	0.012000
O441	O44	0.665100	0.885600	0.934700
O451	O45	0.420300	0.865100	0.965100
O461	O46	0.420100	0.905800	0.054500
O471	O47	0.130400	0.583300	0.925200
O481	O48	0.112200	0.548550	0.002450
