data_HAWWIN_clean_PM
_symmetry_space_group_name_H-M	'P1'
_cell_length_a	11.687100
_cell_length_b	17.341300
_cell_length_c	25.851200
_cell_angle_alpha	102.301000
_cell_angle_beta	90.000000
_cell_angle_gamma	90.000000
_symmetry_Int_Tables_number 1

loop_
_symmetry_equiv_pos_as_xyz
'x,y,z'

loop_
_atom_site_label
_atom_site_type_symbol
_atom_site_fract_x
_atom_site_fract_y
_atom_site_fract_z
Nd11	Nd1	0.028270	0.486780	0.419030
Nd21	Nd2	0.492060	0.039280	0.580590
Nd31	Nd3	0.028270	0.013220	0.080970
Nd41	Nd4	0.492060	0.460720	0.919410
Nd51	Nd5	0.971730	0.513220	0.580970
Nd61	Nd6	0.507940	0.960720	0.419410
Nd71	Nd7	0.971730	0.986780	0.919030
Nd81	Nd8	0.507940	0.539280	0.080590
H11	H1	0.775700	0.249500	0.395300
H21	H2	0.672200	0.134600	0.411800
H31	H3	0.028100	0.576500	0.236600
H41	H4	0.912200	0.580100	0.158700
H51	H5	0.735000	0.644200	0.573800
H61	H6	0.628300	0.767100	0.592200
H71	H7	0.775700	0.250500	0.104700
H81	H8	0.672200	0.365400	0.088200
H91	H9	0.028100	0.923500	0.263400
H101	H10	0.912200	0.919900	0.341300
H111	H11	0.735000	0.855800	0.926200
H121	H12	0.628300	0.732900	0.907800
H131	H13	0.224300	0.750500	0.604700
H141	H14	0.327800	0.865400	0.588200
H151	H15	0.971900	0.423500	0.763400
H161	H16	0.087800	0.419900	0.841300
H171	H17	0.265000	0.355800	0.426200
H181	H18	0.371700	0.232900	0.407800
H191	H19	0.224300	0.749500	0.895300
H201	H20	0.327800	0.634600	0.911800
H211	H21	0.971900	0.076500	0.736600
H221	H22	0.087800	0.080100	0.658700
H231	H23	0.265000	0.144200	0.073800
H241	H24	0.371700	0.267100	0.092200
C11	C1	0.816400	0.282000	0.473100
C21	C2	0.769100	0.237500	0.428600
C31	C3	0.709000	0.171200	0.438100
C41	C4	0.710900	0.167000	0.489900
C51	C5	0.882600	0.356800	0.480400
C61	C6	0.655100	0.110400	0.517600
C71	C7	0.905600	0.511500	0.263700
C81	C8	0.956700	0.552600	0.230300
C91	C9	0.889800	0.554700	0.185300
C101	C10	0.789800	0.516100	0.185100
C111	C11	0.949600	0.499990	0.315090
C121	C12	0.696000	0.511900	0.146200
C131	C13	0.769000	0.658850	0.499750
C141	C14	0.725300	0.676100	0.549400
C151	C15	0.664200	0.747100	0.560000
C161	C16	0.662500	0.783700	0.518800
C171	C17	0.840500	0.591300	0.474800
C181	C18	0.609300	0.860100	0.514800
C191	C19	0.816400	0.218000	0.026900
C201	C20	0.769100	0.262500	0.071400
C211	C21	0.709000	0.328800	0.061900
C221	C22	0.710900	0.333000	0.010100
C231	C23	0.882600	0.143200	0.019600
C241	C24	0.655100	0.389600	0.982400
C251	C25	0.905600	0.988500	0.236300
C261	C26	0.956700	0.947400	0.269700
C271	C27	0.889800	0.945300	0.314700
C281	C28	0.789800	0.983900	0.314900
C291	C29	0.949600	0.000010	0.184910
C301	C30	0.696000	0.988100	0.353800
C311	C31	0.769000	0.841150	0.000250
C321	C32	0.725300	0.823900	0.950600
C331	C33	0.664200	0.752900	0.940000
C341	C34	0.662500	0.716300	0.981200
C351	C35	0.840500	0.908700	0.025200
C361	C36	0.609300	0.639900	0.985200
C371	C37	0.183600	0.718000	0.526900
C381	C38	0.230900	0.762500	0.571400
C391	C39	0.291000	0.828800	0.561900
C401	C40	0.289100	0.833000	0.510100
C411	C41	0.117400	0.643200	0.519600
C421	C42	0.344900	0.889600	0.482400
C431	C43	0.094400	0.488500	0.736300
C441	C44	0.043300	0.447400	0.769700
C451	C45	0.110200	0.445300	0.814700
C461	C46	0.210200	0.483900	0.814900
C471	C47	0.050400	0.500010	0.684910
C481	C48	0.304000	0.488100	0.853800
C491	C49	0.231000	0.341150	0.500250
C501	C50	0.274700	0.323900	0.450600
C511	C51	0.335800	0.252900	0.440000
C521	C52	0.337500	0.216300	0.481200
C531	C53	0.159500	0.408700	0.525200
C541	C54	0.390700	0.139900	0.485200
C551	C55	0.183600	0.782000	0.973100
C561	C56	0.230900	0.737500	0.928600
C571	C57	0.291000	0.671200	0.938100
C581	C58	0.289100	0.667000	0.989900
C591	C59	0.117400	0.856800	0.980400
C601	C60	0.344900	0.610400	0.017600
C611	C61	0.094400	0.011500	0.763700
C621	C62	0.043300	0.052600	0.730300
C631	C63	0.110200	0.054700	0.685300
C641	C64	0.210200	0.016100	0.685100
C651	C65	0.050400	0.999990	0.815090
C661	C66	0.304000	0.011900	0.646200
C671	C67	0.231000	0.158850	0.999750
C681	C68	0.274700	0.176100	0.049400
C691	C69	0.335800	0.247100	0.060000
C701	C70	0.337500	0.283700	0.018800
C711	C71	0.159500	0.091300	0.974800
C721	C72	0.390700	0.360100	0.014800
S11	S1	0.786020	0.244070	0.527690
S21	S2	0.733680	0.729170	0.465250
S31	S3	0.775380	0.474430	0.239490
S41	S4	0.786020	0.255930	0.972310
S51	S5	0.733680	0.770830	0.034750
S61	S6	0.775380	0.025570	0.260510
S71	S7	0.213980	0.755930	0.472310
S81	S8	0.266320	0.270830	0.534750
S91	S9	0.224620	0.525570	0.760510
S101	S10	0.213980	0.744070	0.027690
S111	S11	0.266320	0.229170	0.965250
S121	S12	0.224620	0.974430	0.739490
O11	O1	0.904900	0.382220	0.439320
O21	O2	0.909600	0.387750	0.526750
O31	O3	0.648700	0.129760	0.566560
O41	O4	0.612400	0.046670	0.491870
O51	O5	0.033400	0.539510	0.335510
O61	O6	0.901100	0.449940	0.336640
O71	O7	0.603500	0.480250	0.152650
O81	O8	0.713700	0.543630	0.107030
O91	O9	0.880200	0.545750	0.503450
O101	O10	0.863000	0.580310	0.426810
O111	O11	0.598100	0.872400	0.469000
O121	O12	0.581200	0.905870	0.557170
O131	O13	0.904900	0.117780	0.060680
O141	O14	0.909600	0.112250	0.973250
O151	O15	0.648700	0.370240	0.933440
O161	O16	0.612400	0.453330	0.008130
O171	O17	0.033400	0.960490	0.164490
O181	O18	0.901100	0.050060	0.163360
O191	O19	0.603500	0.019750	0.347350
O201	O20	0.713700	0.956370	0.392970
O211	O21	0.880200	0.954250	0.996550
O221	O22	0.863000	0.919690	0.073190
O231	O23	0.598100	0.627600	0.031000
O241	O24	0.581200	0.594130	0.942830
O251	O25	0.095100	0.617780	0.560680
O261	O26	0.090400	0.612250	0.473250
O271	O27	0.351300	0.870240	0.433440
O281	O28	0.387600	0.953330	0.508130
O291	O29	0.966600	0.460490	0.664490
O301	O30	0.098900	0.550060	0.663360
O311	O31	0.396500	0.519750	0.847350
O321	O32	0.286300	0.456370	0.892970
O331	O33	0.119800	0.454250	0.496550
O341	O34	0.137000	0.419690	0.573190
O351	O35	0.401900	0.127600	0.531000
O361	O36	0.418800	0.094130	0.442830
O371	O37	0.095100	0.882220	0.939320
O381	O38	0.090400	0.887750	0.026750
O391	O39	0.351300	0.629760	0.066560
O401	O40	0.387600	0.546670	0.991870
O411	O41	0.966600	0.039510	0.835510
O421	O42	0.098900	0.949940	0.836640
O431	O43	0.396500	0.980250	0.652650
O441	O44	0.286300	0.043630	0.607030
O451	O45	0.119800	0.045750	0.003450
O461	O46	0.137000	0.080310	0.926810
O471	O47	0.401900	0.372400	0.969000
O481	O48	0.418800	0.405870	0.057170
