data_HAWWOT_clean_PM
_symmetry_space_group_name_H-M	'P1'
_cell_length_a	12.179900
_cell_length_b	16.983600
_cell_length_c	25.780200
_cell_angle_alpha	102.109000
_cell_angle_beta	90.000000
_cell_angle_gamma	90.000000
_symmetry_Int_Tables_number 1

loop_
_symmetry_equiv_pos_as_xyz
'x,y,z'

loop_
_atom_site_label
_atom_site_type_symbol
_atom_site_fract_x
_atom_site_fract_y
_atom_site_fract_z
Nd11	Nd1	0.476390	0.485660	0.418480
Nd21	Nd2	0.998450	0.960570	0.417490
Nd31	Nd3	0.476390	0.014340	0.081520
Nd41	Nd4	0.998450	0.539430	0.082510
Nd51	Nd5	0.523610	0.514340	0.581520
Nd61	Nd6	0.001550	0.039430	0.582510
Nd71	Nd7	0.523610	0.985660	0.918480
Nd81	Nd8	0.001550	0.460570	0.917490
H11	H1	0.714700	0.670000	0.579200
H21	H2	0.825000	0.794000	0.594600
H31	H3	0.489700	0.580800	0.239000
H41	H4	0.600000	0.588600	0.161500
H51	H5	0.268300	0.744200	0.602400
H61	H6	0.173200	0.864700	0.589300
H71	H7	0.714700	0.830000	0.920800
H81	H8	0.825000	0.706000	0.905400
H91	H9	0.489700	0.919200	0.261000
H101	H10	0.600000	0.911400	0.338500
H111	H11	0.268300	0.755800	0.897600
H121	H12	0.173200	0.635300	0.910700
H131	H13	0.285300	0.330000	0.420800
H141	H14	0.175000	0.206000	0.405400
H151	H15	0.510300	0.419200	0.761000
H161	H16	0.400000	0.411400	0.838500
H171	H17	0.731700	0.255800	0.397600
H181	H18	0.826800	0.135300	0.410700
H191	H19	0.285300	0.170000	0.079200
H201	H20	0.175000	0.294000	0.094600
H211	H21	0.510300	0.080800	0.739000
H221	H22	0.400000	0.088600	0.661500
H231	H23	0.731700	0.244200	0.102400
H241	H24	0.826800	0.364700	0.089300
C11	C1	0.720000	0.664300	0.499600
C21	C2	0.740000	0.693900	0.552200
C31	C3	0.805100	0.765400	0.561100
C41	C4	0.834100	0.786600	0.515900
C51	C5	0.650300	0.595700	0.475400
C61	C6	0.897300	0.858500	0.511200
C71	C7	0.606700	0.516100	0.265300
C81	C8	0.558700	0.557300	0.232600
C91	C9	0.622100	0.562000	0.187800
C101	C10	0.720200	0.522900	0.187600
C111	C11	0.563100	0.500400	0.315600
C121	C12	0.810700	0.520800	0.149400
C131	C13	0.314800	0.718000	0.525200
C141	C14	0.265200	0.759900	0.570000
C151	C15	0.209000	0.828900	0.562400
C161	C16	0.213400	0.837100	0.510800
C171	C17	0.381200	0.643000	0.517300
C181	C18	0.160000	0.897700	0.485200
C191	C19	0.720000	0.835700	0.000400
C201	C20	0.740000	0.806100	0.947800
C211	C21	0.805100	0.734600	0.938900
C221	C22	0.834100	0.713400	0.984100
C231	C23	0.650300	0.904300	0.024600
C241	C24	0.897300	0.641500	0.988800
C251	C25	0.606700	0.983900	0.234700
C261	C26	0.558700	0.942700	0.267400
C271	C27	0.622100	0.938000	0.312200
C281	C28	0.720200	0.977100	0.312400
C291	C29	0.563100	0.999600	0.184400
C301	C30	0.810700	0.979200	0.350600
C311	C31	0.314800	0.782000	0.974800
C321	C32	0.265200	0.740100	0.930000
C331	C33	0.209000	0.671100	0.937600
C341	C34	0.213400	0.662900	0.989200
C351	C35	0.381200	0.857000	0.982700
C361	C36	0.160000	0.602300	0.014800
C371	C37	0.280000	0.335700	0.500400
C381	C38	0.260000	0.306100	0.447800
C391	C39	0.194900	0.234600	0.438900
C401	C40	0.165900	0.213400	0.484100
C411	C41	0.349700	0.404300	0.524600
C421	C42	0.102700	0.141500	0.488800
C431	C43	0.393300	0.483900	0.734700
C441	C44	0.441300	0.442700	0.767400
C451	C45	0.377900	0.438000	0.812200
C461	C46	0.279800	0.477100	0.812400
C471	C47	0.436900	0.499600	0.684400
C481	C48	0.189300	0.479200	0.850600
C491	C49	0.685200	0.282000	0.474800
C501	C50	0.734800	0.240100	0.430000
C511	C51	0.791000	0.171100	0.437600
C521	C52	0.786600	0.162900	0.489200
C531	C53	0.618800	0.357000	0.482700
C541	C54	0.840000	0.102300	0.514800
C551	C55	0.280000	0.164300	0.999600
C561	C56	0.260000	0.193900	0.052200
C571	C57	0.194900	0.265400	0.061100
C581	C58	0.165900	0.286600	0.015900
C591	C59	0.349700	0.095700	0.975400
C601	C60	0.102700	0.358500	0.011200
C611	C61	0.393300	0.016100	0.765300
C621	C62	0.441300	0.057300	0.732600
C631	C63	0.377900	0.062000	0.687800
C641	C64	0.279800	0.022900	0.687600
C651	C65	0.436900	0.000400	0.815600
C661	C66	0.189300	0.020800	0.649400
C671	C67	0.685200	0.218000	0.025200
C681	C68	0.734800	0.259900	0.070000
C691	C69	0.791000	0.328900	0.062400
C701	C70	0.786600	0.337100	0.010800
C711	C71	0.618800	0.143000	0.017300
C721	C72	0.840000	0.397700	0.985200
S11	S1	0.782200	0.721860	0.462360
S21	S2	0.732400	0.480230	0.241490
S31	S3	0.289400	0.761600	0.472070
S41	S4	0.782200	0.778140	0.037640
S51	S5	0.732400	0.019770	0.258510
S61	S6	0.289400	0.738400	0.027930
S71	S7	0.217800	0.278140	0.537640
S81	S8	0.267600	0.519770	0.758510
S91	S9	0.710600	0.238400	0.527930
S101	S10	0.217800	0.221860	0.962360
S111	S11	0.267600	0.980230	0.741490
S121	S12	0.710600	0.261600	0.972070
O11	O1	0.608500	0.553200	0.505600
O21	O2	0.633500	0.582800	0.427600
O31	O3	0.923500	0.863400	0.465000
O41	O4	0.919000	0.907200	0.552700
O51	O5	0.610600	0.452400	0.338000
O61	O6	0.477700	0.536800	0.334500
O71	O7	0.798900	0.559800	0.112600
O81	O8	0.896200	0.482500	0.153300
O91	O9	0.409500	0.613200	0.471100
O101	O10	0.400000	0.615500	0.558000
O111	O11	0.165100	0.886700	0.436000
O121	O12	0.112800	0.957400	0.513500
O131	O13	0.608500	0.946800	0.994400
O141	O14	0.633500	0.917200	0.072400
O151	O15	0.923500	0.636600	0.035000
O161	O16	0.919000	0.592800	0.947300
O171	O17	0.610600	0.047600	0.162000
O181	O18	0.477700	0.963200	0.165500
O191	O19	0.798900	0.940200	0.387400
O201	O20	0.896200	0.017500	0.346700
O211	O21	0.409500	0.886800	0.028900
O221	O22	0.400000	0.884500	0.942000
O231	O23	0.165100	0.613300	0.064000
O241	O24	0.112800	0.542600	0.986500
O251	O25	0.391500	0.446800	0.494400
O261	O26	0.366500	0.417200	0.572400
O271	O27	0.076500	0.136600	0.535000
O281	O28	0.081000	0.092800	0.447300
O291	O29	0.389400	0.547600	0.662000
O301	O30	0.522300	0.463200	0.665500
O311	O31	0.201100	0.440200	0.887400
O321	O32	0.103800	0.517500	0.846700
O331	O33	0.590500	0.386800	0.528900
O341	O34	0.600000	0.384500	0.442000
O351	O35	0.834900	0.113300	0.564000
O361	O36	0.887200	0.042600	0.486500
O371	O37	0.391500	0.053200	0.005600
O381	O38	0.366500	0.082800	0.927600
O391	O39	0.076500	0.363400	0.965000
O401	O40	0.081000	0.407200	0.052700
O411	O41	0.389400	0.952400	0.838000
O421	O42	0.522300	0.036800	0.834500
O431	O43	0.201100	0.059800	0.612600
O441	O44	0.103800	0.982500	0.653300
O451	O45	0.590500	0.113200	0.971100
O461	O46	0.600000	0.115500	0.058000
O471	O47	0.834900	0.386700	0.936000
O481	O48	0.887200	0.457400	0.013500
