data_HAXJEX_clean_PM
_symmetry_space_group_name_H-M	'P1'
_cell_length_a	11.019200
_cell_length_b	11.019200
_cell_length_c	17.038800
_cell_angle_alpha	91.653900
_cell_angle_beta	91.653900
_cell_angle_gamma	90.667700
_symmetry_Int_Tables_number 1

loop_
_symmetry_equiv_pos_as_xyz
'x,y,z'

loop_
_atom_site_label
_atom_site_type_symbol
_atom_site_fract_x
_atom_site_fract_y
_atom_site_fract_z
Zn11	Zn1	0.462980	0.656360	0.817430
Zn21	Zn2	0.815510	0.302490	0.174820
Zn31	Zn3	0.343640	0.537020	0.682570
Zn41	Zn4	0.697510	0.184490	0.325180
Zn51	Zn5	0.537020	0.343640	0.182570
Zn61	Zn6	0.184490	0.697510	0.825180
Zn71	Zn7	0.656360	0.462980	0.317430
Zn81	Zn8	0.302490	0.815510	0.674820
H11	H1	0.560300	0.651700	0.037100
H21	H2	0.694400	0.823000	0.231800
H31	H3	0.678200	0.995400	0.029400
H41	H4	0.007200	0.792000	0.127700
H51	H5	0.922700	0.767300	0.984500
H61	H6	0.672400	0.259000	0.882300
H71	H7	0.724900	0.453500	0.851900
H81	H8	0.827900	0.651500	0.891900
H91	H9	0.031300	0.710700	0.248200
H101	H10	0.706200	0.196600	0.007200
H111	H11	0.961500	0.516300	0.268900
H121	H12	0.348300	0.439700	0.462900
H131	H13	0.177000	0.305600	0.268200
H141	H14	0.004600	0.321800	0.470600
H151	H15	0.208000	0.992800	0.372300
H161	H16	0.232700	0.077300	0.515500
H171	H17	0.741000	0.327600	0.617700
H181	H18	0.546500	0.275100	0.648100
H191	H19	0.348500	0.172100	0.608100
H201	H20	0.289300	0.968700	0.251800
H211	H21	0.803400	0.293800	0.492800
H221	H22	0.483700	0.038500	0.231100
H231	H23	0.439700	0.348300	0.962900
H241	H24	0.305600	0.177000	0.768200
H251	H25	0.321800	0.004600	0.970600
H261	H26	0.992800	0.208000	0.872300
H271	H27	0.077300	0.232700	0.015500
H281	H28	0.327600	0.741000	0.117700
H291	H29	0.275100	0.546500	0.148100
H301	H30	0.172100	0.348500	0.108100
H311	H31	0.968700	0.289300	0.751800
H321	H32	0.293800	0.803400	0.992800
H331	H33	0.038500	0.483700	0.731100
H341	H34	0.651700	0.560300	0.537100
H351	H35	0.823000	0.694400	0.731800
H361	H36	0.995400	0.678200	0.529400
H371	H37	0.792000	0.007200	0.627700
H381	H38	0.767300	0.922700	0.484500
H391	H39	0.259000	0.672400	0.382300
H401	H40	0.453500	0.724900	0.351900
H411	H41	0.651500	0.827900	0.391900
H421	H42	0.710700	0.031300	0.748200
H431	H43	0.196600	0.706200	0.507200
H441	H44	0.516300	0.961500	0.768900
C11	C1	0.692800	0.927000	0.137200
C21	C2	0.594200	0.720800	0.061900
C31	C3	0.737700	0.039100	0.178700
C41	C4	0.611700	0.823900	0.019600
C51	C5	0.674400	0.823200	0.178400
C61	C6	0.575800	0.823800	0.933200
C71	C7	0.627000	0.719200	0.141700
C81	C8	0.663300	0.926300	0.057800
C91	C9	0.610800	0.603600	0.184300
C101	C10	0.978000	0.714200	0.136400
C111	C11	0.896700	0.689700	0.996700
C121	C12	0.708600	0.311400	0.920100
C131	C13	0.741300	0.425900	0.902200
C141	C14	0.840200	0.621000	0.941700
C151	C15	0.992800	0.666200	0.207400
C161	C16	0.798000	0.501600	0.956800
C171	C17	0.918600	0.647000	0.074800
C181	C18	0.730300	0.274900	0.995000
C191	C19	0.876700	0.530500	0.092100
C201	C20	0.949500	0.548700	0.219500
C211	C21	0.817500	0.456700	0.032600
C221	C22	0.073000	0.307200	0.362800
C231	C23	0.279200	0.405800	0.438100
C241	C24	0.960900	0.262300	0.321300
C251	C25	0.176100	0.388300	0.480400
C261	C26	0.176800	0.325600	0.321600
C271	C27	0.176200	0.424200	0.566800
C281	C28	0.280800	0.373000	0.358300
C291	C29	0.073700	0.336700	0.442200
C301	C30	0.396400	0.389200	0.315700
C311	C31	0.285800	0.022000	0.363600
C321	C32	0.310300	0.103300	0.503300
C331	C33	0.688600	0.291400	0.579900
C341	C34	0.574100	0.258700	0.597800
C351	C35	0.379000	0.159800	0.558300
C361	C36	0.333800	0.007200	0.292600
C371	C37	0.498400	0.202000	0.543200
C381	C38	0.353000	0.081400	0.425200
C391	C39	0.725100	0.269700	0.505000
C401	C40	0.469500	0.123300	0.407900
C411	C41	0.451300	0.050500	0.280500
C421	C42	0.543300	0.182500	0.467400
C431	C43	0.307200	0.073000	0.862800
C441	C44	0.405800	0.279200	0.938100
C451	C45	0.262300	0.960900	0.821300
C461	C46	0.388300	0.176100	0.980400
C471	C47	0.325600	0.176800	0.821600
C481	C48	0.424200	0.176200	0.066800
C491	C49	0.373000	0.280800	0.858300
C501	C50	0.336700	0.073700	0.942200
C511	C51	0.389200	0.396400	0.815700
C521	C52	0.022000	0.285800	0.863600
C531	C53	0.103300	0.310300	0.003300
C541	C54	0.291400	0.688600	0.079900
C551	C55	0.258700	0.574100	0.097800
C561	C56	0.159800	0.379000	0.058300
C571	C57	0.007200	0.333800	0.792600
C581	C58	0.202000	0.498400	0.043200
C591	C59	0.081400	0.353000	0.925200
C601	C60	0.269700	0.725100	0.005000
C611	C61	0.123300	0.469500	0.907900
C621	C62	0.050500	0.451300	0.780500
C631	C63	0.182500	0.543300	0.967400
C641	C64	0.927000	0.692800	0.637200
C651	C65	0.720800	0.594200	0.561900
C661	C66	0.039100	0.737700	0.678700
C671	C67	0.823900	0.611700	0.519600
C681	C68	0.823200	0.674400	0.678400
C691	C69	0.823800	0.575800	0.433200
C701	C70	0.719200	0.627000	0.641700
C711	C71	0.926300	0.663300	0.557800
C721	C72	0.603600	0.610800	0.684300
C731	C73	0.714200	0.978000	0.636400
C741	C74	0.689700	0.896700	0.496700
C751	C75	0.311400	0.708600	0.420100
C761	C76	0.425900	0.741300	0.402200
C771	C77	0.621000	0.840200	0.441700
C781	C78	0.666200	0.992800	0.707400
C791	C79	0.501600	0.798000	0.456800
C801	C80	0.647000	0.918600	0.574800
C811	C81	0.274900	0.730300	0.495000
C821	C82	0.530500	0.876700	0.592100
C831	C83	0.548700	0.949500	0.719500
C841	C84	0.456700	0.817500	0.532600
N11	N1	0.892800	0.481800	0.164400
N21	N2	0.783300	0.343700	0.051600
N31	N3	0.518200	0.107200	0.335600
N41	N4	0.656300	0.216700	0.448400
N51	N5	0.107200	0.518200	0.835600
N61	N6	0.216700	0.656300	0.948400
N71	N7	0.481800	0.892800	0.664400
N81	N8	0.343700	0.783300	0.551600
O11	O1	0.500400	0.738000	0.913310
O21	O2	0.616600	0.899000	0.890700
O31	O3	0.776400	0.125400	0.139140
O41	O4	0.735900	0.042300	0.252960
O51	O5	0.572100	0.511500	0.146450
O61	O6	0.639200	0.609200	0.256640
O71	O7	0.262000	0.499600	0.586690
O81	O8	0.101000	0.383400	0.609300
O91	O9	0.874600	0.223600	0.360860
O101	O10	0.957700	0.264100	0.247040
O111	O11	0.488500	0.427900	0.353550
O121	O12	0.390800	0.360800	0.243360
O131	O13	0.499600	0.262000	0.086690
O141	O14	0.383400	0.101000	0.109300
O151	O15	0.223600	0.874600	0.860860
O161	O16	0.264100	0.957700	0.747040
O171	O17	0.427900	0.488500	0.853550
O181	O18	0.360800	0.390800	0.743360
O191	O19	0.738000	0.500400	0.413310
O201	O20	0.899000	0.616600	0.390700
O211	O21	0.125400	0.776400	0.639140
O221	O22	0.042300	0.735900	0.752960
O231	O23	0.511500	0.572100	0.646450
O241	O24	0.609200	0.639200	0.756640
O251	O25	0.319700	0.680300	0.750000
O261	O26	0.680300	0.319700	0.250000
