data_HAZGOF07_clean_h_PM
_symmetry_space_group_name_H-M	'P1'
_cell_length_a	8.715700
_cell_length_b	11.240600
_cell_length_c	17.726500
_cell_angle_alpha	84.531100
_cell_angle_beta	75.768900
_cell_angle_gamma	67.189300
_symmetry_Int_Tables_number 1

loop_
_symmetry_equiv_pos_as_xyz
'x,y,z'

loop_
_atom_site_label
_atom_site_type_symbol
_atom_site_fract_x
_atom_site_fract_y
_atom_site_fract_z
Sc11	Sc1	0.614450	0.750000	0.271100
Sc21	Sc2	0.135550	0.750000	0.228900
Sc31	Sc3	0.385550	0.250000	0.728900
Sc41	Sc4	0.864450	0.250000	0.771100
C11	C1	0.451810	0.317140	0.249760
C21	C2	0.896900	0.639240	0.367560
C31	C3	0.952640	0.562900	0.436020
C41	C4	0.831060	0.530560	0.491520
C51	C5	0.114660	0.539200	0.444080
C61	C6	0.798430	0.182860	0.249760
C71	C7	0.235540	0.860760	0.367560
C81	C8	0.111340	0.937100	0.436020
C91	C9	0.177420	0.969440	0.491520
C101	C10	0.941260	0.960800	0.444080
C111	C11	0.731050	0.317140	0.250240
C121	C12	0.963860	0.639240	0.132440
C131	C13	0.984460	0.562900	0.063980
C141	C14	0.138380	0.530560	0.008480
C151	C15	0.846140	0.539200	0.055920
C161	C16	0.518710	0.182860	0.250240
C171	C17	0.403700	0.860760	0.132440
C181	C18	0.451560	0.937100	0.063980
C191	C19	0.353140	0.969440	0.008480
C201	C20	0.597940	0.960800	0.055920
C211	C21	0.548190	0.682860	0.750240
C221	C22	0.103100	0.360760	0.632440
C231	C23	0.047360	0.437100	0.563980
C241	C24	0.168940	0.469440	0.508480
C251	C25	0.885340	0.460800	0.555920
C261	C26	0.201570	0.817140	0.750240
C271	C27	0.764460	0.139240	0.632440
C281	C28	0.888660	0.062900	0.563980
C291	C29	0.822580	0.030560	0.508480
C301	C30	0.058740	0.039200	0.555920
C311	C31	0.268950	0.682860	0.749760
C321	C32	0.036140	0.360760	0.867560
C331	C33	0.015540	0.437100	0.936020
C341	C34	0.861620	0.469440	0.991520
C351	C35	0.153860	0.460800	0.944080
C361	C36	0.481290	0.817140	0.749760
C371	C37	0.596300	0.139240	0.867560
C381	C38	0.548440	0.062900	0.936020
C391	C39	0.646860	0.030560	0.991520
C401	C40	0.402060	0.039200	0.944080
C411	C41	0.489500	0.521000	0.250000
C421	C42	0.559640	0.380720	0.250000
C431	C43	0.760500	0.979000	0.250000
C441	C44	0.690360	0.119280	0.250000
C451	C45	0.510500	0.479000	0.750000
C461	C46	0.440360	0.619280	0.750000
C471	C47	0.239500	0.021000	0.750000
C481	C48	0.309640	0.880720	0.750000
O11	O1	0.565100	0.582560	0.270840
O21	O2	0.749860	0.669280	0.358520
O31	O3	0.003090	0.668620	0.315440
O41	O4	0.664060	0.917440	0.270840
O51	O5	0.391620	0.830720	0.358520
O61	O6	0.181470	0.831380	0.315440
O71	O7	0.352340	0.582560	0.229160
O81	O8	0.080860	0.669280	0.141480
O91	O9	0.828290	0.668620	0.184560
O101	O10	0.918500	0.917440	0.229160
O111	O11	0.277660	0.830720	0.141480
O121	O12	0.487150	0.831380	0.184560
O131	O13	0.434900	0.417440	0.729160
O141	O14	0.250140	0.330720	0.641480
O151	O15	0.996910	0.331380	0.684560
O161	O16	0.335940	0.082560	0.729160
O171	O17	0.608380	0.169280	0.641480
O181	O18	0.818530	0.168620	0.684560
O191	O19	0.647660	0.417440	0.770840
O201	O20	0.919140	0.330720	0.858520
O211	O21	0.171710	0.331380	0.815440
O221	O22	0.081500	0.082560	0.770840
O231	O23	0.722340	0.169280	0.858520
O241	O24	0.512850	0.168620	0.815440
H11	H1	0.311320	0.372150	0.249180
H21	H2	0.695590	0.561020	0.482930
H31	H3	0.203030	0.576350	0.398500
H41	H4	0.939490	0.127850	0.249180
H51	H5	0.321490	0.938980	0.482930
H61	H6	0.898470	0.923650	0.398500
H71	H7	0.816530	0.372150	0.250820
H81	H8	0.243390	0.561020	0.017070
H91	H9	0.720620	0.576350	0.101500
H101	H10	0.432650	0.127850	0.250820
H111	H11	0.239540	0.938980	0.017070
H121	H12	0.677880	0.923650	0.101500
H131	H13	0.688680	0.627850	0.750820
H141	H14	0.306430	0.442020	0.513500
H151	H15	0.796970	0.423650	0.601500
H161	H16	0.060510	0.872150	0.750820
H171	H17	0.678510	0.061020	0.517070
H181	H18	0.103470	0.075730	0.601020
H191	H19	0.183470	0.627850	0.749180
H201	H20	0.756610	0.438980	0.982930
H211	H21	0.280210	0.424270	0.898980
H221	H22	0.567350	0.872150	0.749180
H231	H23	0.761940	0.057980	0.986500
H241	H24	0.320810	0.075730	0.898980
