data_HAZGOF04_clean_h_PM
_symmetry_space_group_name_H-M	'P1'
_cell_length_a	8.742100
_cell_length_b	11.253400
_cell_length_c	17.722200
_cell_angle_alpha	84.502700
_cell_angle_beta	75.721200
_cell_angle_gamma	67.143800
_symmetry_Int_Tables_number 1

loop_
_symmetry_equiv_pos_as_xyz
'x,y,z'

loop_
_atom_site_label
_atom_site_type_symbol
_atom_site_fract_x
_atom_site_fract_y
_atom_site_fract_z
Sc11	Sc1	0.885690	0.750000	0.728620
Sc21	Sc2	0.364310	0.750000	0.771380
Sc31	Sc3	0.114310	0.250000	0.271380
Sc41	Sc4	0.635690	0.250000	0.228620
C11	C1	0.698160	0.319060	0.750420
C21	C2	0.261140	0.639880	0.632440
C31	C3	0.394540	0.562500	0.561420
C41	C4	0.317550	0.531120	0.508980
C51	C5	0.562520	0.539540	0.556020
C61	C6	0.051420	0.180940	0.750420
C71	C7	0.606420	0.860120	0.632440
C81	C8	0.544040	0.937500	0.561420
C91	C9	0.673470	0.968880	0.508980
C101	C10	0.381460	0.960460	0.556020
C111	C11	0.982780	0.319060	0.749580
C121	C12	0.098980	0.639880	0.867560
C131	C13	0.042960	0.562500	0.938580
C141	C14	0.151330	0.531120	0.991020
C151	C15	0.897940	0.539540	0.943980
C161	C16	0.767640	0.180940	0.749580
C171	C17	0.533460	0.860120	0.867560
C181	C18	0.518460	0.937500	0.938580
C191	C19	0.357650	0.968880	0.991020
C201	C20	0.658080	0.960460	0.943980
C211	C21	0.301840	0.680940	0.249580
C221	C22	0.738860	0.360120	0.367560
C231	C23	0.605460	0.437500	0.438580
C241	C24	0.682450	0.468880	0.491020
C251	C25	0.437480	0.460460	0.443980
C261	C26	0.948580	0.819060	0.249580
C271	C27	0.393580	0.139880	0.367560
C281	C28	0.455960	0.062500	0.438580
C291	C29	0.326530	0.031120	0.491020
C301	C30	0.618540	0.039540	0.443980
C311	C31	0.017220	0.680940	0.250420
C321	C32	0.901020	0.360120	0.132440
C331	C33	0.957040	0.437500	0.061420
C341	C34	0.848670	0.468880	0.008980
C351	C35	0.102060	0.460460	0.056020
C361	C36	0.232360	0.819060	0.250420
C371	C37	0.466540	0.139880	0.132440
C381	C38	0.481540	0.062500	0.061420
C391	C39	0.642350	0.031120	0.008980
C401	C40	0.341920	0.039540	0.056020
C411	C41	0.735960	0.528080	0.750000
C421	C42	0.810340	0.379320	0.750000
C431	C43	0.014040	0.971920	0.750000
C441	C44	0.939660	0.120680	0.750000
C451	C45	0.264040	0.471920	0.250000
C461	C46	0.189660	0.620680	0.250000
C471	C47	0.985960	0.028080	0.250000
C481	C48	0.060340	0.879320	0.250000
O11	O1	0.838350	0.584200	0.728860
O21	O2	0.107690	0.668940	0.640600
O31	O3	0.316580	0.669660	0.684680
O41	O4	0.932790	0.915800	0.728860
O51	O5	0.751710	0.831060	0.640600
O61	O6	0.498740	0.830340	0.684680
O71	O7	0.577450	0.584200	0.771140
O81	O8	0.223370	0.668940	0.859400
O91	O9	0.013760	0.669660	0.815320
O101	O10	0.151410	0.915800	0.771140
O111	O11	0.417230	0.831060	0.859400
O121	O12	0.670920	0.830340	0.815320
O131	O13	0.161650	0.415800	0.271140
O141	O14	0.892310	0.331060	0.359400
O151	O15	0.683420	0.330340	0.315320
O161	O16	0.067210	0.084200	0.271140
O171	O17	0.248290	0.168940	0.359400
O181	O18	0.501260	0.169660	0.315320
O191	O19	0.422550	0.415800	0.228860
O201	O20	0.776630	0.331060	0.140600
O211	O21	0.986240	0.330340	0.184680
O221	O22	0.848590	0.084200	0.228860
O231	O23	0.582770	0.168940	0.140600
O241	O24	0.329080	0.169660	0.184680
H11	H1	0.557280	0.374010	0.751380
H21	H2	0.172980	0.562890	0.521800
H31	H3	0.600880	0.577090	0.603010
H41	H4	0.191340	0.125990	0.751380
H51	H5	0.805220	0.937110	0.521800
H61	H6	0.296120	0.922910	0.603010
H71	H7	0.068710	0.374010	0.748620
H81	H8	0.264130	0.562890	0.978200
H91	H9	0.822030	0.577090	0.896990
H101	H10	0.682670	0.125990	0.748620
H111	H11	0.257670	0.937110	0.978200
H121	H12	0.780970	0.922910	0.896990
H131	H13	0.442720	0.625990	0.248620
H141	H14	0.824370	0.443390	0.485420
H151	H15	0.399120	0.422910	0.396990
H161	H16	0.808660	0.874010	0.248620
H171	H17	0.194780	0.062890	0.478200
H181	H18	0.703880	0.077090	0.396990
H191	H19	0.931290	0.625990	0.251380
H201	H20	0.732250	0.443390	0.014580
H211	H21	0.182130	0.424880	0.101530
H221	H22	0.317330	0.874010	0.251380
H231	H23	0.753180	0.056610	0.014580
H241	H24	0.216340	0.075120	0.101530
