data_HAZGOF01_clean_h_PM
_symmetry_space_group_name_H-M	'P1'
_cell_length_a	8.754300
_cell_length_b	11.145400
_cell_length_c	17.741100
_cell_angle_alpha	95.183200
_cell_angle_beta	104.284000
_cell_angle_gamma	68.521000
_symmetry_Int_Tables_number 1

loop_
_symmetry_equiv_pos_as_xyz
'x,y,z'

loop_
_atom_site_label
_atom_site_type_symbol
_atom_site_fract_x
_atom_site_fract_y
_atom_site_fract_z
Sc11	Sc1	0.366040	0.250000	0.732080
Sc21	Sc2	0.633960	0.750000	0.267920
Sc31	Sc3	0.887140	0.250000	0.774280
Sc41	Sc4	0.112860	0.750000	0.225720
C11	C1	0.023220	0.478150	0.749640
C21	C2	0.950460	0.617580	0.756800
C31	C3	0.042470	0.691100	0.748600
C41	C4	0.779120	0.676080	0.750200
C51	C5	0.258550	0.138900	0.870960
C61	C6	0.383170	0.061200	0.935020
C71	C7	0.550160	0.047920	0.945400
C81	C8	0.331010	0.029900	0.995500
C91	C9	0.545710	0.357200	0.632680
C101	C10	0.522720	0.429190	0.564080
C111	C11	0.371250	0.464480	0.509760
C121	C12	0.645040	0.475470	0.557780
C131	C13	0.726420	0.021850	0.749640
C141	C14	0.806340	0.882420	0.756800
C151	C15	0.706130	0.808900	0.748600
C161	C16	0.971080	0.823920	0.750200
C171	C17	0.612410	0.361100	0.870960
C181	C18	0.551850	0.438800	0.935020
C191	C19	0.395240	0.452080	0.945400
C201	C20	0.664490	0.470100	0.995500
C211	C21	0.086970	0.142800	0.632680
C221	C22	0.041360	0.070810	0.564080
C231	C23	0.138510	0.035520	0.509760
C241	C24	0.912740	0.024530	0.557780
C251	C25	0.976780	0.521850	0.250360
C261	C26	0.049540	0.382420	0.243200
C271	C27	0.957530	0.308900	0.251400
C281	C28	0.220880	0.323920	0.249800
C291	C29	0.741450	0.861100	0.129040
C301	C30	0.616830	0.938800	0.064980
C311	C31	0.449840	0.952080	0.054600
C321	C32	0.668990	0.970100	0.004500
C331	C33	0.454290	0.642800	0.367320
C341	C34	0.477280	0.570810	0.435920
C351	C35	0.628750	0.535520	0.490240
C361	C36	0.354960	0.524530	0.442220
C371	C37	0.273580	0.978150	0.250360
C381	C38	0.193660	0.117580	0.243200
C391	C39	0.293870	0.191100	0.251400
C401	C40	0.028920	0.176080	0.249800
C411	C41	0.387590	0.638900	0.129040
C421	C42	0.448150	0.561200	0.064980
C431	C43	0.604760	0.547920	0.054600
C441	C44	0.335510	0.529900	0.004500
C451	C45	0.913030	0.857200	0.367320
C461	C46	0.958640	0.929190	0.435920
C471	C47	0.861490	0.964480	0.490240
C481	C48	0.087260	0.975470	0.442220
O11	O1	0.161670	0.423200	0.730740
O21	O2	0.966020	0.405910	0.774840
O31	O3	0.293210	0.180760	0.816620
O41	O4	0.103640	0.161400	0.860740
O51	O5	0.431810	0.323560	0.644500
O61	O6	0.671880	0.340100	0.688440
O71	O7	0.569070	0.076800	0.730740
O81	O8	0.808820	0.094090	0.774840
O91	O9	0.523410	0.319240	0.816620
O101	O10	0.757100	0.338600	0.860740
O111	O11	0.212690	0.176440	0.644500
O121	O12	0.016560	0.159900	0.688440
O131	O13	0.838330	0.576800	0.269260
O141	O14	0.033980	0.594090	0.225160
O151	O15	0.706790	0.819240	0.183380
O161	O16	0.896360	0.838600	0.139260
O171	O17	0.568190	0.676440	0.355500
O181	O18	0.328120	0.659900	0.311560
O191	O19	0.430930	0.923200	0.269260
O201	O20	0.191180	0.905910	0.225160
O211	O21	0.476590	0.680760	0.183380
O221	O22	0.242900	0.661400	0.139260
O231	O23	0.787310	0.823560	0.355500
O241	O24	0.983440	0.840100	0.311560
H11	H1	0.176780	0.642140	0.740550
H21	H2	0.697800	0.614810	0.746070
H31	H3	0.588070	0.100950	0.905370
H41	H4	0.191370	0.068330	0.996050
H51	H5	0.260360	0.443910	0.520880
H61	H6	0.758860	0.463910	0.608330
H71	H7	0.563770	0.857860	0.740550
H81	H8	0.048390	0.885090	0.746060
H91	H9	0.317300	0.399050	0.905370
H101	H10	0.804680	0.431670	0.996050
H111	H11	0.260530	0.056090	0.520880
H121	H12	0.849460	0.036090	0.608330
H131	H13	0.823220	0.357860	0.259450
H141	H14	0.302200	0.385190	0.253930
H151	H15	0.411930	0.899050	0.094630
H161	H16	0.808100	0.932530	0.003010
H171	H17	0.740210	0.555760	0.479530
H181	H18	0.241140	0.536090	0.391670
H191	H19	0.436230	0.142140	0.259450
H201	H20	0.951740	0.114810	0.253930
H211	H21	0.684380	0.600240	0.094090
H221	H22	0.195320	0.568330	0.003950
H231	H23	0.739470	0.943910	0.479120
H241	H24	0.151130	0.964260	0.391920
