data_HAZNON_clean_PM
_symmetry_space_group_name_H-M	'P1'
_cell_length_a	11.708900
_cell_length_b	11.708900
_cell_length_c	14.733200
_cell_angle_alpha	109.164000
_cell_angle_beta	109.164000
_cell_angle_gamma	98.415300
_symmetry_Int_Tables_number 1

loop_
_symmetry_equiv_pos_as_xyz
'x,y,z'

loop_
_atom_site_label
_atom_site_type_symbol
_atom_site_fract_x
_atom_site_fract_y
_atom_site_fract_z
Cd11	Cd1	0.780340	0.024080	0.787500
Cd21	Cd2	0.975920	0.219660	0.712500
Cd31	Cd3	0.219660	0.975920	0.212500
Cd41	Cd4	0.024080	0.780340	0.287500
H11	H1	0.808100	0.257900	0.806700
H21	H2	0.120900	0.044500	0.019300
H31	H3	0.193300	0.414100	0.087800
H41	H4	0.295100	0.282700	0.312100
H51	H5	0.909000	0.519800	0.091700
H61	H6	0.908800	0.213600	0.155600
H71	H7	0.045400	0.560200	0.384100
H81	H8	0.742100	0.191900	0.693300
H91	H9	0.955500	0.879100	0.480700
H101	H10	0.585900	0.806700	0.412200
H111	H11	0.717300	0.704900	0.187900
H121	H12	0.480200	0.091000	0.408300
H131	H13	0.786400	0.091200	0.344400
H141	H14	0.439800	0.954600	0.115900
H151	H15	0.191900	0.742100	0.193300
H161	H16	0.879100	0.955500	0.980700
H171	H17	0.806700	0.585900	0.912200
H181	H18	0.704900	0.717300	0.687900
H191	H19	0.091000	0.480200	0.908300
H201	H20	0.091200	0.786400	0.844400
H211	H21	0.954600	0.439800	0.615900
H221	H22	0.257900	0.808100	0.306700
H231	H23	0.044500	0.120900	0.519300
H241	H24	0.414100	0.193300	0.587800
H251	H25	0.282700	0.295100	0.812100
H261	H26	0.519800	0.909000	0.591700
H271	H27	0.213600	0.908800	0.655600
H281	H28	0.560200	0.045400	0.884100
C11	C1	0.155300	0.127300	0.068900
C21	C2	0.146200	0.223400	0.034600
C31	C3	0.196000	0.347000	0.108200
C41	C4	0.250100	0.367700	0.213200
C51	C5	0.257200	0.267200	0.241400
C61	C6	0.074500	0.189300	0.918900
C71	C7	0.927200	0.484200	0.140700
C81	C8	0.896700	0.353900	0.104900
C91	C9	0.925800	0.300600	0.176900
C101	C10	0.981100	0.380300	0.281300
C111	C11	0.008000	0.508600	0.312800
C121	C12	0.837200	0.277200	0.987900
C131	C13	0.872700	0.844700	0.431100
C141	C14	0.776600	0.853800	0.465400
C151	C15	0.653000	0.804000	0.391800
C161	C16	0.632300	0.749900	0.286800
C171	C17	0.732800	0.742800	0.258600
C181	C18	0.810700	0.925500	0.581100
C191	C19	0.515800	0.072800	0.359300
C201	C20	0.646100	0.103300	0.395100
C211	C21	0.699400	0.074200	0.323100
C221	C22	0.619700	0.018900	0.218700
C231	C23	0.491400	0.992000	0.187200
C241	C24	0.722800	0.162800	0.512100
C251	C25	0.844700	0.872700	0.931100
C261	C26	0.853800	0.776600	0.965400
C271	C27	0.804000	0.653000	0.891800
C281	C28	0.749900	0.632300	0.786800
C291	C29	0.742800	0.732800	0.758600
C301	C30	0.925500	0.810700	0.081100
C311	C31	0.072800	0.515800	0.859300
C321	C32	0.103300	0.646100	0.895100
C331	C33	0.074200	0.699400	0.823100
C341	C34	0.018900	0.619700	0.718700
C351	C35	0.992000	0.491400	0.687200
C361	C36	0.162800	0.722800	0.012100
C371	C37	0.127300	0.155300	0.568900
C381	C38	0.223400	0.146200	0.534600
C391	C39	0.347000	0.196000	0.608200
C401	C40	0.367700	0.250100	0.713200
C411	C41	0.267200	0.257200	0.741400
C421	C42	0.189300	0.074500	0.418900
C431	C43	0.484200	0.927200	0.640700
C441	C44	0.353900	0.896700	0.604900
C451	C45	0.300600	0.925800	0.676900
C461	C46	0.380300	0.981100	0.781300
C471	C47	0.508600	0.008000	0.812800
C481	C48	0.277200	0.837200	0.487900
Br11	Br1	0.312050	0.532630	0.318570
Br21	Br2	0.023880	0.313540	0.385330
Br31	Br3	0.467370	0.687950	0.181430
Br41	Br4	0.686460	0.976120	0.114670
Br51	Br5	0.687950	0.467370	0.681430
Br61	Br6	0.976120	0.686460	0.614670
Br71	Br7	0.532630	0.312050	0.818570
Br81	Br8	0.313540	0.023880	0.885330
N11	N1	0.211200	0.147600	0.170100
N21	N2	0.981600	0.561000	0.242700
N31	N3	0.852400	0.788800	0.329900
N41	N4	0.439000	0.018400	0.257300
N51	N5	0.788800	0.852400	0.829900
N61	N6	0.018400	0.439000	0.757300
N71	N7	0.147600	0.211200	0.670100
N81	N8	0.561000	0.981600	0.742700
O11	O1	0.997710	0.082090	0.867100
O21	O2	0.097720	0.270680	0.884600
O31	O3	0.819900	0.338500	0.931600
O41	O4	0.811450	0.159350	0.956600
O51	O5	0.917910	0.002290	0.632900
O61	O6	0.729320	0.902280	0.615400
O71	O7	0.661500	0.180100	0.568400
O81	O8	0.840650	0.188550	0.543400
O91	O9	0.002290	0.917910	0.132900
O101	O10	0.902280	0.729320	0.115400
O111	O11	0.180100	0.661500	0.068400
O121	O12	0.188550	0.840650	0.043400
O131	O13	0.082090	0.997710	0.367100
O141	O14	0.270680	0.097720	0.384600
O151	O15	0.338500	0.819900	0.431600
O161	O16	0.159350	0.811450	0.456600
O171	O17	0.800000	0.200000	0.750000
O181	O18	0.200000	0.800000	0.250000
