data_HAZNED_clean_PM
_symmetry_space_group_name_H-M	'P1'
_cell_length_a	15.401000
_cell_length_b	17.381200
_cell_length_c	15.053800
_cell_angle_alpha	90.000000
_cell_angle_beta	120.435000
_cell_angle_gamma	90.000000
_symmetry_Int_Tables_number 1

loop_
_symmetry_equiv_pos_as_xyz
'x,y,z'

loop_
_atom_site_label
_atom_site_type_symbol
_atom_site_fract_x
_atom_site_fract_y
_atom_site_fract_z
Cd11	Cd1	0.366110	0.367440	0.714230
Br11	Br1	0.637950	0.367210	0.308010
Br21	Br2	0.036820	0.401090	0.129560
O11	O1	0.448800	0.329640	0.882500
O21	O2	0.576100	0.286200	0.865400
O31	O3	0.404400	0.507300	0.571100
O41	O4	0.284500	0.423700	0.549700
H11	H1	0.522700	0.470500	0.806500
N11	N1	0.738500	0.220300	0.166800
N21	N2	0.281200	0.544900	0.264100
C11	C1	0.724800	0.259600	0.235200
H21	H2	0.768600	0.251200	0.305100
C21	C2	0.648100	0.311800	0.205400
C31	C3	0.581700	0.325700	0.102200
H31	H3	0.528500	0.360100	0.081100
C41	C4	0.597300	0.286500	0.031000
C51	C5	0.676200	0.235000	0.066400
H41	H4	0.686600	0.209200	0.018500
C61	C6	0.535100	0.302000	0.917100
C71	C7	0.197800	0.506800	0.197200
H51	H5	0.169800	0.515800	0.127000
C81	C8	0.152600	0.454800	0.229500
C91	C9	0.190700	0.440500	0.332800
H61	H6	0.160300	0.405200	0.354800
C101	C10	0.275800	0.480700	0.402500
C111	C11	0.319000	0.531500	0.364700
H71	H7	0.377200	0.557500	0.411600
C121	C12	0.325700	0.469200	0.517800
Cd21	Cd2	0.866110	0.867440	0.714230
Br31	Br3	0.137950	0.867210	0.308010
Br41	Br4	0.536820	0.901090	0.129560
O51	O5	0.948800	0.829640	0.882500
O61	O6	0.076100	0.786200	0.865400
O71	O7	0.904400	0.007300	0.571100
O81	O8	0.784500	0.923700	0.549700
H81	H8	0.022700	0.970500	0.806500
N31	N3	0.238500	0.720300	0.166800
N41	N4	0.781200	0.044900	0.264100
C131	C13	0.224800	0.759600	0.235200
H91	H9	0.268600	0.751200	0.305100
C141	C14	0.148100	0.811800	0.205400
C151	C15	0.081700	0.825700	0.102200
H101	H10	0.028500	0.860100	0.081100
C161	C16	0.097300	0.786500	0.031000
C171	C17	0.176200	0.735000	0.066400
H111	H11	0.186600	0.709200	0.018500
C181	C18	0.035100	0.802000	0.917100
C191	C19	0.697800	0.006800	0.197200
H121	H12	0.669800	0.015800	0.127000
C201	C20	0.652600	0.954800	0.229500
C211	C21	0.690700	0.940500	0.332800
H131	H13	0.660300	0.905200	0.354800
C221	C22	0.775800	0.980700	0.402500
C231	C23	0.819000	0.031500	0.364700
H141	H14	0.877200	0.057500	0.411600
C241	C24	0.825700	0.969200	0.517800
Cd31	Cd3	0.633890	0.367440	0.785770
Br51	Br5	0.362050	0.367210	0.191990
Br61	Br6	0.963180	0.401090	0.370440
O91	O9	0.551200	0.329640	0.617500
O101	O10	0.423900	0.286200	0.634600
O111	O11	0.595600	0.507300	0.928900
O121	O12	0.715500	0.423700	0.950300
H151	H15	0.477300	0.470500	0.693500
N51	N5	0.261500	0.220300	0.333200
N61	N6	0.718800	0.544900	0.235900
C251	C25	0.275200	0.259600	0.264800
H161	H16	0.231400	0.251200	0.194900
C261	C26	0.351900	0.311800	0.294600
C271	C27	0.418300	0.325700	0.397800
H171	H17	0.471500	0.360100	0.418900
C281	C28	0.402700	0.286500	0.469000
C291	C29	0.323800	0.235000	0.433600
H181	H18	0.313400	0.209200	0.481500
C301	C30	0.464900	0.302000	0.582900
C311	C31	0.802200	0.506800	0.302800
H191	H19	0.830200	0.515800	0.373000
C321	C32	0.847400	0.454800	0.270500
C331	C33	0.809300	0.440500	0.167200
H201	H20	0.839700	0.405200	0.145200
C341	C34	0.724200	0.480700	0.097500
C351	C35	0.681000	0.531500	0.135300
H211	H21	0.622800	0.557500	0.088400
C361	C36	0.674300	0.469200	0.982200
Cd41	Cd4	0.133890	0.867440	0.785770
Br71	Br7	0.862050	0.867210	0.191990
Br81	Br8	0.463180	0.901090	0.370440
O131	O13	0.051200	0.829640	0.617500
O141	O14	0.923900	0.786200	0.634600
O151	O15	0.095600	0.007300	0.928900
O161	O16	0.215500	0.923700	0.950300
H221	H22	0.977300	0.970500	0.693500
N71	N7	0.761500	0.720300	0.333200
N81	N8	0.218800	0.044900	0.235900
C371	C37	0.775200	0.759600	0.264800
H231	H23	0.731400	0.751200	0.194900
C381	C38	0.851900	0.811800	0.294600
C391	C39	0.918300	0.825700	0.397800
H241	H24	0.971500	0.860100	0.418900
C401	C40	0.902700	0.786500	0.469000
C411	C41	0.823800	0.735000	0.433600
H251	H25	0.813400	0.709200	0.481500
C421	C42	0.964900	0.802000	0.582900
C431	C43	0.302200	0.006800	0.302800
H261	H26	0.330200	0.015800	0.373000
C441	C44	0.347400	0.954800	0.270500
C451	C45	0.309300	0.940500	0.167200
H271	H27	0.339700	0.905200	0.145200
C461	C46	0.224200	0.980700	0.097500
C471	C47	0.181000	0.031500	0.135300
H281	H28	0.122800	0.057500	0.088400
C481	C48	0.174300	0.969200	0.982200
Cd51	Cd5	0.633890	0.632560	0.285770
Br91	Br9	0.362050	0.632790	0.691990
Br101	Br10	0.963180	0.598910	0.870440
O171	O17	0.551200	0.670360	0.117500
O181	O18	0.423900	0.713800	0.134600
O191	O19	0.595600	0.492700	0.428900
O201	O20	0.715500	0.576300	0.450300
H291	H29	0.477300	0.529500	0.193500
N91	N9	0.261500	0.779700	0.833200
N101	N10	0.718800	0.455100	0.735900
C491	C49	0.275200	0.740400	0.764800
H301	H30	0.231400	0.748800	0.694900
C501	C50	0.351900	0.688200	0.794600
C511	C51	0.418300	0.674300	0.897800
H311	H31	0.471500	0.639900	0.918900
C521	C52	0.402700	0.713500	0.969000
C531	C53	0.323800	0.765000	0.933600
H321	H32	0.313400	0.790800	0.981500
C541	C54	0.464900	0.698000	0.082900
C551	C55	0.802200	0.493200	0.802800
H331	H33	0.830200	0.484200	0.873000
C561	C56	0.847400	0.545200	0.770500
C571	C57	0.809300	0.559500	0.667200
H341	H34	0.839700	0.594800	0.645200
C581	C58	0.724200	0.519300	0.597500
C591	C59	0.681000	0.468500	0.635300
H351	H35	0.622800	0.442500	0.588400
C601	C60	0.674300	0.530800	0.482200
Cd61	Cd6	0.133890	0.132560	0.285770
Br111	Br11	0.862050	0.132790	0.691990
Br121	Br12	0.463180	0.098910	0.870440
O211	O21	0.051200	0.170360	0.117500
O221	O22	0.923900	0.213800	0.134600
O231	O23	0.095600	0.992700	0.428900
O241	O24	0.215500	0.076300	0.450300
H361	H36	0.977300	0.029500	0.193500
N111	N11	0.761500	0.279700	0.833200
N121	N12	0.218800	0.955100	0.735900
C611	C61	0.775200	0.240400	0.764800
H371	H37	0.731400	0.248800	0.694900
C621	C62	0.851900	0.188200	0.794600
C631	C63	0.918300	0.174300	0.897800
H381	H38	0.971500	0.139900	0.918900
C641	C64	0.902700	0.213500	0.969000
C651	C65	0.823800	0.265000	0.933600
H391	H39	0.813400	0.290800	0.981500
C661	C66	0.964900	0.198000	0.082900
C671	C67	0.302200	0.993200	0.802800
H401	H40	0.330200	0.984200	0.873000
C681	C68	0.347400	0.045200	0.770500
C691	C69	0.309300	0.059500	0.667200
H411	H41	0.339700	0.094800	0.645200
C701	C70	0.224200	0.019300	0.597500
C711	C71	0.181000	0.968500	0.635300
H421	H42	0.122800	0.942500	0.588400
C721	C72	0.174300	0.030800	0.482200
Cd71	Cd7	0.366110	0.632560	0.214230
Br131	Br13	0.637950	0.632790	0.808010
Br141	Br14	0.036820	0.598910	0.629560
O251	O25	0.448800	0.670360	0.382500
O261	O26	0.576100	0.713800	0.365400
O271	O27	0.404400	0.492700	0.071100
O281	O28	0.284500	0.576300	0.049700
H431	H43	0.522700	0.529500	0.306500
N131	N13	0.738500	0.779700	0.666800
N141	N14	0.281200	0.455100	0.764100
C731	C73	0.724800	0.740400	0.735200
H441	H44	0.768600	0.748800	0.805100
C741	C74	0.648100	0.688200	0.705400
C751	C75	0.581700	0.674300	0.602200
H451	H45	0.528500	0.639900	0.581100
C761	C76	0.597300	0.713500	0.531000
C771	C77	0.676200	0.765000	0.566400
H461	H46	0.686600	0.790800	0.518500
C781	C78	0.535100	0.698000	0.417100
C791	C79	0.197800	0.493200	0.697200
H471	H47	0.169800	0.484200	0.627000
C801	C80	0.152600	0.545200	0.729500
C811	C81	0.190700	0.559500	0.832800
H481	H48	0.160300	0.594800	0.854800
C821	C82	0.275800	0.519300	0.902500
C831	C83	0.319000	0.468500	0.864700
H491	H49	0.377200	0.442500	0.911600
C841	C84	0.325700	0.530800	0.017800
Cd81	Cd8	0.866110	0.132560	0.214230
Br151	Br15	0.137950	0.132790	0.808010
Br161	Br16	0.536820	0.098910	0.629560
O291	O29	0.948800	0.170360	0.382500
O301	O30	0.076100	0.213800	0.365400
O311	O31	0.904400	0.992700	0.071100
O321	O32	0.784500	0.076300	0.049700
H501	H50	0.022700	0.029500	0.306500
N151	N15	0.238500	0.279700	0.666800
N161	N16	0.781200	0.955100	0.764100
C851	C85	0.224800	0.240400	0.735200
H511	H51	0.268600	0.248800	0.805100
C861	C86	0.148100	0.188200	0.705400
C871	C87	0.081700	0.174300	0.602200
H521	H52	0.028500	0.139900	0.581100
C881	C88	0.097300	0.213500	0.531000
C891	C89	0.176200	0.265000	0.566400
H531	H53	0.186600	0.290800	0.518500
C901	C90	0.035100	0.198000	0.417100
C911	C91	0.697800	0.993200	0.697200
H541	H54	0.669800	0.984200	0.627000
C921	C92	0.652600	0.045200	0.729500
C931	C93	0.690700	0.059500	0.832800
H551	H55	0.660300	0.094800	0.854800
C941	C94	0.775800	0.019300	0.902500
C951	C95	0.819000	0.968500	0.864700
H561	H56	0.877200	0.942500	0.911600
C961	C96	0.825700	0.030800	0.017800
O331	O33	0.500000	0.446300	0.750000
O341	O34	0.000000	0.946300	0.750000
O351	O35	0.500000	0.553700	0.250000
O361	O36	0.000000	0.053700	0.250000
