data_HAZWIP_clean_PM
_symmetry_space_group_name_H-M	'P1'
_cell_length_a	11.076300
_cell_length_b	11.076300
_cell_length_c	27.430700
_cell_angle_alpha	90.000000
_cell_angle_beta	90.000000
_cell_angle_gamma	90.000000
_symmetry_Int_Tables_number 1

loop_
_symmetry_equiv_pos_as_xyz
'x,y,z'

loop_
_atom_site_label
_atom_site_type_symbol
_atom_site_fract_x
_atom_site_fract_y
_atom_site_fract_z
N11	N1	0.533900	0.502800	0.926880
N21	N2	0.593500	0.706300	0.919610
N31	N3	0.535100	0.484600	0.825640
C11	C1	0.512200	0.396800	0.904070
H11	H1	0.495900	0.327000	0.923100
C21	C2	0.512900	0.387200	0.854240
H21	H2	0.497700	0.311100	0.839500
C31	C3	0.558500	0.588400	0.848070
H31	H3	0.573800	0.658300	0.829000
C41	C4	0.561400	0.598000	0.899110
C51	C5	0.662200	0.720800	0.962040
C61	C6	0.747700	0.812300	0.962930
H41	H4	0.867500	0.751700	0.063500
N41	N4	0.466100	0.497200	0.426880
N51	N5	0.406500	0.293700	0.419610
N61	N6	0.464900	0.515400	0.325640
C71	C7	0.487800	0.603200	0.404070
H51	H5	0.504100	0.673000	0.423100
C81	C8	0.487100	0.612800	0.354240
H61	H6	0.502300	0.688900	0.339500
C91	C9	0.441500	0.411600	0.348070
H71	H7	0.426200	0.341700	0.329000
C101	C10	0.438600	0.402000	0.399110
C111	C11	0.337800	0.279200	0.462040
C121	C12	0.252300	0.187700	0.462930
H81	H8	0.132500	0.248300	0.563500
N71	N7	0.502800	0.533900	0.073120
N81	N8	0.706300	0.593500	0.080390
N91	N9	0.484600	0.535100	0.174360
C131	C13	0.396800	0.512200	0.095930
H91	H9	0.327000	0.495900	0.076900
C141	C14	0.387200	0.512900	0.145760
H101	H10	0.311100	0.497700	0.160500
C151	C15	0.588400	0.558500	0.151930
H111	H11	0.658300	0.573800	0.171000
C161	C16	0.598000	0.561400	0.100890
C171	C17	0.720800	0.662200	0.037960
C181	C18	0.812300	0.747700	0.037070
H121	H12	0.751700	0.867500	0.936500
N101	N10	0.497200	0.466100	0.573120
N111	N11	0.293700	0.406500	0.580390
N121	N12	0.515400	0.464900	0.674360
C191	C19	0.603200	0.487800	0.595930
H131	H13	0.673000	0.504100	0.576900
C201	C20	0.612800	0.487100	0.645760
H141	H14	0.688900	0.502300	0.660500
C211	C21	0.411600	0.441500	0.651930
H151	H15	0.341700	0.426200	0.671000
C221	C22	0.402000	0.438600	0.600890
C231	C23	0.279200	0.337800	0.537960
C241	C24	0.187700	0.252300	0.537070
H161	H16	0.248300	0.132500	0.436500
Cu11	Cu1	0.516090	0.516090	0.000000
N131	N13	0.646000	0.646000	0.000000
N141	N14	0.824500	0.824500	0.000000
Cu21	Cu2	0.483910	0.483910	0.500000
N151	N15	0.354000	0.354000	0.500000
N161	N16	0.175500	0.175500	0.500000
Ni11	Ni1	0.528360	0.471640	0.750000
Ni21	Ni2	0.471640	0.528360	0.250000
N171	N17	0.997200	0.033900	0.676880
N181	N18	0.793700	0.093500	0.669610
N191	N19	0.015400	0.035100	0.575640
C251	C25	0.103200	0.012200	0.654070
H171	H17	0.173000	0.995900	0.673100
C261	C26	0.112800	0.012900	0.604240
H181	H18	0.188900	0.997700	0.589500
C271	C27	0.911600	0.058500	0.598070
H191	H19	0.841700	0.073800	0.579000
C281	C28	0.902000	0.061400	0.649110
C291	C29	0.779200	0.162200	0.712040
C301	C30	0.687700	0.247700	0.712930
H201	H20	0.748300	0.367500	0.813500
N201	N20	0.002800	0.966100	0.176880
N211	N21	0.206300	0.906500	0.169610
N221	N22	0.984600	0.964900	0.075640
C311	C31	0.896800	0.987800	0.154070
H211	H21	0.827000	0.004100	0.173100
C321	C32	0.887200	0.987100	0.104240
H221	H22	0.811100	0.002300	0.089500
C331	C33	0.088400	0.941500	0.098070
H231	H23	0.158300	0.926200	0.079000
C341	C34	0.098000	0.938600	0.149110
C351	C35	0.220800	0.837800	0.212040
C361	C36	0.312300	0.752300	0.212930
H241	H24	0.251700	0.632500	0.313500
N231	N23	0.966100	0.002800	0.823120
N241	N24	0.906500	0.206300	0.830390
N251	N25	0.964900	0.984600	0.924360
C371	C37	0.987800	0.896800	0.845930
H251	H25	0.004100	0.827000	0.826900
C381	C38	0.987100	0.887200	0.895760
H261	H26	0.002300	0.811100	0.910500
C391	C39	0.941500	0.088400	0.901930
H271	H27	0.926200	0.158300	0.921000
C401	C40	0.938600	0.098000	0.850890
C411	C41	0.837800	0.220800	0.787960
C421	C42	0.752300	0.312300	0.787070
H281	H28	0.632500	0.251700	0.686500
N261	N26	0.033900	0.997200	0.323120
N271	N27	0.093500	0.793700	0.330390
N281	N28	0.035100	0.015400	0.424360
C431	C43	0.012200	0.103200	0.345930
H291	H29	0.995900	0.173000	0.326900
C441	C44	0.012900	0.112800	0.395760
H301	H30	0.997700	0.188900	0.410500
C451	C45	0.058500	0.911600	0.401930
H311	H31	0.073800	0.841700	0.421000
C461	C46	0.061400	0.902000	0.350890
C471	C47	0.162200	0.779200	0.287960
C481	C48	0.247700	0.687700	0.287070
H321	H32	0.367500	0.748300	0.186500
Cu31	Cu3	0.983910	0.016090	0.750000
N291	N29	0.854000	0.146000	0.750000
N301	N30	0.675500	0.324500	0.750000
Cu41	Cu4	0.016090	0.983910	0.250000
N311	N31	0.146000	0.854000	0.250000
N321	N32	0.324500	0.675500	0.250000
Ni31	Ni3	0.028360	0.028360	0.500000
Ni41	Ni4	0.971640	0.971640	0.000000
