data_HEBPUB_charged_PM
_symmetry_space_group_name_H-M	'P1'
_cell_length_a	13.169800
_cell_length_b	19.674700
_cell_length_c	19.674700
_cell_angle_alpha	64.828900
_cell_angle_beta	77.107400
_cell_angle_gamma	102.893000
_symmetry_Int_Tables_number 1

loop_
_symmetry_equiv_pos_as_xyz
'x,y,z'

loop_
_atom_site_label
_atom_site_type_symbol
_atom_site_fract_x
_atom_site_fract_y
_atom_site_fract_z
Zn11	Zn1	0.662140	0.493920	0.505030
Zn21	Zn2	0.383610	0.279690	0.411890
Zn31	Zn3	0.016800	0.553780	0.564710
Zn41	Zn4	0.167170	0.505030	0.001050
Zn51	Zn5	0.795500	0.411890	0.308420
Zn61	Zn6	0.581510	0.564710	0.881510
Zn71	Zn7	0.168220	0.001050	0.493920
Zn81	Zn8	0.103920	0.308420	0.279690
Zn91	Zn9	0.463020	0.881510	0.553780
Zn101	Zn10	0.337860	0.506080	0.494970
Zn111	Zn11	0.616390	0.720310	0.588110
Zn121	Zn12	0.983200	0.446220	0.435290
Zn131	Zn13	0.832830	0.494970	0.998950
Zn141	Zn14	0.204500	0.588110	0.691580
Zn151	Zn15	0.418490	0.435290	0.118490
Zn161	Zn16	0.831780	0.998950	0.506080
Zn171	Zn17	0.896080	0.691580	0.720310
Zn181	Zn18	0.536980	0.118490	0.446220
P11	P1	0.811040	0.422200	0.590210
P21	P2	0.854000	0.548620	0.344930
P31	P3	0.477800	0.416910	0.447010
P41	P4	0.315420	0.407060	0.288510
P51	P5	0.401250	0.590210	0.987590
P61	P6	0.198930	0.344930	0.106450
P71	P7	0.924810	0.447010	0.136080
P81	P8	0.603930	0.288510	0.304430
P91	P9	0.388840	0.987590	0.422200
P101	P10	0.305380	0.106450	0.548620
P111	P11	0.060890	0.136080	0.416910
P121	P12	0.908360	0.304430	0.407060
P131	P13	0.188960	0.577800	0.409790
P141	P14	0.146000	0.451380	0.655070
P151	P15	0.522200	0.583090	0.552990
P161	P16	0.684580	0.592940	0.711490
P171	P17	0.598750	0.409790	0.012410
P181	P18	0.801070	0.655070	0.893550
P191	P19	0.075190	0.552990	0.863920
P201	P20	0.396070	0.711490	0.695570
P211	P21	0.611160	0.012410	0.577800
P221	P22	0.694620	0.893550	0.451380
P231	P23	0.939110	0.863920	0.583090
P241	P24	0.091640	0.695570	0.592940
H11	H1	0.788200	0.372200	0.659700
H21	H2	0.900000	0.617600	0.285000
H31	H3	0.550100	0.475400	0.365400
H41	H4	0.338400	0.478500	0.298900
H51	H5	0.447900	0.659700	0.968100
H61	H6	0.185000	0.285000	0.097400
H71	H7	0.915500	0.365400	0.159200
H81	H8	0.637300	0.298900	0.222600
H91	H9	0.416000	0.968100	0.372200
H101	H10	0.282400	0.097400	0.617600
H111	H11	0.074700	0.159200	0.475400
H121	H12	0.859900	0.222600	0.478500
H131	H13	0.211800	0.627800	0.340300
H141	H14	0.100000	0.382400	0.715000
H151	H15	0.449900	0.524600	0.634600
H161	H16	0.661600	0.521500	0.701100
H171	H17	0.552100	0.340300	0.031900
H181	H18	0.815000	0.715000	0.902600
H191	H19	0.084500	0.634600	0.840800
H201	H20	0.362700	0.701100	0.777400
H211	H21	0.584000	0.031900	0.627800
H221	H22	0.717600	0.902600	0.382400
H231	H23	0.925300	0.840800	0.524600
H241	H24	0.140100	0.777400	0.521500
O11	O1	0.370430	0.432310	0.461480
O21	O2	0.699080	0.410760	0.581320
O31	O3	0.798200	0.560780	0.412080
O41	O4	0.539240	0.428650	0.498530
O51	O5	0.458690	0.333430	0.458660
O61	O6	0.772560	0.495010	0.330230
O71	O7	0.291880	0.336230	0.368580
O81	O8	0.214530	0.402350	0.263760
O91	O9	0.416830	0.421680	0.223390
O101	O10	0.865610	0.505420	0.575390
O111	O11	0.883890	0.396950	0.543480
O121	O12	0.953050	0.524520	0.352270
O131	O13	0.831910	0.461480	0.106210
O141	O14	0.280400	0.581320	0.007920
O151	O15	0.210280	0.412080	0.027140
O161	O16	0.037770	0.498530	0.072820
O171	O17	0.917350	0.458660	0.207910
O181	O18	0.102790	0.330230	0.174760
O191	O19	0.660460	0.368580	0.295190
O201	O20	0.478290	0.263760	0.333890
O211	O21	0.640220	0.223390	0.354930
O221	O22	0.441000	0.575390	0.919190
O231	O23	0.427370	0.543480	0.059570
O241	O24	0.305320	0.352270	0.123210
O251	O25	0.938120	0.106210	0.432310
O261	O26	0.288320	0.007920	0.410760
O271	O27	0.237420	0.027140	0.560780
O281	O28	0.110590	0.072820	0.428650
O291	O29	0.125260	0.207910	0.333430
O301	O30	0.277550	0.174760	0.495010
O311	O31	0.955650	0.295190	0.336230
O321	O32	0.812180	0.333890	0.402350
O331	O33	0.995150	0.354930	0.421680
O341	O34	0.360190	0.919190	0.505420
O351	O35	0.486940	0.059570	0.396950
O361	O36	0.428530	0.123210	0.524520
O371	O37	0.629570	0.567690	0.538520
O381	O38	0.300920	0.589240	0.418680
O391	O39	0.201800	0.439220	0.587920
O401	O40	0.460760	0.571350	0.501470
O411	O41	0.541310	0.666570	0.541340
O421	O42	0.227440	0.504990	0.669770
O431	O43	0.708120	0.663770	0.631420
O441	O44	0.785470	0.597650	0.736240
O451	O45	0.583170	0.578320	0.776610
O461	O46	0.134390	0.494580	0.424610
O471	O47	0.116110	0.603050	0.456520
O481	O48	0.046950	0.475480	0.647730
O491	O49	0.168090	0.538520	0.893790
O501	O50	0.719600	0.418680	0.992080
O511	O51	0.789720	0.587920	0.972860
O521	O52	0.962230	0.501470	0.927180
O531	O53	0.082650	0.541340	0.792090
O541	O54	0.897210	0.669770	0.825240
O551	O55	0.339540	0.631420	0.704810
O561	O56	0.521710	0.736240	0.666110
O571	O57	0.359780	0.776610	0.645070
O581	O58	0.559000	0.424610	0.080810
O591	O59	0.572630	0.456520	0.940430
O601	O60	0.694680	0.647730	0.876790
O611	O61	0.061880	0.893790	0.567690
O621	O62	0.711680	0.992080	0.589240
O631	O63	0.762580	0.972860	0.439220
O641	O64	0.889410	0.927180	0.571350
O651	O65	0.874740	0.792090	0.666570
O661	O66	0.722450	0.825240	0.504990
O671	O67	0.044350	0.704810	0.663770
O681	O68	0.187820	0.666110	0.597650
O691	O69	0.004850	0.645070	0.578320
O701	O70	0.639810	0.080810	0.494580
O711	O71	0.513060	0.940430	0.603050
O721	O72	0.571470	0.876790	0.475480
H251	H25	0.384300	0.243000	0.174700
H261	H26	0.318900	0.060900	0.090700
H271	H27	0.342400	0.209100	0.079600
H281	H28	0.225200	0.144500	0.107400
H291	H29	0.206100	0.158700	0.214600
H301	H30	0.244000	0.084300	0.240400
H311	H31	0.266400	0.187600	0.301400
H321	H32	0.381800	0.210300	0.296200
H331	H33	0.315300	0.126200	0.329400
C11	C1	0.363980	0.185880	0.213040
C21	C2	0.470800	0.167900	0.200100
C31	C3	0.468600	0.095600	0.193500
C41	C4	0.460200	0.102000	0.117100
C51	C5	0.351500	0.097100	0.105300
C61	C6	0.294000	0.153800	0.117900
C71	C7	0.267780	0.141480	0.202240
N11	N1	0.328460	0.176630	0.292650
H341	H34	0.875100	0.778300	0.448100
H351	H35	0.139000	0.920100	0.203500
H361	H36	0.134400	0.897400	0.331700
H371	H37	0.010900	0.895500	0.351100
H381	H38	0.043300	0.758100	0.354100
H391	H39	0.049500	0.768700	0.428000
H401	H40	0.895600	0.662200	0.519500
H411	H41	0.866300	0.633600	0.466900
H421	H42	0.784700	0.649600	0.515300
C81	C8	0.895500	0.747800	0.422400
C91	C9	0.828400	0.753400	0.368300
C101	C10	0.864900	0.833200	0.294200
C111	C11	0.966700	0.863200	0.229400
C121	C12	0.070100	0.891700	0.245300
C131	C13	0.061700	0.873300	0.331600
C141	C14	0.018500	0.782100	0.385600
N21	N2	0.856770	0.665320	0.487310
H431	H43	0.559000	0.174700	0.582300
H441	H44	0.409600	0.090700	0.848400
H451	H45	0.422000	0.079600	0.711300
H461	H46	0.332600	0.107400	0.748100
H471	H47	0.420700	0.214600	0.626700
H481	H48	0.484400	0.240400	0.675300
H491	H49	0.567800	0.301400	0.511000
H501	H50	0.678000	0.296200	0.493500
H511	H51	0.644700	0.329400	0.544400
C151	C15	0.577020	0.213040	0.601080
C161	C16	0.670900	0.200100	0.632000
C171	C17	0.662100	0.193500	0.710900
C181	C18	0.577300	0.117100	0.780900
C191	C19	0.456800	0.105300	0.797600
C201	C20	0.411900	0.117900	0.728300
C211	C21	0.470020	0.202240	0.656280
N31	N3	0.621110	0.292650	0.530720
H521	H52	0.323200	0.448100	0.773600
H531	H53	0.342500	0.203500	0.876400
H541	H54	0.466100	0.331700	0.770900
H551	H55	0.362000	0.351100	0.753400
H561	H56	0.397400	0.354100	0.887800
H571	H57	0.477500	0.428000	0.803300
H581	H58	0.415100	0.519500	0.818300
H591	H59	0.333200	0.466900	0.899500
H601	H60	0.300000	0.515300	0.835100
C221	C22	0.317900	0.422400	0.829800
C231	C23	0.196700	0.368300	0.878300
C241	C24	0.159100	0.294200	0.872600
C251	C25	0.196100	0.229400	0.907400
C261	C26	0.315400	0.245300	0.863000
C271	C27	0.393300	0.331600	0.795100
C281	C28	0.404100	0.385600	0.832300
N41	N4	0.344080	0.487310	0.847370
H611	H61	0.141300	0.582300	0.243000
H621	H62	0.258000	0.848400	0.060900
H631	H63	0.133300	0.711300	0.209100
H641	H64	0.080700	0.748100	0.144500
H651	H65	0.047400	0.626700	0.158700
H661	H66	0.159700	0.675300	0.084300
H671	H67	0.078800	0.511000	0.187600
H681	H68	0.171500	0.493500	0.210300
H691	H69	0.189100	0.544400	0.126200
C291	C29	0.178100	0.601080	0.185880
C301	C30	0.302900	0.632000	0.167900
C311	C31	0.373000	0.710900	0.095600
C321	C32	0.358200	0.780900	0.102000
C331	C33	0.254400	0.797600	0.097100
C341	C34	0.140200	0.728300	0.153800
C351	C35	0.126300	0.656280	0.141480
N51	N5	0.151830	0.530720	0.176630
H701	H70	0.096800	0.773600	0.778300
H711	H71	0.218900	0.876400	0.920100
H721	H72	0.237000	0.770900	0.897400
H731	H73	0.115400	0.753400	0.895500
H741	H74	0.285200	0.887800	0.758100
H751	H75	0.280800	0.803300	0.768700
H761	H76	0.233400	0.818300	0.662200
H771	H77	0.232700	0.899500	0.633600
H781	H78	0.135100	0.835100	0.649600
C361	C36	0.147700	0.829800	0.747800
C371	C37	0.075000	0.878300	0.753400
C381	C38	0.031700	0.872600	0.833200
C391	C39	0.103500	0.907400	0.863200
C401	C40	0.178400	0.863000	0.891700
C411	C41	0.188400	0.795100	0.873300
C421	C42	0.236400	0.832300	0.782100
N61	N6	0.191450	0.847370	0.665320
H791	H79	0.615700	0.757000	0.825300
H801	H80	0.681100	0.939100	0.909300
H811	H81	0.657600	0.790900	0.920400
H821	H82	0.774800	0.855500	0.892600
H831	H83	0.793900	0.841300	0.785400
H841	H84	0.756000	0.915700	0.759600
H851	H85	0.733600	0.812400	0.698600
H861	H86	0.618200	0.789700	0.703800
H871	H87	0.684700	0.873800	0.670600
C431	C43	0.636020	0.814120	0.786960
C441	C44	0.529200	0.832100	0.799900
C451	C45	0.531400	0.904400	0.806500
C461	C46	0.539800	0.898000	0.882900
C471	C47	0.648500	0.902900	0.894700
C481	C48	0.706000	0.846200	0.882100
C491	C49	0.732220	0.858520	0.797760
N71	N7	0.671540	0.823370	0.707350
H881	H88	0.124900	0.221700	0.551900
H891	H89	0.861000	0.079900	0.796500
H901	H90	0.865600	0.102600	0.668300
H911	H91	0.989100	0.104500	0.648900
H921	H92	0.956700	0.241900	0.645900
H931	H93	0.950500	0.231300	0.572000
H941	H94	0.104400	0.337800	0.480500
H951	H95	0.133700	0.366400	0.533100
H961	H96	0.215300	0.350400	0.484700
C501	C50	0.104500	0.252200	0.577600
C511	C51	0.171600	0.246600	0.631700
C521	C52	0.135100	0.166800	0.705800
C531	C53	0.033300	0.136800	0.770600
C541	C54	0.929900	0.108300	0.754700
C551	C55	0.938300	0.126700	0.668400
C561	C56	0.981500	0.217900	0.614400
N81	N8	0.143230	0.334680	0.512690
H971	H97	0.441000	0.825300	0.417700
H981	H98	0.590400	0.909300	0.151600
H991	H99	0.578000	0.920400	0.288700
H1001	H100	0.667400	0.892600	0.251900
H1011	H101	0.579300	0.785400	0.373300
H1021	H102	0.515600	0.759600	0.324700
H1031	H103	0.432200	0.698600	0.489000
H1041	H104	0.322000	0.703800	0.506500
H1051	H105	0.355300	0.670600	0.455600
C571	C57	0.422980	0.786960	0.398920
C581	C58	0.329100	0.799900	0.368000
C591	C59	0.337900	0.806500	0.289100
C601	C60	0.422700	0.882900	0.219100
C611	C61	0.543200	0.894700	0.202400
C621	C62	0.588100	0.882100	0.271700
C631	C63	0.529980	0.797760	0.343720
N91	N9	0.378890	0.707350	0.469280
H1061	H106	0.676800	0.551900	0.226400
H1071	H107	0.657500	0.796500	0.123600
H1081	H108	0.533900	0.668300	0.229100
H1091	H109	0.638000	0.648900	0.246600
H1101	H110	0.602600	0.645900	0.112200
H1111	H111	0.522500	0.572000	0.196700
H1121	H112	0.584900	0.480500	0.181700
H1131	H113	0.666800	0.533100	0.100500
H1141	H114	0.700000	0.484700	0.164900
C641	C64	0.682100	0.577600	0.170200
C651	C65	0.803300	0.631700	0.121700
C661	C66	0.840900	0.705800	0.127400
C671	C67	0.803900	0.770600	0.092600
C681	C68	0.684600	0.754700	0.137000
C691	C69	0.606700	0.668400	0.204900
C701	C70	0.595900	0.614400	0.167700
N101	N10	0.655920	0.512690	0.152630
H1151	H115	0.858700	0.417700	0.757000
H1161	H116	0.742000	0.151600	0.939100
H1171	H117	0.866700	0.288700	0.790900
H1181	H118	0.919300	0.251900	0.855500
H1191	H119	0.952600	0.373300	0.841300
H1201	H120	0.840300	0.324700	0.915700
H1211	H121	0.921200	0.489000	0.812400
H1221	H122	0.828500	0.506500	0.789700
H1231	H123	0.810900	0.455600	0.873800
C711	C71	0.821900	0.398920	0.814120
C721	C72	0.697100	0.368000	0.832100
C731	C73	0.627000	0.289100	0.904400
C741	C74	0.641800	0.219100	0.898000
C751	C75	0.745600	0.202400	0.902900
C761	C76	0.859800	0.271700	0.846200
C771	C77	0.873700	0.343720	0.858520
N111	N11	0.848170	0.469280	0.823370
H1241	H124	0.903200	0.226400	0.221700
H1251	H125	0.781100	0.123600	0.079900
H1261	H126	0.763000	0.229100	0.102600
H1271	H127	0.884600	0.246600	0.104500
H1281	H128	0.714800	0.112200	0.241900
H1291	H129	0.719200	0.196700	0.231300
H1301	H130	0.766600	0.181700	0.337800
H1311	H131	0.767300	0.100500	0.366400
H1321	H132	0.864900	0.164900	0.350400
C781	C78	0.852300	0.170200	0.252200
C791	C79	0.925000	0.121700	0.246600
C801	C80	0.968300	0.127400	0.166800
C811	C81	0.896500	0.092600	0.136800
C821	C82	0.821600	0.137000	0.108300
C831	C83	0.811600	0.204900	0.126700
C841	C84	0.763600	0.167700	0.217900
N121	N12	0.808550	0.152630	0.334680
