data_HEDBUP_clean_PM
_symmetry_space_group_name_H-M	'P1'
_cell_length_a	8.320300
_cell_length_b	15.836700
_cell_length_c	21.504700
_cell_angle_alpha	90.000000
_cell_angle_beta	90.000000
_cell_angle_gamma	90.000000
_symmetry_Int_Tables_number 1

loop_
_symmetry_equiv_pos_as_xyz
'x,y,z'

loop_
_atom_site_label
_atom_site_type_symbol
_atom_site_fract_x
_atom_site_fract_y
_atom_site_fract_z
Nd11	Nd1	0.145480	0.156500	0.727720
Nd21	Nd2	0.854520	0.843500	0.227720
Nd31	Nd3	0.354520	0.656500	0.727720
Nd41	Nd4	0.645480	0.343500	0.227720
U11	U1	0.977040	0.644190	0.976080
U21	U2	0.984070	0.366250	0.971880
U31	U3	0.022960	0.355810	0.476080
U41	U4	0.015930	0.633750	0.471880
U51	U5	0.522960	0.144190	0.976080
U61	U6	0.515930	0.866250	0.971880
U71	U7	0.477040	0.855810	0.476080
U81	U8	0.484070	0.133750	0.471880
C11	C1	0.017800	0.186900	0.978100
C21	C2	0.021500	0.092800	0.980600
C31	C3	0.014500	0.916000	0.979300
C41	C4	0.011600	0.821800	0.981200
C51	C5	0.190100	0.912500	0.882900
C61	C6	0.198700	0.092600	0.883700
C71	C7	0.834100	0.095400	0.075200
C81	C8	0.100300	0.959700	0.935100
C91	C9	0.923900	0.961900	0.024000
C101	C10	0.107400	0.047800	0.934700
C111	C11	0.928400	0.049400	0.025300
C121	C12	0.824300	0.915900	0.072900
C131	C13	0.982200	0.813100	0.478100
C141	C14	0.978500	0.907200	0.480600
C151	C15	0.985500	0.084000	0.479300
C161	C16	0.988400	0.178200	0.481200
C171	C17	0.809900	0.087500	0.382900
C181	C18	0.801300	0.907400	0.383700
C191	C19	0.165900	0.904600	0.575200
C201	C20	0.899700	0.040300	0.435100
C211	C21	0.076100	0.038100	0.524000
C221	C22	0.892600	0.952200	0.434700
C231	C23	0.071600	0.950600	0.525300
C241	C24	0.175700	0.084100	0.572900
C251	C25	0.482200	0.686900	0.978100
C261	C26	0.478500	0.592800	0.980600
C271	C27	0.485500	0.416000	0.979300
C281	C28	0.488400	0.321800	0.981200
C291	C29	0.309900	0.412500	0.882900
C301	C30	0.301300	0.592600	0.883700
C311	C31	0.665900	0.595400	0.075200
C321	C32	0.399700	0.459700	0.935100
C331	C33	0.576100	0.461900	0.024000
C341	C34	0.392600	0.547800	0.934700
C351	C35	0.571600	0.549400	0.025300
C361	C36	0.675700	0.415900	0.072900
C371	C37	0.517800	0.313100	0.478100
C381	C38	0.521500	0.407200	0.480600
C391	C39	0.514500	0.584000	0.479300
C401	C40	0.511600	0.678200	0.481200
C411	C41	0.690100	0.587500	0.382900
C421	C42	0.698700	0.407400	0.383700
C431	C43	0.334100	0.404600	0.575200
C441	C44	0.600300	0.540300	0.435100
C451	C45	0.423900	0.538100	0.524000
C461	C46	0.607400	0.452200	0.434700
C471	C47	0.428400	0.450600	0.525300
C481	C48	0.324300	0.584100	0.572900
O11	O1	0.957500	0.228000	0.023800
O21	O2	0.077600	0.226100	0.933400
O31	O3	0.939500	0.783400	0.024200
O41	O4	0.334600	0.895600	0.889000
O51	O5	0.111500	0.900400	0.834100
O61	O6	0.341800	0.117600	0.893600
O71	O7	0.133000	0.093700	0.832000
O81	O8	0.884000	0.907500	0.125000
O91	O9	0.684600	0.892700	0.058300
O101	O10	0.923600	0.505100	0.952700
O111	O11	0.689300	0.116400	0.062200
O121	O12	0.900100	0.108400	0.125800
O131	O13	0.083300	0.781500	0.939100
O141	O14	0.042500	0.772000	0.523800
O151	O15	0.922400	0.773900	0.433400
O161	O16	0.060500	0.216600	0.524200
O171	O17	0.665400	0.104400	0.389000
O181	O18	0.888500	0.099600	0.334100
O191	O19	0.658200	0.882400	0.393600
O201	O20	0.867000	0.906300	0.332000
O211	O21	0.116000	0.092500	0.625000
O221	O22	0.315400	0.107300	0.558300
O231	O23	0.076400	0.494900	0.452700
O241	O24	0.310700	0.883600	0.562200
O251	O25	0.099900	0.891600	0.625800
O261	O26	0.916700	0.218500	0.439100
O271	O27	0.542500	0.728000	0.023800
O281	O28	0.422400	0.726100	0.933400
O291	O29	0.560500	0.283400	0.024200
O301	O30	0.165400	0.395600	0.889000
O311	O31	0.388500	0.400400	0.834100
O321	O32	0.158200	0.617600	0.893600
O331	O33	0.367000	0.593700	0.832000
O341	O34	0.616000	0.407500	0.125000
O351	O35	0.815400	0.392700	0.058300
O361	O36	0.576400	0.005100	0.952700
O371	O37	0.810700	0.616400	0.062200
O381	O38	0.599900	0.608400	0.125800
O391	O39	0.416700	0.281500	0.939100
O401	O40	0.457500	0.272000	0.523800
O411	O41	0.577600	0.273900	0.433400
O421	O42	0.439500	0.716600	0.524200
O431	O43	0.834600	0.604400	0.389000
O441	O44	0.611500	0.599600	0.334100
O451	O45	0.841800	0.382400	0.393600
O461	O46	0.633000	0.406300	0.332000
O471	O47	0.384000	0.592500	0.625000
O481	O48	0.184600	0.607300	0.558300
O491	O49	0.423600	0.994900	0.452700
O501	O50	0.189300	0.383600	0.562200
O511	O51	0.400100	0.391600	0.625800
O521	O52	0.583300	0.718500	0.439100
