data_HEDTER_clean_PM
_symmetry_space_group_name_H-M	'P1'
_cell_length_a	10.593000
_cell_length_b	17.005000
_cell_length_c	24.001300
_cell_angle_alpha	91.215000
_cell_angle_beta	90.000000
_cell_angle_gamma	90.000000
_symmetry_Int_Tables_number 1

loop_
_symmetry_equiv_pos_as_xyz
'x,y,z'

loop_
_atom_site_label
_atom_site_type_symbol
_atom_site_fract_x
_atom_site_fract_y
_atom_site_fract_z
Ni11	Ni1	0.313130	0.250070	0.377910
Ni21	Ni2	0.813130	0.249930	0.122090
Ni31	Ni3	0.686870	0.749930	0.622090
Ni41	Ni4	0.186870	0.750070	0.877910
H11	H1	0.017400	0.237000	0.389100
H21	H2	0.867900	0.239100	0.458400
H31	H3	0.139400	0.259500	0.573900
H41	H4	0.288400	0.262100	0.504500
H51	H5	0.796100	0.149800	0.540700
H61	H6	0.639600	0.149900	0.606300
H71	H7	0.783000	0.347000	0.674800
H81	H8	0.942200	0.346600	0.609200
H91	H9	0.217700	0.816700	0.752500
H101	H10	0.316100	0.918100	0.710000
H111	H11	0.430500	0.000700	0.858000
H121	H12	0.344500	0.892800	0.900200
H131	H13	0.616300	0.020000	0.776400
H141	H14	0.704400	0.134100	0.740800
H151	H15	0.366500	0.195500	0.678600
H161	H16	0.279400	0.080900	0.713600
H171	H17	0.283400	0.588800	0.905600
H181	H18	0.368400	0.482300	0.865900
H191	H19	0.377100	0.591600	0.718100
H201	H20	0.284300	0.697400	0.759200
H211	H21	0.455500	0.381200	0.829900
H221	H22	0.536800	0.272600	0.788600
H231	H23	0.544500	0.384600	0.642000
H241	H24	0.458900	0.495400	0.683900
H251	H25	0.579700	0.372700	0.516800
H261	H26	0.446200	0.410400	0.529800
H271	H27	0.595800	0.474200	0.440100
H281	H28	0.334800	0.485100	0.477800
H291	H29	0.371300	0.518900	0.418900
H301	H30	0.554900	0.973000	0.406600
H311	H31	0.417200	0.976200	0.430300
H321	H32	0.618100	0.068400	0.467500
H331	H33	0.483600	0.130100	0.532500
H341	H34	0.369600	0.078000	0.512400
H351	H35	0.517400	0.263000	0.110900
H361	H36	0.367900	0.260900	0.041600
H371	H37	0.639400	0.240500	0.926100
H381	H38	0.788400	0.237900	0.995500
H391	H39	0.296100	0.350200	0.959300
H401	H40	0.139600	0.350100	0.893700
H411	H41	0.283000	0.153000	0.825200
H421	H42	0.442200	0.153400	0.890800
H431	H43	0.717700	0.683300	0.747500
H441	H44	0.816100	0.581900	0.790000
H451	H45	0.930500	0.499300	0.642000
H461	H46	0.844500	0.607200	0.599800
H471	H47	0.116300	0.480000	0.723600
H481	H48	0.204400	0.365900	0.759200
H491	H49	0.866500	0.304500	0.821400
H501	H50	0.779400	0.419100	0.786400
H511	H51	0.783400	0.911200	0.594400
H521	H52	0.868400	0.017700	0.634100
H531	H53	0.877100	0.908400	0.781900
H541	H54	0.784300	0.802600	0.740800
H551	H55	0.955500	0.118800	0.670100
H561	H56	0.036800	0.227400	0.711400
H571	H57	0.044500	0.115400	0.858000
H581	H58	0.958900	0.004600	0.816100
H591	H59	0.079700	0.127300	0.983200
H601	H60	0.946200	0.089600	0.970200
H611	H61	0.095800	0.025800	0.059900
H621	H62	0.834800	0.014900	0.022200
H631	H63	0.871300	0.981100	0.081100
H641	H64	0.054900	0.527000	0.093400
H651	H65	0.917200	0.523800	0.069700
H661	H66	0.118100	0.431600	0.032500
H671	H67	0.983600	0.369900	0.967500
H681	H68	0.869600	0.422000	0.987600
H691	H69	0.982600	0.763000	0.610900
H701	H70	0.132100	0.760900	0.541600
H711	H71	0.860600	0.740500	0.426100
H721	H72	0.711600	0.737900	0.495500
H731	H73	0.203900	0.850200	0.459300
H741	H74	0.360400	0.850100	0.393700
H751	H75	0.217000	0.653000	0.325200
H761	H76	0.057800	0.653400	0.390800
H771	H77	0.782300	0.183300	0.247500
H781	H78	0.683900	0.081900	0.290000
H791	H79	0.569500	0.999300	0.142000
H801	H80	0.655500	0.107200	0.099800
H811	H81	0.383700	0.980000	0.223600
H821	H82	0.295600	0.865900	0.259200
H831	H83	0.633500	0.804500	0.321400
H841	H84	0.720600	0.919100	0.286400
H851	H85	0.716600	0.411200	0.094400
H861	H86	0.631600	0.517700	0.134100
H871	H87	0.622900	0.408400	0.281900
H881	H88	0.715700	0.302600	0.240800
H891	H89	0.544500	0.618800	0.170100
H901	H90	0.463200	0.727400	0.211400
H911	H91	0.455500	0.615400	0.358000
H921	H92	0.541100	0.504600	0.316100
H931	H93	0.420300	0.627300	0.483200
H941	H94	0.553800	0.589600	0.470200
H951	H95	0.404200	0.525800	0.559900
H961	H96	0.665200	0.514900	0.522200
H971	H97	0.628700	0.481100	0.581100
H981	H98	0.445100	0.027000	0.593400
H991	H99	0.582800	0.023800	0.569700
H1001	H100	0.381900	0.931600	0.532500
H1011	H101	0.516400	0.869900	0.467500
H1021	H102	0.630400	0.922000	0.487600
H1031	H103	0.482600	0.737000	0.889100
H1041	H104	0.632100	0.739100	0.958400
H1051	H105	0.360600	0.759500	0.073900
H1061	H106	0.211600	0.762100	0.004500
H1071	H107	0.703900	0.649800	0.040700
H1081	H108	0.860400	0.649900	0.106300
H1091	H109	0.717000	0.847000	0.174800
H1101	H110	0.557800	0.846600	0.109200
H1111	H111	0.282300	0.316700	0.252500
H1121	H112	0.183900	0.418100	0.210000
H1131	H113	0.069500	0.500700	0.358000
H1141	H114	0.155500	0.392800	0.400200
H1151	H115	0.883700	0.520000	0.276400
H1161	H116	0.795600	0.634100	0.240800
H1171	H117	0.133500	0.695500	0.178600
H1181	H118	0.220600	0.580900	0.213600
H1191	H119	0.216600	0.088800	0.405600
H1201	H120	0.131600	0.982300	0.365900
H1211	H121	0.122900	0.091600	0.218100
H1221	H122	0.215700	0.197400	0.259200
H1231	H123	0.044500	0.881200	0.329900
H1241	H124	0.963200	0.772600	0.288600
H1251	H125	0.955500	0.884600	0.142000
H1261	H126	0.041100	0.995400	0.183900
H1271	H127	0.920300	0.872700	0.016800
H1281	H128	0.053800	0.910400	0.029800
H1291	H129	0.904200	0.974200	0.940100
H1301	H130	0.165200	0.985100	0.977800
H1311	H131	0.128700	0.018900	0.918900
H1321	H132	0.945100	0.473000	0.906600
H1331	H133	0.082800	0.476200	0.930300
H1341	H134	0.881900	0.568400	0.967500
H1351	H135	0.016400	0.630100	0.032500
H1361	H136	0.130400	0.578000	0.012400
C11	C1	0.041900	0.242770	0.426120
C21	C2	0.952800	0.243440	0.467770
C31	C3	0.986600	0.250460	0.523140
C41	C4	0.114500	0.256260	0.536760
C51	C5	0.203500	0.257130	0.495160
C61	C6	0.884800	0.248560	0.566680
C71	C7	0.793600	0.189950	0.567530
C81	C8	0.699700	0.189760	0.607000
C91	C9	0.693800	0.248630	0.647910
C101	C10	0.785600	0.307120	0.647690
C111	C11	0.881000	0.307360	0.608140
C121	C12	0.263700	0.852710	0.774040
C131	C13	0.320000	0.914520	0.748570
C141	C14	0.380800	0.970290	0.778530
C151	C15	0.389300	0.962400	0.836580
C161	C16	0.336700	0.898120	0.861830
C171	C17	0.439400	0.039170	0.748680
C181	C18	0.566300	0.054880	0.756850
C191	C19	0.619100	0.123580	0.735450
C201	C20	0.544500	0.176430	0.706080
C211	C21	0.416800	0.160560	0.697990
C221	C22	0.364600	0.091740	0.719160
C231	C23	0.301600	0.588350	0.867680
C241	C24	0.352700	0.526030	0.844350
C251	C25	0.385400	0.523190	0.786290
C261	C26	0.357500	0.590580	0.755820
C271	C27	0.302800	0.653660	0.780400
C281	C28	0.446600	0.452120	0.761420
C291	C29	0.473300	0.381610	0.791960
C301	C30	0.522300	0.317280	0.767920
C311	C31	0.551400	0.317830	0.711630
C321	C32	0.526300	0.385040	0.679870
C331	C33	0.474900	0.451160	0.704880
C341	C34	0.487600	0.379990	0.413830
C351	C35	0.528900	0.419930	0.514070
C361	C36	0.518800	0.447370	0.451860
C371	C37	0.402900	0.505860	0.455500
C381	C38	0.494700	0.126930	0.417160
C391	C39	0.505500	0.982290	0.440100
C401	C40	0.527300	0.063760	0.460410
C411	C41	0.460300	0.078430	0.517930
C421	C42	0.541900	0.257230	0.073880
C431	C43	0.452800	0.256560	0.032230
C441	C44	0.486600	0.249540	0.976860
C451	C45	0.614500	0.243740	0.963240
C461	C46	0.703500	0.242870	0.004840
C471	C47	0.384800	0.251440	0.933320
C481	C48	0.293600	0.310050	0.932470
C491	C49	0.199700	0.310240	0.893000
C501	C50	0.193800	0.251370	0.852090
C511	C51	0.285600	0.192880	0.852310
C521	C52	0.381000	0.192640	0.891860
C531	C53	0.763700	0.647290	0.725960
C541	C54	0.820000	0.585480	0.751430
C551	C55	0.880800	0.529710	0.721470
C561	C56	0.889300	0.537600	0.663420
C571	C57	0.836700	0.601880	0.638170
C581	C58	0.939400	0.460830	0.751320
C591	C59	0.066300	0.445120	0.743150
C601	C60	0.119100	0.376420	0.764550
C611	C61	0.044500	0.323570	0.793920
C621	C62	0.916800	0.339440	0.802010
C631	C63	0.864600	0.408260	0.780840
C641	C64	0.801600	0.911650	0.632320
C651	C65	0.852700	0.973970	0.655650
C661	C66	0.885400	0.976810	0.713710
C671	C67	0.857500	0.909420	0.744180
C681	C68	0.802800	0.846340	0.719600
C691	C69	0.946600	0.047880	0.738580
C701	C70	0.973300	0.118390	0.708040
C711	C71	0.022300	0.182720	0.732080
C721	C72	0.051400	0.182170	0.788370
C731	C73	0.026300	0.114960	0.820130
C741	C74	0.974900	0.048840	0.795120
C751	C75	0.987600	0.120010	0.086170
C761	C76	0.028900	0.080070	0.985930
C771	C77	0.018800	0.052630	0.048140
C781	C78	0.902900	0.994140	0.044500
C791	C79	0.994700	0.373070	0.082840
C801	C80	0.005500	0.517710	0.059900
C811	C81	0.027300	0.436240	0.039590
C821	C82	0.960300	0.421570	0.982070
C831	C83	0.958100	0.757230	0.573880
C841	C84	0.047200	0.756560	0.532230
C851	C85	0.013400	0.749540	0.476860
C861	C86	0.885500	0.743740	0.463240
C871	C87	0.796500	0.742870	0.504840
C881	C88	0.115200	0.751440	0.433320
C891	C89	0.206400	0.810050	0.432470
C901	C90	0.300300	0.810240	0.393000
C911	C91	0.306200	0.751370	0.352090
C921	C92	0.214400	0.692880	0.352310
C931	C93	0.119000	0.692640	0.391860
C941	C94	0.736300	0.147290	0.225960
C951	C95	0.680000	0.085480	0.251430
C961	C96	0.619200	0.029710	0.221470
C971	C97	0.610700	0.037600	0.163420
C981	C98	0.663300	0.101880	0.138170
C991	C99	0.560600	0.960830	0.251320
C1001	C100	0.433700	0.945120	0.243150
C1011	C101	0.380900	0.876420	0.264550
C1021	C102	0.455500	0.823570	0.293920
C1031	C103	0.583200	0.839440	0.302010
C1041	C104	0.635400	0.908260	0.280840
C1051	C105	0.698400	0.411650	0.132320
C1061	C106	0.647300	0.473970	0.155650
C1071	C107	0.614600	0.476810	0.213710
C1081	C108	0.642500	0.409420	0.244180
C1091	C109	0.697200	0.346340	0.219600
C1101	C110	0.553400	0.547880	0.238580
C1111	C111	0.526700	0.618390	0.208040
C1121	C112	0.477700	0.682720	0.232080
C1131	C113	0.448600	0.682170	0.288370
C1141	C114	0.473700	0.614960	0.320130
C1151	C115	0.525100	0.548840	0.295120
C1161	C116	0.512400	0.620010	0.586170
C1171	C117	0.471100	0.580070	0.485930
C1181	C118	0.481200	0.552630	0.548140
C1191	C119	0.597100	0.494140	0.544500
C1201	C120	0.505300	0.873070	0.582840
C1211	C121	0.494500	0.017710	0.559900
C1221	C122	0.472700	0.936240	0.539590
C1231	C123	0.539700	0.921570	0.482070
C1241	C124	0.458100	0.742770	0.926120
C1251	C125	0.547200	0.743440	0.967770
C1261	C126	0.513400	0.750460	0.023140
C1271	C127	0.385500	0.756260	0.036760
C1281	C128	0.296500	0.757130	0.995160
C1291	C129	0.615200	0.748560	0.066680
C1301	C130	0.706400	0.689950	0.067530
C1311	C131	0.800300	0.689760	0.107000
C1321	C132	0.806200	0.748630	0.147910
C1331	C133	0.714400	0.807120	0.147690
C1341	C134	0.619000	0.807360	0.108140
C1351	C135	0.236300	0.352710	0.274040
C1361	C136	0.180000	0.414520	0.248570
C1371	C137	0.119200	0.470290	0.278530
C1381	C138	0.110700	0.462400	0.336580
C1391	C139	0.163300	0.398120	0.361830
C1401	C140	0.060600	0.539170	0.248680
C1411	C141	0.933700	0.554880	0.256850
C1421	C142	0.880900	0.623580	0.235450
C1431	C143	0.955500	0.676430	0.206080
C1441	C144	0.083200	0.660560	0.197990
C1451	C145	0.135400	0.591740	0.219160
C1461	C146	0.198400	0.088350	0.367680
C1471	C147	0.147300	0.026030	0.344350
C1481	C148	0.114600	0.023190	0.286290
C1491	C149	0.142500	0.090580	0.255820
C1501	C150	0.197200	0.153660	0.280400
C1511	C151	0.053400	0.952120	0.261420
C1521	C152	0.026700	0.881610	0.291960
C1531	C153	0.977700	0.817280	0.267920
C1541	C154	0.948600	0.817830	0.211630
C1551	C155	0.973700	0.885040	0.179870
C1561	C156	0.025100	0.951160	0.204880
C1571	C157	0.012400	0.879990	0.913830
C1581	C158	0.971100	0.919930	0.014070
C1591	C159	0.981200	0.947370	0.951860
C1601	C160	0.097100	0.005860	0.955500
C1611	C161	0.005300	0.626930	0.917160
C1621	C162	0.994500	0.482290	0.940100
C1631	C163	0.972700	0.563760	0.960410
C1641	C164	0.039700	0.578430	0.017930
N11	N1	0.169200	0.250800	0.439710
N21	N2	0.272900	0.841850	0.831000
N31	N3	0.273800	0.654680	0.836110
N41	N4	0.596200	0.247730	0.687310
N51	N5	0.669200	0.249200	0.060290
N61	N6	0.772900	0.658150	0.669000
N71	N7	0.773800	0.845320	0.663890
N81	N8	0.096200	0.252270	0.812690
N91	N9	0.830800	0.749200	0.560290
N101	N10	0.727100	0.158150	0.169000
N111	N11	0.726200	0.345320	0.163890
N121	N12	0.403800	0.752270	0.312690
N131	N13	0.330800	0.750800	0.939710
N141	N14	0.227100	0.341850	0.331000
N151	N15	0.226200	0.154680	0.336110
N161	N16	0.903800	0.747730	0.187310
O11	O1	0.396200	0.337360	0.424080
O21	O2	0.562600	0.370520	0.372950
O31	O3	0.402670	0.168810	0.427180
O41	O4	0.563670	0.129250	0.374610
O51	O5	0.896200	0.162640	0.075920
O61	O6	0.062600	0.129480	0.127050
O71	O7	0.902670	0.331190	0.072820
O81	O8	0.063670	0.370750	0.125390
O91	O9	0.603800	0.662640	0.575920
O101	O10	0.437400	0.629480	0.627050
O111	O11	0.597330	0.831190	0.572820
O121	O12	0.436330	0.870750	0.625390
O131	O13	0.103800	0.837360	0.924080
O141	O14	0.937400	0.870520	0.872950
O151	O15	0.097330	0.668810	0.927180
O161	O16	0.936330	0.629250	0.874610
