data_HEFFEF_clean_PM
_symmetry_space_group_name_H-M	'P1'
_cell_length_a	10.006000
_cell_length_b	18.340000
_cell_length_c	20.260000
_cell_angle_alpha	88.720000
_cell_angle_beta	83.460000
_cell_angle_gamma	86.860000
_symmetry_Int_Tables_number 1

loop_
_symmetry_equiv_pos_as_xyz
'x,y,z'

loop_
_atom_site_label
_atom_site_type_symbol
_atom_site_fract_x
_atom_site_fract_y
_atom_site_fract_z
Na11	Na1	0.892900	0.720800	0.879100
Cd11	Cd1	0.886660	0.547860	0.960640
Cd21	Cd2	0.389300	0.959800	0.454900
C11	C1	0.964000	0.597100	0.100700
C21	C2	0.957000	0.656400	0.153400
C31	C3	0.043200	0.651300	0.201500
H11	H1	0.106900	0.612400	0.201500
C41	C4	0.035600	0.704500	0.250700
H21	H2	0.092200	0.699000	0.284000
C51	C5	0.949900	0.762400	0.251100
C61	C6	0.862600	0.768100	0.201100
H31	H3	0.797900	0.806600	0.202600
C71	C7	0.869200	0.718400	0.149700
H41	H4	0.817800	0.726000	0.114500
C81	C8	0.934600	0.820700	0.304300
C91	C9	0.811300	0.849200	0.330400
H51	H5	0.733900	0.835100	0.313800
C101	C10	0.800300	0.899700	0.382400
C111	C11	0.916300	0.924100	0.404000
H61	H6	0.911000	0.959600	0.436300
C121	C12	0.039300	0.894900	0.377000
C131	C13	0.050800	0.840200	0.330300
H71	H7	0.134000	0.816900	0.316700
C141	C14	0.168700	0.912100	0.400700
C151	C15	0.666900	0.930500	0.411800
C161	C16	0.482700	0.893300	0.585200
C171	C17	0.463000	0.837800	0.644800
C181	C18	0.387000	0.776200	0.636400
H81	H8	0.350300	0.769200	0.597000
C191	C19	0.368400	0.723800	0.692500
H91	H9	0.315900	0.683600	0.691700
C201	C20	0.432700	0.738500	0.744900
C211	C21	0.502800	0.797100	0.752300
H101	H10	0.535400	0.804500	0.792700
C221	C22	0.529500	0.850500	0.697100
H111	H11	0.586300	0.888900	0.698500
C231	C23	0.419900	0.681200	0.800100
C241	C24	0.293100	0.654000	0.822700
H121	H12	0.218800	0.664600	0.799800
C251	C25	0.282000	0.609000	0.882900
C261	C26	0.393900	0.587200	0.910200
H131	H13	0.387100	0.554100	0.945800
C271	C27	0.520300	0.612500	0.887100
C281	C28	0.529600	0.660100	0.830900
H141	H14	0.613000	0.677200	0.814600
C291	C29	0.650000	0.583600	0.916500
C301	C30	0.148000	0.584400	0.913000
O11	O1	0.650900	0.533700	0.948100
O21	O2	0.743500	0.629500	0.912600
O31	O3	0.138800	0.548000	0.964100
O41	O4	0.042000	0.608200	0.887700
O51	O5	0.405200	0.888200	0.541100
O61	O6	0.578200	0.930900	0.592800
O71	O7	0.169200	0.965000	0.441500
O81	O8	0.279200	0.889400	0.381500
O91	O9	0.675000	0.966500	0.457900
O101	O10	0.567600	0.908700	0.395600
O111	O11	0.887800	0.611900	0.053600
O121	O12	0.054100	0.549100	0.103000
Na21	Na2	0.107100	0.279200	0.120900
Cd31	Cd3	0.113340	0.452140	0.039360
Cd41	Cd4	0.610700	0.040200	0.545100
C311	C31	0.036000	0.402900	0.899300
C321	C32	0.043000	0.343600	0.846600
C331	C33	0.956800	0.348700	0.798500
H151	H15	0.893100	0.387600	0.798500
C341	C34	0.964400	0.295500	0.749300
H161	H16	0.907800	0.301000	0.716000
C351	C35	0.050100	0.237600	0.748900
C361	C36	0.137400	0.231900	0.798900
H171	H17	0.202100	0.193400	0.797400
C371	C37	0.130800	0.281600	0.850300
H181	H18	0.182200	0.274000	0.885500
C381	C38	0.065400	0.179300	0.695700
C391	C39	0.188700	0.150800	0.669600
H191	H19	0.266100	0.164900	0.686200
C401	C40	0.199700	0.100300	0.617600
C411	C41	0.083700	0.075900	0.596000
H201	H20	0.089000	0.040400	0.563700
C421	C42	0.960700	0.105100	0.623000
C431	C43	0.949200	0.159800	0.669700
H211	H21	0.866000	0.183100	0.683300
C441	C44	0.831300	0.087900	0.599300
C451	C45	0.333100	0.069500	0.588200
C461	C46	0.517300	0.106700	0.414800
C471	C47	0.537000	0.162200	0.355200
C481	C48	0.613000	0.223800	0.363600
H221	H22	0.649700	0.230800	0.403000
C491	C49	0.631600	0.276200	0.307500
H231	H23	0.684100	0.316400	0.308300
C501	C50	0.567300	0.261500	0.255100
C511	C51	0.497200	0.202900	0.247700
H241	H24	0.464600	0.195500	0.207300
C521	C52	0.470500	0.149500	0.302900
H251	H25	0.413700	0.111100	0.301500
C531	C53	0.580100	0.318800	0.199900
C541	C54	0.706900	0.346000	0.177300
H261	H26	0.781200	0.335400	0.200200
C551	C55	0.718000	0.391000	0.117100
C561	C56	0.606100	0.412800	0.089800
H271	H27	0.612900	0.445900	0.054200
C571	C57	0.479700	0.387500	0.112900
C581	C58	0.470400	0.339900	0.169100
H281	H28	0.387000	0.322800	0.185400
C591	C59	0.350000	0.416400	0.083500
C601	C60	0.852000	0.415600	0.087000
O131	O13	0.349100	0.466300	0.051900
O141	O14	0.256500	0.370500	0.087400
O151	O15	0.861200	0.452000	0.035900
O161	O16	0.958000	0.391800	0.112300
O171	O17	0.594800	0.111800	0.458900
O181	O18	0.421800	0.069100	0.407200
O191	O19	0.830800	0.035000	0.558500
O201	O20	0.720800	0.110600	0.618500
O211	O21	0.325000	0.033500	0.542100
O221	O22	0.432400	0.091300	0.604400
O231	O23	0.112200	0.388100	0.946400
O241	O24	0.945900	0.450900	0.897000
Cd51	Cd5	0.915680	0.969220	0.018450
Cl11	Cl1	0.729500	0.882300	0.052500
N11	N1	0.900200	0.083500	0.060600
N21	N2	0.901900	0.036200	0.921900
N31	N3	0.001400	0.106600	0.367400
N41	N4	0.540000	0.336700	0.923200
C611	C61	0.466500	0.400100	0.897600
H291	H29	0.428300	0.386900	0.858500
H301	H30	0.527100	0.438500	0.886700
H311	H31	0.395800	0.416700	0.930800
C621	C62	0.661800	0.342700	0.933500
H321	H32	0.696100	0.388900	0.928700
C631	C63	0.752700	0.282000	0.952400
H331	H33	0.838400	0.290100	0.963400
C641	C64	0.707500	0.215200	0.953300
C651	C65	0.556800	0.211900	0.951700
H341	H34	0.509800	0.171000	0.965800
C661	C66	0.497000	0.272500	0.928400
H351	H35	0.413100	0.267100	0.914100
C671	C67	0.786600	0.146400	0.972600
C681	C68	0.819400	0.136600	0.039400
C691	C69	0.773500	0.188600	0.091900
H361	H36	0.719600	0.231300	0.089200
C701	C70	0.829300	0.159400	0.146400
H371	H37	0.815500	0.178100	0.189000
C711	C71	0.912300	0.095500	0.126600
C721	C72	0.824200	0.103700	0.916100
C731	C73	0.794600	0.116800	0.848900
H381	H38	0.743000	0.156200	0.833900
C741	C74	0.854800	0.062200	0.811700
H391	H39	0.852500	0.057400	0.766300
C751	C75	0.924400	0.011700	0.854200
C761	C76	0.993600	0.049300	0.164800
C771	C77	0.994200	0.070300	0.237300
C781	C78	0.879400	0.077800	0.280500
H401	H40	0.796300	0.070900	0.265800
C791	C79	0.886200	0.095800	0.346000
H411	H41	0.807500	0.100200	0.375200
C801	C80	0.122100	0.081500	0.261300
H421	H42	0.203400	0.074200	0.234500
C811	C81	0.116400	0.103500	0.325100
H431	H43	0.195300	0.117100	0.340500
C821	C82	0.011000	0.128500	0.437600
H441	H44	0.930700	0.156700	0.453900
H451	H45	0.020100	0.085600	0.465000
H461	H46	0.087800	0.157300	0.438800
Cd61	Cd6	0.084320	0.030780	0.981550
Cl21	Cl2	0.270500	0.117700	0.947500
N51	N5	0.099800	0.916500	0.939400
N61	N6	0.098100	0.963800	0.078100
N71	N7	0.998600	0.893400	0.632600
N81	N8	0.460000	0.663300	0.076800
C831	C83	0.533500	0.599900	0.102400
H471	H47	0.571700	0.613100	0.141500
H481	H48	0.472900	0.561500	0.113300
H491	H49	0.604200	0.583300	0.069200
C841	C84	0.338200	0.657300	0.066500
H501	H50	0.303900	0.611100	0.071300
C851	C85	0.247300	0.718000	0.047600
H511	H51	0.161600	0.709900	0.036600
C861	C86	0.292500	0.784800	0.046700
C871	C87	0.443200	0.788100	0.048300
H521	H52	0.490200	0.829000	0.034200
C881	C88	0.503000	0.727500	0.071600
H531	H53	0.586900	0.732900	0.085900
C891	C89	0.213400	0.853600	0.027400
C901	C90	0.180600	0.863400	0.960600
C911	C91	0.226500	0.811400	0.908100
H541	H54	0.280400	0.768700	0.910800
C921	C92	0.170700	0.840600	0.853600
H551	H55	0.184500	0.821900	0.811000
C931	C93	0.087700	0.904500	0.873400
C941	C94	0.175800	0.896300	0.083900
C951	C95	0.205400	0.883200	0.151100
H561	H56	0.257000	0.843800	0.166100
C961	C96	0.145200	0.937800	0.188300
H571	H57	0.147500	0.942600	0.233700
C971	C97	0.075600	0.988300	0.145800
C981	C98	0.006400	0.950700	0.835200
C991	C99	0.005800	0.929700	0.762700
C1001	C100	0.120600	0.922200	0.719500
H581	H58	0.203700	0.929100	0.734200
C1011	C101	0.113800	0.904200	0.654000
H591	H59	0.192500	0.899800	0.624800
C1021	C102	0.877900	0.918500	0.738700
H601	H60	0.796600	0.925800	0.765500
C1031	C103	0.883600	0.896500	0.674900
H611	H61	0.804700	0.882900	0.659500
C1041	C104	0.989000	0.871500	0.562400
H621	H62	0.069300	0.843300	0.546100
H631	H63	0.979900	0.914400	0.535000
H641	H64	0.912200	0.842700	0.561200
