data_HEGNOX_clean_PM
_symmetry_space_group_name_H-M	'P1'
_cell_length_a	23.689900
_cell_length_b	23.689900
_cell_length_c	13.548300
_cell_angle_alpha	90.000000
_cell_angle_beta	90.000000
_cell_angle_gamma	120.000000
_symmetry_Int_Tables_number 1

loop_
_symmetry_equiv_pos_as_xyz
'x,y,z'

loop_
_atom_site_label
_atom_site_type_symbol
_atom_site_fract_x
_atom_site_fract_y
_atom_site_fract_z
Zn11	Zn1	0.361750	0.092740	0.119310
Ga11	Ga1	0.350150	0.243820	0.917020
P11	P1	0.419390	0.236760	0.122170
P21	P2	0.326620	0.986130	0.276170
O11	O1	0.370220	0.212170	0.037600
O21	O2	0.423630	0.176770	0.158100
O31	O3	0.391350	0.259750	0.207500
O41	O4	0.485770	0.291140	0.094300
O51	O5	0.376210	0.044090	0.213200
O61	O6	0.364570	0.955400	0.323400
O71	O7	0.270950	0.935890	0.215500
O81	O8	0.299830	0.009550	0.359400
N11	N1	0.444700	0.277400	0.867900
N21	N2	0.333400	0.157500	0.852700
N31	N3	0.251600	0.188800	0.944100
C11	C1	0.448200	0.221300	0.828600
C21	C2	0.385600	0.174500	0.779300
C31	C3	0.265600	0.123000	0.818500
C41	C4	0.225100	0.121400	0.906100
H11	H1	0.466900	0.291300	0.922000
H21	H2	0.449700	0.302800	0.822500
H31	H3	0.338200	0.130700	0.900100
H41	H4	0.236700	0.208300	0.913400
H51	H5	0.245000	0.191900	0.011100
H61	H6	0.455900	0.195200	0.883900
H71	H7	0.474400	0.226600	0.788300
H81	H8	0.384900	0.132100	0.744400
H91	H9	0.374000	0.194600	0.725800
H101	H10	0.234300	0.071600	0.801100
H111	H11	0.269500	0.153200	0.757300
H121	H12	0.180300	0.101900	0.866300
H131	H13	0.227300	0.094000	0.968200
Ga21	Ga2	0.304920	0.240590	0.214020
Zn21	Zn2	0.028420	0.426070	0.452640
Ga31	Ga3	0.016820	0.577150	0.250350
P31	P3	0.086060	0.570090	0.455500
P41	P4	0.993290	0.319460	0.609500
O91	O9	0.036890	0.545500	0.370930
O101	O10	0.090300	0.510100	0.491430
O111	O11	0.058020	0.593080	0.540830
O121	O12	0.152440	0.624470	0.427630
O131	O13	0.042880	0.377420	0.546530
O141	O14	0.031240	0.288730	0.656730
O151	O15	0.937620	0.269220	0.548830
O161	O16	0.966500	0.342880	0.692730
N41	N4	0.111370	0.610730	0.201230
N51	N5	0.000070	0.490830	0.186030
N61	N6	0.918270	0.522130	0.277430
C51	C5	0.114870	0.554630	0.161930
C61	C6	0.052270	0.507830	0.112630
C71	C7	0.932270	0.456330	0.151830
C81	C8	0.891770	0.454730	0.239430
H141	H14	0.133570	0.624630	0.255330
H151	H15	0.116370	0.636130	0.155830
H161	H16	0.004870	0.464030	0.233430
H171	H17	0.903370	0.541630	0.246730
H181	H18	0.911670	0.525230	0.344430
H191	H19	0.122570	0.528530	0.217230
H201	H20	0.141070	0.559930	0.121630
H211	H21	0.051570	0.465430	0.077730
H221	H22	0.040670	0.527930	0.059130
H231	H23	0.900970	0.404930	0.134430
H241	H24	0.936170	0.486530	0.090630
H251	H25	0.846970	0.435230	0.199630
H261	H26	0.893970	0.427330	0.301530
Ga41	Ga4	0.971580	0.573930	0.547360
Zn31	Zn3	0.695080	0.759410	0.785980
Ga51	Ga5	0.683480	0.910490	0.583690
P51	P5	0.752720	0.903430	0.788840
P61	P6	0.659950	0.652800	0.942840
O171	O17	0.703550	0.878840	0.704270
O181	O18	0.756960	0.843440	0.824770
O191	O19	0.724680	0.926420	0.874170
O201	O20	0.819100	0.957810	0.760970
O211	O21	0.709540	0.710760	0.879870
O221	O22	0.697900	0.622070	0.990070
O231	O23	0.604280	0.602560	0.882170
O241	O24	0.633160	0.676220	0.026070
N71	N7	0.778030	0.944070	0.534570
N81	N8	0.666730	0.824170	0.519370
N91	N9	0.584930	0.855470	0.610770
C91	C9	0.781530	0.887970	0.495270
C101	C10	0.718930	0.841170	0.445970
C111	C11	0.598930	0.789670	0.485170
C121	C12	0.558430	0.788070	0.572770
H271	H27	0.800230	0.957970	0.588670
H281	H28	0.783030	0.969470	0.489170
H291	H29	0.671530	0.797370	0.566770
H301	H30	0.570030	0.874970	0.580070
H311	H31	0.578330	0.858570	0.677770
H321	H32	0.789230	0.861870	0.550570
H331	H33	0.807730	0.893270	0.454970
H341	H34	0.718230	0.798770	0.411070
H351	H35	0.707330	0.861270	0.392470
H361	H36	0.567630	0.738270	0.467770
H371	H37	0.602830	0.819870	0.423970
H381	H38	0.513630	0.768570	0.532970
H391	H39	0.560630	0.760670	0.634870
Ga61	Ga6	0.638250	0.907260	0.880690
Zn41	Zn4	0.907260	0.269010	0.119310
Ga71	Ga7	0.756180	0.106330	0.917020
P71	P7	0.763240	0.182630	0.122170
P81	P8	0.013870	0.340490	0.276170
O251	O25	0.787830	0.158050	0.037600
O261	O26	0.823230	0.246860	0.158100
O271	O27	0.740250	0.131600	0.207500
O281	O28	0.708860	0.194630	0.094300
O291	O29	0.955910	0.332120	0.213200
O301	O30	0.044600	0.409170	0.323400
O311	O31	0.064110	0.335060	0.215500
O321	O32	0.990450	0.290280	0.359400
N101	N10	0.722600	0.167300	0.867900
N111	N11	0.842500	0.175900	0.852700
N121	N12	0.811200	0.062800	0.944100
C131	C13	0.778700	0.226900	0.828600
C141	C14	0.825500	0.211100	0.779300
C151	C15	0.877000	0.142600	0.818500
C161	C16	0.878600	0.103700	0.906100
H401	H40	0.708700	0.175600	0.922000
H411	H41	0.697200	0.146900	0.822500
H421	H42	0.869300	0.207500	0.900100
H431	H43	0.791700	0.028400	0.913400
H441	H44	0.808100	0.053100	0.011100
H451	H45	0.804800	0.260700	0.883900
H461	H46	0.773400	0.247800	0.788300
H471	H47	0.867900	0.252800	0.744400
H481	H48	0.805400	0.179400	0.725800
H491	H49	0.928400	0.162700	0.801100
H501	H50	0.846800	0.116300	0.757300
H511	H51	0.898100	0.078400	0.866300
H521	H52	0.906000	0.133300	0.968200
Ga81	Ga8	0.759410	0.064320	0.214020
Zn51	Zn5	0.573930	0.602340	0.452640
Ga91	Ga9	0.422850	0.439660	0.250350
P91	P9	0.429910	0.515960	0.455500
P101	P10	0.680540	0.673820	0.609500
O331	O33	0.454500	0.491380	0.370930
O341	O34	0.489900	0.580190	0.491430
O351	O35	0.406920	0.464930	0.540830
O361	O36	0.375530	0.527960	0.427630
O371	O37	0.622580	0.665450	0.546530
O381	O38	0.711270	0.742500	0.656730
O391	O39	0.730780	0.668390	0.548830
O401	O40	0.657120	0.623610	0.692730
N131	N13	0.389270	0.500630	0.201230
N141	N14	0.509170	0.509230	0.186030
N151	N15	0.477870	0.396130	0.277430
C171	C17	0.445370	0.560230	0.161930
C181	C18	0.492170	0.544430	0.112630
C191	C19	0.543670	0.475930	0.151830
C201	C20	0.545270	0.437030	0.239430
H531	H53	0.375370	0.508930	0.255330
H541	H54	0.363870	0.480230	0.155830
H551	H55	0.535970	0.540830	0.233430
H561	H56	0.458370	0.361730	0.246730
H571	H57	0.474770	0.386430	0.344430
H581	H58	0.471470	0.594030	0.217230
H591	H59	0.440070	0.581130	0.121630
H601	H60	0.534570	0.586130	0.077730
H611	H61	0.472070	0.512730	0.059130
H621	H62	0.595070	0.496030	0.134430
H631	H63	0.513470	0.449630	0.090630
H641	H64	0.564770	0.411730	0.199630
H651	H65	0.572670	0.466630	0.301530
Ga101	Ga10	0.426070	0.397660	0.547360
Zn61	Zn6	0.240590	0.935680	0.785980
Ga111	Ga11	0.089510	0.773000	0.583690
P111	P11	0.096570	0.849300	0.788840
P121	P12	0.347200	0.007160	0.942840
O411	O41	0.121160	0.824720	0.704270
O421	O42	0.156560	0.913530	0.824770
O431	O43	0.073580	0.798270	0.874170
O441	O44	0.042190	0.861300	0.760970
O451	O45	0.289240	0.998790	0.879870
O461	O46	0.377930	0.075840	0.990070
O471	O47	0.397440	0.001730	0.882170
O481	O48	0.323780	0.956950	0.026070
N161	N16	0.055930	0.833970	0.534570
N171	N17	0.175830	0.842570	0.519370
N181	N18	0.144530	0.729470	0.610770
C211	C21	0.112030	0.893570	0.495270
C221	C22	0.158830	0.877770	0.445970
C231	C23	0.210330	0.809270	0.485170
C241	C24	0.211930	0.770370	0.572770
H661	H66	0.042030	0.842270	0.588670
H671	H67	0.030530	0.813570	0.489170
H681	H68	0.202630	0.874170	0.566770
H691	H69	0.125030	0.695070	0.580070
H701	H70	0.141430	0.719770	0.677770
H711	H71	0.138130	0.927370	0.550570
H721	H72	0.106730	0.914470	0.454970
H731	H73	0.201230	0.919470	0.411070
H741	H74	0.138730	0.846070	0.392470
H751	H75	0.261730	0.829370	0.467770
H761	H76	0.180130	0.782970	0.423970
H771	H77	0.231430	0.745070	0.532970
H781	H78	0.239330	0.799970	0.634870
Ga121	Ga12	0.092740	0.730990	0.880690
Zn71	Zn7	0.730990	0.638250	0.119310
Ga131	Ga13	0.893670	0.649850	0.917020
P131	P13	0.817370	0.580610	0.122170
P141	P14	0.659510	0.673380	0.276170
O491	O49	0.841950	0.629780	0.037600
O501	O50	0.753140	0.576370	0.158100
O511	O51	0.868400	0.608650	0.207500
O521	O52	0.805370	0.514230	0.094300
O531	O53	0.667880	0.623790	0.213200
O541	O54	0.590830	0.635430	0.323400
O551	O55	0.664940	0.729050	0.215500
O561	O56	0.709720	0.700170	0.359400
N191	N19	0.832700	0.555300	0.867900
N201	N20	0.824100	0.666600	0.852700
N211	N21	0.937200	0.748400	0.944100
C251	C25	0.773100	0.551800	0.828600
C261	C26	0.788900	0.614400	0.779300
C271	C27	0.857400	0.734400	0.818500
C281	C28	0.896300	0.774900	0.906100
H791	H79	0.824400	0.533100	0.922000
H801	H80	0.853100	0.550300	0.822500
H811	H81	0.792500	0.661800	0.900100
H821	H82	0.971600	0.763300	0.913400
H831	H83	0.946900	0.755000	0.011100
H841	H84	0.739300	0.544100	0.883900
H851	H85	0.752200	0.525600	0.788300
H861	H86	0.747200	0.615100	0.744400
H871	H87	0.820600	0.626000	0.725800
H881	H88	0.837300	0.765700	0.801100
H891	H89	0.883700	0.730500	0.757300
H901	H90	0.921600	0.819700	0.866300
H911	H91	0.866700	0.772700	0.968200
Ga141	Ga14	0.935680	0.695080	0.214020
Zn81	Zn8	0.397660	0.971580	0.452640
Ga151	Ga15	0.560340	0.983180	0.250350
P151	P15	0.484040	0.913940	0.455500
P161	P16	0.326180	0.006710	0.609500
O571	O57	0.508620	0.963110	0.370930
O581	O58	0.419810	0.909700	0.491430
O591	O59	0.535070	0.941980	0.540830
O601	O60	0.472040	0.847560	0.427630
O611	O61	0.334550	0.957120	0.546530
O621	O62	0.257500	0.968760	0.656730
O631	O63	0.331610	0.062380	0.548830
O641	O64	0.376390	0.033500	0.692730
N221	N22	0.499370	0.888630	0.201230
N231	N23	0.490770	0.999930	0.186030
N241	N24	0.603870	0.081730	0.277430
C291	C29	0.439770	0.885130	0.161930
C301	C30	0.455570	0.947730	0.112630
C311	C31	0.524070	0.067730	0.151830
C321	C32	0.562970	0.108230	0.239430
H921	H92	0.491070	0.866430	0.255330
H931	H93	0.519770	0.883630	0.155830
H941	H94	0.459170	0.995130	0.233430
H951	H95	0.638270	0.096630	0.246730
H961	H96	0.613570	0.088330	0.344430
H971	H97	0.405970	0.877430	0.217230
H981	H98	0.418870	0.858930	0.121630
H991	H99	0.413870	0.948430	0.077730
H1001	H100	0.487270	0.959330	0.059130
H1011	H101	0.503970	0.099030	0.134430
H1021	H102	0.550370	0.063830	0.090630
H1031	H103	0.588270	0.153030	0.199630
H1041	H104	0.533370	0.106030	0.301530
Ga161	Ga16	0.602340	0.028420	0.547360
Zn91	Zn9	0.064320	0.304920	0.785980
Ga171	Ga17	0.227000	0.316520	0.583690
P171	P17	0.150700	0.247280	0.788840
P181	P18	0.992840	0.340050	0.942840
O651	O65	0.175280	0.296450	0.704270
O661	O66	0.086470	0.243040	0.824770
O671	O67	0.201730	0.275320	0.874170
O681	O68	0.138700	0.180900	0.760970
O691	O69	0.001210	0.290460	0.879870
O701	O70	0.924160	0.302100	0.990070
O711	O71	0.998270	0.395720	0.882170
O721	O72	0.043050	0.366840	0.026070
N251	N25	0.166030	0.221970	0.534570
N261	N26	0.157430	0.333270	0.519370
N271	N27	0.270530	0.415070	0.610770
C331	C33	0.106430	0.218470	0.495270
C341	C34	0.122230	0.281070	0.445970
C351	C35	0.190730	0.401070	0.485170
C361	C36	0.229630	0.441570	0.572770
H1051	H105	0.157730	0.199770	0.588670
H1061	H106	0.186430	0.216970	0.489170
H1071	H107	0.125830	0.328470	0.566770
H1081	H108	0.304930	0.429970	0.580070
H1091	H109	0.280230	0.421670	0.677770
H1101	H110	0.072630	0.210770	0.550570
H1111	H111	0.085530	0.192270	0.454970
H1121	H112	0.080530	0.281770	0.411070
H1131	H113	0.153930	0.292670	0.392470
H1141	H114	0.170630	0.432370	0.467770
H1151	H115	0.217030	0.397170	0.423970
H1161	H116	0.254930	0.486370	0.532970
H1171	H117	0.200030	0.439370	0.634870
Ga181	Ga18	0.269010	0.361750	0.880690
Ga191	Ga19	0.649850	0.756180	0.082980
P191	P19	0.580610	0.763240	0.877830
P201	P20	0.673380	0.013870	0.723830
O731	O73	0.629780	0.787830	0.962400
O741	O74	0.576370	0.823230	0.841900
O751	O75	0.608650	0.740250	0.792500
O761	O76	0.514230	0.708860	0.905700
O771	O77	0.623790	0.955910	0.786800
O781	O78	0.635430	0.044600	0.676600
O791	O79	0.729050	0.064110	0.784500
O801	O80	0.700170	0.990450	0.640600
N281	N28	0.555300	0.722600	0.132100
N291	N29	0.666600	0.842500	0.147300
N301	N30	0.748400	0.811200	0.055900
C371	C37	0.551800	0.778700	0.171400
C381	C38	0.614400	0.825500	0.220700
C391	C39	0.734400	0.877000	0.181500
C401	C40	0.774900	0.878600	0.093900
H1181	H118	0.533100	0.708700	0.078000
H1191	H119	0.550300	0.697200	0.177500
H1201	H120	0.661800	0.869300	0.099900
H1211	H121	0.763300	0.791700	0.086600
H1221	H122	0.755000	0.808100	0.988900
H1231	H123	0.544100	0.804800	0.116100
H1241	H124	0.525600	0.773400	0.211700
H1251	H125	0.615100	0.867900	0.255600
H1261	H126	0.626000	0.805400	0.274200
H1271	H127	0.765700	0.928400	0.198900
H1281	H128	0.730500	0.846800	0.242700
H1291	H129	0.819700	0.898100	0.133700
H1301	H130	0.772700	0.906000	0.031800
Ga201	Ga20	0.316520	0.089510	0.416310
P211	P21	0.247280	0.096570	0.211160
P221	P22	0.340050	0.347200	0.057160
O811	O81	0.296450	0.121160	0.295730
O821	O82	0.243040	0.156560	0.175230
O831	O83	0.275320	0.073580	0.125830
O841	O84	0.180900	0.042190	0.239030
O851	O85	0.290460	0.289240	0.120130
O861	O86	0.302100	0.377930	0.009930
O871	O87	0.395720	0.397440	0.117830
O881	O88	0.366840	0.323780	0.973930
N311	N31	0.221970	0.055930	0.465430
N321	N32	0.333270	0.175830	0.480630
N331	N33	0.415070	0.144530	0.389230
C411	C41	0.218470	0.112030	0.504730
C421	C42	0.281070	0.158830	0.554030
C431	C43	0.401070	0.210330	0.514830
C441	C44	0.441570	0.211930	0.427230
H1311	H131	0.199770	0.042030	0.411330
H1321	H132	0.216970	0.030530	0.510830
H1331	H133	0.328470	0.202630	0.433230
H1341	H134	0.429970	0.125030	0.419930
H1351	H135	0.421670	0.141430	0.322230
H1361	H136	0.210770	0.138130	0.449430
H1371	H137	0.192270	0.106730	0.545030
H1381	H138	0.281770	0.201230	0.588930
H1391	H139	0.292670	0.138730	0.607530
H1401	H140	0.432370	0.261730	0.532230
H1411	H141	0.397170	0.180130	0.576030
H1421	H142	0.486370	0.231430	0.467030
H1431	H143	0.439370	0.239330	0.365130
Ga211	Ga21	0.983180	0.422850	0.749650
P231	P23	0.913940	0.429910	0.544500
P241	P24	0.006710	0.680540	0.390500
O891	O89	0.963110	0.454500	0.629070
O901	O90	0.909700	0.489900	0.508570
O911	O91	0.941980	0.406920	0.459170
O921	O92	0.847560	0.375530	0.572370
O931	O93	0.957120	0.622580	0.453470
O941	O94	0.968760	0.711270	0.343270
O951	O95	0.062380	0.730780	0.451170
O961	O96	0.033500	0.657120	0.307270
N341	N34	0.888630	0.389270	0.798770
N351	N35	0.999930	0.509170	0.813970
N361	N36	0.081730	0.477870	0.722570
C451	C45	0.885130	0.445370	0.838070
C461	C46	0.947730	0.492170	0.887370
C471	C47	0.067730	0.543670	0.848170
C481	C48	0.108230	0.545270	0.760570
H1441	H144	0.866430	0.375370	0.744670
H1451	H145	0.883630	0.363870	0.844170
H1461	H146	0.995130	0.535970	0.766570
H1471	H147	0.096630	0.458370	0.753270
H1481	H148	0.088330	0.474770	0.655570
H1491	H149	0.877430	0.471470	0.782770
H1501	H150	0.858930	0.440070	0.878370
H1511	H151	0.948430	0.534570	0.922270
H1521	H152	0.959330	0.472070	0.940870
H1531	H153	0.099030	0.595070	0.865570
H1541	H154	0.063830	0.513470	0.909370
H1551	H155	0.153030	0.564770	0.800370
H1561	H156	0.106030	0.572670	0.698470
Ga221	Ga22	0.243820	0.893670	0.082980
P251	P25	0.236760	0.817370	0.877830
P261	P26	0.986130	0.659510	0.723830
O971	O97	0.212170	0.841950	0.962400
O981	O98	0.176770	0.753140	0.841900
O991	O99	0.259750	0.868400	0.792500
O1001	O100	0.291140	0.805370	0.905700
O1011	O101	0.044090	0.667880	0.786800
O1021	O102	0.955400	0.590830	0.676600
O1031	O103	0.935890	0.664940	0.784500
O1041	O104	0.009550	0.709720	0.640600
N371	N37	0.277400	0.832700	0.132100
N381	N38	0.157500	0.824100	0.147300
N391	N39	0.188800	0.937200	0.055900
C491	C49	0.221300	0.773100	0.171400
C501	C50	0.174500	0.788900	0.220700
C511	C51	0.123000	0.857400	0.181500
C521	C52	0.121400	0.896300	0.093900
H1571	H157	0.291300	0.824400	0.078000
H1581	H158	0.302800	0.853100	0.177500
H1591	H159	0.130700	0.792500	0.099900
H1601	H160	0.208300	0.971600	0.086600
H1611	H161	0.191900	0.946900	0.988900
H1621	H162	0.195200	0.739300	0.116100
H1631	H163	0.226600	0.752200	0.211700
H1641	H164	0.132100	0.747200	0.255600
H1651	H165	0.194600	0.820600	0.274200
H1661	H166	0.071600	0.837300	0.198900
H1671	H167	0.153200	0.883700	0.242700
H1681	H168	0.101900	0.921600	0.133700
H1691	H169	0.094000	0.866700	0.031800
Ga231	Ga23	0.910490	0.227000	0.416310
P271	P27	0.903430	0.150700	0.211160
P281	P28	0.652800	0.992840	0.057160
O1051	O105	0.878840	0.175280	0.295730
O1061	O106	0.843440	0.086470	0.175230
O1071	O107	0.926420	0.201730	0.125830
O1081	O108	0.957810	0.138700	0.239030
O1091	O109	0.710760	0.001210	0.120130
O1101	O110	0.622070	0.924160	0.009930
O1111	O111	0.602560	0.998270	0.117830
O1121	O112	0.676220	0.043050	0.973930
N401	N40	0.944070	0.166030	0.465430
N411	N41	0.824170	0.157430	0.480630
N421	N42	0.855470	0.270530	0.389230
C531	C53	0.887970	0.106430	0.504730
C541	C54	0.841170	0.122230	0.554030
C551	C55	0.789670	0.190730	0.514830
C561	C56	0.788070	0.229630	0.427230
H1701	H170	0.957970	0.157730	0.411330
H1711	H171	0.969470	0.186430	0.510830
H1721	H172	0.797370	0.125830	0.433230
H1731	H173	0.874970	0.304930	0.419930
H1741	H174	0.858570	0.280230	0.322230
H1751	H175	0.861870	0.072630	0.449430
H1761	H176	0.893270	0.085530	0.545030
H1771	H177	0.798770	0.080530	0.588930
H1781	H178	0.861270	0.153930	0.607530
H1791	H179	0.738270	0.170630	0.532230
H1801	H180	0.819870	0.217030	0.576030
H1811	H181	0.768570	0.254930	0.467030
H1821	H182	0.760670	0.200030	0.365130
Ga241	Ga24	0.577150	0.560340	0.749650
P291	P29	0.570090	0.484040	0.544500
P301	P30	0.319460	0.326180	0.390500
O1131	O113	0.545500	0.508620	0.629070
O1141	O114	0.510100	0.419810	0.508570
O1151	O115	0.593080	0.535070	0.459170
O1161	O116	0.624470	0.472040	0.572370
O1171	O117	0.377420	0.334550	0.453470
O1181	O118	0.288730	0.257500	0.343270
O1191	O119	0.269220	0.331610	0.451170
O1201	O120	0.342880	0.376390	0.307270
N431	N43	0.610730	0.499370	0.798770
N441	N44	0.490830	0.490770	0.813970
N451	N45	0.522130	0.603870	0.722570
C571	C57	0.554630	0.439770	0.838070
C581	C58	0.507830	0.455570	0.887370
C591	C59	0.456330	0.524070	0.848170
C601	C60	0.454730	0.562970	0.760570
H1831	H183	0.624630	0.491070	0.744670
H1841	H184	0.636130	0.519770	0.844170
H1851	H185	0.464030	0.459170	0.766570
H1861	H186	0.541630	0.638270	0.753270
H1871	H187	0.525230	0.613570	0.655570
H1881	H188	0.528530	0.405970	0.782770
H1891	H189	0.559930	0.418870	0.878370
H1901	H190	0.465430	0.413870	0.922270
H1911	H191	0.527930	0.487270	0.940870
H1921	H192	0.404930	0.503970	0.865570
H1931	H193	0.486530	0.550370	0.909370
H1941	H194	0.435230	0.588270	0.800370
H1951	H195	0.427330	0.533370	0.698470
Ga251	Ga25	0.106330	0.350150	0.082980
P311	P31	0.182630	0.419390	0.877830
P321	P32	0.340490	0.326620	0.723830
O1211	O121	0.158050	0.370220	0.962400
O1221	O122	0.246860	0.423630	0.841900
O1231	O123	0.131600	0.391350	0.792500
O1241	O124	0.194630	0.485770	0.905700
O1251	O125	0.332120	0.376210	0.786800
O1261	O126	0.409170	0.364570	0.676600
O1271	O127	0.335060	0.270950	0.784500
O1281	O128	0.290280	0.299830	0.640600
N461	N46	0.167300	0.444700	0.132100
N471	N47	0.175900	0.333400	0.147300
N481	N48	0.062800	0.251600	0.055900
C611	C61	0.226900	0.448200	0.171400
C621	C62	0.211100	0.385600	0.220700
C631	C63	0.142600	0.265600	0.181500
C641	C64	0.103700	0.225100	0.093900
H1961	H196	0.175600	0.466900	0.078000
H1971	H197	0.146900	0.449700	0.177500
H1981	H198	0.207500	0.338200	0.099900
H1991	H199	0.028400	0.236700	0.086600
H2001	H200	0.053100	0.245000	0.988900
H2011	H201	0.260700	0.455900	0.116100
H2021	H202	0.247800	0.474400	0.211700
H2031	H203	0.252800	0.384900	0.255600
H2041	H204	0.179400	0.374000	0.274200
H2051	H205	0.162700	0.234300	0.198900
H2061	H206	0.116300	0.269500	0.242700
H2071	H207	0.078400	0.180300	0.133700
H2081	H208	0.133300	0.227300	0.031800
Ga261	Ga26	0.773000	0.683480	0.416310
P331	P33	0.849300	0.752720	0.211160
P341	P34	0.007160	0.659950	0.057160
O1291	O129	0.824720	0.703550	0.295730
O1301	O130	0.913530	0.756960	0.175230
O1311	O131	0.798270	0.724680	0.125830
O1321	O132	0.861300	0.819100	0.239030
O1331	O133	0.998790	0.709540	0.120130
O1341	O134	0.075840	0.697900	0.009930
O1351	O135	0.001730	0.604280	0.117830
O1361	O136	0.956950	0.633160	0.973930
N491	N49	0.833970	0.778030	0.465430
N501	N50	0.842570	0.666730	0.480630
N511	N51	0.729470	0.584930	0.389230
C651	C65	0.893570	0.781530	0.504730
C661	C66	0.877770	0.718930	0.554030
C671	C67	0.809270	0.598930	0.514830
C681	C68	0.770370	0.558430	0.427230
H2091	H209	0.842270	0.800230	0.411330
H2101	H210	0.813570	0.783030	0.510830
H2111	H211	0.874170	0.671530	0.433230
H2121	H212	0.695070	0.570030	0.419930
H2131	H213	0.719770	0.578330	0.322230
H2141	H214	0.927370	0.789230	0.449430
H2151	H215	0.914470	0.807730	0.545030
H2161	H216	0.919470	0.718230	0.588930
H2171	H217	0.846070	0.707330	0.607530
H2181	H218	0.829370	0.567630	0.532230
H2191	H219	0.782970	0.602830	0.576030
H2201	H220	0.745070	0.513630	0.467030
H2211	H221	0.799970	0.560630	0.365130
Ga271	Ga27	0.439660	0.016820	0.749650
P351	P35	0.515960	0.086060	0.544500
P361	P36	0.673820	0.993290	0.390500
O1371	O137	0.491380	0.036890	0.629070
O1381	O138	0.580190	0.090300	0.508570
O1391	O139	0.464930	0.058020	0.459170
O1401	O140	0.527960	0.152440	0.572370
O1411	O141	0.665450	0.042880	0.453470
O1421	O142	0.742500	0.031240	0.343270
O1431	O143	0.668390	0.937620	0.451170
O1441	O144	0.623610	0.966500	0.307270
N521	N52	0.500630	0.111370	0.798770
N531	N53	0.509230	0.000070	0.813970
N541	N54	0.396130	0.918270	0.722570
C691	C69	0.560230	0.114870	0.838070
C701	C70	0.544430	0.052270	0.887370
C711	C71	0.475930	0.932270	0.848170
C721	C72	0.437030	0.891770	0.760570
H2221	H222	0.508930	0.133570	0.744670
H2231	H223	0.480230	0.116370	0.844170
H2241	H224	0.540830	0.004870	0.766570
H2251	H225	0.361730	0.903370	0.753270
H2261	H226	0.386430	0.911670	0.655570
H2271	H227	0.594030	0.122570	0.782770
H2281	H228	0.581130	0.141070	0.878370
H2291	H229	0.586130	0.051570	0.922270
H2301	H230	0.512730	0.040670	0.940870
H2311	H231	0.496030	0.900970	0.865570
H2321	H232	0.449630	0.936170	0.909370
H2331	H233	0.411730	0.846970	0.800370
H2341	H234	0.466630	0.893970	0.698470
