data_HEGNEN_clean_PM
_symmetry_space_group_name_H-M	'P1'
_cell_length_a	23.696500
_cell_length_b	23.696500
_cell_length_c	13.543700
_cell_angle_alpha	90.000000
_cell_angle_beta	90.000000
_cell_angle_gamma	120.000000
_symmetry_Int_Tables_number 1

loop_
_symmetry_equiv_pos_as_xyz
'x,y,z'

loop_
_atom_site_label
_atom_site_type_symbol
_atom_site_fract_x
_atom_site_fract_y
_atom_site_fract_z
Fe11	Fe1	0.361230	0.093080	0.118930
Ga11	Ga1	0.349900	0.243630	0.916680
P11	P1	0.419360	0.236950	0.120640
P21	P2	0.327010	0.986610	0.275980
O11	O1	0.368900	0.211800	0.038000
O21	O2	0.423400	0.176800	0.156800
O31	O3	0.391600	0.259800	0.207100
O41	O4	0.484700	0.290800	0.091400
O51	O5	0.376200	0.045000	0.212700
O61	O6	0.366100	0.957100	0.322800
O71	O7	0.271600	0.936100	0.215600
O81	O8	0.300300	0.009700	0.359300
N11	N1	0.444400	0.277700	0.869400
N21	N2	0.333500	0.156800	0.852700
N31	N3	0.251400	0.188800	0.942600
C11	C1	0.448300	0.220500	0.828000
C21	C2	0.385200	0.174400	0.779500
C31	C3	0.266100	0.123600	0.818600
C41	C4	0.224700	0.120800	0.904900
H11	H1	0.476200	0.291300	0.920400
H21	H2	0.457600	0.312400	0.825000
H31	H3	0.224700	0.206000	0.909400
H41	H4	0.248700	0.183000	0.014200
H51	H5	0.451200	0.197100	0.893500
H61	H6	0.388900	0.131200	0.763400
H71	H7	0.379900	0.209000	0.724300
H81	H8	0.264200	0.148600	0.751300
H91	H9	0.242400	0.075600	0.789600
H101	H10	0.174600	0.097800	0.878800
H111	H11	0.222900	0.094200	0.973200
Ga21	Ga2	0.305440	0.240250	0.214400
Fe21	Fe2	0.027900	0.426410	0.452260
Ga31	Ga3	0.016570	0.576960	0.250010
P31	P3	0.086030	0.570280	0.453970
P41	P4	0.993680	0.319940	0.609310
O91	O9	0.035570	0.545130	0.371330
O101	O10	0.090070	0.510130	0.490130
O111	O11	0.058270	0.593130	0.540430
O121	O12	0.151370	0.624130	0.424730
O131	O13	0.042870	0.378330	0.546030
O141	O14	0.032770	0.290430	0.656130
O151	O15	0.938270	0.269430	0.548930
O161	O16	0.966970	0.343030	0.692630
N41	N4	0.111070	0.611030	0.202730
N51	N5	0.000170	0.490130	0.186030
N61	N6	0.918070	0.522130	0.275930
C51	C5	0.114970	0.553830	0.161330
C61	C6	0.051870	0.507730	0.112830
C71	C7	0.932770	0.456930	0.151930
C81	C8	0.891370	0.454130	0.238230
H121	H12	0.142870	0.624630	0.253730
H131	H13	0.124270	0.645730	0.158330
H141	H14	0.891370	0.539330	0.242730
H151	H15	0.915370	0.516330	0.347530
H161	H16	0.117870	0.530430	0.226830
H171	H17	0.055570	0.464530	0.096730
H181	H18	0.046570	0.542330	0.057630
H191	H19	0.930870	0.481930	0.084630
H201	H20	0.909070	0.408930	0.122930
H211	H21	0.841270	0.431130	0.212130
H221	H22	0.889570	0.427530	0.306530
Ga41	Ga4	0.972100	0.573590	0.547740
Fe31	Fe3	0.694560	0.759750	0.785600
Ga51	Ga5	0.683230	0.910300	0.583350
P51	P5	0.752690	0.903620	0.787310
P61	P6	0.660340	0.653280	0.942650
O171	O17	0.702230	0.878470	0.704670
O181	O18	0.756730	0.843470	0.823470
O191	O19	0.724930	0.926470	0.873770
O201	O20	0.818030	0.957470	0.758070
O211	O21	0.709530	0.711670	0.879370
O221	O22	0.699430	0.623770	0.989470
O231	O23	0.604930	0.602770	0.882270
O241	O24	0.633630	0.676370	0.025970
N71	N7	0.777730	0.944370	0.536070
N81	N8	0.666830	0.823470	0.519370
N91	N9	0.584730	0.855470	0.609270
C91	C9	0.781630	0.887170	0.494670
C101	C10	0.718530	0.841070	0.446170
C111	C11	0.599430	0.790270	0.485270
C121	C12	0.558030	0.787470	0.571570
H231	H23	0.809530	0.957970	0.587070
H241	H24	0.790930	0.979070	0.491670
H251	H25	0.558030	0.872670	0.576070
H261	H26	0.582030	0.849670	0.680870
H271	H27	0.784530	0.863770	0.560170
H281	H28	0.722230	0.797870	0.430070
H291	H29	0.713230	0.875670	0.390970
H301	H30	0.597530	0.815270	0.417970
H311	H31	0.575730	0.742270	0.456270
H321	H32	0.507930	0.764470	0.545470
H331	H33	0.556230	0.760870	0.639870
Ga61	Ga6	0.638770	0.906920	0.881070
Fe41	Fe4	0.906920	0.268150	0.118930
Ga71	Ga7	0.756370	0.106270	0.916680
P71	P7	0.763050	0.182410	0.120640
P81	P8	0.013390	0.340400	0.275980
O251	O25	0.788200	0.157100	0.038000
O261	O26	0.823200	0.246600	0.156800
O271	O27	0.740200	0.131800	0.207100
O281	O28	0.709200	0.193900	0.091400
O291	O29	0.955000	0.331200	0.212700
O301	O30	0.042900	0.409000	0.322800
O311	O31	0.063900	0.335500	0.215600
O321	O32	0.990300	0.290600	0.359300
N101	N10	0.722300	0.166700	0.869400
N111	N11	0.843200	0.176700	0.852700
N121	N12	0.811200	0.062600	0.942600
C131	C13	0.779500	0.227800	0.828000
C141	C14	0.825600	0.210800	0.779500
C151	C15	0.876400	0.142500	0.818600
C161	C16	0.879200	0.103900	0.904900
H341	H34	0.708700	0.184900	0.920400
H351	H35	0.687600	0.145200	0.825000
H361	H36	0.794000	0.018700	0.909400
H371	H37	0.817000	0.065700	0.014200
H381	H38	0.802900	0.254100	0.893500
H391	H39	0.868800	0.257700	0.763400
H401	H40	0.791000	0.170900	0.724300
H411	H41	0.851400	0.115600	0.751300
H421	H42	0.924400	0.166800	0.789600
H431	H43	0.902200	0.076800	0.878800
H441	H44	0.905800	0.128700	0.973200
Ga81	Ga8	0.759750	0.065180	0.214400
Fe51	Fe5	0.573590	0.601480	0.452260
Ga91	Ga9	0.423040	0.439600	0.250010
P91	P9	0.429720	0.515740	0.453970
P101	P10	0.680060	0.673730	0.609310
O331	O33	0.454870	0.490430	0.371330
O341	O34	0.489870	0.579930	0.490130
O351	O35	0.406870	0.465130	0.540430
O361	O36	0.375870	0.527230	0.424730
O371	O37	0.621670	0.664530	0.546030
O381	O38	0.709570	0.742330	0.656130
O391	O39	0.730570	0.668830	0.548930
O401	O40	0.656970	0.623930	0.692630
N131	N13	0.388970	0.500030	0.202730
N141	N14	0.509870	0.510030	0.186030
N151	N15	0.477870	0.395930	0.275930
C171	C17	0.446170	0.561130	0.161330
C181	C18	0.492270	0.544130	0.112830
C191	C19	0.543070	0.475830	0.151930
C201	C20	0.545870	0.437230	0.238230
H451	H45	0.375370	0.518230	0.253730
H461	H46	0.354270	0.478530	0.158330
H471	H47	0.460670	0.352030	0.242730
H481	H48	0.483670	0.399030	0.347530
H491	H49	0.469570	0.587430	0.226830
H501	H50	0.535470	0.591030	0.096730
H511	H51	0.457670	0.504230	0.057630
H521	H52	0.518070	0.448930	0.084630
H531	H53	0.591070	0.500130	0.122930
H541	H54	0.568870	0.410130	0.212130
H551	H55	0.572470	0.462030	0.306530
Ga101	Ga10	0.426410	0.398520	0.547740
Fe61	Fe6	0.240250	0.934820	0.785600
Ga111	Ga11	0.089700	0.772940	0.583350
P111	P11	0.096380	0.849080	0.787310
P121	P12	0.346720	0.007070	0.942650
O411	O41	0.121530	0.823770	0.704670
O421	O42	0.156530	0.913270	0.823470
O431	O43	0.073530	0.798470	0.873770
O441	O44	0.042530	0.860570	0.758070
O451	O45	0.288330	0.997870	0.879370
O461	O46	0.376230	0.075670	0.989470
O471	O47	0.397230	0.002170	0.882270
O481	O48	0.323630	0.957270	0.025970
N161	N16	0.055630	0.833370	0.536070
N171	N17	0.176530	0.843370	0.519370
N181	N18	0.144530	0.729270	0.609270
C211	C21	0.112830	0.894470	0.494670
C221	C22	0.158930	0.877470	0.446170
C231	C23	0.209730	0.809170	0.485270
C241	C24	0.212530	0.770570	0.571570
H561	H56	0.042030	0.851570	0.587070
H571	H57	0.020930	0.811870	0.491670
H581	H58	0.127330	0.685370	0.576070
H591	H59	0.150330	0.732370	0.680870
H601	H60	0.136230	0.920770	0.560170
H611	H61	0.202130	0.924370	0.430070
H621	H62	0.124330	0.837570	0.390970
H631	H63	0.184730	0.782270	0.417970
H641	H64	0.257730	0.833470	0.456270
H651	H65	0.235530	0.743470	0.545470
H661	H66	0.239130	0.795370	0.639870
Ga121	Ga12	0.093080	0.731850	0.881070
Fe71	Fe7	0.731850	0.638770	0.118930
Ga131	Ga13	0.893730	0.650100	0.916680
P131	P13	0.817590	0.580640	0.120640
P141	P14	0.659600	0.672990	0.275980
O491	O49	0.842900	0.631100	0.038000
O501	O50	0.753400	0.576600	0.156800
O511	O51	0.868200	0.608400	0.207100
O521	O52	0.806100	0.515300	0.091400
O531	O53	0.668800	0.623800	0.212700
O541	O54	0.591000	0.633900	0.322800
O551	O55	0.664500	0.728400	0.215600
O561	O56	0.709400	0.699700	0.359300
N191	N19	0.833300	0.555600	0.869400
N201	N20	0.823300	0.666500	0.852700
N211	N21	0.937400	0.748600	0.942600
C251	C25	0.772200	0.551700	0.828000
C261	C26	0.789200	0.614800	0.779500
C271	C27	0.857500	0.733900	0.818600
C281	C28	0.896100	0.775300	0.904900
H671	H67	0.815100	0.523800	0.920400
H681	H68	0.854800	0.542400	0.825000
H691	H69	0.981300	0.775300	0.909400
H701	H70	0.934300	0.751300	0.014200
H711	H71	0.745900	0.548800	0.893500
H721	H72	0.742300	0.611100	0.763400
H731	H73	0.829100	0.620100	0.724300
H741	H74	0.884400	0.735800	0.751300
H751	H75	0.833200	0.757600	0.789600
H761	H76	0.923200	0.825400	0.878800
H771	H77	0.871300	0.777100	0.973200
Ga141	Ga14	0.934820	0.694560	0.214400
Fe81	Fe8	0.398520	0.972100	0.452260
Ga151	Ga15	0.560400	0.983430	0.250010
P151	P15	0.484260	0.913970	0.453970
P161	P16	0.326270	0.006320	0.609310
O571	O57	0.509570	0.964430	0.371330
O581	O58	0.420070	0.909930	0.490130
O591	O59	0.534870	0.941730	0.540430
O601	O60	0.472770	0.848630	0.424730
O611	O61	0.335470	0.957130	0.546030
O621	O62	0.257670	0.967230	0.656130
O631	O63	0.331170	0.061730	0.548930
O641	O64	0.376070	0.033030	0.692630
N221	N22	0.499970	0.888930	0.202730
N231	N23	0.489970	0.999830	0.186030
N241	N24	0.604070	0.081930	0.275930
C291	C29	0.438870	0.885030	0.161330
C301	C30	0.455870	0.948130	0.112830
C311	C31	0.524170	0.067230	0.151930
C321	C32	0.562770	0.108630	0.238230
H781	H78	0.481770	0.857130	0.253730
H791	H79	0.521470	0.875730	0.158330
H801	H80	0.647970	0.108630	0.242730
H811	H81	0.600970	0.084630	0.347530
H821	H82	0.412570	0.882130	0.226830
H831	H83	0.408970	0.944430	0.096730
H841	H84	0.495770	0.953430	0.057630
H851	H85	0.551070	0.069130	0.084630
H861	H86	0.499870	0.090930	0.122930
H871	H87	0.589870	0.158730	0.212130
H881	H88	0.537970	0.110430	0.306530
Ga161	Ga16	0.601480	0.027900	0.547740
Fe91	Fe9	0.065180	0.305440	0.785600
Ga171	Ga17	0.227060	0.316770	0.583350
P171	P17	0.150920	0.247310	0.787310
P181	P18	0.992930	0.339660	0.942650
O651	O65	0.176230	0.297770	0.704670
O661	O66	0.086730	0.243270	0.823470
O671	O67	0.201530	0.275070	0.873770
O681	O68	0.139430	0.181970	0.758070
O691	O69	0.002130	0.290470	0.879370
O701	O70	0.924330	0.300570	0.989470
O711	O71	0.997830	0.395070	0.882270
O721	O72	0.042730	0.366370	0.025970
N251	N25	0.166630	0.222270	0.536070
N261	N26	0.156630	0.333170	0.519370
N271	N27	0.270730	0.415270	0.609270
C331	C33	0.105530	0.218370	0.494670
C341	C34	0.122530	0.281470	0.446170
C351	C35	0.190830	0.400570	0.485270
C361	C36	0.229430	0.441970	0.571570
H891	H89	0.148430	0.190470	0.587070
H901	H90	0.188130	0.209070	0.491670
H911	H91	0.314630	0.441970	0.576070
H921	H92	0.267630	0.417970	0.680870
H931	H93	0.079230	0.215470	0.560170
H941	H94	0.075630	0.277770	0.430070
H951	H95	0.162430	0.286770	0.390970
H961	H96	0.217730	0.402470	0.417970
H971	H97	0.166530	0.424270	0.456270
H981	H98	0.256530	0.492070	0.545470
H991	H99	0.204630	0.443770	0.639870
Ga181	Ga18	0.268150	0.361230	0.881070
Ga191	Ga19	0.650100	0.756370	0.083320
P191	P19	0.580640	0.763050	0.879360
P201	P20	0.672990	0.013390	0.724020
O731	O73	0.631100	0.788200	0.962000
O741	O74	0.576600	0.823200	0.843200
O751	O75	0.608400	0.740200	0.792900
O761	O76	0.515300	0.709200	0.908600
O771	O77	0.623800	0.955000	0.787300
O781	O78	0.633900	0.042900	0.677200
O791	O79	0.728400	0.063900	0.784400
O801	O80	0.699700	0.990300	0.640700
N281	N28	0.555600	0.722300	0.130600
N291	N29	0.666500	0.843200	0.147300
N301	N30	0.748600	0.811200	0.057400
C371	C37	0.551700	0.779500	0.172000
C381	C38	0.614800	0.825600	0.220500
C391	C39	0.733900	0.876400	0.181400
C401	C40	0.775300	0.879200	0.095100
H1001	H100	0.523800	0.708700	0.079600
H1011	H101	0.542400	0.687600	0.175000
H1021	H102	0.775300	0.794000	0.090600
H1031	H103	0.751300	0.817000	0.985800
H1041	H104	0.548800	0.802900	0.106500
H1051	H105	0.611100	0.868800	0.236600
H1061	H106	0.620100	0.791000	0.275700
H1071	H107	0.735800	0.851400	0.248700
H1081	H108	0.757600	0.924400	0.210400
H1091	H109	0.825400	0.902200	0.121200
H1101	H110	0.777100	0.905800	0.026800
Ga201	Ga20	0.316770	0.089700	0.416650
P211	P21	0.247310	0.096380	0.212690
P221	P22	0.339660	0.346720	0.057350
O811	O81	0.297770	0.121530	0.295330
O821	O82	0.243270	0.156530	0.176530
O831	O83	0.275070	0.073530	0.126230
O841	O84	0.181970	0.042530	0.241930
O851	O85	0.290470	0.288330	0.120630
O861	O86	0.300570	0.376230	0.010530
O871	O87	0.395070	0.397230	0.117730
O881	O88	0.366370	0.323630	0.974030
N311	N31	0.222270	0.055630	0.463930
N321	N32	0.333170	0.176530	0.480630
N331	N33	0.415270	0.144530	0.390730
C411	C41	0.218370	0.112830	0.505330
C421	C42	0.281470	0.158930	0.553830
C431	C43	0.400570	0.209730	0.514730
C441	C44	0.441970	0.212530	0.428430
H1111	H111	0.190470	0.042030	0.412930
H1121	H112	0.209070	0.020930	0.508330
H1131	H113	0.441970	0.127330	0.423930
H1141	H114	0.417970	0.150330	0.319130
H1151	H115	0.215470	0.136230	0.439830
H1161	H116	0.277770	0.202130	0.569930
H1171	H117	0.286770	0.124330	0.609030
H1181	H118	0.402470	0.184730	0.582030
H1191	H119	0.424270	0.257730	0.543730
H1201	H120	0.492070	0.235530	0.454530
H1211	H121	0.443770	0.239130	0.360130
Ga211	Ga21	0.983430	0.423040	0.749990
P231	P23	0.913970	0.429720	0.546030
P241	P24	0.006320	0.680060	0.390690
O891	O89	0.964430	0.454870	0.628670
O901	O90	0.909930	0.489870	0.509870
O911	O91	0.941730	0.406870	0.459570
O921	O92	0.848630	0.375870	0.575270
O931	O93	0.957130	0.621670	0.453970
O941	O94	0.967230	0.709570	0.343870
O951	O95	0.061730	0.730570	0.451070
O961	O96	0.033030	0.656970	0.307370
N341	N34	0.888930	0.388970	0.797270
N351	N35	0.999830	0.509870	0.813970
N361	N36	0.081930	0.477870	0.724070
C451	C45	0.885030	0.446170	0.838670
C461	C46	0.948130	0.492270	0.887170
C471	C47	0.067230	0.543070	0.848070
C481	C48	0.108630	0.545870	0.761770
H1221	H122	0.857130	0.375370	0.746270
H1231	H123	0.875730	0.354270	0.841670
H1241	H124	0.108630	0.460670	0.757270
H1251	H125	0.084630	0.483670	0.652470
H1261	H126	0.882130	0.469570	0.773170
H1271	H127	0.944430	0.535470	0.903270
H1281	H128	0.953430	0.457670	0.942370
H1291	H129	0.069130	0.518070	0.915370
H1301	H130	0.090930	0.591070	0.877070
H1311	H131	0.158730	0.568870	0.787870
H1321	H132	0.110430	0.572470	0.693470
Ga221	Ga22	0.243630	0.893730	0.083320
P251	P25	0.236950	0.817590	0.879360
P261	P26	0.986610	0.659600	0.724020
O971	O97	0.211800	0.842900	0.962000
O981	O98	0.176800	0.753400	0.843200
O991	O99	0.259800	0.868200	0.792900
O1001	O100	0.290800	0.806100	0.908600
O1011	O101	0.045000	0.668800	0.787300
O1021	O102	0.957100	0.591000	0.677200
O1031	O103	0.936100	0.664500	0.784400
O1041	O104	0.009700	0.709400	0.640700
N371	N37	0.277700	0.833300	0.130600
N381	N38	0.156800	0.823300	0.147300
N391	N39	0.188800	0.937400	0.057400
C491	C49	0.220500	0.772200	0.172000
C501	C50	0.174400	0.789200	0.220500
C511	C51	0.123600	0.857500	0.181400
C521	C52	0.120800	0.896100	0.095100
H1331	H133	0.291300	0.815100	0.079600
H1341	H134	0.312400	0.854800	0.175000
H1351	H135	0.206000	0.981300	0.090600
H1361	H136	0.183000	0.934300	0.985800
H1371	H137	0.197100	0.745900	0.106500
H1381	H138	0.131200	0.742300	0.236600
H1391	H139	0.209000	0.829100	0.275700
H1401	H140	0.148600	0.884400	0.248700
H1411	H141	0.075600	0.833200	0.210400
H1421	H142	0.097800	0.923200	0.121200
H1431	H143	0.094200	0.871300	0.026800
Ga231	Ga23	0.910300	0.227060	0.416650
P271	P27	0.903620	0.150920	0.212690
P281	P28	0.653280	0.992930	0.057350
O1051	O105	0.878470	0.176230	0.295330
O1061	O106	0.843470	0.086730	0.176530
O1071	O107	0.926470	0.201530	0.126230
O1081	O108	0.957470	0.139430	0.241930
O1091	O109	0.711670	0.002130	0.120630
O1101	O110	0.623770	0.924330	0.010530
O1111	O111	0.602770	0.997830	0.117730
O1121	O112	0.676370	0.042730	0.974030
N401	N40	0.944370	0.166630	0.463930
N411	N41	0.823470	0.156630	0.480630
N421	N42	0.855470	0.270730	0.390730
C531	C53	0.887170	0.105530	0.505330
C541	C54	0.841070	0.122530	0.553830
C551	C55	0.790270	0.190830	0.514730
C561	C56	0.787470	0.229430	0.428430
H1441	H144	0.957970	0.148430	0.412930
H1451	H145	0.979070	0.188130	0.508330
H1461	H146	0.872670	0.314630	0.423930
H1471	H147	0.849670	0.267630	0.319130
H1481	H148	0.863770	0.079230	0.439830
H1491	H149	0.797870	0.075630	0.569930
H1501	H150	0.875670	0.162430	0.609030
H1511	H151	0.815270	0.217730	0.582030
H1521	H152	0.742270	0.166530	0.543730
H1531	H153	0.764470	0.256530	0.454530
H1541	H154	0.760870	0.204630	0.360130
Ga241	Ga24	0.576960	0.560400	0.749990
P291	P29	0.570280	0.484260	0.546030
P301	P30	0.319940	0.326270	0.390690
O1131	O113	0.545130	0.509570	0.628670
O1141	O114	0.510130	0.420070	0.509870
O1151	O115	0.593130	0.534870	0.459570
O1161	O116	0.624130	0.472770	0.575270
O1171	O117	0.378330	0.335470	0.453970
O1181	O118	0.290430	0.257670	0.343870
O1191	O119	0.269430	0.331170	0.451070
O1201	O120	0.343030	0.376070	0.307370
N431	N43	0.611030	0.499970	0.797270
N441	N44	0.490130	0.489970	0.813970
N451	N45	0.522130	0.604070	0.724070
C571	C57	0.553830	0.438870	0.838670
C581	C58	0.507730	0.455870	0.887170
C591	C59	0.456930	0.524170	0.848070
C601	C60	0.454130	0.562770	0.761770
H1551	H155	0.624630	0.481770	0.746270
H1561	H156	0.645730	0.521470	0.841670
H1571	H157	0.539330	0.647970	0.757270
H1581	H158	0.516330	0.600970	0.652470
H1591	H159	0.530430	0.412570	0.773170
H1601	H160	0.464530	0.408970	0.903270
H1611	H161	0.542330	0.495770	0.942370
H1621	H162	0.481930	0.551070	0.915370
H1631	H163	0.408930	0.499870	0.877070
H1641	H164	0.431130	0.589870	0.787870
H1651	H165	0.427530	0.537970	0.693470
Ga251	Ga25	0.106270	0.349900	0.083320
P311	P31	0.182410	0.419360	0.879360
P321	P32	0.340400	0.327010	0.724020
O1211	O121	0.157100	0.368900	0.962000
O1221	O122	0.246600	0.423400	0.843200
O1231	O123	0.131800	0.391600	0.792900
O1241	O124	0.193900	0.484700	0.908600
O1251	O125	0.331200	0.376200	0.787300
O1261	O126	0.409000	0.366100	0.677200
O1271	O127	0.335500	0.271600	0.784400
O1281	O128	0.290600	0.300300	0.640700
N461	N46	0.166700	0.444400	0.130600
N471	N47	0.176700	0.333500	0.147300
N481	N48	0.062600	0.251400	0.057400
C611	C61	0.227800	0.448300	0.172000
C621	C62	0.210800	0.385200	0.220500
C631	C63	0.142500	0.266100	0.181400
C641	C64	0.103900	0.224700	0.095100
H1661	H166	0.184900	0.476200	0.079600
H1671	H167	0.145200	0.457600	0.175000
H1681	H168	0.018700	0.224700	0.090600
H1691	H169	0.065700	0.248700	0.985800
H1701	H170	0.254100	0.451200	0.106500
H1711	H171	0.257700	0.388900	0.236600
H1721	H172	0.170900	0.379900	0.275700
H1731	H173	0.115600	0.264200	0.248700
H1741	H174	0.166800	0.242400	0.210400
H1751	H175	0.076800	0.174600	0.121200
H1761	H176	0.128700	0.222900	0.026800
Ga261	Ga26	0.772940	0.683230	0.416650
P331	P33	0.849080	0.752690	0.212690
P341	P34	0.007070	0.660340	0.057350
O1291	O129	0.823770	0.702230	0.295330
O1301	O130	0.913270	0.756730	0.176530
O1311	O131	0.798470	0.724930	0.126230
O1321	O132	0.860570	0.818030	0.241930
O1331	O133	0.997870	0.709530	0.120630
O1341	O134	0.075670	0.699430	0.010530
O1351	O135	0.002170	0.604930	0.117730
O1361	O136	0.957270	0.633630	0.974030
N491	N49	0.833370	0.777730	0.463930
N501	N50	0.843370	0.666830	0.480630
N511	N51	0.729270	0.584730	0.390730
C651	C65	0.894470	0.781630	0.505330
C661	C66	0.877470	0.718530	0.553830
C671	C67	0.809170	0.599430	0.514730
C681	C68	0.770570	0.558030	0.428430
H1771	H177	0.851570	0.809530	0.412930
H1781	H178	0.811870	0.790930	0.508330
H1791	H179	0.685370	0.558030	0.423930
H1801	H180	0.732370	0.582030	0.319130
H1811	H181	0.920770	0.784530	0.439830
H1821	H182	0.924370	0.722230	0.569930
H1831	H183	0.837570	0.713230	0.609030
H1841	H184	0.782270	0.597530	0.582030
H1851	H185	0.833470	0.575730	0.543730
H1861	H186	0.743470	0.507930	0.454530
H1871	H187	0.795370	0.556230	0.360130
Ga271	Ga27	0.439600	0.016570	0.749990
P351	P35	0.515740	0.086030	0.546030
P361	P36	0.673730	0.993680	0.390690
O1371	O137	0.490430	0.035570	0.628670
O1381	O138	0.579930	0.090070	0.509870
O1391	O139	0.465130	0.058270	0.459570
O1401	O140	0.527230	0.151370	0.575270
O1411	O141	0.664530	0.042870	0.453970
O1421	O142	0.742330	0.032770	0.343870
O1431	O143	0.668830	0.938270	0.451070
O1441	O144	0.623930	0.966970	0.307370
N521	N52	0.500030	0.111070	0.797270
N531	N53	0.510030	0.000170	0.813970
N541	N54	0.395930	0.918070	0.724070
C691	C69	0.561130	0.114970	0.838670
C701	C70	0.544130	0.051870	0.887170
C711	C71	0.475830	0.932770	0.848070
C721	C72	0.437230	0.891370	0.761770
H1881	H188	0.518230	0.142870	0.746270
H1891	H189	0.478530	0.124270	0.841670
H1901	H190	0.352030	0.891370	0.757270
H1911	H191	0.399030	0.915370	0.652470
H1921	H192	0.587430	0.117870	0.773170
H1931	H193	0.591030	0.055570	0.903270
H1941	H194	0.504230	0.046570	0.942370
H1951	H195	0.448930	0.930870	0.915370
H1961	H196	0.500130	0.909070	0.877070
H1971	H197	0.410130	0.841270	0.787870
H1981	H198	0.462030	0.889570	0.693470
