data_HEHCOO_clean_PM
_symmetry_space_group_name_H-M	'P1'
_cell_length_a	21.858000
_cell_length_b	21.858000
_cell_length_c	23.333000
_cell_angle_alpha	90.000000
_cell_angle_beta	90.000000
_cell_angle_gamma	120.000000
_symmetry_Int_Tables_number 1

loop_
_symmetry_equiv_pos_as_xyz
'x,y,z'

loop_
_atom_site_label
_atom_site_type_symbol
_atom_site_fract_x
_atom_site_fract_y
_atom_site_fract_z
Cd11	Cd1	0.593520	0.129510	0.871320
Cd21	Cd2	0.406480	0.535990	0.795350
Co11	Co1	0.526150	0.889860	0.852880
Co21	Co2	0.473850	0.363710	0.813790
H11	H1	0.453800	0.097300	0.813800
H21	H2	0.379700	0.048100	0.736300
H31	H3	0.359000	0.937200	0.703600
H41	H4	0.447900	0.912200	0.717700
H51	H5	0.720600	0.979800	0.721500
H61	H6	0.764400	0.904300	0.760000
H71	H7	0.701200	0.825700	0.837700
H81	H8	0.449000	0.688900	0.923700
H91	H9	0.383200	0.635500	0.002400
H101	H10	0.383100	0.707200	0.081100
H111	H11	0.525500	0.875800	0.001700
H121	H12	0.750900	0.169200	0.866400
H131	H13	0.832200	0.131400	0.894700
H141	H14	0.788700	0.023000	0.941900
H151	H15	0.665400	0.946800	0.946100
H161	H16	0.387700	0.973600	0.949100
H171	H17	0.279000	0.881900	0.913000
H181	H18	0.280900	0.805300	0.844400
H191	H19	0.538100	0.649900	0.710200
H201	H20	0.576900	0.760000	0.670900
H211	H21	0.536900	0.834200	0.709100
H221	H22	0.424500	0.682800	0.825400
H231	H23	0.546200	0.643500	0.852870
H241	H24	0.620300	0.668400	0.930370
H251	H25	0.641000	0.578200	0.963070
H261	H26	0.552100	0.464300	0.948970
H271	H27	0.279400	0.259200	0.945170
H281	H28	0.235600	0.139900	0.906670
H291	H29	0.298800	0.124500	0.828970
H301	H30	0.551000	0.239900	0.742970
H311	H31	0.616800	0.252300	0.664270
H321	H32	0.616900	0.324100	0.585570
H331	H33	0.474500	0.350300	0.664970
H341	H34	0.249100	0.418300	0.800270
H351	H35	0.167800	0.299200	0.771970
H361	H36	0.211300	0.234300	0.724770
H371	H37	0.334600	0.281400	0.720570
H381	H38	0.612300	0.585900	0.717570
H391	H39	0.721000	0.602900	0.753670
H401	H40	0.719100	0.524400	0.822270
H411	H41	0.461900	0.111800	0.956470
H421	H42	0.423100	0.183100	0.995770
H431	H43	0.463100	0.297300	0.957570
H441	H44	0.575500	0.258300	0.841270
C11	C1	0.454800	0.061000	0.792200
C21	C2	0.407200	0.028600	0.749900
C31	C3	0.398700	0.966800	0.726700
C41	C4	0.448500	0.950300	0.737800
C51	C5	0.502600	0.988000	0.778900
C61	C6	0.602600	0.980100	0.762200
C71	C7	0.641000	0.942600	0.780300
C81	C8	0.698600	0.948700	0.752900
C91	C9	0.723800	0.903200	0.775800
C101	C10	0.686500	0.856700	0.822600
C111	C11	0.631300	0.857900	0.844400
C121	C12	0.586500	0.812900	0.895500
C131	C13	0.490200	0.787600	0.953100
C141	C14	0.449800	0.716600	0.955400
C151	C15	0.411700	0.685500	0.001000
C161	C16	0.413500	0.728200	0.049200
C171	C17	0.494600	0.826000	0.001800
C181	C18	0.733700	0.123300	0.882000
C191	C19	0.782900	0.101600	0.900500
C201	C20	0.757400	0.037100	0.926600
C211	C21	0.684300	0.992600	0.930000
C221	C22	0.639300	0.015800	0.909800
C231	C23	0.520300	0.988800	0.924400
C241	C24	0.447800	0.935400	0.909400
C251	C25	0.385700	0.937800	0.924800
C261	C26	0.322500	0.885100	0.902300
C271	C27	0.323200	0.837000	0.863900
C281	C28	0.379000	0.834200	0.854200
C291	C29	0.391600	0.787800	0.811300
C301	C30	0.522400	0.679700	0.726200
C311	C31	0.545700	0.745000	0.702800
C321	C32	0.523500	0.789700	0.726100
C331	C33	0.480900	0.766900	0.775300
C341	C34	0.457100	0.699700	0.794400
C351	C35	0.545200	0.606200	0.874470
C361	C36	0.592800	0.621400	0.916770
C371	C37	0.601300	0.568100	0.939970
C381	C38	0.551500	0.501800	0.928870
C391	C39	0.497400	0.485400	0.887770
C401	C40	0.397400	0.377500	0.904470
C411	C41	0.359000	0.301600	0.886370
C421	C42	0.301400	0.250100	0.913770
C431	C43	0.276200	0.179400	0.890870
C441	C44	0.313500	0.170200	0.844070
C451	C45	0.368700	0.226600	0.822270
C461	C46	0.413500	0.226400	0.771170
C471	C47	0.509800	0.297400	0.713570
C481	C48	0.550200	0.266800	0.711270
C491	C49	0.588300	0.273800	0.665670
C501	C50	0.586500	0.314700	0.617470
C511	C51	0.505400	0.331400	0.664870
C521	C52	0.266300	0.389600	0.784670
C531	C53	0.217100	0.318700	0.766170
C541	C54	0.242600	0.279700	0.740070
C551	C55	0.315700	0.308300	0.736670
C561	C56	0.360700	0.376500	0.756870
C571	C57	0.479700	0.468500	0.742270
C581	C58	0.552200	0.487600	0.757270
C591	C59	0.614300	0.552100	0.741870
C601	C60	0.677500	0.562600	0.764370
C611	C61	0.676800	0.513800	0.802770
C621	C62	0.621000	0.455200	0.812470
C631	C63	0.608400	0.396200	0.855370
C641	C64	0.477600	0.157300	0.940470
C651	C65	0.454300	0.199300	0.963870
C661	C66	0.476500	0.266200	0.940570
C671	C67	0.519100	0.286000	0.891370
C681	C68	0.542900	0.242600	0.872270
N11	N1	0.503200	0.042600	0.804200
N21	N2	0.545300	0.962000	0.794100
N31	N3	0.608100	0.898000	0.822600
N41	N4	0.535500	0.823000	0.904700
N51	N5	0.457500	0.795700	0.047800
N61	N6	0.663200	0.078800	0.886900
N71	N7	0.566300	0.967900	0.908000
N81	N8	0.442200	0.882900	0.877200
N91	N9	0.459900	0.810900	0.804000
N101	N10	0.477500	0.656000	0.771600
N111	N11	0.496800	0.539400	0.862470
N121	N12	0.454700	0.416700	0.872570
N131	N13	0.391900	0.289900	0.844070
N141	N14	0.464500	0.287500	0.761970
N151	N15	0.542500	0.338200	0.618870
N161	N16	0.336800	0.415600	0.779770
N171	N17	0.433700	0.401600	0.758670
N181	N18	0.557800	0.440700	0.789470
N191	N19	0.540100	0.351000	0.862670
N201	N20	0.522500	0.178500	0.895070
Cl11	Cl1	0.664530	0.215830	0.795710
Cl21	Cl2	0.335470	0.551300	0.870960
O11	O1	0.628000	0.025100	0.722600
O21	O2	0.603500	0.772100	0.920200
O31	O3	0.533800	0.046100	0.947800
O41	O4	0.340900	0.736800	0.788200
O51	O5	0.372000	0.397100	0.944070
O61	O6	0.396500	0.168600	0.746470
O71	O7	0.466200	0.512300	0.718870
O81	O8	0.659100	0.395900	0.878470
Cd31	Cd3	0.535990	0.406480	0.537990
Cd41	Cd4	0.129510	0.593520	0.462010
Co31	Co3	0.363710	0.473850	0.519550
Co41	Co4	0.889860	0.526150	0.480450
H451	H45	0.643500	0.546200	0.480470
H461	H46	0.668400	0.620300	0.402970
H471	H47	0.578200	0.641000	0.370270
H481	H48	0.464300	0.552100	0.384370
H491	H49	0.259200	0.279400	0.388170
H501	H50	0.139900	0.235600	0.426670
H511	H51	0.124500	0.298800	0.504370
H521	H52	0.239900	0.551000	0.590370
H531	H53	0.252300	0.616800	0.669070
H541	H54	0.324100	0.616900	0.747770
H551	H55	0.350300	0.474500	0.668370
H561	H56	0.418300	0.249100	0.533070
H571	H57	0.299200	0.167800	0.561370
H581	H58	0.234300	0.211300	0.608570
H591	H59	0.281400	0.334600	0.612770
H601	H60	0.585900	0.612300	0.615770
H611	H61	0.602900	0.721000	0.579670
H621	H62	0.524400	0.719100	0.511070
H631	H63	0.111800	0.461900	0.376870
H641	H64	0.183100	0.423100	0.337570
H651	H65	0.297300	0.463100	0.375770
H661	H66	0.258300	0.575500	0.492070
H671	H67	0.097300	0.453800	0.519530
H681	H68	0.048100	0.379700	0.597030
H691	H69	0.937200	0.359000	0.629730
H701	H70	0.912200	0.447900	0.615630
H711	H71	0.979800	0.720600	0.611830
H721	H72	0.904300	0.764400	0.573330
H731	H73	0.825700	0.701200	0.495630
H741	H74	0.688900	0.449000	0.409630
H751	H75	0.635500	0.383200	0.330930
H761	H76	0.707200	0.383100	0.252230
H771	H77	0.875800	0.525500	0.331630
H781	H78	0.169200	0.750900	0.466930
H791	H79	0.131400	0.832200	0.438630
H801	H80	0.023000	0.788700	0.391430
H811	H81	0.946800	0.665400	0.387230
H821	H82	0.973600	0.387700	0.384230
H831	H83	0.881900	0.279000	0.420330
H841	H84	0.805300	0.280900	0.488930
H851	H85	0.649900	0.538100	0.623130
H861	H86	0.760000	0.576900	0.662430
H871	H87	0.834200	0.536900	0.624230
H881	H88	0.682800	0.424500	0.507930
C691	C69	0.606200	0.545200	0.458870
C701	C70	0.621400	0.592800	0.416570
C711	C71	0.568100	0.601300	0.393370
C721	C72	0.501800	0.551500	0.404470
C731	C73	0.485400	0.497400	0.445570
C741	C74	0.377500	0.397400	0.428870
C751	C75	0.301600	0.359000	0.446970
C761	C76	0.250100	0.301400	0.419570
C771	C77	0.179400	0.276200	0.442470
C781	C78	0.170200	0.313500	0.489270
C791	C79	0.226600	0.368700	0.511070
C801	C80	0.226400	0.413500	0.562170
C811	C81	0.297400	0.509800	0.619770
C821	C82	0.266800	0.550200	0.622070
C831	C83	0.273800	0.588300	0.667670
C841	C84	0.314700	0.586500	0.715870
C851	C85	0.331400	0.505400	0.668470
C861	C86	0.389600	0.266300	0.548670
C871	C87	0.318700	0.217100	0.567170
C881	C88	0.279700	0.242600	0.593270
C891	C89	0.308300	0.315700	0.596670
C901	C90	0.376500	0.360700	0.576470
C911	C91	0.468500	0.479700	0.591070
C921	C92	0.487600	0.552200	0.576070
C931	C93	0.552100	0.614300	0.591470
C941	C94	0.562600	0.677500	0.568970
C951	C95	0.513800	0.676800	0.530570
C961	C96	0.455200	0.621000	0.520870
C971	C97	0.396200	0.608400	0.477970
C981	C98	0.157300	0.477600	0.392870
C991	C99	0.199300	0.454300	0.369470
C1001	C100	0.266200	0.476500	0.392770
C1011	C101	0.286000	0.519100	0.441970
C1021	C102	0.242600	0.542900	0.461070
C1031	C103	0.061000	0.454800	0.541130
C1041	C104	0.028600	0.407200	0.583430
C1051	C105	0.966800	0.398700	0.606630
C1061	C106	0.950300	0.448500	0.595530
C1071	C107	0.988000	0.502600	0.554430
C1081	C108	0.980100	0.602600	0.571130
C1091	C109	0.942600	0.641000	0.553030
C1101	C110	0.948700	0.698600	0.580430
C1111	C111	0.903200	0.723800	0.557530
C1121	C112	0.856700	0.686500	0.510730
C1131	C113	0.857900	0.631300	0.488930
C1141	C114	0.812900	0.586500	0.437830
C1151	C115	0.787600	0.490200	0.380230
C1161	C116	0.716600	0.449800	0.377930
C1171	C117	0.685500	0.411700	0.332330
C1181	C118	0.728200	0.413500	0.284130
C1191	C119	0.826000	0.494600	0.331530
C1201	C120	0.123300	0.733700	0.451330
C1211	C121	0.101600	0.782900	0.432830
C1221	C122	0.037100	0.757400	0.406730
C1231	C123	0.992600	0.684300	0.403330
C1241	C124	0.015800	0.639300	0.423530
C1251	C125	0.988800	0.520300	0.408930
C1261	C126	0.935400	0.447800	0.423930
C1271	C127	0.937800	0.385700	0.408530
C1281	C128	0.885100	0.322500	0.431030
C1291	C129	0.837000	0.323200	0.469430
C1301	C130	0.834200	0.379000	0.479130
C1311	C131	0.787800	0.391600	0.522030
C1321	C132	0.679700	0.522400	0.607130
C1331	C133	0.745000	0.545700	0.630530
C1341	C134	0.789700	0.523500	0.607230
C1351	C135	0.766900	0.480900	0.558030
C1361	C136	0.699700	0.457100	0.538930
N211	N21	0.539400	0.496800	0.470870
N221	N22	0.416700	0.454700	0.460770
N231	N23	0.289900	0.391900	0.489270
N241	N24	0.287500	0.464500	0.571370
N251	N25	0.338200	0.542500	0.714470
N261	N26	0.415600	0.336800	0.553570
N271	N27	0.401600	0.433700	0.574670
N281	N28	0.440700	0.557800	0.543870
N291	N29	0.351000	0.540100	0.470670
N301	N30	0.178500	0.522500	0.438270
N311	N31	0.042600	0.503200	0.529130
N321	N32	0.962000	0.545300	0.539230
N331	N33	0.898000	0.608100	0.510730
N341	N34	0.823000	0.535500	0.428630
N351	N35	0.795700	0.457500	0.285530
N361	N36	0.078800	0.663200	0.446430
N371	N37	0.967900	0.566300	0.425330
N381	N38	0.882900	0.442200	0.456130
N391	N39	0.810900	0.459900	0.529330
N401	N40	0.656000	0.477500	0.561730
Cl31	Cl3	0.551300	0.335470	0.462380
Cl41	Cl4	0.215830	0.664530	0.537620
O91	O9	0.397100	0.372000	0.389270
O101	O10	0.168600	0.396500	0.586870
O111	O11	0.512300	0.466200	0.614470
O121	O12	0.395900	0.659100	0.454870
O131	O13	0.025100	0.628000	0.610730
O141	O14	0.772100	0.603500	0.413130
O151	O15	0.046100	0.533800	0.385530
O161	O16	0.736800	0.340900	0.545130
Cd51	Cd5	0.870490	0.464010	0.204650
Cd61	Cd6	0.464010	0.870490	0.128680
Co51	Co5	0.110140	0.636290	0.186210
Co61	Co6	0.636290	0.110140	0.147120
H891	H89	0.902700	0.356500	0.147130
H901	H90	0.951900	0.331600	0.069630
H911	H91	0.062800	0.421800	0.036930
H921	H92	0.087800	0.535700	0.051030
H931	H93	0.020200	0.740800	0.054830
H941	H94	0.095700	0.860100	0.093330
H951	H95	0.174300	0.875500	0.171030
H961	H96	0.311100	0.760100	0.257030
H971	H97	0.364500	0.747700	0.335730
H981	H98	0.292800	0.675900	0.414430
H991	H99	0.124200	0.649700	0.335030
H1001	H100	0.830800	0.581700	0.199730
H1011	H101	0.868600	0.700800	0.228030
H1021	H102	0.977000	0.765700	0.275230
H1031	H103	0.053200	0.718600	0.279430
H1041	H104	0.026400	0.414100	0.282430
H1051	H105	0.118100	0.397100	0.246330
H1061	H106	0.194700	0.475600	0.177730
H1071	H107	0.350100	0.888200	0.043530
H1081	H108	0.240000	0.816900	0.004230
H1091	H109	0.165800	0.702700	0.042430
H1101	H110	0.317200	0.741700	0.158730
H1111	H111	0.356500	0.902700	0.186200
H1121	H112	0.331600	0.951900	0.263700
H1131	H113	0.421800	0.062800	0.296400
H1141	H114	0.535700	0.087800	0.282300
H1151	H115	0.740800	0.020200	0.278500
H1161	H116	0.860100	0.095700	0.240000
H1171	H117	0.875500	0.174300	0.162300
H1181	H118	0.760100	0.311100	0.076300
H1191	H119	0.747700	0.364500	0.997600
H1201	H120	0.675900	0.292800	0.918900
H1211	H121	0.649700	0.124200	0.998300
H1221	H122	0.581700	0.830800	0.133600
H1231	H123	0.700800	0.868600	0.105300
H1241	H124	0.765700	0.977000	0.058100
H1251	H125	0.718600	0.053200	0.053900
H1261	H126	0.414100	0.026400	0.050900
H1271	H127	0.397100	0.118100	0.087000
H1281	H128	0.475600	0.194700	0.155600
H1291	H129	0.888200	0.350100	0.289800
H1301	H130	0.816900	0.240000	0.329100
H1311	H131	0.702700	0.165800	0.290900
H1321	H132	0.741700	0.317200	0.174600
C1371	C137	0.939000	0.393800	0.125530
C1381	C138	0.971400	0.378600	0.083230
C1391	C139	0.033200	0.431900	0.060030
C1401	C140	0.049700	0.498200	0.071130
C1411	C141	0.012000	0.514600	0.112230
C1421	C142	0.019900	0.622500	0.095530
C1431	C143	0.057400	0.698400	0.113630
C1441	C144	0.051300	0.749900	0.086230
C1451	C145	0.096800	0.820600	0.109130
C1461	C146	0.143300	0.829800	0.155930
C1471	C147	0.142100	0.773400	0.177730
C1481	C148	0.187100	0.773600	0.228830
C1491	C149	0.212400	0.702600	0.286430
C1501	C150	0.283400	0.733200	0.288730
C1511	C151	0.314500	0.726200	0.334330
C1521	C152	0.271800	0.685300	0.382530
C1531	C153	0.174000	0.668600	0.335130
C1541	C154	0.876700	0.610400	0.215330
C1551	C155	0.898400	0.681300	0.233830
C1561	C156	0.962900	0.720300	0.259930
C1571	C157	0.007400	0.691700	0.263330
C1581	C158	0.984200	0.623500	0.243130
C1591	C159	0.011200	0.531500	0.257730
C1601	C160	0.064600	0.512400	0.242730
C1611	C161	0.062200	0.447900	0.258130
C1621	C162	0.114900	0.437400	0.235630
C1631	C163	0.163000	0.486200	0.197230
C1641	C164	0.165800	0.544800	0.187530
C1651	C165	0.212200	0.603800	0.144630
C1661	C166	0.320300	0.842700	0.059530
C1671	C167	0.255000	0.800700	0.036130
C1681	C168	0.210300	0.733800	0.059430
C1691	C169	0.233100	0.714000	0.108630
C1701	C170	0.300300	0.757400	0.127730
C1711	C171	0.393800	0.939000	0.207800
C1721	C172	0.378600	0.971400	0.250100
C1731	C173	0.431900	0.033200	0.273300
C1741	C174	0.498200	0.049700	0.262200
C1751	C175	0.514600	0.012000	0.221100
C1761	C176	0.622500	0.019900	0.237800
C1771	C177	0.698400	0.057400	0.219700
C1781	C178	0.749900	0.051300	0.247100
C1791	C179	0.820600	0.096800	0.224200
C1801	C180	0.829800	0.143300	0.177400
C1811	C181	0.773400	0.142100	0.155600
C1821	C182	0.773600	0.187100	0.104500
C1831	C183	0.702600	0.212400	0.046900
C1841	C184	0.733200	0.283400	0.044600
C1851	C185	0.726200	0.314500	0.999000
C1861	C186	0.685300	0.271800	0.950800
C1871	C187	0.668600	0.174000	0.998200
C1881	C188	0.610400	0.876700	0.118000
C1891	C189	0.681300	0.898400	0.099500
C1901	C190	0.720300	0.962900	0.073400
C1911	C191	0.691700	0.007400	0.070000
C1921	C192	0.623500	0.984200	0.090200
C1931	C193	0.531500	0.011200	0.075600
C1941	C194	0.512400	0.064600	0.090600
C1951	C195	0.447900	0.062200	0.075200
C1961	C196	0.437400	0.114900	0.097700
C1971	C197	0.486200	0.163000	0.136100
C1981	C198	0.544800	0.165800	0.145800
C1991	C199	0.603800	0.212200	0.188700
C2001	C200	0.842700	0.320300	0.273800
C2011	C201	0.800700	0.255000	0.297200
C2021	C202	0.733800	0.210300	0.273900
C2031	C203	0.714000	0.233100	0.224700
C2041	C204	0.757400	0.300300	0.205600
N411	N41	0.957400	0.460600	0.137530
N421	N42	0.038000	0.583300	0.127430
N431	N43	0.102000	0.710100	0.155930
N441	N44	0.177000	0.712500	0.238030
N451	N45	0.204300	0.661800	0.381130
N461	N46	0.921200	0.584400	0.220230
N471	N47	0.032100	0.598400	0.241330
N481	N48	0.117100	0.559300	0.210530
N491	N49	0.189100	0.649000	0.137330
N501	N50	0.344000	0.821500	0.104930
N511	N51	0.460600	0.957400	0.195800
N521	N52	0.583300	0.038000	0.205900
N531	N53	0.710100	0.102000	0.177400
N541	N54	0.712500	0.177000	0.095300
N551	N55	0.661800	0.204300	0.952200
N561	N56	0.584400	0.921200	0.113100
N571	N57	0.598400	0.032100	0.092000
N581	N58	0.559300	0.117100	0.122800
N591	N59	0.649000	0.189100	0.196000
N601	N60	0.821500	0.344000	0.228400
Cl51	Cl5	0.784170	0.448700	0.129040
Cl61	Cl6	0.448700	0.784170	0.204290
O171	O17	0.974900	0.602900	0.055930
O181	O18	0.227900	0.831400	0.253530
O191	O19	0.953900	0.487700	0.281130
O201	O20	0.263200	0.604100	0.121530
O211	O21	0.602900	0.974900	0.277400
O221	O22	0.831400	0.227900	0.079800
O231	O23	0.487700	0.953900	0.052200
O241	O24	0.604100	0.263200	0.211800
