data_HEKTUO_clean_PM
_symmetry_space_group_name_H-M	'P1'
_cell_length_a	10.071400
_cell_length_b	11.196300
_cell_length_c	18.942000
_cell_angle_alpha	99.986600
_cell_angle_beta	90.000000
_cell_angle_gamma	116.729000
_symmetry_Int_Tables_number 1

loop_
_symmetry_equiv_pos_as_xyz
'x,y,z'

loop_
_atom_site_label
_atom_site_type_symbol
_atom_site_fract_x
_atom_site_fract_y
_atom_site_fract_z
Cd11	Cd1	0.456230	0.810260	0.974120
Cd21	Cd2	0.645970	0.189740	0.525880
Cd31	Cd3	0.543770	0.189740	0.025880
Cd41	Cd4	0.354030	0.810260	0.474120
Cd51	Cd5	0.500000	0.500000	0.000000
Cd61	Cd6	0.000000	0.500000	0.500000
H11	H1	0.335700	0.347600	0.843700
H21	H2	0.202800	0.154000	0.757400
H31	H3	0.829100	0.125400	0.641100
H41	H4	0.043800	0.359800	0.659600
H51	H5	0.183500	0.048600	0.630100
H61	H6	0.171600	0.548600	0.748900
H71	H7	0.796900	0.782400	0.516800
H81	H8	0.988100	0.652400	0.656300
H91	H9	0.048800	0.846000	0.742600
H101	H10	0.703700	0.874600	0.858900
H111	H11	0.684000	0.640200	0.840400
H121	H12	0.134900	0.951400	0.869900
H131	H13	0.623000	0.451400	0.751100
H141	H14	0.014500	0.217600	0.983200
H151	H15	0.664300	0.652400	0.156300
H161	H16	0.797200	0.846000	0.242600
H171	H17	0.170900	0.874600	0.358900
H181	H18	0.956200	0.640200	0.340400
H191	H19	0.816500	0.951400	0.369900
H201	H20	0.828400	0.451400	0.251100
H211	H21	0.203100	0.217600	0.483200
H221	H22	0.011900	0.347600	0.343700
H231	H23	0.951200	0.154000	0.257400
H241	H24	0.296300	0.125400	0.141100
H251	H25	0.316000	0.359800	0.159600
H261	H26	0.865100	0.048600	0.130100
H271	H27	0.377000	0.548600	0.248900
H281	H28	0.985500	0.782400	0.016800
C11	C1	0.274800	0.349800	0.807500
C21	C2	0.070100	0.814000	0.536300
C31	C3	0.195800	0.233400	0.755200
C41	C4	0.872200	0.069600	0.623100
C51	C5	0.788200	0.947800	0.574300
C61	C6	0.100100	0.355600	0.697200
C71	C7	0.107500	0.234400	0.700300
C81	C8	0.084400	0.023800	0.616700
C91	C9	0.999500	0.902600	0.568200
C101	C10	0.021400	0.107800	0.645100
C111	C11	0.177900	0.468800	0.750700
C121	C12	0.264600	0.467800	0.806800
C131	C13	0.343900	0.590000	0.864800
C141	C14	0.853200	0.864600	0.548200
C151	C15	0.630900	0.910400	0.548400
C161	C16	0.925000	0.650200	0.692500
C171	C17	0.256100	0.186000	0.963700
C181	C18	0.962400	0.766600	0.744800
C191	C19	0.802600	0.930400	0.876900
C201	C20	0.840400	0.052200	0.925700
C211	C21	0.744500	0.644400	0.802800
C221	C22	0.873100	0.765600	0.799700
C231	C23	0.060600	0.976200	0.883300
C241	C24	0.096900	0.097400	0.931800
C251	C25	0.913600	0.892200	0.854900
C261	C26	0.709100	0.531200	0.749300
C271	C27	0.796800	0.532200	0.693200
C281	C28	0.753900	0.410000	0.635200
C291	C29	0.988600	0.135400	0.951800
C301	C30	0.720500	0.089600	0.951600
C311	C31	0.725200	0.650200	0.192500
C321	C32	0.929900	0.186000	0.463700
C331	C33	0.804200	0.766600	0.244800
C341	C34	0.127800	0.930400	0.376900
C351	C35	0.211800	0.052200	0.425700
C361	C36	0.899900	0.644400	0.302800
C371	C37	0.892500	0.765600	0.299700
C381	C38	0.915600	0.976200	0.383300
C391	C39	0.000500	0.097400	0.431800
C401	C40	0.978600	0.892200	0.354900
C411	C41	0.822100	0.531200	0.249300
C421	C42	0.735400	0.532200	0.193200
C431	C43	0.656100	0.410000	0.135200
C441	C44	0.146800	0.135400	0.451800
C451	C45	0.369100	0.089600	0.451600
C461	C46	0.075000	0.349800	0.307500
C471	C47	0.743900	0.814000	0.036300
C481	C48	0.037600	0.233400	0.255200
C491	C49	0.197400	0.069600	0.123100
C501	C50	0.159600	0.947800	0.074300
C511	C51	0.255500	0.355600	0.197200
C521	C52	0.126900	0.234400	0.200300
C531	C53	0.939400	0.023800	0.116700
C541	C54	0.903100	0.902600	0.068200
C551	C55	0.086400	0.107800	0.145100
C561	C56	0.290900	0.468800	0.250700
C571	C57	0.203200	0.467800	0.306800
C581	C58	0.246100	0.590000	0.364800
C591	C59	0.011400	0.864600	0.048200
C601	C60	0.279500	0.910400	0.048400
O11	O1	0.402200	0.583800	0.920500
O21	O2	0.349600	0.700600	0.857100
O31	O3	0.557500	0.796000	0.508700
O41	O4	0.578600	0.992400	0.566800
O51	O5	0.984100	0.693800	0.507900
O61	O6	0.210200	0.869400	0.541600
O71	O7	0.818400	0.416200	0.579500
O81	O8	0.649000	0.299400	0.642900
O91	O9	0.761500	0.204000	0.991300
O101	O10	0.586200	0.007600	0.933200
O111	O11	0.290300	0.306200	0.992100
O121	O12	0.340800	0.130600	0.958400
O131	O13	0.597800	0.416200	0.079500
O141	O14	0.650400	0.299400	0.142900
O151	O15	0.442500	0.204000	0.491300
O161	O16	0.421400	0.007600	0.433200
O171	O17	0.015900	0.306200	0.492100
O181	O18	0.789800	0.130600	0.458400
O191	O19	0.181600	0.583800	0.420500
O201	O20	0.351000	0.700600	0.357100
O211	O21	0.238500	0.796000	0.008700
O221	O22	0.413800	0.992400	0.066800
O231	O23	0.709700	0.693800	0.007900
O241	O24	0.659200	0.869400	0.041600
