data_HETZOW_clean_PM
_symmetry_space_group_name_H-M	'P1'
_cell_length_a	17.124000
_cell_length_b	17.124000
_cell_length_c	14.724000
_cell_angle_alpha	90.000000
_cell_angle_beta	90.000000
_cell_angle_gamma	90.000000
_symmetry_Int_Tables_number 1

loop_
_symmetry_equiv_pos_as_xyz
'x,y,z'

loop_
_atom_site_label
_atom_site_type_symbol
_atom_site_fract_x
_atom_site_fract_y
_atom_site_fract_z
V11	V1	0.064380	0.071890	0.770400
V21	V2	0.969890	0.812460	0.914100
V31	V3	0.183140	0.051490	0.911550
V41	V4	0.122280	0.890450	0.873660
O11	O1	0.119100	0.135200	0.878400
O21	O2	0.182110	0.833710	0.818600
O31	O3	0.128100	0.993700	0.820500
O41	O4	0.075500	0.823450	0.963600
O51	O5	0.020300	0.873000	0.820400
O61	O6	0.186300	0.944600	0.961900
N11	N1	0.222200	0.660900	0.840800
N21	N2	0.212700	0.350900	0.157700
C11	C1	0.194700	0.672600	0.925000
H11	H1	0.178900	0.722600	0.941600
C21	C2	0.240200	0.587700	0.817000
H21	H2	0.257200	0.578500	0.757900
C31	C3	0.195000	0.338500	0.071000
H31	H3	0.183200	0.287800	0.053000
C41	C4	0.226100	0.424700	0.182600
H41	H4	0.237500	0.434700	0.243300
C51	C5	0.224100	0.486900	0.123300
H51	H5	0.233000	0.537500	0.143900
C61	C6	0.234700	0.525000	0.875400
H61	H6	0.247300	0.475000	0.855800
C71	C7	0.193100	0.396700	0.006500
H71	H7	0.181700	0.384900	0.946200
C81	C8	0.208300	0.472800	0.032300
C91	C9	0.209900	0.537900	0.964600
C101	C10	0.189000	0.613600	0.987700
H81	H8	0.171100	0.624400	0.046000
V51	V5	0.935620	0.928110	0.770400
V61	V6	0.030110	0.187540	0.914100
V71	V7	0.816860	0.948510	0.911550
V81	V8	0.877720	0.109550	0.873660
O71	O7	0.880900	0.864800	0.878400
O81	O8	0.817890	0.166290	0.818600
O91	O9	0.871900	0.006300	0.820500
O101	O10	0.924500	0.176550	0.963600
O111	O11	0.979700	0.127000	0.820400
O121	O12	0.813700	0.055400	0.961900
N31	N3	0.777800	0.339100	0.840800
N41	N4	0.787300	0.649100	0.157700
C111	C11	0.805300	0.327400	0.925000
H91	H9	0.821100	0.277400	0.941600
C121	C12	0.759800	0.412300	0.817000
H101	H10	0.742800	0.421500	0.757900
C131	C13	0.805000	0.661500	0.071000
H111	H11	0.816800	0.712200	0.053000
C141	C14	0.773900	0.575300	0.182600
H121	H12	0.762500	0.565300	0.243300
C151	C15	0.775900	0.513100	0.123300
H131	H13	0.767000	0.462500	0.143900
C161	C16	0.765300	0.475000	0.875400
H141	H14	0.752700	0.525000	0.855800
C171	C17	0.806900	0.603300	0.006500
H151	H15	0.818300	0.615100	0.946200
C181	C18	0.791700	0.527200	0.032300
C191	C19	0.790100	0.462100	0.964600
C201	C20	0.811000	0.386400	0.987700
H161	H16	0.828900	0.375600	0.046000
V91	V9	0.071890	0.935620	0.229600
V101	V10	0.812460	0.030110	0.085900
V111	V11	0.051490	0.816860	0.088450
V121	V12	0.890450	0.877720	0.126340
O131	O13	0.135200	0.880900	0.121600
O141	O14	0.833710	0.817890	0.181400
O151	O15	0.993700	0.871900	0.179500
O161	O16	0.823450	0.924500	0.036400
O171	O17	0.873000	0.979700	0.179600
O181	O18	0.944600	0.813700	0.038100
N51	N5	0.660900	0.777800	0.159200
N61	N6	0.350900	0.787300	0.842300
C211	C21	0.672600	0.805300	0.075000
H171	H17	0.722600	0.821100	0.058400
C221	C22	0.587700	0.759800	0.183000
H181	H18	0.578500	0.742800	0.242100
C231	C23	0.338500	0.805000	0.929000
H191	H19	0.287800	0.816800	0.947000
C241	C24	0.424700	0.773900	0.817400
H201	H20	0.434700	0.762500	0.756700
C251	C25	0.486900	0.775900	0.876700
H211	H21	0.537500	0.767000	0.856100
C261	C26	0.525000	0.765300	0.124600
H221	H22	0.475000	0.752700	0.144200
C271	C27	0.396700	0.806900	0.993500
H231	H23	0.384900	0.818300	0.053800
C281	C28	0.472800	0.791700	0.967700
C291	C29	0.537900	0.790100	0.035400
C301	C30	0.613600	0.811000	0.012300
H241	H24	0.624400	0.828900	0.954000
V131	V13	0.928110	0.064380	0.229600
V141	V14	0.187540	0.969890	0.085900
V151	V15	0.948510	0.183140	0.088450
V161	V16	0.109550	0.122280	0.126340
O191	O19	0.864800	0.119100	0.121600
O201	O20	0.166290	0.182110	0.181400
O211	O21	0.006300	0.128100	0.179500
O221	O22	0.176550	0.075500	0.036400
O231	O23	0.127000	0.020300	0.179600
O241	O24	0.055400	0.186300	0.038100
N71	N7	0.339100	0.222200	0.159200
N81	N8	0.649100	0.212700	0.842300
C311	C31	0.327400	0.194700	0.075000
H251	H25	0.277400	0.178900	0.058400
C321	C32	0.412300	0.240200	0.183000
H261	H26	0.421500	0.257200	0.242100
C331	C33	0.661500	0.195000	0.929000
H271	H27	0.712200	0.183200	0.947000
C341	C34	0.575300	0.226100	0.817400
H281	H28	0.565300	0.237500	0.756700
C351	C35	0.513100	0.224100	0.876700
H291	H29	0.462500	0.233000	0.856100
C361	C36	0.475000	0.234700	0.124600
H301	H30	0.525000	0.247300	0.144200
C371	C37	0.603300	0.193100	0.993500
H311	H31	0.615100	0.181700	0.053800
C381	C38	0.527200	0.208300	0.967700
C391	C39	0.462100	0.209900	0.035400
C401	C40	0.386400	0.189000	0.012300
H321	H32	0.375600	0.171100	0.954000
V171	V17	0.564380	0.428110	0.270400
V181	V18	0.469890	0.687540	0.414100
V191	V19	0.683140	0.448510	0.411550
V201	V20	0.622280	0.609550	0.373660
O251	O25	0.619100	0.364800	0.378400
O261	O26	0.682110	0.666290	0.318600
O271	O27	0.628100	0.506300	0.320500
O281	O28	0.575500	0.676550	0.463600
O291	O29	0.520300	0.627000	0.320400
O301	O30	0.686300	0.555400	0.461900
N91	N9	0.722200	0.839100	0.340800
N101	N10	0.712700	0.149100	0.657700
C411	C41	0.694700	0.827400	0.425000
H331	H33	0.678900	0.777400	0.441600
C421	C42	0.740200	0.912300	0.317000
H341	H34	0.757200	0.921500	0.257900
C431	C43	0.695000	0.161500	0.571000
H351	H35	0.683200	0.212200	0.553000
C441	C44	0.726100	0.075300	0.682600
H361	H36	0.737500	0.065300	0.743300
C451	C45	0.724100	0.013100	0.623300
H371	H37	0.733000	0.962500	0.643900
C461	C46	0.734700	0.975000	0.375400
H381	H38	0.747300	0.025000	0.355800
C471	C47	0.693100	0.103300	0.506500
H391	H39	0.681700	0.115100	0.446200
C481	C48	0.708300	0.027200	0.532300
C491	C49	0.709900	0.962100	0.464600
C501	C50	0.689000	0.886400	0.487700
H401	H40	0.671100	0.875600	0.546000
V211	V21	0.435620	0.571890	0.270400
V221	V22	0.530110	0.312460	0.414100
V231	V23	0.316860	0.551490	0.411550
V241	V24	0.377720	0.390450	0.373660
O311	O31	0.380900	0.635200	0.378400
O321	O32	0.317890	0.333710	0.318600
O331	O33	0.371900	0.493700	0.320500
O341	O34	0.424500	0.323450	0.463600
O351	O35	0.479700	0.373000	0.320400
O361	O36	0.313700	0.444600	0.461900
N111	N11	0.277800	0.160900	0.340800
N121	N12	0.287300	0.850900	0.657700
C511	C51	0.305300	0.172600	0.425000
H411	H41	0.321100	0.222600	0.441600
C521	C52	0.259800	0.087700	0.317000
H421	H42	0.242800	0.078500	0.257900
C531	C53	0.305000	0.838500	0.571000
H431	H43	0.316800	0.787800	0.553000
C541	C54	0.273900	0.924700	0.682600
H441	H44	0.262500	0.934700	0.743300
C551	C55	0.275900	0.986900	0.623300
H451	H45	0.267000	0.037500	0.643900
C561	C56	0.265300	0.025000	0.375400
H461	H46	0.252700	0.975000	0.355800
C571	C57	0.306900	0.896700	0.506500
H471	H47	0.318300	0.884900	0.446200
C581	C58	0.291700	0.972800	0.532300
C591	C59	0.290100	0.037900	0.464600
C601	C60	0.311000	0.113600	0.487700
H481	H48	0.328900	0.124400	0.546000
V251	V25	0.571890	0.564380	0.729600
V261	V26	0.312460	0.469890	0.585900
V271	V27	0.551490	0.683140	0.588450
V281	V28	0.390450	0.622280	0.626340
O371	O37	0.635200	0.619100	0.621600
O381	O38	0.333710	0.682110	0.681400
O391	O39	0.493700	0.628100	0.679500
O401	O40	0.323450	0.575500	0.536400
O411	O41	0.373000	0.520300	0.679600
O421	O42	0.444600	0.686300	0.538100
N131	N13	0.160900	0.722200	0.659200
N141	N14	0.850900	0.712700	0.342300
C611	C61	0.172600	0.694700	0.575000
H491	H49	0.222600	0.678900	0.558400
C621	C62	0.087700	0.740200	0.683000
H501	H50	0.078500	0.757200	0.742100
C631	C63	0.838500	0.695000	0.429000
H511	H51	0.787800	0.683200	0.447000
C641	C64	0.924700	0.726100	0.317400
H521	H52	0.934700	0.737500	0.256700
C651	C65	0.986900	0.724100	0.376700
H531	H53	0.037500	0.733000	0.356100
C661	C66	0.025000	0.734700	0.624600
H541	H54	0.975000	0.747300	0.644200
C671	C67	0.896700	0.693100	0.493500
H551	H55	0.884900	0.681700	0.553800
C681	C68	0.972800	0.708300	0.467700
C691	C69	0.037900	0.709900	0.535400
C701	C70	0.113600	0.689000	0.512300
H561	H56	0.124400	0.671100	0.454000
V291	V29	0.428110	0.435620	0.729600
V301	V30	0.687540	0.530110	0.585900
V311	V31	0.448510	0.316860	0.588450
V321	V32	0.609550	0.377720	0.626340
O431	O43	0.364800	0.380900	0.621600
O441	O44	0.666290	0.317890	0.681400
O451	O45	0.506300	0.371900	0.679500
O461	O46	0.676550	0.424500	0.536400
O471	O47	0.627000	0.479700	0.679600
O481	O48	0.555400	0.313700	0.538100
N151	N15	0.839100	0.277800	0.659200
N161	N16	0.149100	0.287300	0.342300
C711	C71	0.827400	0.305300	0.575000
H571	H57	0.777400	0.321100	0.558400
C721	C72	0.912300	0.259800	0.683000
H581	H58	0.921500	0.242800	0.742100
C731	C73	0.161500	0.305000	0.429000
H591	H59	0.212200	0.316800	0.447000
C741	C74	0.075300	0.273900	0.317400
H601	H60	0.065300	0.262500	0.256700
C751	C75	0.013100	0.275900	0.376700
H611	H61	0.962500	0.267000	0.356100
C761	C76	0.975000	0.265300	0.624600
H621	H62	0.025000	0.252700	0.644200
C771	C77	0.103300	0.306900	0.493500
H631	H63	0.115100	0.318300	0.553800
C781	C78	0.027200	0.291700	0.467700
C791	C79	0.962100	0.290100	0.535400
C801	C80	0.886400	0.311000	0.512300
H641	H64	0.875600	0.328900	0.454000
O491	O49	0.000000	0.000000	0.715800
O501	O50	0.000000	0.000000	0.797800
O511	O51	0.000000	0.000000	0.284200
O521	O52	0.000000	0.000000	0.202200
O531	O53	0.500000	0.500000	0.215800
O541	O54	0.500000	0.500000	0.297800
O551	O55	0.500000	0.500000	0.784200
O561	O56	0.500000	0.500000	0.702200
Zn11	Zn1	0.255710	0.755710	0.750000
Zn21	Zn2	0.744290	0.244290	0.750000
Zn31	Zn3	0.755710	0.744290	0.250000
Zn41	Zn4	0.244290	0.255710	0.250000
