data_HEXNOO_clean_PM
_symmetry_space_group_name_H-M	'P1'
_cell_length_a	24.056900
_cell_length_b	16.084000
_cell_length_c	16.567900
_cell_angle_alpha	90.000000
_cell_angle_beta	132.762000
_cell_angle_gamma	90.000000
_symmetry_Int_Tables_number 1

loop_
_symmetry_equiv_pos_as_xyz
'x,y,z'

loop_
_atom_site_label
_atom_site_type_symbol
_atom_site_fract_x
_atom_site_fract_y
_atom_site_fract_z
C11	C1	0.008700	0.856100	0.358300
H11	H1	0.057600	0.846600	0.428700
C21	C2	0.985600	0.805900	0.273600
H21	H2	0.017300	0.762600	0.285500
C31	C3	0.914600	0.819700	0.169500
C41	C4	0.871100	0.883300	0.157400
H31	H3	0.822800	0.895600	0.087500
C51	C5	0.899300	0.929000	0.249200
H41	H4	0.868300	0.971500	0.240800
C61	C6	0.036900	0.677800	0.108900
H51	H5	0.088000	0.689100	0.145100
C71	C7	0.000300	0.735500	0.118400
H61	H6	0.024400	0.786100	0.156900
C81	C8	0.925800	0.718200	0.069600
C91	C9	0.892600	0.645000	0.007400
H71	H7	0.841300	0.632300	0.969200
C101	C10	0.934600	0.592000	0.002100
H81	H8	0.911100	0.542400	0.960400
C111	C11	0.950800	0.150400	0.344700
H91	H9	0.997100	0.137900	0.363700
C121	C12	0.910100	0.219600	0.279900
H101	H10	0.928300	0.253300	0.254800
C131	C13	0.842600	0.239300	0.251800
C141	C14	0.818500	0.186900	0.289900
H111	H11	0.772700	0.197800	0.272700
C151	C15	0.861400	0.120200	0.351700
H121	H12	0.843200	0.084900	0.375400
C161	C16	0.641400	0.445500	0.020500
H131	H13	0.619500	0.483900	0.962100
C171	C17	0.705600	0.404000	0.059400
H141	H14	0.726600	0.413400	0.028000
C181	C18	0.739600	0.347400	0.146800
C191	C19	0.706200	0.338400	0.189200
H151	H15	0.727100	0.302200	0.249300
C201	C20	0.641700	0.384000	0.140900
H161	H16	0.619600	0.376800	0.170900
C211	C21	0.196100	0.572000	0.048700
H171	H17	0.226200	0.526700	0.096200
C221	C22	0.223500	0.620000	0.012600
H181	H18	0.270200	0.607000	0.033100
C231	C23	0.180100	0.688200	0.944900
C241	C24	0.113300	0.704000	0.919300
H191	H19	0.083400	0.750800	0.875200
C251	C25	0.090100	0.652600	0.957300
H201	H20	0.043600	0.664900	0.937600
C261	C26	0.154100	0.899200	0.713600
H211	H21	0.178300	0.943600	0.709900
C271	C27	0.197700	0.851400	0.806700
H221	H22	0.250100	0.862600	0.864800
C281	C28	0.163800	0.786600	0.814700
C291	C29	0.086500	0.772100	0.724000
H231	H23	0.060800	0.727700	0.724600
C301	C30	0.049300	0.823600	0.634700
H241	H24	0.997400	0.812200	0.573200
C311	C31	0.214300	0.357100	0.208500
H251	H25	0.222900	0.380000	0.269000
C321	C32	0.258200	0.289300	0.229300
H261	H26	0.294300	0.266000	0.300800
C331	C33	0.247700	0.257200	0.143400
C341	C34	0.192700	0.293600	0.038800
H271	H27	0.184200	0.272800	0.977400
C351	C35	0.152600	0.358200	0.027600
H281	H28	0.115500	0.381900	0.956500
C361	C36	0.468400	0.145900	0.431700
H291	H29	0.502600	0.172200	0.501500
C371	C37	0.405300	0.189500	0.345100
H301	H30	0.397900	0.245200	0.355200
C381	C38	0.352900	0.151800	0.243400
C391	C39	0.371400	0.072400	0.232700
H311	H31	0.339600	0.046100	0.162800
C401	C40	0.434500	0.033000	0.321900
H321	H32	0.443800	0.978100	0.312300
Cd11	Cd1	0.002750	0.990650	0.497440
Cd21	Cd2	0.086130	0.500760	0.080560
N11	N1	0.006600	0.605700	0.052100
N21	N2	0.885500	0.771200	0.078400
H331	H33	0.836500	0.775000	0.021000
N31	N3	0.967500	0.916800	0.349000
N41	N4	0.927500	0.099800	0.382200
N51	N5	0.804600	0.308900	0.185200
H341	H34	0.826000	0.332400	0.164000
N61	N6	0.607400	0.435900	0.058600
N71	N7	0.129400	0.585200	0.021100
N81	N8	0.207100	0.736000	0.908400
H351	H35	0.256200	0.734600	0.947800
N91	N9	0.080300	0.888200	0.627600
N101	N10	0.161300	0.392300	0.111000
N111	N11	0.287000	0.189000	0.150600
H361	H36	0.267000	0.166500	0.087500
N121	N12	0.484500	0.066500	0.422700
C411	C41	0.508700	0.643900	0.858300
H371	H37	0.557600	0.653400	0.928700
C421	C42	0.485600	0.694100	0.773600
H381	H38	0.517300	0.737400	0.785500
C431	C43	0.414600	0.680300	0.669500
C441	C44	0.371100	0.616700	0.657400
H391	H39	0.322800	0.604400	0.587500
C451	C45	0.399300	0.571000	0.749200
H401	H40	0.368300	0.528500	0.740800
C461	C46	0.536900	0.822200	0.608900
H411	H41	0.588000	0.810900	0.645100
C471	C47	0.500300	0.764500	0.618400
H421	H42	0.524400	0.713900	0.656900
C481	C48	0.425800	0.781800	0.569600
C491	C49	0.392600	0.855000	0.507400
H431	H43	0.341300	0.867700	0.469200
C501	C50	0.434600	0.908000	0.502100
H441	H44	0.411100	0.957600	0.460400
C511	C51	0.450800	0.349600	0.844700
H451	H45	0.497100	0.362100	0.863700
C521	C52	0.410100	0.280400	0.779900
H461	H46	0.428300	0.246700	0.754800
C531	C53	0.342600	0.260700	0.751800
C541	C54	0.318500	0.313100	0.789900
H471	H47	0.272700	0.302200	0.772700
C551	C55	0.361400	0.379800	0.851700
H481	H48	0.343200	0.415100	0.875400
C561	C56	0.141400	0.054500	0.520500
H491	H49	0.119500	0.016100	0.462100
C571	C57	0.205600	0.096000	0.559400
H501	H50	0.226600	0.086600	0.528000
C581	C58	0.239600	0.152600	0.646800
C591	C59	0.206200	0.161600	0.689200
H511	H51	0.227100	0.197800	0.749300
C601	C60	0.141700	0.116000	0.640900
H521	H52	0.119600	0.123200	0.670900
C611	C61	0.696100	0.928000	0.548700
H531	H53	0.726200	0.973300	0.596200
C621	C62	0.723500	0.880000	0.512600
H541	H54	0.770200	0.893000	0.533100
C631	C63	0.680100	0.811800	0.444900
C641	C64	0.613300	0.796000	0.419300
H551	H55	0.583400	0.749200	0.375200
C651	C65	0.590100	0.847400	0.457300
H561	H56	0.543600	0.835100	0.437600
C661	C66	0.654100	0.600800	0.213600
H571	H57	0.678300	0.556400	0.209900
C671	C67	0.697700	0.648600	0.306700
H581	H58	0.750100	0.637400	0.364800
C681	C68	0.663800	0.713400	0.314700
C691	C69	0.586500	0.727900	0.224000
H591	H59	0.560800	0.772300	0.224600
C701	C70	0.549300	0.676400	0.134700
H601	H60	0.497400	0.687800	0.073200
C711	C71	0.714300	0.142900	0.708500
H611	H61	0.722900	0.120000	0.769000
C721	C72	0.758200	0.210700	0.729300
H621	H62	0.794300	0.234000	0.800800
C731	C73	0.747700	0.242800	0.643400
C741	C74	0.692700	0.206400	0.538800
H631	H63	0.684200	0.227200	0.477400
C751	C75	0.652600	0.141800	0.527600
H641	H64	0.615500	0.118100	0.456500
C761	C76	0.968400	0.354100	0.931700
H651	H65	0.002600	0.327800	0.001500
C771	C77	0.905300	0.310500	0.845100
H661	H66	0.897900	0.254800	0.855200
C781	C78	0.852900	0.348200	0.743400
C791	C79	0.871400	0.427600	0.732700
H671	H67	0.839600	0.453900	0.662800
C801	C80	0.934500	0.467000	0.821900
H681	H68	0.943800	0.521900	0.812300
Cd31	Cd3	0.502750	0.509350	0.997440
Cd41	Cd4	0.586130	0.999240	0.580560
N131	N13	0.506600	0.894300	0.552100
N141	N14	0.385500	0.728800	0.578400
H691	H69	0.336500	0.725000	0.521000
N151	N15	0.467500	0.583200	0.849000
N161	N16	0.427500	0.400200	0.882200
N171	N17	0.304600	0.191100	0.685200
H701	H70	0.326000	0.167600	0.664000
N181	N18	0.107400	0.064100	0.558600
N191	N19	0.629400	0.914800	0.521100
N201	N20	0.707100	0.764000	0.408400
H711	H71	0.756200	0.765400	0.447800
N211	N21	0.580300	0.611800	0.127600
N221	N22	0.661300	0.107700	0.611000
N231	N23	0.787000	0.311000	0.650600
H721	H72	0.767000	0.333500	0.587500
N241	N24	0.984500	0.433500	0.922700
C811	C81	0.508700	0.356100	0.358300
H731	H73	0.557600	0.346600	0.428700
C821	C82	0.485600	0.305900	0.273600
H741	H74	0.517300	0.262600	0.285500
C831	C83	0.414600	0.319700	0.169500
C841	C84	0.371100	0.383300	0.157400
H751	H75	0.322800	0.395600	0.087500
C851	C85	0.399300	0.429000	0.249200
H761	H76	0.368300	0.471500	0.240800
C861	C86	0.536900	0.177800	0.108900
H771	H77	0.588000	0.189100	0.145100
C871	C87	0.500300	0.235500	0.118400
H781	H78	0.524400	0.286100	0.156900
C881	C88	0.425800	0.218200	0.069600
C891	C89	0.392600	0.145000	0.007400
H791	H79	0.341300	0.132300	0.969200
C901	C90	0.434600	0.092000	0.002100
H801	H80	0.411100	0.042400	0.960400
C911	C91	0.450800	0.650400	0.344700
H811	H81	0.497100	0.637900	0.363700
C921	C92	0.410100	0.719600	0.279900
H821	H82	0.428300	0.753300	0.254800
C931	C93	0.342600	0.739300	0.251800
C941	C94	0.318500	0.686900	0.289900
H831	H83	0.272700	0.697800	0.272700
C951	C95	0.361400	0.620200	0.351700
H841	H84	0.343200	0.584900	0.375400
C961	C96	0.141400	0.945500	0.020500
H851	H85	0.119500	0.983900	0.962100
C971	C97	0.205600	0.904000	0.059400
H861	H86	0.226600	0.913400	0.028000
C981	C98	0.239600	0.847400	0.146800
C991	C99	0.206200	0.838400	0.189200
H871	H87	0.227100	0.802200	0.249300
C1001	C100	0.141700	0.884000	0.140900
H881	H88	0.119600	0.876800	0.170900
C1011	C101	0.696100	0.072000	0.048700
H891	H89	0.726200	0.026700	0.096200
C1021	C102	0.723500	0.120000	0.012600
H901	H90	0.770200	0.107000	0.033100
C1031	C103	0.680100	0.188200	0.944900
C1041	C104	0.613300	0.204000	0.919300
H911	H91	0.583400	0.250800	0.875200
C1051	C105	0.590100	0.152600	0.957300
H921	H92	0.543600	0.164900	0.937600
C1061	C106	0.654100	0.399200	0.713600
H931	H93	0.678300	0.443600	0.709900
C1071	C107	0.697700	0.351400	0.806700
H941	H94	0.750100	0.362600	0.864800
C1081	C108	0.663800	0.286600	0.814700
C1091	C109	0.586500	0.272100	0.724000
H951	H95	0.560800	0.227700	0.724600
C1101	C110	0.549300	0.323600	0.634700
H961	H96	0.497400	0.312200	0.573200
C1111	C111	0.714300	0.857100	0.208500
H971	H97	0.722900	0.880000	0.269000
C1121	C112	0.758200	0.789300	0.229300
H981	H98	0.794300	0.766000	0.300800
C1131	C113	0.747700	0.757200	0.143400
C1141	C114	0.692700	0.793600	0.038800
H991	H99	0.684200	0.772800	0.977400
C1151	C115	0.652600	0.858200	0.027600
H1001	H100	0.615500	0.881900	0.956500
C1161	C116	0.968400	0.645900	0.431700
H1011	H101	0.002600	0.672200	0.501500
C1171	C117	0.905300	0.689500	0.345100
H1021	H102	0.897900	0.745200	0.355200
C1181	C118	0.852900	0.651800	0.243400
C1191	C119	0.871400	0.572400	0.232700
H1031	H103	0.839600	0.546100	0.162800
C1201	C120	0.934500	0.533000	0.321900
H1041	H104	0.943800	0.478100	0.312300
Cd51	Cd5	0.502750	0.490650	0.497440
Cd61	Cd6	0.586130	0.000760	0.080560
N251	N25	0.506600	0.105700	0.052100
N261	N26	0.385500	0.271200	0.078400
H1051	H105	0.336500	0.275000	0.021000
N271	N27	0.467500	0.416800	0.349000
N281	N28	0.427500	0.599800	0.382200
N291	N29	0.304600	0.808900	0.185200
H1061	H106	0.326000	0.832400	0.164000
N301	N30	0.107400	0.935900	0.058600
N311	N31	0.629400	0.085200	0.021100
N321	N32	0.707100	0.236000	0.908400
H1071	H107	0.756200	0.234600	0.947800
N331	N33	0.580300	0.388200	0.627600
N341	N34	0.661300	0.892300	0.111000
N351	N35	0.787000	0.689000	0.150600
H1081	H108	0.767000	0.666500	0.087500
N361	N36	0.984500	0.566500	0.422700
C1211	C121	0.008700	0.143900	0.858300
H1091	H109	0.057600	0.153400	0.928700
C1221	C122	0.985600	0.194100	0.773600
H1101	H110	0.017300	0.237400	0.785500
C1231	C123	0.914600	0.180300	0.669500
C1241	C124	0.871100	0.116700	0.657400
H1111	H111	0.822800	0.104400	0.587500
C1251	C125	0.899300	0.071000	0.749200
H1121	H112	0.868300	0.028500	0.740800
C1261	C126	0.036900	0.322200	0.608900
H1131	H113	0.088000	0.310900	0.645100
C1271	C127	0.000300	0.264500	0.618400
H1141	H114	0.024400	0.213900	0.656900
C1281	C128	0.925800	0.281800	0.569600
C1291	C129	0.892600	0.355000	0.507400
H1151	H115	0.841300	0.367700	0.469200
C1301	C130	0.934600	0.408000	0.502100
H1161	H116	0.911100	0.457600	0.460400
C1311	C131	0.950800	0.849600	0.844700
H1171	H117	0.997100	0.862100	0.863700
C1321	C132	0.910100	0.780400	0.779900
H1181	H118	0.928300	0.746700	0.754800
C1331	C133	0.842600	0.760700	0.751800
C1341	C134	0.818500	0.813100	0.789900
H1191	H119	0.772700	0.802200	0.772700
C1351	C135	0.861400	0.879800	0.851700
H1201	H120	0.843200	0.915100	0.875400
C1361	C136	0.641400	0.554500	0.520500
H1211	H121	0.619500	0.516100	0.462100
C1371	C137	0.705600	0.596000	0.559400
H1221	H122	0.726600	0.586600	0.528000
C1381	C138	0.739600	0.652600	0.646800
C1391	C139	0.706200	0.661600	0.689200
H1231	H123	0.727100	0.697800	0.749300
C1401	C140	0.641700	0.616000	0.640900
H1241	H124	0.619600	0.623200	0.670900
C1411	C141	0.196100	0.428000	0.548700
H1251	H125	0.226200	0.473300	0.596200
C1421	C142	0.223500	0.380000	0.512600
H1261	H126	0.270200	0.393000	0.533100
C1431	C143	0.180100	0.311800	0.444900
C1441	C144	0.113300	0.296000	0.419300
H1271	H127	0.083400	0.249200	0.375200
C1451	C145	0.090100	0.347400	0.457300
H1281	H128	0.043600	0.335100	0.437600
C1461	C146	0.154100	0.100800	0.213600
H1291	H129	0.178300	0.056400	0.209900
C1471	C147	0.197700	0.148600	0.306700
H1301	H130	0.250100	0.137400	0.364800
C1481	C148	0.163800	0.213400	0.314700
C1491	C149	0.086500	0.227900	0.224000
H1311	H131	0.060800	0.272300	0.224600
C1501	C150	0.049300	0.176400	0.134700
H1321	H132	0.997400	0.187800	0.073200
C1511	C151	0.214300	0.642900	0.708500
H1331	H133	0.222900	0.620000	0.769000
C1521	C152	0.258200	0.710700	0.729300
H1341	H134	0.294300	0.734000	0.800800
C1531	C153	0.247700	0.742800	0.643400
C1541	C154	0.192700	0.706400	0.538800
H1351	H135	0.184200	0.727200	0.477400
C1551	C155	0.152600	0.641800	0.527600
H1361	H136	0.115500	0.618100	0.456500
C1561	C156	0.468400	0.854100	0.931700
H1371	H137	0.502600	0.827800	0.001500
C1571	C157	0.405300	0.810500	0.845100
H1381	H138	0.397900	0.754800	0.855200
C1581	C158	0.352900	0.848200	0.743400
C1591	C159	0.371400	0.927600	0.732700
H1391	H139	0.339600	0.953900	0.662800
C1601	C160	0.434500	0.967000	0.821900
H1401	H140	0.443800	0.021900	0.812300
Cd71	Cd7	0.002750	0.009350	0.997440
Cd81	Cd8	0.086130	0.499240	0.580560
N371	N37	0.006600	0.394300	0.552100
N381	N38	0.885500	0.228800	0.578400
H1411	H141	0.836500	0.225000	0.521000
N391	N39	0.967500	0.083200	0.849000
N401	N40	0.927500	0.900200	0.882200
N411	N41	0.804600	0.691100	0.685200
H1421	H142	0.826000	0.667600	0.664000
N421	N42	0.607400	0.564100	0.558600
N431	N43	0.129400	0.414800	0.521100
N441	N44	0.207100	0.264000	0.408400
H1431	H143	0.256200	0.265400	0.447800
N451	N45	0.080300	0.111800	0.127600
N461	N46	0.161300	0.607700	0.611000
N471	N47	0.287000	0.811000	0.650600
H1441	H144	0.267000	0.833500	0.587500
N481	N48	0.484500	0.933500	0.922700
