data_HEZSEK_clean_PM
_symmetry_space_group_name_H-M	'P1'
_cell_length_a	8.818000
_cell_length_b	10.200000
_cell_length_c	19.737000
_cell_angle_alpha	90.000000
_cell_angle_beta	102.400000
_cell_angle_gamma	90.000000
_symmetry_Int_Tables_number 1

loop_
_symmetry_equiv_pos_as_xyz
'x,y,z'

loop_
_atom_site_label
_atom_site_type_symbol
_atom_site_fract_x
_atom_site_fract_y
_atom_site_fract_z
Ba11	Ba1	0.656580	0.810350	0.967740
Ba21	Ba2	0.343420	0.310350	0.532260
Ba31	Ba3	0.343420	0.189650	0.032260
Ba41	Ba4	0.656580	0.689650	0.467740
Cu11	Cu1	0.763770	0.066180	0.796230
Cu21	Cu2	0.236230	0.566180	0.703770
Cu31	Cu3	0.236230	0.933820	0.203770
Cu41	Cu4	0.763770	0.433820	0.296230
H11	H1	0.737400	0.320200	0.688300
H21	H2	0.865100	0.416700	0.742500
H31	H3	0.615300	0.419400	0.774700
H41	H4	0.754400	0.357400	0.836800
H51	H5	0.901400	0.175500	0.658700
H61	H6	0.058100	0.127500	0.694900
H71	H7	0.141400	0.239500	0.822800
H81	H8	0.055500	0.367100	0.827100
H91	H9	0.629700	0.260400	0.892400
H101	H10	0.447400	0.272000	0.849400
H111	H11	0.425900	0.276100	0.709600
H121	H12	0.396400	0.148600	0.747600
H131	H13	0.262600	0.820200	0.811700
H141	H14	0.134900	0.916700	0.757500
H151	H15	0.384700	0.919400	0.725300
H161	H16	0.245600	0.857400	0.663200
H171	H17	0.098600	0.675500	0.841300
H181	H18	0.941900	0.627500	0.805100
H191	H19	0.858600	0.739500	0.677200
H201	H20	0.944500	0.867100	0.672900
H211	H21	0.370300	0.760400	0.607600
H221	H22	0.552600	0.772000	0.650600
H231	H23	0.574100	0.776100	0.790400
H241	H24	0.603600	0.648600	0.752400
H251	H25	0.262600	0.679800	0.311700
H261	H26	0.134900	0.583300	0.257500
H271	H27	0.384700	0.580600	0.225300
H281	H28	0.245600	0.642600	0.163200
H291	H29	0.098600	0.824500	0.341300
H301	H30	0.941900	0.872500	0.305100
H311	H31	0.858600	0.760500	0.177200
H321	H32	0.944500	0.632900	0.172900
H331	H33	0.370300	0.739600	0.107600
H341	H34	0.552600	0.728000	0.150600
H351	H35	0.574100	0.723900	0.290400
H361	H36	0.603600	0.851400	0.252400
H371	H37	0.737400	0.179800	0.188300
H381	H38	0.865100	0.083300	0.242500
H391	H39	0.615300	0.080600	0.274700
H401	H40	0.754400	0.142600	0.336800
H411	H41	0.901400	0.324500	0.158700
H421	H42	0.058100	0.372500	0.194900
H431	H43	0.141400	0.260500	0.322800
H441	H44	0.055500	0.132900	0.327100
H451	H45	0.629700	0.239600	0.392400
H461	H46	0.447400	0.228000	0.349400
H471	H47	0.425900	0.223900	0.209600
H481	H48	0.396400	0.351400	0.247600
C11	C1	0.796060	0.337070	0.737470
C21	C2	0.690660	0.344040	0.788340
C31	C3	0.078710	0.314300	0.671190
C41	C4	0.987960	0.204430	0.698420
C51	C5	0.031960	0.270350	0.820670
C61	C6	0.999620	0.215240	0.887600
C71	C7	0.544720	0.217200	0.857110
C81	C8	0.514540	0.078620	0.880440
C91	C9	0.483120	0.196010	0.731530
C101	C10	0.530190	0.103360	0.679370
C111	C11	0.203940	0.837070	0.762530
C121	C12	0.309340	0.844040	0.711660
C131	C13	0.921290	0.814300	0.828810
C141	C14	0.012040	0.704430	0.801580
C151	C15	0.968040	0.770350	0.679330
C161	C16	0.000380	0.715240	0.612400
C171	C17	0.455280	0.717200	0.642890
C181	C18	0.485460	0.578620	0.619560
C191	C19	0.516880	0.696010	0.768470
C201	C20	0.469810	0.603360	0.820630
C211	C21	0.203940	0.662930	0.262530
C221	C22	0.309340	0.655960	0.211660
C231	C23	0.921290	0.685700	0.328810
C241	C24	0.012040	0.795570	0.301580
C251	C25	0.968040	0.729650	0.179330
C261	C26	0.000380	0.784760	0.112400
C271	C27	0.455280	0.782800	0.142890
C281	C28	0.485460	0.921380	0.119560
C291	C29	0.516880	0.803990	0.268470
C301	C30	0.469810	0.896640	0.320630
C311	C31	0.796060	0.162930	0.237470
C321	C32	0.690660	0.155960	0.288340
C331	C33	0.078710	0.185700	0.171190
C341	C34	0.987960	0.295570	0.198420
C351	C35	0.031960	0.229650	0.320670
C361	C36	0.999620	0.284760	0.387600
C371	C37	0.544720	0.282800	0.357110
C381	C38	0.514540	0.421380	0.380440
C391	C39	0.483120	0.303990	0.231530
C401	C40	0.530190	0.396640	0.179370
N11	N1	0.918320	0.237000	0.757410
N21	N2	0.609520	0.218140	0.793840
N31	N3	0.081680	0.737000	0.742590
N41	N4	0.390480	0.718140	0.706160
N51	N5	0.081680	0.763000	0.242590
N61	N6	0.390480	0.781860	0.206160
N71	N7	0.918320	0.263000	0.257410
N81	N8	0.609520	0.281860	0.293840
O11	O1	0.117890	0.295010	0.614860
O21	O2	0.108830	0.414700	0.709010
O31	O3	0.079850	0.255870	0.942550
O41	O4	0.893890	0.129070	0.884730
O51	O5	0.434770	0.067620	0.924120
O61	O6	0.579100	0.985470	0.856010
O71	O7	0.446620	0.099610	0.620630
O81	O8	0.647360	0.030240	0.700710
O91	O9	0.882110	0.795010	0.885140
O101	O10	0.891170	0.914700	0.790990
O111	O11	0.920150	0.755870	0.557450
O121	O12	0.106110	0.629070	0.615270
O131	O13	0.565230	0.567620	0.575880
O141	O14	0.420900	0.485470	0.643990
O151	O15	0.553380	0.599610	0.879370
O161	O16	0.352640	0.530240	0.799290
O171	O17	0.882110	0.704990	0.385140
O181	O18	0.891170	0.585300	0.290990
O191	O19	0.920150	0.744130	0.057450
O201	O20	0.106110	0.870930	0.115270
O211	O21	0.565230	0.932380	0.075880
O221	O22	0.420900	0.014530	0.143990
O231	O23	0.553380	0.900390	0.379370
O241	O24	0.352640	0.969760	0.299290
O251	O25	0.117890	0.204990	0.114860
O261	O26	0.108830	0.085300	0.209010
O271	O27	0.079850	0.244130	0.442550
O281	O28	0.893890	0.370930	0.384730
O291	O29	0.434770	0.432380	0.424120
O301	O30	0.579100	0.514530	0.356010
O311	O31	0.446620	0.400390	0.120630
O321	O32	0.647360	0.469760	0.200710
