data_HGCNCO_clean_PM
_symmetry_space_group_name_H-M	'P1'
_cell_length_a	9.163000
_cell_length_b	14.057000
_cell_length_c	16.276000
_cell_angle_alpha	90.000000
_cell_angle_beta	92.880000
_cell_angle_gamma	90.000000
_symmetry_Int_Tables_number 1

loop_
_symmetry_equiv_pos_as_xyz
'x,y,z'

loop_
_atom_site_label
_atom_site_type_symbol
_atom_site_fract_x
_atom_site_fract_y
_atom_site_fract_z
Co11	Co1	0.518670	0.650110	0.753400
Co21	Co2	0.981330	0.150110	0.746600
Co31	Co3	0.481330	0.349890	0.246600
Co41	Co4	0.018670	0.849890	0.253400
Hg11	Hg1	0.015290	0.796390	0.581610
Hg21	Hg2	0.484710	0.296390	0.918390
Hg31	Hg3	0.984710	0.203610	0.418390
Hg41	Hg4	0.515290	0.703610	0.081610
C11	C1	0.843000	0.741500	0.741200
C21	C2	0.874100	0.997500	0.608200
C31	C3	0.361700	0.782700	0.612400
C41	C4	0.946300	0.714000	0.404800
C51	C5	0.657000	0.241500	0.758800
C61	C6	0.625900	0.497500	0.891800
C71	C7	0.138300	0.282700	0.887600
C81	C8	0.553700	0.214000	0.095200
C91	C9	0.157000	0.258500	0.258800
C101	C10	0.125900	0.002500	0.391800
C111	C11	0.638300	0.217300	0.387600
C121	C12	0.053700	0.286000	0.595200
C131	C13	0.343000	0.758500	0.241200
C141	C14	0.374100	0.502500	0.108200
C151	C15	0.861700	0.717300	0.112400
C161	C16	0.446300	0.786000	0.904800
S11	S1	0.015900	0.771020	0.733430
S21	S2	0.822120	0.916880	0.540690
S31	S3	0.268090	0.842930	0.540940
S41	S4	0.934380	0.652830	0.493550
S51	S5	0.484100	0.271020	0.766570
S61	S6	0.677880	0.416880	0.959310
S71	S7	0.231910	0.342930	0.959060
S81	S8	0.565620	0.152830	0.006450
S91	S9	0.984100	0.228980	0.266570
S101	S10	0.177880	0.083120	0.459310
S111	S11	0.731910	0.157070	0.459060
S121	S12	0.065620	0.347170	0.506450
S131	S13	0.515900	0.728980	0.233430
S141	S14	0.322120	0.583120	0.040690
S151	S15	0.768090	0.657070	0.040940
S161	S16	0.434380	0.847170	0.993550
N11	N1	0.726900	0.716000	0.746100
N21	N2	0.907300	0.054300	0.654900
N31	N3	0.422300	0.737700	0.661000
N41	N4	0.957500	0.755100	0.347400
N51	N5	0.773100	0.216000	0.753900
N61	N6	0.592700	0.554300	0.845100
N71	N7	0.077700	0.237700	0.839000
N81	N8	0.542500	0.255100	0.152600
N91	N9	0.273100	0.284000	0.253900
N101	N10	0.092700	0.945700	0.345100
N111	N11	0.577700	0.262300	0.339000
N121	N12	0.042500	0.244900	0.652600
N131	N13	0.226900	0.784000	0.246100
N141	N14	0.407300	0.445700	0.154900
N151	N15	0.922300	0.762300	0.161000
N161	N16	0.457500	0.744900	0.847400
