data_HIDBIH_clean_PM
_symmetry_space_group_name_H-M	'P1'
_cell_length_a	23.606600
_cell_length_b	10.059900
_cell_length_c	17.713500
_cell_angle_alpha	90.000000
_cell_angle_beta	124.836000
_cell_angle_gamma	90.000000
_symmetry_Int_Tables_number 1

loop_
_symmetry_equiv_pos_as_xyz
'x,y,z'

loop_
_atom_site_label
_atom_site_type_symbol
_atom_site_fract_x
_atom_site_fract_y
_atom_site_fract_z
Cd11	Cd1	0.364310	0.400640	0.373670
C11	C1	0.472210	0.758600	0.289700
H11	H1	0.453900	0.804700	0.316600
C21	C2	0.471880	0.621700	0.289200
C31	C3	0.439800	0.546900	0.329390
O11	O1	0.430570	0.605500	0.384700
O21	O2	0.420230	0.429800	0.303960
C41	C4	0.702080	0.126800	0.314250
C51	C5	0.691330	0.245300	0.345300
H21	H2	0.700200	0.325900	0.328300
C61	C6	0.667440	0.244500	0.401630
C71	C7	0.655640	0.122900	0.427200
H31	H3	0.640300	0.120400	0.465300
C81	C8	0.666400	0.004600	0.396500
H41	H4	0.658000	0.924000	0.414000
C91	C9	0.689640	0.005700	0.340300
H51	H5	0.696900	0.926200	0.320100
C101	C10	0.725830	0.128700	0.253180
C111	C11	0.656170	0.367300	0.434970
C121	C12	0.636830	0.387200	0.493900
H61	H6	0.625100	0.320200	0.518800
C131	C13	0.656790	0.581500	0.462200
H71	H7	0.661600	0.673000	0.460600
N11	N1	0.769720	0.042700	0.254990
N21	N2	0.774840	0.080500	0.186300
N31	N3	0.736400	0.184300	0.144570
N41	N4	0.704670	0.218100	0.186330
N51	N5	0.668390	0.492900	0.415690
H81	H8	0.681200	0.511200	0.380100
N61	N6	0.637400	0.520800	0.510800
Cd21	Cd2	0.635690	0.400640	0.126330
C141	C14	0.527790	0.758600	0.210300
H91	H9	0.546100	0.804700	0.183400
C151	C15	0.528120	0.621700	0.210800
C161	C16	0.560200	0.546900	0.170610
O31	O3	0.569430	0.605500	0.115300
O41	O4	0.579770	0.429800	0.196040
C171	C17	0.297920	0.126800	0.185750
C181	C18	0.308670	0.245300	0.154700
H101	H10	0.299800	0.325900	0.171700
C191	C19	0.332560	0.244500	0.098370
C201	C20	0.344360	0.122900	0.072800
H111	H11	0.359700	0.120400	0.034700
C211	C21	0.333600	0.004600	0.103500
H121	H12	0.342000	0.924000	0.086000
C221	C22	0.310360	0.005700	0.159700
H131	H13	0.303100	0.926200	0.179900
C231	C23	0.274170	0.128700	0.246820
C241	C24	0.343830	0.367300	0.065030
C251	C25	0.363170	0.387200	0.006100
H141	H14	0.374900	0.320200	0.981200
C261	C26	0.343210	0.581500	0.037800
H151	H15	0.338400	0.673000	0.039400
N71	N7	0.230280	0.042700	0.245010
N81	N8	0.225160	0.080500	0.313700
N91	N9	0.263600	0.184300	0.355430
N101	N10	0.295330	0.218100	0.313670
N111	N11	0.331610	0.492900	0.084310
H161	H16	0.318800	0.511200	0.119900
N121	N12	0.362600	0.520800	0.989200
Cd31	Cd3	0.635690	0.599360	0.626330
C271	C27	0.527790	0.241400	0.710300
H171	H17	0.546100	0.195300	0.683400
C281	C28	0.528120	0.378300	0.710800
C291	C29	0.560200	0.453100	0.670610
O51	O5	0.569430	0.394500	0.615300
O61	O6	0.579770	0.570200	0.696040
C301	C30	0.297920	0.873200	0.685750
C311	C31	0.308670	0.754700	0.654700
H181	H18	0.299800	0.674100	0.671700
C321	C32	0.332560	0.755500	0.598370
C331	C33	0.344360	0.877100	0.572800
H191	H19	0.359700	0.879600	0.534700
C341	C34	0.333600	0.995400	0.603500
H201	H20	0.342000	0.076000	0.586000
C351	C35	0.310360	0.994300	0.659700
H211	H21	0.303100	0.073800	0.679900
C361	C36	0.274170	0.871300	0.746820
C371	C37	0.343830	0.632700	0.565030
C381	C38	0.363170	0.612800	0.506100
H221	H22	0.374900	0.679800	0.481200
C391	C39	0.343210	0.418500	0.537800
H231	H23	0.338400	0.327000	0.539400
N131	N13	0.230280	0.957300	0.745010
N141	N14	0.225160	0.919500	0.813700
N151	N15	0.263600	0.815700	0.855430
N161	N16	0.295330	0.781900	0.813670
N171	N17	0.331610	0.507100	0.584310
H241	H24	0.318800	0.488800	0.619900
N181	N18	0.362600	0.479200	0.489200
Cd41	Cd4	0.364310	0.599360	0.873670
C401	C40	0.472210	0.241400	0.789700
H251	H25	0.453900	0.195300	0.816600
C411	C41	0.471880	0.378300	0.789200
C421	C42	0.439800	0.453100	0.829390
O71	O7	0.430570	0.394500	0.884700
O81	O8	0.420230	0.570200	0.803960
C431	C43	0.702080	0.873200	0.814250
C441	C44	0.691330	0.754700	0.845300
H261	H26	0.700200	0.674100	0.828300
C451	C45	0.667440	0.755500	0.901630
C461	C46	0.655640	0.877100	0.927200
H271	H27	0.640300	0.879600	0.965300
C471	C47	0.666400	0.995400	0.896500
H281	H28	0.658000	0.076000	0.914000
C481	C48	0.689640	0.994300	0.840300
H291	H29	0.696900	0.073800	0.820100
C491	C49	0.725830	0.871300	0.753180
C501	C50	0.656170	0.632700	0.934970
C511	C51	0.636830	0.612800	0.993900
H301	H30	0.625100	0.679800	0.018800
C521	C52	0.656790	0.418500	0.962200
H311	H31	0.661600	0.327000	0.960600
N191	N19	0.769720	0.957300	0.754990
N201	N20	0.774840	0.919500	0.686300
N211	N21	0.736400	0.815700	0.644570
N221	N22	0.704670	0.781900	0.686330
N231	N23	0.668390	0.507100	0.915690
H321	H32	0.681200	0.488800	0.880100
N241	N24	0.637400	0.479200	0.010800
C531	C53	0.500000	0.828100	0.250000
H331	H33	0.500000	0.920500	0.250000
C541	C54	0.500000	0.551900	0.250000
H341	H34	0.500000	0.459400	0.250000
C551	C55	0.500000	0.171900	0.750000
H351	H35	0.500000	0.079500	0.750000
C561	C56	0.500000	0.448100	0.750000
H361	H36	0.500000	0.540600	0.750000
C571	C57	0.202080	0.626800	0.314250
C581	C58	0.191330	0.745300	0.345300
H371	H37	0.200200	0.825900	0.328300
C591	C59	0.167440	0.744500	0.401630
C601	C60	0.155640	0.622900	0.427200
H381	H38	0.140300	0.620400	0.465300
C611	C61	0.166400	0.504600	0.396500
H391	H39	0.158000	0.424000	0.414000
C621	C62	0.189640	0.505700	0.340300
H401	H40	0.196900	0.426200	0.320100
C631	C63	0.225830	0.628700	0.253180
C641	C64	0.156170	0.867300	0.434970
C651	C65	0.136830	0.887200	0.493900
H411	H41	0.125100	0.820200	0.518800
C661	C66	0.156790	0.081500	0.462200
H421	H42	0.161600	0.173000	0.460600
N251	N25	0.269720	0.542700	0.254990
N261	N26	0.274840	0.580500	0.186300
N271	N27	0.236400	0.684300	0.144570
N281	N28	0.204670	0.718100	0.186330
N291	N29	0.168390	0.992900	0.415690
H431	H43	0.181200	0.011200	0.380100
N301	N30	0.137400	0.020800	0.510800
Cd51	Cd5	0.864310	0.900640	0.373670
C671	C67	0.972210	0.258600	0.289700
H441	H44	0.953900	0.304700	0.316600
C681	C68	0.971880	0.121700	0.289200
C691	C69	0.939800	0.046900	0.329390
O91	O9	0.930570	0.105500	0.384700
O101	O10	0.920230	0.929800	0.303960
C701	C70	0.797920	0.626800	0.185750
C711	C71	0.808670	0.745300	0.154700
H451	H45	0.799800	0.825900	0.171700
C721	C72	0.832560	0.744500	0.098370
C731	C73	0.844360	0.622900	0.072800
H461	H46	0.859700	0.620400	0.034700
C741	C74	0.833600	0.504600	0.103500
H471	H47	0.842000	0.424000	0.086000
C751	C75	0.810360	0.505700	0.159700
H481	H48	0.803100	0.426200	0.179900
C761	C76	0.774170	0.628700	0.246820
C771	C77	0.843830	0.867300	0.065030
C781	C78	0.863170	0.887200	0.006100
H491	H49	0.874900	0.820200	0.981200
C791	C79	0.843210	0.081500	0.037800
H501	H50	0.838400	0.173000	0.039400
N311	N31	0.730280	0.542700	0.245010
N321	N32	0.725160	0.580500	0.313700
N331	N33	0.763600	0.684300	0.355430
N341	N34	0.795330	0.718100	0.313670
N351	N35	0.831610	0.992900	0.084310
H511	H51	0.818800	0.011200	0.119900
N361	N36	0.862600	0.020800	0.989200
Cd61	Cd6	0.135690	0.900640	0.126330
C801	C80	0.027790	0.258600	0.210300
H521	H52	0.046100	0.304700	0.183400
C811	C81	0.028120	0.121700	0.210800
C821	C82	0.060200	0.046900	0.170610
O111	O11	0.069430	0.105500	0.115300
O121	O12	0.079770	0.929800	0.196040
C831	C83	0.797920	0.373200	0.685750
C841	C84	0.808670	0.254700	0.654700
H531	H53	0.799800	0.174100	0.671700
C851	C85	0.832560	0.255500	0.598370
C861	C86	0.844360	0.377100	0.572800
H541	H54	0.859700	0.379600	0.534700
C871	C87	0.833600	0.495400	0.603500
H551	H55	0.842000	0.576000	0.586000
C881	C88	0.810360	0.494300	0.659700
H561	H56	0.803100	0.573800	0.679900
C891	C89	0.774170	0.371300	0.746820
C901	C90	0.843830	0.132700	0.565030
C911	C91	0.863170	0.112800	0.506100
H571	H57	0.874900	0.179800	0.481200
C921	C92	0.843210	0.918500	0.537800
H581	H58	0.838400	0.827000	0.539400
N371	N37	0.730280	0.457300	0.745010
N381	N38	0.725160	0.419500	0.813700
N391	N39	0.763600	0.315700	0.855430
N401	N40	0.795330	0.281900	0.813670
N411	N41	0.831610	0.007100	0.584310
H591	H59	0.818800	0.988800	0.619900
N421	N42	0.862600	0.979200	0.489200
Cd71	Cd7	0.135690	0.099360	0.626330
C931	C93	0.027790	0.741400	0.710300
H601	H60	0.046100	0.695300	0.683400
C941	C94	0.028120	0.878300	0.710800
C951	C95	0.060200	0.953100	0.670610
O131	O13	0.069430	0.894500	0.615300
O141	O14	0.079770	0.070200	0.696040
C961	C96	0.202080	0.373200	0.814250
C971	C97	0.191330	0.254700	0.845300
H611	H61	0.200200	0.174100	0.828300
C981	C98	0.167440	0.255500	0.901630
C991	C99	0.155640	0.377100	0.927200
H621	H62	0.140300	0.379600	0.965300
C1001	C100	0.166400	0.495400	0.896500
H631	H63	0.158000	0.576000	0.914000
C1011	C101	0.189640	0.494300	0.840300
H641	H64	0.196900	0.573800	0.820100
C1021	C102	0.225830	0.371300	0.753180
C1031	C103	0.156170	0.132700	0.934970
C1041	C104	0.136830	0.112800	0.993900
H651	H65	0.125100	0.179800	0.018800
C1051	C105	0.156790	0.918500	0.962200
H661	H66	0.161600	0.827000	0.960600
N431	N43	0.269720	0.457300	0.754990
N441	N44	0.274840	0.419500	0.686300
N451	N45	0.236400	0.315700	0.644570
N461	N46	0.204670	0.281900	0.686330
N471	N47	0.168390	0.007100	0.915690
H671	H67	0.181200	0.988800	0.880100
N481	N48	0.137400	0.979200	0.010800
Cd81	Cd8	0.864310	0.099360	0.873670
C1061	C106	0.972210	0.741400	0.789700
H681	H68	0.953900	0.695300	0.816600
C1071	C107	0.971880	0.878300	0.789200
C1081	C108	0.939800	0.953100	0.829390
O151	O15	0.930570	0.894500	0.884700
O161	O16	0.920230	0.070200	0.803960
C1091	C109	0.000000	0.328100	0.250000
H691	H69	0.000000	0.420500	0.250000
C1101	C110	0.000000	0.051900	0.250000
H701	H70	0.000000	0.959400	0.250000
C1111	C111	0.000000	0.671900	0.750000
H711	H71	0.000000	0.579500	0.750000
C1121	C112	0.000000	0.948100	0.750000
H721	H72	0.000000	0.040600	0.750000
