data_HIDMEO_clean_PM
_symmetry_space_group_name_H-M	'P1'
_cell_length_a	10.230400
_cell_length_b	10.529300
_cell_length_c	13.085300
_cell_angle_alpha	100.836000
_cell_angle_beta	90.736000
_cell_angle_gamma	113.420000
_symmetry_Int_Tables_number 1

loop_
_symmetry_equiv_pos_as_xyz
'x,y,z'

loop_
_atom_site_label
_atom_site_type_symbol
_atom_site_fract_x
_atom_site_fract_y
_atom_site_fract_z
Zn11	Zn1	0.341900	0.195240	0.438930
Zn21	Zn2	0.658100	0.804760	0.561070
Zn31	Zn3	0.500000	0.000000	0.500000
H11	H1	0.579500	0.548900	0.717300
H21	H2	0.812600	0.321600	0.718100
H31	H3	0.714600	0.701700	0.870200
H41	H4	0.357000	0.475600	0.552800
H51	H5	0.738400	0.644500	0.064700
H61	H6	0.226000	0.904900	0.115200
H71	H7	0.131700	0.940500	0.873300
H81	H8	0.300000	0.979600	0.754500
H91	H9	0.380400	0.659400	0.809200
H101	H10	0.221400	0.628300	0.937800
H111	H11	0.218900	0.602100	0.582300
H121	H12	0.903100	0.281500	0.399700
H131	H13	0.052800	0.164200	0.371700
H141	H14	0.940600	0.468900	0.869000
H151	H15	0.652300	0.672700	0.308600
H161	H16	0.420500	0.451100	0.282700
H171	H17	0.187400	0.678400	0.281900
H181	H18	0.285400	0.298300	0.129800
H191	H19	0.643000	0.524400	0.447200
H201	H20	0.261600	0.355500	0.935300
H211	H21	0.774000	0.095100	0.884800
H221	H22	0.868300	0.059500	0.126700
H231	H23	0.700000	0.020400	0.245500
H241	H24	0.619600	0.340600	0.190800
H251	H25	0.778600	0.371700	0.062200
H261	H26	0.781100	0.397900	0.417700
H271	H27	0.096900	0.718500	0.600300
H281	H28	0.947200	0.835800	0.628300
H291	H29	0.059400	0.531100	0.131000
H301	H30	0.347700	0.327300	0.691400
C11	C1	0.580200	0.306900	0.614200
C21	C2	0.673100	0.410700	0.707000
C31	C3	0.649900	0.530400	0.749200
C41	C4	0.788400	0.394900	0.750100
C51	C5	0.733300	0.623900	0.840600
C61	C6	0.843600	0.601300	0.887300
C71	C7	0.263500	0.435300	0.521500
C81	C8	0.918500	0.690200	0.989600
C91	C9	0.837200	0.695000	0.074900
C101	C10	0.901000	0.773600	0.174700
C111	C11	0.805000	0.781300	0.258000
C121	C12	0.047700	0.852900	0.191300
C131	C13	0.123300	0.933000	0.296600
C141	C14	0.127700	0.851200	0.105900
C151	C15	0.064000	0.770900	0.006800
C161	C16	0.456100	0.842600	0.680800
C171	C17	0.183400	0.884500	0.862600
C181	C18	0.282200	0.905800	0.789100
C191	C19	0.353900	0.819900	0.766500
C201	C20	0.331300	0.717600	0.822400
C211	C21	0.235200	0.698100	0.899700
C221	C22	0.161200	0.784100	0.918600
C231	C23	0.181300	0.512800	0.538400
C241	C24	0.046500	0.459800	0.491700
C251	C25	0.996700	0.324900	0.431000
C261	C26	0.086200	0.253000	0.416100
C271	C27	0.867600	0.486100	0.839500
C281	C28	0.419800	0.693100	0.385800
C291	C29	0.326900	0.589300	0.293000
C301	C30	0.350100	0.469600	0.250800
C311	C31	0.211600	0.605100	0.249900
C321	C32	0.266700	0.376100	0.159400
C331	C33	0.156400	0.398700	0.112700
C341	C34	0.736500	0.564700	0.478500
C351	C35	0.081500	0.309800	0.010400
C361	C36	0.162800	0.305000	0.925100
C371	C37	0.099000	0.226400	0.825300
C381	C38	0.195000	0.218700	0.742000
C391	C39	0.952300	0.147100	0.808700
C401	C40	0.876700	0.067000	0.703400
C411	C41	0.872300	0.148800	0.894100
C421	C42	0.936000	0.229100	0.993200
C431	C43	0.543900	0.157400	0.319200
C441	C44	0.816600	0.115500	0.137400
C451	C45	0.717800	0.094200	0.210900
C461	C46	0.646100	0.180100	0.233500
C471	C47	0.668700	0.282400	0.177600
C481	C48	0.764800	0.301900	0.100300
C491	C49	0.838800	0.215900	0.081400
C501	C50	0.818700	0.487200	0.461600
C511	C51	0.953500	0.540200	0.508300
C521	C52	0.003300	0.675100	0.569000
C531	C53	0.913800	0.747000	0.583900
C541	C54	0.132400	0.513900	0.160500
N11	N1	0.215600	0.307500	0.463300
N21	N2	0.784400	0.692500	0.536700
O11	O1	0.828800	0.889200	0.322500
O21	O2	0.696300	0.662500	0.258000
O31	O3	0.207700	0.058700	0.305400
O41	O4	0.100300	0.862200	0.368500
O51	O5	0.466600	0.315700	0.583700
O61	O6	0.618500	0.209700	0.571400
O71	O7	0.503700	0.748700	0.651000
O81	O8	0.484800	0.952400	0.645900
O91	O9	0.171200	0.110800	0.677500
O101	O10	0.303700	0.337500	0.742000
O111	O11	0.792300	0.941300	0.694600
O121	O12	0.899700	0.137800	0.631500
O131	O13	0.533400	0.684300	0.416300
O141	O14	0.381500	0.790300	0.428600
O151	O15	0.496300	0.251300	0.349000
O161	O16	0.515200	0.047600	0.354100
