data_HIFVUO01_clean_PM
_symmetry_space_group_name_H-M	'P1'
_cell_length_a	14.575500
_cell_length_b	14.575500
_cell_length_c	14.575500
_cell_angle_alpha	109.471000
_cell_angle_beta	109.471000
_cell_angle_gamma	109.471000
_symmetry_Int_Tables_number 1

loop_
_symmetry_equiv_pos_as_xyz
'x,y,z'

loop_
_atom_site_label
_atom_site_type_symbol
_atom_site_fract_x
_atom_site_fract_y
_atom_site_fract_z
Zn11	Zn1	0.750000	0.500000	0.250000
Zn21	Zn2	0.250000	0.500000	0.750000
Zn31	Zn3	0.250000	0.750000	0.500000
Zn41	Zn4	0.750000	0.250000	0.500000
Zn51	Zn5	0.500000	0.750000	0.250000
Zn61	Zn6	0.500000	0.250000	0.750000
H11	H1	0.670800	0.538700	0.436700
H21	H2	0.102000	0.234100	0.563300
H31	H3	0.898000	0.461300	0.132100
H41	H4	0.329200	0.765900	0.867900
H51	H5	0.132100	0.898000	0.461300
H61	H6	0.867900	0.329200	0.765900
H71	H7	0.436700	0.670800	0.538700
H81	H8	0.563300	0.102000	0.234100
H91	H9	0.234100	0.563300	0.102000
H101	H10	0.538700	0.436700	0.670800
H111	H11	0.765900	0.867900	0.329200
H121	H12	0.461300	0.132100	0.898000
H131	H13	0.234100	0.102000	0.563300
H141	H14	0.538700	0.670800	0.436700
H151	H15	0.765900	0.329200	0.867900
H161	H16	0.461300	0.898000	0.132100
H171	H17	0.670800	0.436700	0.538700
H181	H18	0.102000	0.563300	0.234100
H191	H19	0.898000	0.132100	0.461300
H201	H20	0.329200	0.867900	0.765900
H211	H21	0.132100	0.461300	0.898000
H221	H22	0.867900	0.765900	0.329200
H231	H23	0.436700	0.538700	0.670800
H241	H24	0.563300	0.234100	0.102000
H251	H25	0.803200	0.359100	0.359100
H261	H26	0.000000	0.444100	0.640900
H271	H27	0.000000	0.640900	0.444100
H281	H28	0.196800	0.555900	0.555900
H291	H29	0.444100	0.000000	0.640900
H301	H30	0.555900	0.196800	0.555900
H311	H31	0.359100	0.803200	0.359100
H321	H32	0.640900	0.000000	0.444100
H331	H33	0.444100	0.640900	0.000000
H341	H34	0.359100	0.359100	0.803200
H351	H35	0.555900	0.555900	0.196800
H361	H36	0.640900	0.444100	0.000000
C11	C1	0.692100	0.482800	0.427100
C21	C2	0.055700	0.265000	0.572900
C31	C3	0.944300	0.517200	0.209300
C41	C4	0.307900	0.735000	0.790700
C51	C5	0.209300	0.944300	0.517200
C61	C6	0.790700	0.307900	0.735000
C71	C7	0.427100	0.692100	0.482800
C81	C8	0.572900	0.055700	0.265000
C91	C9	0.265000	0.572900	0.055700
C101	C10	0.482800	0.427100	0.692100
C111	C11	0.735000	0.790700	0.307900
C121	C12	0.517200	0.209300	0.944300
C131	C13	0.265000	0.055700	0.572900
C141	C14	0.482800	0.692100	0.427100
C151	C15	0.735000	0.307900	0.790700
C161	C16	0.517200	0.944300	0.209300
C171	C17	0.692100	0.427100	0.482800
C181	C18	0.055700	0.572900	0.265000
C191	C19	0.944300	0.209300	0.517200
C201	C20	0.307900	0.790700	0.735000
C211	C21	0.209300	0.517200	0.944300
C221	C22	0.790700	0.735000	0.307900
C231	C23	0.427100	0.482800	0.692100
C241	C24	0.572900	0.265000	0.055700
C251	C25	0.758440	0.383420	0.383420
C261	C26	0.000000	0.375020	0.616580
C271	C27	0.000000	0.616580	0.375020
C281	C28	0.241560	0.624980	0.624980
C291	C29	0.375020	0.000000	0.616580
C301	C30	0.624980	0.241560	0.624980
C311	C31	0.383420	0.758440	0.383420
C321	C32	0.616580	0.000000	0.375020
C331	C33	0.375020	0.616580	0.000000
C341	C34	0.383420	0.383420	0.758440
C351	C35	0.624980	0.624980	0.241560
C361	C36	0.616580	0.375020	0.000000
N11	N1	0.727690	0.446860	0.353670
N21	N2	0.093190	0.374020	0.646330
N31	N3	0.906810	0.553140	0.280830
N41	N4	0.272310	0.625980	0.719170
N51	N5	0.280830	0.906810	0.553140
N61	N6	0.719170	0.272310	0.625980
N71	N7	0.353670	0.727690	0.446860
N81	N8	0.646330	0.093190	0.374020
N91	N9	0.374020	0.646330	0.093190
N101	N10	0.446860	0.353670	0.727690
N111	N11	0.625980	0.719170	0.272310
N121	N12	0.553140	0.280830	0.906810
N131	N13	0.374020	0.093190	0.646330
N141	N14	0.446860	0.727690	0.353670
N151	N15	0.625980	0.272310	0.719170
N161	N16	0.553140	0.906810	0.280830
N171	N17	0.727690	0.353670	0.446860
N181	N18	0.093190	0.646330	0.374020
N191	N19	0.906810	0.280830	0.553140
N201	N20	0.272310	0.719170	0.625980
N211	N21	0.280830	0.553140	0.906810
N221	N22	0.719170	0.625980	0.272310
N231	N23	0.353670	0.446860	0.727690
N241	N24	0.646330	0.374020	0.093190
