data_HIFVOI_clean_PM
_symmetry_space_group_name_H-M	'P1'
_cell_length_a	17.058000
_cell_length_b	19.073000
_cell_length_c	19.073000
_cell_angle_alpha	90.000000
_cell_angle_beta	90.000000
_cell_angle_gamma	90.000000
_symmetry_Int_Tables_number 1

loop_
_symmetry_equiv_pos_as_xyz
'x,y,z'

loop_
_atom_site_label
_atom_site_type_symbol
_atom_site_fract_x
_atom_site_fract_y
_atom_site_fract_z
Zn11	Zn1	0.823580	0.886120	0.334910
Zn21	Zn2	0.823580	0.113880	0.665090
Zn31	Zn3	0.323580	0.165090	0.386120
Zn41	Zn4	0.323580	0.834910	0.613880
Zn51	Zn5	0.676420	0.613880	0.834910
Zn61	Zn6	0.676420	0.386120	0.165090
Zn71	Zn7	0.176420	0.334910	0.886120
Zn81	Zn8	0.176420	0.665090	0.113880
Zn91	Zn9	0.176420	0.113880	0.665090
Zn101	Zn10	0.176420	0.886120	0.334910
Zn111	Zn11	0.676420	0.834910	0.613880
Zn121	Zn12	0.676420	0.165090	0.386120
Zn131	Zn13	0.323580	0.386120	0.165090
Zn141	Zn14	0.323580	0.613880	0.834910
Zn151	Zn15	0.823580	0.665090	0.113880
Zn161	Zn16	0.823580	0.334910	0.886120
H11	H1	0.928600	0.770300	0.406300
H21	H2	0.691400	0.875700	0.215100
H31	H3	0.856900	0.022700	0.237800
H41	H4	0.711500	0.755200	0.365900
H51	H5	0.718100	0.002900	0.397200
H61	H6	0.928600	0.229700	0.593700
H71	H7	0.691400	0.124300	0.784900
H81	H8	0.856900	0.977300	0.762200
H91	H9	0.711500	0.244800	0.634100
H101	H10	0.718100	0.997100	0.602800
H111	H11	0.428600	0.093700	0.270300
H121	H12	0.191400	0.284900	0.375700
H131	H13	0.356900	0.262200	0.522700
H141	H14	0.211500	0.134100	0.255200
H151	H15	0.218100	0.102800	0.502900
H161	H16	0.428600	0.906300	0.729700
H171	H17	0.191400	0.715100	0.624300
H181	H18	0.356900	0.737800	0.477300
H191	H19	0.211500	0.865900	0.744800
H201	H20	0.218100	0.897200	0.497100
H211	H21	0.571400	0.729700	0.906300
H221	H22	0.808600	0.624300	0.715100
H231	H23	0.643100	0.477300	0.737800
H241	H24	0.788500	0.744800	0.865900
H251	H25	0.781900	0.497100	0.897200
H261	H26	0.571400	0.270300	0.093700
H271	H27	0.808600	0.375700	0.284900
H281	H28	0.643100	0.522700	0.262200
H291	H29	0.788500	0.255200	0.134100
H301	H30	0.781900	0.502900	0.102800
H311	H31	0.071400	0.406300	0.770300
H321	H32	0.308600	0.215100	0.875700
H331	H33	0.143100	0.237800	0.022700
H341	H34	0.288500	0.365900	0.755200
H351	H35	0.281900	0.397200	0.002900
H361	H36	0.071400	0.593700	0.229700
H371	H37	0.308600	0.784900	0.124300
H381	H38	0.143100	0.762200	0.977300
H391	H39	0.288500	0.634100	0.244800
H401	H40	0.281900	0.602800	0.997100
H411	H41	0.071400	0.229700	0.593700
H421	H42	0.308600	0.124300	0.784900
H431	H43	0.143100	0.977300	0.762200
H441	H44	0.288500	0.244800	0.634100
H451	H45	0.281900	0.997100	0.602800
H461	H46	0.071400	0.770300	0.406300
H471	H47	0.308600	0.875700	0.215100
H481	H48	0.143100	0.022700	0.237800
H491	H49	0.288500	0.755200	0.365900
H501	H50	0.281900	0.002900	0.397200
H511	H51	0.571400	0.906300	0.729700
H521	H52	0.808600	0.715100	0.624300
H531	H53	0.643100	0.737800	0.477300
H541	H54	0.788500	0.865900	0.744800
H551	H55	0.781900	0.897200	0.497100
H561	H56	0.571400	0.093700	0.270300
H571	H57	0.808600	0.284900	0.375700
H581	H58	0.643100	0.262200	0.522700
H591	H59	0.788500	0.134100	0.255200
H601	H60	0.781900	0.102800	0.502900
H611	H61	0.428600	0.270300	0.093700
H621	H62	0.191400	0.375700	0.284900
H631	H63	0.356900	0.522700	0.262200
H641	H64	0.211500	0.255200	0.134100
H651	H65	0.218100	0.502900	0.102800
H661	H66	0.428600	0.729700	0.906300
H671	H67	0.191400	0.624300	0.715100
H681	H68	0.356900	0.477300	0.737800
H691	H69	0.211500	0.744800	0.865900
H701	H70	0.218100	0.497100	0.897200
H711	H71	0.928600	0.593700	0.229700
H721	H72	0.691400	0.784900	0.124300
H731	H73	0.856900	0.762200	0.977300
H741	H74	0.711500	0.634100	0.244800
H751	H75	0.718100	0.602800	0.997100
H761	H76	0.928600	0.406300	0.770300
H771	H77	0.691400	0.215100	0.875700
H781	H78	0.856900	0.237800	0.022700
H791	H79	0.711500	0.365900	0.755200
H801	H80	0.718100	0.397200	0.002900
H811	H81	0.000000	0.931900	0.303100
H821	H82	0.000000	0.068100	0.696900
H831	H83	0.500000	0.196900	0.431900
H841	H84	0.500000	0.803100	0.568100
H851	H85	0.500000	0.568100	0.803100
H861	H86	0.500000	0.431900	0.196900
H871	H87	0.000000	0.303100	0.931900
H881	H88	0.000000	0.696900	0.068100
H891	H89	0.873200	0.755700	0.244300
H901	H90	0.873200	0.244300	0.755700
H911	H91	0.373200	0.255700	0.255700
H921	H92	0.373200	0.744300	0.744300
H931	H93	0.626800	0.744300	0.744300
H941	H94	0.626800	0.255700	0.255700
H951	H95	0.126800	0.244300	0.755700
H961	H96	0.126800	0.755700	0.244300
C11	C1	0.960200	0.805800	0.388600
C21	C2	0.730700	0.842700	0.207800
C31	C3	0.822300	0.032700	0.274200
C41	C4	0.714000	0.784600	0.404700
C51	C5	0.748900	0.023100	0.362400
C61	C6	0.960200	0.194200	0.611400
C71	C7	0.730700	0.157300	0.792200
C81	C8	0.822300	0.967300	0.725800
C91	C9	0.714000	0.215400	0.595300
C101	C10	0.748900	0.976900	0.637600
C111	C11	0.460200	0.111400	0.305800
C121	C12	0.230700	0.292200	0.342700
C131	C13	0.322300	0.225800	0.532700
C141	C14	0.214000	0.095300	0.284600
C151	C15	0.248900	0.137600	0.523100
C161	C16	0.460200	0.888600	0.694200
C171	C17	0.230700	0.707800	0.657300
C181	C18	0.322300	0.774200	0.467300
C191	C19	0.214000	0.904700	0.715400
C201	C20	0.248900	0.862400	0.476900
C211	C21	0.539800	0.694200	0.888600
C221	C22	0.769300	0.657300	0.707800
C231	C23	0.677700	0.467300	0.774200
C241	C24	0.786000	0.715400	0.904700
C251	C25	0.751100	0.476900	0.862400
C261	C26	0.539800	0.305800	0.111400
C271	C27	0.769300	0.342700	0.292200
C281	C28	0.677700	0.532700	0.225800
C291	C29	0.786000	0.284600	0.095300
C301	C30	0.751100	0.523100	0.137600
C311	C31	0.039800	0.388600	0.805800
C321	C32	0.269300	0.207800	0.842700
C331	C33	0.177700	0.274200	0.032700
C341	C34	0.286000	0.404700	0.784600
C351	C35	0.251100	0.362400	0.023100
C361	C36	0.039800	0.611400	0.194200
C371	C37	0.269300	0.792200	0.157300
C381	C38	0.177700	0.725800	0.967300
C391	C39	0.286000	0.595300	0.215400
C401	C40	0.251100	0.637600	0.976900
C411	C41	0.039800	0.194200	0.611400
C421	C42	0.269300	0.157300	0.792200
C431	C43	0.177700	0.967300	0.725800
C441	C44	0.286000	0.215400	0.595300
C451	C45	0.251100	0.976900	0.637600
C461	C46	0.039800	0.805800	0.388600
C471	C47	0.269300	0.842700	0.207800
C481	C48	0.177700	0.032700	0.274200
C491	C49	0.286000	0.784600	0.404700
C501	C50	0.251100	0.023100	0.362400
C511	C51	0.539800	0.888600	0.694200
C521	C52	0.769300	0.707800	0.657300
C531	C53	0.677700	0.774200	0.467300
C541	C54	0.786000	0.904700	0.715400
C551	C55	0.751100	0.862400	0.476900
C561	C56	0.539800	0.111400	0.305800
C571	C57	0.769300	0.292200	0.342700
C581	C58	0.677700	0.225800	0.532700
C591	C59	0.786000	0.095300	0.284600
C601	C60	0.751100	0.137600	0.523100
C611	C61	0.460200	0.305800	0.111400
C621	C62	0.230700	0.342700	0.292200
C631	C63	0.322300	0.532700	0.225800
C641	C64	0.214000	0.284600	0.095300
C651	C65	0.248900	0.523100	0.137600
C661	C66	0.460200	0.694200	0.888600
C671	C67	0.230700	0.657300	0.707800
C681	C68	0.322300	0.467300	0.774200
C691	C69	0.214000	0.715400	0.904700
C701	C70	0.248900	0.476900	0.862400
C711	C71	0.960200	0.611400	0.194200
C721	C72	0.730700	0.792200	0.157300
C731	C73	0.822300	0.725800	0.967300
C741	C74	0.714000	0.595300	0.215400
C751	C75	0.748900	0.637600	0.976900
C761	C76	0.960200	0.388600	0.805800
C771	C77	0.730700	0.207800	0.842700
C781	C78	0.822300	0.274200	0.032700
C791	C79	0.714000	0.404700	0.784600
C801	C80	0.748900	0.362400	0.023100
C811	C81	0.000000	0.894600	0.334500
C821	C82	0.000000	0.105400	0.665500
C831	C83	0.500000	0.165500	0.394600
C841	C84	0.500000	0.834500	0.605400
C851	C85	0.500000	0.605400	0.834500
C861	C86	0.500000	0.394600	0.165500
C871	C87	0.000000	0.334500	0.894600
C881	C88	0.000000	0.665500	0.105400
C891	C89	0.831500	0.777900	0.222100
C901	C90	0.831500	0.222100	0.777900
C911	C91	0.331500	0.277900	0.277900
C921	C92	0.331500	0.722100	0.722100
C931	C93	0.668500	0.722100	0.722100
C941	C94	0.668500	0.277900	0.277900
C951	C95	0.168500	0.222100	0.777900
C961	C96	0.168500	0.777900	0.222100
N11	N1	0.934300	0.865800	0.358700
N21	N2	0.798700	0.836600	0.246100
N31	N3	0.800400	0.987000	0.325000
N41	N4	0.754800	0.846000	0.409200
N51	N5	0.934300	0.134200	0.641300
N61	N6	0.798700	0.163400	0.753900
N71	N7	0.800400	0.013000	0.675000
N81	N8	0.754800	0.154000	0.590800
N91	N9	0.434300	0.141300	0.365800
N101	N10	0.298700	0.253900	0.336600
N111	N11	0.300400	0.175000	0.487000
N121	N12	0.254800	0.090800	0.346000
N131	N13	0.434300	0.858700	0.634200
N141	N14	0.298700	0.746100	0.663400
N151	N15	0.300400	0.825000	0.513000
N161	N16	0.254800	0.909200	0.654000
N171	N17	0.565700	0.634200	0.858700
N181	N18	0.701300	0.663400	0.746100
N191	N19	0.699600	0.513000	0.825000
N201	N20	0.745200	0.654000	0.909200
N211	N21	0.565700	0.365800	0.141300
N221	N22	0.701300	0.336600	0.253900
N231	N23	0.699600	0.487000	0.175000
N241	N24	0.745200	0.346000	0.090800
N251	N25	0.065700	0.358700	0.865800
N261	N26	0.201300	0.246100	0.836600
N271	N27	0.199600	0.325000	0.987000
N281	N28	0.245200	0.409200	0.846000
N291	N29	0.065700	0.641300	0.134200
N301	N30	0.201300	0.753900	0.163400
N311	N31	0.199600	0.675000	0.013000
N321	N32	0.245200	0.590800	0.154000
N331	N33	0.065700	0.134200	0.641300
N341	N34	0.201300	0.163400	0.753900
N351	N35	0.199600	0.013000	0.675000
N361	N36	0.245200	0.154000	0.590800
N371	N37	0.065700	0.865800	0.358700
N381	N38	0.201300	0.836600	0.246100
N391	N39	0.199600	0.987000	0.325000
N401	N40	0.245200	0.846000	0.409200
N411	N41	0.565700	0.858700	0.634200
N421	N42	0.701300	0.746100	0.663400
N431	N43	0.699600	0.825000	0.513000
N441	N44	0.745200	0.909200	0.654000
N451	N45	0.565700	0.141300	0.365800
N461	N46	0.701300	0.253900	0.336600
N471	N47	0.699600	0.175000	0.487000
N481	N48	0.745200	0.090800	0.346000
N491	N49	0.434300	0.365800	0.141300
N501	N50	0.298700	0.336600	0.253900
N511	N51	0.300400	0.487000	0.175000
N521	N52	0.254800	0.346000	0.090800
N531	N53	0.434300	0.634200	0.858700
N541	N54	0.298700	0.663400	0.746100
N551	N55	0.300400	0.513000	0.825000
N561	N56	0.254800	0.654000	0.909200
N571	N57	0.934300	0.641300	0.134200
N581	N58	0.798700	0.753900	0.163400
N591	N59	0.800400	0.675000	0.013000
N601	N60	0.754800	0.590800	0.154000
N611	N61	0.934300	0.358700	0.865800
N621	N62	0.798700	0.246100	0.836600
N631	N63	0.800400	0.325000	0.987000
N641	N64	0.754800	0.409200	0.846000
