data_HIFWAV_clean_PM
_symmetry_space_group_name_H-M	'P1'
_cell_length_a	9.609700
_cell_length_b	24.359000
_cell_length_c	24.804000
_cell_angle_alpha	91.774000
_cell_angle_beta	90.000000
_cell_angle_gamma	90.000000
_symmetry_Int_Tables_number 1

loop_
_symmetry_equiv_pos_as_xyz
'x,y,z'

loop_
_atom_site_label
_atom_site_type_symbol
_atom_site_fract_x
_atom_site_fract_y
_atom_site_fract_z
Zn11	Zn1	0.967150	0.232630	0.317940
Zn21	Zn2	0.741200	0.012860	0.275890
Zn31	Zn3	0.236360	0.032130	0.137470
Zn41	Zn4	0.328000	0.340980	0.482260
Zn51	Zn5	0.440200	0.216590	0.683910
Zn61	Zn6	0.467150	0.267370	0.182060
Zn71	Zn7	0.241200	0.487140	0.224110
Zn81	Zn8	0.736360	0.467870	0.362530
Zn91	Zn9	0.828000	0.159020	0.017740
Zn101	Zn10	0.940200	0.283410	0.816090
Zn111	Zn11	0.032850	0.767370	0.682060
Zn121	Zn12	0.258800	0.987140	0.724110
Zn131	Zn13	0.763640	0.967870	0.862530
Zn141	Zn14	0.672000	0.659020	0.517740
Zn151	Zn15	0.559800	0.783410	0.316090
Zn161	Zn16	0.532850	0.732630	0.817940
Zn171	Zn17	0.758800	0.512860	0.775890
Zn181	Zn18	0.263640	0.532130	0.637470
Zn191	Zn19	0.172000	0.840980	0.982260
Zn201	Zn20	0.059800	0.716590	0.183910
H11	H1	0.178100	0.280300	0.235500
H21	H2	0.220400	0.145200	0.310100
H31	H3	0.428200	0.158200	0.258100
H41	H4	0.927700	0.114000	0.277700
H51	H5	0.742600	0.179900	0.397200
H61	H6	0.656800	0.086800	0.384400
H71	H7	0.435900	0.994100	0.227800
H81	H8	0.710400	0.099000	0.180300
H91	H9	0.504000	0.107400	0.125200
H101	H10	0.954500	0.051400	0.189200
H111	H11	0.190200	0.925500	0.214500
H121	H12	0.986100	0.919000	0.271300
H131	H13	0.536500	0.428500	0.448200
H141	H14	0.493300	0.288400	0.371700
H151	H15	0.667400	0.339200	0.325400
H161	H16	0.354300	0.417900	0.587600
H171	H17	0.133600	0.528000	0.516700
H181	H18	0.157600	0.450200	0.454600
H191	H19	0.218900	0.280300	0.377300
H201	H20	0.993000	0.333600	0.498100
H211	H21	0.839000	0.290700	0.430700
H221	H22	0.302100	0.302900	0.604900
H231	H23	0.575100	0.258300	0.496900
H241	H24	0.624800	0.208700	0.578200
H251	H25	0.143000	0.212000	0.738100
H261	H26	0.205700	0.357800	0.799400
H271	H27	0.408300	0.331800	0.743900
H281	H28	0.614500	0.895000	0.258100
H291	H29	0.668400	0.867700	0.405800
H301	H30	0.729800	0.962600	0.394400
H311	H31	0.678100	0.219700	0.264500
H321	H32	0.720400	0.354800	0.189900
H331	H33	0.928200	0.341800	0.241900
H341	H34	0.427700	0.386000	0.222300
H351	H35	0.242600	0.320100	0.102800
H361	H36	0.156800	0.413200	0.115600
H371	H37	0.935900	0.505900	0.272200
H381	H38	0.210400	0.401000	0.319700
H391	H39	0.004000	0.392600	0.374800
H401	H40	0.454500	0.448600	0.310800
H411	H41	0.690200	0.574500	0.285500
H421	H42	0.486100	0.581000	0.228700
H431	H43	0.036500	0.071500	0.051800
H441	H44	0.993300	0.211600	0.128300
H451	H45	0.167400	0.160800	0.174600
H461	H46	0.854300	0.082100	0.912400
H471	H47	0.633600	0.972000	0.983300
H481	H48	0.657600	0.049800	0.045400
H491	H49	0.718900	0.219700	0.122700
H501	H50	0.493000	0.166400	0.001900
H511	H51	0.339000	0.209300	0.069300
H521	H52	0.802100	0.197100	0.895100
H531	H53	0.075100	0.241700	0.003100
H541	H54	0.124800	0.291300	0.921800
H551	H55	0.643000	0.288000	0.761900
H561	H56	0.705700	0.142200	0.700600
H571	H57	0.908300	0.168200	0.756100
H581	H58	0.114500	0.605000	0.241900
H591	H59	0.168400	0.632300	0.094200
H601	H60	0.229800	0.537400	0.105600
H611	H61	0.821900	0.719700	0.764500
H621	H62	0.779600	0.854800	0.689900
H631	H63	0.571800	0.841800	0.741900
H641	H64	0.072300	0.886000	0.722300
H651	H65	0.257400	0.820100	0.602800
H661	H66	0.343200	0.913200	0.615600
H671	H67	0.564100	0.005900	0.772200
H681	H68	0.289600	0.901000	0.819700
H691	H69	0.496000	0.892600	0.874800
H701	H70	0.045500	0.948600	0.810800
H711	H71	0.809800	0.074500	0.785500
H721	H72	0.013900	0.081000	0.728700
H731	H73	0.463500	0.571500	0.551800
H741	H74	0.506700	0.711600	0.628300
H751	H75	0.332600	0.660800	0.674600
H761	H76	0.645700	0.582100	0.412400
H771	H77	0.866400	0.472000	0.483300
H781	H78	0.842400	0.549800	0.545400
H791	H79	0.781100	0.719700	0.622700
H801	H80	0.007000	0.666400	0.501900
H811	H81	0.161000	0.709300	0.569300
H821	H82	0.697900	0.697100	0.395100
H831	H83	0.424900	0.741700	0.503100
H841	H84	0.375200	0.791300	0.421800
H851	H85	0.857000	0.788000	0.261900
H861	H86	0.794300	0.642200	0.200600
H871	H87	0.591700	0.668200	0.256100
H881	H88	0.385500	0.105000	0.741900
H891	H89	0.331600	0.132300	0.594200
H901	H90	0.270200	0.037400	0.605600
H911	H91	0.321900	0.780300	0.735500
H921	H92	0.279600	0.645200	0.810100
H931	H93	0.071800	0.658200	0.758100
H941	H94	0.572300	0.614000	0.777700
H951	H95	0.757400	0.679900	0.897200
H961	H96	0.843200	0.586800	0.884400
H971	H97	0.064100	0.494100	0.727800
H981	H98	0.789600	0.599000	0.680300
H991	H99	0.996000	0.607400	0.625200
H1001	H100	0.545500	0.551400	0.689200
H1011	H101	0.309800	0.425500	0.714500
H1021	H102	0.513900	0.419000	0.771300
H1031	H103	0.963500	0.928500	0.948200
H1041	H104	0.006700	0.788400	0.871700
H1051	H105	0.832600	0.839200	0.825400
H1061	H106	0.145700	0.917900	0.087600
H1071	H107	0.366400	0.028000	0.016700
H1081	H108	0.342400	0.950200	0.954600
H1091	H109	0.281100	0.780300	0.877300
H1101	H110	0.507000	0.833600	0.998100
H1111	H111	0.661000	0.790700	0.930700
H1121	H112	0.197900	0.802900	0.104900
H1131	H113	0.924900	0.758300	0.996900
H1141	H114	0.875200	0.708700	0.078200
H1151	H115	0.357000	0.712000	0.238100
H1161	H116	0.294300	0.857800	0.299400
H1171	H117	0.091700	0.831800	0.243900
H1181	H118	0.885500	0.395000	0.758100
H1191	H119	0.831600	0.367700	0.905800
H1201	H120	0.770200	0.462600	0.894400
C11	C1	0.215500	0.247800	0.247800
C21	C2	0.237400	0.174900	0.288400
C31	C3	0.352100	0.181800	0.259600
C41	C4	0.869700	0.118700	0.307500
C51	C5	0.773500	0.154700	0.370900
C61	C6	0.724000	0.103200	0.363200
C71	C7	0.480500	0.021600	0.209000
C81	C8	0.629600	0.078400	0.183400
C91	C9	0.515600	0.083100	0.153000
C101	C10	0.988300	0.019100	0.203300
C111	C11	0.117600	0.950800	0.216600
C121	C12	0.004400	0.947100	0.247800
C131	C13	0.547200	0.399300	0.423600
C141	C14	0.523400	0.323500	0.382000
C151	C15	0.619900	0.351100	0.356300
C161	C16	0.302100	0.435900	0.561900
C171	C17	0.181800	0.495900	0.523700
C181	C18	0.195100	0.453200	0.489200
C191	C19	0.142800	0.287500	0.399600
C201	C20	0.021100	0.317000	0.465600
C211	C21	0.935300	0.293300	0.427900
C221	C22	0.376200	0.285100	0.587700
C231	C23	0.524600	0.261200	0.528900
C241	C24	0.552500	0.233500	0.573900
C251	C25	0.184200	0.245700	0.746700
C261	C26	0.216700	0.324700	0.780200
C271	C27	0.329800	0.310400	0.749400
C281	C28	0.633900	0.900300	0.294700
C291	C29	0.663000	0.885400	0.373200
C301	C30	0.697800	0.938000	0.367800
C311	C31	0.715500	0.252200	0.252200
C321	C32	0.737400	0.325100	0.211600
C331	C33	0.852100	0.318200	0.240400
C341	C34	0.369700	0.381300	0.192500
C351	C35	0.273500	0.345300	0.129100
C361	C36	0.224000	0.396800	0.136800
C371	C37	0.980500	0.478400	0.291000
C381	C38	0.129600	0.421600	0.316600
C391	C39	0.015600	0.416900	0.347000
C401	C40	0.488300	0.480900	0.296700
C411	C41	0.617600	0.549200	0.283400
C421	C42	0.504400	0.552900	0.252200
C431	C43	0.047200	0.100700	0.076400
C441	C44	0.023400	0.176500	0.118000
C451	C45	0.119900	0.148900	0.143700
C461	C46	0.802100	0.064100	0.938100
C471	C47	0.681800	0.004100	0.976300
C481	C48	0.695100	0.046800	0.010800
C491	C49	0.642800	0.212500	0.100400
C501	C50	0.521100	0.183000	0.034400
C511	C51	0.435300	0.206700	0.072100
C521	C52	0.876200	0.214900	0.912300
C531	C53	0.024600	0.238800	0.971100
C541	C54	0.052500	0.266500	0.926100
C551	C55	0.684200	0.254300	0.753300
C561	C56	0.716700	0.175300	0.719800
C571	C57	0.829800	0.189600	0.750600
C581	C58	0.133900	0.599700	0.205300
C591	C59	0.163000	0.614600	0.126800
C601	C60	0.197800	0.562000	0.132200
C611	C61	0.784500	0.752200	0.752200
C621	C62	0.762600	0.825100	0.711600
C631	C63	0.647900	0.818200	0.740400
C641	C64	0.130300	0.881300	0.692500
C651	C65	0.226500	0.845300	0.629100
C661	C66	0.276000	0.896800	0.636800
C671	C67	0.519500	0.978400	0.791000
C681	C68	0.370400	0.921600	0.816600
C691	C69	0.484400	0.916900	0.847000
C701	C70	0.011700	0.980900	0.796700
C711	C71	0.882400	0.049200	0.783400
C721	C72	0.995600	0.052900	0.752200
C731	C73	0.452800	0.600700	0.576400
C741	C74	0.476600	0.676500	0.618000
C751	C75	0.380100	0.648900	0.643700
C761	C76	0.697900	0.564100	0.438100
C771	C77	0.818200	0.504100	0.476300
C781	C78	0.804900	0.546800	0.510800
C791	C79	0.857200	0.712500	0.600400
C801	C80	0.978900	0.683000	0.534400
C811	C81	0.064700	0.706700	0.572100
C821	C82	0.623800	0.714900	0.412300
C831	C83	0.475400	0.738800	0.471100
C841	C84	0.447500	0.766500	0.426100
C851	C85	0.815800	0.754300	0.253300
C861	C86	0.783300	0.675300	0.219800
C871	C87	0.670200	0.689600	0.250600
C881	C88	0.366100	0.099700	0.705300
C891	C89	0.337000	0.114600	0.626800
C901	C90	0.302200	0.062000	0.632200
C911	C91	0.284500	0.747800	0.747800
C921	C92	0.262600	0.674900	0.788400
C931	C93	0.147900	0.681800	0.759600
C941	C94	0.630300	0.618700	0.807500
C951	C95	0.726500	0.654700	0.870900
C961	C96	0.776000	0.603200	0.863200
C971	C97	0.019500	0.521600	0.709000
C981	C98	0.870400	0.578400	0.683400
C991	C99	0.984400	0.583100	0.653000
C1001	C100	0.511700	0.519100	0.703300
C1011	C101	0.382400	0.450800	0.716600
C1021	C102	0.495600	0.447100	0.747800
C1031	C103	0.952800	0.899300	0.923600
C1041	C104	0.976600	0.823500	0.882000
C1051	C105	0.880100	0.851100	0.856300
C1061	C106	0.197900	0.935900	0.061900
C1071	C107	0.318200	0.995900	0.023700
C1081	C108	0.304900	0.953200	0.989200
C1091	C109	0.357200	0.787500	0.899600
C1101	C110	0.478900	0.817000	0.965600
C1111	C111	0.564700	0.793300	0.927900
C1121	C112	0.123800	0.785100	0.087700
C1131	C113	0.975400	0.761200	0.028900
C1141	C114	0.947500	0.733500	0.073900
C1151	C115	0.315800	0.745700	0.246700
C1161	C116	0.283300	0.824700	0.280200
C1171	C117	0.170200	0.810400	0.249400
C1181	C118	0.866100	0.400300	0.794700
C1191	C119	0.837000	0.385400	0.873200
C1201	C120	0.802200	0.438000	0.867800
N11	N1	0.149700	0.216800	0.281700
N21	N2	0.339600	0.229300	0.232500
N31	N3	0.871300	0.163600	0.336000
N41	N4	0.784500	0.079800	0.321500
N51	N5	0.607500	0.037600	0.220200
N61	N6	0.420900	0.047000	0.169500
N71	N7	0.920000	0.991200	0.239500
N81	N8	0.108300	0.997400	0.188900
N91	N9	0.636600	0.399800	0.383400
N101	N10	0.473200	0.352900	0.425800
N111	N11	0.248600	0.485600	0.570400
N121	N12	0.274600	0.414300	0.513900
N131	N13	0.154300	0.312300	0.447900
N141	N14	0.013000	0.274000	0.385700
N151	N15	0.412500	0.293900	0.537200
N161	N16	0.456600	0.248100	0.611600
N171	N17	0.306700	0.259500	0.728300
N181	N18	0.123600	0.283300	0.778500
N191	N19	0.620800	0.861400	0.328500
N201	N20	0.676300	0.947700	0.315100
N211	N21	0.649700	0.283200	0.218300
N221	N22	0.839600	0.270700	0.267500
N231	N23	0.371300	0.336400	0.164000
N241	N24	0.284500	0.420200	0.178500
N251	N25	0.107500	0.462400	0.279800
N261	N26	0.920900	0.453000	0.330500
N271	N27	0.420000	0.508800	0.260500
N281	N28	0.608300	0.502600	0.311100
N291	N29	0.136600	0.100200	0.116600
N301	N30	0.973200	0.147100	0.074200
N311	N31	0.748600	0.014400	0.929600
N321	N32	0.774600	0.085700	0.986100
N331	N33	0.654300	0.187700	0.052100
N341	N34	0.513000	0.226000	0.114300
N351	N35	0.912500	0.206100	0.962800
N361	N36	0.956600	0.251900	0.888400
N371	N37	0.806700	0.240500	0.771700
N381	N38	0.623600	0.216700	0.721500
N391	N39	0.120800	0.638600	0.171500
N401	N40	0.176300	0.552300	0.184900
N411	N41	0.850300	0.783200	0.718300
N421	N42	0.660400	0.770700	0.767500
N431	N43	0.128700	0.836400	0.664000
N441	N44	0.215500	0.920200	0.678500
N451	N45	0.392500	0.962400	0.779800
N461	N46	0.579100	0.953000	0.830500
N471	N47	0.080000	0.008800	0.760500
N481	N48	0.891700	0.002600	0.811100
N491	N49	0.363400	0.600200	0.616600
N501	N50	0.526800	0.647100	0.574200
N511	N51	0.751400	0.514400	0.429600
N521	N52	0.725400	0.585700	0.486100
N531	N53	0.845700	0.687700	0.552100
N541	N54	0.987000	0.726000	0.614300
N551	N55	0.587500	0.706100	0.462800
N561	N56	0.543400	0.751900	0.388400
N571	N57	0.693300	0.740500	0.271700
N581	N58	0.876400	0.716700	0.221500
N591	N59	0.379200	0.138600	0.671500
N601	N60	0.323700	0.052300	0.684900
N611	N61	0.350300	0.716800	0.781700
N621	N62	0.160400	0.729300	0.732500
N631	N63	0.628700	0.663600	0.836000
N641	N64	0.715500	0.579800	0.821500
N651	N65	0.892500	0.537600	0.720200
N661	N66	0.079100	0.547000	0.669500
N671	N67	0.580000	0.491200	0.739500
N681	N68	0.391700	0.497400	0.688900
N691	N69	0.863400	0.899800	0.883400
N701	N70	0.026800	0.852900	0.925800
N711	N71	0.251400	0.985600	0.070400
N721	N72	0.225400	0.914300	0.013900
N731	N73	0.345700	0.812300	0.947900
N741	N74	0.487000	0.774000	0.885700
N751	N75	0.087500	0.793900	0.037200
N761	N76	0.043400	0.748100	0.111600
N771	N77	0.193300	0.759500	0.228300
N781	N78	0.376400	0.783300	0.278500
N791	N79	0.879200	0.361400	0.828500
N801	N80	0.823700	0.447700	0.815100
