data_HIJSOK_clean_PM
_symmetry_space_group_name_H-M	'P1'
_cell_length_a	17.583900
_cell_length_b	18.279100
_cell_length_c	18.279100
_cell_angle_alpha	90.000000
_cell_angle_beta	90.000000
_cell_angle_gamma	90.000000
_symmetry_Int_Tables_number 1

loop_
_symmetry_equiv_pos_as_xyz
'x,y,z'

loop_
_atom_site_label
_atom_site_type_symbol
_atom_site_fract_x
_atom_site_fract_y
_atom_site_fract_z
Co11	Co1	0.665290	0.653670	0.066460
Co21	Co2	0.165290	0.346330	0.933540
Co31	Co3	0.415290	0.566460	0.846330
Co41	Co4	0.000000	0.943190	0.943190
Co51	Co5	0.000000	0.340720	0.340720
Co61	Co6	0.084710	0.153670	0.433540
Co71	Co7	0.334710	0.066460	0.653670
Co81	Co8	0.500000	0.056810	0.056810
Co91	Co9	0.500000	0.659280	0.659280
Co101	Co10	0.750000	0.443190	0.556810
Co111	Co11	0.250000	0.159280	0.840720
Co121	Co12	0.915290	0.433540	0.153670
Co131	Co13	0.250000	0.556810	0.443190
Co141	Co14	0.834710	0.933540	0.346330
Co151	Co15	0.750000	0.840720	0.159280
Co161	Co16	0.584710	0.846330	0.566460
H11	H1	0.531300	0.155200	0.476400
H21	H2	0.468700	0.476400	0.155200
H31	H3	0.973900	0.312300	0.666400
H41	H4	0.484800	0.063000	0.237900
H51	H5	0.949800	0.323200	0.787100
H61	H6	0.699800	0.287100	0.176800
H71	H7	0.199800	0.712900	0.823200
H81	H8	0.140800	0.274000	0.237200
H91	H9	0.159800	0.386500	0.756900
H101	H10	0.597900	0.320400	0.115700
H111	H11	0.847900	0.384300	0.820400
H121	H12	0.001900	0.725700	0.532500
H131	H13	0.800200	0.823200	0.712900
H141	H14	0.347900	0.615700	0.179600
H151	H15	0.890800	0.737200	0.226000
H161	H16	0.652800	0.968900	0.816700
H171	H17	0.248200	0.242500	0.451300
H181	H18	0.359200	0.762800	0.726000
H191	H19	0.251900	0.967500	0.225700
H201	H20	0.473900	0.687700	0.333600
H211	H21	0.026100	0.666400	0.312300
H221	H22	0.847200	0.183300	0.031100
H231	H23	0.515200	0.237900	0.063000
H241	H24	0.031300	0.844800	0.523600
H251	H25	0.998100	0.532500	0.725700
H261	H26	0.902800	0.683300	0.468900
H271	H27	0.498200	0.048700	0.742500
H281	H28	0.347200	0.816700	0.968900
H291	H29	0.152100	0.820400	0.384300
H301	H30	0.050200	0.787100	0.323200
H311	H31	0.718700	0.344800	0.976400
H321	H32	0.223900	0.833600	0.812300
H331	H33	0.590200	0.886500	0.743100
H341	H34	0.765200	0.437000	0.737900
H351	H35	0.276100	0.187700	0.166400
H361	H36	0.723900	0.166400	0.187700
H371	H37	0.390800	0.262800	0.774000
H381	H38	0.097900	0.679600	0.884300
H391	H39	0.859200	0.237200	0.274000
H401	H40	0.652100	0.179600	0.615700
H411	H41	0.781300	0.023600	0.655200
H421	H42	0.840200	0.756900	0.386500
H431	H43	0.449800	0.676800	0.212900
H441	H44	0.152800	0.031100	0.183300
H451	H45	0.501900	0.274300	0.467500
H461	H46	0.097200	0.468900	0.683300
H471	H47	0.402100	0.115700	0.320400
H481	H48	0.234800	0.737900	0.437000
H491	H49	0.550200	0.212900	0.676800
H501	H50	0.409800	0.743100	0.886500
H511	H51	0.300200	0.176800	0.287100
H521	H52	0.109200	0.226000	0.737200
H531	H53	0.902100	0.884300	0.679600
H541	H54	0.734800	0.262100	0.563000
H551	H55	0.218700	0.655200	0.023600
H561	H56	0.909800	0.256900	0.113500
H571	H57	0.597200	0.531100	0.316700
H581	H58	0.748100	0.225700	0.967500
H591	H59	0.251800	0.548700	0.757500
H601	H60	0.001800	0.257500	0.951300
H611	H61	0.340200	0.243100	0.613500
H621	H62	0.751800	0.451300	0.242500
H631	H63	0.248100	0.774300	0.032500
H641	H64	0.609200	0.774000	0.262800
H651	H65	0.776100	0.812300	0.833600
H661	H66	0.659800	0.613500	0.243100
H671	H67	0.751900	0.032500	0.774300
H681	H68	0.968700	0.523600	0.844800
H691	H69	0.748200	0.757500	0.548700
H701	H70	0.526100	0.333600	0.687700
H711	H71	0.498100	0.467500	0.274300
H721	H72	0.501800	0.742500	0.048700
H731	H73	0.015200	0.762100	0.937000
H741	H74	0.402800	0.316700	0.531100
H751	H75	0.984800	0.937000	0.762100
H761	H76	0.281300	0.976400	0.344800
H771	H77	0.640800	0.726000	0.762800
H781	H78	0.998200	0.951300	0.257500
H791	H79	0.265200	0.563000	0.262100
H801	H80	0.090200	0.113500	0.256900
C11	C1	0.903700	0.898500	0.133400
C21	C2	0.582300	0.247600	0.656000
C31	C3	0.358300	0.290600	0.802900
C41	C4	0.879400	0.776500	0.414400
C51	C5	0.192200	0.721100	0.411900
C61	C6	0.667900	0.963400	0.768300
C71	C7	0.039500	0.226700	0.933200
C81	C8	0.057800	0.778900	0.911900
C91	C9	0.692200	0.278900	0.588100
C101	C10	0.724600	0.001500	0.743700
C111	C11	0.721400	0.936500	0.550800
C121	C12	0.278600	0.550800	0.936500
C131	C13	0.210500	0.273300	0.433200
C141	C14	0.332300	0.156000	0.252400
C151	C15	0.891700	0.209400	0.302900
C161	C16	0.624000	0.938800	0.119800
C171	C17	0.645300	0.050600	0.134900
C181	C18	0.431200	0.661800	0.318400
C191	C19	0.789500	0.433200	0.273300
C201	C20	0.153700	0.366600	0.398500
C211	C21	0.310000	0.378000	0.859300
C221	C22	0.507700	0.505000	0.174100
C231	C23	0.876000	0.880200	0.061200
C241	C24	0.129400	0.085600	0.276500
C251	C25	0.120600	0.414400	0.776500
C261	C26	0.874000	0.380200	0.438800
C271	C27	0.795200	0.371800	0.052800
C281	C28	0.940000	0.122000	0.359300
C291	C29	0.115600	0.629300	0.369100
C301	C30	0.440000	0.878000	0.640700
C311	C31	0.290200	0.445800	0.896000
C321	C32	0.858400	0.379500	0.770800
C331	C33	0.960500	0.933200	0.226700
C341	C34	0.807800	0.411900	0.721100
C351	C35	0.895300	0.365100	0.550600
C361	C36	0.959800	0.054200	0.396000
C371	C37	0.471400	0.050800	0.563500
C381	C38	0.615600	0.370700	0.630900
C391	C39	0.858300	0.709400	0.197100
C401	C40	0.082300	0.752400	0.344000
C411	C41	0.318800	0.161800	0.181600
C421	C42	0.974600	0.756300	0.501500
C431	C43	0.865600	0.869100	0.870700
C441	C44	0.626000	0.561200	0.619800
C451	C45	0.604700	0.449400	0.634900
C461	C46	0.454800	0.128200	0.552800
C471	C47	0.790200	0.554200	0.104000
C481	C48	0.190000	0.140700	0.622000
C491	C49	0.460500	0.066800	0.773300
C501	C50	0.634400	0.129300	0.130900
C511	C51	0.374000	0.619800	0.561200
C521	C52	0.539500	0.773300	0.066800
C531	C53	0.832100	0.231700	0.036600
C541	C54	0.384400	0.630900	0.370700
C551	C55	0.221400	0.063500	0.449200
C561	C56	0.775400	0.256300	0.998500
C571	C57	0.365600	0.130900	0.129300
C581	C58	0.257700	0.674100	0.995000
C591	C59	0.810000	0.622000	0.140700
C601	C60	0.942200	0.911900	0.778900
C611	C61	0.307800	0.588100	0.278900
C621	C62	0.108400	0.729200	0.879500
C631	C63	0.596300	0.866600	0.101500
C641	C64	0.608400	0.270800	0.120500
C651	C65	0.403700	0.101500	0.866600
C661	C66	0.242300	0.005000	0.325900
C671	C67	0.757700	0.325900	0.005000
C681	C68	0.917700	0.344000	0.752400
C691	C69	0.346300	0.601500	0.633400
C701	C70	0.474600	0.243700	0.498500
C711	C71	0.025400	0.501500	0.756300
C721	C72	0.417900	0.268300	0.536600
C731	C73	0.931200	0.338200	0.681600
C741	C74	0.442200	0.088100	0.221100
C751	C75	0.358400	0.620500	0.229200
C761	C76	0.124000	0.061200	0.880200
C771	C77	0.492300	0.174100	0.505000
C781	C78	0.870600	0.276500	0.085600
C791	C79	0.141700	0.197100	0.709400
C801	C80	0.370600	0.723500	0.914400
C811	C81	0.040200	0.396000	0.054200
C821	C82	0.141600	0.770800	0.379500
C831	C83	0.395300	0.634900	0.449400
C841	C84	0.209800	0.104000	0.554200
C851	C85	0.917900	0.731700	0.463400
C861	C86	0.045200	0.447200	0.871800
C871	C87	0.891600	0.879500	0.729200
C881	C88	0.354700	0.134900	0.050600
C891	C89	0.557800	0.221100	0.088100
C901	C90	0.653700	0.633400	0.601500
C911	C91	0.391600	0.120500	0.270800
C921	C92	0.641600	0.229200	0.620500
C931	C93	0.560000	0.640700	0.878000
C941	C94	0.204800	0.052800	0.371800
C951	C95	0.690000	0.859300	0.378000
C961	C96	0.608300	0.697100	0.790600
C971	C97	0.710500	0.726700	0.566800
C981	C98	0.289500	0.566800	0.726700
C991	C99	0.667700	0.252400	0.156000
C1001	C100	0.954800	0.871800	0.447200
C1011	C101	0.028600	0.436500	0.949200
C1021	C102	0.391700	0.790600	0.697100
C1031	C103	0.104700	0.550600	0.365100
C1041	C104	0.332100	0.768300	0.963400
C1051	C105	0.818800	0.838200	0.818400
C1061	C106	0.545200	0.552800	0.128200
C1071	C107	0.007700	0.495000	0.825900
C1081	C108	0.540200	0.604000	0.945800
C1091	C109	0.525400	0.498500	0.243700
C1101	C110	0.528600	0.563500	0.050800
C1111	C111	0.134400	0.870700	0.869100
C1121	C112	0.992300	0.825900	0.495000
C1131	C113	0.459800	0.945800	0.604000
C1141	C114	0.108300	0.302900	0.209400
C1151	C115	0.096300	0.133400	0.898500
C1161	C116	0.568800	0.318400	0.661800
C1171	C117	0.181200	0.818400	0.838200
C1181	C118	0.275400	0.743700	0.001500
C1191	C119	0.224600	0.998500	0.256300
C1201	C120	0.971400	0.949200	0.436500
C1211	C121	0.167900	0.036600	0.231700
C1221	C122	0.709800	0.896000	0.445800
C1231	C123	0.641700	0.802900	0.290600
C1241	C124	0.060000	0.359300	0.122000
C1251	C125	0.629400	0.914400	0.723500
C1261	C126	0.379400	0.223500	0.585600
C1271	C127	0.167700	0.747600	0.844000
C1281	C128	0.704800	0.947200	0.628200
C1291	C129	0.376000	0.119800	0.938800
C1301	C130	0.846300	0.398500	0.366600
C1311	C131	0.681200	0.181600	0.161800
C1321	C132	0.295200	0.628200	0.947200
C1331	C133	0.620600	0.585600	0.223500
C1341	C134	0.082100	0.463400	0.731700
C1351	C135	0.582100	0.536600	0.268300
C1361	C136	0.145300	0.949400	0.865100
C1371	C137	0.417700	0.656000	0.247600
C1381	C138	0.884400	0.369100	0.629300
C1391	C139	0.778600	0.449200	0.063500
C1401	C140	0.742300	0.995000	0.674100
C1411	C141	0.126000	0.438800	0.380200
C1421	C142	0.854700	0.865100	0.949400
C1431	C143	0.068800	0.681600	0.338200
C1441	C144	0.832300	0.844000	0.747600
N11	N1	0.159100	0.505300	0.389100
N21	N2	0.071400	0.851300	0.906400
N31	N3	0.393150	0.087500	0.748700
N41	N4	0.909100	0.889100	0.994700
N51	N5	0.105330	0.312680	0.389080
N61	N6	0.879200	0.137600	0.318900
N71	N7	0.090900	0.994700	0.889100
N81	N8	0.103200	0.406800	0.844900
N91	N9	0.840900	0.389100	0.505300
N101	N10	0.220900	0.514400	0.966300
N111	N11	0.987400	0.178200	0.368940
N121	N12	0.355330	0.110920	0.812680
N131	N13	0.220600	0.345800	0.426300
N141	N14	0.029100	0.985600	0.466300
N151	N15	0.177000	0.108140	0.489460
N161	N16	0.678600	0.351300	0.593600
N171	N17	0.571400	0.148700	0.093600
N181	N18	0.294700	0.264200	0.833000
N191	N19	0.692800	0.943600	0.147700
N201	N20	0.896800	0.844900	0.406800
N211	N21	0.307200	0.147700	0.943600
N221	N22	0.057200	0.443600	0.352300
N231	N23	0.603200	0.593200	0.155100
N241	N24	0.192800	0.056400	0.852300
N251	N25	0.379200	0.862400	0.681100
N261	N26	0.737400	0.868940	0.321800
N271	N27	0.396800	0.155100	0.593200
N281	N28	0.853200	0.344900	0.093200
N291	N29	0.573000	0.608140	0.010540
N301	N30	0.807200	0.852300	0.056400
N311	N31	0.178600	0.648700	0.406400
N321	N32	0.970600	0.926300	0.154200
N331	N33	0.957400	0.341100	0.516900
N341	N34	0.143150	0.248700	0.412500
N351	N35	0.659100	0.494700	0.610900
N361	N36	0.705300	0.833000	0.264200
N371	N37	0.409100	0.110900	0.005300
N381	N38	0.356850	0.587500	0.751300
N391	N39	0.427000	0.010540	0.608140
N401	N40	0.823000	0.489460	0.108140
N411	N41	0.707400	0.016900	0.158900
N421	N42	0.120800	0.318900	0.137600
N431	N43	0.942800	0.352300	0.443600
N441	N44	0.557200	0.556400	0.647700
N451	N45	0.455300	0.764200	0.667000
N461	N46	0.821400	0.406400	0.648700
N471	N47	0.620800	0.681100	0.862400
N481	N48	0.927000	0.989460	0.391860
N491	N49	0.529400	0.845800	0.073700
N501	N50	0.779100	0.966300	0.514400
N511	N51	0.779400	0.426300	0.345800
N521	N52	0.643150	0.751300	0.587500
N531	N53	0.979800	0.439400	0.054300
N541	N54	0.520200	0.945700	0.560600
N551	N55	0.487400	0.821800	0.631060
N561	N56	0.394670	0.610920	0.687320
N571	N57	0.029400	0.154200	0.926300
N581	N58	0.644670	0.812680	0.110920
N591	N59	0.457400	0.658900	0.483100
N601	N60	0.542600	0.483100	0.658900
N611	N61	0.856850	0.412500	0.248700
N621	N62	0.470600	0.073700	0.845800
N631	N63	0.646800	0.906800	0.655100
N641	N64	0.428600	0.093600	0.148700
N651	N65	0.207400	0.983100	0.841100
N661	N66	0.629200	0.818900	0.362400
N671	N67	0.512600	0.631060	0.821800
N681	N68	0.479800	0.560600	0.945700
N691	N69	0.292600	0.158900	0.016900
N701	N70	0.720600	0.654200	0.573700
N711	N71	0.955300	0.235800	0.333000
N721	N72	0.146800	0.093200	0.344900
N731	N73	0.855330	0.889080	0.187320
N741	N74	0.012600	0.368940	0.178200
N751	N75	0.442800	0.647700	0.556400
N761	N76	0.677000	0.891860	0.510540
N771	N77	0.205300	0.167000	0.735800
N781	N78	0.340900	0.610900	0.494700
N791	N79	0.370800	0.362400	0.818900
N801	N80	0.720900	0.485600	0.033700
N811	N81	0.321400	0.593600	0.351300
N821	N82	0.893150	0.912500	0.251300
N831	N83	0.762600	0.678200	0.131060
N841	N84	0.229800	0.445700	0.939400
N851	N85	0.270200	0.060600	0.554300
N861	N86	0.544700	0.667000	0.764200
N871	N87	0.770200	0.939400	0.445700
N881	N88	0.792600	0.841100	0.983100
N891	N89	0.729800	0.554300	0.060600
N901	N90	0.529100	0.014400	0.533700
N911	N91	0.129200	0.181100	0.637600
N921	N92	0.020200	0.054300	0.439400
N931	N93	0.970900	0.466300	0.985600
N941	N94	0.323000	0.510540	0.891860
N951	N95	0.894670	0.389080	0.312680
N961	N96	0.605330	0.687320	0.610920
N971	N97	0.279100	0.033700	0.485600
N981	N98	0.073000	0.391860	0.989460
N991	N99	0.470900	0.533700	0.014400
N1001	N100	0.279400	0.573700	0.654200
N1011	N101	0.262600	0.321800	0.868940
N1021	N102	0.606850	0.748700	0.087500
N1031	N103	0.794700	0.735800	0.167000
N1041	N104	0.106850	0.251300	0.912500
N1051	N105	0.144670	0.187320	0.889080
N1061	N106	0.870800	0.637600	0.181100
N1071	N107	0.590900	0.005300	0.110900
N1081	N108	0.928600	0.906400	0.851300
N1091	N109	0.237400	0.131060	0.678200
N1101	N110	0.353200	0.655100	0.906800
N1111	N111	0.044700	0.333000	0.235800
N1121	N112	0.042600	0.516900	0.341100
