data_HILJUJ_clean_PM
_symmetry_space_group_name_H-M	'P1'
_cell_length_a	26.211000
_cell_length_b	13.529500
_cell_length_c	6.748100
_cell_angle_alpha	90.000000
_cell_angle_beta	92.294000
_cell_angle_gamma	90.000000
_symmetry_Int_Tables_number 1

loop_
_symmetry_equiv_pos_as_xyz
'x,y,z'

loop_
_atom_site_label
_atom_site_type_symbol
_atom_site_fract_x
_atom_site_fract_y
_atom_site_fract_z
Ce11	Ce1	0.103480	0.192840	0.509630
N11	N1	0.295730	0.869000	0.408800
O11	O1	0.313480	0.220890	0.425100
O21	O2	0.379240	0.126500	0.508700
O31	O3	0.137210	0.040840	0.401800
O41	O4	0.140230	0.884750	0.304500
O51	O5	0.016270	0.261000	0.422800
O61	O6	0.044630	0.139200	0.207000
C11	C1	0.161170	0.964200	0.362400
C21	C2	0.218570	0.964900	0.387100
C31	C3	0.244750	0.875400	0.384600
H11	H1	0.226100	0.817400	0.365400
C41	C4	0.322210	0.953200	0.433200
H21	H2	0.357500	0.949300	0.450600
C51	C5	0.299410	0.046400	0.433800
C61	C6	0.246610	0.052400	0.410900
H31	H3	0.230200	0.113300	0.411400
C71	C7	0.332330	0.137200	0.457200
Ce21	Ce2	0.603480	0.692840	0.509630
N21	N2	0.795730	0.369000	0.408800
O71	O7	0.813480	0.720890	0.425100
O81	O8	0.879240	0.626500	0.508700
O91	O9	0.637210	0.540840	0.401800
O101	O10	0.640230	0.384750	0.304500
O111	O11	0.516270	0.761000	0.422800
O121	O12	0.544630	0.639200	0.207000
C81	C8	0.661170	0.464200	0.362400
C91	C9	0.718570	0.464900	0.387100
C101	C10	0.744750	0.375400	0.384600
H41	H4	0.726100	0.317400	0.365400
C111	C11	0.822210	0.453200	0.433200
H51	H5	0.857500	0.449300	0.450600
C121	C12	0.799410	0.546400	0.433800
C131	C13	0.746610	0.552400	0.410900
H61	H6	0.730200	0.613300	0.411400
C141	C14	0.832330	0.637200	0.457200
Ce31	Ce3	0.896520	0.192840	0.990370
N31	N3	0.704270	0.869000	0.091200
O131	O13	0.686520	0.220890	0.074900
O141	O14	0.620760	0.126500	0.991300
O151	O15	0.862790	0.040840	0.098200
O161	O16	0.859770	0.884750	0.195500
O171	O17	0.983730	0.261000	0.077200
O181	O18	0.955370	0.139200	0.293000
C151	C15	0.838830	0.964200	0.137600
C161	C16	0.781430	0.964900	0.112900
C171	C17	0.755250	0.875400	0.115400
H71	H7	0.773900	0.817400	0.134600
C181	C18	0.677790	0.953200	0.066800
H81	H8	0.642500	0.949300	0.049400
C191	C19	0.700590	0.046400	0.066200
C201	C20	0.753390	0.052400	0.089100
H91	H9	0.769800	0.113300	0.088600
C211	C21	0.667670	0.137200	0.042800
Ce41	Ce4	0.396520	0.692840	0.990370
N41	N4	0.204270	0.369000	0.091200
O191	O19	0.186520	0.720890	0.074900
O201	O20	0.120760	0.626500	0.991300
O211	O21	0.362790	0.540840	0.098200
O221	O22	0.359770	0.384750	0.195500
O231	O23	0.483730	0.761000	0.077200
O241	O24	0.455370	0.639200	0.293000
C221	C22	0.338830	0.464200	0.137600
C231	C23	0.281430	0.464900	0.112900
C241	C24	0.255250	0.375400	0.115400
H101	H10	0.273900	0.317400	0.134600
C251	C25	0.177790	0.453200	0.066800
H111	H11	0.142500	0.449300	0.049400
C261	C26	0.200590	0.546400	0.066200
C271	C27	0.253390	0.552400	0.089100
H121	H12	0.269800	0.613300	0.088600
C281	C28	0.167670	0.637200	0.042800
Ce51	Ce5	0.896520	0.807160	0.490370
N51	N5	0.704270	0.131000	0.591200
O251	O25	0.686520	0.779110	0.574900
O261	O26	0.620760	0.873500	0.491300
O271	O27	0.862790	0.959160	0.598200
O281	O28	0.859770	0.115250	0.695500
O291	O29	0.983730	0.739000	0.577200
O301	O30	0.955370	0.860800	0.793000
C291	C29	0.838830	0.035800	0.637600
C301	C30	0.781430	0.035100	0.612900
C311	C31	0.755250	0.124600	0.615400
H131	H13	0.773900	0.182600	0.634600
C321	C32	0.677790	0.046800	0.566800
H141	H14	0.642500	0.050700	0.549400
C331	C33	0.700590	0.953600	0.566200
C341	C34	0.753390	0.947600	0.589100
H151	H15	0.769800	0.886700	0.588600
C351	C35	0.667670	0.862800	0.542800
Ce61	Ce6	0.396520	0.307160	0.490370
N61	N6	0.204270	0.631000	0.591200
O311	O31	0.186520	0.279110	0.574900
O321	O32	0.120760	0.373500	0.491300
O331	O33	0.362790	0.459160	0.598200
O341	O34	0.359770	0.615250	0.695500
O351	O35	0.483730	0.239000	0.577200
O361	O36	0.455370	0.360800	0.793000
C361	C36	0.338830	0.535800	0.637600
C371	C37	0.281430	0.535100	0.612900
C381	C38	0.255250	0.624600	0.615400
H161	H16	0.273900	0.682600	0.634600
C391	C39	0.177790	0.546800	0.566800
H171	H17	0.142500	0.550700	0.549400
C401	C40	0.200590	0.453600	0.566200
C411	C41	0.253390	0.447600	0.589100
H181	H18	0.269800	0.386700	0.588600
C421	C42	0.167670	0.362800	0.542800
Ce71	Ce7	0.103480	0.807160	0.009630
N71	N7	0.295730	0.131000	0.908800
O371	O37	0.313480	0.779110	0.925100
O381	O38	0.379240	0.873500	0.008700
O391	O39	0.137210	0.959160	0.901800
O401	O40	0.140230	0.115250	0.804500
O411	O41	0.016270	0.739000	0.922800
O421	O42	0.044630	0.860800	0.707000
C431	C43	0.161170	0.035800	0.862400
C441	C44	0.218570	0.035100	0.887100
C451	C45	0.244750	0.124600	0.884600
H191	H19	0.226100	0.182600	0.865400
C461	C46	0.322210	0.046800	0.933200
H201	H20	0.357500	0.050700	0.950600
C471	C47	0.299410	0.953600	0.933800
C481	C48	0.246610	0.947600	0.910900
H211	H21	0.230200	0.886700	0.911400
C491	C49	0.332330	0.862800	0.957200
Ce81	Ce8	0.603480	0.307160	0.009630
N81	N8	0.795730	0.631000	0.908800
O431	O43	0.813480	0.279110	0.925100
O441	O44	0.879240	0.373500	0.008700
O451	O45	0.637210	0.459160	0.901800
O461	O46	0.640230	0.615250	0.804500
O471	O47	0.516270	0.239000	0.922800
O481	O48	0.544630	0.360800	0.707000
C501	C50	0.661170	0.535800	0.862400
C511	C51	0.718570	0.535100	0.887100
C521	C52	0.744750	0.624600	0.884600
H221	H22	0.726100	0.682600	0.865400
C531	C53	0.822210	0.546800	0.933200
H231	H23	0.857500	0.550700	0.950600
C541	C54	0.799410	0.453600	0.933800
C551	C55	0.746610	0.447600	0.910900
H241	H24	0.730200	0.386700	0.911400
C561	C56	0.832330	0.362800	0.957200
S11	S1	0.000000	0.200650	0.250000
S21	S2	0.500000	0.700650	0.250000
S31	S3	0.000000	0.799350	0.750000
S41	S4	0.500000	0.299350	0.750000
