data_HIQNAY_clean_PM
_symmetry_space_group_name_H-M	'P1'
_cell_length_a	20.504000
_cell_length_b	9.577600
_cell_length_c	19.444000
_cell_angle_alpha	90.000000
_cell_angle_beta	103.735000
_cell_angle_gamma	90.000000
_symmetry_Int_Tables_number 1

loop_
_symmetry_equiv_pos_as_xyz
'x,y,z'

loop_
_atom_site_label
_atom_site_type_symbol
_atom_site_fract_x
_atom_site_fract_y
_atom_site_fract_z
Zn11	Zn1	0.599110	0.915730	0.789590
Zn21	Zn2	0.718630	0.862990	0.927540
N11	N1	0.557900	0.943800	0.684300
C11	C1	0.512900	0.989400	0.538700
C21	C2	0.525800	0.098000	0.586100
H11	H1	0.518300	0.189300	0.569800
C31	C3	0.549400	0.073200	0.657100
H21	H2	0.560000	0.149000	0.687600
C41	C4	0.520500	0.855200	0.567800
H31	H3	0.508600	0.777500	0.538800
C51	C5	0.545100	0.838700	0.638400
H41	H4	0.553700	0.748400	0.655800
C61	C6	0.388000	0.348400	0.158700
C71	C7	0.763900	0.656800	0.563300
C81	C8	0.747700	0.832500	0.795800
C91	C9	0.760800	0.738200	0.681400
H51	H5	0.714300	0.736900	0.666300
C101	C10	0.791100	0.781100	0.750100
C111	C11	0.798800	0.698300	0.636200
C121	C12	0.899400	0.734300	0.728400
C131	C13	0.868100	0.699700	0.658900
H61	H6	0.894100	0.677200	0.627200
C141	C14	0.859200	0.773800	0.774100
H71	H7	0.879000	0.795100	0.821100
C151	C15	0.371100	0.602600	0.137800
H81	H8	0.387400	0.618700	0.186000
C161	C16	0.350300	0.712600	0.091900
C171	C17	0.328500	0.690300	0.020200
H91	H9	0.313800	0.765800	0.990500
C181	C18	0.367300	0.469600	0.111400
C191	C19	0.351500	0.858400	0.117800
C201	C20	0.347700	0.447100	0.037800
H101	H10	0.348200	0.356800	0.020300
C211	C21	0.327900	0.556600	0.990800
N21	N2	0.310500	0.531300	0.919000
H111	H11	0.313600	0.446800	0.905200
O11	O1	0.385200	0.886300	0.177600
O21	O2	0.692400	0.879200	0.766100
O31	O3	0.377900	0.225500	0.131600
O41	O4	0.772000	0.824700	0.862100
O51	O5	0.412500	0.364100	0.221200
O61	O6	0.703900	0.654200	0.544500
O71	O7	0.316100	0.947600	0.077300
O81	O8	0.801400	0.639700	0.520200
N31	N3	0.968000	0.721500	0.749800
H121	H12	0.989600	0.682600	0.722100
C221	C22	0.215700	0.670000	0.853700
C231	C23	0.288100	0.632300	0.866700
H131	H13	0.296800	0.598700	0.822600
H141	H14	0.314500	0.716300	0.879800
C241	C24	0.002300	0.769400	0.814300
H151	H15	0.986400	0.723400	0.851600
H161	H16	0.995400	0.869100	0.817700
C251	C25	0.166600	0.571600	0.853100
H171	H17	0.179800	0.480200	0.865300
C261	C26	0.194700	0.804900	0.836800
H181	H18	0.225800	0.873800	0.833500
C271	C27	0.097900	0.601600	0.835300
H191	H19	0.066200	0.531000	0.832200
C281	C28	0.078800	0.737800	0.822700
C291	C29	0.127300	0.837700	0.824700
H201	H20	0.114300	0.930600	0.817700
Zn31	Zn3	0.756960	0.980840	0.938700
Zn41	Zn4	0.400890	0.415730	0.710410
Zn51	Zn5	0.281370	0.362990	0.572460
N41	N4	0.442100	0.443800	0.815700
C301	C30	0.487100	0.489400	0.961300
C311	C31	0.474200	0.598000	0.913900
H211	H21	0.481700	0.689300	0.930200
C321	C32	0.450600	0.573200	0.842900
H221	H22	0.440000	0.649000	0.812400
C331	C33	0.479500	0.355200	0.932200
H231	H23	0.491400	0.277500	0.961200
C341	C34	0.454900	0.338700	0.861600
H241	H24	0.446300	0.248400	0.844200
C351	C35	0.612000	0.848400	0.341300
C361	C36	0.236100	0.156800	0.936700
C371	C37	0.252300	0.332500	0.704200
C381	C38	0.239200	0.238200	0.818600
H251	H25	0.285700	0.236900	0.833700
C391	C39	0.208900	0.281100	0.749900
C401	C40	0.201200	0.198300	0.863800
C411	C41	0.100600	0.234300	0.771600
C421	C42	0.131900	0.199700	0.841100
H261	H26	0.105900	0.177200	0.872800
C431	C43	0.140800	0.273800	0.725900
H271	H27	0.121000	0.295100	0.678900
C441	C44	0.628900	0.102600	0.362200
H281	H28	0.612600	0.118700	0.314000
C451	C45	0.649700	0.212600	0.408100
C461	C46	0.671500	0.190300	0.479800
H291	H29	0.686200	0.265800	0.509500
C471	C47	0.632700	0.969600	0.388600
C481	C48	0.648500	0.358400	0.382200
C491	C49	0.652300	0.947100	0.462200
H301	H30	0.651800	0.856800	0.479700
C501	C50	0.672100	0.056600	0.509200
N51	N5	0.689500	0.031300	0.581000
H311	H31	0.686400	0.946800	0.594800
O91	O9	0.614800	0.386300	0.322400
O101	O10	0.307600	0.379200	0.733900
O111	O11	0.622100	0.725500	0.368400
O121	O12	0.228000	0.324700	0.637900
O131	O13	0.587500	0.864100	0.278800
O141	O14	0.296100	0.154200	0.955500
O151	O15	0.683900	0.447600	0.422700
O161	O16	0.198600	0.139700	0.979800
N61	N6	0.032000	0.221500	0.750200
H321	H32	0.010400	0.182600	0.777900
C511	C51	0.784300	0.170000	0.646300
C521	C52	0.711900	0.132300	0.633300
H331	H33	0.703200	0.098700	0.677400
H341	H34	0.685500	0.216300	0.620200
C531	C53	0.997700	0.269400	0.685700
H351	H35	0.013600	0.223400	0.648400
H361	H36	0.004600	0.369100	0.682300
C541	C54	0.833400	0.071600	0.646900
H371	H37	0.820200	0.980200	0.634700
C551	C55	0.805300	0.304900	0.663200
H381	H38	0.774200	0.373800	0.666500
C561	C56	0.902100	0.101600	0.664700
H391	H39	0.933800	0.031000	0.667800
C571	C57	0.921200	0.237800	0.677300
C581	C58	0.872700	0.337700	0.675300
H401	H40	0.885700	0.430600	0.682300
Zn61	Zn6	0.243040	0.480840	0.561300
Zn71	Zn7	0.400890	0.084270	0.210410
Zn81	Zn8	0.281370	0.137010	0.072460
N71	N7	0.442100	0.056200	0.315700
C591	C59	0.487100	0.010600	0.461300
C601	C60	0.474200	0.902000	0.413900
H411	H41	0.481700	0.810700	0.430200
C611	C61	0.450600	0.926800	0.342900
H421	H42	0.440000	0.851000	0.312400
C621	C62	0.479500	0.144800	0.432200
H431	H43	0.491400	0.222500	0.461200
C631	C63	0.454900	0.161300	0.361600
H441	H44	0.446300	0.251600	0.344200
C641	C64	0.612000	0.651600	0.841300
C651	C65	0.236100	0.343200	0.436700
C661	C66	0.252300	0.167500	0.204200
C671	C67	0.239200	0.261800	0.318600
H451	H45	0.285700	0.263100	0.333700
C681	C68	0.208900	0.218900	0.249900
C691	C69	0.201200	0.301700	0.363800
C701	C70	0.100600	0.265700	0.271600
C711	C71	0.131900	0.300300	0.341100
H461	H46	0.105900	0.322800	0.372800
C721	C72	0.140800	0.226200	0.225900
H471	H47	0.121000	0.204900	0.178900
C731	C73	0.628900	0.397400	0.862200
H481	H48	0.612600	0.381300	0.814000
C741	C74	0.649700	0.287400	0.908100
C751	C75	0.671500	0.309700	0.979800
H491	H49	0.686200	0.234200	0.009500
C761	C76	0.632700	0.530400	0.888600
C771	C77	0.648500	0.141600	0.882200
C781	C78	0.652300	0.552900	0.962200
H501	H50	0.651800	0.643200	0.979700
C791	C79	0.672100	0.443400	0.009200
N81	N8	0.689500	0.468700	0.081000
H511	H51	0.686400	0.553200	0.094800
O171	O17	0.614800	0.113700	0.822400
O181	O18	0.307600	0.120800	0.233900
O191	O19	0.622100	0.774500	0.868400
O201	O20	0.228000	0.175300	0.137900
O211	O21	0.587500	0.635900	0.778800
O221	O22	0.296100	0.345800	0.455500
O231	O23	0.683900	0.052400	0.922700
O241	O24	0.198600	0.360300	0.479800
N91	N9	0.032000	0.278500	0.250200
H521	H52	0.010400	0.317400	0.277900
C801	C80	0.784300	0.330000	0.146300
C811	C81	0.711900	0.367700	0.133300
H531	H53	0.703200	0.401300	0.177400
H541	H54	0.685500	0.283700	0.120200
C821	C82	0.997700	0.230600	0.185700
H551	H55	0.013600	0.276600	0.148400
H561	H56	0.004600	0.130900	0.182300
C831	C83	0.833400	0.428400	0.146900
H571	H57	0.820200	0.519800	0.134700
C841	C84	0.805300	0.195100	0.163200
H581	H58	0.774200	0.126200	0.166500
C851	C85	0.902100	0.398400	0.164700
H591	H59	0.933800	0.469000	0.167800
C861	C86	0.921200	0.262200	0.177300
C871	C87	0.872700	0.162300	0.175300
H601	H60	0.885700	0.069400	0.182300
Zn91	Zn9	0.243040	0.019160	0.061300
Zn101	Zn10	0.599110	0.584270	0.289590
Zn111	Zn11	0.718630	0.637010	0.427540
N101	N10	0.557900	0.556200	0.184300
C881	C88	0.512900	0.510600	0.038700
C891	C89	0.525800	0.402000	0.086100
H611	H61	0.518300	0.310700	0.069800
C901	C90	0.549400	0.426800	0.157100
H621	H62	0.560000	0.351000	0.187600
C911	C91	0.520500	0.644800	0.067800
H631	H63	0.508600	0.722500	0.038800
C921	C92	0.545100	0.661300	0.138400
H641	H64	0.553700	0.751600	0.155800
C931	C93	0.388000	0.151600	0.658700
C941	C94	0.763900	0.843200	0.063300
C951	C95	0.747700	0.667500	0.295800
C961	C96	0.760800	0.761800	0.181400
H651	H65	0.714300	0.763100	0.166300
C971	C97	0.791100	0.718900	0.250100
C981	C98	0.798800	0.801700	0.136200
C991	C99	0.899400	0.765700	0.228400
C1001	C100	0.868100	0.800300	0.158900
H661	H66	0.894100	0.822800	0.127200
C1011	C101	0.859200	0.726200	0.274100
H671	H67	0.879000	0.704900	0.321100
C1021	C102	0.371100	0.897400	0.637800
H681	H68	0.387400	0.881300	0.686000
C1031	C103	0.350300	0.787400	0.591900
C1041	C104	0.328500	0.809700	0.520200
H691	H69	0.313800	0.734200	0.490500
C1051	C105	0.367300	0.030400	0.611400
C1061	C106	0.351500	0.641600	0.617800
C1071	C107	0.347700	0.052900	0.537800
H701	H70	0.348200	0.143200	0.520300
C1081	C108	0.327900	0.943400	0.490800
N111	N11	0.310500	0.968700	0.419000
H711	H71	0.313600	0.053200	0.405200
O251	O25	0.385200	0.613700	0.677600
O261	O26	0.692400	0.620800	0.266100
O271	O27	0.377900	0.274500	0.631600
O281	O28	0.772000	0.675300	0.362100
O291	O29	0.412500	0.135900	0.721200
O301	O30	0.703900	0.845800	0.044500
O311	O31	0.316100	0.552400	0.577300
O321	O32	0.801400	0.860300	0.020200
N121	N12	0.968000	0.778500	0.249800
H721	H72	0.989600	0.817400	0.222100
C1091	C109	0.215700	0.830000	0.353700
C1101	C110	0.288100	0.867700	0.366700
H731	H73	0.296800	0.901300	0.322600
H741	H74	0.314500	0.783700	0.379800
C1111	C111	0.002300	0.730600	0.314300
H751	H75	0.986400	0.776600	0.351600
H761	H76	0.995400	0.630900	0.317700
C1121	C112	0.166600	0.928400	0.353100
H771	H77	0.179800	0.019800	0.365300
C1131	C113	0.194700	0.695100	0.336800
H781	H78	0.225800	0.626200	0.333500
C1141	C114	0.097900	0.898400	0.335300
H791	H79	0.066200	0.969000	0.332200
C1151	C115	0.078800	0.762200	0.322700
C1161	C116	0.127300	0.662300	0.324700
H801	H80	0.114300	0.569400	0.317700
Zn121	Zn12	0.756960	0.519160	0.438700
