data_HISGAT_clean_PM
_symmetry_space_group_name_H-M	'P1'
_cell_length_a	13.355300
_cell_length_b	14.561200
_cell_length_c	23.340000
_cell_angle_alpha	107.946000
_cell_angle_beta	90.000000
_cell_angle_gamma	117.296000
_symmetry_Int_Tables_number 1

loop_
_symmetry_equiv_pos_as_xyz
'x,y,z'

loop_
_atom_site_label
_atom_site_type_symbol
_atom_site_fract_x
_atom_site_fract_y
_atom_site_fract_z
K11	K1	0.127510	0.243540	0.930140
K21	K2	0.188540	0.994880	0.870730
K31	K3	0.985980	0.000000	0.750000
K41	K4	0.871130	0.759880	0.820400
K51	K5	0.000000	0.000000	0.500000
K61	K6	0.888750	0.759880	0.320400
K71	K7	0.872490	0.756460	0.069860
K81	K8	0.193660	0.005120	0.629270
K91	K9	0.014020	0.000000	0.250000
K101	K10	0.116030	0.243540	0.430140
K111	K11	0.000000	0.000000	0.000000
K121	K12	0.811460	0.005120	0.129270
K131	K13	0.111250	0.240120	0.679600
K141	K14	0.883970	0.756460	0.569860
K151	K15	0.128870	0.240120	0.179600
K161	K16	0.806340	0.994880	0.370730
H11	H1	0.893200	0.967600	0.888300
H21	H2	0.074400	0.652800	0.492500
H31	H3	0.389400	0.522400	0.948700
H41	H4	0.783800	0.361200	0.689400
H51	H5	0.622300	0.477800	0.301700
H61	H6	0.409200	0.354800	0.759700
H71	H7	0.577400	0.361200	0.189400
H81	H8	0.599400	0.744000	0.592300
H91	H9	0.073800	0.643600	0.235700
H101	H10	0.152400	0.764800	0.353300
H111	H11	0.111300	0.007000	0.365100
H121	H12	0.416900	0.366600	0.518100
H131	H13	0.211600	0.640600	0.562900
H141	H14	0.855400	0.256000	0.907700
H151	H15	0.377700	0.522200	0.698300
H161	H16	0.422600	0.638800	0.810600
H171	H17	0.571000	0.359400	0.937100
H181	H18	0.583600	0.360600	0.690500
H191	H19	0.612400	0.764800	0.853300
H201	H20	0.407300	0.623200	0.554000
H211	H21	0.149900	0.758600	0.849300
H221	H22	0.391300	0.241400	0.650700
H231	H23	0.120600	0.510400	0.942000
H241	H24	0.895700	0.007000	0.865100
H251	H25	0.104300	0.993000	0.134900
H261	H26	0.592700	0.376800	0.446000
H271	H27	0.882600	0.481600	0.301600
H281	H28	0.216200	0.638800	0.310600
H291	H29	0.106800	0.032400	0.111700
H301	H30	0.850100	0.241400	0.150700
H311	H31	0.387600	0.235200	0.146700
H321	H32	0.599000	0.481600	0.801600
H331	H33	0.583100	0.633400	0.481900
H341	H34	0.610200	0.489600	0.558000
H351	H35	0.949700	0.366600	0.018100
H361	H36	0.401000	0.518400	0.198400
H371	H37	0.610600	0.477600	0.051300
H381	H38	0.147500	0.766000	0.605300
H391	H39	0.784100	0.376800	0.946000
H401	H40	0.777000	0.360600	0.190500
H411	H41	0.926200	0.356400	0.764300
H421	H42	0.144600	0.744000	0.092300
H431	H43	0.430200	0.356400	0.264300
H441	H44	0.400600	0.256000	0.407700
H451	H45	0.381500	0.234000	0.894700
H461	H46	0.888700	0.993000	0.634900
H471	H47	0.788400	0.359400	0.437100
H481	H48	0.578400	0.652800	0.992500
H491	H49	0.215900	0.623200	0.054000
H501	H50	0.416400	0.639400	0.309500
H511	H51	0.429000	0.640600	0.062900
H521	H52	0.117400	0.518400	0.698400
H531	H53	0.925600	0.032400	0.611700
H541	H54	0.925600	0.347200	0.507500
H551	H55	0.867000	0.477600	0.551300
H561	H56	0.223000	0.639400	0.809500
H571	H57	0.074400	0.967600	0.388300
H581	H58	0.050300	0.633400	0.981900
H591	H59	0.569800	0.643600	0.735700
H601	H60	0.852500	0.234000	0.394700
H611	H61	0.054400	0.645200	0.740300
H621	H62	0.608700	0.758600	0.349300
H631	H63	0.133000	0.522400	0.448700
H641	H64	0.879400	0.489600	0.058000
H651	H65	0.421600	0.347200	0.007500
H661	H66	0.144500	0.522200	0.198300
H671	H67	0.590800	0.645200	0.240300
H681	H68	0.945600	0.354800	0.259700
H691	H69	0.618500	0.766000	0.105300
H701	H70	0.389800	0.510400	0.442000
H711	H71	0.847600	0.235200	0.646700
H721	H72	0.855500	0.477800	0.801700
C11	C1	0.558140	0.645080	0.205080
C21	C2	0.110460	0.724120	0.428430
C31	C3	0.876060	0.431320	0.320100
C41	C4	0.549550	0.634700	0.447500
C51	C5	0.188110	0.562420	0.122640
C61	C6	0.377090	0.278980	0.821680
C71	C7	0.602410	0.431820	0.872960
C81	C8	0.105010	0.707820	0.168730
C91	C9	0.063840	0.808680	0.707040
C101	C10	0.728080	0.793560	0.695300
C111	C11	0.180340	0.641680	0.598600
C121	C12	0.449560	0.638320	0.344200
C131	C13	0.857230	0.282860	0.375500
C141	C14	0.187960	0.627720	0.090700
C151	C15	0.614510	0.434420	0.626890
C161	C16	0.936160	0.191320	0.292960
C171	C17	0.435550	0.290500	0.631700
C181	C18	0.150520	0.717640	0.373100
C191	C19	0.374310	0.562420	0.622640
C201	C20	0.577880	0.432760	0.322760
C211	C21	0.123940	0.568680	0.679900
C221	C22	0.439760	0.627720	0.590700
C231	C23	0.566370	0.427740	0.069860
C241	C24	0.187780	0.641560	0.347100
C251	C25	0.086940	0.645080	0.705080
C261	C26	0.180090	0.565580	0.873110
C271	C27	0.567120	0.717640	0.873100
C281	C28	0.811240	0.361680	0.155800
C291	C29	0.397190	0.292180	0.331270
C301	C30	0.271920	0.206440	0.304700
C311	C31	0.170590	0.568180	0.627040
C321	C32	0.098110	0.721020	0.678320
C331	C33	0.265310	0.186620	0.042100
C341	C34	0.388200	0.570400	0.875990
C351	C35	0.127610	0.561220	0.923840
C361	C36	0.103170	0.650340	0.456130
C371	C37	0.817800	0.429600	0.624010
C381	C38	0.397590	0.568180	0.127040
C391	C39	0.861370	0.427740	0.569860
C401	C40	0.463250	0.359900	0.300480
C411	C41	0.574370	0.717140	0.124500
C421	C42	0.432880	0.282360	0.126900
C431	C43	0.425630	0.282860	0.875500
C441	C44	0.145050	0.709500	0.868300
C451	C45	0.914850	0.365300	0.052500
C461	C46	0.444740	0.568680	0.179900
C471	C47	0.854320	0.299840	0.886200
C481	C48	0.445520	0.299840	0.386200
C491	C49	0.546220	0.358440	0.152900
C501	C50	0.385490	0.565580	0.373110
C511	C51	0.065480	0.793560	0.195300
C521	C52	0.934520	0.206440	0.804700
C531	C53	0.819910	0.434420	0.126890
C541	C54	0.560240	0.372280	0.409300
C551	C55	0.872390	0.438780	0.076160
C561	C56	0.819660	0.358320	0.401400
C571	C57	0.085150	0.634700	0.947500
C581	C58	0.849480	0.282360	0.626900
C591	C59	0.622910	0.721020	0.178320
C601	C60	0.142770	0.717140	0.624500
C611	C61	0.441860	0.354920	0.794920
C621	C62	0.947150	0.208100	0.053000
C631	C63	0.905260	0.290720	0.080300
C641	C64	0.094740	0.709280	0.919700
C651	C65	0.536750	0.640100	0.699520
C661	C66	0.255160	0.191320	0.792960
C671	C67	0.811890	0.437580	0.877360
C681	C68	0.894990	0.292180	0.831270
C691	C69	0.921310	0.186620	0.542100
C701	C70	0.613660	0.724120	0.928430
C711	C71	0.554480	0.700160	0.613800
C721	C72	0.538660	0.358320	0.901400
C731	C73	0.854950	0.290500	0.131700
C741	C74	0.611800	0.429600	0.124010
C751	C75	0.138630	0.572260	0.430140
C761	C76	0.896650	0.359900	0.800480
C771	C77	0.854880	0.432760	0.822760
C781	C78	0.450450	0.365300	0.552500
C791	C79	0.145680	0.700160	0.113800
C801	C80	0.566390	0.438780	0.576160
C811	C81	0.385460	0.290720	0.580300
C821	C82	0.625690	0.437580	0.377360
C831	C83	0.433630	0.572260	0.930140
C841	C84	0.896830	0.349660	0.543870
C851	C85	0.812220	0.358440	0.652900
C861	C86	0.901890	0.278980	0.321680
C871	C87	0.739050	0.791900	0.447000
C881	C88	0.260950	0.208100	0.553000
C891	C89	0.433610	0.561220	0.423840
C901	C90	0.734690	0.813380	0.957900
C911	C91	0.188760	0.638320	0.844200
C921	C92	0.386340	0.275880	0.071570
C931	C93	0.614540	0.709280	0.419700
C941	C94	0.812040	0.372280	0.909300
C951	C95	0.052850	0.791900	0.947000
C961	C96	0.913060	0.354920	0.294920
C971	C97	0.103350	0.640100	0.199520
C981	C98	0.564450	0.709500	0.368300
C991	C99	0.422120	0.567240	0.677240
C1001	C100	0.461340	0.641680	0.098600
C1011	C101	0.547170	0.650340	0.956130
C1021	C102	0.145120	0.567240	0.177240
C1031	C103	0.182200	0.570400	0.375990
C1041	C104	0.744840	0.808680	0.207040
C1051	C105	0.452830	0.349660	0.043870
C1061	C106	0.078690	0.813380	0.457900
C1071	C107	0.829410	0.431820	0.372960
C1081	C108	0.550440	0.361680	0.655800
C1091	C109	0.555260	0.431320	0.820100
C1101	C110	0.453780	0.641560	0.847100
C1111	C111	0.602810	0.707820	0.668730
C1121	C112	0.889540	0.275880	0.571570
S11	S1	0.251150	0.477300	0.096030
S21	S2	0.226150	0.477300	0.596030
S31	S3	0.237340	0.479640	0.345240
S41	S4	0.748850	0.522700	0.903970
S51	S5	0.762660	0.520360	0.654760
S61	S6	0.773850	0.522700	0.403970
S71	S7	0.242300	0.479640	0.845240
S81	S8	0.757700	0.520360	0.154760
O11	O1	0.206090	0.139580	0.075930
O21	O2	0.239420	0.446640	0.030520
O31	O3	0.770070	0.550340	0.220300
O41	O4	0.933490	0.139580	0.575930
O51	O5	0.050630	0.846860	0.914910
O61	O6	0.783400	0.843400	0.661430
O71	O7	0.046220	0.997840	0.124790
O81	O8	0.051880	0.827360	0.761740
O91	O9	0.774120	0.800040	0.498270
O101	O10	0.793910	0.860420	0.924070
O111	O11	0.948550	0.143100	0.326540
O121	O12	0.940000	0.156600	0.838570
O131	O13	0.194550	0.143100	0.826540
O141	O14	0.236670	0.192940	0.252270
O151	O15	0.949370	0.153140	0.085090
O161	O16	0.225880	0.199960	0.501730
O171	O17	0.235460	0.166520	0.986920
O181	O18	0.931060	0.166520	0.486920
O191	O19	0.790350	0.606900	0.877000
O201	O20	0.183450	0.393100	0.623000
O211	O21	0.068940	0.833480	0.513080
O221	O22	0.203770	0.153140	0.585090
O231	O23	0.051450	0.856900	0.673460
O241	O24	0.948120	0.172640	0.238260
O251	O25	0.805450	0.856900	0.173460
O261	O26	0.194820	0.395240	0.371960
O271	O27	0.229930	0.449660	0.779700
O281	O28	0.763330	0.807060	0.747730
O291	O29	0.780270	0.550340	0.720300
O301	O30	0.816550	0.606900	0.377000
O311	O31	0.956270	0.192940	0.752270
O321	O32	0.216600	0.156600	0.338570
O331	O33	0.219730	0.449660	0.279700
O341	O34	0.060000	0.843400	0.161430
O351	O35	0.974080	0.199960	0.001730
O361	O36	0.200420	0.395240	0.871960
O371	O37	0.224520	0.172640	0.738260
O381	O38	0.209650	0.393100	0.123000
O391	O39	0.775480	0.827360	0.261740
O401	O40	0.796230	0.846860	0.414910
O411	O41	0.207220	0.446640	0.530520
O421	O42	0.025920	0.800040	0.998270
O431	O43	0.760580	0.553360	0.969480
O441	O44	0.043730	0.807060	0.247730
O451	O45	0.799580	0.604760	0.128040
O461	O46	0.953780	0.002160	0.875210
O471	O47	0.805180	0.604760	0.628040
O481	O48	0.764540	0.833480	0.013080
O491	O49	0.951620	0.997840	0.624790
O501	O50	0.048380	0.002160	0.375210
O511	O51	0.066510	0.860420	0.424070
O521	O52	0.792780	0.553360	0.469480
