data_HISJIE_clean_PM
_symmetry_space_group_name_H-M	'P1'
_cell_length_a	14.374700
_cell_length_b	18.633000
_cell_length_c	23.957000
_cell_angle_alpha	90.000000
_cell_angle_beta	90.000000
_cell_angle_gamma	90.000000
_symmetry_Int_Tables_number 1

loop_
_symmetry_equiv_pos_as_xyz
'x,y,z'

loop_
_atom_site_label
_atom_site_type_symbol
_atom_site_fract_x
_atom_site_fract_y
_atom_site_fract_z
Co11	Co1	0.923170	0.200950	0.931640
Co21	Co2	0.684670	0.824640	0.928870
Co31	Co3	0.076830	0.700950	0.068360
Co41	Co4	0.619750	0.264130	0.499110
Co51	Co5	0.815330	0.324640	0.428870
Co61	Co6	0.184670	0.824640	0.571130
Co71	Co7	0.423170	0.200950	0.568360
Co81	Co8	0.800860	0.317640	0.093160
Co91	Co9	0.119750	0.264130	0.000890
Co101	Co10	0.576830	0.700950	0.431640
Co111	Co11	0.315330	0.324640	0.071130
Co121	Co12	0.380250	0.764130	0.500890
Co131	Co13	0.699140	0.817640	0.593160
Co141	Co14	0.556970	0.710780	0.093990
Co151	Co15	0.056970	0.710780	0.406010
Co161	Co16	0.880250	0.764130	0.999110
Co171	Co17	0.443030	0.210780	0.906010
Co181	Co18	0.943030	0.210780	0.593990
Co191	Co19	0.199140	0.817640	0.906840
Co201	Co20	0.300860	0.317640	0.406840
H11	H1	0.661100	0.398300	0.588500
H21	H2	0.863300	0.176200	0.286800
H31	H3	0.103800	0.031400	0.203800
H41	H4	0.688400	0.059200	0.166700
H51	H5	0.909400	0.318300	0.721300
H61	H6	0.480300	0.196700	0.799500
H71	H7	0.701600	0.306800	0.268700
H81	H8	0.369000	0.099000	0.124400
H91	H9	0.631000	0.599000	0.875600
H101	H10	0.338900	0.898300	0.411500
H111	H11	0.039700	0.220100	0.768800
H121	H12	0.086100	0.051200	0.311500
H131	H13	0.478700	0.216900	0.341700
H141	H14	0.752400	0.806600	0.320600
H151	H15	0.138500	0.893900	0.280000
H161	H16	0.378300	0.433400	0.875200
H171	H17	0.152900	0.490200	0.792500
H181	H18	0.949700	0.978400	0.334000
H191	H19	0.652300	0.477500	0.810900
H201	H20	0.259200	0.306400	0.847000
H211	H21	0.201600	0.306800	0.231300
H221	H22	0.646000	0.100900	0.323100
H231	H23	0.234600	0.833800	0.799200
H241	H24	0.489200	0.468700	0.481600
H251	H25	0.759200	0.306400	0.653000
H261	H26	0.539700	0.220100	0.731200
H271	H27	0.387500	0.919500	0.318300
H281	H28	0.869000	0.099000	0.375600
H291	H29	0.827600	0.899400	0.433200
H301	H30	0.172400	0.399400	0.566800
H311	H31	0.152300	0.477500	0.689100
H321	H32	0.347100	0.990200	0.292500
H331	H33	0.747600	0.306600	0.820600
H341	H34	0.969000	0.453900	0.467800
H351	H35	0.861500	0.393900	0.720000
H361	H36	0.450800	0.987600	0.312600
H371	H37	0.629100	0.601500	0.636700
H381	H38	0.245900	0.569700	0.473400
H391	H39	0.168100	0.712200	0.769300
H401	H40	0.121900	0.919300	0.131200
H411	H41	0.745900	0.569700	0.026600
H421	H42	0.883300	0.621300	0.657300
H431	H43	0.090700	0.125400	0.087000
H441	H44	0.831900	0.212200	0.230700
H451	H45	0.378100	0.419300	0.631200
H461	H46	0.252400	0.806600	0.179400
H471	H47	0.798400	0.806800	0.768700
H481	H48	0.550300	0.478400	0.834000
H491	H49	0.247600	0.306600	0.679400
H501	H50	0.293500	0.531100	0.681600
H511	H51	0.121700	0.933400	0.375200
H521	H52	0.019700	0.696700	0.299500
H531	H53	0.409400	0.318300	0.778700
H541	H54	0.361500	0.393900	0.780000
H551	H55	0.621700	0.933400	0.124800
H561	H56	0.049200	0.487600	0.812600
H571	H57	0.847700	0.977500	0.310900
H581	H58	0.519700	0.696700	0.200500
H591	H59	0.363300	0.176200	0.213200
H601	H60	0.136700	0.676200	0.713200
H611	H61	0.090600	0.818300	0.278700
H621	H62	0.050300	0.478400	0.666000
H631	H63	0.590700	0.125400	0.413000
H641	H64	0.116700	0.121300	0.342700
H651	H65	0.613500	0.410900	0.843400
H661	H66	0.240800	0.806400	0.347000
H671	H67	0.021300	0.716900	0.841700
H681	H68	0.590600	0.818300	0.221300
H691	H69	0.219200	0.559200	0.018500
H701	H70	0.370900	0.101500	0.363300
H711	H71	0.058500	0.127900	0.435200
H721	H72	0.989200	0.468700	0.018400
H731	H73	0.505100	0.724200	0.824200
H741	H74	0.280800	0.059200	0.518500
H751	H75	0.558500	0.127900	0.064800
H761	H76	0.206500	0.031100	0.181600
H771	H77	0.121700	0.636000	0.770000
H781	H78	0.460300	0.720100	0.268800
H791	H79	0.621900	0.919300	0.368800
H801	H80	0.298400	0.806800	0.731300
H811	H81	0.780800	0.059200	0.981500
H821	H82	0.265400	0.333800	0.299200
H831	H83	0.131000	0.599000	0.624400
H841	H84	0.449700	0.978400	0.166000
H851	H85	0.706500	0.031100	0.318400
H861	H86	0.909300	0.625400	0.913000
H871	H87	0.347700	0.977500	0.189100
H881	H88	0.383300	0.621300	0.842700
H891	H89	0.586100	0.051200	0.188500
H901	H90	0.854000	0.600900	0.823100
H911	H91	0.603800	0.031400	0.296200
H921	H92	0.010800	0.968700	0.981600
H931	H93	0.413900	0.551200	0.811500
H941	H94	0.847100	0.990200	0.207500
H951	H95	0.549200	0.487600	0.687400
H961	H96	0.960300	0.720100	0.231200
H971	H97	0.161100	0.398300	0.911500
H981	H98	0.621700	0.636000	0.730000
H991	H99	0.811600	0.559200	0.666700
H1001	H100	0.409300	0.625400	0.587000
H1011	H101	0.719200	0.559200	0.481500
H1021	H102	0.950800	0.987600	0.187400
H1031	H103	0.396200	0.531400	0.703800
H1041	H104	0.494900	0.224200	0.175800
H1051	H105	0.896200	0.531400	0.796200
H1061	H106	0.652900	0.490200	0.707500
H1071	H107	0.980300	0.196700	0.700500
H1081	H108	0.327600	0.899400	0.066800
H1091	H109	0.469000	0.453900	0.032200
H1101	H110	0.878300	0.136000	0.230000
H1111	H111	0.129100	0.601500	0.863300
H1121	H112	0.531000	0.953900	0.967800
H1131	H113	0.188400	0.059200	0.333300
H1141	H114	0.612500	0.419500	0.681700
H1151	H115	0.146000	0.100900	0.176900
H1161	H116	0.765400	0.333800	0.200800
H1171	H117	0.354000	0.600900	0.676900
H1181	H118	0.311600	0.559200	0.833300
H1191	H119	0.510800	0.968700	0.518400
H1201	H120	0.521300	0.716900	0.658300
H1211	H121	0.978700	0.216900	0.158300
H1221	H122	0.112500	0.419500	0.818300
H1231	H123	0.740800	0.806400	0.153000
H1241	H124	0.638500	0.893900	0.220000
H1251	H125	0.793500	0.531100	0.818400
H1261	H126	0.878300	0.433400	0.624800
H1271	H127	0.005100	0.724200	0.675800
H1281	H128	0.878100	0.419300	0.868800
H1291	H129	0.617700	0.856600	0.277300
H1301	H130	0.331900	0.212200	0.269300
H1311	H131	0.113500	0.410900	0.656600
H1321	H132	0.636700	0.676200	0.786800
H1331	H133	0.672400	0.399400	0.933200
H1341	H134	0.117700	0.856600	0.222700
H1351	H135	0.754100	0.069700	0.526600
H1361	H136	0.886500	0.910900	0.343400
H1371	H137	0.382300	0.356600	0.722700
H1381	H138	0.254100	0.069700	0.973400
H1391	H139	0.031000	0.953900	0.532200
H1401	H140	0.668100	0.712200	0.730700
H1411	H141	0.994900	0.224200	0.324200
H1421	H142	0.378300	0.136000	0.270000
H1431	H143	0.616700	0.121300	0.157300
H1441	H144	0.870900	0.101500	0.136700
H1451	H145	0.838900	0.898300	0.088500
H1461	H146	0.913900	0.551200	0.688500
H1471	H147	0.386500	0.910900	0.156600
H1481	H148	0.734600	0.833800	0.700800
H1491	H149	0.882300	0.356600	0.777300
H1501	H150	0.441500	0.627900	0.935200
H1511	H151	0.887500	0.919500	0.181700
H1521	H152	0.941500	0.627900	0.564800
C11	C1	0.377900	0.182100	0.252000
C21	C2	0.139800	0.283200	0.130310
C31	C3	0.986500	0.610160	0.012740
C41	C4	0.326600	0.093080	0.443170
C51	C5	0.460700	0.547500	0.991770
C61	C6	0.664900	0.447200	0.580840
C71	C7	0.228100	0.295400	0.814010
C81	C8	0.013500	0.110160	0.987260
C91	C9	0.425400	0.431100	0.954650
C101	C10	0.584200	0.076800	0.420930
C111	C11	0.153800	0.568200	0.597100
C121	C12	0.403500	0.743900	0.267330
C131	C13	0.364200	0.761600	0.216130
C141	C14	0.564300	0.931300	0.445510
C151	C15	0.778700	0.050800	0.493880
C161	C16	0.111200	0.471000	0.819970
C171	C17	0.643000	0.262400	0.683450
C181	C18	0.611200	0.471000	0.680030
C191	C19	0.972000	0.216400	0.242220
C201	C20	0.602100	0.953600	0.394430
C211	C21	0.479800	0.734600	0.789390
C221	C22	0.144900	0.049400	0.175430
C231	C23	0.606600	0.268500	0.213790
C241	C24	0.046000	0.974600	0.498060
C251	C25	0.164900	0.447200	0.919160
C261	C26	0.673400	0.593080	0.556830
C271	C27	0.694400	0.469970	0.527540
C281	C28	0.178300	0.672400	0.955900
C291	C29	0.842000	0.788800	0.662100
C301	C30	0.047000	0.853200	0.043100
C311	C31	0.877900	0.182100	0.248000
C321	C32	0.077100	0.852000	0.461480
C331	C33	0.084200	0.076800	0.079070
C341	C34	0.228000	0.417200	0.013500
C351	C35	0.711700	0.477100	0.987370
C361	C36	0.902700	0.765700	0.814090
C371	C37	0.788300	0.977100	0.487370
C381	C38	0.912600	0.742200	0.336560
C391	C39	0.323600	0.948800	0.062290
C401	C40	0.699000	0.543420	0.516280
C411	C41	0.106600	0.268500	0.286210
C421	C42	0.899300	0.462300	0.595770
C431	C43	0.963400	0.482820	0.984520
C441	C44	0.415800	0.576800	0.579070
C451	C45	0.954000	0.474600	0.501940
C461	C46	0.036600	0.982820	0.015480
C471	C47	0.074600	0.931100	0.454650
C481	C48	0.193500	0.596400	0.549510
C491	C49	0.653800	0.568200	0.902900
C501	C50	0.597300	0.265700	0.314090
C511	C51	0.806500	0.096400	0.450490
C521	C52	0.112700	0.462300	0.659080
C531	C53	0.135800	0.261600	0.716130
C541	C54	0.730600	0.812900	0.237500
C551	C55	0.354600	0.068400	0.390590
C561	C56	0.510400	0.230600	0.309540
C571	C57	0.301000	0.043420	0.483720
C581	C58	0.096500	0.243900	0.767330
C591	C59	0.064300	0.931300	0.054490
C601	C60	0.728100	0.295400	0.685990
C611	C61	0.639800	0.283200	0.369690
C621	C62	0.635600	0.848700	0.239170
C631	C63	0.743600	0.430000	0.034340
C641	C64	0.860200	0.783200	0.869690
C651	C65	0.272000	0.917200	0.513500
C661	C66	0.587400	0.242200	0.836560
C671	C67	0.854600	0.068400	0.109410
C681	C68	0.387300	0.962300	0.159080
C691	C69	0.221300	0.550800	0.506120
C701	C70	0.278400	0.795400	0.213900
C711	C71	0.063900	0.078600	0.440020
C721	C72	0.486500	0.610160	0.487260
C731	C73	0.846200	0.068200	0.402900
C741	C74	0.520200	0.234600	0.210610
C751	C75	0.904200	0.536500	0.603440
C761	C76	0.693500	0.596400	0.950490
C771	C77	0.143000	0.262400	0.816550
C781	C78	0.857000	0.762400	0.183450
C791	C79	0.595800	0.036500	0.103440
C801	C80	0.435700	0.431300	0.554490
C811	C81	0.452100	0.555070	0.527600
C821	C82	0.644900	0.049400	0.324570
C831	C83	0.230600	0.812900	0.262500
C841	C84	0.144200	0.283900	0.233810
C851	C85	0.772000	0.917200	0.986500
C861	C86	0.087400	0.242200	0.663440
C871	C87	0.436100	0.578600	0.940020
C881	C88	0.622100	0.682100	0.748000
C891	C89	0.989600	0.730600	0.809540
C901	C90	0.358500	0.995900	0.378250
C911	C91	0.788300	0.175400	0.456570
C921	C92	0.855100	0.549400	0.824570
C931	C93	0.173400	0.593080	0.943170
C941	C94	0.936100	0.578600	0.559980
C951	C95	0.835100	0.947200	0.080840
C961	C96	0.600700	0.962300	0.095770
C971	C97	0.574600	0.931100	0.045350
C981	C98	0.953000	0.353200	0.956900
C991	C99	0.269400	0.312900	0.762500
C1001	C100	0.821700	0.172400	0.044100
C1011	C101	0.678300	0.672400	0.544100
C1021	C102	0.536600	0.982820	0.484520
C1031	C103	0.122100	0.682100	0.752000
C1041	C104	0.364400	0.348700	0.760830
C1051	C105	0.355800	0.783900	0.733810
C1061	C106	0.721300	0.550800	0.993880
C1071	C107	0.221600	0.295400	0.713900
C1081	C108	0.771900	0.795400	0.185990
C1091	C109	0.915800	0.576800	0.920930
C1101	C110	0.489600	0.730600	0.690460
C1111	C111	0.243600	0.430000	0.465660
C1121	C112	0.176400	0.448800	0.562290
C1131	C113	0.612700	0.462300	0.840920
C1141	C114	0.400700	0.742680	0.371660
C1151	C115	0.124400	0.070200	0.340820
C1161	C116	0.721600	0.295400	0.786100
C1171	C117	0.645400	0.568400	0.609410
C1181	C118	0.513500	0.110160	0.512740
C1191	C119	0.288300	0.175400	0.043430
C1201	C120	0.352700	0.994000	0.104910
C1211	C121	0.635800	0.261600	0.783870
C1221	C122	0.922900	0.352000	0.538520
C1231	C123	0.805600	0.969970	0.027540
C1241	C124	0.887300	0.962300	0.340920
C1251	C125	0.100700	0.962300	0.404230
C1261	C126	0.010400	0.230600	0.190460
C1271	C127	0.852700	0.994000	0.395090
C1281	C128	0.271900	0.795400	0.314010
C1291	C129	0.897900	0.453600	0.894430
C1301	C130	0.095800	0.036500	0.396560
C1311	C131	0.952100	0.555070	0.972400
C1321	C132	0.422900	0.352000	0.961480
C1331	C133	0.504100	0.094300	0.962140
C1341	C134	0.728000	0.417200	0.486500
C1351	C135	0.624400	0.070200	0.159180
C1361	C136	0.769400	0.312900	0.737500
C1371	C137	0.158000	0.288800	0.337900
C1381	C138	0.388800	0.971000	0.319970
C1391	C139	0.756400	0.930000	0.534340
C1401	C140	0.599300	0.242680	0.628340
C1411	C141	0.979800	0.734600	0.710610
C1421	C142	0.211700	0.477100	0.512630
C1431	C143	0.935700	0.431300	0.945510
C1441	C144	0.028000	0.716400	0.757780
C1451	C145	0.399300	0.462300	0.904230
C1461	C146	0.858500	0.995900	0.121750
C1471	C147	0.047900	0.055070	0.027600
C1481	C148	0.346200	0.068200	0.097100
C1491	C149	0.528000	0.716400	0.742220
C1501	C150	0.778400	0.795400	0.286100
C1511	C151	0.960700	0.547500	0.508230
C1521	C152	0.563900	0.078600	0.059980
C1531	C153	0.900700	0.742680	0.128340
C1541	C154	0.412600	0.742200	0.163440
C1551	C155	0.389200	0.525600	0.618720
C1561	C156	0.375600	0.570200	0.840820
C1571	C157	0.547000	0.853200	0.456900
C1581	C158	0.305600	0.969970	0.472460
C1591	C159	0.393400	0.768500	0.786210
C1601	C160	0.453000	0.353200	0.543100
C1611	C161	0.893400	0.768500	0.713790
C1621	C162	0.823600	0.948800	0.437710
C1631	C163	0.321700	0.172400	0.455900
C1641	C164	0.342000	0.788800	0.837900
C1651	C165	0.711700	0.675400	0.956570
C1661	C166	0.199000	0.543420	0.983720
C1671	C167	0.826600	0.093080	0.056830
C1681	C168	0.647300	0.494000	0.895090
C1691	C169	0.335100	0.947200	0.419160
C1701	C170	0.676400	0.448800	0.937710
C1711	C171	0.644200	0.283900	0.266190
C1721	C172	0.256400	0.930000	0.965660
C1731	C173	0.141500	0.495900	0.878250
C1741	C174	0.097300	0.265700	0.185910
C1751	C175	0.402700	0.765700	0.685910
C1761	C176	0.539300	0.047500	0.008230
C1771	C177	0.658000	0.288800	0.162100
C1781	C178	0.355100	0.549400	0.675430
C1791	C179	0.039300	0.047500	0.491770
C1801	C180	0.801000	0.043420	0.016280
C1811	C181	0.454000	0.474600	0.998060
C1821	C182	0.925400	0.431100	0.545350
C1831	C183	0.135600	0.848700	0.260830
C1841	C184	0.004100	0.094300	0.537860
C1851	C185	0.145400	0.568400	0.890590
C1861	C186	0.102100	0.953600	0.105570
C1871	C187	0.577100	0.852000	0.038520
C1881	C188	0.404200	0.536500	0.896560
C1891	C189	0.472000	0.216400	0.257780
C1901	C190	0.855800	0.783900	0.766190
C1911	C191	0.020200	0.234600	0.289390
C1921	C192	0.864400	0.348700	0.739170
C1931	C193	0.547900	0.055070	0.472400
C1941	C194	0.864200	0.761600	0.283870
C1951	C195	0.596500	0.243900	0.732670
C1961	C196	0.194400	0.469970	0.972460
C1971	C197	0.888800	0.971000	0.180030
C1981	C198	0.288300	0.977100	0.012630
C1991	C199	0.306500	0.096400	0.049510
C2001	C200	0.360200	0.783200	0.630310
C2011	C201	0.995900	0.594300	0.462140
C2021	C202	0.211700	0.675400	0.543430
C2031	C203	0.610800	0.025600	0.381280
C2041	C204	0.546000	0.974600	0.001940
C2051	C205	0.889200	0.525600	0.881280
C2061	C206	0.147300	0.494000	0.604910
C2071	C207	0.397900	0.453600	0.605570
C2081	C208	0.099300	0.242680	0.871660
C2091	C209	0.875600	0.570200	0.659180
C2101	C210	0.278700	0.050800	0.006120
C2111	C211	0.463400	0.482820	0.515480
C2121	C212	0.357000	0.762400	0.316550
C2131	C213	0.495900	0.594300	0.037860
C2141	C214	0.110800	0.025600	0.118720
C2151	C215	0.903500	0.743900	0.232670
C2161	C216	0.641500	0.495900	0.621750
O11	O1	0.074900	0.814950	0.417430
O21	O2	0.231200	0.937190	0.556890
O31	O3	0.400490	0.761700	0.587300
O41	O4	0.075230	0.824560	0.509610
O51	O5	0.314530	0.192630	0.505120
O61	O6	0.731200	0.937190	0.943110
O71	O7	0.493900	0.713670	0.167440
O81	O8	0.720610	0.349930	0.496020
O91	O9	0.008300	0.660650	0.472580
O101	O10	0.252200	0.362850	0.475790
O111	O11	0.860900	0.764850	0.084890
O121	O12	0.747800	0.862850	0.524210
O131	O13	0.712700	0.321330	0.368440
O141	O14	0.524180	0.207420	0.630550
O151	O15	0.374200	0.776300	0.884180
O161	O16	0.021560	0.176620	0.998420
O171	O17	0.761500	0.455550	0.081160
O181	O18	0.247800	0.862850	0.975790
O191	O19	0.220610	0.349930	0.003980
O201	O20	0.261500	0.455550	0.418840
O211	O21	0.268800	0.437190	0.056890
O221	O22	0.088500	0.808730	0.073760
O231	O23	0.509740	0.337430	0.505310
O241	O24	0.238500	0.955550	0.918840
O251	O25	0.530380	0.590850	0.444390
O261	O26	0.575230	0.824560	0.990390
O271	O27	0.411500	0.308730	0.573760
O281	O28	0.991700	0.160650	0.527420
O291	O29	0.874200	0.776300	0.615820
O301	O30	0.173600	0.716860	0.577010
O311	O31	0.267300	0.694670	0.505610
O321	O32	0.599510	0.261700	0.412700
O331	O33	0.374700	0.753100	0.117480
O341	O34	0.760400	0.816910	0.667720
O351	O35	0.360900	0.764850	0.415110
O361	O36	0.125300	0.253100	0.617480
O371	O37	0.185470	0.692630	0.005120
O381	O38	0.925100	0.314950	0.582570
O391	O39	0.232700	0.194670	0.005610
O401	O40	0.924770	0.324560	0.490390
O411	O41	0.511200	0.568500	0.084620
O421	O42	0.975820	0.707420	0.130550
O431	O43	0.279390	0.849930	0.503980
O441	O44	0.488800	0.068500	0.915380
O451	O45	0.491700	0.160650	0.972580
O461	O46	0.874700	0.753100	0.382520
O471	O47	0.475820	0.707420	0.369450
O481	O48	0.006100	0.213670	0.667440
O491	O49	0.739600	0.316910	0.167720
O501	O50	0.625300	0.253100	0.882520
O511	O51	0.988800	0.068500	0.584620
O521	O52	0.490260	0.837430	0.494690
O531	O53	0.732700	0.194670	0.494390
O541	O54	0.685470	0.692630	0.494880
O551	O55	0.993900	0.713670	0.332560
O561	O56	0.625800	0.276300	0.115820
O571	O57	0.139100	0.264850	0.915110
O581	O58	0.588500	0.808730	0.426240
O591	O59	0.911500	0.308730	0.926240
O601	O60	0.969620	0.090850	0.944390
O611	O61	0.768800	0.437190	0.443110
O621	O62	0.673600	0.716860	0.922990
O631	O63	0.024180	0.207420	0.869450
O641	O64	0.323700	0.213160	0.414080
O651	O65	0.990260	0.837430	0.005310
O661	O66	0.009740	0.337430	0.994690
O671	O67	0.508300	0.660650	0.027420
O681	O68	0.900490	0.761700	0.912700
O691	O69	0.826400	0.216860	0.422990
O701	O70	0.978440	0.676620	0.001580
O711	O71	0.574900	0.814950	0.082570
O721	O72	0.639100	0.264850	0.584890
O731	O73	0.176300	0.713160	0.914080
O741	O74	0.424770	0.324560	0.009610
O751	O75	0.521560	0.176620	0.501580
O761	O76	0.011200	0.568500	0.415380
O771	O77	0.212700	0.321330	0.131560
O781	O78	0.779390	0.849930	0.996020
O791	O79	0.823700	0.213160	0.085920
O801	O80	0.287300	0.821330	0.631560
O811	O81	0.787300	0.821330	0.868440
O821	O82	0.326400	0.216860	0.077010
O831	O83	0.506100	0.213670	0.832560
O841	O84	0.478440	0.676620	0.498420
O851	O85	0.260400	0.816910	0.832280
O861	O86	0.814530	0.192630	0.994880
O871	O87	0.752200	0.362850	0.024210
O881	O88	0.738500	0.955550	0.581160
O891	O89	0.767300	0.694670	0.994390
O901	O90	0.469620	0.090850	0.555610
O911	O91	0.030380	0.590850	0.055610
O921	O92	0.125800	0.276300	0.384180
O931	O93	0.239600	0.316910	0.332280
O941	O94	0.099510	0.261700	0.087300
O951	O95	0.676300	0.713160	0.585920
O961	O96	0.425100	0.314950	0.917430
