data_HISJAW_clean_PM
_symmetry_space_group_name_H-M	'P1'
_cell_length_a	17.245400
_cell_length_b	17.245400
_cell_length_c	29.809900
_cell_angle_alpha	73.186600
_cell_angle_beta	73.186600
_cell_angle_gamma	60.000000
_symmetry_Int_Tables_number 1

loop_
_symmetry_equiv_pos_as_xyz
'x,y,z'

loop_
_atom_site_label
_atom_site_type_symbol
_atom_site_fract_x
_atom_site_fract_y
_atom_site_fract_z
Co11	Co1	0.758910	0.441050	0.062370
Co21	Co2	0.941050	0.258910	0.562370
Co31	Co3	0.857990	0.040620	0.323210
Co41	Co4	0.858920	0.858920	0.423240
Co51	Co5	0.641080	0.641080	0.076760
Co61	Co6	0.737670	0.758910	0.062370
Co71	Co7	0.142010	0.959380	0.676790
Co81	Co8	0.762330	0.058950	0.437630
Co91	Co9	0.959380	0.221820	0.676790
Co101	Co10	0.221820	0.142010	0.676790
Co111	Co11	0.278180	0.540620	0.823210
Co121	Co12	0.441050	0.737670	0.062370
Co131	Co13	0.558950	0.262330	0.937630
Co141	Co14	0.141080	0.141080	0.576760
Co151	Co15	0.357990	0.278180	0.823210
Co161	Co16	0.241090	0.558950	0.937630
Co171	Co17	0.258910	0.237670	0.562370
Co181	Co18	0.040620	0.778180	0.323210
Co191	Co19	0.358920	0.358920	0.923240
Co201	Co20	0.540620	0.357990	0.823210
Co211	Co21	0.778180	0.857990	0.323210
Co221	Co22	0.459380	0.642010	0.176790
Co231	Co23	0.642010	0.721820	0.176790
Co241	Co24	0.721820	0.459380	0.176790
Co251	Co25	0.237670	0.941050	0.562370
Co261	Co26	0.058950	0.741090	0.437630
Co271	Co27	0.262330	0.241090	0.937630
Co281	Co28	0.741090	0.762330	0.437630
H11	H1	0.152700	0.203000	0.101400
H21	H2	0.703000	0.652700	0.601400
H31	H3	0.440500	0.182500	0.125400
H41	H4	0.377800	0.488800	0.880600
H51	H5	0.877800	0.752800	0.380600
H61	H6	0.952500	0.061100	0.170900
H71	H7	0.666400	0.253400	0.728800
H81	H8	0.940500	0.751600	0.625400
H91	H9	0.561100	0.452500	0.670900
H101	H10	0.989500	0.161800	0.970700
H111	H11	0.833600	0.148600	0.771200
H121	H12	0.011200	0.122200	0.619400
H131	H13	0.652700	0.042900	0.601400
H141	H14	0.561400	0.526200	0.514000
H151	H15	0.973800	0.938600	0.986000
H161	H16	0.045600	0.903200	0.530900
H171	H17	0.438600	0.473800	0.486000
H181	H18	0.511200	0.747200	0.119400
H191	H19	0.751600	0.682500	0.625400
H201	H20	0.547500	0.684500	0.329100
H211	H21	0.061100	0.815500	0.170900
H221	H22	0.974700	0.483900	0.153900
H231	H23	0.317500	0.059500	0.374600
H241	H24	0.042900	0.703000	0.601400
H251	H25	0.457100	0.847300	0.898600
H261	H26	0.351400	0.666400	0.728800
H271	H27	0.025300	0.516100	0.846100
H281	H28	0.797000	0.457100	0.898600
H291	H29	0.847300	0.797000	0.898600
H301	H30	0.038000	0.065100	0.956900
H311	H31	0.817500	0.748400	0.874600
H321	H32	0.983900	0.474700	0.653900
H331	H33	0.661800	0.489500	0.470700
H341	H34	0.184500	0.047500	0.829100
H351	H35	0.538000	0.440000	0.456900
H361	H36	0.622000	0.338200	0.529300
H371	H37	0.060000	0.962000	0.043100
H381	H38	0.452500	0.315500	0.670900
H391	H39	0.427100	0.682400	0.584500
H401	H40	0.398400	0.561400	0.514000
H411	H41	0.096800	0.479700	0.469100
H421	H42	0.182500	0.251600	0.125400
H431	H43	0.253400	0.351400	0.728800
H441	H44	0.940000	0.038000	0.956900
H451	H45	0.306000	0.427100	0.584500
H461	H46	0.559500	0.817500	0.874600
H471	H47	0.315500	0.561100	0.670900
H481	H48	0.166400	0.851400	0.228800
H491	H49	0.545100	0.717600	0.941500
H501	H50	0.815500	0.952500	0.170900
H511	H51	0.684500	0.438900	0.329100
H521	H52	0.954400	0.096800	0.469100
H531	H53	0.072900	0.194000	0.915500
H541	H54	0.525300	0.112500	0.346100
H551	H55	0.434900	0.462000	0.543100
H561	H56	0.516100	0.612500	0.846100
H571	H57	0.704200	0.782400	0.558500
H581	H58	0.479700	0.954400	0.469100
H591	H59	0.047500	0.938900	0.829100
H601	H60	0.545600	0.020300	0.030900
H611	H61	0.403200	0.545600	0.030900
H621	H62	0.753400	0.166400	0.228800
H631	H63	0.887500	0.983900	0.653900
H641	H64	0.565100	0.538000	0.456900
H651	H65	0.338200	0.510500	0.529300
H661	H66	0.454900	0.282400	0.058500
H671	H67	0.297000	0.347300	0.398600
H681	H68	0.112500	0.016100	0.346100
H691	H69	0.473800	0.601600	0.486000
H701	H70	0.251600	0.440500	0.125400
H711	H71	0.347300	0.957100	0.398600
H721	H72	0.746600	0.648600	0.271200
H731	H73	0.615300	0.017600	0.655400
H741	H74	0.601600	0.438600	0.486000
H751	H75	0.194000	0.817600	0.915500
H761	H76	0.378000	0.661800	0.470700
H771	H77	0.682500	0.940500	0.625400
H781	H78	0.295800	0.217600	0.441500
H791	H79	0.161800	0.878000	0.970700
H801	H80	0.878000	0.989500	0.970700
H811	H81	0.387500	0.974700	0.153900
H821	H82	0.747200	0.622200	0.119400
H831	H83	0.938600	0.101600	0.986000
H841	H84	0.026200	0.061400	0.014000
H851	H85	0.065100	0.940000	0.956900
H861	H86	0.474700	0.887500	0.653900
H871	H87	0.384700	0.982400	0.344600
H881	H88	0.288300	0.384700	0.344600
H891	H89	0.122200	0.247200	0.619400
H901	H90	0.898400	0.026200	0.014000
H911	H91	0.752800	0.988800	0.380600
H921	H92	0.572900	0.317600	0.415500
H931	H93	0.817600	0.072900	0.915500
H941	H94	0.017600	0.711700	0.655400
H951	H95	0.016100	0.525300	0.346100
H961	H96	0.059500	0.248400	0.374600
H971	H97	0.542900	0.152700	0.101400
H981	H98	0.203000	0.542900	0.101400
H991	H99	0.938900	0.184500	0.829100
H1001	H100	0.488800	0.252800	0.880600
H1011	H101	0.204200	0.454900	0.058500
H1021	H102	0.252800	0.377800	0.880600
H1031	H103	0.045100	0.295800	0.441500
H1041	H104	0.462000	0.560000	0.543100
H1051	H105	0.115300	0.211700	0.155400
H1061	H106	0.211700	0.517600	0.155400
H1071	H107	0.517600	0.115300	0.155400
H1081	H108	0.560000	0.434900	0.543100
H1091	H109	0.622200	0.511200	0.119400
H1101	H110	0.795800	0.545100	0.941500
H1111	H111	0.788300	0.482400	0.844600
H1121	H112	0.182400	0.927100	0.084500
H1131	H113	0.148600	0.246600	0.771200
H1141	H114	0.838200	0.122000	0.029300
H1151	H115	0.101600	0.973800	0.986000
H1161	H116	0.217600	0.045100	0.441500
H1171	H117	0.454400	0.979700	0.969100
H1181	H118	0.122000	0.010500	0.029300
H1191	H119	0.851400	0.753400	0.228800
H1201	H120	0.282400	0.204200	0.058500
H1211	H121	0.884700	0.788300	0.844600
H1221	H122	0.903200	0.520300	0.530900
H1231	H123	0.061400	0.898400	0.014000
H1241	H124	0.247200	0.011200	0.619400
H1251	H125	0.979700	0.596800	0.969100
H1261	H126	0.248400	0.317500	0.374600
H1271	H127	0.717600	0.795800	0.941500
H1281	H128	0.510500	0.622000	0.529300
H1291	H129	0.020300	0.403200	0.030900
H1301	H130	0.317600	0.694000	0.415500
H1311	H131	0.694000	0.572900	0.415500
H1321	H132	0.612500	0.025300	0.846100
H1331	H133	0.482400	0.884700	0.844600
H1341	H134	0.438900	0.547500	0.329100
H1351	H135	0.982400	0.288300	0.344600
H1361	H136	0.954900	0.704200	0.558500
H1371	H137	0.520300	0.045600	0.530900
H1381	H138	0.596800	0.454400	0.969100
H1391	H139	0.806000	0.182400	0.084500
H1401	H140	0.748400	0.559500	0.874600
H1411	H141	0.483900	0.387500	0.153900
H1421	H142	0.246600	0.833600	0.771200
H1431	H143	0.526200	0.398400	0.514000
H1441	H144	0.927100	0.806000	0.084500
H1451	H145	0.489500	0.378000	0.470700
H1461	H146	0.648600	0.333600	0.271200
H1471	H147	0.934900	0.060000	0.043100
H1481	H148	0.988800	0.877800	0.380600
H1491	H149	0.333600	0.746600	0.271200
H1501	H150	0.782400	0.954900	0.558500
H1511	H151	0.957100	0.297000	0.398600
H1521	H152	0.010500	0.838200	0.029300
H1531	H153	0.711700	0.615300	0.655400
H1541	H154	0.682400	0.306000	0.584500
H1551	H155	0.962000	0.934900	0.043100
H1561	H156	0.440000	0.565100	0.456900
C11	C1	0.437950	0.684750	0.378750
C21	C2	0.894990	0.968890	0.624830
C31	C3	0.500420	0.832920	0.869740
C41	C4	0.900410	0.678210	0.490070
C51	C5	0.699330	0.565230	0.384810
C61	C6	0.197730	0.986730	0.833210
C71	C7	0.931310	0.900410	0.490070
C81	C8	0.531110	0.605010	0.875170
C91	C9	0.443080	0.731280	0.292860
C101	C10	0.668710	0.850710	0.932470
C111	C11	0.684750	0.498550	0.378750
C121	C12	0.268710	0.481210	0.754570
C131	C13	0.989230	0.921330	0.550910
C141	C14	0.988710	0.531110	0.875170
C151	C15	0.495510	0.268710	0.754570
C161	C16	0.178210	0.400410	0.990070
C171	C17	0.511290	0.894990	0.624830
C181	C18	0.068690	0.099590	0.509930
C191	C19	0.978390	0.943090	0.594830
C201	C20	0.703080	0.667080	0.630260
C211	C21	0.440890	0.104790	0.891730
C221	C22	0.815250	0.062050	0.121250
C231	C23	0.501450	0.562050	0.621250
C241	C24	0.184750	0.937950	0.878750
C251	C25	0.578670	0.510770	0.949090
C261	C26	0.321790	0.068690	0.509930
C271	C27	0.649290	0.831290	0.567530
C281	C28	0.519130	0.560530	0.538510
C291	C29	0.768710	0.995510	0.254570
C301	C30	0.832920	0.796920	0.869740
C311	C31	0.622270	0.310070	0.345390
C321	C32	0.013270	0.017670	0.166790
C331	C33	0.559110	0.895210	0.108270
C341	C34	0.434770	0.649370	0.615190
C351	C35	0.060530	0.019130	0.038510
C361	C36	0.149290	0.451890	0.067530
C371	C37	0.760960	0.143760	0.201620
C381	C38	0.239040	0.856240	0.798380
C391	C39	0.939470	0.980870	0.961490
C401	C40	0.106340	0.239040	0.798380
C411	C41	0.722270	0.622270	0.345390
C421	C42	0.518790	0.504490	0.245430
C431	C43	0.618170	0.480870	0.461490
C441	C44	0.850630	0.065230	0.884810
C451	C45	0.556920	0.268720	0.707140
C461	C46	0.688210	0.208610	0.354270
C471	C47	0.480870	0.439470	0.461490
C481	C48	0.056920	0.967220	0.207140
C491	C49	0.850710	0.548110	0.932470
C501	C50	0.073350	0.379650	0.462950
C511	C51	0.751090	0.291390	0.145730
C521	C52	0.499580	0.167080	0.130260
C531	C53	0.099590	0.321790	0.509930
C541	C54	0.331290	0.149290	0.067530
C551	C55	0.231280	0.943080	0.792860
C561	C56	0.019130	0.881830	0.038510
C571	C57	0.251090	0.311790	0.645730
C581	C58	0.905200	0.527600	0.888700
C591	C59	0.556910	0.521610	0.905170
C601	C60	0.584050	0.879650	0.962950
C611	C61	0.302270	0.517670	0.666790
C621	C62	0.811790	0.751090	0.145730
C631	C63	0.881830	0.060530	0.038510
C641	C64	0.248910	0.708610	0.854270
C651	C65	0.967220	0.768720	0.207140
C661	C66	0.937950	0.998550	0.878750
C671	C67	0.167080	0.203080	0.130260
C681	C68	0.486730	0.697730	0.333210
C691	C69	0.118170	0.939470	0.961490
C701	C70	0.443090	0.478390	0.094830
C711	C71	0.877730	0.777730	0.154610
C721	C72	0.800670	0.149370	0.115190
C731	C73	0.643760	0.260960	0.701620
C741	C74	0.065230	0.199330	0.884810
C751	C75	0.981210	0.768710	0.254570
C761	C76	0.018790	0.231290	0.745430
C771	C77	0.105010	0.031110	0.375170
C781	C78	0.604790	0.940890	0.391730
C791	C79	0.084050	0.073350	0.462950
C801	C80	0.149370	0.934770	0.115190
C811	C81	0.940890	0.062590	0.391730
C821	C82	0.189930	0.877730	0.154610
C831	C83	0.504490	0.731290	0.245430
C841	C84	0.731290	0.518790	0.245430
C851	C85	0.332920	0.000420	0.369740
C861	C86	0.461470	0.010770	0.449090
C871	C87	0.277730	0.377730	0.654610
C881	C88	0.482330	0.486730	0.333210
C891	C89	0.943090	0.483690	0.594830
C901	C90	0.731280	0.532780	0.292860
C911	C91	0.122270	0.222270	0.845390
C921	C92	0.968890	0.511290	0.624830
C931	C93	0.810070	0.122270	0.845390
C941	C94	0.568690	0.821790	0.009930
C951	C95	0.689930	0.277730	0.654610
C961	C96	0.594800	0.821500	0.611300
C971	C97	0.573350	0.584050	0.962950
C981	C98	0.483690	0.978390	0.594830
C991	C99	0.143760	0.893660	0.201620
C1001	C100	0.426650	0.415950	0.037050
C1011	C101	0.562050	0.315250	0.621250
C1021	C102	0.001450	0.815250	0.121250
C1031	C103	0.377730	0.689930	0.654610
C1041	C104	0.467220	0.556920	0.707140
C1051	C105	0.379650	0.084050	0.462950
C1061	C106	0.199330	0.850630	0.884810
C1071	C107	0.405200	0.178500	0.388700
C1081	C108	0.321500	0.094800	0.111300
C1091	C109	0.017670	0.802270	0.166790
C1101	C110	0.879650	0.573350	0.962950
C1111	C111	0.821500	0.972400	0.611300
C1121	C112	0.104790	0.562590	0.891730
C1131	C113	0.972400	0.594800	0.611300
C1141	C114	0.016310	0.556910	0.905170
C1151	C115	0.516310	0.021610	0.405170
C1161	C116	0.394990	0.011290	0.124830
C1171	C117	0.062050	0.001450	0.121250
C1181	C118	0.678500	0.905200	0.888700
C1191	C119	0.649370	0.300670	0.615190
C1201	C120	0.934770	0.800670	0.115190
C1211	C121	0.980870	0.118170	0.961490
C1221	C122	0.059110	0.937410	0.608270
C1231	C123	0.400410	0.431310	0.990070
C1241	C124	0.821790	0.599590	0.009930
C1251	C125	0.998550	0.184750	0.878750
C1261	C126	0.606340	0.356240	0.298380
C1271	C127	0.791390	0.251090	0.645730
C1281	C128	0.120350	0.426650	0.037050
C1291	C129	0.697730	0.482330	0.333210
C1301	C130	0.548110	0.668710	0.932470
C1311	C131	0.943080	0.032780	0.792860
C1321	C132	0.032780	0.231280	0.792860
C1331	C133	0.708610	0.188210	0.854270
C1341	C134	0.315250	0.501450	0.621250
C1351	C135	0.481210	0.495510	0.754570
C1361	C136	0.961470	0.578670	0.949090
C1371	C137	0.311790	0.791390	0.645730
C1381	C138	0.926650	0.620350	0.537050
C1391	C139	0.921330	0.538530	0.550910
C1401	C140	0.350710	0.168710	0.432470
C1411	C141	0.048110	0.350710	0.432470
C1421	C142	0.498550	0.437950	0.378750
C1431	C143	0.395210	0.059110	0.608270
C1441	C144	0.222270	0.810070	0.845390
C1451	C145	0.168710	0.048110	0.432470
C1461	C146	0.605010	0.988710	0.875170
C1471	C147	0.802270	0.013270	0.166790
C1481	C148	0.777730	0.189930	0.154610
C1491	C149	0.532780	0.443080	0.292860
C1501	C150	0.011290	0.468890	0.124830
C1511	C151	0.431310	0.178210	0.990070
C1521	C152	0.078670	0.461470	0.449090
C1531	C153	0.208610	0.748910	0.354270
C1541	C154	0.437410	0.559110	0.108270
C1551	C155	0.620350	0.915950	0.537050
C1561	C156	0.599590	0.568690	0.009930
C1571	C157	0.667080	0.999580	0.630260
C1581	C158	0.768720	0.056920	0.207140
C1591	C159	0.056910	0.516310	0.405170
C1601	C160	0.296920	0.332920	0.369740
C1611	C161	0.010770	0.078670	0.449090
C1621	C162	0.895210	0.437410	0.108270
C1631	C163	0.831290	0.951890	0.567530
C1641	C164	0.510770	0.961470	0.949090
C1651	C165	0.513270	0.302270	0.666790
C1661	C166	0.488710	0.105010	0.375170
C1671	C167	0.027600	0.405200	0.388700
C1681	C168	0.062590	0.604790	0.391730
C1691	C169	0.415950	0.120350	0.037050
C1701	C170	0.489230	0.038530	0.050910
C1711	C171	0.739040	0.606340	0.298380
C1721	C172	0.188210	0.248910	0.854270
C1731	C173	0.094800	0.472400	0.111300
C1741	C174	0.983690	0.443090	0.094830
C1751	C175	0.300670	0.434770	0.615190
C1761	C176	0.260960	0.393660	0.701620
C1771	C177	0.678210	0.931310	0.490070
C1781	C178	0.031110	0.488710	0.375170
C1791	C179	0.937410	0.395210	0.608270
C1801	C180	0.796920	0.500420	0.869740
C1811	C181	0.562590	0.440890	0.891730
C1821	C182	0.000420	0.296920	0.369740
C1831	C183	0.468890	0.394990	0.124830
C1841	C184	0.439470	0.618170	0.461490
C1851	C185	0.748910	0.688210	0.354270
C1861	C186	0.999580	0.703080	0.630260
C1871	C187	0.350630	0.699330	0.384810
C1881	C188	0.472400	0.321500	0.111300
C1891	C189	0.421330	0.489230	0.050910
C1901	C190	0.178500	0.027600	0.388700
C1911	C191	0.231290	0.004490	0.745430
C1921	C192	0.521610	0.016310	0.905170
C1931	C193	0.560530	0.381830	0.538510
C1941	C194	0.268720	0.467220	0.707140
C1951	C195	0.356240	0.739040	0.298380
C1961	C196	0.038530	0.421330	0.050910
C1971	C197	0.986730	0.982330	0.833210
C1981	C198	0.856240	0.106340	0.798380
C1991	C199	0.538530	0.989230	0.550910
C2001	C200	0.915950	0.926650	0.537050
C2011	C201	0.393660	0.643760	0.701620
C2021	C202	0.381830	0.519130	0.538510
C2031	C203	0.021610	0.056910	0.405170
C2041	C204	0.310070	0.722270	0.345390
C2051	C205	0.451890	0.331290	0.067530
C2061	C206	0.517670	0.513270	0.666790
C2071	C207	0.995510	0.981210	0.254570
C2081	C208	0.527600	0.678500	0.888700
C2091	C209	0.203080	0.499580	0.130260
C2101	C210	0.291390	0.811790	0.145730
C2111	C211	0.004490	0.018790	0.745430
C2121	C212	0.951890	0.649290	0.567530
C2131	C213	0.565230	0.350630	0.384810
C2141	C214	0.893660	0.760960	0.201620
C2151	C215	0.982330	0.197730	0.833210
C2161	C216	0.478390	0.983690	0.094830
O11	O1	0.340620	0.045530	0.644510
O21	O2	0.668700	0.176230	0.896660
O31	O3	0.469340	0.545530	0.144510
O41	O4	0.083250	0.208340	0.711200
O51	O5	0.979400	0.945500	0.917900
O61	O6	0.831300	0.241590	0.603340
O71	O7	0.246210	0.676450	0.821870
O81	O8	0.583250	0.497210	0.211200
O91	O9	0.619640	0.741140	0.642980
O101	O10	0.700900	0.669490	0.115860
O111	O11	0.486250	0.299100	0.884140
O121	O12	0.497210	0.708340	0.211200
O131	O13	0.657200	0.445500	0.417900
O141	O14	0.561370	0.432600	0.758140
O151	O15	0.030660	0.659380	0.355490
O161	O16	0.045530	0.969340	0.644510
O171	O17	0.011710	0.850470	0.473000
O181	O18	0.861970	0.927860	0.471170
O191	O19	0.118660	0.597980	0.918490
O201	O20	0.402020	0.635130	0.081510
O211	O21	0.669490	0.513750	0.115860
O221	O22	0.746210	0.755470	0.321870
O231	O23	0.969340	0.340620	0.644510
O241	O24	0.176230	0.258410	0.896660
O251	O25	0.454470	0.159380	0.855490
O261	O26	0.747890	0.932600	0.258140
O271	O27	0.135130	0.902020	0.581510
O281	O28	0.753790	0.323550	0.178130
O291	O29	0.330510	0.486250	0.884140
O301	O30	0.864870	0.097980	0.418490
O311	O31	0.291660	0.416750	0.788800
O321	O32	0.208340	0.997210	0.711200
O331	O33	0.159380	0.530660	0.855490
O341	O34	0.253790	0.244530	0.678130
O351	O35	0.239000	0.427860	0.971170
O361	O36	0.932600	0.061370	0.258140
O371	O37	0.799100	0.986250	0.384140
O381	O38	0.823770	0.741590	0.103340
O391	O39	0.364870	0.118660	0.918490
O401	O40	0.840620	0.469340	0.144510
O411	O41	0.241140	0.119640	0.142980
O421	O42	0.169490	0.200900	0.615860
O431	O43	0.020600	0.054500	0.082100
O441	O44	0.361970	0.239000	0.971170
O451	O45	0.520600	0.342800	0.582100
O461	O46	0.758860	0.880360	0.857020
O471	O47	0.996240	0.619640	0.642980
O481	O48	0.067400	0.938630	0.741860
O491	O49	0.054500	0.842800	0.082100
O501	O50	0.530660	0.454470	0.855490
O511	O51	0.744530	0.753790	0.178130
O521	O52	0.072140	0.261000	0.528830
O531	O53	0.791660	0.002790	0.288800
O541	O54	0.200900	0.013750	0.615860
O551	O55	0.554500	0.520600	0.582100
O561	O56	0.342800	0.554500	0.582100
O571	O57	0.755470	0.176450	0.321870
O581	O58	0.255470	0.246210	0.821870
O591	O59	0.649530	0.488290	0.027000
O601	O60	0.823550	0.253790	0.678130
O611	O61	0.479400	0.657200	0.417900
O621	O62	0.635130	0.881340	0.081510
O631	O63	0.503760	0.758860	0.857020
O641	O64	0.597980	0.364870	0.918490
O651	O65	0.013750	0.169490	0.615860
O661	O66	0.149530	0.335180	0.527000
O671	O67	0.097980	0.618660	0.418490
O681	O68	0.252110	0.067400	0.741860
O691	O69	0.676450	0.255470	0.821870
O701	O70	0.261000	0.138030	0.528830
O711	O71	0.761000	0.572140	0.028830
O721	O72	0.258410	0.668700	0.896660
O731	O73	0.438630	0.567400	0.241860
O741	O74	0.427860	0.361970	0.971170
O751	O75	0.513750	0.700900	0.115860
O761	O76	0.938630	0.252110	0.741860
O771	O77	0.758410	0.676230	0.396660
O781	O78	0.739000	0.861970	0.471170
O791	O79	0.241590	0.323770	0.603340
O801	O80	0.927860	0.739000	0.471170
O811	O81	0.247890	0.561370	0.758140
O821	O82	0.002790	0.916750	0.288800
O831	O83	0.119640	0.496240	0.142980
O841	O84	0.664820	0.011710	0.473000
O851	O85	0.902020	0.381340	0.581510
O861	O86	0.741590	0.331300	0.103340
O871	O87	0.258860	0.003760	0.357020
O881	O88	0.381340	0.135130	0.581510
O891	O89	0.842800	0.020600	0.082100
O901	O90	0.986250	0.830510	0.384140
O911	O91	0.880360	0.503760	0.857020
O921	O92	0.659380	0.954470	0.355490
O931	O93	0.168700	0.758410	0.396660
O941	O94	0.618660	0.864870	0.418490
O951	O95	0.997210	0.083250	0.711200
O961	O96	0.835180	0.649530	0.027000
O971	O97	0.003760	0.380360	0.357020
O981	O98	0.244530	0.823550	0.678130
O991	O99	0.488290	0.835180	0.027000
O1001	O100	0.916750	0.791660	0.288800
O1011	O101	0.638030	0.761000	0.028830
O1021	O102	0.138030	0.072140	0.528830
O1031	O103	0.954470	0.030660	0.355490
O1041	O104	0.323550	0.744530	0.178130
O1051	O105	0.432600	0.247890	0.758140
O1061	O106	0.157200	0.979400	0.917900
O1071	O107	0.350470	0.511710	0.973000
O1081	O108	0.380360	0.258860	0.357020
O1091	O109	0.567400	0.752110	0.241860
O1101	O110	0.299100	0.330510	0.884140
O1111	O111	0.331300	0.823770	0.103340
O1121	O112	0.445500	0.479400	0.417900
O1131	O113	0.511710	0.164820	0.973000
O1141	O114	0.830510	0.799100	0.384140
O1151	O115	0.545530	0.840620	0.144510
O1161	O116	0.741140	0.996240	0.642980
O1171	O117	0.164820	0.350470	0.973000
O1181	O118	0.752110	0.438630	0.241860
O1191	O119	0.676230	0.168700	0.396660
O1201	O120	0.323770	0.831300	0.603340
O1211	O121	0.176450	0.746210	0.321870
O1221	O122	0.061370	0.747890	0.258140
O1231	O123	0.416750	0.502790	0.788800
O1241	O124	0.572140	0.638030	0.028830
O1251	O125	0.850470	0.664820	0.473000
O1261	O126	0.708340	0.583250	0.211200
O1271	O127	0.335180	0.988290	0.527000
O1281	O128	0.502790	0.291660	0.788800
O1291	O129	0.945500	0.157200	0.917900
O1301	O130	0.881340	0.402020	0.081510
O1311	O131	0.988290	0.149530	0.527000
O1321	O132	0.496240	0.241140	0.142980
