data_HITXUE_clean_PM
_symmetry_space_group_name_H-M	'P1'
_cell_length_a	13.795000
_cell_length_b	12.830000
_cell_length_c	18.815000
_cell_angle_alpha	90.000000
_cell_angle_beta	89.959000
_cell_angle_gamma	90.000000
_symmetry_Int_Tables_number 1

loop_
_symmetry_equiv_pos_as_xyz
'x,y,z'

loop_
_atom_site_label
_atom_site_type_symbol
_atom_site_fract_x
_atom_site_fract_y
_atom_site_fract_z
P11	P1	0.772200	0.096300	0.055400
P21	P2	0.888700	0.767600	0.061800
P31	P3	0.118700	0.964300	0.166700
Al11	Al1	0.889500	0.959600	0.165500
Al21	Al2	0.117200	0.774600	0.061500
Al31	Al3	0.226700	0.096100	0.049500
O11	O1	0.180300	0.047400	0.130600
O21	O2	0.859500	0.824000	0.993900
O31	O3	0.994700	0.738500	0.057800
O41	O4	0.846600	0.164700	0.017800
O51	O5	0.816800	0.053800	0.123600
O61	O6	0.012400	0.994900	0.158200
O71	O7	0.137700	0.858300	0.133500
O81	O8	0.831900	0.667800	0.070200
O91	O9	0.147100	0.959000	0.244900
O101	O10	0.683700	0.160100	0.075800
O111	O11	0.870000	0.836400	0.126700
O121	O12	0.740000	0.009100	0.007100
P41	P4	0.272200	0.596300	0.055400
P51	P5	0.388700	0.267600	0.061800
P61	P6	0.618700	0.464300	0.166700
Al41	Al4	0.389500	0.459600	0.165500
Al51	Al5	0.617200	0.274600	0.061500
Al61	Al6	0.726700	0.596100	0.049500
O131	O13	0.680300	0.547400	0.130600
O141	O14	0.359500	0.324000	0.993900
O151	O15	0.494700	0.238500	0.057800
O161	O16	0.346600	0.664700	0.017800
O171	O17	0.316800	0.553800	0.123600
O181	O18	0.512400	0.494900	0.158200
O191	O19	0.637700	0.358300	0.133500
O201	O20	0.331900	0.167800	0.070200
O211	O21	0.647100	0.459000	0.244900
O221	O22	0.183700	0.660100	0.075800
O231	O23	0.370000	0.336400	0.126700
O241	O24	0.240000	0.509100	0.007100
P71	P7	0.227800	0.096300	0.444600
P81	P8	0.111300	0.767600	0.438200
P91	P9	0.881300	0.964300	0.333300
Al71	Al7	0.110500	0.959600	0.334500
Al81	Al8	0.882800	0.774600	0.438500
Al91	Al9	0.773300	0.096100	0.450500
O251	O25	0.819700	0.047400	0.369400
O261	O26	0.140500	0.824000	0.506100
O271	O27	0.005300	0.738500	0.442200
O281	O28	0.153400	0.164700	0.482200
O291	O29	0.183200	0.053800	0.376400
O301	O30	0.987600	0.994900	0.341800
O311	O31	0.862300	0.858300	0.366500
O321	O32	0.168100	0.667800	0.429800
O331	O33	0.852900	0.959000	0.255100
O341	O34	0.316300	0.160100	0.424200
O351	O35	0.130000	0.836400	0.373300
O361	O36	0.260000	0.009100	0.492900
P101	P10	0.727800	0.596300	0.444600
P111	P11	0.611300	0.267600	0.438200
P121	P12	0.381300	0.464300	0.333300
Al101	Al10	0.610500	0.459600	0.334500
Al111	Al11	0.382800	0.274600	0.438500
Al121	Al12	0.273300	0.596100	0.450500
O371	O37	0.319700	0.547400	0.369400
O381	O38	0.640500	0.324000	0.506100
O391	O39	0.505300	0.238500	0.442200
O401	O40	0.653400	0.664700	0.482200
O411	O41	0.683200	0.553800	0.376400
O421	O42	0.487600	0.494900	0.341800
O431	O43	0.362300	0.358300	0.366500
O441	O44	0.668100	0.167800	0.429800
O451	O45	0.352900	0.459000	0.255100
O461	O46	0.816300	0.660100	0.424200
O471	O47	0.630000	0.336400	0.373300
O481	O48	0.760000	0.509100	0.492900
P131	P13	0.227800	0.903700	0.944600
P141	P14	0.111300	0.232400	0.938200
P151	P15	0.881300	0.035700	0.833300
Al131	Al13	0.110500	0.040400	0.834500
Al141	Al14	0.882800	0.225400	0.938500
Al151	Al15	0.773300	0.903900	0.950500
O491	O49	0.819700	0.952600	0.869400
O501	O50	0.140500	0.176000	0.006100
O511	O51	0.005300	0.261500	0.942200
O521	O52	0.153400	0.835300	0.982200
O531	O53	0.183200	0.946200	0.876400
O541	O54	0.987600	0.005100	0.841800
O551	O55	0.862300	0.141700	0.866500
O561	O56	0.168100	0.332200	0.929800
O571	O57	0.852900	0.041000	0.755100
O581	O58	0.316300	0.839900	0.924200
O591	O59	0.130000	0.163600	0.873300
O601	O60	0.260000	0.990900	0.992900
P161	P16	0.727800	0.403700	0.944600
P171	P17	0.611300	0.732400	0.938200
P181	P18	0.381300	0.535700	0.833300
Al161	Al16	0.610500	0.540400	0.834500
Al171	Al17	0.382800	0.725400	0.938500
Al181	Al18	0.273300	0.403900	0.950500
O611	O61	0.319700	0.452600	0.869400
O621	O62	0.640500	0.676000	0.006100
O631	O63	0.505300	0.761500	0.942200
O641	O64	0.653400	0.335300	0.982200
O651	O65	0.683200	0.446200	0.876400
O661	O66	0.487600	0.505100	0.841800
O671	O67	0.362300	0.641700	0.866500
O681	O68	0.668100	0.832200	0.929800
O691	O69	0.352900	0.541000	0.755100
O701	O70	0.816300	0.339900	0.924200
O711	O71	0.630000	0.663600	0.873300
O721	O72	0.760000	0.490900	0.992900
P191	P19	0.772200	0.903700	0.555400
P201	P20	0.888700	0.232400	0.561800
P211	P21	0.118700	0.035700	0.666700
Al191	Al19	0.889500	0.040400	0.665500
Al201	Al20	0.117200	0.225400	0.561500
Al211	Al21	0.226700	0.903900	0.549500
O731	O73	0.180300	0.952600	0.630600
O741	O74	0.859500	0.176000	0.493900
O751	O75	0.994700	0.261500	0.557800
O761	O76	0.846600	0.835300	0.517800
O771	O77	0.816800	0.946200	0.623600
O781	O78	0.012400	0.005100	0.658200
O791	O79	0.137700	0.141700	0.633500
O801	O80	0.831900	0.332200	0.570200
O811	O81	0.147100	0.041000	0.744900
O821	O82	0.683700	0.839900	0.575800
O831	O83	0.870000	0.163600	0.626700
O841	O84	0.740000	0.990900	0.507100
P221	P22	0.272200	0.403700	0.555400
P231	P23	0.388700	0.732400	0.561800
P241	P24	0.618700	0.535700	0.666700
Al221	Al22	0.389500	0.540400	0.665500
Al231	Al23	0.617200	0.725400	0.561500
Al241	Al24	0.726700	0.403900	0.549500
O851	O85	0.680300	0.452600	0.630600
O861	O86	0.359500	0.676000	0.493900
O871	O87	0.494700	0.761500	0.557800
O881	O88	0.346600	0.335300	0.517800
O891	O89	0.316800	0.446200	0.623600
O901	O90	0.512400	0.505100	0.658200
O911	O91	0.637700	0.641700	0.633500
O921	O92	0.331900	0.832200	0.570200
O931	O93	0.647100	0.541000	0.744900
O941	O94	0.183700	0.339900	0.575800
O951	O95	0.370000	0.663600	0.626700
O961	O96	0.240000	0.490900	0.507100
