data_HIWLIK_clean_PM
_symmetry_space_group_name_H-M	'P1'
_cell_length_a	10.375300
_cell_length_b	12.403600
_cell_length_c	15.764000
_cell_angle_alpha	90.000000
_cell_angle_beta	90.000000
_cell_angle_gamma	90.000000
_symmetry_Int_Tables_number 1

loop_
_symmetry_equiv_pos_as_xyz
'x,y,z'

loop_
_atom_site_label
_atom_site_type_symbol
_atom_site_fract_x
_atom_site_fract_y
_atom_site_fract_z
Zn11	Zn1	0.055680	0.736250	0.400180
Zn21	Zn2	0.753260	0.082770	0.088600
Zn31	Zn3	0.759320	0.400150	0.211510
P11	P1	0.539200	0.938190	0.006970
P21	P2	0.710200	0.326920	0.019730
P31	P3	0.764560	0.167540	0.279200
P41	P4	0.979520	0.533370	0.296600
O11	O1	0.635700	0.957400	0.078440
O21	O2	0.404000	0.970230	0.031120
O31	O3	0.551300	0.824300	0.973320
O41	O4	0.704000	0.399600	0.095900
O51	O5	0.682900	0.210400	0.039000
O61	O6	0.824700	0.348300	0.966100
O71	O7	0.833000	0.271980	0.258200
O81	O8	0.778300	0.084670	0.209600
O91	O9	0.626000	0.183430	0.306200
O101	O10	0.892800	0.514410	0.220220
O111	O11	0.120300	0.535510	0.276210
O121	O12	0.936700	0.632340	0.346520
H11	H1	0.559300	0.014200	0.955600
H21	H2	0.625400	0.361300	0.975300
H31	H3	0.832100	0.126800	0.348700
H41	H4	0.957500	0.451000	0.353700
Zn41	Zn4	0.944320	0.263750	0.900180
Zn51	Zn5	0.246740	0.917230	0.588600
Zn61	Zn6	0.240680	0.599850	0.711510
P51	P5	0.460800	0.061810	0.506970
P61	P6	0.289800	0.673080	0.519730
P71	P7	0.235440	0.832460	0.779200
P81	P8	0.020480	0.466630	0.796600
O131	O13	0.364300	0.042600	0.578440
O141	O14	0.596000	0.029770	0.531120
O151	O15	0.448700	0.175700	0.473320
O161	O16	0.296000	0.600400	0.595900
O171	O17	0.317100	0.789600	0.539000
O181	O18	0.175300	0.651700	0.466100
O191	O19	0.167000	0.728020	0.758200
O201	O20	0.221700	0.915330	0.709600
O211	O21	0.374000	0.816570	0.806200
O221	O22	0.107200	0.485590	0.720220
O231	O23	0.879700	0.464490	0.776210
O241	O24	0.063300	0.367660	0.846520
H51	H5	0.440700	0.985800	0.455600
H61	H6	0.374600	0.638700	0.475300
H71	H7	0.167900	0.873200	0.848700
H81	H8	0.042500	0.549000	0.853700
Zn71	Zn7	0.555680	0.263750	0.400180
Zn81	Zn8	0.253260	0.917230	0.088600
Zn91	Zn9	0.259320	0.599850	0.211510
P91	P9	0.039200	0.061810	0.006970
P101	P10	0.210200	0.673080	0.019730
P111	P11	0.264560	0.832460	0.279200
P121	P12	0.479520	0.466630	0.296600
O251	O25	0.135700	0.042600	0.078440
O261	O26	0.904000	0.029770	0.031120
O271	O27	0.051300	0.175700	0.973320
O281	O28	0.204000	0.600400	0.095900
O291	O29	0.182900	0.789600	0.039000
O301	O30	0.324700	0.651700	0.966100
O311	O31	0.333000	0.728020	0.258200
O321	O32	0.278300	0.915330	0.209600
O331	O33	0.126000	0.816570	0.306200
O341	O34	0.392800	0.485590	0.220220
O351	O35	0.620300	0.464490	0.276210
O361	O36	0.436700	0.367660	0.346520
H91	H9	0.059300	0.985800	0.955600
H101	H10	0.125400	0.638700	0.975300
H111	H11	0.332100	0.873200	0.348700
H121	H12	0.457500	0.549000	0.353700
Zn101	Zn10	0.444320	0.736250	0.900180
Zn111	Zn11	0.746740	0.082770	0.588600
Zn121	Zn12	0.740680	0.400150	0.711510
P131	P13	0.960800	0.938190	0.506970
P141	P14	0.789800	0.326920	0.519730
P151	P15	0.735440	0.167540	0.779200
P161	P16	0.520480	0.533370	0.796600
O371	O37	0.864300	0.957400	0.578440
O381	O38	0.096000	0.970230	0.531120
O391	O39	0.948700	0.824300	0.473320
O401	O40	0.796000	0.399600	0.595900
O411	O41	0.817100	0.210400	0.539000
O421	O42	0.675300	0.348300	0.466100
O431	O43	0.667000	0.271980	0.758200
O441	O44	0.721700	0.084670	0.709600
O451	O45	0.874000	0.183430	0.806200
O461	O46	0.607200	0.514410	0.720220
O471	O47	0.379700	0.535510	0.776210
O481	O48	0.563300	0.632340	0.846520
H131	H13	0.940700	0.014200	0.455600
H141	H14	0.874600	0.361300	0.475300
H151	H15	0.667900	0.126800	0.848700
H161	H16	0.542500	0.451000	0.853700
