data_HIWXER01_SL_PM
_symmetry_space_group_name_H-M	'P1'
_cell_length_a	16.087100
_cell_length_b	8.550500
_cell_length_c	17.188600
_cell_angle_alpha	90.000000
_cell_angle_beta	129.568700
_cell_angle_gamma	90.000000
_symmetry_Int_Tables_number 1

loop_
_symmetry_equiv_pos_as_xyz
'x,y,z'

loop_
_atom_site_label
_atom_site_type_symbol
_atom_site_fract_x
_atom_site_fract_y
_atom_site_fract_z
Zn11	Zn1	0.107160	0.319850	0.134370
Zn21	Zn2	0.873860	0.564520	0.028720
C31	C3	0.246100	0.592400	0.181000
C41	C4	0.186400	0.594200	0.275100
N51	N5	0.334400	0.686400	0.241500
N61	N6	0.376800	0.698800	0.194900
N71	N7	0.320700	0.620100	0.111500
N81	N8	0.238500	0.552400	0.100100
N91	N9	0.260900	0.699700	0.343900
N101	N10	0.246100	0.712700	0.412300
N111	N11	0.166200	0.620700	0.384500
N121	N12	0.126600	0.543600	0.298600
N131	N13	0.177400	0.538700	0.194100
O141	O14	0.965100	0.372600	0.111600
O151	O15	0.038600	0.316300	0.988800
H161	H16	0.542040	0.792910	0.559280
H171	H17	0.591350	0.790730	0.422050
Zn181	Zn18	0.607160	0.819850	0.134370
Zn191	Zn19	0.373860	0.064520	0.028720
C201	C20	0.746100	0.092400	0.181000
C211	C21	0.686400	0.094200	0.275100
N221	N22	0.834400	0.186400	0.241500
N231	N23	0.876800	0.198800	0.194900
N241	N24	0.820700	0.120100	0.111500
N251	N25	0.738500	0.052400	0.100100
N261	N26	0.760900	0.199700	0.343900
N271	N27	0.746100	0.212700	0.412300
N281	N28	0.666200	0.120700	0.384500
N291	N29	0.626600	0.043600	0.298600
N301	N30	0.677400	0.038700	0.194100
O311	O31	0.465100	0.872600	0.111600
O321	O32	0.538600	0.816300	0.988800
H331	H33	0.042040	0.292910	0.559280
H341	H34	0.091350	0.290730	0.422050
Zn351	Zn35	0.892840	0.319850	0.365630
Zn361	Zn36	0.126140	0.564520	0.471280
C371	C37	0.753900	0.592400	0.319000
C381	C38	0.813600	0.594200	0.224900
N391	N39	0.665600	0.686400	0.258500
N401	N40	0.623200	0.698800	0.305100
N411	N41	0.679300	0.620100	0.388500
N421	N42	0.761500	0.552400	0.399900
N431	N43	0.739100	0.699700	0.156100
N441	N44	0.753900	0.712700	0.087700
N451	N45	0.833800	0.620700	0.115500
N461	N46	0.873400	0.543600	0.201400
N471	N47	0.822600	0.538700	0.305900
O481	O48	0.034900	0.372600	0.388400
O491	O49	0.961400	0.316300	0.511200
H501	H50	0.457960	0.792910	0.940720
H511	H51	0.408650	0.790730	0.077950
Zn521	Zn52	0.392840	0.819850	0.365630
Zn531	Zn53	0.626140	0.064520	0.471280
C541	C54	0.253900	0.092400	0.319000
C551	C55	0.313600	0.094200	0.224900
N561	N56	0.165600	0.186400	0.258500
N571	N57	0.123200	0.198800	0.305100
N581	N58	0.179300	0.120100	0.388500
N591	N59	0.261500	0.052400	0.399900
N601	N60	0.239100	0.199700	0.156100
N611	N61	0.253900	0.212700	0.087700
N621	N62	0.333800	0.120700	0.115500
N631	N63	0.373400	0.043600	0.201400
N641	N64	0.322600	0.038700	0.305900
O651	O65	0.534900	0.872600	0.388400
O661	O66	0.461400	0.816300	0.511200
H671	H67	0.957960	0.292910	0.940720
H681	H68	0.908650	0.290730	0.077950
Zn691	Zn69	0.892840	0.680150	0.865630
Zn701	Zn70	0.126140	0.435480	0.971280
C711	C71	0.753900	0.407600	0.819000
C721	C72	0.813600	0.405800	0.724900
N731	N73	0.665600	0.313600	0.758500
N741	N74	0.623200	0.301200	0.805100
N751	N75	0.679300	0.379900	0.888500
N761	N76	0.761500	0.447600	0.899900
N771	N77	0.739100	0.300300	0.656100
N781	N78	0.753900	0.287300	0.587700
N791	N79	0.833800	0.379300	0.615500
N801	N80	0.873400	0.456400	0.701400
N811	N81	0.822600	0.461300	0.805900
O821	O82	0.034900	0.627400	0.888400
O831	O83	0.961400	0.683700	0.011200
H841	H84	0.457960	0.207090	0.440720
H851	H85	0.408650	0.209270	0.577950
Zn861	Zn86	0.392840	0.180150	0.865630
Zn871	Zn87	0.626140	0.935480	0.971280
C881	C88	0.253900	0.907600	0.819000
C891	C89	0.313600	0.905800	0.724900
N901	N90	0.165600	0.813600	0.758500
N911	N91	0.123200	0.801200	0.805100
N921	N92	0.179300	0.879900	0.888500
N931	N93	0.261500	0.947600	0.899900
N941	N94	0.239100	0.800300	0.656100
N951	N95	0.253900	0.787300	0.587700
N961	N96	0.333800	0.879300	0.615500
N971	N97	0.373400	0.956400	0.701400
N981	N98	0.322600	0.961300	0.805900
O991	O99	0.534900	0.127400	0.888400
O1001	O100	0.461400	0.183700	0.011200
H1011	H101	0.957960	0.707090	0.440720
H1021	H102	0.908650	0.709270	0.577950
Zn1031	Zn103	0.107160	0.680150	0.634370
Zn1041	Zn104	0.873860	0.435480	0.528720
C1051	C105	0.246100	0.407600	0.681000
C1061	C106	0.186400	0.405800	0.775100
N1071	N107	0.334400	0.313600	0.741500
N1081	N108	0.376800	0.301200	0.694900
N1091	N109	0.320700	0.379900	0.611500
N1101	N110	0.238500	0.447600	0.600100
N1111	N111	0.260900	0.300300	0.843900
N1121	N112	0.246100	0.287300	0.912300
N1131	N113	0.166200	0.379300	0.884500
N1141	N114	0.126600	0.456400	0.798600
N1151	N115	0.177400	0.461300	0.694100
O1161	O116	0.965100	0.627400	0.611600
O1171	O117	0.038600	0.683700	0.488800
H1181	H118	0.542040	0.207090	0.059280
H1191	H119	0.591350	0.209270	0.922050
Zn1201	Zn120	0.607160	0.180150	0.634370
Zn1211	Zn121	0.373860	0.935480	0.528720
C1221	C122	0.746100	0.907600	0.681000
C1231	C123	0.686400	0.905800	0.775100
N1241	N124	0.834400	0.813600	0.741500
N1251	N125	0.876800	0.801200	0.694900
N1261	N126	0.820700	0.879900	0.611500
N1271	N127	0.738500	0.947600	0.600100
N1281	N128	0.760900	0.800300	0.843900
N1291	N129	0.746100	0.787300	0.912300
N1301	N130	0.666200	0.879300	0.884500
N1311	N131	0.626600	0.956400	0.798600
N1321	N132	0.677400	0.961300	0.694100
O1331	O133	0.465100	0.127400	0.611600
O1341	O134	0.538600	0.183700	0.488800
H1351	H135	0.042040	0.707090	0.059280
H1361	H136	0.091350	0.709270	0.922050
Zn1371	Zn137	0.000000	0.373270	0.250000
Zn1381	Zn138	0.500000	0.873270	0.250000
Zn1391	Zn139	0.000000	0.626730	0.750000
Zn1401	Zn140	0.500000	0.126730	0.750000
