data_HIYLUY_clean_PM
_symmetry_space_group_name_H-M	'P1'
_cell_length_a	14.395000
_cell_length_b	15.203000
_cell_length_c	33.371000
_cell_angle_alpha	90.000000
_cell_angle_beta	90.000000
_cell_angle_gamma	90.000000
_symmetry_Int_Tables_number 1

loop_
_symmetry_equiv_pos_as_xyz
'x,y,z'

loop_
_atom_site_label
_atom_site_type_symbol
_atom_site_fract_x
_atom_site_fract_y
_atom_site_fract_z
K11	K1	0.685970	0.284110	0.045920
K21	K2	0.685970	0.284110	0.454080
K31	K3	0.185970	0.215890	0.954080
K41	K4	0.190680	0.232970	0.143050
K51	K5	0.809320	0.767030	0.856950
K61	K6	0.185970	0.215890	0.545920
K71	K7	0.185310	0.242500	0.750000
K81	K8	0.690680	0.267030	0.643050
K91	K9	0.814030	0.784110	0.045920
K101	K10	0.685310	0.257500	0.250000
K111	K11	0.309320	0.732970	0.143050
K121	K12	0.809320	0.767030	0.643050
K131	K13	0.814690	0.757500	0.250000
K141	K14	0.314690	0.742500	0.750000
K151	K15	0.314030	0.715890	0.954080
K161	K16	0.314030	0.715890	0.545920
K171	K17	0.190680	0.232970	0.356950
K181	K18	0.814030	0.784110	0.454080
K191	K19	0.690680	0.267030	0.856950
K201	K20	0.309320	0.732970	0.356950
Ho11	Ho1	0.870440	0.303950	0.150800
Ho21	Ho2	0.370440	0.196050	0.849200
Ho31	Ho3	0.112400	0.702010	0.051050
Ho41	Ho4	0.887600	0.297990	0.551050
Ho51	Ho5	0.640090	0.820880	0.750000
Ho61	Ho6	0.870440	0.303950	0.349200
Ho71	Ho7	0.140090	0.679120	0.250000
Ho81	Ho8	0.859910	0.320880	0.750000
Ho91	Ho9	0.370440	0.196050	0.650800
Ho101	Ho10	0.612400	0.797990	0.948950
Ho111	Ho11	0.629560	0.803950	0.150800
Ho121	Ho12	0.612400	0.797990	0.551050
Ho131	Ho13	0.629560	0.803950	0.349200
Ho141	Ho14	0.129560	0.696050	0.849200
Ho151	Ho15	0.359910	0.179120	0.250000
Ho161	Ho16	0.887600	0.297990	0.948950
Ho171	Ho17	0.387600	0.202010	0.051050
Ho181	Ho18	0.112400	0.702010	0.448950
Ho191	Ho19	0.387600	0.202010	0.448950
Ho201	Ho20	0.129560	0.696050	0.650800
C11	C1	0.837500	0.541500	0.750000
C21	C2	0.171500	0.486700	0.449220
C31	C3	0.008200	0.507600	0.649800
C41	C4	0.016600	0.591100	0.750000
C51	C5	0.138100	0.372100	0.250000
C61	C6	0.279100	0.818000	0.646840
C71	C7	0.002900	0.411000	0.049760
C81	C8	0.489000	0.081900	0.350640
C91	C9	0.992900	0.501900	0.750000
C101	C10	0.384100	0.124100	0.750000
C111	C11	0.107700	0.623200	0.150290
C121	C12	0.932400	0.567800	0.048130
C131	C13	0.563200	0.081700	0.850420
C141	C14	0.146000	0.389200	0.647260
C151	C15	0.662600	0.103800	0.949330
C161	C16	0.162600	0.396200	0.050670
C171	C17	0.737800	0.462300	0.950400
C181	C18	0.162600	0.396200	0.449330
C191	C19	0.567600	0.067800	0.048130
C201	C20	0.936800	0.581700	0.850420
C211	C21	0.059900	0.423900	0.750000
C221	C22	0.292600	0.796600	0.250000
C231	C23	0.335400	0.978600	0.647510
C241	C24	0.983400	0.408900	0.250000
C251	C25	0.262200	0.537700	0.450400
C261	C26	0.508200	0.992400	0.350200
C271	C27	0.242500	0.331800	0.050100
C281	C28	0.837400	0.603800	0.949330
C291	C29	0.779100	0.682000	0.146840
C301	C30	0.792600	0.703400	0.750000
C311	C31	0.828500	0.513300	0.550780
C321	C32	0.238900	0.019900	0.644860
C331	C33	0.440100	0.923900	0.750000
C341	C34	0.511600	0.998200	0.549290
C351	C35	0.742500	0.168200	0.949900
C361	C36	0.008200	0.507600	0.850200
C371	C37	0.638100	0.127900	0.750000
C381	C38	0.328500	0.986700	0.449220
C391	C39	0.410700	0.138700	0.950440
C401	C40	0.761100	0.980100	0.355140
C411	C41	0.828500	0.513300	0.949220
C421	C42	0.361900	0.872100	0.250000
C431	C43	0.239100	0.996300	0.250000
C441	C44	0.739100	0.503700	0.750000
C451	C45	0.260900	0.496300	0.250000
C461	C46	0.559900	0.076100	0.250000
C471	C47	0.671500	0.013300	0.949220
C481	C48	0.932400	0.567800	0.451870
C491	C49	0.516600	0.908900	0.250000
C501	C50	0.067600	0.432200	0.951870
C511	C51	0.261100	0.519900	0.644860
C521	C52	0.720900	0.182000	0.353160
C531	C53	0.910700	0.361300	0.450440
C541	C54	0.489000	0.081900	0.149360
C551	C55	0.563200	0.081700	0.649580
C561	C56	0.589300	0.861300	0.450440
C571	C57	0.664600	0.021400	0.147510
C581	C58	0.011600	0.501800	0.049290
C591	C59	0.662500	0.041500	0.750000
C601	C60	0.002900	0.411000	0.450240
C611	C61	0.615900	0.875900	0.250000
C621	C62	0.488400	0.001800	0.450710
C631	C63	0.497100	0.911000	0.450240
C641	C64	0.089300	0.638700	0.549560
C651	C65	0.242500	0.331800	0.449900
C661	C66	0.762200	0.962300	0.549600
C671	C67	0.854000	0.610800	0.352740
C681	C68	0.007100	0.498100	0.250000
C691	C69	0.237800	0.037700	0.450400
C701	C70	0.936800	0.581700	0.649580
C711	C71	0.989000	0.418100	0.649360
C721	C72	0.861900	0.627900	0.750000
C731	C73	0.220900	0.318000	0.646840
C741	C74	0.854000	0.610800	0.147260
C751	C75	0.237800	0.037700	0.049600
C761	C76	0.146000	0.389200	0.852740
C771	C77	0.910700	0.361300	0.049560
C781	C78	0.761100	0.980100	0.144860
C791	C79	0.162500	0.458500	0.250000
C801	C80	0.220900	0.318000	0.853160
C811	C81	0.261100	0.519900	0.855140
C821	C82	0.328500	0.986700	0.050780
C831	C83	0.607700	0.876800	0.849710
C841	C84	0.107700	0.623200	0.349710
C851	C85	0.720900	0.182000	0.146840
C861	C86	0.164600	0.478600	0.647510
C871	C87	0.492900	0.998100	0.250000
C881	C88	0.779100	0.682000	0.353160
C891	C89	0.757500	0.668200	0.949900
C901	C90	0.991800	0.492400	0.149800
C911	C91	0.432400	0.932200	0.548130
C921	C92	0.511000	0.918100	0.649360
C931	C93	0.997100	0.589000	0.549760
C941	C94	0.892300	0.376800	0.849710
C951	C95	0.257500	0.831800	0.449900
C961	C96	0.171500	0.486700	0.050780
C971	C97	0.892300	0.376800	0.650290
C981	C98	0.491800	0.007600	0.649800
C991	C99	0.497100	0.911000	0.049760
C1001	C100	0.063200	0.418300	0.350420
C1011	C101	0.502900	0.089000	0.950240
C1021	C102	0.646000	0.110800	0.147260
C1031	C103	0.738900	0.480100	0.355140
C1041	C104	0.671500	0.013300	0.550780
C1051	C105	0.392300	0.123200	0.150290
C1061	C106	0.436800	0.918300	0.350420
C1071	C107	0.410700	0.138700	0.549560
C1081	C108	0.011600	0.501800	0.450710
C1091	C109	0.491800	0.007600	0.850200
C1101	C110	0.354000	0.889200	0.647260
C1111	C111	0.511000	0.918100	0.850640
C1121	C112	0.279100	0.818000	0.853160
C1131	C113	0.257500	0.831800	0.050100
C1141	C114	0.607700	0.876800	0.650290
C1151	C115	0.432400	0.932200	0.951870
C1161	C116	0.337400	0.896200	0.449330
C1171	C117	0.207400	0.296600	0.250000
C1181	C118	0.884100	0.375900	0.250000
C1191	C119	0.997100	0.589000	0.950240
C1201	C120	0.737800	0.462300	0.549600
C1211	C121	0.508200	0.992400	0.149800
C1221	C122	0.067600	0.432200	0.548130
C1231	C123	0.507100	0.001900	0.750000
C1241	C124	0.483400	0.091100	0.750000
C1251	C125	0.436800	0.918300	0.149580
C1261	C126	0.738900	0.480100	0.144860
C1271	C127	0.011000	0.581900	0.350640
C1281	C128	0.989000	0.418100	0.850640
C1291	C129	0.089300	0.638700	0.950440
C1301	C130	0.262200	0.537700	0.049600
C1311	C131	0.063200	0.418300	0.149580
C1321	C132	0.392300	0.123200	0.349710
C1331	C133	0.567600	0.067800	0.451870
C1341	C134	0.164600	0.478600	0.852490
C1351	C135	0.837400	0.603800	0.550670
C1361	C136	0.662600	0.103800	0.550670
C1371	C137	0.664600	0.021400	0.352490
C1381	C138	0.707400	0.203400	0.750000
C1391	C139	0.354000	0.889200	0.852740
C1401	C140	0.835400	0.521400	0.352490
C1411	C141	0.502900	0.089000	0.549760
C1421	C142	0.991800	0.492400	0.350200
C1431	C143	0.742500	0.168200	0.550100
C1441	C144	0.337400	0.896200	0.050670
C1451	C145	0.988400	0.498200	0.950710
C1461	C146	0.115900	0.624100	0.750000
C1471	C147	0.646000	0.110800	0.352740
C1481	C148	0.335400	0.978600	0.852490
C1491	C149	0.760900	0.003700	0.750000
C1501	C150	0.988400	0.498200	0.549290
C1511	C151	0.011000	0.581900	0.149360
C1521	C152	0.940100	0.576100	0.250000
C1531	C153	0.511600	0.998200	0.950710
C1541	C154	0.757500	0.668200	0.550100
C1551	C155	0.835400	0.521400	0.147510
C1561	C156	0.238900	0.019900	0.855140
C1571	C157	0.488400	0.001800	0.049290
C1581	C158	0.337500	0.958500	0.250000
C1591	C159	0.589300	0.861300	0.049560
C1601	C160	0.762200	0.962300	0.950400
N11	N1	0.058200	0.358300	0.647810
N21	N2	0.596000	0.961400	0.949760
N31	N3	0.058200	0.358300	0.852190
N41	N4	0.941800	0.641700	0.352190
N51	N5	0.096400	0.536300	0.851370
N61	N6	0.558200	0.141700	0.352190
N71	N7	0.596400	0.963700	0.148630
N81	N8	0.047900	0.346500	0.250000
N91	N9	0.078400	0.358600	0.050210
N101	N10	0.941800	0.641700	0.147810
N111	N11	0.578400	0.141400	0.550210
N121	N12	0.578400	0.141400	0.949790
N131	N13	0.404000	0.038600	0.050240
N141	N14	0.096000	0.538600	0.050240
N151	N15	0.921600	0.641400	0.550210
N161	N16	0.921600	0.641400	0.949790
N171	N17	0.441800	0.858300	0.647810
N181	N18	0.952100	0.653500	0.750000
N191	N19	0.596200	0.978000	0.750000
N201	N20	0.904000	0.461400	0.949760
N211	N21	0.441800	0.858300	0.852190
N221	N22	0.403600	0.036300	0.851370
N231	N23	0.903800	0.478000	0.750000
N241	N24	0.421600	0.858600	0.449790
N251	N25	0.403600	0.036300	0.648630
N261	N26	0.096400	0.536300	0.648630
N271	N27	0.904000	0.461400	0.550240
N281	N28	0.547900	0.153500	0.750000
N291	N29	0.078400	0.358600	0.449790
N301	N30	0.421600	0.858600	0.050210
N311	N31	0.596400	0.963700	0.351370
N321	N32	0.096200	0.522000	0.250000
N331	N33	0.558200	0.141700	0.147810
N341	N34	0.452100	0.846500	0.250000
N351	N35	0.403800	0.022000	0.250000
N361	N36	0.903600	0.463700	0.351370
N371	N37	0.404000	0.038600	0.449760
N381	N38	0.903600	0.463700	0.148630
N391	N39	0.096000	0.538600	0.449760
N401	N40	0.596000	0.961400	0.550240
O11	O1	0.121600	0.659000	0.516170
O21	O2	0.257900	0.783500	0.614450
O31	O3	0.755100	0.205600	0.320520
O41	O4	0.521300	0.151000	0.250000
O51	O5	0.147500	0.461100	0.952700
O61	O6	0.761300	0.896800	0.355460
O71	O7	0.347300	0.140800	0.783330
O81	O8	0.170200	0.971500	0.642900
O91	O9	0.122700	0.658700	0.582670
O101	O10	0.152700	0.640800	0.716670
O111	O11	0.670200	0.528500	0.357100
O121	O12	0.363200	0.151100	0.382730
O131	O13	0.378400	0.159000	0.516170
O141	O14	0.215800	0.813100	0.417980
O151	O15	0.021300	0.349000	0.750000
O161	O16	0.715800	0.686900	0.917980
O171	O17	0.738700	0.396800	0.144540
O181	O18	0.242100	0.283500	0.614450
O191	O19	0.852500	0.538900	0.452700
O201	O20	0.652700	0.859200	0.283330
O211	O21	0.241200	0.793500	0.482000
O221	O22	0.284200	0.313100	0.082020
O231	O23	0.148700	0.626300	0.317140
O241	O24	0.457900	0.851900	0.951720
O251	O25	0.622700	0.841300	0.417330
O261	O26	0.042100	0.351900	0.951720
O271	O27	0.621600	0.841000	0.016170
O281	O28	0.266300	0.767000	0.282560
O291	O29	0.232800	0.078800	0.250000
O301	O30	0.829800	0.028500	0.142900
O311	O31	0.664800	0.504400	0.548700
O321	O32	0.244900	0.794400	0.820520
O331	O33	0.170200	0.971500	0.857100
O341	O34	0.733700	0.233000	0.782560
O351	O35	0.352500	0.961100	0.547300
O361	O36	0.856700	0.559500	0.250000
O371	O37	0.733700	0.233000	0.717440
O381	O38	0.652700	0.859200	0.216670
O391	O39	0.784200	0.186900	0.917980
O401	O40	0.766300	0.733000	0.717440
O411	O41	0.242100	0.283500	0.885550
O421	O42	0.136800	0.651100	0.382730
O431	O43	0.636800	0.848900	0.882730
O441	O44	0.854000	0.562400	0.852660
O451	O45	0.854000	0.562400	0.647340
O461	O46	0.622700	0.841300	0.082670
O471	O47	0.732800	0.421200	0.750000
O481	O48	0.851300	0.373700	0.682860
O491	O49	0.863200	0.348900	0.882730
O501	O50	0.284200	0.313100	0.417980
O511	O51	0.352500	0.961100	0.952700
O521	O52	0.971400	0.658300	0.849470
O531	O53	0.648700	0.873700	0.817140
O541	O54	0.766300	0.733000	0.782560
O551	O55	0.238700	0.103200	0.855460
O561	O56	0.245300	0.120300	0.049710
O571	O57	0.528600	0.158300	0.650530
O581	O58	0.835200	0.004400	0.951300
O591	O59	0.744900	0.705600	0.320520
O601	O60	0.457900	0.851900	0.548280
O611	O61	0.347300	0.140800	0.716670
O621	O62	0.957900	0.648100	0.451720
O631	O63	0.715800	0.686900	0.582020
O641	O64	0.877300	0.341300	0.417330
O651	O65	0.757900	0.716500	0.385550
O661	O66	0.148700	0.626300	0.182860
O671	O67	0.042100	0.351900	0.548280
O681	O68	0.741200	0.706500	0.518000
O691	O69	0.741200	0.706500	0.982000
O701	O70	0.147500	0.461100	0.547300
O711	O71	0.146000	0.437600	0.352660
O721	O72	0.744900	0.705600	0.179480
O731	O73	0.471400	0.841700	0.150530
O741	O74	0.648700	0.873700	0.682860
O751	O75	0.152700	0.640800	0.783330
O761	O76	0.742100	0.216500	0.114450
O771	O77	0.847300	0.359200	0.283330
O781	O78	0.758800	0.206500	0.518000
O791	O79	0.255100	0.294400	0.820520
O801	O80	0.238700	0.103200	0.644540
O811	O81	0.255100	0.294400	0.679480
O821	O82	0.335200	0.495600	0.048700
O831	O83	0.784200	0.186900	0.582020
O841	O84	0.245300	0.120300	0.450290
O851	O85	0.647500	0.038900	0.452700
O861	O86	0.028600	0.341700	0.150530
O871	O87	0.754700	0.879700	0.950290
O881	O88	0.847300	0.359200	0.216670
O891	O89	0.257900	0.783500	0.885550
O901	O90	0.878400	0.341000	0.483830
O911	O91	0.742100	0.216500	0.385550
O921	O92	0.878400	0.341000	0.016170
O931	O93	0.329800	0.471500	0.642900
O941	O94	0.122700	0.658700	0.917330
O951	O95	0.354000	0.937600	0.352660
O961	O96	0.757900	0.716500	0.114450
O971	O97	0.136800	0.651100	0.117270
O981	O98	0.664800	0.504400	0.951300
O991	O99	0.767200	0.921200	0.750000
O1001	O100	0.258800	0.293500	0.482000
O1011	O101	0.646000	0.062400	0.647340
O1021	O102	0.851300	0.373700	0.817140
O1031	O103	0.028600	0.341700	0.349470
O1041	O104	0.363200	0.151100	0.117270
O1051	O105	0.877300	0.341300	0.082670
O1061	O106	0.233700	0.267000	0.217440
O1071	O107	0.978700	0.651000	0.250000
O1081	O108	0.852500	0.538900	0.047300
O1091	O109	0.377300	0.158700	0.582670
O1101	O110	0.335200	0.495600	0.451300
O1111	O111	0.478700	0.849000	0.750000
O1121	O112	0.647500	0.038900	0.047300
O1131	O113	0.241200	0.793500	0.018000
O1141	O114	0.173700	0.942300	0.250000
O1151	O115	0.164800	0.995600	0.048700
O1161	O116	0.738700	0.396800	0.355460
O1171	O117	0.826300	0.057700	0.750000
O1181	O118	0.326300	0.442300	0.250000
O1191	O119	0.957900	0.648100	0.048280
O1201	O120	0.258800	0.293500	0.018000
O1211	O121	0.542100	0.148100	0.451720
O1221	O122	0.863200	0.348900	0.617270
O1231	O123	0.261300	0.603200	0.644540
O1241	O124	0.745300	0.379700	0.950290
O1251	O125	0.670200	0.528500	0.142900
O1261	O126	0.528600	0.158300	0.849470
O1271	O127	0.121600	0.659000	0.983830
O1281	O128	0.755100	0.205600	0.179480
O1291	O129	0.835200	0.004400	0.548700
O1301	O130	0.267200	0.578800	0.250000
O1311	O131	0.829800	0.028500	0.357100
O1321	O132	0.329800	0.471500	0.857100
O1331	O133	0.761300	0.896800	0.144540
O1341	O134	0.233700	0.267000	0.282560
O1351	O135	0.254700	0.620300	0.049710
O1361	O136	0.351300	0.126300	0.317140
O1371	O137	0.351300	0.126300	0.182860
O1381	O138	0.621600	0.841000	0.483830
O1391	O139	0.215800	0.813100	0.082020
O1401	O140	0.542100	0.148100	0.048280
O1411	O141	0.356700	0.940500	0.750000
O1421	O142	0.643300	0.059500	0.250000
O1431	O143	0.164800	0.995600	0.451300
O1441	O144	0.261300	0.603200	0.855460
O1451	O145	0.754700	0.879700	0.549710
O1461	O146	0.758800	0.206500	0.982000
O1471	O147	0.646000	0.062400	0.852660
O1481	O148	0.636800	0.848900	0.617270
O1491	O149	0.354000	0.937600	0.147340
O1501	O150	0.377300	0.158700	0.917330
O1511	O151	0.471400	0.841700	0.349470
O1521	O152	0.254700	0.620300	0.450290
O1531	O153	0.244900	0.794400	0.679480
O1541	O154	0.143300	0.440500	0.750000
O1551	O155	0.266300	0.767000	0.217440
O1561	O156	0.378400	0.159000	0.983830
O1571	O157	0.745300	0.379700	0.549710
O1581	O158	0.146000	0.437600	0.147340
O1591	O159	0.971400	0.658300	0.650530
O1601	O160	0.673700	0.557700	0.750000
