data_HIYZEV01_clean_PM
_symmetry_space_group_name_H-M	'P1'
_cell_length_a	9.716000
_cell_length_b	12.193000
_cell_length_c	12.442300
_cell_angle_alpha	103.863000
_cell_angle_beta	112.124000
_cell_angle_gamma	107.280000
_symmetry_Int_Tables_number 1

loop_
_symmetry_equiv_pos_as_xyz
'x,y,z'

loop_
_atom_site_label
_atom_site_type_symbol
_atom_site_fract_x
_atom_site_fract_y
_atom_site_fract_z
Mn11	Mn1	0.215250	0.328730	0.123220
Mn21	Mn2	0.784750	0.671270	0.876780
Mn31	Mn3	0.000000	0.000000	0.000000
Mn41	Mn4	0.000000	0.500000	0.000000
H11	H1	0.475700	0.355100	0.512100
H21	H2	0.560800	0.151300	0.717300
H31	H3	0.348600	0.972300	0.546000
H41	H4	0.212200	0.982900	0.354400
H51	H5	0.679000	0.013100	0.847200
H61	H6	0.398000	0.898100	0.755100
H71	H7	0.246700	0.975900	0.828200
H81	H8	0.653200	0.297600	0.068500
H91	H9	0.524300	0.644900	0.487900
H101	H10	0.439200	0.848700	0.282700
H111	H11	0.651400	0.027700	0.454000
H121	H12	0.787800	0.017100	0.645600
H131	H13	0.321000	0.986900	0.152800
H141	H14	0.602000	0.101900	0.244900
H151	H15	0.753300	0.024100	0.171800
H161	H16	0.346800	0.702400	0.931500
C11	C1	0.243100	0.172800	0.286000
C21	C2	0.331400	0.169400	0.412600
C31	C3	0.452900	0.277800	0.518100
C41	C4	0.539900	0.271100	0.632000
C51	C5	0.502000	0.156300	0.641400
C61	C6	0.376800	0.048900	0.538400
C71	C7	0.294000	0.055700	0.424200
C81	C8	0.876100	0.241000	0.025900
C91	C9	0.694500	0.166500	0.967600
C101	C10	0.617400	0.046600	0.873900
C111	C11	0.449600	0.976900	0.820100
C121	C12	0.359000	0.023900	0.862800
C131	C13	0.435100	0.143500	0.957900
C141	C14	0.603000	0.216200	0.008200
C151	C15	0.673500	0.386900	0.746500
C161	C16	0.338300	0.190700	0.009500
C171	C17	0.756900	0.827200	0.714000
C181	C18	0.668600	0.830600	0.587400
C191	C19	0.547100	0.722200	0.481900
C201	C20	0.460100	0.728900	0.368000
C211	C21	0.498000	0.843700	0.358600
C221	C22	0.623200	0.951100	0.461600
C231	C23	0.706000	0.944300	0.575800
C241	C24	0.123900	0.759000	0.974100
C251	C25	0.305500	0.833500	0.032400
C261	C26	0.382600	0.953400	0.126100
C271	C27	0.550400	0.023100	0.179900
C281	C28	0.641000	0.976100	0.137200
C291	C29	0.564900	0.856500	0.042100
C301	C30	0.397000	0.783800	0.991800
C311	C31	0.326500	0.613100	0.253500
C321	C32	0.661700	0.809300	0.990500
O11	O1	0.282300	0.276750	0.278100
O21	O2	0.136930	0.069650	0.196630
O31	O3	0.963870	0.183500	0.020270
O41	O4	0.939910	0.358610	0.080010
O51	O5	0.786510	0.374970	0.827110
O61	O6	0.661050	0.487380	0.751650
O71	O7	0.396700	0.305300	0.075400
O81	O8	0.201200	0.113900	0.984500
O91	O9	0.717700	0.723250	0.721900
O101	O10	0.863070	0.930350	0.803370
O111	O11	0.036130	0.816500	0.979730
O121	O12	0.060090	0.641390	0.919990
O131	O13	0.213490	0.625030	0.172890
O141	O14	0.338950	0.512620	0.248350
O151	O15	0.603300	0.694700	0.924600
O161	O16	0.798800	0.886100	0.015500
