data_HIZQUD_clean_PM
_symmetry_space_group_name_H-M	'P1'
_cell_length_a	10.788500
_cell_length_b	13.658300
_cell_length_c	14.718800
_cell_angle_alpha	76.102800
_cell_angle_beta	68.501000
_cell_angle_gamma	66.737700
_symmetry_Int_Tables_number 1

loop_
_symmetry_equiv_pos_as_xyz
'x,y,z'

loop_
_atom_site_label
_atom_site_type_symbol
_atom_site_fract_x
_atom_site_fract_y
_atom_site_fract_z
Cd11	Cd1	0.995320	0.038700	0.612620
Cd21	Cd2	0.646640	0.461300	0.887380
Cd31	Cd3	0.004680	0.961300	0.387380
Cd41	Cd4	0.353360	0.538700	0.112620
Cd51	Cd5	0.718170	0.250000	0.750000
Cd61	Cd6	0.281830	0.750000	0.250000
H11	H1	0.455700	0.040700	0.909900
H21	H2	0.364500	0.908500	0.010100
H31	H3	0.687100	0.684600	0.845400
H41	H4	0.783300	0.815900	0.750300
H51	H5	0.144000	0.868500	0.895300
H61	H6	0.860300	0.164400	0.941000
H71	H7	0.406300	0.459300	0.590100
H81	H8	0.283100	0.591500	0.489900
H91	H9	0.217100	0.815400	0.654600
H101	H10	0.349500	0.684100	0.749700
H111	H11	0.907800	0.631500	0.604700
H121	H12	0.965700	0.335600	0.559000
H131	H13	0.544300	0.959300	0.090100
H141	H14	0.635500	0.091500	0.989900
H151	H15	0.312900	0.315400	0.154600
H161	H16	0.216700	0.184100	0.249700
H171	H17	0.856000	0.131500	0.104700
H181	H18	0.139700	0.835600	0.059000
H191	H19	0.593700	0.540700	0.409900
H201	H20	0.716900	0.408500	0.510100
H211	H21	0.782900	0.184600	0.345400
H221	H22	0.650500	0.315900	0.250300
H231	H23	0.092200	0.368500	0.395300
H241	H24	0.034300	0.664400	0.441000
C11	C1	0.695170	0.024150	0.761310
C21	C2	0.628920	0.941090	0.821270
C31	C3	0.504340	0.967920	0.897600
C41	C4	0.449140	0.889370	0.956750
C51	C5	0.517630	0.783460	0.937880
C61	C6	0.640810	0.756910	0.859870
C71	C7	0.697310	0.835240	0.802540
C81	C8	0.460450	0.698730	0.001910
C91	C9	0.001870	0.038400	0.797860
C101	C10	0.002020	0.019220	0.902340
C111	C11	0.084820	0.922440	0.937920
C121	C12	0.917430	0.096970	0.964770
C131	C13	0.480630	0.475850	0.738690
C141	C14	0.391280	0.558910	0.678730
C151	C15	0.369860	0.532080	0.602400
C161	C16	0.295260	0.610630	0.543250
C171	C17	0.238970	0.716540	0.562120
C181	C18	0.257590	0.743090	0.640130
C191	C19	0.335090	0.664760	0.697460
C201	C20	0.161090	0.801270	0.498090
C211	C21	0.838130	0.461600	0.702140
C221	C22	0.923580	0.480780	0.597660
C231	C23	0.945180	0.577560	0.562080
C241	C24	0.979170	0.403030	0.535230
C251	C25	0.304830	0.975850	0.238690
C261	C26	0.371080	0.058910	0.178730
C271	C27	0.495660	0.032080	0.102400
C281	C28	0.550860	0.110630	0.043250
C291	C29	0.482370	0.216540	0.062120
C301	C30	0.359190	0.243090	0.140130
C311	C31	0.302690	0.164760	0.197460
C321	C32	0.539550	0.301270	0.998090
C331	C33	0.998130	0.961600	0.202140
C341	C34	0.997980	0.980780	0.097660
C351	C35	0.915180	0.077560	0.062080
C361	C36	0.082570	0.903030	0.035230
C371	C37	0.519370	0.524150	0.261310
C381	C38	0.608720	0.441090	0.321270
C391	C39	0.630140	0.467920	0.397600
C401	C40	0.704740	0.389370	0.456750
C411	C41	0.761030	0.283460	0.437880
C421	C42	0.742410	0.256910	0.359870
C431	C43	0.664910	0.335240	0.302540
C441	C44	0.838910	0.198730	0.501910
C451	C45	0.161870	0.538400	0.297860
C461	C46	0.076420	0.519220	0.402340
C471	C47	0.054820	0.422440	0.437920
C481	C48	0.020830	0.596970	0.464770
O11	O1	0.636550	0.116570	0.787910
O21	O2	0.802790	0.993730	0.691090
O31	O3	0.362990	0.720060	0.081460
O41	O4	0.507770	0.606720	0.974820
O51	O5	0.932010	0.128640	0.764840
O61	O6	0.073700	0.963270	0.745730
O71	O7	0.541030	0.383430	0.712090
O81	O8	0.487610	0.506270	0.808910
O91	O9	0.164510	0.779940	0.418540
O101	O10	0.089310	0.893280	0.525180
O111	O11	0.825490	0.371360	0.735160
O121	O12	0.782700	0.536730	0.754270
O131	O13	0.363450	0.883430	0.212090
O141	O14	0.197210	0.006270	0.308910
O151	O15	0.637010	0.279940	0.918540
O161	O16	0.492230	0.393280	0.025180
O171	O17	0.067990	0.871360	0.235160
O181	O18	0.926300	0.036730	0.254270
O191	O19	0.458970	0.616570	0.287910
O201	O20	0.512390	0.493730	0.191090
O211	O21	0.835490	0.220060	0.581460
O221	O22	0.910690	0.106720	0.474820
O231	O23	0.174510	0.628640	0.264840
O241	O24	0.217300	0.463270	0.245730
