data_HIZQEN_clean_PM
_symmetry_space_group_name_H-M	'P1'
_cell_length_a	7.452300
_cell_length_b	9.776400
_cell_length_c	9.846900
_cell_angle_alpha	118.255000
_cell_angle_beta	102.118000
_cell_angle_gamma	91.358000
_symmetry_Int_Tables_number 1

loop_
_symmetry_equiv_pos_as_xyz
'x,y,z'

loop_
_atom_site_label
_atom_site_type_symbol
_atom_site_fract_x
_atom_site_fract_y
_atom_site_fract_z
Cd11	Cd1	0.762140	0.026220	0.515700
Cd21	Cd2	0.237860	0.973780	0.484300
H11	H1	0.826000	0.200300	0.121600
H21	H2	0.068600	0.825000	0.096500
H31	H3	0.273700	0.303300	0.785300
H41	H4	0.814300	0.485600	0.009400
H51	H5	0.174000	0.799700	0.878400
H61	H6	0.931400	0.175000	0.903500
H71	H7	0.726300	0.696700	0.214700
H81	H8	0.185700	0.514400	0.990600
C11	C1	0.873500	0.032200	0.271300
C21	C2	0.937000	0.013900	0.129100
C31	C3	0.896300	0.119000	0.072300
C41	C4	0.040500	0.896000	0.057300
C51	C5	0.613600	0.242300	0.745700
C61	C6	0.553500	0.374200	0.878300
C71	C7	0.365300	0.382900	0.872300
C81	C8	0.686500	0.491600	0.005900
C91	C9	0.126500	0.967800	0.728700
C101	C10	0.063000	0.986100	0.870900
C111	C11	0.103700	0.881000	0.927700
C121	C12	0.959500	0.104000	0.942700
C131	C13	0.386400	0.757700	0.254300
C141	C14	0.446500	0.625800	0.121700
C151	C15	0.634700	0.617100	0.127700
C161	C16	0.313500	0.508400	0.994100
O11	O1	0.767900	0.129000	0.328000
O21	O2	0.930400	0.943700	0.329600
O31	O3	0.520700	0.106100	0.672900
O41	O4	0.759100	0.270200	0.712600
O51	O5	0.232100	0.871000	0.672000
O61	O6	0.069600	0.056300	0.670400
O71	O7	0.479300	0.893900	0.327100
O81	O8	0.240900	0.729800	0.287400
