data_HOBGAH_clean_PM
_symmetry_space_group_name_H-M	'P1'
_cell_length_a	27.837000
_cell_length_b	9.892000
_cell_length_c	10.446000
_cell_angle_alpha	90.000000
_cell_angle_beta	90.000000
_cell_angle_gamma	90.000000
_symmetry_Int_Tables_number 1

loop_
_symmetry_equiv_pos_as_xyz
'x,y,z'

loop_
_atom_site_label
_atom_site_type_symbol
_atom_site_fract_x
_atom_site_fract_y
_atom_site_fract_z
Ni11	Ni1	0.723400	0.155390	0.478700
O11	O1	0.753740	0.156500	0.802440
Ni21	Ni2	0.781810	0.164360	0.990580
O21	O2	0.700450	0.100000	0.655830
N11	N1	0.712940	0.208600	0.043630
H11	H1	0.710900	0.219700	0.130900
H21	H2	0.702600	0.286600	0.004400
O31	O3	0.757490	0.971980	0.025990
O41	O4	0.689510	0.855890	0.026480
O51	O5	0.811910	0.172900	0.179240
O61	O6	0.746050	0.202870	0.295980
O71	O7	0.758910	0.971760	0.454900
O81	O8	0.817580	0.827740	0.497400
N21	N2	0.790370	0.233400	0.511950
H31	H3	0.789300	0.326400	0.514200
H41	H4	0.802300	0.202600	0.588800
N31	N3	0.661200	0.060100	0.411180
C11	C1	0.619520	0.066100	0.471300
H51	H5	0.617000	0.124100	0.543500
C21	C2	0.580140	0.994900	0.436400
H61	H6	0.551000	0.004300	0.482900
C31	C3	0.582660	0.907600	0.331700
C41	C4	0.625700	0.900000	0.265900
H71	H7	0.629100	0.844300	0.192400
C51	C5	0.663660	0.976600	0.311200
H81	H8	0.693600	0.969300	0.268000
C61	C6	0.540640	0.830100	0.285900
C71	C7	0.511390	0.758500	0.374600
H91	H9	0.518100	0.763600	0.463600
C81	C8	0.473320	0.681500	0.331700
H101	H10	0.455000	0.630800	0.391500
C91	C9	0.461570	0.676800	0.206000
C101	C10	0.489730	0.742400	0.119700
H111	H11	0.482200	0.738700	0.031000
C111	C11	0.529450	0.814600	0.161500
H121	H12	0.549800	0.855000	0.099300
C121	C12	0.420840	0.592300	0.163500
C131	C13	0.378590	0.584900	0.225700
H131	H13	0.374700	0.636600	0.301700
C141	C14	0.340920	0.507100	0.185400
H141	H14	0.311900	0.508000	0.233400
N41	N4	0.343510	0.430000	0.081200
C151	C15	0.383730	0.433900	0.016700
H151	H15	0.386400	0.380800	0.941200
C161	C16	0.422270	0.511300	0.053300
H161	H16	0.450600	0.510100	0.002700
C171	C17	0.712800	0.122800	0.768000
C181	C18	0.671930	0.106900	0.860100
H171	H17	0.653300	0.026200	0.834400
H181	H18	0.650500	0.186200	0.850300
C191	C19	0.684220	0.092800	0.002100
H191	H19	0.653900	0.088500	0.053400
C201	C20	0.712980	0.962200	0.021200
C211	C21	0.790730	0.187300	0.283000
C221	C22	0.820880	0.186800	0.404700
H201	H20	0.848400	0.250700	0.394000
C231	C23	0.840170	0.046600	0.430500
H211	H21	0.863600	0.052000	0.501500
H221	H22	0.857600	0.015100	0.353500
C241	C24	0.802310	0.942200	0.464700
Ni31	Ni3	0.276600	0.844610	0.478700
O91	O9	0.246260	0.843500	0.802440
Ni41	Ni4	0.218190	0.835640	0.990580
O101	O10	0.299550	0.900000	0.655830
N51	N5	0.287060	0.791400	0.043630
H231	H23	0.289100	0.780300	0.130900
H241	H24	0.297400	0.713400	0.004400
O111	O11	0.242510	0.028020	0.025990
O121	O12	0.310490	0.144110	0.026480
O131	O13	0.188090	0.827100	0.179240
O141	O14	0.253950	0.797130	0.295980
O151	O15	0.241090	0.028240	0.454900
O161	O16	0.182420	0.172260	0.497400
N61	N6	0.209630	0.766600	0.511950
H251	H25	0.210700	0.673600	0.514200
H261	H26	0.197700	0.797400	0.588800
N71	N7	0.338800	0.939900	0.411180
C251	C25	0.380480	0.933900	0.471300
H271	H27	0.383000	0.875900	0.543500
C261	C26	0.419860	0.005100	0.436400
H281	H28	0.449000	0.995700	0.482900
C271	C27	0.417340	0.092400	0.331700
C281	C28	0.374300	0.100000	0.265900
H291	H29	0.370900	0.155700	0.192400
C291	C29	0.336340	0.023400	0.311200
H301	H30	0.306400	0.030700	0.268000
C301	C30	0.459360	0.169900	0.285900
C311	C31	0.488610	0.241500	0.374600
H311	H31	0.481900	0.236400	0.463600
C321	C32	0.526680	0.318500	0.331700
H321	H32	0.545000	0.369200	0.391500
C331	C33	0.538430	0.323200	0.206000
C341	C34	0.510270	0.257600	0.119700
H331	H33	0.517800	0.261300	0.031000
C351	C35	0.470550	0.185400	0.161500
H341	H34	0.450200	0.145000	0.099300
C361	C36	0.579160	0.407700	0.163500
C371	C37	0.621410	0.415100	0.225700
H351	H35	0.625300	0.363400	0.301700
C381	C38	0.659080	0.492900	0.185400
H361	H36	0.688100	0.492000	0.233400
N81	N8	0.656490	0.570000	0.081200
C391	C39	0.616270	0.566100	0.016700
H371	H37	0.613600	0.619200	0.941200
C401	C40	0.577730	0.488700	0.053300
H381	H38	0.549400	0.489900	0.002700
C411	C41	0.287200	0.877200	0.768000
C421	C42	0.328070	0.893100	0.860100
H391	H39	0.346700	0.973800	0.834400
H401	H40	0.349500	0.813800	0.850300
C431	C43	0.315780	0.907200	0.002100
H411	H41	0.346100	0.911500	0.053400
C441	C44	0.287020	0.037800	0.021200
C451	C45	0.209270	0.812700	0.283000
C461	C46	0.179120	0.813200	0.404700
H421	H42	0.151600	0.749300	0.394000
C471	C47	0.159830	0.953400	0.430500
H431	H43	0.136400	0.948000	0.501500
H441	H44	0.142400	0.984900	0.353500
C481	C48	0.197690	0.057800	0.464700
Ni51	Ni5	0.776600	0.655390	0.521300
O171	O17	0.746260	0.656500	0.197560
Ni61	Ni6	0.718190	0.664360	0.009420
O181	O18	0.799550	0.600000	0.344170
N91	N9	0.787060	0.708600	0.956370
H451	H45	0.789100	0.719700	0.869100
H461	H46	0.797400	0.786600	0.995600
O191	O19	0.742510	0.471980	0.974010
O201	O20	0.810490	0.355890	0.973520
O211	O21	0.688090	0.672900	0.820760
O221	O22	0.753950	0.702870	0.704020
O231	O23	0.741090	0.471760	0.545100
O241	O24	0.682420	0.327740	0.502600
N101	N10	0.709630	0.733400	0.488050
H471	H47	0.710700	0.826400	0.485800
H481	H48	0.697700	0.702600	0.411200
N111	N11	0.838800	0.560100	0.588820
C491	C49	0.880480	0.566100	0.528700
H491	H49	0.883000	0.624100	0.456500
C501	C50	0.919860	0.494900	0.563600
H501	H50	0.949000	0.504300	0.517100
C511	C51	0.917340	0.407600	0.668300
C521	C52	0.874300	0.400000	0.734100
H511	H51	0.870900	0.344300	0.807600
C531	C53	0.836340	0.476600	0.688800
H521	H52	0.806400	0.469300	0.732000
C541	C54	0.959360	0.330100	0.714100
C551	C55	0.988610	0.258500	0.625400
H531	H53	0.981900	0.263600	0.536400
C561	C56	0.026680	0.181500	0.668300
H541	H54	0.045000	0.130800	0.608500
C571	C57	0.038430	0.176800	0.794000
C581	C58	0.010270	0.242400	0.880300
H551	H55	0.017800	0.238700	0.969000
C591	C59	0.970550	0.314600	0.838500
H561	H56	0.950200	0.355000	0.900700
C601	C60	0.079160	0.092300	0.836500
C611	C61	0.121410	0.084900	0.774300
H571	H57	0.125300	0.136600	0.698300
C621	C62	0.159080	0.007100	0.814600
H581	H58	0.188100	0.008000	0.766600
N121	N12	0.156490	0.930000	0.918800
C631	C63	0.116270	0.933900	0.983300
H591	H59	0.113600	0.880800	0.058800
C641	C64	0.077730	0.011300	0.946700
H601	H60	0.049400	0.010100	0.997300
C651	C65	0.787200	0.622800	0.232000
C661	C66	0.828070	0.606900	0.139900
H611	H61	0.846700	0.526200	0.165600
H621	H62	0.849500	0.686200	0.149700
C671	C67	0.815780	0.592800	0.997900
H631	H63	0.846100	0.588500	0.946600
C681	C68	0.787020	0.462200	0.978800
C691	C69	0.709270	0.687300	0.717000
C701	C70	0.679120	0.686800	0.595300
H641	H64	0.651600	0.750700	0.606000
C711	C71	0.659830	0.546600	0.569500
H651	H65	0.636400	0.552000	0.498500
H661	H66	0.642400	0.515100	0.646500
C721	C72	0.697690	0.442200	0.535300
Ni71	Ni7	0.223400	0.344610	0.521300
O251	O25	0.253740	0.343500	0.197560
Ni81	Ni8	0.281810	0.335640	0.009420
O261	O26	0.200450	0.400000	0.344170
N131	N13	0.212940	0.291400	0.956370
H671	H67	0.210900	0.280300	0.869100
H681	H68	0.202600	0.213400	0.995600
O271	O27	0.257490	0.528020	0.974010
O281	O28	0.189510	0.644110	0.973520
O291	O29	0.311910	0.327100	0.820760
O301	O30	0.246050	0.297130	0.704020
O311	O31	0.258910	0.528240	0.545100
O321	O32	0.317580	0.672260	0.502600
N141	N14	0.290370	0.266600	0.488050
H691	H69	0.289300	0.173600	0.485800
H701	H70	0.302300	0.297400	0.411200
N151	N15	0.161200	0.439900	0.588820
C731	C73	0.119520	0.433900	0.528700
H711	H71	0.117000	0.375900	0.456500
C741	C74	0.080140	0.505100	0.563600
H721	H72	0.051000	0.495700	0.517100
C751	C75	0.082660	0.592400	0.668300
C761	C76	0.125700	0.600000	0.734100
H731	H73	0.129100	0.655700	0.807600
C771	C77	0.163660	0.523400	0.688800
H741	H74	0.193600	0.530700	0.732000
C781	C78	0.040640	0.669900	0.714100
C791	C79	0.011390	0.741500	0.625400
H751	H75	0.018100	0.736400	0.536400
C801	C80	0.973320	0.818500	0.668300
H761	H76	0.955000	0.869200	0.608500
C811	C81	0.961570	0.823200	0.794000
C821	C82	0.989730	0.757600	0.880300
H771	H77	0.982200	0.761300	0.969000
C831	C83	0.029450	0.685400	0.838500
H781	H78	0.049800	0.645000	0.900700
C841	C84	0.920840	0.907700	0.836500
C851	C85	0.878590	0.915100	0.774300
H791	H79	0.874700	0.863400	0.698300
C861	C86	0.840920	0.992900	0.814600
H801	H80	0.811900	0.992000	0.766600
N161	N16	0.843510	0.070000	0.918800
C871	C87	0.883730	0.066100	0.983300
H811	H81	0.886400	0.119200	0.058800
C881	C88	0.922270	0.988700	0.946700
H821	H82	0.950600	0.989900	0.997300
C891	C89	0.212800	0.377200	0.232000
C901	C90	0.171930	0.393100	0.139900
H831	H83	0.153300	0.473800	0.165600
H841	H84	0.150500	0.313800	0.149700
C911	C91	0.184220	0.407200	0.997900
H851	H85	0.153900	0.411500	0.946600
C921	C92	0.212980	0.537800	0.978800
C931	C93	0.290730	0.312700	0.717000
C941	C94	0.320880	0.313200	0.595300
H861	H86	0.348400	0.249300	0.606000
C951	C95	0.340170	0.453400	0.569500
H871	H87	0.363600	0.448000	0.498500
H881	H88	0.357600	0.484900	0.646500
C961	C96	0.302310	0.557800	0.535300
