data_HOBGEL_clean_PM
_symmetry_space_group_name_H-M	'P1'
_cell_length_a	30.840000
_cell_length_b	6.574000
_cell_length_c	7.704000
_cell_angle_alpha	90.000000
_cell_angle_beta	101.557000
_cell_angle_gamma	90.000000
_symmetry_Int_Tables_number 1

loop_
_symmetry_equiv_pos_as_xyz
'x,y,z'

loop_
_atom_site_label
_atom_site_type_symbol
_atom_site_fract_x
_atom_site_fract_y
_atom_site_fract_z
Ni11	Ni1	0.278640	0.268600	0.275780
O11	O1	0.306400	0.489500	0.458900
O21	O2	0.307800	0.409500	0.091600
C11	C1	0.378700	0.793900	0.336300
H11	H1	0.379100	0.659600	0.291100
O31	O3	0.249900	0.546900	0.910200
O41	O4	0.245500	0.623600	0.529100
C21	C2	0.373600	0.173600	0.457800
H21	H2	0.372000	0.307800	0.501700
C31	C3	0.459900	0.769000	0.467900
N11	N1	0.336400	0.096700	0.350900
C41	C4	0.339700	0.907600	0.300900
H31	H3	0.313800	0.843700	0.236200
C51	C5	0.416300	0.876200	0.436400
C61	C6	0.412600	0.073200	0.506100
H41	H4	0.436900	0.133700	0.584800
N21	N2	0.284500	0.891000	0.768800
H51	H5	0.285100	0.008500	0.704300
H61	H6	0.294300	0.919800	0.887000
C71	C7	0.313100	0.725000	0.707600
H71	H7	0.339500	0.787900	0.671500
C81	C8	0.286100	0.600400	0.552600
C91	C9	0.461800	0.561400	0.473000
H81	H8	0.434700	0.488300	0.456600
C101	C10	0.290200	0.515600	0.963000
C111	C11	0.327300	0.586000	0.860700
H91	H9	0.351100	0.654300	0.946500
H101	H10	0.340400	0.463100	0.817500
Ni21	Ni2	0.778640	0.768600	0.275780
O51	O5	0.806400	0.989500	0.458900
O61	O6	0.807800	0.909500	0.091600
C121	C12	0.878700	0.293900	0.336300
H111	H11	0.879100	0.159600	0.291100
O71	O7	0.749900	0.046900	0.910200
O81	O8	0.745500	0.123600	0.529100
C131	C13	0.873600	0.673600	0.457800
H121	H12	0.872000	0.807800	0.501700
C141	C14	0.959900	0.269000	0.467900
N31	N3	0.836400	0.596700	0.350900
C151	C15	0.839700	0.407600	0.300900
H131	H13	0.813800	0.343700	0.236200
C161	C16	0.916300	0.376200	0.436400
C171	C17	0.912600	0.573200	0.506100
H141	H14	0.936900	0.633700	0.584800
N41	N4	0.784500	0.391000	0.768800
H151	H15	0.785100	0.508500	0.704300
H161	H16	0.794300	0.419800	0.887000
C181	C18	0.813100	0.225000	0.707600
H171	H17	0.839500	0.287900	0.671500
C191	C19	0.786100	0.100400	0.552600
C201	C20	0.961800	0.061400	0.473000
H181	H18	0.934700	0.988300	0.456600
C211	C21	0.790200	0.015600	0.963000
C221	C22	0.827300	0.086000	0.860700
H191	H19	0.851100	0.154300	0.946500
H201	H20	0.840400	0.963100	0.817500
Ni31	Ni3	0.721360	0.268600	0.724220
O91	O9	0.693600	0.489500	0.541100
O101	O10	0.692200	0.409500	0.908400
C231	C23	0.621300	0.793900	0.663700
H211	H21	0.620900	0.659600	0.708900
O111	O11	0.750100	0.546900	0.089800
O121	O12	0.754500	0.623600	0.470900
C241	C24	0.626400	0.173600	0.542200
H221	H22	0.628000	0.307800	0.498300
C251	C25	0.540100	0.769000	0.532100
N51	N5	0.663600	0.096700	0.649100
C261	C26	0.660300	0.907600	0.699100
H231	H23	0.686200	0.843700	0.763800
C271	C27	0.583700	0.876200	0.563600
C281	C28	0.587400	0.073200	0.493900
H241	H24	0.563100	0.133700	0.415200
N61	N6	0.715500	0.891000	0.231200
H251	H25	0.714900	0.008500	0.295700
H261	H26	0.705700	0.919800	0.113000
C291	C29	0.686900	0.725000	0.292400
H271	H27	0.660500	0.787900	0.328500
C301	C30	0.713900	0.600400	0.447400
C311	C31	0.538200	0.561400	0.527000
H281	H28	0.565300	0.488300	0.543400
C321	C32	0.709800	0.515600	0.037000
C331	C33	0.672700	0.586000	0.139300
H291	H29	0.648900	0.654300	0.053500
H301	H30	0.659600	0.463100	0.182500
Ni41	Ni4	0.221360	0.768600	0.724220
O131	O13	0.193600	0.989500	0.541100
O141	O14	0.192200	0.909500	0.908400
C341	C34	0.121300	0.293900	0.663700
H311	H31	0.120900	0.159600	0.708900
O151	O15	0.250100	0.046900	0.089800
O161	O16	0.254500	0.123600	0.470900
C351	C35	0.126400	0.673600	0.542200
H321	H32	0.128000	0.807800	0.498300
C361	C36	0.040100	0.269000	0.532100
N71	N7	0.163600	0.596700	0.649100
C371	C37	0.160300	0.407600	0.699100
H331	H33	0.186200	0.343700	0.763800
C381	C38	0.083700	0.376200	0.563600
C391	C39	0.087400	0.573200	0.493900
H341	H34	0.063100	0.633700	0.415200
N81	N8	0.215500	0.391000	0.231200
H351	H35	0.214900	0.508500	0.295700
H361	H36	0.205700	0.419800	0.113000
C401	C40	0.186900	0.225000	0.292400
H371	H37	0.160500	0.287900	0.328500
C411	C41	0.213900	0.100400	0.447400
C421	C42	0.038200	0.061400	0.527000
H381	H38	0.065300	0.988300	0.543400
C431	C43	0.209800	0.015600	0.037000
C441	C44	0.172700	0.086000	0.139300
H391	H39	0.148900	0.154300	0.053500
H401	H40	0.159600	0.963100	0.182500
N91	N9	0.500000	0.454000	0.500000
C451	C45	0.500000	0.875000	0.500000
H411	H41	0.500000	0.019600	0.500000
N101	N10	0.000000	0.954000	0.500000
C461	C46	0.000000	0.375000	0.500000
H421	H42	0.000000	0.519600	0.500000
