data_HOFSUS_clean_PM
_symmetry_space_group_name_H-M	'P1'
_cell_length_a	8.902000
_cell_length_b	11.887000
_cell_length_c	14.757000
_cell_angle_alpha	90.000000
_cell_angle_beta	90.000000
_cell_angle_gamma	90.000000
_symmetry_Int_Tables_number 1

loop_
_symmetry_equiv_pos_as_xyz
'x,y,z'

loop_
_atom_site_label
_atom_site_type_symbol
_atom_site_fract_x
_atom_site_fract_y
_atom_site_fract_z
Zn11	Zn1	0.203580	0.600870	0.612560
Zn21	Zn2	0.296420	0.399130	0.112560
Zn31	Zn3	0.703580	0.899130	0.387440
Zn41	Zn4	0.796420	0.100870	0.887440
H11	H1	0.024200	0.015000	0.154400
H21	H2	0.524200	0.485000	0.845600
H31	H3	0.573000	0.260300	0.230100
H41	H4	0.927000	0.739700	0.730100
H51	H5	0.632100	0.884100	0.181100
H61	H6	0.396400	0.637800	0.151300
H71	H7	0.598100	0.999200	0.060100
H81	H8	0.901900	0.000800	0.560100
H91	H9	0.367900	0.384100	0.318900
H101	H10	0.401900	0.499200	0.439900
H111	H11	0.867900	0.115900	0.681100
H121	H12	0.132100	0.615900	0.818900
H131	H13	0.975800	0.515000	0.345600
H141	H14	0.475800	0.985000	0.654400
H151	H15	0.896400	0.862200	0.848700
H161	H16	0.427000	0.760300	0.269900
H171	H17	0.603600	0.137800	0.348700
H181	H18	0.103600	0.362200	0.651300
H191	H19	0.073000	0.239700	0.769900
H201	H20	0.098100	0.500800	0.939900
C11	C1	0.957900	0.019900	0.043030
C21	C2	0.620200	0.960700	0.191300
C31	C3	0.895900	0.890500	0.789900
C41	C4	0.604100	0.109500	0.289900
C51	C5	0.877300	0.696600	0.426870
C61	C6	0.413100	0.645300	0.369160
C71	C7	0.377300	0.803400	0.573130
C81	C8	0.586900	0.145300	0.130840
C91	C9	0.622700	0.303400	0.926870
C101	C10	0.086900	0.354700	0.869160
C111	C11	0.042100	0.519900	0.456970
C121	C12	0.101300	0.470600	0.881800
C131	C13	0.601300	0.029400	0.118200
C141	C14	0.120200	0.539300	0.808700
C151	C15	0.585900	0.183900	0.218600
C161	C16	0.085900	0.316100	0.781400
C171	C17	0.395900	0.609500	0.210100
C181	C18	0.542100	0.980100	0.543030
C191	C19	0.472800	0.871000	0.523070
C201	C20	0.972800	0.629000	0.476930
C211	C21	0.913100	0.854700	0.630840
C221	C22	0.457900	0.480100	0.956970
C231	C23	0.879800	0.039300	0.691300
C241	C24	0.423000	0.723700	0.446550
C251	C25	0.527200	0.371000	0.976930
C261	C26	0.122700	0.196600	0.073130
C271	C27	0.077000	0.276300	0.946550
C281	C28	0.914100	0.816100	0.718600
C291	C29	0.815100	0.683500	0.334020
C301	C30	0.577000	0.223700	0.053450
C311	C31	0.923000	0.776300	0.553450
C321	C32	0.414100	0.683900	0.281400
C331	C33	0.184900	0.183500	0.165980
C341	C34	0.104100	0.390500	0.710100
C351	C35	0.684900	0.316500	0.834020
C361	C36	0.379800	0.460700	0.308700
C371	C37	0.898700	0.970600	0.618200
C381	C38	0.027200	0.129000	0.023070
C391	C39	0.315100	0.816500	0.665980
C401	C40	0.398700	0.529400	0.381800
N11	N1	0.843500	0.791000	0.476250
N21	N2	0.000500	0.679800	0.557290
N31	N3	0.500500	0.820200	0.442710
N41	N4	0.999500	0.179800	0.942710
N51	N5	0.377400	0.497900	0.222090
N61	N6	0.343500	0.709000	0.523750
N71	N7	0.122600	0.502100	0.722090
N81	N8	0.877400	0.002100	0.777910
N91	N9	0.656500	0.209000	0.976250
N101	N10	0.622600	0.997900	0.277910
N111	N11	0.156500	0.291000	0.023750
N121	N12	0.499500	0.320200	0.057290
O11	O1	0.492200	0.530920	0.882290
O21	O2	0.246500	0.736240	0.699340
O31	O3	0.338300	0.909500	0.705820
O41	O4	0.507800	0.030920	0.617710
O51	O5	0.661700	0.409500	0.794180
O61	O6	0.633600	0.019490	0.488070
O71	O7	0.133600	0.480510	0.511930
O81	O8	0.007800	0.469080	0.382290
O91	O9	0.753500	0.236240	0.800660
O101	O10	0.746500	0.763760	0.300660
O111	O11	0.161700	0.090500	0.205820
O121	O12	0.838300	0.590500	0.294180
O131	O13	0.253500	0.263760	0.199340
O141	O14	0.992200	0.969080	0.117710
O151	O15	0.866400	0.980510	0.988070
O161	O16	0.366400	0.519490	0.011930
