data_HOFSOL_clean_PM
_symmetry_space_group_name_H-M	'P1'
_cell_length_a	11.124000
_cell_length_b	15.709000
_cell_length_c	11.337000
_cell_angle_alpha	90.000000
_cell_angle_beta	106.480000
_cell_angle_gamma	90.000000
_symmetry_Int_Tables_number 1

loop_
_symmetry_equiv_pos_as_xyz
'x,y,z'

loop_
_atom_site_label
_atom_site_type_symbol
_atom_site_fract_x
_atom_site_fract_y
_atom_site_fract_z
Cu11	Cu1	0.761050	0.126960	0.033420
N11	N1	0.759700	0.207140	0.890000
N21	N2	0.765400	0.305090	0.685500
N31	N3	0.903000	0.049380	0.020400
N41	N4	0.604200	0.051760	0.009400
C11	C1	0.848500	0.263900	0.893800
H11	H1	0.911600	0.271300	0.967000
C21	C2	0.674200	0.200800	0.781100
H21	H2	0.609600	0.161600	0.772600
C31	C3	0.851000	0.312200	0.793700
H31	H3	0.915400	0.351600	0.802000
C41	C4	0.676500	0.248800	0.681500
H41	H4	0.613200	0.241600	0.608400
C51	C5	0.024000	0.066800	0.074600
H51	H5	0.044200	0.113200	0.127300
C61	C6	0.881100	0.981600	0.945100
H61	H6	0.798600	0.967000	0.904900
C71	C7	0.614600	0.972100	0.052700
H71	H7	0.694100	0.950500	0.090600
C81	C8	0.487700	0.078800	0.957000
H81	H8	0.475500	0.133900	0.926000
Cu21	Cu2	0.238950	0.626960	0.466580
N51	N5	0.240300	0.707140	0.610000
N61	N6	0.234600	0.805090	0.814500
N71	N7	0.097000	0.549380	0.479600
N81	N8	0.395800	0.551760	0.490600
C91	C9	0.151500	0.763900	0.606200
H91	H9	0.088400	0.771300	0.533000
C101	C10	0.325800	0.700800	0.718900
H101	H10	0.390400	0.661600	0.727400
C111	C11	0.149000	0.812200	0.706300
H111	H11	0.084600	0.851600	0.698000
C121	C12	0.323500	0.748800	0.818500
H121	H12	0.386800	0.741600	0.891600
C131	C13	0.976000	0.566800	0.425400
H131	H13	0.955800	0.613200	0.372700
C141	C14	0.118900	0.481600	0.554900
H141	H14	0.201400	0.467000	0.595100
C151	C15	0.385400	0.472100	0.447300
H151	H15	0.305900	0.450500	0.409400
C161	C16	0.512300	0.578800	0.543000
H161	H16	0.524500	0.633900	0.574000
Cu31	Cu3	0.238950	0.873040	0.966580
N91	N9	0.240300	0.792860	0.110000
N101	N10	0.234600	0.694910	0.314500
N111	N11	0.097000	0.950620	0.979600
N121	N12	0.395800	0.948240	0.990600
C171	C17	0.151500	0.736100	0.106200
H171	H17	0.088400	0.728700	0.033000
C181	C18	0.325800	0.799200	0.218900
H181	H18	0.390400	0.838400	0.227400
C191	C19	0.149000	0.687800	0.206300
H191	H19	0.084600	0.648400	0.198000
C201	C20	0.323500	0.751200	0.318500
H201	H20	0.386800	0.758400	0.391600
C211	C21	0.976000	0.933200	0.925400
H211	H21	0.955800	0.886800	0.872700
C221	C22	0.118900	0.018400	0.054900
H221	H22	0.201400	0.033000	0.095100
C231	C23	0.385400	0.027900	0.947300
H231	H23	0.305900	0.049500	0.909400
C241	C24	0.512300	0.921200	0.043000
H241	H24	0.524500	0.866100	0.074000
Cu41	Cu4	0.761050	0.373040	0.533420
N131	N13	0.759700	0.292860	0.390000
N141	N14	0.765400	0.194910	0.185500
N151	N15	0.903000	0.450620	0.520400
N161	N16	0.604200	0.448240	0.509400
C251	C25	0.848500	0.236100	0.393800
H251	H25	0.911600	0.228700	0.467000
C261	C26	0.674200	0.299200	0.281100
H261	H26	0.609600	0.338400	0.272600
C271	C27	0.851000	0.187800	0.293700
H271	H27	0.915400	0.148400	0.302000
C281	C28	0.676500	0.251200	0.181500
H281	H28	0.613200	0.258400	0.108400
C291	C29	0.024000	0.433200	0.574600
H291	H29	0.044200	0.386800	0.627300
C301	C30	0.881100	0.518400	0.445100
H301	H30	0.798600	0.533000	0.404900
C311	C31	0.614600	0.527900	0.552700
H311	H31	0.694100	0.549500	0.590600
C321	C32	0.487700	0.421200	0.457000
H321	H32	0.475500	0.366100	0.426000
