data_HOGJIX_clean_PM
_symmetry_space_group_name_H-M	'P1'
_cell_length_a	19.425300
_cell_length_b	19.425300
_cell_length_c	21.705000
_cell_angle_alpha	64.178900
_cell_angle_beta	64.178900
_cell_angle_gamma	60.619900
_symmetry_Int_Tables_number 1

loop_
_symmetry_equiv_pos_as_xyz
'x,y,z'

loop_
_atom_site_label
_atom_site_type_symbol
_atom_site_fract_x
_atom_site_fract_y
_atom_site_fract_z
Zn11	Zn1	0.302040	0.188010	0.312600
Zn21	Zn2	0.260910	0.275320	0.173110
Zn31	Zn3	0.820410	0.269860	0.180760
Zn41	Zn4	0.811990	0.697960	0.187400
Zn51	Zn5	0.724680	0.739090	0.326890
Zn61	Zn6	0.730140	0.179590	0.319240
Zn71	Zn7	0.697960	0.811990	0.687400
Zn81	Zn8	0.739090	0.724680	0.826890
Zn91	Zn9	0.179590	0.730140	0.819240
Zn101	Zn10	0.188010	0.302040	0.812600
Zn111	Zn11	0.275320	0.260910	0.673110
Zn121	Zn12	0.269860	0.820410	0.680760
H11	H1	0.132900	0.378300	0.408500
H21	H2	0.039700	0.485700	0.240100
H31	H3	0.920200	0.579000	0.409900
H41	H4	0.414100	0.414300	0.085500
H51	H5	0.625700	0.406100	0.089100
H61	H6	0.515200	0.251400	0.248700
H71	H7	0.136200	0.072000	0.401400
H81	H8	0.924700	0.074100	0.406700
H91	H9	0.046600	0.206000	0.230300
H101	H10	0.621700	0.867100	0.091500
H111	H11	0.514300	0.960300	0.259900
H121	H12	0.421000	0.079800	0.090100
H131	H13	0.585700	0.585900	0.414500
H141	H14	0.593900	0.374300	0.410900
H151	H15	0.748600	0.484800	0.251300
H161	H16	0.928000	0.863800	0.098600
H171	H17	0.925900	0.075300	0.093300
H181	H18	0.794000	0.953400	0.269700
H191	H19	0.867100	0.621700	0.591500
H201	H20	0.960300	0.514300	0.759900
H211	H21	0.079800	0.421000	0.590100
H221	H22	0.585900	0.585700	0.914500
H231	H23	0.374300	0.593900	0.910900
H241	H24	0.484800	0.748600	0.751300
H251	H25	0.863800	0.928000	0.598600
H261	H26	0.075300	0.925900	0.593300
H271	H27	0.953400	0.794000	0.769700
H281	H28	0.378300	0.132900	0.908500
H291	H29	0.485700	0.039700	0.740100
H301	H30	0.579000	0.920200	0.909900
H311	H31	0.414300	0.414100	0.585500
H321	H32	0.406100	0.625700	0.589100
H331	H33	0.251400	0.515200	0.748700
H341	H34	0.072000	0.136200	0.901400
H351	H35	0.074100	0.924700	0.906700
H361	H36	0.206000	0.046600	0.730300
C11	C1	0.165800	0.356580	0.285660
C21	C2	0.095610	0.422490	0.319580
C31	C3	0.091440	0.420020	0.385800
C41	C4	0.035620	0.483160	0.286190
C51	C5	0.026080	0.479120	0.419100
C61	C6	0.964720	0.539160	0.386800
C71	C7	0.968270	0.541230	0.321130
C81	C8	0.900770	0.605370	0.288050
C91	C9	0.390310	0.291490	0.201240
C101	C10	0.456430	0.325870	0.170490
C111	C11	0.456510	0.390710	0.107700
C121	C12	0.519950	0.420150	0.078500
C131	C13	0.582400	0.385800	0.110200
C141	C14	0.581760	0.321880	0.172510
C151	C15	0.517510	0.292990	0.204360
C161	C16	0.650680	0.283000	0.205630
C171	C17	0.169220	0.177400	0.276220
C181	C18	0.100810	0.146790	0.310510
C191	C19	0.094880	0.091280	0.379200
C201	C20	0.029850	0.064250	0.415000
C211	C21	0.969930	0.091730	0.382010
C221	C22	0.975790	0.144110	0.313870
C231	C23	0.041890	0.170890	0.277810
C241	C24	0.908180	0.175560	0.281200
C251	C25	0.643420	0.834200	0.214340
C261	C26	0.577510	0.904390	0.180420
C271	C27	0.579980	0.908560	0.114200
C281	C28	0.516840	0.964380	0.213810
C291	C29	0.520880	0.973920	0.080900
C301	C30	0.460840	0.035280	0.113200
C311	C31	0.458770	0.031730	0.178870
C321	C32	0.394630	0.099230	0.211950
C331	C33	0.708510	0.609690	0.298760
C341	C34	0.674130	0.543570	0.329510
C351	C35	0.609290	0.543490	0.392300
C361	C36	0.579850	0.480050	0.421500
C371	C37	0.614200	0.417600	0.389800
C381	C38	0.678120	0.418240	0.327490
C391	C39	0.707010	0.482490	0.295640
C401	C40	0.717000	0.349320	0.294370
C411	C41	0.822600	0.830780	0.223780
C421	C42	0.853210	0.899190	0.189490
C431	C43	0.908720	0.905120	0.120800
C441	C44	0.935750	0.970150	0.085000
C451	C45	0.908270	0.030070	0.117990
C461	C46	0.855890	0.024210	0.186130
C471	C47	0.829110	0.958110	0.222190
C481	C48	0.824440	0.091820	0.218800
C491	C49	0.834200	0.643420	0.714340
C501	C50	0.904390	0.577510	0.680420
C511	C51	0.908560	0.579980	0.614200
C521	C52	0.964380	0.516840	0.713810
C531	C53	0.973920	0.520880	0.580900
C541	C54	0.035280	0.460840	0.613200
C551	C55	0.031730	0.458770	0.678870
C561	C56	0.099230	0.394630	0.711950
C571	C57	0.609690	0.708510	0.798760
C581	C58	0.543570	0.674130	0.829510
C591	C59	0.543490	0.609290	0.892300
C601	C60	0.480050	0.579850	0.921500
C611	C61	0.417600	0.614200	0.889800
C621	C62	0.418240	0.678120	0.827490
C631	C63	0.482490	0.707010	0.795640
C641	C64	0.349320	0.717000	0.794370
C651	C65	0.830780	0.822600	0.723780
C661	C66	0.899190	0.853210	0.689490
C671	C67	0.905120	0.908720	0.620800
C681	C68	0.970150	0.935750	0.585000
C691	C69	0.030070	0.908270	0.617990
C701	C70	0.024210	0.855890	0.686130
C711	C71	0.958110	0.829110	0.722190
C721	C72	0.091820	0.824440	0.718800
C731	C73	0.356580	0.165800	0.785660
C741	C74	0.422490	0.095610	0.819580
C751	C75	0.420020	0.091440	0.885800
C761	C76	0.483160	0.035620	0.786190
C771	C77	0.479120	0.026080	0.919100
C781	C78	0.539160	0.964720	0.886800
C791	C79	0.541230	0.968270	0.821130
C801	C80	0.605370	0.900770	0.788050
C811	C81	0.291490	0.390310	0.701240
C821	C82	0.325870	0.456430	0.670490
C831	C83	0.390710	0.456510	0.607700
C841	C84	0.420150	0.519950	0.578500
C851	C85	0.385800	0.582400	0.610200
C861	C86	0.321880	0.581760	0.672510
C871	C87	0.292990	0.517510	0.704360
C881	C88	0.283000	0.650680	0.705630
C891	C89	0.177400	0.169220	0.776220
C901	C90	0.146790	0.100810	0.810510
C911	C91	0.091280	0.094880	0.879200
C921	C92	0.064250	0.029850	0.915000
C931	C93	0.091730	0.969930	0.882010
C941	C94	0.144110	0.975790	0.813870
C951	C95	0.170890	0.041890	0.777810
C961	C96	0.175560	0.908180	0.781200
N11	N1	0.028410	0.473210	0.486300
N21	N2	0.525970	0.486970	0.014400
N31	N3	0.029910	0.009510	0.484790
N41	N4	0.526790	0.971590	0.013700
N51	N5	0.513030	0.474030	0.485600
N61	N6	0.990490	0.970090	0.015210
N71	N7	0.971590	0.526790	0.513700
N81	N8	0.474030	0.513030	0.985600
N91	N9	0.970090	0.990490	0.515210
N101	N10	0.473210	0.028410	0.986300
N111	N11	0.486970	0.525970	0.514400
N121	N12	0.009510	0.029910	0.984790
O11	O1	0.213840	0.300380	0.322250
O21	O2	0.170080	0.361420	0.224610
O31	O3	0.910830	0.612670	0.224420
O41	O4	0.837510	0.645770	0.327790
O51	O5	0.387690	0.238790	0.262370
O61	O6	0.343750	0.317010	0.163590
O71	O7	0.210940	0.160900	0.315100
O81	O8	0.177860	0.221200	0.211480
O91	O9	0.708290	0.309470	0.170700
O101	O10	0.646360	0.227260	0.264080
O111	O11	0.919750	0.216690	0.216210
O121	O12	0.844670	0.159430	0.321340
O131	O13	0.699620	0.786160	0.177750
O141	O14	0.638580	0.829920	0.275390
O151	O15	0.387330	0.089170	0.275580
O161	O16	0.354230	0.162490	0.172210
O171	O17	0.761210	0.612310	0.237630
O181	O18	0.682990	0.656250	0.336410
O191	O19	0.839100	0.789060	0.184900
O201	O20	0.778800	0.822140	0.288520
O211	O21	0.690530	0.291710	0.329300
O221	O22	0.772740	0.353640	0.235920
O231	O23	0.783310	0.080250	0.283790
O241	O24	0.840570	0.155330	0.178660
O251	O25	0.786160	0.699620	0.677750
O261	O26	0.829920	0.638580	0.775390
O271	O27	0.089170	0.387330	0.775580
O281	O28	0.162490	0.354230	0.672210
O291	O29	0.612310	0.761210	0.737630
O301	O30	0.656250	0.682990	0.836410
O311	O31	0.789060	0.839100	0.684900
O321	O32	0.822140	0.778800	0.788520
O331	O33	0.291710	0.690530	0.829300
O341	O34	0.353640	0.772740	0.735920
O351	O35	0.080250	0.783310	0.783790
O361	O36	0.155330	0.840570	0.678660
O371	O37	0.300380	0.213840	0.822250
O381	O38	0.361420	0.170080	0.724610
O391	O39	0.612670	0.910830	0.724420
O401	O40	0.645770	0.837510	0.827790
O411	O41	0.238790	0.387690	0.762370
O421	O42	0.317010	0.343750	0.663590
O431	O43	0.160900	0.210940	0.815100
O441	O44	0.221200	0.177860	0.711480
O451	O45	0.309470	0.708290	0.670700
O461	O46	0.227260	0.646360	0.764080
O471	O47	0.216690	0.919750	0.716210
O481	O48	0.159430	0.844670	0.821340
