data_HOGLEV_clean_PM
_symmetry_space_group_name_H-M	'P1'
_cell_length_a	22.627000
_cell_length_b	32.868000
_cell_length_c	32.868000
_cell_angle_alpha	90.000000
_cell_angle_beta	90.000000
_cell_angle_gamma	90.000000
_symmetry_Int_Tables_number 1

loop_
_symmetry_equiv_pos_as_xyz
'x,y,z'

loop_
_atom_site_label
_atom_site_type_symbol
_atom_site_fract_x
_atom_site_fract_y
_atom_site_fract_z
Cu11	Cu1	0.750190	0.829860	0.000000
Cu21	Cu2	0.830950	0.772700	0.000000
Cu31	Cu3	0.750190	0.170140	0.000000
Cu41	Cu4	0.830950	0.227300	0.000000
Cu51	Cu5	0.750190	0.000000	0.829860
Cu61	Cu6	0.830950	0.000000	0.772700
Cu71	Cu7	0.750190	0.000000	0.170140
Cu81	Cu8	0.830950	0.000000	0.227300
Cu91	Cu9	0.249810	0.170140	0.000000
Cu101	Cu10	0.169050	0.227300	0.000000
Cu111	Cu11	0.249810	0.829860	0.000000
Cu121	Cu12	0.169050	0.772700	0.000000
Cu131	Cu13	0.249810	0.000000	0.829860
Cu141	Cu14	0.169050	0.000000	0.772700
Cu151	Cu15	0.249810	0.000000	0.170140
Cu161	Cu16	0.169050	0.000000	0.227300
Cu171	Cu17	0.500000	0.770220	0.770220
Cu181	Cu18	0.500000	0.826800	0.826800
Cu191	Cu19	0.500000	0.229780	0.229780
Cu201	Cu20	0.500000	0.173200	0.173200
Cu211	Cu21	0.500000	0.229780	0.770220
Cu221	Cu22	0.500000	0.173200	0.826800
Cu231	Cu23	0.500000	0.770220	0.229780
Cu241	Cu24	0.500000	0.826800	0.173200
Cu251	Cu25	0.831920	0.661510	0.661510
Cu261	Cu26	0.752050	0.620710	0.620710
Cu271	Cu27	0.831920	0.338490	0.338490
Cu281	Cu28	0.752050	0.379290	0.379290
Cu291	Cu29	0.831920	0.338490	0.661510
Cu301	Cu30	0.752050	0.379290	0.620710
Cu311	Cu31	0.831920	0.661510	0.338490
Cu321	Cu32	0.752050	0.620710	0.379290
Cu331	Cu33	0.168080	0.338490	0.661510
Cu341	Cu34	0.247950	0.379290	0.620710
Cu351	Cu35	0.168080	0.661510	0.338490
Cu361	Cu36	0.247950	0.620710	0.379290
Cu371	Cu37	0.168080	0.661510	0.661510
Cu381	Cu38	0.247950	0.620710	0.620710
Cu391	Cu39	0.168080	0.338490	0.338490
Cu401	Cu40	0.247950	0.379290	0.379290
Cu411	Cu41	0.500000	0.500000	0.740690
Cu421	Cu42	0.500000	0.500000	0.820480
Cu431	Cu43	0.500000	0.500000	0.259310
Cu441	Cu44	0.500000	0.500000	0.179520
Cu451	Cu45	0.500000	0.259310	0.500000
Cu461	Cu46	0.500000	0.179520	0.500000
Cu471	Cu47	0.500000	0.740690	0.500000
Cu481	Cu48	0.500000	0.820480	0.500000
H11	H1	0.641600	0.786900	0.902000
H21	H2	0.632100	0.688000	0.827700
H31	H3	0.754500	0.693000	0.914500
H41	H4	0.641300	0.583000	0.719900
H51	H5	0.629000	0.590800	0.842000
H61	H6	0.755100	0.652700	0.781000
H71	H7	0.704300	0.622200	0.880700
H81	H8	0.761300	0.639500	0.860100
H91	H9	0.941000	0.813900	0.098600
H101	H10	0.934700	0.561900	0.708500
H111	H11	0.641600	0.213100	0.098000
H121	H12	0.632100	0.312000	0.172300
H131	H13	0.754500	0.307000	0.085500
H141	H14	0.641300	0.417000	0.280100
H151	H15	0.629000	0.409200	0.158000
H161	H16	0.755100	0.347300	0.219000
H171	H17	0.704300	0.377800	0.119300
H181	H18	0.761300	0.360500	0.139900
H191	H19	0.941000	0.186100	0.901400
H201	H20	0.934700	0.438100	0.291500
H211	H21	0.641600	0.098000	0.786900
H221	H22	0.632100	0.172300	0.688000
H231	H23	0.754500	0.085500	0.693000
H241	H24	0.641300	0.280100	0.583000
H251	H25	0.629000	0.158000	0.590800
H261	H26	0.755100	0.219000	0.652700
H271	H27	0.704300	0.119300	0.622200
H281	H28	0.761300	0.139900	0.639500
H291	H29	0.941000	0.901400	0.813900
H301	H30	0.934700	0.291500	0.561900
H311	H31	0.641600	0.902000	0.213100
H321	H32	0.632100	0.827700	0.312000
H331	H33	0.754500	0.914500	0.307000
H341	H34	0.641300	0.719900	0.417000
H351	H35	0.629000	0.842000	0.409200
H361	H36	0.755100	0.781000	0.347300
H371	H37	0.704300	0.880700	0.377800
H381	H38	0.761300	0.860100	0.360500
H391	H39	0.941000	0.098600	0.186100
H401	H40	0.934700	0.708500	0.438100
H411	H41	0.358400	0.213100	0.902000
H421	H42	0.367900	0.312000	0.827700
H431	H43	0.245500	0.307000	0.914500
H441	H44	0.358700	0.417000	0.719900
H451	H45	0.371000	0.409200	0.842000
H461	H46	0.244900	0.347300	0.781000
H471	H47	0.295700	0.377800	0.880700
H481	H48	0.238700	0.360500	0.860100
H491	H49	0.059000	0.186100	0.098600
H501	H50	0.065300	0.438100	0.708500
H511	H51	0.358400	0.786900	0.098000
H521	H52	0.367900	0.688000	0.172300
H531	H53	0.245500	0.693000	0.085500
H541	H54	0.358700	0.583000	0.280100
H551	H55	0.371000	0.590800	0.158000
H561	H56	0.244900	0.652700	0.219000
H571	H57	0.295700	0.622200	0.119300
H581	H58	0.238700	0.639500	0.139900
H591	H59	0.059000	0.813900	0.901400
H601	H60	0.065300	0.561900	0.291500
H611	H61	0.358400	0.902000	0.786900
H621	H62	0.367900	0.827700	0.688000
H631	H63	0.245500	0.914500	0.693000
H641	H64	0.358700	0.719900	0.583000
H651	H65	0.371000	0.842000	0.590800
H661	H66	0.244900	0.781000	0.652700
H671	H67	0.295700	0.880700	0.622200
H681	H68	0.238700	0.860100	0.639500
H691	H69	0.059000	0.098600	0.813900
H701	H70	0.065300	0.708500	0.561900
H711	H71	0.358400	0.098000	0.213100
H721	H72	0.367900	0.172300	0.312000
H731	H73	0.245500	0.085500	0.307000
H741	H74	0.358700	0.280100	0.417000
H751	H75	0.371000	0.158000	0.409200
H761	H76	0.244900	0.219000	0.347300
H771	H77	0.295700	0.119300	0.377800
H781	H78	0.238700	0.139900	0.360500
H791	H79	0.059000	0.901400	0.186100
H801	H80	0.065300	0.291500	0.438100
H811	H81	0.358400	0.213100	0.098000
H821	H82	0.367900	0.312000	0.172300
H831	H83	0.245500	0.307000	0.085500
H841	H84	0.358700	0.417000	0.280100
H851	H85	0.371000	0.409200	0.158000
H861	H86	0.244900	0.347300	0.219000
H871	H87	0.295700	0.377800	0.119300
H881	H88	0.238700	0.360500	0.139900
H891	H89	0.059000	0.186100	0.901400
H901	H90	0.065300	0.438100	0.291500
H911	H91	0.358400	0.786900	0.902000
H921	H92	0.367900	0.688000	0.827700
H931	H93	0.245500	0.693000	0.914500
H941	H94	0.358700	0.583000	0.719900
H951	H95	0.371000	0.590800	0.842000
H961	H96	0.244900	0.652700	0.781000
H971	H97	0.295700	0.622200	0.880700
H981	H98	0.238700	0.639500	0.860100
H991	H99	0.059000	0.813900	0.098600
H1001	H100	0.065300	0.561900	0.708500
H1011	H101	0.358400	0.902000	0.213100
H1021	H102	0.367900	0.827700	0.312000
H1031	H103	0.245500	0.914500	0.307000
H1041	H104	0.358700	0.719900	0.417000
H1051	H105	0.371000	0.842000	0.409200
H1061	H106	0.244900	0.781000	0.347300
H1071	H107	0.295700	0.880700	0.377800
H1081	H108	0.238700	0.860100	0.360500
H1091	H109	0.059000	0.098600	0.186100
H1101	H110	0.065300	0.708500	0.438100
H1111	H111	0.358400	0.098000	0.786900
H1121	H112	0.367900	0.172300	0.688000
H1131	H113	0.245500	0.085500	0.693000
H1141	H114	0.358700	0.280100	0.583000
H1151	H115	0.371000	0.158000	0.590800
H1161	H116	0.244900	0.219000	0.652700
H1171	H117	0.295700	0.119300	0.622200
H1181	H118	0.238700	0.139900	0.639500
H1191	H119	0.059000	0.901400	0.813900
H1201	H120	0.065300	0.291500	0.561900
H1211	H121	0.641600	0.786900	0.098000
H1221	H122	0.632100	0.688000	0.172300
H1231	H123	0.754500	0.693000	0.085500
H1241	H124	0.641300	0.583000	0.280100
H1251	H125	0.629000	0.590800	0.158000
H1261	H126	0.755100	0.652700	0.219000
H1271	H127	0.704300	0.622200	0.119300
H1281	H128	0.761300	0.639500	0.139900
H1291	H129	0.941000	0.813900	0.901400
H1301	H130	0.934700	0.561900	0.291500
H1311	H131	0.641600	0.213100	0.902000
H1321	H132	0.632100	0.312000	0.827700
H1331	H133	0.754500	0.307000	0.914500
H1341	H134	0.641300	0.417000	0.719900
H1351	H135	0.629000	0.409200	0.842000
H1361	H136	0.755100	0.347300	0.781000
H1371	H137	0.704300	0.377800	0.880700
H1381	H138	0.761300	0.360500	0.860100
H1391	H139	0.941000	0.186100	0.098600
H1401	H140	0.934700	0.438100	0.708500
H1411	H141	0.641600	0.098000	0.213100
H1421	H142	0.632100	0.172300	0.312000
H1431	H143	0.754500	0.085500	0.307000
H1441	H144	0.641300	0.280100	0.417000
H1451	H145	0.629000	0.158000	0.409200
H1461	H146	0.755100	0.219000	0.347300
H1471	H147	0.704300	0.119300	0.377800
H1481	H148	0.761300	0.139900	0.360500
H1491	H149	0.941000	0.901400	0.186100
H1501	H150	0.934700	0.291500	0.438100
H1511	H151	0.641600	0.902000	0.786900
H1521	H152	0.632100	0.827700	0.688000
H1531	H153	0.754500	0.914500	0.693000
H1541	H154	0.641300	0.719900	0.583000
H1551	H155	0.629000	0.842000	0.590800
H1561	H156	0.755100	0.781000	0.652700
H1571	H157	0.704300	0.880700	0.622200
H1581	H158	0.761300	0.860100	0.639500
H1591	H159	0.941000	0.098600	0.813900
H1601	H160	0.934700	0.708500	0.561900
H1611	H161	0.817600	0.904800	0.095200
H1621	H162	0.817600	0.095200	0.904800
H1631	H163	0.817600	0.904800	0.904800
H1641	H164	0.817600	0.095200	0.095200
H1651	H165	0.182400	0.095200	0.095200
H1661	H166	0.182400	0.904800	0.904800
H1671	H167	0.182400	0.095200	0.904800
H1681	H168	0.182400	0.904800	0.095200
H1691	H169	0.000000	0.838600	0.195200
H1701	H170	0.000000	0.523900	0.753600
H1711	H171	0.000000	0.161400	0.804800
H1721	H172	0.000000	0.476100	0.246400
H1731	H173	0.000000	0.804800	0.838600
H1741	H174	0.000000	0.246400	0.523900
H1751	H175	0.000000	0.195200	0.161400
H1761	H176	0.000000	0.753600	0.476100
H1771	H177	0.000000	0.161400	0.195200
H1781	H178	0.000000	0.476100	0.753600
H1791	H179	0.000000	0.838600	0.804800
H1801	H180	0.000000	0.523900	0.246400
H1811	H181	0.000000	0.195200	0.838600
H1821	H182	0.000000	0.753600	0.523900
H1831	H183	0.000000	0.804800	0.161400
H1841	H184	0.000000	0.246400	0.476100
H1851	H185	0.815600	0.500000	0.636100
H1861	H186	0.815600	0.500000	0.363900
H1871	H187	0.815600	0.363900	0.500000
H1881	H188	0.815600	0.636100	0.500000
H1891	H189	0.184400	0.500000	0.636100
H1901	H190	0.184400	0.500000	0.363900
H1911	H191	0.184400	0.636100	0.500000
H1921	H192	0.184400	0.363900	0.500000
C11	C1	0.704100	0.742900	0.912200
C21	C2	0.655900	0.761900	0.893200
C31	C3	0.629500	0.740700	0.859400
C41	C4	0.650600	0.701900	0.848800
C51	C5	0.697500	0.683400	0.868100
C61	C6	0.723300	0.704900	0.900500
C71	C7	0.703200	0.617800	0.744000
C81	C8	0.656800	0.593100	0.744100
C91	C9	0.631700	0.582500	0.781500
C101	C10	0.649500	0.597200	0.818400
C111	C11	0.699700	0.622400	0.819700
C121	C12	0.724300	0.634000	0.781400
C131	C13	0.718500	0.639800	0.859100
C141	C14	0.733400	0.765700	0.946200
C151	C15	0.580700	0.761700	0.836100
C161	C16	0.738500	0.627900	0.706400
C171	C17	0.578600	0.552500	0.781200
C181	C18	0.842900	0.837100	0.055200
C191	C19	0.872200	0.855500	0.094300
C201	C20	0.923300	0.836200	0.111100
C211	C21	0.842900	0.576400	0.655300
C221	C22	0.873900	0.536800	0.669300
C231	C23	0.920800	0.537500	0.697800
C241	C24	0.704100	0.257100	0.087800
C251	C25	0.655900	0.238100	0.106800
C261	C26	0.629500	0.259300	0.140600
C271	C27	0.650600	0.298100	0.151200
C281	C28	0.697500	0.316600	0.131900
C291	C29	0.723300	0.295100	0.099500
C301	C30	0.703200	0.382200	0.256000
C311	C31	0.656800	0.406900	0.255900
C321	C32	0.631700	0.417500	0.218500
C331	C33	0.649500	0.402800	0.181600
C341	C34	0.699700	0.377600	0.180300
C351	C35	0.724300	0.366000	0.218600
C361	C36	0.718500	0.360200	0.140900
C371	C37	0.733400	0.234300	0.053800
C381	C38	0.580700	0.238300	0.163900
C391	C39	0.738500	0.372100	0.293600
C401	C40	0.578600	0.447500	0.218800
C411	C41	0.842900	0.162900	0.944800
C421	C42	0.872200	0.144500	0.905700
C431	C43	0.923300	0.163800	0.888900
C441	C44	0.842900	0.423600	0.344700
C451	C45	0.873900	0.463200	0.330700
C461	C46	0.920800	0.462500	0.302200
C471	C47	0.704100	0.087800	0.742900
C481	C48	0.655900	0.106800	0.761900
C491	C49	0.629500	0.140600	0.740700
C501	C50	0.650600	0.151200	0.701900
C511	C51	0.697500	0.131900	0.683400
C521	C52	0.723300	0.099500	0.704900
C531	C53	0.703200	0.256000	0.617800
C541	C54	0.656800	0.255900	0.593100
C551	C55	0.631700	0.218500	0.582500
C561	C56	0.649500	0.181600	0.597200
C571	C57	0.699700	0.180300	0.622400
C581	C58	0.724300	0.218600	0.634000
C591	C59	0.718500	0.140900	0.639800
C601	C60	0.733400	0.053800	0.765700
C611	C61	0.580700	0.163900	0.761700
C621	C62	0.738500	0.293600	0.627900
C631	C63	0.578600	0.218800	0.552500
C641	C64	0.842900	0.944800	0.837100
C651	C65	0.872200	0.905700	0.855500
C661	C66	0.923300	0.888900	0.836200
C671	C67	0.842900	0.344700	0.576400
C681	C68	0.873900	0.330700	0.536800
C691	C69	0.920800	0.302200	0.537500
C701	C70	0.704100	0.912200	0.257100
C711	C71	0.655900	0.893200	0.238100
C721	C72	0.629500	0.859400	0.259300
C731	C73	0.650600	0.848800	0.298100
C741	C74	0.697500	0.868100	0.316600
C751	C75	0.723300	0.900500	0.295100
C761	C76	0.703200	0.744000	0.382200
C771	C77	0.656800	0.744100	0.406900
C781	C78	0.631700	0.781500	0.417500
C791	C79	0.649500	0.818400	0.402800
C801	C80	0.699700	0.819700	0.377600
C811	C81	0.724300	0.781400	0.366000
C821	C82	0.718500	0.859100	0.360200
C831	C83	0.733400	0.946200	0.234300
C841	C84	0.580700	0.836100	0.238300
C851	C85	0.738500	0.706400	0.372100
C861	C86	0.578600	0.781200	0.447500
C871	C87	0.842900	0.055200	0.162900
C881	C88	0.872200	0.094300	0.144500
C891	C89	0.923300	0.111100	0.163800
C901	C90	0.842900	0.655300	0.423600
C911	C91	0.873900	0.669300	0.463200
C921	C92	0.920800	0.697800	0.462500
C931	C93	0.295900	0.257100	0.912200
C941	C94	0.344100	0.238100	0.893200
C951	C95	0.370500	0.259300	0.859400
C961	C96	0.349400	0.298100	0.848800
C971	C97	0.302500	0.316600	0.868100
C981	C98	0.276700	0.295100	0.900500
C991	C99	0.296800	0.382200	0.744000
C1001	C100	0.343200	0.406900	0.744100
C1011	C101	0.368300	0.417500	0.781500
C1021	C102	0.350500	0.402800	0.818400
C1031	C103	0.300300	0.377600	0.819700
C1041	C104	0.275700	0.366000	0.781400
C1051	C105	0.281500	0.360200	0.859100
C1061	C106	0.266600	0.234300	0.946200
C1071	C107	0.419300	0.238300	0.836100
C1081	C108	0.261500	0.372100	0.706400
C1091	C109	0.421400	0.447500	0.781200
C1101	C110	0.157100	0.162900	0.055200
C1111	C111	0.127800	0.144500	0.094300
C1121	C112	0.076700	0.163800	0.111100
C1131	C113	0.157100	0.423600	0.655300
C1141	C114	0.126100	0.463200	0.669300
C1151	C115	0.079200	0.462500	0.697800
C1161	C116	0.295900	0.742900	0.087800
C1171	C117	0.344100	0.761900	0.106800
C1181	C118	0.370500	0.740700	0.140600
C1191	C119	0.349400	0.701900	0.151200
C1201	C120	0.302500	0.683400	0.131900
C1211	C121	0.276700	0.704900	0.099500
C1221	C122	0.296800	0.617800	0.256000
C1231	C123	0.343200	0.593100	0.255900
C1241	C124	0.368300	0.582500	0.218500
C1251	C125	0.350500	0.597200	0.181600
C1261	C126	0.300300	0.622400	0.180300
C1271	C127	0.275700	0.634000	0.218600
C1281	C128	0.281500	0.639800	0.140900
C1291	C129	0.266600	0.765700	0.053800
C1301	C130	0.419300	0.761700	0.163900
C1311	C131	0.261500	0.627900	0.293600
C1321	C132	0.421400	0.552500	0.218800
C1331	C133	0.157100	0.837100	0.944800
C1341	C134	0.127800	0.855500	0.905700
C1351	C135	0.076700	0.836200	0.888900
C1361	C136	0.157100	0.576400	0.344700
C1371	C137	0.126100	0.536800	0.330700
C1381	C138	0.079200	0.537500	0.302200
C1391	C139	0.295900	0.912200	0.742900
C1401	C140	0.344100	0.893200	0.761900
C1411	C141	0.370500	0.859400	0.740700
C1421	C142	0.349400	0.848800	0.701900
C1431	C143	0.302500	0.868100	0.683400
C1441	C144	0.276700	0.900500	0.704900
C1451	C145	0.296800	0.744000	0.617800
C1461	C146	0.343200	0.744100	0.593100
C1471	C147	0.368300	0.781500	0.582500
C1481	C148	0.350500	0.818400	0.597200
C1491	C149	0.300300	0.819700	0.622400
C1501	C150	0.275700	0.781400	0.634000
C1511	C151	0.281500	0.859100	0.639800
C1521	C152	0.266600	0.946200	0.765700
C1531	C153	0.419300	0.836100	0.761700
C1541	C154	0.261500	0.706400	0.627900
C1551	C155	0.421400	0.781200	0.552500
C1561	C156	0.157100	0.055200	0.837100
C1571	C157	0.127800	0.094300	0.855500
C1581	C158	0.076700	0.111100	0.836200
C1591	C159	0.157100	0.655300	0.576400
C1601	C160	0.126100	0.669300	0.536800
C1611	C161	0.079200	0.697800	0.537500
C1621	C162	0.295900	0.087800	0.257100
C1631	C163	0.344100	0.106800	0.238100
C1641	C164	0.370500	0.140600	0.259300
C1651	C165	0.349400	0.151200	0.298100
C1661	C166	0.302500	0.131900	0.316600
C1671	C167	0.276700	0.099500	0.295100
C1681	C168	0.296800	0.256000	0.382200
C1691	C169	0.343200	0.255900	0.406900
C1701	C170	0.368300	0.218500	0.417500
C1711	C171	0.350500	0.181600	0.402800
C1721	C172	0.300300	0.180300	0.377600
C1731	C173	0.275700	0.218600	0.366000
C1741	C174	0.281500	0.140900	0.360200
C1751	C175	0.266600	0.053800	0.234300
C1761	C176	0.419300	0.163900	0.238300
C1771	C177	0.261500	0.293600	0.372100
C1781	C178	0.421400	0.218800	0.447500
C1791	C179	0.157100	0.944800	0.162900
C1801	C180	0.127800	0.905700	0.144500
C1811	C181	0.076700	0.888900	0.163800
C1821	C182	0.157100	0.344700	0.423600
C1831	C183	0.126100	0.330700	0.463200
C1841	C184	0.079200	0.302200	0.462500
C1851	C185	0.295900	0.257100	0.087800
C1861	C186	0.344100	0.238100	0.106800
C1871	C187	0.370500	0.259300	0.140600
C1881	C188	0.349400	0.298100	0.151200
C1891	C189	0.302500	0.316600	0.131900
C1901	C190	0.276700	0.295100	0.099500
C1911	C191	0.296800	0.382200	0.256000
C1921	C192	0.343200	0.406900	0.255900
C1931	C193	0.368300	0.417500	0.218500
C1941	C194	0.350500	0.402800	0.181600
C1951	C195	0.300300	0.377600	0.180300
C1961	C196	0.275700	0.366000	0.218600
C1971	C197	0.281500	0.360200	0.140900
C1981	C198	0.266600	0.234300	0.053800
C1991	C199	0.419300	0.238300	0.163900
C2001	C200	0.261500	0.372100	0.293600
C2011	C201	0.421400	0.447500	0.218800
C2021	C202	0.157100	0.162900	0.944800
C2031	C203	0.127800	0.144500	0.905700
C2041	C204	0.076700	0.163800	0.888900
C2051	C205	0.157100	0.423600	0.344700
C2061	C206	0.126100	0.463200	0.330700
C2071	C207	0.079200	0.462500	0.302200
C2081	C208	0.295900	0.742900	0.912200
C2091	C209	0.344100	0.761900	0.893200
C2101	C210	0.370500	0.740700	0.859400
C2111	C211	0.349400	0.701900	0.848800
C2121	C212	0.302500	0.683400	0.868100
C2131	C213	0.276700	0.704900	0.900500
C2141	C214	0.296800	0.617800	0.744000
C2151	C215	0.343200	0.593100	0.744100
C2161	C216	0.368300	0.582500	0.781500
C2171	C217	0.350500	0.597200	0.818400
C2181	C218	0.300300	0.622400	0.819700
C2191	C219	0.275700	0.634000	0.781400
C2201	C220	0.281500	0.639800	0.859100
C2211	C221	0.266600	0.765700	0.946200
C2221	C222	0.419300	0.761700	0.836100
C2231	C223	0.261500	0.627900	0.706400
C2241	C224	0.421400	0.552500	0.781200
C2251	C225	0.157100	0.837100	0.055200
C2261	C226	0.127800	0.855500	0.094300
C2271	C227	0.076700	0.836200	0.111100
C2281	C228	0.157100	0.576400	0.655300
C2291	C229	0.126100	0.536800	0.669300
C2301	C230	0.079200	0.537500	0.697800
C2311	C231	0.295900	0.912200	0.257100
C2321	C232	0.344100	0.893200	0.238100
C2331	C233	0.370500	0.859400	0.259300
C2341	C234	0.349400	0.848800	0.298100
C2351	C235	0.302500	0.868100	0.316600
C2361	C236	0.276700	0.900500	0.295100
C2371	C237	0.296800	0.744000	0.382200
C2381	C238	0.343200	0.744100	0.406900
C2391	C239	0.368300	0.781500	0.417500
C2401	C240	0.350500	0.818400	0.402800
C2411	C241	0.300300	0.819700	0.377600
C2421	C242	0.275700	0.781400	0.366000
C2431	C243	0.281500	0.859100	0.360200
C2441	C244	0.266600	0.946200	0.234300
C2451	C245	0.419300	0.836100	0.238300
C2461	C246	0.261500	0.706400	0.372100
C2471	C247	0.421400	0.781200	0.447500
C2481	C248	0.157100	0.055200	0.162900
C2491	C249	0.127800	0.094300	0.144500
C2501	C250	0.076700	0.111100	0.163800
C2511	C251	0.157100	0.655300	0.423600
C2521	C252	0.126100	0.669300	0.463200
C2531	C253	0.079200	0.697800	0.462500
C2541	C254	0.295900	0.087800	0.742900
C2551	C255	0.344100	0.106800	0.761900
C2561	C256	0.370500	0.140600	0.740700
C2571	C257	0.349400	0.151200	0.701900
C2581	C258	0.302500	0.131900	0.683400
C2591	C259	0.276700	0.099500	0.704900
C2601	C260	0.296800	0.256000	0.617800
C2611	C261	0.343200	0.255900	0.593100
C2621	C262	0.368300	0.218500	0.582500
C2631	C263	0.350500	0.181600	0.597200
C2641	C264	0.300300	0.180300	0.622400
C2651	C265	0.275700	0.218600	0.634000
C2661	C266	0.281500	0.140900	0.639800
C2671	C267	0.266600	0.053800	0.765700
C2681	C268	0.419300	0.163900	0.761700
C2691	C269	0.261500	0.293600	0.627900
C2701	C270	0.421400	0.218800	0.552500
C2711	C271	0.157100	0.944800	0.837100
C2721	C272	0.127800	0.905700	0.855500
C2731	C273	0.076700	0.888900	0.836200
C2741	C274	0.157100	0.344700	0.576400
C2751	C275	0.126100	0.330700	0.536800
C2761	C276	0.079200	0.302200	0.537500
C2771	C277	0.704100	0.742900	0.087800
C2781	C278	0.655900	0.761900	0.106800
C2791	C279	0.629500	0.740700	0.140600
C2801	C280	0.650600	0.701900	0.151200
C2811	C281	0.697500	0.683400	0.131900
C2821	C282	0.723300	0.704900	0.099500
C2831	C283	0.703200	0.617800	0.256000
C2841	C284	0.656800	0.593100	0.255900
C2851	C285	0.631700	0.582500	0.218500
C2861	C286	0.649500	0.597200	0.181600
C2871	C287	0.699700	0.622400	0.180300
C2881	C288	0.724300	0.634000	0.218600
C2891	C289	0.718500	0.639800	0.140900
C2901	C290	0.733400	0.765700	0.053800
C2911	C291	0.580700	0.761700	0.163900
C2921	C292	0.738500	0.627900	0.293600
C2931	C293	0.578600	0.552500	0.218800
C2941	C294	0.842900	0.837100	0.944800
C2951	C295	0.872200	0.855500	0.905700
C2961	C296	0.923300	0.836200	0.888900
C2971	C297	0.842900	0.576400	0.344700
C2981	C298	0.873900	0.536800	0.330700
C2991	C299	0.920800	0.537500	0.302200
C3001	C300	0.704100	0.257100	0.912200
C3011	C301	0.655900	0.238100	0.893200
C3021	C302	0.629500	0.259300	0.859400
C3031	C303	0.650600	0.298100	0.848800
C3041	C304	0.697500	0.316600	0.868100
C3051	C305	0.723300	0.295100	0.900500
C3061	C306	0.703200	0.382200	0.744000
C3071	C307	0.656800	0.406900	0.744100
C3081	C308	0.631700	0.417500	0.781500
C3091	C309	0.649500	0.402800	0.818400
C3101	C310	0.699700	0.377600	0.819700
C3111	C311	0.724300	0.366000	0.781400
C3121	C312	0.718500	0.360200	0.859100
C3131	C313	0.733400	0.234300	0.946200
C3141	C314	0.580700	0.238300	0.836100
C3151	C315	0.738500	0.372100	0.706400
C3161	C316	0.578600	0.447500	0.781200
C3171	C317	0.842900	0.162900	0.055200
C3181	C318	0.872200	0.144500	0.094300
C3191	C319	0.923300	0.163800	0.111100
C3201	C320	0.842900	0.423600	0.655300
C3211	C321	0.873900	0.463200	0.669300
C3221	C322	0.920800	0.462500	0.697800
C3231	C323	0.704100	0.087800	0.257100
C3241	C324	0.655900	0.106800	0.238100
C3251	C325	0.629500	0.140600	0.259300
C3261	C326	0.650600	0.151200	0.298100
C3271	C327	0.697500	0.131900	0.316600
C3281	C328	0.723300	0.099500	0.295100
C3291	C329	0.703200	0.256000	0.382200
C3301	C330	0.656800	0.255900	0.406900
C3311	C331	0.631700	0.218500	0.417500
C3321	C332	0.649500	0.181600	0.402800
C3331	C333	0.699700	0.180300	0.377600
C3341	C334	0.724300	0.218600	0.366000
C3351	C335	0.718500	0.140900	0.360200
C3361	C336	0.733400	0.053800	0.234300
C3371	C337	0.580700	0.163900	0.238300
C3381	C338	0.738500	0.293600	0.372100
C3391	C339	0.578600	0.218800	0.447500
C3401	C340	0.842900	0.944800	0.162900
C3411	C341	0.872200	0.905700	0.144500
C3421	C342	0.923300	0.888900	0.163800
C3431	C343	0.842900	0.344700	0.423600
C3441	C344	0.873900	0.330700	0.463200
C3451	C345	0.920800	0.302200	0.462500
C3461	C346	0.704100	0.912200	0.742900
C3471	C347	0.655900	0.893200	0.761900
C3481	C348	0.629500	0.859400	0.740700
C3491	C349	0.650600	0.848800	0.701900
C3501	C350	0.697500	0.868100	0.683400
C3511	C351	0.723300	0.900500	0.704900
C3521	C352	0.703200	0.744000	0.617800
C3531	C353	0.656800	0.744100	0.593100
C3541	C354	0.631700	0.781500	0.582500
C3551	C355	0.649500	0.818400	0.597200
C3561	C356	0.699700	0.819700	0.622400
C3571	C357	0.724300	0.781400	0.634000
C3581	C358	0.718500	0.859100	0.639800
C3591	C359	0.733400	0.946200	0.765700
C3601	C360	0.580700	0.836100	0.761700
C3611	C361	0.738500	0.706400	0.627900
C3621	C362	0.578600	0.781200	0.552500
C3631	C363	0.842900	0.055200	0.837100
C3641	C364	0.872200	0.094300	0.855500
C3651	C365	0.923300	0.111100	0.836200
C3661	C366	0.842900	0.655300	0.576400
C3671	C367	0.873900	0.669300	0.536800
C3681	C368	0.920800	0.697800	0.537500
C3691	C369	0.848000	0.891300	0.108700
C3701	C370	0.945000	0.852800	0.147200
C3711	C371	0.848000	0.108700	0.891300
C3721	C372	0.945000	0.147200	0.852800
C3731	C373	0.848000	0.891300	0.891300
C3741	C374	0.945000	0.852800	0.852800
C3751	C375	0.848000	0.108700	0.108700
C3761	C376	0.945000	0.147200	0.147200
C3771	C377	0.152000	0.108700	0.108700
C3781	C378	0.055000	0.147200	0.147200
C3791	C379	0.152000	0.891300	0.891300
C3801	C380	0.055000	0.852800	0.852800
C3811	C381	0.152000	0.108700	0.891300
C3821	C382	0.055000	0.147200	0.852800
C3831	C383	0.152000	0.891300	0.108700
C3841	C384	0.055000	0.852800	0.147200
C3851	C385	0.000000	0.833900	0.166100
C3861	C386	0.000000	0.166100	0.833900
C3871	C387	0.000000	0.833900	0.833900
C3881	C388	0.000000	0.166100	0.166100
C3891	C389	0.847300	0.500000	0.654100
C3901	C390	0.945800	0.500000	0.709600
C3911	C391	0.847300	0.500000	0.345900
C3921	C392	0.945800	0.500000	0.290400
C3931	C393	0.847300	0.345900	0.500000
C3941	C394	0.945800	0.290400	0.500000
C3951	C395	0.847300	0.654100	0.500000
C3961	C396	0.945800	0.709600	0.500000
C3971	C397	0.152700	0.500000	0.654100
C3981	C398	0.054200	0.500000	0.709600
C3991	C399	0.152700	0.500000	0.345900
C4001	C400	0.054200	0.500000	0.290400
C4011	C401	0.152700	0.654100	0.500000
C4021	C402	0.054200	0.709600	0.500000
C4031	C403	0.152700	0.345900	0.500000
C4041	C404	0.054200	0.290400	0.500000
C4051	C405	0.000000	0.500000	0.736300
C4061	C406	0.000000	0.500000	0.263700
C4071	C407	0.000000	0.263700	0.500000
C4081	C408	0.000000	0.736300	0.500000
O11	O1	0.710600	0.797300	0.957600
O21	O2	0.779400	0.748000	0.958100
O31	O3	0.562100	0.744100	0.804800
O41	O4	0.559900	0.793800	0.852600
O51	O5	0.783500	0.649100	0.709000
O61	O6	0.714700	0.614700	0.674500
O71	O7	0.560600	0.541000	0.816000
O81	O8	0.561300	0.541900	0.746200
O91	O9	0.799600	0.854100	0.042600
O101	O10	0.869600	0.804800	0.042800
O111	O11	0.870000	0.608300	0.668800
O121	O12	0.801400	0.574400	0.631700
O131	O13	0.710600	0.202700	0.042400
O141	O14	0.779400	0.252000	0.041900
O151	O15	0.562100	0.255900	0.195200
O161	O16	0.559900	0.206200	0.147400
O171	O17	0.783500	0.350900	0.291000
O181	O18	0.714700	0.385300	0.325500
O191	O19	0.560600	0.459000	0.184000
O201	O20	0.561300	0.458100	0.253800
O211	O21	0.799600	0.145900	0.957400
O221	O22	0.869600	0.195200	0.957200
O231	O23	0.870000	0.391700	0.331200
O241	O24	0.801400	0.425600	0.368300
O251	O25	0.710600	0.042400	0.797300
O261	O26	0.779400	0.041900	0.748000
O271	O27	0.562100	0.195200	0.744100
O281	O28	0.559900	0.147400	0.793800
O291	O29	0.783500	0.291000	0.649100
O301	O30	0.714700	0.325500	0.614700
O311	O31	0.560600	0.184000	0.541000
O321	O32	0.561300	0.253800	0.541900
O331	O33	0.799600	0.957400	0.854100
O341	O34	0.869600	0.957200	0.804800
O351	O35	0.870000	0.331200	0.608300
O361	O36	0.801400	0.368300	0.574400
O371	O37	0.710600	0.957600	0.202700
O381	O38	0.779400	0.958100	0.252000
O391	O39	0.562100	0.804800	0.255900
O401	O40	0.559900	0.852600	0.206200
O411	O41	0.783500	0.709000	0.350900
O421	O42	0.714700	0.674500	0.385300
O431	O43	0.560600	0.816000	0.459000
O441	O44	0.561300	0.746200	0.458100
O451	O45	0.799600	0.042600	0.145900
O461	O46	0.869600	0.042800	0.195200
O471	O47	0.870000	0.668800	0.391700
O481	O48	0.801400	0.631700	0.425600
O491	O49	0.289400	0.202700	0.957600
O501	O50	0.220600	0.252000	0.958100
O511	O51	0.437900	0.255900	0.804800
O521	O52	0.440100	0.206200	0.852600
O531	O53	0.216500	0.350900	0.709000
O541	O54	0.285300	0.385300	0.674500
O551	O55	0.439400	0.459000	0.816000
O561	O56	0.438700	0.458100	0.746200
O571	O57	0.200400	0.145900	0.042600
O581	O58	0.130400	0.195200	0.042800
O591	O59	0.130000	0.391700	0.668800
O601	O60	0.198600	0.425600	0.631700
O611	O61	0.289400	0.797300	0.042400
O621	O62	0.220600	0.748000	0.041900
O631	O63	0.437900	0.744100	0.195200
O641	O64	0.440100	0.793800	0.147400
O651	O65	0.216500	0.649100	0.291000
O661	O66	0.285300	0.614700	0.325500
O671	O67	0.439400	0.541000	0.184000
O681	O68	0.438700	0.541900	0.253800
O691	O69	0.200400	0.854100	0.957400
O701	O70	0.130400	0.804800	0.957200
O711	O71	0.130000	0.608300	0.331200
O721	O72	0.198600	0.574400	0.368300
O731	O73	0.289400	0.957600	0.797300
O741	O74	0.220600	0.958100	0.748000
O751	O75	0.437900	0.804800	0.744100
O761	O76	0.440100	0.852600	0.793800
O771	O77	0.216500	0.709000	0.649100
O781	O78	0.285300	0.674500	0.614700
O791	O79	0.439400	0.816000	0.541000
O801	O80	0.438700	0.746200	0.541900
O811	O81	0.200400	0.042600	0.854100
O821	O82	0.130400	0.042800	0.804800
O831	O83	0.130000	0.668800	0.608300
O841	O84	0.198600	0.631700	0.574400
O851	O85	0.289400	0.042400	0.202700
O861	O86	0.220600	0.041900	0.252000
O871	O87	0.437900	0.195200	0.255900
O881	O88	0.440100	0.147400	0.206200
O891	O89	0.216500	0.291000	0.350900
O901	O90	0.285300	0.325500	0.385300
O911	O91	0.439400	0.184000	0.459000
O921	O92	0.438700	0.253800	0.458100
O931	O93	0.200400	0.957400	0.145900
O941	O94	0.130400	0.957200	0.195200
O951	O95	0.130000	0.331200	0.391700
O961	O96	0.198600	0.368300	0.425600
O971	O97	0.289400	0.202700	0.042400
O981	O98	0.220600	0.252000	0.041900
O991	O99	0.437900	0.255900	0.195200
O1001	O100	0.440100	0.206200	0.147400
O1011	O101	0.216500	0.350900	0.291000
O1021	O102	0.285300	0.385300	0.325500
O1031	O103	0.439400	0.459000	0.184000
O1041	O104	0.438700	0.458100	0.253800
O1051	O105	0.200400	0.145900	0.957400
O1061	O106	0.130400	0.195200	0.957200
O1071	O107	0.130000	0.391700	0.331200
O1081	O108	0.198600	0.425600	0.368300
O1091	O109	0.289400	0.797300	0.957600
O1101	O110	0.220600	0.748000	0.958100
O1111	O111	0.437900	0.744100	0.804800
O1121	O112	0.440100	0.793800	0.852600
O1131	O113	0.216500	0.649100	0.709000
O1141	O114	0.285300	0.614700	0.674500
O1151	O115	0.439400	0.541000	0.816000
O1161	O116	0.438700	0.541900	0.746200
O1171	O117	0.200400	0.854100	0.042600
O1181	O118	0.130400	0.804800	0.042800
O1191	O119	0.130000	0.608300	0.668800
O1201	O120	0.198600	0.574400	0.631700
O1211	O121	0.289400	0.957600	0.202700
O1221	O122	0.220600	0.958100	0.252000
O1231	O123	0.437900	0.804800	0.255900
O1241	O124	0.440100	0.852600	0.206200
O1251	O125	0.216500	0.709000	0.350900
O1261	O126	0.285300	0.674500	0.385300
O1271	O127	0.439400	0.816000	0.459000
O1281	O128	0.438700	0.746200	0.458100
O1291	O129	0.200400	0.042600	0.145900
O1301	O130	0.130400	0.042800	0.195200
O1311	O131	0.130000	0.668800	0.391700
O1321	O132	0.198600	0.631700	0.425600
O1331	O133	0.289400	0.042400	0.797300
O1341	O134	0.220600	0.041900	0.748000
O1351	O135	0.437900	0.195200	0.744100
O1361	O136	0.440100	0.147400	0.793800
O1371	O137	0.216500	0.291000	0.649100
O1381	O138	0.285300	0.325500	0.614700
O1391	O139	0.439400	0.184000	0.541000
O1401	O140	0.438700	0.253800	0.541900
O1411	O141	0.200400	0.957400	0.854100
O1421	O142	0.130400	0.957200	0.804800
O1431	O143	0.130000	0.331200	0.608300
O1441	O144	0.198600	0.368300	0.574400
O1451	O145	0.710600	0.797300	0.042400
O1461	O146	0.779400	0.748000	0.041900
O1471	O147	0.562100	0.744100	0.195200
O1481	O148	0.559900	0.793800	0.147400
O1491	O149	0.783500	0.649100	0.291000
O1501	O150	0.714700	0.614700	0.325500
O1511	O151	0.560600	0.541000	0.184000
O1521	O152	0.561300	0.541900	0.253800
O1531	O153	0.799600	0.854100	0.957400
O1541	O154	0.869600	0.804800	0.957200
O1551	O155	0.870000	0.608300	0.331200
O1561	O156	0.801400	0.574400	0.368300
O1571	O157	0.710600	0.202700	0.957600
O1581	O158	0.779400	0.252000	0.958100
O1591	O159	0.562100	0.255900	0.804800
O1601	O160	0.559900	0.206200	0.852600
O1611	O161	0.783500	0.350900	0.709000
O1621	O162	0.714700	0.385300	0.674500
O1631	O163	0.560600	0.459000	0.816000
O1641	O164	0.561300	0.458100	0.746200
O1651	O165	0.799600	0.145900	0.042600
O1661	O166	0.869600	0.195200	0.042800
O1671	O167	0.870000	0.391700	0.668800
O1681	O168	0.801400	0.425600	0.631700
O1691	O169	0.710600	0.042400	0.202700
O1701	O170	0.779400	0.041900	0.252000
O1711	O171	0.562100	0.195200	0.255900
O1721	O172	0.559900	0.147400	0.206200
O1731	O173	0.783500	0.291000	0.350900
O1741	O174	0.714700	0.325500	0.385300
O1751	O175	0.560600	0.184000	0.459000
O1761	O176	0.561300	0.253800	0.458100
O1771	O177	0.799600	0.957400	0.145900
O1781	O178	0.869600	0.957200	0.195200
O1791	O179	0.870000	0.331200	0.391700
O1801	O180	0.801400	0.368300	0.425600
O1811	O181	0.710600	0.957600	0.797300
O1821	O182	0.779400	0.958100	0.748000
O1831	O183	0.562100	0.804800	0.744100
O1841	O184	0.559900	0.852600	0.793800
O1851	O185	0.783500	0.709000	0.649100
O1861	O186	0.714700	0.674500	0.614700
O1871	O187	0.560600	0.816000	0.541000
O1881	O188	0.561300	0.746200	0.541900
O1891	O189	0.799600	0.042600	0.854100
O1901	O190	0.869600	0.042800	0.804800
O1911	O191	0.870000	0.668800	0.608300
O1921	O192	0.801400	0.631700	0.574400
