data_HOGPUQ_clean_PM
_symmetry_space_group_name_H-M	'P1'
_cell_length_a	18.899100
_cell_length_b	15.522900
_cell_length_c	9.070200
_cell_angle_alpha	90.000000
_cell_angle_beta	90.000000
_cell_angle_gamma	90.000000
_symmetry_Int_Tables_number 1

loop_
_symmetry_equiv_pos_as_xyz
'x,y,z'

loop_
_atom_site_label
_atom_site_type_symbol
_atom_site_fract_x
_atom_site_fract_y
_atom_site_fract_z
C11	C1	0.013800	0.155600	0.356600
C21	C2	0.000000	0.153700	0.187100
C31	C3	0.843300	0.013100	0.577700
C41	C4	0.845300	0.958600	0.433600
C51	C5	0.845900	0.348000	0.145000
C61	C6	0.884100	0.420400	0.067300
C71	C7	0.845000	0.485700	0.000600
H11	H1	0.795800	0.483300	0.003100
C81	C8	0.878000	0.554200	0.930400
C91	C9	0.951700	0.557400	0.931800
H21	H2	0.974400	0.603500	0.886500
C101	C10	0.993000	0.493300	0.999700
C111	C11	0.957200	0.425300	0.066900
H31	H3	0.983200	0.382000	0.112700
C121	C12	0.836600	0.626500	0.863500
C131	C13	0.071200	0.499900	0.003500
C141	C14	0.104900	0.579600	0.988500
H41	H4	0.077900	0.629100	0.975900
C151	C15	0.178900	0.585800	0.992100
C161	C16	0.219300	0.511700	0.010100
H51	H5	0.268400	0.515300	0.009400
C171	C17	0.187400	0.433900	0.028700
C181	C18	0.113600	0.427600	0.022200
H61	H6	0.092500	0.373800	0.030500
C191	C19	0.230700	0.354000	0.057000
C201	C20	0.214100	0.669400	0.962000
Er11	Er1	0.165500	0.177740	0.204790
Er21	Er2	0.846930	0.152560	0.317140
O11	O1	0.077000	0.149700	0.395300
O21	O2	0.050000	0.177800	0.106900
O31	O3	0.940500	0.127200	0.150200
O41	O4	0.959600	0.162400	0.434600
O51	O5	0.840700	0.092600	0.562800
O61	O6	0.843580	0.972200	0.698700
O71	O7	0.855000	0.000700	0.317700
O81	O8	0.838800	0.879900	0.447200
O91	O9	0.881700	0.285900	0.194900
O101	O10	0.780100	0.356400	0.157400
O111	O11	0.771200	0.620500	0.859600
O121	O12	0.871700	0.690800	0.816100
O131	O13	0.176800	0.736500	0.972100
O141	O14	0.279000	0.669700	0.931100
O151	O15	0.294300	0.364200	0.088200
O161	O16	0.198200	0.284000	0.051800
C211	C21	0.986200	0.844400	0.856600
C221	C22	0.000000	0.846300	0.687100
C231	C23	0.156700	0.986900	0.077700
C241	C24	0.154700	0.041400	0.933600
C251	C25	0.154100	0.652000	0.645000
C261	C26	0.115900	0.579600	0.567300
C271	C27	0.155000	0.514300	0.500600
H71	H7	0.204200	0.516700	0.503100
C281	C28	0.122000	0.445800	0.430400
C291	C29	0.048300	0.442600	0.431800
H81	H8	0.025600	0.396500	0.386500
C301	C30	0.007000	0.506700	0.499700
C311	C31	0.042800	0.574700	0.566900
H91	H9	0.016800	0.618000	0.612700
C321	C32	0.163400	0.373500	0.363500
C331	C33	0.928800	0.500100	0.503500
C341	C34	0.895100	0.420400	0.488500
H101	H10	0.922100	0.370900	0.475900
C351	C35	0.821100	0.414200	0.492100
C361	C36	0.780700	0.488300	0.510100
H111	H11	0.731600	0.484700	0.509400
C371	C37	0.812600	0.566100	0.528700
C381	C38	0.886400	0.572400	0.522200
H121	H12	0.907500	0.626200	0.530500
C391	C39	0.769300	0.646000	0.557000
C401	C40	0.785900	0.330600	0.462000
Er31	Er3	0.834500	0.822260	0.704790
Er41	Er4	0.153070	0.847440	0.817140
O171	O17	0.923000	0.850300	0.895300
O181	O18	0.950000	0.822200	0.606900
O191	O19	0.059500	0.872800	0.650200
O201	O20	0.040400	0.837600	0.934600
O211	O21	0.159300	0.907400	0.062800
O221	O22	0.156420	0.027800	0.198700
O231	O23	0.145000	0.999300	0.817700
O241	O24	0.161200	0.120100	0.947200
O251	O25	0.118300	0.714100	0.694900
O261	O26	0.219900	0.643600	0.657400
O271	O27	0.228800	0.379500	0.359600
O281	O28	0.128300	0.309200	0.316100
O291	O29	0.823200	0.263500	0.472100
O301	O30	0.721000	0.330300	0.431100
O311	O31	0.705700	0.635800	0.588200
O321	O32	0.801800	0.716000	0.551800
C411	C41	0.513800	0.344400	0.356600
C421	C42	0.500000	0.346300	0.187100
C431	C43	0.343300	0.486900	0.577700
C441	C44	0.345300	0.541400	0.433600
C451	C45	0.345900	0.152000	0.145000
C461	C46	0.384100	0.079600	0.067300
C471	C47	0.345000	0.014300	0.000600
H131	H13	0.295800	0.016700	0.003100
C481	C48	0.378000	0.945800	0.930400
C491	C49	0.451700	0.942600	0.931800
H141	H14	0.474400	0.896500	0.886500
C501	C50	0.493000	0.006700	0.999700
C511	C51	0.457200	0.074700	0.066900
H151	H15	0.483200	0.118000	0.112700
C521	C52	0.336600	0.873500	0.863500
C531	C53	0.571200	0.000100	0.003500
C541	C54	0.604900	0.920400	0.988500
H161	H16	0.577900	0.870900	0.975900
C551	C55	0.678900	0.914200	0.992100
C561	C56	0.719300	0.988300	0.010100
H171	H17	0.768400	0.984700	0.009400
C571	C57	0.687400	0.066100	0.028700
C581	C58	0.613600	0.072400	0.022200
H181	H18	0.592500	0.126200	0.030500
C591	C59	0.730700	0.146000	0.057000
C601	C60	0.714100	0.830600	0.962000
Er51	Er5	0.665500	0.322260	0.204790
Er61	Er6	0.346930	0.347440	0.317140
O331	O33	0.577000	0.350300	0.395300
O341	O34	0.550000	0.322200	0.106900
O351	O35	0.440500	0.372800	0.150200
O361	O36	0.459600	0.337600	0.434600
O371	O37	0.340700	0.407400	0.562800
O381	O38	0.343580	0.527800	0.698700
O391	O39	0.355000	0.499300	0.317700
O401	O40	0.338800	0.620100	0.447200
O411	O41	0.381700	0.214100	0.194900
O421	O42	0.280100	0.143600	0.157400
O431	O43	0.271200	0.879500	0.859600
O441	O44	0.371700	0.809200	0.816100
O451	O45	0.676800	0.763500	0.972100
O461	O46	0.779000	0.830300	0.931100
O471	O47	0.794300	0.135800	0.088200
O481	O48	0.698200	0.216000	0.051800
C611	C61	0.486200	0.655600	0.856600
C621	C62	0.500000	0.653700	0.687100
C631	C63	0.656700	0.513100	0.077700
C641	C64	0.654700	0.458600	0.933600
C651	C65	0.654100	0.848000	0.645000
C661	C66	0.615900	0.920400	0.567300
C671	C67	0.655000	0.985700	0.500600
H191	H19	0.704200	0.983300	0.503100
C681	C68	0.622000	0.054200	0.430400
C691	C69	0.548300	0.057400	0.431800
H201	H20	0.525600	0.103500	0.386500
C701	C70	0.507000	0.993300	0.499700
C711	C71	0.542800	0.925300	0.566900
H211	H21	0.516800	0.882000	0.612700
C721	C72	0.663400	0.126500	0.363500
C731	C73	0.428800	0.999900	0.503500
C741	C74	0.395100	0.079600	0.488500
H221	H22	0.422100	0.129100	0.475900
C751	C75	0.321100	0.085800	0.492100
C761	C76	0.280700	0.011700	0.510100
H231	H23	0.231600	0.015300	0.509400
C771	C77	0.312600	0.933900	0.528700
C781	C78	0.386400	0.927600	0.522200
H241	H24	0.407500	0.873800	0.530500
C791	C79	0.269300	0.854000	0.557000
C801	C80	0.285900	0.169400	0.462000
Er71	Er7	0.334500	0.677740	0.704790
Er81	Er8	0.653070	0.652560	0.817140
O491	O49	0.423000	0.649700	0.895300
O501	O50	0.450000	0.677800	0.606900
O511	O51	0.559500	0.627200	0.650200
O521	O52	0.540400	0.662400	0.934600
O531	O53	0.659300	0.592600	0.062800
O541	O54	0.656420	0.472200	0.198700
O551	O55	0.645000	0.500700	0.817700
O561	O56	0.661200	0.379900	0.947200
O571	O57	0.618300	0.785900	0.694900
O581	O58	0.719900	0.856400	0.657400
O591	O59	0.728800	0.120500	0.359600
O601	O60	0.628300	0.190800	0.316100
O611	O61	0.323200	0.236500	0.472100
O621	O62	0.221000	0.169700	0.431100
O631	O63	0.205700	0.864200	0.588200
O641	O64	0.301800	0.784000	0.551800
