data_HOGQEB_clean_PM
_symmetry_space_group_name_H-M	'P1'
_cell_length_a	19.116000
_cell_length_b	15.714000
_cell_length_c	9.069000
_cell_angle_alpha	90.000000
_cell_angle_beta	90.000000
_cell_angle_gamma	90.000000
_symmetry_Int_Tables_number 1

loop_
_symmetry_equiv_pos_as_xyz
'x,y,z'

loop_
_atom_site_label
_atom_site_type_symbol
_atom_site_fract_x
_atom_site_fract_y
_atom_site_fract_z
C11	C1	0.014100	0.154200	0.356200
C21	C2	0.000000	0.152200	0.185900
C31	C3	0.841900	0.011900	0.577400
C41	C4	0.844000	0.958600	0.434100
C51	C5	0.849500	0.347400	0.144700
C61	C6	0.886700	0.421100	0.069000
C71	C7	0.847400	0.483900	0.002600
H11	H1	0.798900	0.480300	0.003700
C81	C8	0.879600	0.552400	0.934100
C91	C9	0.952500	0.556200	0.934600
H21	H2	0.974400	0.601900	0.888700
C101	C10	0.993800	0.493800	0.001800
C111	C11	0.958200	0.425900	0.067300
H31	H3	0.984000	0.382500	0.111000
C121	C12	0.838300	0.624000	0.864900
C131	C13	0.070700	0.500200	0.004800
C141	C14	0.104100	0.578700	0.991200
H41	H4	0.077100	0.627600	0.981500
C151	C15	0.176600	0.585600	0.991800
C161	C16	0.217500	0.513500	0.010100
H51	H5	0.266000	0.517600	0.011800
C171	C17	0.184900	0.434900	0.025900
C181	C18	0.112900	0.429100	0.021200
H61	H6	0.092000	0.375800	0.029400
C191	C19	0.228500	0.357600	0.052600
C201	C20	0.211900	0.668900	0.967700
Sm11	Sm1	0.167060	0.179400	0.206440
Sm21	Sm2	0.846200	0.152860	0.315650
O11	O1	0.076800	0.149900	0.395100
O21	O2	0.049100	0.176700	0.105600
O31	O3	0.941600	0.125400	0.148900
O41	O4	0.961100	0.160000	0.436100
O51	O5	0.840700	0.090600	0.563600
O61	O6	0.841700	0.972800	0.698200
O71	O7	0.853800	0.998400	0.319000
O81	O8	0.836200	0.880900	0.448400
O91	O9	0.885600	0.286500	0.190300
O101	O10	0.784400	0.352700	0.157300
O111	O11	0.773500	0.617500	0.860500
O121	O12	0.872700	0.688000	0.820300
O131	O13	0.175200	0.734500	0.978000
O141	O14	0.276400	0.669100	0.938300
O151	O15	0.292700	0.366400	0.079800
O161	O16	0.197700	0.287500	0.046800
C211	C21	0.985900	0.845800	0.856200
C221	C22	0.000000	0.847800	0.685900
C231	C23	0.158100	0.988100	0.077400
C241	C24	0.156000	0.041400	0.934100
C251	C25	0.150500	0.652600	0.644700
C261	C26	0.113300	0.578900	0.569000
C271	C27	0.152600	0.516100	0.502600
H71	H7	0.201100	0.519700	0.503700
C281	C28	0.120400	0.447600	0.434100
C291	C29	0.047500	0.443800	0.434600
H81	H8	0.025600	0.398100	0.388700
C301	C30	0.006200	0.506200	0.501800
C311	C31	0.041800	0.574100	0.567300
H91	H9	0.016000	0.617500	0.611000
C321	C32	0.161700	0.376000	0.364900
C331	C33	0.929300	0.499800	0.504800
C341	C34	0.895900	0.421300	0.491200
H101	H10	0.922900	0.372400	0.481500
C351	C35	0.823400	0.414400	0.491800
C361	C36	0.782500	0.486500	0.510100
H111	H11	0.734000	0.482400	0.511800
C371	C37	0.815100	0.565100	0.525900
C381	C38	0.887100	0.570900	0.521200
H121	H12	0.908000	0.624200	0.529400
C391	C39	0.771500	0.642400	0.552600
C401	C40	0.788100	0.331100	0.467700
Sm31	Sm3	0.832940	0.820600	0.706440
Sm41	Sm4	0.153800	0.847140	0.815650
O171	O17	0.923200	0.850100	0.895100
O181	O18	0.950900	0.823300	0.605600
O191	O19	0.058400	0.874600	0.648900
O201	O20	0.038900	0.840000	0.936100
O211	O21	0.159300	0.909400	0.063600
O221	O22	0.158300	0.027200	0.198200
O231	O23	0.146200	0.001600	0.819000
O241	O24	0.163800	0.119100	0.948400
O251	O25	0.114400	0.713500	0.690300
O261	O26	0.215600	0.647300	0.657300
O271	O27	0.226500	0.382500	0.360500
O281	O28	0.127300	0.312000	0.320300
O291	O29	0.824800	0.265500	0.478000
O301	O30	0.723600	0.330900	0.438300
O311	O31	0.707300	0.633600	0.579800
O321	O32	0.802300	0.712500	0.546800
C411	C41	0.514100	0.345800	0.356200
C421	C42	0.500000	0.347800	0.185900
C431	C43	0.341900	0.488100	0.577400
C441	C44	0.344000	0.541400	0.434100
C451	C45	0.349500	0.152600	0.144700
C461	C46	0.386700	0.078900	0.069000
C471	C47	0.347400	0.016100	0.002600
H131	H13	0.298900	0.019700	0.003700
C481	C48	0.379600	0.947600	0.934100
C491	C49	0.452500	0.943800	0.934600
H141	H14	0.474400	0.898100	0.888700
C501	C50	0.493800	0.006200	0.001800
C511	C51	0.458200	0.074100	0.067300
H151	H15	0.484000	0.117500	0.111000
C521	C52	0.338300	0.876000	0.864900
C531	C53	0.570700	0.999800	0.004800
C541	C54	0.604100	0.921300	0.991200
H161	H16	0.577100	0.872400	0.981500
C551	C55	0.676600	0.914400	0.991800
C561	C56	0.717500	0.986500	0.010100
H171	H17	0.766000	0.982400	0.011800
C571	C57	0.684900	0.065100	0.025900
C581	C58	0.612900	0.070900	0.021200
H181	H18	0.592000	0.124200	0.029400
C591	C59	0.728500	0.142400	0.052600
C601	C60	0.711900	0.831100	0.967700
Sm51	Sm5	0.667060	0.320600	0.206440
Sm61	Sm6	0.346200	0.347140	0.315650
O331	O33	0.576800	0.350100	0.395100
O341	O34	0.549100	0.323300	0.105600
O351	O35	0.441600	0.374600	0.148900
O361	O36	0.461100	0.340000	0.436100
O371	O37	0.340700	0.409400	0.563600
O381	O38	0.341700	0.527200	0.698200
O391	O39	0.353800	0.501600	0.319000
O401	O40	0.336200	0.619100	0.448400
O411	O41	0.385600	0.213500	0.190300
O421	O42	0.284400	0.147300	0.157300
O431	O43	0.273500	0.882500	0.860500
O441	O44	0.372700	0.812000	0.820300
O451	O45	0.675200	0.765500	0.978000
O461	O46	0.776400	0.830900	0.938300
O471	O47	0.792700	0.133600	0.079800
O481	O48	0.697700	0.212500	0.046800
C611	C61	0.485900	0.654200	0.856200
C621	C62	0.500000	0.652200	0.685900
C631	C63	0.658100	0.511900	0.077400
C641	C64	0.656000	0.458600	0.934100
C651	C65	0.650500	0.847400	0.644700
C661	C66	0.613300	0.921100	0.569000
C671	C67	0.652600	0.983900	0.502600
H191	H19	0.701100	0.980300	0.503700
C681	C68	0.620400	0.052400	0.434100
C691	C69	0.547500	0.056200	0.434600
H201	H20	0.525600	0.101900	0.388700
C701	C70	0.506200	0.993800	0.501800
C711	C71	0.541800	0.925900	0.567300
H211	H21	0.516000	0.882500	0.611000
C721	C72	0.661700	0.124000	0.364900
C731	C73	0.429300	0.000200	0.504800
C741	C74	0.395900	0.078700	0.491200
H221	H22	0.422900	0.127600	0.481500
C751	C75	0.323400	0.085600	0.491800
C761	C76	0.282500	0.013500	0.510100
H231	H23	0.234000	0.017600	0.511800
C771	C77	0.315100	0.934900	0.525900
C781	C78	0.387100	0.929100	0.521200
H241	H24	0.408000	0.875800	0.529400
C791	C79	0.271500	0.857600	0.552600
C801	C80	0.288100	0.168900	0.467700
Sm71	Sm7	0.332940	0.679400	0.706440
Sm81	Sm8	0.653800	0.652860	0.815650
O491	O49	0.423200	0.649900	0.895100
O501	O50	0.450900	0.676700	0.605600
O511	O51	0.558400	0.625400	0.648900
O521	O52	0.538900	0.660000	0.936100
O531	O53	0.659300	0.590600	0.063600
O541	O54	0.658300	0.472800	0.198200
O551	O55	0.646200	0.498400	0.819000
O561	O56	0.663800	0.380900	0.948400
O571	O57	0.614400	0.786500	0.690300
O581	O58	0.715600	0.852700	0.657300
O591	O59	0.726500	0.117500	0.360500
O601	O60	0.627300	0.188000	0.320300
O611	O61	0.324800	0.234500	0.478000
O621	O62	0.223600	0.169100	0.438300
O631	O63	0.207300	0.866400	0.579800
O641	O64	0.302300	0.787500	0.546800
