data_HOGQIF_clean_PM
_symmetry_space_group_name_H-M	'P1'
_cell_length_a	6.435500
_cell_length_b	13.462000
_cell_length_c	13.753000
_cell_angle_alpha	61.532000
_cell_angle_beta	82.433000
_cell_angle_gamma	81.244000
_symmetry_Int_Tables_number 1

loop_
_symmetry_equiv_pos_as_xyz
'x,y,z'

loop_
_atom_site_label
_atom_site_type_symbol
_atom_site_fract_x
_atom_site_fract_y
_atom_site_fract_z
Gd11	Gd1	0.578500	0.450970	0.829290
O11	O1	0.636400	0.605600	0.846900
O21	O2	0.447100	0.636000	0.978890
O31	O3	0.792700	0.540470	0.105360
O41	O4	0.072800	0.601700	0.127540
O51	O5	0.587600	0.380500	0.321200
O61	O6	0.927300	0.351300	0.275500
H11	H1	0.891200	0.385800	0.213200
O71	O7	0.390700	0.378400	0.734300
O81	O8	0.582400	0.253100	0.869500
C11	C1	0.601200	0.650800	0.909500
C21	C2	0.919900	0.615700	0.073500
C31	C3	0.886200	0.723500	0.968500
C41	C4	0.748000	0.736900	0.891400
C51	C5	0.741200	0.835900	0.791000
H21	H2	0.654200	0.843200	0.738600
C61	C6	0.859400	0.924900	0.765600
C71	C7	0.988900	0.915300	0.846000
C81	C8	0.002100	0.812800	0.944300
H31	H3	0.092500	0.803900	0.996000
C91	C9	0.840500	0.027200	0.652100
C101	C10	0.013400	0.069000	0.582500
H41	H4	0.147300	0.033500	0.604000
C111	C11	0.990300	0.164600	0.479400
H51	H5	0.108100	0.192400	0.431900
C121	C12	0.789500	0.218400	0.448100
C131	C13	0.614100	0.174400	0.518500
H61	H6	0.479800	0.209300	0.497400
C141	C14	0.638900	0.079200	0.619500
H71	H7	0.521100	0.049400	0.666100
C151	C15	0.759800	0.323600	0.341400
C161	C16	0.107400	0.009900	0.833100
C171	C17	0.019700	0.122100	0.782700
H81	H8	0.886200	0.139600	0.756200
C181	C18	0.130000	0.208200	0.771500
H91	H9	0.071600	0.283400	0.735800
C191	C19	0.326600	0.183300	0.813200
C201	C20	0.413000	0.069900	0.866700
H101	H10	0.543700	0.052000	0.896100
C211	C21	0.304000	0.984000	0.875800
H111	H11	0.362800	0.908900	0.910700
C221	C22	0.442400	0.275900	0.804400
Gd21	Gd2	0.421500	0.549030	0.170710
O91	O9	0.363600	0.394400	0.153100
O101	O10	0.552900	0.364000	0.021110
O111	O11	0.207300	0.459530	0.894640
O121	O12	0.927200	0.398300	0.872460
O131	O13	0.412400	0.619500	0.678800
O141	O14	0.072700	0.648700	0.724500
H121	H12	0.108800	0.614200	0.786800
O151	O15	0.609300	0.621600	0.265700
O161	O16	0.417600	0.746900	0.130500
C231	C23	0.398800	0.349200	0.090500
C241	C24	0.080100	0.384300	0.926500
C251	C25	0.113800	0.276500	0.031500
C261	C26	0.252000	0.263100	0.108600
C271	C27	0.258800	0.164100	0.209000
H131	H13	0.345800	0.156800	0.261400
C281	C28	0.140600	0.075100	0.234400
C291	C29	0.011100	0.084700	0.154000
C301	C30	0.997900	0.187200	0.055700
H141	H14	0.907500	0.196100	0.004000
C311	C31	0.159500	0.972800	0.347900
C321	C32	0.986600	0.931000	0.417500
H151	H15	0.852700	0.966500	0.396000
C331	C33	0.009700	0.835400	0.520600
H161	H16	0.891900	0.807600	0.568100
C341	C34	0.210500	0.781600	0.551900
C351	C35	0.385900	0.825600	0.481500
H171	H17	0.520200	0.790700	0.502600
C361	C36	0.361100	0.920800	0.380500
H181	H18	0.478900	0.950600	0.333900
C371	C37	0.240200	0.676400	0.658600
C381	C38	0.892600	0.990100	0.166900
C391	C39	0.980300	0.877900	0.217300
H191	H19	0.113800	0.860400	0.243800
C401	C40	0.870000	0.791800	0.228500
H201	H20	0.928400	0.716600	0.264200
C411	C41	0.673400	0.816700	0.186800
C421	C42	0.587000	0.930100	0.133300
H211	H21	0.456300	0.948000	0.103900
C431	C43	0.696000	0.016000	0.124200
H221	H22	0.637200	0.091100	0.089300
C441	C44	0.557600	0.724100	0.195600
