data_HOGSIG_clean_PM
_symmetry_space_group_name_H-M	'P1'
_cell_length_a	7.602000
_cell_length_b	14.251000
_cell_length_c	14.251000
_cell_angle_alpha	97.952300
_cell_angle_beta	101.470000
_cell_angle_gamma	101.470000
_symmetry_Int_Tables_number 1

loop_
_symmetry_equiv_pos_as_xyz
'x,y,z'

loop_
_atom_site_label
_atom_site_type_symbol
_atom_site_fract_x
_atom_site_fract_y
_atom_site_fract_z
Ni11	Ni1	0.750000	0.589430	0.410570
Ni21	Ni2	0.250000	0.410570	0.589430
Ni31	Ni3	0.500000	0.000000	0.000000
Ni41	Ni4	0.000000	0.000000	0.000000
H11	H1	0.957200	0.783000	0.936800
H21	H2	0.904200	0.662500	0.801700
H31	H3	0.863300	0.864700	0.632100
H41	H4	0.912600	0.979700	0.771700
H51	H5	0.628800	0.774300	0.382500
H61	H6	0.620500	0.882400	0.276000
H71	H7	0.542800	0.063200	0.217000
H81	H8	0.595800	0.198300	0.337500
H91	H9	0.636700	0.367900	0.135300
H101	H10	0.587400	0.228300	0.020300
H111	H11	0.871200	0.617500	0.225700
H121	H12	0.879500	0.724000	0.117600
H131	H13	0.042800	0.217000	0.063200
H141	H14	0.095800	0.337500	0.198300
H151	H15	0.136700	0.135300	0.367900
H161	H16	0.087400	0.020300	0.228300
H171	H17	0.371200	0.225700	0.617500
H181	H18	0.379500	0.117600	0.724000
H191	H19	0.457200	0.936800	0.783000
H201	H20	0.404200	0.801700	0.662500
H211	H21	0.363300	0.632100	0.864700
H221	H22	0.412600	0.771700	0.979700
H231	H23	0.128800	0.382500	0.774300
H241	H24	0.120500	0.276000	0.882400
C11	C1	0.938100	0.799700	0.875300
C21	C2	0.906600	0.726400	0.794000
C31	C3	0.878500	0.749700	0.700500
C41	C4	0.881500	0.846400	0.692800
C51	C5	0.912500	0.915500	0.777900
C61	C6	0.841700	0.670000	0.610000
C71	C7	0.678100	0.763500	0.328300
C81	C8	0.673700	0.829800	0.264600
C91	C9	0.561900	0.124700	0.200300
C101	C10	0.593400	0.206000	0.273600
C111	C11	0.621500	0.299500	0.250300
C121	C12	0.618500	0.307200	0.153600
C131	C13	0.587500	0.222100	0.084500
C141	C14	0.658300	0.390000	0.330000
C151	C15	0.821900	0.671700	0.236500
C161	C16	0.826300	0.735400	0.170200
C171	C17	0.061900	0.200300	0.124700
C181	C18	0.093400	0.273600	0.206000
C191	C19	0.121500	0.250300	0.299500
C201	C20	0.118500	0.153600	0.307200
C211	C21	0.087500	0.084500	0.222100
C221	C22	0.158300	0.330000	0.390000
C231	C23	0.321900	0.236500	0.671700
C241	C24	0.326300	0.170200	0.735400
C251	C25	0.438100	0.875300	0.799700
C261	C26	0.406600	0.794000	0.726400
C271	C27	0.378500	0.700500	0.749700
C281	C28	0.381500	0.692800	0.846400
C291	C29	0.412500	0.777900	0.915500
C301	C30	0.341700	0.610000	0.670000
C311	C31	0.178100	0.328300	0.763500
C321	C32	0.173700	0.264600	0.829800
C331	C33	0.750000	0.816200	0.183800
C341	C34	0.750000	0.887200	0.112800
C351	C35	0.250000	0.183800	0.816200
C361	C36	0.250000	0.112800	0.887200
N11	N1	0.942100	0.894490	0.868510
N21	N2	0.557900	0.131490	0.105510
N31	N3	0.057900	0.105510	0.131490
N41	N4	0.442100	0.868510	0.894490
N51	N5	0.750000	0.684500	0.315500
N61	N6	0.250000	0.315500	0.684500
N71	N7	0.250000	0.952500	0.047500
N81	N8	0.250000	0.896900	0.103100
N91	N9	0.250000	0.843200	0.156800
N101	N10	0.750000	0.047500	0.952500
N111	N11	0.750000	0.103100	0.896900
N121	N12	0.750000	0.156800	0.843200
O11	O1	0.824900	0.698000	0.528820
O21	O2	0.829300	0.582000	0.622200
O31	O3	0.627900	0.936590	0.109690
O41	O4	0.675100	0.471180	0.302000
O51	O5	0.670700	0.377800	0.418000
O61	O6	0.872100	0.890310	0.063410
O71	O7	0.175100	0.302000	0.471180
O81	O8	0.170700	0.418000	0.377800
O91	O9	0.372100	0.063410	0.890310
O101	O10	0.324900	0.528820	0.698000
O111	O11	0.329300	0.622200	0.582000
O121	O12	0.127900	0.109690	0.936590
