data_HOHJAR_clean_PM
_symmetry_space_group_name_H-M	'P1'
_cell_length_a	10.483900
_cell_length_b	11.840000
_cell_length_c	14.034000
_cell_angle_alpha	105.645000
_cell_angle_beta	101.222000
_cell_angle_gamma	112.358000
_symmetry_Int_Tables_number 1

loop_
_symmetry_equiv_pos_as_xyz
'x,y,z'

loop_
_atom_site_label
_atom_site_type_symbol
_atom_site_fract_x
_atom_site_fract_y
_atom_site_fract_z
Fe11	Fe1	0.813880	0.006510	0.785860
Fe21	Fe2	0.447800	0.725170	0.691380
N11	N1	0.049020	0.068560	0.841000
C11	C1	0.111100	0.108110	0.944870
H11	H1	0.051300	0.104300	0.986200
C21	C2	0.259600	0.154510	0.994270
C31	C3	0.349300	0.159000	0.932860
H21	H2	0.449800	0.192300	0.963300
C41	C4	0.135700	0.069200	0.782130
H31	H3	0.093900	0.039600	0.709700
C51	C5	0.284300	0.111900	0.823970
H41	H4	0.340300	0.109300	0.780300
O11	O1	0.447590	0.258450	0.160010
O21	O2	0.215830	0.145110	0.150800
N21	N2	0.274120	0.748460	0.752160
C61	C6	0.312000	0.189280	0.111180
C71	C7	0.305500	0.799910	0.856270
H51	H5	0.400400	0.829200	0.899100
C81	C8	0.204400	0.812080	0.904050
C91	C9	0.063900	0.773010	0.840830
H61	H6	0.993700	0.780200	0.870100
N31	N3	0.836640	0.165890	0.729510
C101	C10	0.760000	0.137340	0.630360
H71	H7	0.704700	0.049100	0.585600
C111	C11	0.923600	0.394800	0.759880
H81	H8	0.981400	0.482200	0.805700
C121	C12	0.917300	0.293600	0.792990
H91	H9	0.970900	0.314800	0.861900
C131	C13	0.759500	0.232890	0.591580
C141	C14	0.843500	0.364900	0.658220
H101	H10	0.845600	0.431700	0.634700
O31	O3	0.574590	0.941100	0.742470
O41	O4	0.396770	0.302500	0.381650
O51	O5	0.158850	0.872050	0.064350
O61	O6	0.210660	0.111310	0.360270
O71	O7	0.665020	0.284850	0.451790
O81	O8	0.600690	0.072120	0.423470
N41	N4	0.326980	0.510210	0.634410
O91	O9	0.387890	0.916990	0.070180
C151	C15	0.334700	0.439860	0.545150
H111	H11	0.385800	0.485300	0.509100
C161	C16	0.254900	0.871170	0.022460
C171	C17	0.295000	0.233820	0.406890
C181	C18	0.137300	0.710600	0.691510
H121	H12	0.113200	0.674800	0.619000
C191	C19	0.030700	0.722700	0.732310
H131	H13	0.938100	0.697500	0.687800
C201	C20	0.667400	0.192030	0.479420
C211	C21	0.270800	0.303410	0.503640
C221	C22	0.251500	0.443800	0.684720
H141	H14	0.245400	0.491100	0.746900
C231	C23	0.190400	0.235500	0.555670
H151	H15	0.143300	0.143700	0.529100
C241	C24	0.181900	0.307100	0.647700
H161	H16	0.129800	0.264000	0.684500
Fe31	Fe3	0.186120	0.993490	0.214140
Fe41	Fe4	0.552200	0.274830	0.308610
N51	N5	0.950980	0.931440	0.159000
C251	C25	0.888900	0.891890	0.055130
H171	H17	0.948700	0.895700	0.013800
C261	C26	0.740400	0.845490	0.005730
C271	C27	0.650700	0.841000	0.067140
H181	H18	0.550200	0.807700	0.036700
C281	C28	0.864300	0.930800	0.217870
H191	H19	0.906100	0.960400	0.290300
C291	C29	0.715700	0.888100	0.176030
H201	H20	0.659700	0.890700	0.219700
O101	O10	0.552410	0.741550	0.839990
O111	O11	0.784170	0.854890	0.849200
N61	N6	0.725880	0.251540	0.247840
C301	C30	0.688000	0.810720	0.888820
C311	C31	0.694500	0.200090	0.143730
H211	H21	0.599600	0.170800	0.100900
C321	C32	0.795600	0.187920	0.095950
C331	C33	0.936100	0.226990	0.159170
H221	H22	0.006300	0.219800	0.129900
N71	N7	0.163360	0.834110	0.270490
C341	C34	0.240000	0.862660	0.369640
H231	H23	0.295300	0.950900	0.414400
C351	C35	0.076400	0.605200	0.240120
H241	H24	0.018600	0.517800	0.194300
C361	C36	0.082700	0.706400	0.207010
H251	H25	0.029100	0.685200	0.138100
C371	C37	0.240500	0.767110	0.408420
C381	C38	0.156500	0.635100	0.341780
H261	H26	0.154400	0.568300	0.365300
O121	O12	0.425410	0.058900	0.257530
O131	O13	0.603230	0.697500	0.618350
O141	O14	0.841150	0.127950	0.935650
O151	O15	0.789340	0.888690	0.639730
O161	O16	0.334980	0.715150	0.548210
O171	O17	0.399310	0.927880	0.576530
N81	N8	0.673020	0.489790	0.365590
O181	O18	0.612110	0.083010	0.929820
C391	C39	0.665300	0.560140	0.454850
H271	H27	0.614200	0.514700	0.490900
C401	C40	0.745100	0.128830	0.977540
C411	C41	0.705000	0.766180	0.593110
C421	C42	0.862700	0.289400	0.308490
H281	H28	0.886800	0.325200	0.381000
C431	C43	0.969300	0.277300	0.267690
H291	H29	0.061900	0.302500	0.312200
C441	C44	0.332600	0.807970	0.520580
C451	C45	0.729200	0.696590	0.496360
C461	C46	0.748500	0.556200	0.315280
H301	H30	0.754600	0.508900	0.253100
C471	C47	0.809600	0.764500	0.444330
H311	H31	0.856700	0.856300	0.470900
C481	C48	0.818100	0.692900	0.352300
H321	H32	0.870200	0.736000	0.315500
