data_HOJNIF_clean_PM
_symmetry_space_group_name_H-M	'P1'
_cell_length_a	8.797700
_cell_length_b	20.732300
_cell_length_c	34.365200
_cell_angle_alpha	90.000000
_cell_angle_beta	90.000000
_cell_angle_gamma	90.000000
_symmetry_Int_Tables_number 1

loop_
_symmetry_equiv_pos_as_xyz
'x,y,z'

loop_
_atom_site_label
_atom_site_type_symbol
_atom_site_fract_x
_atom_site_fract_y
_atom_site_fract_z
O11	O1	0.241700	0.332720	0.679410
C11	C1	0.102200	0.319800	0.682450
O21	O2	0.006200	0.334680	0.657490
C21	C2	0.050300	0.284300	0.717400
C31	C3	0.152400	0.262600	0.744950
C41	C4	0.103300	0.228700	0.777350
O31	O3	0.244700	0.458100	0.635270
C51	C5	0.259200	0.592200	0.625400
H11	H1	0.257700	0.271100	0.741600
H21	H2	0.174800	0.214000	0.796000
H31	H3	0.353000	0.569100	0.626400
O41	O4	0.241700	0.832720	0.179410
C61	C6	0.102200	0.819800	0.182450
O51	O5	0.006200	0.834680	0.157490
C71	C7	0.050300	0.784300	0.217400
C81	C8	0.152400	0.762600	0.244950
C91	C9	0.103300	0.728700	0.277350
O61	O6	0.244700	0.958100	0.135270
C101	C10	0.259200	0.092200	0.125400
H41	H4	0.257700	0.771100	0.241600
H51	H5	0.174800	0.714000	0.296000
H61	H6	0.353000	0.069100	0.126400
O71	O7	0.741700	0.332720	0.179410
C111	C11	0.602200	0.319800	0.182450
O81	O8	0.506200	0.334680	0.157490
C121	C12	0.550300	0.284300	0.217400
C131	C13	0.652400	0.262600	0.244950
C141	C14	0.603300	0.228700	0.277350
O91	O9	0.744700	0.458100	0.135270
C151	C15	0.759200	0.592200	0.125400
H71	H7	0.757700	0.271100	0.241600
H81	H8	0.674800	0.214000	0.296000
H91	H9	0.853000	0.569100	0.126400
O101	O10	0.741700	0.832720	0.679410
C161	C16	0.602200	0.819800	0.682450
O111	O11	0.506200	0.834680	0.657490
C171	C17	0.550300	0.784300	0.717400
C181	C18	0.652400	0.762600	0.744950
C191	C19	0.603300	0.728700	0.777350
O121	O12	0.744700	0.958100	0.635270
C201	C20	0.759200	0.092200	0.625400
H101	H10	0.757700	0.771100	0.741600
H111	H11	0.674800	0.714000	0.796000
H121	H12	0.853000	0.069100	0.626400
O131	O13	0.508300	0.417280	0.679410
C211	C21	0.647800	0.430200	0.682450
O141	O14	0.743800	0.415320	0.657490
C221	C22	0.699700	0.465700	0.717400
C231	C23	0.597600	0.487400	0.744950
C241	C24	0.646700	0.521300	0.777350
O151	O15	0.505300	0.291900	0.635270
C251	C25	0.490800	0.157800	0.625400
H131	H13	0.492300	0.478900	0.741600
H141	H14	0.575200	0.536000	0.796000
H151	H15	0.397000	0.180900	0.626400
O161	O16	0.508300	0.917280	0.179410
C261	C26	0.647800	0.930200	0.182450
O171	O17	0.743800	0.915320	0.157490
C271	C27	0.699700	0.965700	0.217400
C281	C28	0.597600	0.987400	0.244950
C291	C29	0.646700	0.021300	0.277350
O181	O18	0.505300	0.791900	0.135270
C301	C30	0.490800	0.657800	0.125400
H161	H16	0.492300	0.978900	0.241600
H171	H17	0.575200	0.036000	0.296000
H181	H18	0.397000	0.680900	0.126400
O191	O19	0.008300	0.417280	0.179410
C311	C31	0.147800	0.430200	0.182450
O201	O20	0.243800	0.415320	0.157490
C321	C32	0.199700	0.465700	0.217400
C331	C33	0.097600	0.487400	0.244950
C341	C34	0.146700	0.521300	0.277350
O211	O21	0.005300	0.291900	0.135270
C351	C35	0.990800	0.157800	0.125400
H191	H19	0.992300	0.478900	0.241600
H201	H20	0.075200	0.536000	0.296000
H211	H21	0.897000	0.180900	0.126400
O221	O22	0.008300	0.917280	0.679410
C361	C36	0.147800	0.930200	0.682450
O231	O23	0.243800	0.915320	0.657490
C371	C37	0.199700	0.965700	0.717400
C381	C38	0.097600	0.987400	0.744950
C391	C39	0.146700	0.021300	0.777350
O241	O24	0.005300	0.791900	0.635270
C401	C40	0.990800	0.657800	0.625400
H221	H22	0.992300	0.978900	0.741600
H231	H23	0.075200	0.036000	0.796000
H241	H24	0.897000	0.680900	0.626400
O251	O25	0.508300	0.332720	0.070590
C411	C41	0.647800	0.319800	0.067550
O261	O26	0.743800	0.334680	0.092510
C421	C42	0.699700	0.284300	0.032600
C431	C43	0.597600	0.262600	0.005050
C441	C44	0.646700	0.228700	0.972650
O271	O27	0.505300	0.458100	0.114730
C451	C45	0.490800	0.592200	0.124600
H251	H25	0.492300	0.271100	0.008400
H261	H26	0.575200	0.214000	0.954000
H271	H27	0.397000	0.569100	0.123600
O281	O28	0.508300	0.832720	0.570590
C461	C46	0.647800	0.819800	0.567550
O291	O29	0.743800	0.834680	0.592510
C471	C47	0.699700	0.784300	0.532600
C481	C48	0.597600	0.762600	0.505050
C491	C49	0.646700	0.728700	0.472650
O301	O30	0.505300	0.958100	0.614730
C501	C50	0.490800	0.092200	0.624600
H281	H28	0.492300	0.771100	0.508400
H291	H29	0.575200	0.714000	0.454000
H301	H30	0.397000	0.069100	0.623600
O311	O31	0.008300	0.332720	0.570590
C511	C51	0.147800	0.319800	0.567550
O321	O32	0.243800	0.334680	0.592510
C521	C52	0.199700	0.284300	0.532600
C531	C53	0.097600	0.262600	0.505050
C541	C54	0.146700	0.228700	0.472650
O331	O33	0.005300	0.458100	0.614730
C551	C55	0.990800	0.592200	0.624600
H311	H31	0.992300	0.271100	0.508400
H321	H32	0.075200	0.214000	0.454000
H331	H33	0.897000	0.569100	0.623600
O341	O34	0.008300	0.832720	0.070590
C561	C56	0.147800	0.819800	0.067550
O351	O35	0.243800	0.834680	0.092510
C571	C57	0.199700	0.784300	0.032600
C581	C58	0.097600	0.762600	0.005050
C591	C59	0.146700	0.728700	0.972650
O361	O36	0.005300	0.958100	0.114730
C601	C60	0.990800	0.092200	0.124600
H341	H34	0.992300	0.771100	0.008400
H351	H35	0.075200	0.714000	0.954000
H361	H36	0.897000	0.069100	0.123600
O371	O37	0.241700	0.417280	0.070590
C611	C61	0.102200	0.430200	0.067550
O381	O38	0.006200	0.415320	0.092510
C621	C62	0.050300	0.465700	0.032600
C631	C63	0.152400	0.487400	0.005050
C641	C64	0.103300	0.521300	0.972650
O391	O39	0.244700	0.291900	0.114730
C651	C65	0.259200	0.157800	0.124600
H371	H37	0.257700	0.478900	0.008400
H381	H38	0.174800	0.536000	0.954000
H391	H39	0.353000	0.180900	0.123600
O401	O40	0.241700	0.917280	0.570590
C661	C66	0.102200	0.930200	0.567550
O411	O41	0.006200	0.915320	0.592510
C671	C67	0.050300	0.965700	0.532600
C681	C68	0.152400	0.987400	0.505050
C691	C69	0.103300	0.021300	0.472650
O421	O42	0.244700	0.791900	0.614730
C701	C70	0.259200	0.657800	0.624600
H401	H40	0.257700	0.978900	0.508400
H411	H41	0.174800	0.036000	0.454000
H421	H42	0.353000	0.680900	0.623600
O431	O43	0.741700	0.417280	0.570590
C711	C71	0.602200	0.430200	0.567550
O441	O44	0.506200	0.415320	0.592510
C721	C72	0.550300	0.465700	0.532600
C731	C73	0.652400	0.487400	0.505050
C741	C74	0.603300	0.521300	0.472650
O451	O45	0.744700	0.291900	0.614730
C751	C75	0.759200	0.157800	0.624600
H431	H43	0.757700	0.478900	0.508400
H441	H44	0.674800	0.536000	0.454000
H451	H45	0.853000	0.180900	0.623600
O461	O46	0.741700	0.917280	0.070590
C761	C76	0.602200	0.930200	0.067550
O471	O47	0.506200	0.915320	0.092510
C771	C77	0.550300	0.965700	0.032600
C781	C78	0.652400	0.987400	0.005050
C791	C79	0.603300	0.021300	0.972650
O481	O48	0.744700	0.791900	0.114730
C801	C80	0.759200	0.657800	0.124600
H461	H46	0.757700	0.978900	0.008400
H471	H47	0.674800	0.036000	0.954000
H481	H48	0.853000	0.680900	0.123600
O491	O49	0.758300	0.667280	0.320590
C811	C81	0.897800	0.680200	0.317550
O501	O50	0.993800	0.665320	0.342510
C821	C82	0.949700	0.715700	0.282600
C831	C83	0.847600	0.737400	0.255050
C841	C84	0.896700	0.771300	0.222650
O511	O51	0.755300	0.541900	0.364730
C851	C85	0.740800	0.407800	0.374600
H491	H49	0.742300	0.728900	0.258400
H501	H50	0.825200	0.786000	0.204000
H511	H51	0.647000	0.430900	0.373600
O521	O52	0.758300	0.167280	0.820590
C861	C86	0.897800	0.180200	0.817550
O531	O53	0.993800	0.165320	0.842510
C871	C87	0.949700	0.215700	0.782600
C881	C88	0.847600	0.237400	0.755050
C891	C89	0.896700	0.271300	0.722650
O541	O54	0.755300	0.041900	0.864730
C901	C90	0.740800	0.907800	0.874600
H521	H52	0.742300	0.228900	0.758400
H531	H53	0.825200	0.286000	0.704000
H541	H54	0.647000	0.930900	0.873600
O551	O55	0.258300	0.667280	0.820590
C911	C91	0.397800	0.680200	0.817550
O561	O56	0.493800	0.665320	0.842510
C921	C92	0.449700	0.715700	0.782600
C931	C93	0.347600	0.737400	0.755050
C941	C94	0.396700	0.771300	0.722650
O571	O57	0.255300	0.541900	0.864730
C951	C95	0.240800	0.407800	0.874600
H551	H55	0.242300	0.728900	0.758400
H561	H56	0.325200	0.786000	0.704000
H571	H57	0.147000	0.430900	0.873600
O581	O58	0.258300	0.167280	0.320590
C961	C96	0.397800	0.180200	0.317550
O591	O59	0.493800	0.165320	0.342510
C971	C97	0.449700	0.215700	0.282600
C981	C98	0.347600	0.237400	0.255050
C991	C99	0.396700	0.271300	0.222650
O601	O60	0.255300	0.041900	0.364730
C1001	C100	0.240800	0.907800	0.374600
H581	H58	0.242300	0.228900	0.258400
H591	H59	0.325200	0.286000	0.204000
H601	H60	0.147000	0.930900	0.373600
O611	O61	0.491700	0.582720	0.320590
C1011	C101	0.352200	0.569800	0.317550
O621	O62	0.256200	0.584680	0.342510
C1021	C102	0.300300	0.534300	0.282600
C1031	C103	0.402400	0.512600	0.255050
C1041	C104	0.353300	0.478700	0.222650
O631	O63	0.494700	0.708100	0.364730
C1051	C105	0.509200	0.842200	0.374600
H611	H61	0.507700	0.521100	0.258400
H621	H62	0.424800	0.464000	0.204000
H631	H63	0.603000	0.819100	0.373600
O641	O64	0.491700	0.082720	0.820590
C1061	C106	0.352200	0.069800	0.817550
O651	O65	0.256200	0.084680	0.842510
C1071	C107	0.300300	0.034300	0.782600
C1081	C108	0.402400	0.012600	0.755050
C1091	C109	0.353300	0.978700	0.722650
O661	O66	0.494700	0.208100	0.864730
C1101	C110	0.509200	0.342200	0.874600
H641	H64	0.507700	0.021100	0.758400
H651	H65	0.424800	0.964000	0.704000
H661	H66	0.603000	0.319100	0.873600
O671	O67	0.991700	0.582720	0.820590
C1111	C111	0.852200	0.569800	0.817550
O681	O68	0.756200	0.584680	0.842510
C1121	C112	0.800300	0.534300	0.782600
C1131	C113	0.902400	0.512600	0.755050
C1141	C114	0.853300	0.478700	0.722650
O691	O69	0.994700	0.708100	0.864730
C1151	C115	0.009200	0.842200	0.874600
H671	H67	0.007700	0.521100	0.758400
H681	H68	0.924800	0.464000	0.704000
H691	H69	0.103000	0.819100	0.873600
O701	O70	0.991700	0.082720	0.320590
C1161	C116	0.852200	0.069800	0.317550
O711	O71	0.756200	0.084680	0.342510
C1171	C117	0.800300	0.034300	0.282600
C1181	C118	0.902400	0.012600	0.255050
C1191	C119	0.853300	0.978700	0.222650
O721	O72	0.994700	0.208100	0.364730
C1201	C120	0.009200	0.342200	0.374600
H701	H70	0.007700	0.021100	0.258400
H711	H71	0.924800	0.964000	0.204000
H721	H72	0.103000	0.319100	0.373600
O731	O73	0.491700	0.667280	0.929410
C1211	C121	0.352200	0.680200	0.932450
O741	O74	0.256200	0.665320	0.907490
C1221	C122	0.300300	0.715700	0.967400
C1231	C123	0.402400	0.737400	0.994950
C1241	C124	0.353300	0.771300	0.027350
O751	O75	0.494700	0.541900	0.885270
C1251	C125	0.509200	0.407800	0.875400
H731	H73	0.507700	0.728900	0.991600
H741	H74	0.424800	0.786000	0.046000
H751	H75	0.603000	0.430900	0.876400
O761	O76	0.491700	0.167280	0.429410
C1261	C126	0.352200	0.180200	0.432450
O771	O77	0.256200	0.165320	0.407490
C1271	C127	0.300300	0.215700	0.467400
C1281	C128	0.402400	0.237400	0.494950
C1291	C129	0.353300	0.271300	0.527350
O781	O78	0.494700	0.041900	0.385270
C1301	C130	0.509200	0.907800	0.375400
H761	H76	0.507700	0.228900	0.491600
H771	H77	0.424800	0.286000	0.546000
H781	H78	0.603000	0.930900	0.376400
O791	O79	0.991700	0.667280	0.429410
C1311	C131	0.852200	0.680200	0.432450
O801	O80	0.756200	0.665320	0.407490
C1321	C132	0.800300	0.715700	0.467400
C1331	C133	0.902400	0.737400	0.494950
C1341	C134	0.853300	0.771300	0.527350
O811	O81	0.994700	0.541900	0.385270
C1351	C135	0.009200	0.407800	0.375400
H791	H79	0.007700	0.728900	0.491600
H801	H80	0.924800	0.786000	0.546000
H811	H81	0.103000	0.430900	0.376400
O821	O82	0.991700	0.167280	0.929410
C1361	C136	0.852200	0.180200	0.932450
O831	O83	0.756200	0.165320	0.907490
C1371	C137	0.800300	0.215700	0.967400
C1381	C138	0.902400	0.237400	0.994950
C1391	C139	0.853300	0.271300	0.027350
O841	O84	0.994700	0.041900	0.885270
C1401	C140	0.009200	0.907800	0.875400
H821	H82	0.007700	0.228900	0.991600
H831	H83	0.924800	0.286000	0.046000
H841	H84	0.103000	0.930900	0.876400
O851	O85	0.758300	0.582720	0.929410
C1411	C141	0.897800	0.569800	0.932450
O861	O86	0.993800	0.584680	0.907490
C1421	C142	0.949700	0.534300	0.967400
C1431	C143	0.847600	0.512600	0.994950
C1441	C144	0.896700	0.478700	0.027350
O871	O87	0.755300	0.708100	0.885270
C1451	C145	0.740800	0.842200	0.875400
H851	H85	0.742300	0.521100	0.991600
H861	H86	0.825200	0.464000	0.046000
H871	H87	0.647000	0.819100	0.876400
O881	O88	0.758300	0.082720	0.429410
C1461	C146	0.897800	0.069800	0.432450
O891	O89	0.993800	0.084680	0.407490
C1471	C147	0.949700	0.034300	0.467400
C1481	C148	0.847600	0.012600	0.494950
C1491	C149	0.896700	0.978700	0.527350
O901	O90	0.755300	0.208100	0.385270
C1501	C150	0.740800	0.342200	0.375400
H881	H88	0.742300	0.021100	0.491600
H891	H89	0.825200	0.964000	0.546000
H901	H90	0.647000	0.319100	0.376400
O911	O91	0.258300	0.582720	0.429410
C1511	C151	0.397800	0.569800	0.432450
O921	O92	0.493800	0.584680	0.407490
C1521	C152	0.449700	0.534300	0.467400
C1531	C153	0.347600	0.512600	0.494950
C1541	C154	0.396700	0.478700	0.527350
O931	O93	0.255300	0.708100	0.385270
C1551	C155	0.240800	0.842200	0.375400
H911	H91	0.242300	0.521100	0.491600
H921	H92	0.325200	0.464000	0.546000
H931	H93	0.147000	0.819100	0.376400
O941	O94	0.258300	0.082720	0.929410
C1561	C156	0.397800	0.069800	0.932450
O951	O95	0.493800	0.084680	0.907490
C1571	C157	0.449700	0.034300	0.967400
C1581	C158	0.347600	0.012600	0.994950
C1591	C159	0.396700	0.978700	0.027350
O961	O96	0.255300	0.208100	0.885270
C1601	C160	0.240800	0.342200	0.875400
H941	H94	0.242300	0.021100	0.991600
H951	H95	0.325200	0.964000	0.046000
H961	H96	0.147000	0.319100	0.876400
Sc11	Sc1	0.375000	0.375000	0.635470
Sc21	Sc2	0.375000	0.875000	0.135470
Sc31	Sc3	0.875000	0.375000	0.135470
Sc41	Sc4	0.875000	0.875000	0.635470
Sc51	Sc5	0.375000	0.375000	0.114530
Sc61	Sc6	0.375000	0.875000	0.614530
Sc71	Sc7	0.875000	0.375000	0.614530
Sc81	Sc8	0.875000	0.875000	0.114530
Sc91	Sc9	0.625000	0.625000	0.364530
Sc101	Sc10	0.625000	0.125000	0.864530
Sc111	Sc11	0.125000	0.625000	0.864530
Sc121	Sc12	0.125000	0.125000	0.364530
Sc131	Sc13	0.625000	0.625000	0.885470
Sc141	Sc14	0.625000	0.125000	0.385470
Sc151	Sc15	0.125000	0.625000	0.385470
Sc161	Sc16	0.125000	0.125000	0.885470
C1611	C161	0.125000	0.486500	0.625000
C1621	C162	0.125000	0.558200	0.625000
C1631	C163	0.125000	0.986500	0.125000
C1641	C164	0.125000	0.058200	0.125000
C1651	C165	0.625000	0.986500	0.625000
C1661	C166	0.625000	0.058200	0.625000
C1671	C167	0.625000	0.263500	0.625000
C1681	C168	0.625000	0.191800	0.625000
C1691	C169	0.625000	0.763500	0.125000
C1701	C170	0.625000	0.691800	0.125000
C1711	C171	0.625000	0.486500	0.125000
C1721	C172	0.625000	0.558200	0.125000
C1731	C173	0.125000	0.263500	0.125000
C1741	C174	0.125000	0.191800	0.125000
C1751	C175	0.125000	0.763500	0.625000
C1761	C176	0.125000	0.691800	0.625000
C1771	C177	0.875000	0.513500	0.375000
C1781	C178	0.875000	0.441800	0.375000
C1791	C179	0.875000	0.013500	0.875000
C1801	C180	0.875000	0.941800	0.875000
C1811	C181	0.375000	0.736500	0.375000
C1821	C182	0.375000	0.808200	0.375000
C1831	C183	0.375000	0.236500	0.875000
C1841	C184	0.375000	0.308200	0.875000
C1851	C185	0.375000	0.513500	0.875000
C1861	C186	0.375000	0.441800	0.875000
C1871	C187	0.375000	0.013500	0.375000
C1881	C188	0.375000	0.941800	0.375000
C1891	C189	0.875000	0.736500	0.875000
C1901	C190	0.875000	0.808200	0.875000
C1911	C191	0.875000	0.236500	0.375000
C1921	C192	0.875000	0.308200	0.375000
