data_HOJPAZ_clean_PM
_symmetry_space_group_name_H-M	'P1'
_cell_length_a	8.851000
_cell_length_b	20.676000
_cell_length_c	34.203000
_cell_angle_alpha	90.000000
_cell_angle_beta	90.000000
_cell_angle_gamma	90.000000
_symmetry_Int_Tables_number 1

loop_
_symmetry_equiv_pos_as_xyz
'x,y,z'

loop_
_atom_site_label
_atom_site_type_symbol
_atom_site_fract_x
_atom_site_fract_y
_atom_site_fract_z
O11	O1	0.241300	0.333100	0.679200
C11	C1	0.102400	0.320400	0.681900
O21	O2	0.006000	0.335900	0.657000
C21	C2	0.049600	0.283900	0.717200
C31	C3	0.149400	0.264600	0.745700
C41	C4	0.100200	0.230600	0.778500
O31	O3	0.245800	0.457500	0.634700
C51	C5	0.259000	0.591500	0.625000
H11	H1	0.253100	0.275300	0.743100
H21	H2	0.171300	0.216300	0.797300
H31	H3	0.351900	0.568700	0.626300
O41	O4	0.241300	0.833100	0.179200
C61	C6	0.102400	0.820400	0.181900
O51	O5	0.006000	0.835900	0.157000
C71	C7	0.049600	0.783900	0.217200
C81	C8	0.149400	0.764600	0.245700
C91	C9	0.100200	0.730600	0.278500
O61	O6	0.245800	0.957500	0.134700
C101	C10	0.259000	0.091500	0.125000
H41	H4	0.253100	0.775300	0.243100
H51	H5	0.171300	0.716300	0.297300
H61	H6	0.351900	0.068700	0.126300
O71	O7	0.741300	0.333100	0.179200
C111	C11	0.602400	0.320400	0.181900
O81	O8	0.506000	0.335900	0.157000
C121	C12	0.549600	0.283900	0.217200
C131	C13	0.649400	0.264600	0.245700
C141	C14	0.600200	0.230600	0.278500
O91	O9	0.745800	0.457500	0.134700
C151	C15	0.759000	0.591500	0.125000
H71	H7	0.753100	0.275300	0.243100
H81	H8	0.671300	0.216300	0.297300
H91	H9	0.851900	0.568700	0.126300
O101	O10	0.741300	0.833100	0.679200
C161	C16	0.602400	0.820400	0.681900
O111	O11	0.506000	0.835900	0.657000
C171	C17	0.549600	0.783900	0.717200
C181	C18	0.649400	0.764600	0.745700
C191	C19	0.600200	0.730600	0.778500
O121	O12	0.745800	0.957500	0.634700
C201	C20	0.759000	0.091500	0.625000
H101	H10	0.753100	0.775300	0.743100
H111	H11	0.671300	0.716300	0.797300
H121	H12	0.851900	0.068700	0.626300
O131	O13	0.508700	0.416900	0.679200
C211	C21	0.647600	0.429600	0.681900
O141	O14	0.744000	0.414100	0.657000
C221	C22	0.700400	0.466100	0.717200
C231	C23	0.600600	0.485400	0.745700
C241	C24	0.649800	0.519400	0.778500
O151	O15	0.504200	0.292500	0.634700
C251	C25	0.491000	0.158500	0.625000
H131	H13	0.496900	0.474700	0.743100
H141	H14	0.578700	0.533700	0.797300
H151	H15	0.398100	0.181300	0.626300
O161	O16	0.508700	0.916900	0.179200
C261	C26	0.647600	0.929600	0.181900
O171	O17	0.744000	0.914100	0.157000
C271	C27	0.700400	0.966100	0.217200
C281	C28	0.600600	0.985400	0.245700
C291	C29	0.649800	0.019400	0.278500
O181	O18	0.504200	0.792500	0.134700
C301	C30	0.491000	0.658500	0.125000
H161	H16	0.496900	0.974700	0.243100
H171	H17	0.578700	0.033700	0.297300
H181	H18	0.398100	0.681300	0.126300
O191	O19	0.008700	0.416900	0.179200
C311	C31	0.147600	0.429600	0.181900
O201	O20	0.244000	0.414100	0.157000
C321	C32	0.200400	0.466100	0.217200
C331	C33	0.100600	0.485400	0.245700
C341	C34	0.149800	0.519400	0.278500
O211	O21	0.004200	0.292500	0.134700
C351	C35	0.991000	0.158500	0.125000
H191	H19	0.996900	0.474700	0.243100
H201	H20	0.078700	0.533700	0.297300
H211	H21	0.898100	0.181300	0.126300
O221	O22	0.008700	0.916900	0.679200
C361	C36	0.147600	0.929600	0.681900
O231	O23	0.244000	0.914100	0.657000
C371	C37	0.200400	0.966100	0.717200
C381	C38	0.100600	0.985400	0.745700
C391	C39	0.149800	0.019400	0.778500
O241	O24	0.004200	0.792500	0.634700
C401	C40	0.991000	0.658500	0.625000
H221	H22	0.996900	0.974700	0.743100
H231	H23	0.078700	0.033700	0.797300
H241	H24	0.898100	0.681300	0.626300
O251	O25	0.508700	0.333100	0.070800
C411	C41	0.647600	0.320400	0.068100
O261	O26	0.744000	0.335900	0.093000
C421	C42	0.700400	0.283900	0.032800
C431	C43	0.600600	0.264600	0.004300
C441	C44	0.649800	0.230600	0.971500
O271	O27	0.504200	0.457500	0.115300
C451	C45	0.491000	0.591500	0.125000
H251	H25	0.496900	0.275300	0.006900
H261	H26	0.578700	0.216300	0.952700
H271	H27	0.398100	0.568700	0.123700
O281	O28	0.508700	0.833100	0.570800
C461	C46	0.647600	0.820400	0.568100
O291	O29	0.744000	0.835900	0.593000
C471	C47	0.700400	0.783900	0.532800
C481	C48	0.600600	0.764600	0.504300
C491	C49	0.649800	0.730600	0.471500
O301	O30	0.504200	0.957500	0.615300
C501	C50	0.491000	0.091500	0.625000
H281	H28	0.496900	0.775300	0.506900
H291	H29	0.578700	0.716300	0.452700
H301	H30	0.398100	0.068700	0.623700
O311	O31	0.008700	0.333100	0.570800
C511	C51	0.147600	0.320400	0.568100
O321	O32	0.244000	0.335900	0.593000
C521	C52	0.200400	0.283900	0.532800
C531	C53	0.100600	0.264600	0.504300
C541	C54	0.149800	0.230600	0.471500
O331	O33	0.004200	0.457500	0.615300
C551	C55	0.991000	0.591500	0.625000
H311	H31	0.996900	0.275300	0.506900
H321	H32	0.078700	0.216300	0.452700
H331	H33	0.898100	0.568700	0.623700
O341	O34	0.008700	0.833100	0.070800
C561	C56	0.147600	0.820400	0.068100
O351	O35	0.244000	0.835900	0.093000
C571	C57	0.200400	0.783900	0.032800
C581	C58	0.100600	0.764600	0.004300
C591	C59	0.149800	0.730600	0.971500
O361	O36	0.004200	0.957500	0.115300
C601	C60	0.991000	0.091500	0.125000
H341	H34	0.996900	0.775300	0.006900
H351	H35	0.078700	0.716300	0.952700
H361	H36	0.898100	0.068700	0.123700
O371	O37	0.241300	0.416900	0.070800
C611	C61	0.102400	0.429600	0.068100
O381	O38	0.006000	0.414100	0.093000
C621	C62	0.049600	0.466100	0.032800
C631	C63	0.149400	0.485400	0.004300
C641	C64	0.100200	0.519400	0.971500
O391	O39	0.245800	0.292500	0.115300
C651	C65	0.259000	0.158500	0.125000
H371	H37	0.253100	0.474700	0.006900
H381	H38	0.171300	0.533700	0.952700
H391	H39	0.351900	0.181300	0.123700
O401	O40	0.241300	0.916900	0.570800
C661	C66	0.102400	0.929600	0.568100
O411	O41	0.006000	0.914100	0.593000
C671	C67	0.049600	0.966100	0.532800
C681	C68	0.149400	0.985400	0.504300
C691	C69	0.100200	0.019400	0.471500
O421	O42	0.245800	0.792500	0.615300
C701	C70	0.259000	0.658500	0.625000
H401	H40	0.253100	0.974700	0.506900
H411	H41	0.171300	0.033700	0.452700
H421	H42	0.351900	0.681300	0.623700
O431	O43	0.741300	0.416900	0.570800
C711	C71	0.602400	0.429600	0.568100
O441	O44	0.506000	0.414100	0.593000
C721	C72	0.549600	0.466100	0.532800
C731	C73	0.649400	0.485400	0.504300
C741	C74	0.600200	0.519400	0.471500
O451	O45	0.745800	0.292500	0.615300
C751	C75	0.759000	0.158500	0.625000
H431	H43	0.753100	0.474700	0.506900
H441	H44	0.671300	0.533700	0.452700
H451	H45	0.851900	0.181300	0.623700
O461	O46	0.741300	0.916900	0.070800
C761	C76	0.602400	0.929600	0.068100
O471	O47	0.506000	0.914100	0.093000
C771	C77	0.549600	0.966100	0.032800
C781	C78	0.649400	0.985400	0.004300
C791	C79	0.600200	0.019400	0.971500
O481	O48	0.745800	0.792500	0.115300
C801	C80	0.759000	0.658500	0.125000
H461	H46	0.753100	0.974700	0.006900
H471	H47	0.671300	0.033700	0.952700
H481	H48	0.851900	0.681300	0.123700
O491	O49	0.758700	0.666900	0.320800
C811	C81	0.897600	0.679600	0.318100
O501	O50	0.994000	0.664100	0.343000
C821	C82	0.950400	0.716100	0.282800
C831	C83	0.850600	0.735400	0.254300
C841	C84	0.899800	0.769400	0.221500
O511	O51	0.754200	0.542500	0.365300
C851	C85	0.741000	0.408500	0.375000
H491	H49	0.746900	0.724700	0.256900
H501	H50	0.828700	0.783700	0.202700
H511	H51	0.648100	0.431300	0.373700
O521	O52	0.758700	0.166900	0.820800
C861	C86	0.897600	0.179600	0.818100
O531	O53	0.994000	0.164100	0.843000
C871	C87	0.950400	0.216100	0.782800
C881	C88	0.850600	0.235400	0.754300
C891	C89	0.899800	0.269400	0.721500
O541	O54	0.754200	0.042500	0.865300
C901	C90	0.741000	0.908500	0.875000
H521	H52	0.746900	0.224700	0.756900
H531	H53	0.828700	0.283700	0.702700
H541	H54	0.648100	0.931300	0.873700
O551	O55	0.258700	0.666900	0.820800
C911	C91	0.397600	0.679600	0.818100
O561	O56	0.494000	0.664100	0.843000
C921	C92	0.450400	0.716100	0.782800
C931	C93	0.350600	0.735400	0.754300
C941	C94	0.399800	0.769400	0.721500
O571	O57	0.254200	0.542500	0.865300
C951	C95	0.241000	0.408500	0.875000
H551	H55	0.246900	0.724700	0.756900
H561	H56	0.328700	0.783700	0.702700
H571	H57	0.148100	0.431300	0.873700
O581	O58	0.258700	0.166900	0.320800
C961	C96	0.397600	0.179600	0.318100
O591	O59	0.494000	0.164100	0.343000
C971	C97	0.450400	0.216100	0.282800
C981	C98	0.350600	0.235400	0.254300
C991	C99	0.399800	0.269400	0.221500
O601	O60	0.254200	0.042500	0.365300
C1001	C100	0.241000	0.908500	0.375000
H581	H58	0.246900	0.224700	0.256900
H591	H59	0.328700	0.283700	0.202700
H601	H60	0.148100	0.931300	0.373700
O611	O61	0.491300	0.583100	0.320800
C1011	C101	0.352400	0.570400	0.318100
O621	O62	0.256000	0.585900	0.343000
C1021	C102	0.299600	0.533900	0.282800
C1031	C103	0.399400	0.514600	0.254300
C1041	C104	0.350200	0.480600	0.221500
O631	O63	0.495800	0.707500	0.365300
C1051	C105	0.509000	0.841500	0.375000
H611	H61	0.503100	0.525300	0.256900
H621	H62	0.421300	0.466300	0.202700
H631	H63	0.601900	0.818700	0.373700
O641	O64	0.491300	0.083100	0.820800
C1061	C106	0.352400	0.070400	0.818100
O651	O65	0.256000	0.085900	0.843000
C1071	C107	0.299600	0.033900	0.782800
C1081	C108	0.399400	0.014600	0.754300
C1091	C109	0.350200	0.980600	0.721500
O661	O66	0.495800	0.207500	0.865300
C1101	C110	0.509000	0.341500	0.875000
H641	H64	0.503100	0.025300	0.756900
H651	H65	0.421300	0.966300	0.702700
H661	H66	0.601900	0.318700	0.873700
O671	O67	0.991300	0.583100	0.820800
C1111	C111	0.852400	0.570400	0.818100
O681	O68	0.756000	0.585900	0.843000
C1121	C112	0.799600	0.533900	0.782800
C1131	C113	0.899400	0.514600	0.754300
C1141	C114	0.850200	0.480600	0.721500
O691	O69	0.995800	0.707500	0.865300
C1151	C115	0.009000	0.841500	0.875000
H671	H67	0.003100	0.525300	0.756900
H681	H68	0.921300	0.466300	0.702700
H691	H69	0.101900	0.818700	0.873700
O701	O70	0.991300	0.083100	0.320800
C1161	C116	0.852400	0.070400	0.318100
O711	O71	0.756000	0.085900	0.343000
C1171	C117	0.799600	0.033900	0.282800
C1181	C118	0.899400	0.014600	0.254300
C1191	C119	0.850200	0.980600	0.221500
O721	O72	0.995800	0.207500	0.365300
C1201	C120	0.009000	0.341500	0.375000
H701	H70	0.003100	0.025300	0.256900
H711	H71	0.921300	0.966300	0.202700
H721	H72	0.101900	0.318700	0.373700
O731	O73	0.491300	0.666900	0.929200
C1211	C121	0.352400	0.679600	0.931900
O741	O74	0.256000	0.664100	0.907000
C1221	C122	0.299600	0.716100	0.967200
C1231	C123	0.399400	0.735400	0.995700
C1241	C124	0.350200	0.769400	0.028500
O751	O75	0.495800	0.542500	0.884700
C1251	C125	0.509000	0.408500	0.875000
H731	H73	0.503100	0.724700	0.993100
H741	H74	0.421300	0.783700	0.047300
H751	H75	0.601900	0.431300	0.876300
O761	O76	0.491300	0.166900	0.429200
C1261	C126	0.352400	0.179600	0.431900
O771	O77	0.256000	0.164100	0.407000
C1271	C127	0.299600	0.216100	0.467200
C1281	C128	0.399400	0.235400	0.495700
C1291	C129	0.350200	0.269400	0.528500
O781	O78	0.495800	0.042500	0.384700
C1301	C130	0.509000	0.908500	0.375000
H761	H76	0.503100	0.224700	0.493100
H771	H77	0.421300	0.283700	0.547300
H781	H78	0.601900	0.931300	0.376300
O791	O79	0.991300	0.666900	0.429200
C1311	C131	0.852400	0.679600	0.431900
O801	O80	0.756000	0.664100	0.407000
C1321	C132	0.799600	0.716100	0.467200
C1331	C133	0.899400	0.735400	0.495700
C1341	C134	0.850200	0.769400	0.528500
O811	O81	0.995800	0.542500	0.384700
C1351	C135	0.009000	0.408500	0.375000
H791	H79	0.003100	0.724700	0.493100
H801	H80	0.921300	0.783700	0.547300
H811	H81	0.101900	0.431300	0.376300
O821	O82	0.991300	0.166900	0.929200
C1361	C136	0.852400	0.179600	0.931900
O831	O83	0.756000	0.164100	0.907000
C1371	C137	0.799600	0.216100	0.967200
C1381	C138	0.899400	0.235400	0.995700
C1391	C139	0.850200	0.269400	0.028500
O841	O84	0.995800	0.042500	0.884700
C1401	C140	0.009000	0.908500	0.875000
H821	H82	0.003100	0.224700	0.993100
H831	H83	0.921300	0.283700	0.047300
H841	H84	0.101900	0.931300	0.876300
O851	O85	0.758700	0.583100	0.929200
C1411	C141	0.897600	0.570400	0.931900
O861	O86	0.994000	0.585900	0.907000
C1421	C142	0.950400	0.533900	0.967200
C1431	C143	0.850600	0.514600	0.995700
C1441	C144	0.899800	0.480600	0.028500
O871	O87	0.754200	0.707500	0.884700
C1451	C145	0.741000	0.841500	0.875000
H851	H85	0.746900	0.525300	0.993100
H861	H86	0.828700	0.466300	0.047300
H871	H87	0.648100	0.818700	0.876300
O881	O88	0.758700	0.083100	0.429200
C1461	C146	0.897600	0.070400	0.431900
O891	O89	0.994000	0.085900	0.407000
C1471	C147	0.950400	0.033900	0.467200
C1481	C148	0.850600	0.014600	0.495700
C1491	C149	0.899800	0.980600	0.528500
O901	O90	0.754200	0.207500	0.384700
C1501	C150	0.741000	0.341500	0.375000
H881	H88	0.746900	0.025300	0.493100
H891	H89	0.828700	0.966300	0.547300
H901	H90	0.648100	0.318700	0.376300
O911	O91	0.258700	0.583100	0.429200
C1511	C151	0.397600	0.570400	0.431900
O921	O92	0.494000	0.585900	0.407000
C1521	C152	0.450400	0.533900	0.467200
C1531	C153	0.350600	0.514600	0.495700
C1541	C154	0.399800	0.480600	0.528500
O931	O93	0.254200	0.707500	0.384700
C1551	C155	0.241000	0.841500	0.375000
H911	H91	0.246900	0.525300	0.493100
H921	H92	0.328700	0.466300	0.547300
H931	H93	0.148100	0.818700	0.376300
O941	O94	0.258700	0.083100	0.929200
C1561	C156	0.397600	0.070400	0.931900
O951	O95	0.494000	0.085900	0.907000
C1571	C157	0.450400	0.033900	0.967200
C1581	C158	0.350600	0.014600	0.995700
C1591	C159	0.399800	0.980600	0.028500
O961	O96	0.254200	0.207500	0.884700
C1601	C160	0.241000	0.341500	0.875000
H941	H94	0.246900	0.025300	0.993100
H951	H95	0.328700	0.966300	0.047300
H961	H96	0.148100	0.318700	0.876300
Sc11	Sc1	0.375000	0.375000	0.635300
Sc21	Sc2	0.375000	0.875000	0.135300
Sc31	Sc3	0.875000	0.375000	0.135300
Sc41	Sc4	0.875000	0.875000	0.635300
Sc51	Sc5	0.375000	0.375000	0.114700
Sc61	Sc6	0.375000	0.875000	0.614700
Sc71	Sc7	0.875000	0.375000	0.614700
Sc81	Sc8	0.875000	0.875000	0.114700
Sc91	Sc9	0.625000	0.625000	0.364700
Sc101	Sc10	0.625000	0.125000	0.864700
Sc111	Sc11	0.125000	0.625000	0.864700
Sc121	Sc12	0.125000	0.125000	0.364700
Sc131	Sc13	0.625000	0.625000	0.885300
Sc141	Sc14	0.625000	0.125000	0.385300
Sc151	Sc15	0.125000	0.625000	0.385300
Sc161	Sc16	0.125000	0.125000	0.885300
C1611	C161	0.125000	0.485700	0.625000
C1621	C162	0.125000	0.557800	0.625000
C1631	C163	0.125000	0.985700	0.125000
C1641	C164	0.125000	0.057800	0.125000
C1651	C165	0.625000	0.985700	0.625000
C1661	C166	0.625000	0.057800	0.625000
C1671	C167	0.625000	0.264300	0.625000
C1681	C168	0.625000	0.192200	0.625000
C1691	C169	0.625000	0.764300	0.125000
C1701	C170	0.625000	0.692200	0.125000
C1711	C171	0.625000	0.485700	0.125000
C1721	C172	0.625000	0.557800	0.125000
C1731	C173	0.125000	0.264300	0.125000
C1741	C174	0.125000	0.192200	0.125000
C1751	C175	0.125000	0.764300	0.625000
C1761	C176	0.125000	0.692200	0.625000
C1771	C177	0.875000	0.514300	0.375000
C1781	C178	0.875000	0.442200	0.375000
C1791	C179	0.875000	0.014300	0.875000
C1801	C180	0.875000	0.942200	0.875000
C1811	C181	0.375000	0.735700	0.375000
C1821	C182	0.375000	0.807800	0.375000
C1831	C183	0.375000	0.235700	0.875000
C1841	C184	0.375000	0.307800	0.875000
C1851	C185	0.375000	0.514300	0.875000
C1861	C186	0.375000	0.442200	0.875000
C1871	C187	0.375000	0.014300	0.375000
C1881	C188	0.375000	0.942200	0.375000
C1891	C189	0.875000	0.735700	0.875000
C1901	C190	0.875000	0.807800	0.875000
C1911	C191	0.875000	0.235700	0.375000
C1921	C192	0.875000	0.307800	0.375000
