data_HOKLIE_clean_PM
_symmetry_space_group_name_H-M	'P1'
_cell_length_a	20.264400
_cell_length_b	19.121600
_cell_length_c	26.824800
_cell_angle_alpha	90.000000
_cell_angle_beta	101.184000
_cell_angle_gamma	90.000000
_symmetry_Int_Tables_number 1

loop_
_symmetry_equiv_pos_as_xyz
'x,y,z'

loop_
_atom_site_label
_atom_site_type_symbol
_atom_site_fract_x
_atom_site_fract_y
_atom_site_fract_z
Zn11	Zn1	0.513370	0.515780	0.055100
Zn21	Zn2	0.636510	0.407220	0.242830
Zn31	Zn3	0.787230	0.342370	0.263840
C11	C1	0.657200	0.804200	0.957000
C21	C2	0.621400	0.766000	0.915900
H11	H1	0.620100	0.780700	0.882700
C31	C3	0.588300	0.706700	0.925700
H21	H2	0.564200	0.680800	0.898900
C41	C4	0.590500	0.684300	0.976400
C51	C5	0.625200	0.721300	0.015800
H31	H3	0.625600	0.706600	0.048900
C61	C6	0.660900	0.782100	0.007200
C71	C7	0.705700	0.827900	0.039300
C81	C8	0.729900	0.834300	0.091500
H41	H4	0.715600	0.803200	0.113900
C91	C9	0.775000	0.886500	0.109900
C101	C10	0.795800	0.934600	0.077000
H51	H5	0.826200	0.969600	0.090000
C111	C11	0.771700	0.930600	0.025300
H61	H6	0.784400	0.963500	0.003500
C121	C12	0.728200	0.876700	0.006500
C131	C13	0.705000	0.902200	0.913400
C141	C14	0.767000	0.907000	0.899600
H71	H7	0.803600	0.882700	0.917900
C151	C15	0.774500	0.947300	0.859400
H81	H8	0.816400	0.950100	0.850100
C161	C16	0.720700	0.984300	0.832000
C171	C17	0.659300	0.978000	0.846000
H91	H9	0.622400	0.002100	0.828000
C181	C18	0.651800	0.936900	0.885900
H101	H10	0.609600	0.932600	0.894400
C191	C19	0.556700	0.616300	0.985000
C201	C20	0.802400	0.892200	0.165500
C211	C21	0.733500	0.032400	0.790500
C221	C22	0.637600	0.220400	0.027500
C231	C23	0.590200	0.258100	0.047400
H111	H11	0.547500	0.266800	0.028400
C241	C24	0.609300	0.282000	0.096700
H121	H12	0.579100	0.308300	0.111000
C251	C25	0.673900	0.267200	0.126000
C261	C26	0.719400	0.228700	0.105800
H131	H13	0.761700	0.219000	0.125000
C271	C27	0.701500	0.204300	0.056200
C281	C28	0.736100	0.164000	0.023000
C291	C29	0.692800	0.160000	0.975800
C301	C30	0.710600	0.125600	0.934600
H141	H14	0.680800	0.122000	0.903700
C311	C31	0.774900	0.096700	0.941600
H151	H15	0.788800	0.075400	0.914200
C321	C32	0.819600	0.098900	0.989100
C331	C33	0.799800	0.134000	0.029900
H161	H16	0.829100	0.137100	0.061200
C341	C34	0.572600	0.195800	0.940600
C351	C35	0.541200	0.258100	0.925900
H171	H17	0.558700	0.299900	0.940500
C361	C36	0.482200	0.257700	0.888500
H181	H18	0.462200	0.300600	0.878700
C371	C37	0.452900	0.201000	0.866100
C381	C38	0.486400	0.137000	0.882800
H191	H19	0.467800	0.095600	0.868200
C391	C39	0.545500	0.132700	0.919700
H201	H20	0.565600	0.090000	0.929800
C401	C40	0.691800	0.299900	0.177400
C411	C41	0.886300	0.065200	0.995000
C421	C42	0.390600	0.206100	0.825400
C431	C43	0.560000	0.481300	0.157300
H211	H21	0.564500	0.438400	0.141900
N11	N1	0.698500	0.861700	0.956800
N21	N2	0.632100	0.192500	0.979400
O11	O1	0.556600	0.601300	0.030700
O21	O2	0.531200	0.580200	0.947100
O31	O3	0.786000	0.846400	0.196300
O41	O4	0.843700	0.939400	0.182300
O51	O5	0.782900	0.026000	0.771100
O61	O6	0.690900	0.079000	0.777900
O71	O7	0.652200	0.343800	0.188500
O81	O8	0.747200	0.282400	0.206200
O91	O9	0.922300	0.063600	0.038800
O101	O10	0.900700	0.038100	0.955700
O111	O11	0.369800	0.146800	0.815500
O121	O12	0.364200	0.261700	0.811200
O131	O13	0.554900	0.347800	0.250000
O141	O14	0.578200	0.485200	0.205500
O151	O15	0.537200	0.530100	0.130000
Zn41	Zn4	0.013370	0.015780	0.055100
Zn51	Zn5	0.136510	0.907220	0.242830
Zn61	Zn6	0.287230	0.842370	0.263840
C441	C44	0.157200	0.304200	0.957000
C451	C45	0.121400	0.266000	0.915900
H221	H22	0.120100	0.280700	0.882700
C461	C46	0.088300	0.206700	0.925700
H231	H23	0.064200	0.180800	0.898900
C471	C47	0.090500	0.184300	0.976400
C481	C48	0.125200	0.221300	0.015800
H241	H24	0.125600	0.206600	0.048900
C491	C49	0.160900	0.282100	0.007200
C501	C50	0.205700	0.327900	0.039300
C511	C51	0.229900	0.334300	0.091500
H251	H25	0.215600	0.303200	0.113900
C521	C52	0.275000	0.386500	0.109900
C531	C53	0.295800	0.434600	0.077000
H261	H26	0.326200	0.469600	0.090000
C541	C54	0.271700	0.430600	0.025300
H271	H27	0.284400	0.463500	0.003500
C551	C55	0.228200	0.376700	0.006500
C561	C56	0.205000	0.402200	0.913400
C571	C57	0.267000	0.407000	0.899600
H281	H28	0.303600	0.382700	0.917900
C581	C58	0.274500	0.447300	0.859400
H291	H29	0.316400	0.450100	0.850100
C591	C59	0.220700	0.484300	0.832000
C601	C60	0.159300	0.478000	0.846000
H301	H30	0.122400	0.502100	0.828000
C611	C61	0.151800	0.436900	0.885900
H311	H31	0.109600	0.432600	0.894400
C621	C62	0.056700	0.116300	0.985000
C631	C63	0.302400	0.392200	0.165500
C641	C64	0.233500	0.532400	0.790500
C651	C65	0.137600	0.720400	0.027500
C661	C66	0.090200	0.758100	0.047400
H321	H32	0.047500	0.766800	0.028400
C671	C67	0.109300	0.782000	0.096700
H331	H33	0.079100	0.808300	0.111000
C681	C68	0.173900	0.767200	0.126000
C691	C69	0.219400	0.728700	0.105800
H341	H34	0.261700	0.719000	0.125000
C701	C70	0.201500	0.704300	0.056200
C711	C71	0.236100	0.664000	0.023000
C721	C72	0.192800	0.660000	0.975800
C731	C73	0.210600	0.625600	0.934600
H351	H35	0.180800	0.622000	0.903700
C741	C74	0.274900	0.596700	0.941600
H361	H36	0.288800	0.575400	0.914200
C751	C75	0.319600	0.598900	0.989100
C761	C76	0.299800	0.634000	0.029900
H371	H37	0.329100	0.637100	0.061200
C771	C77	0.072600	0.695800	0.940600
C781	C78	0.041200	0.758100	0.925900
H381	H38	0.058700	0.799900	0.940500
C791	C79	0.982200	0.757700	0.888500
H391	H39	0.962200	0.800600	0.878700
C801	C80	0.952900	0.701000	0.866100
C811	C81	0.986400	0.637000	0.882800
H401	H40	0.967800	0.595600	0.868200
C821	C82	0.045500	0.632700	0.919700
H411	H41	0.065600	0.590000	0.929800
C831	C83	0.191800	0.799900	0.177400
C841	C84	0.386300	0.565200	0.995000
C851	C85	0.890600	0.706100	0.825400
C861	C86	0.060000	0.981300	0.157300
H421	H42	0.064500	0.938400	0.141900
N31	N3	0.198500	0.361700	0.956800
N41	N4	0.132100	0.692500	0.979400
O161	O16	0.056600	0.101300	0.030700
O171	O17	0.031200	0.080200	0.947100
O181	O18	0.286000	0.346400	0.196300
O191	O19	0.343700	0.439400	0.182300
O201	O20	0.282900	0.526000	0.771100
O211	O21	0.190900	0.579000	0.777900
O221	O22	0.152200	0.843800	0.188500
O231	O23	0.247200	0.782400	0.206200
O241	O24	0.422300	0.563600	0.038800
O251	O25	0.400700	0.538100	0.955700
O261	O26	0.869800	0.646800	0.815500
O271	O27	0.864200	0.761700	0.811200
O281	O28	0.054900	0.847800	0.250000
O291	O29	0.078200	0.985200	0.205500
O301	O30	0.037200	0.030100	0.130000
Zn71	Zn7	0.486630	0.515780	0.444900
Zn81	Zn8	0.363490	0.407220	0.257170
Zn91	Zn9	0.212770	0.342370	0.236160
C871	C87	0.342800	0.804200	0.543000
C881	C88	0.378600	0.766000	0.584100
H431	H43	0.379900	0.780700	0.617300
C891	C89	0.411700	0.706700	0.574300
H441	H44	0.435800	0.680800	0.601100
C901	C90	0.409500	0.684300	0.523600
C911	C91	0.374800	0.721300	0.484200
H451	H45	0.374400	0.706600	0.451100
C921	C92	0.339100	0.782100	0.492800
C931	C93	0.294300	0.827900	0.460700
C941	C94	0.270100	0.834300	0.408500
H461	H46	0.284400	0.803200	0.386100
C951	C95	0.225000	0.886500	0.390100
C961	C96	0.204200	0.934600	0.423000
H471	H47	0.173800	0.969600	0.410000
C971	C97	0.228300	0.930600	0.474700
H481	H48	0.215600	0.963500	0.496500
C981	C98	0.271800	0.876700	0.493500
C991	C99	0.295000	0.902200	0.586600
C1001	C100	0.233000	0.907000	0.600400
H491	H49	0.196400	0.882700	0.582100
C1011	C101	0.225500	0.947300	0.640600
H501	H50	0.183600	0.950100	0.649900
C1021	C102	0.279300	0.984300	0.668000
C1031	C103	0.340700	0.978000	0.654000
H511	H51	0.377600	0.002100	0.672000
C1041	C104	0.348200	0.936900	0.614100
H521	H52	0.390400	0.932600	0.605600
C1051	C105	0.443300	0.616300	0.515000
C1061	C106	0.197600	0.892200	0.334500
C1071	C107	0.266500	0.032400	0.709500
C1081	C108	0.362400	0.220400	0.472500
C1091	C109	0.409800	0.258100	0.452600
H531	H53	0.452500	0.266800	0.471600
C1101	C110	0.390700	0.282000	0.403300
H541	H54	0.420900	0.308300	0.389000
C1111	C111	0.326100	0.267200	0.374000
C1121	C112	0.280600	0.228700	0.394200
H551	H55	0.238300	0.219000	0.375000
C1131	C113	0.298500	0.204300	0.443800
C1141	C114	0.263900	0.164000	0.477000
C1151	C115	0.307200	0.160000	0.524200
C1161	C116	0.289400	0.125600	0.565400
H561	H56	0.319200	0.122000	0.596300
C1171	C117	0.225100	0.096700	0.558400
H571	H57	0.211200	0.075400	0.585800
C1181	C118	0.180400	0.098900	0.510900
C1191	C119	0.200200	0.134000	0.470100
H581	H58	0.170900	0.137100	0.438800
C1201	C120	0.427400	0.195800	0.559400
C1211	C121	0.458800	0.258100	0.574100
H591	H59	0.441300	0.299900	0.559500
C1221	C122	0.517800	0.257700	0.611500
H601	H60	0.537800	0.300600	0.621300
C1231	C123	0.547100	0.201000	0.633900
C1241	C124	0.513600	0.137000	0.617200
H611	H61	0.532200	0.095600	0.631800
C1251	C125	0.454500	0.132700	0.580300
H621	H62	0.434400	0.090000	0.570200
C1261	C126	0.308200	0.299900	0.322600
C1271	C127	0.113700	0.065200	0.505000
C1281	C128	0.609400	0.206100	0.674600
C1291	C129	0.440000	0.481300	0.342700
H631	H63	0.435500	0.438400	0.358100
N51	N5	0.301500	0.861700	0.543200
N61	N6	0.367900	0.192500	0.520600
O311	O31	0.443400	0.601300	0.469300
O321	O32	0.468800	0.580200	0.552900
O331	O33	0.214000	0.846400	0.303700
O341	O34	0.156300	0.939400	0.317700
O351	O35	0.217100	0.026000	0.728900
O361	O36	0.309100	0.079000	0.722100
O371	O37	0.347800	0.343800	0.311500
O381	O38	0.252800	0.282400	0.293800
O391	O39	0.077700	0.063600	0.461200
O401	O40	0.099300	0.038100	0.544300
O411	O41	0.630200	0.146800	0.684500
O421	O42	0.635800	0.261700	0.688800
O431	O43	0.445100	0.347800	0.250000
O441	O44	0.421800	0.485200	0.294500
O451	O45	0.462800	0.530100	0.370000
Zn101	Zn10	0.986630	0.015780	0.444900
Zn111	Zn11	0.863490	0.907220	0.257170
Zn121	Zn12	0.712770	0.842370	0.236160
C1301	C130	0.842800	0.304200	0.543000
C1311	C131	0.878600	0.266000	0.584100
H641	H64	0.879900	0.280700	0.617300
C1321	C132	0.911700	0.206700	0.574300
H651	H65	0.935800	0.180800	0.601100
C1331	C133	0.909500	0.184300	0.523600
C1341	C134	0.874800	0.221300	0.484200
H661	H66	0.874400	0.206600	0.451100
C1351	C135	0.839100	0.282100	0.492800
C1361	C136	0.794300	0.327900	0.460700
C1371	C137	0.770100	0.334300	0.408500
H671	H67	0.784400	0.303200	0.386100
C1381	C138	0.725000	0.386500	0.390100
C1391	C139	0.704200	0.434600	0.423000
H681	H68	0.673800	0.469600	0.410000
C1401	C140	0.728300	0.430600	0.474700
H691	H69	0.715600	0.463500	0.496500
C1411	C141	0.771800	0.376700	0.493500
C1421	C142	0.795000	0.402200	0.586600
C1431	C143	0.733000	0.407000	0.600400
H701	H70	0.696400	0.382700	0.582100
C1441	C144	0.725500	0.447300	0.640600
H711	H71	0.683600	0.450100	0.649900
C1451	C145	0.779300	0.484300	0.668000
C1461	C146	0.840700	0.478000	0.654000
H721	H72	0.877600	0.502100	0.672000
C1471	C147	0.848200	0.436900	0.614100
H731	H73	0.890400	0.432600	0.605600
C1481	C148	0.943300	0.116300	0.515000
C1491	C149	0.697600	0.392200	0.334500
C1501	C150	0.766500	0.532400	0.709500
C1511	C151	0.862400	0.720400	0.472500
C1521	C152	0.909800	0.758100	0.452600
H741	H74	0.952500	0.766800	0.471600
C1531	C153	0.890700	0.782000	0.403300
H751	H75	0.920900	0.808300	0.389000
C1541	C154	0.826100	0.767200	0.374000
C1551	C155	0.780600	0.728700	0.394200
H761	H76	0.738300	0.719000	0.375000
C1561	C156	0.798500	0.704300	0.443800
C1571	C157	0.763900	0.664000	0.477000
C1581	C158	0.807200	0.660000	0.524200
C1591	C159	0.789400	0.625600	0.565400
H771	H77	0.819200	0.622000	0.596300
C1601	C160	0.725100	0.596700	0.558400
H781	H78	0.711200	0.575400	0.585800
C1611	C161	0.680400	0.598900	0.510900
C1621	C162	0.700200	0.634000	0.470100
H791	H79	0.670900	0.637100	0.438800
C1631	C163	0.927400	0.695800	0.559400
C1641	C164	0.958800	0.758100	0.574100
H801	H80	0.941300	0.799900	0.559500
C1651	C165	0.017800	0.757700	0.611500
H811	H81	0.037800	0.800600	0.621300
C1661	C166	0.047100	0.701000	0.633900
C1671	C167	0.013600	0.637000	0.617200
H821	H82	0.032200	0.595600	0.631800
C1681	C168	0.954500	0.632700	0.580300
H831	H83	0.934400	0.590000	0.570200
C1691	C169	0.808200	0.799900	0.322600
C1701	C170	0.613700	0.565200	0.505000
C1711	C171	0.109400	0.706100	0.674600
C1721	C172	0.940000	0.981300	0.342700
H841	H84	0.935500	0.938400	0.358100
N71	N7	0.801500	0.361700	0.543200
N81	N8	0.867900	0.692500	0.520600
O461	O46	0.943400	0.101300	0.469300
O471	O47	0.968800	0.080200	0.552900
O481	O48	0.714000	0.346400	0.303700
O491	O49	0.656300	0.439400	0.317700
O501	O50	0.717100	0.526000	0.728900
O511	O51	0.809100	0.579000	0.722100
O521	O52	0.847800	0.843800	0.311500
O531	O53	0.752800	0.782400	0.293800
O541	O54	0.577700	0.563600	0.461200
O551	O55	0.599300	0.538100	0.544300
O561	O56	0.130200	0.646800	0.684500
O571	O57	0.135800	0.761700	0.688800
O581	O58	0.945100	0.847800	0.250000
O591	O59	0.921800	0.985200	0.294500
O601	O60	0.962800	0.030100	0.370000
Zn131	Zn13	0.486630	0.484220	0.944900
Zn141	Zn14	0.363490	0.592780	0.757170
Zn151	Zn15	0.212770	0.657630	0.736160
C1731	C173	0.342800	0.195800	0.043000
C1741	C174	0.378600	0.234000	0.084100
H851	H85	0.379900	0.219300	0.117300
C1751	C175	0.411700	0.293300	0.074300
H861	H86	0.435800	0.319200	0.101100
C1761	C176	0.409500	0.315700	0.023600
C1771	C177	0.374800	0.278700	0.984200
H871	H87	0.374400	0.293400	0.951100
C1781	C178	0.339100	0.217900	0.992800
C1791	C179	0.294300	0.172100	0.960700
C1801	C180	0.270100	0.165700	0.908500
H881	H88	0.284400	0.196800	0.886100
C1811	C181	0.225000	0.113500	0.890100
C1821	C182	0.204200	0.065400	0.923000
H891	H89	0.173800	0.030400	0.910000
C1831	C183	0.228300	0.069400	0.974700
H901	H90	0.215600	0.036500	0.996500
C1841	C184	0.271800	0.123300	0.993500
C1851	C185	0.295000	0.097800	0.086600
C1861	C186	0.233000	0.093000	0.100400
H911	H91	0.196400	0.117300	0.082100
C1871	C187	0.225500	0.052700	0.140600
H921	H92	0.183600	0.049900	0.149900
C1881	C188	0.279300	0.015700	0.168000
C1891	C189	0.340700	0.022000	0.154000
H931	H93	0.377600	0.997900	0.172000
C1901	C190	0.348200	0.063100	0.114100
H941	H94	0.390400	0.067400	0.105600
C1911	C191	0.443300	0.383700	0.015000
C1921	C192	0.197600	0.107800	0.834500
C1931	C193	0.266500	0.967600	0.209500
C1941	C194	0.362400	0.779600	0.972500
C1951	C195	0.409800	0.741900	0.952600
H951	H95	0.452500	0.733200	0.971600
C1961	C196	0.390700	0.718000	0.903300
H961	H96	0.420900	0.691700	0.889000
C1971	C197	0.326100	0.732800	0.874000
C1981	C198	0.280600	0.771300	0.894200
H971	H97	0.238300	0.781000	0.875000
C1991	C199	0.298500	0.795700	0.943800
C2001	C200	0.263900	0.836000	0.977000
C2011	C201	0.307200	0.840000	0.024200
C2021	C202	0.289400	0.874400	0.065400
H981	H98	0.319200	0.878000	0.096300
C2031	C203	0.225100	0.903300	0.058400
H991	H99	0.211200	0.924600	0.085800
C2041	C204	0.180400	0.901100	0.010900
C2051	C205	0.200200	0.866000	0.970100
H1001	H100	0.170900	0.862900	0.938800
C2061	C206	0.427400	0.804200	0.059400
C2071	C207	0.458800	0.741900	0.074100
H1011	H101	0.441300	0.700100	0.059500
C2081	C208	0.517800	0.742300	0.111500
H1021	H102	0.537800	0.699400	0.121300
C2091	C209	0.547100	0.799000	0.133900
C2101	C210	0.513600	0.863000	0.117200
H1031	H103	0.532200	0.904400	0.131800
C2111	C211	0.454500	0.867300	0.080300
H1041	H104	0.434400	0.910000	0.070200
C2121	C212	0.308200	0.700100	0.822600
C2131	C213	0.113700	0.934800	0.005000
C2141	C214	0.609400	0.793900	0.174600
C2151	C215	0.440000	0.518700	0.842700
H1051	H105	0.435500	0.561600	0.858100
N91	N9	0.301500	0.138300	0.043200
N101	N10	0.367900	0.807500	0.020600
O611	O61	0.443400	0.398700	0.969300
O621	O62	0.468800	0.419800	0.052900
O631	O63	0.214000	0.153600	0.803700
O641	O64	0.156300	0.060600	0.817700
O651	O65	0.217100	0.974000	0.228900
O661	O66	0.309100	0.921000	0.222100
O671	O67	0.347800	0.656200	0.811500
O681	O68	0.252800	0.717600	0.793800
O691	O69	0.077700	0.936400	0.961200
O701	O70	0.099300	0.961900	0.044300
O711	O71	0.630200	0.853200	0.184500
O721	O72	0.635800	0.738300	0.188800
O731	O73	0.445100	0.652200	0.750000
O741	O74	0.421800	0.514800	0.794500
O751	O75	0.462800	0.469900	0.870000
Zn161	Zn16	0.986630	0.984220	0.944900
Zn171	Zn17	0.863490	0.092780	0.757170
Zn181	Zn18	0.712770	0.157630	0.736160
C2161	C216	0.842800	0.695800	0.043000
C2171	C217	0.878600	0.734000	0.084100
H1061	H106	0.879900	0.719300	0.117300
C2181	C218	0.911700	0.793300	0.074300
H1071	H107	0.935800	0.819200	0.101100
C2191	C219	0.909500	0.815700	0.023600
C2201	C220	0.874800	0.778700	0.984200
H1081	H108	0.874400	0.793400	0.951100
C2211	C221	0.839100	0.717900	0.992800
C2221	C222	0.794300	0.672100	0.960700
C2231	C223	0.770100	0.665700	0.908500
H1091	H109	0.784400	0.696800	0.886100
C2241	C224	0.725000	0.613500	0.890100
C2251	C225	0.704200	0.565400	0.923000
H1101	H110	0.673800	0.530400	0.910000
C2261	C226	0.728300	0.569400	0.974700
H1111	H111	0.715600	0.536500	0.996500
C2271	C227	0.771800	0.623300	0.993500
C2281	C228	0.795000	0.597800	0.086600
C2291	C229	0.733000	0.593000	0.100400
H1121	H112	0.696400	0.617300	0.082100
C2301	C230	0.725500	0.552700	0.140600
H1131	H113	0.683600	0.549900	0.149900
C2311	C231	0.779300	0.515700	0.168000
C2321	C232	0.840700	0.522000	0.154000
H1141	H114	0.877600	0.497900	0.172000
C2331	C233	0.848200	0.563100	0.114100
H1151	H115	0.890400	0.567400	0.105600
C2341	C234	0.943300	0.883700	0.015000
C2351	C235	0.697600	0.607800	0.834500
C2361	C236	0.766500	0.467600	0.209500
C2371	C237	0.862400	0.279600	0.972500
C2381	C238	0.909800	0.241900	0.952600
H1161	H116	0.952500	0.233200	0.971600
C2391	C239	0.890700	0.218000	0.903300
H1171	H117	0.920900	0.191700	0.889000
C2401	C240	0.826100	0.232800	0.874000
C2411	C241	0.780600	0.271300	0.894200
H1181	H118	0.738300	0.281000	0.875000
C2421	C242	0.798500	0.295700	0.943800
C2431	C243	0.763900	0.336000	0.977000
C2441	C244	0.807200	0.340000	0.024200
C2451	C245	0.789400	0.374400	0.065400
H1191	H119	0.819200	0.378000	0.096300
C2461	C246	0.725100	0.403300	0.058400
H1201	H120	0.711200	0.424600	0.085800
C2471	C247	0.680400	0.401100	0.010900
C2481	C248	0.700200	0.366000	0.970100
H1211	H121	0.670900	0.362900	0.938800
C2491	C249	0.927400	0.304200	0.059400
C2501	C250	0.958800	0.241900	0.074100
H1221	H122	0.941300	0.200100	0.059500
C2511	C251	0.017800	0.242300	0.111500
H1231	H123	0.037800	0.199400	0.121300
C2521	C252	0.047100	0.299000	0.133900
C2531	C253	0.013600	0.363000	0.117200
H1241	H124	0.032200	0.404400	0.131800
C2541	C254	0.954500	0.367300	0.080300
H1251	H125	0.934400	0.410000	0.070200
C2551	C255	0.808200	0.200100	0.822600
C2561	C256	0.613700	0.434800	0.005000
C2571	C257	0.109400	0.293900	0.174600
C2581	C258	0.940000	0.018700	0.842700
H1261	H126	0.935500	0.061600	0.858100
N111	N11	0.801500	0.638300	0.043200
N121	N12	0.867900	0.307500	0.020600
O761	O76	0.943400	0.898700	0.969300
O771	O77	0.968800	0.919800	0.052900
O781	O78	0.714000	0.653600	0.803700
O791	O79	0.656300	0.560600	0.817700
O801	O80	0.717100	0.474000	0.228900
O811	O81	0.809100	0.421000	0.222100
O821	O82	0.847800	0.156200	0.811500
O831	O83	0.752800	0.217600	0.793800
O841	O84	0.577700	0.436400	0.961200
O851	O85	0.599300	0.461900	0.044300
O861	O86	0.130200	0.353200	0.184500
O871	O87	0.135800	0.238300	0.188800
O881	O88	0.945100	0.152200	0.750000
O891	O89	0.921800	0.014800	0.794500
O901	O90	0.962800	0.969900	0.870000
Zn191	Zn19	0.513370	0.484220	0.555100
Zn201	Zn20	0.636510	0.592780	0.742830
Zn211	Zn21	0.787230	0.657630	0.763840
C2591	C259	0.657200	0.195800	0.457000
C2601	C260	0.621400	0.234000	0.415900
H1271	H127	0.620100	0.219300	0.382700
C2611	C261	0.588300	0.293300	0.425700
H1281	H128	0.564200	0.319200	0.398900
C2621	C262	0.590500	0.315700	0.476400
C2631	C263	0.625200	0.278700	0.515800
H1291	H129	0.625600	0.293400	0.548900
C2641	C264	0.660900	0.217900	0.507200
C2651	C265	0.705700	0.172100	0.539300
C2661	C266	0.729900	0.165700	0.591500
H1301	H130	0.715600	0.196800	0.613900
C2671	C267	0.775000	0.113500	0.609900
C2681	C268	0.795800	0.065400	0.577000
H1311	H131	0.826200	0.030400	0.590000
C2691	C269	0.771700	0.069400	0.525300
H1321	H132	0.784400	0.036500	0.503500
C2701	C270	0.728200	0.123300	0.506500
C2711	C271	0.705000	0.097800	0.413400
C2721	C272	0.767000	0.093000	0.399600
H1331	H133	0.803600	0.117300	0.417900
C2731	C273	0.774500	0.052700	0.359400
H1341	H134	0.816400	0.049900	0.350100
C2741	C274	0.720700	0.015700	0.332000
C2751	C275	0.659300	0.022000	0.346000
H1351	H135	0.622400	0.997900	0.328000
C2761	C276	0.651800	0.063100	0.385900
H1361	H136	0.609600	0.067400	0.394400
C2771	C277	0.556700	0.383700	0.485000
C2781	C278	0.802400	0.107800	0.665500
C2791	C279	0.733500	0.967600	0.290500
C2801	C280	0.637600	0.779600	0.527500
C2811	C281	0.590200	0.741900	0.547400
H1371	H137	0.547500	0.733200	0.528400
C2821	C282	0.609300	0.718000	0.596700
H1381	H138	0.579100	0.691700	0.611000
C2831	C283	0.673900	0.732800	0.626000
C2841	C284	0.719400	0.771300	0.605800
H1391	H139	0.761700	0.781000	0.625000
C2851	C285	0.701500	0.795700	0.556200
C2861	C286	0.736100	0.836000	0.523000
C2871	C287	0.692800	0.840000	0.475800
C2881	C288	0.710600	0.874400	0.434600
H1401	H140	0.680800	0.878000	0.403700
C2891	C289	0.774900	0.903300	0.441600
H1411	H141	0.788800	0.924600	0.414200
C2901	C290	0.819600	0.901100	0.489100
C2911	C291	0.799800	0.866000	0.529900
H1421	H142	0.829100	0.862900	0.561200
C2921	C292	0.572600	0.804200	0.440600
C2931	C293	0.541200	0.741900	0.425900
H1431	H143	0.558700	0.700100	0.440500
C2941	C294	0.482200	0.742300	0.388500
H1441	H144	0.462200	0.699400	0.378700
C2951	C295	0.452900	0.799000	0.366100
C2961	C296	0.486400	0.863000	0.382800
H1451	H145	0.467800	0.904400	0.368200
C2971	C297	0.545500	0.867300	0.419700
H1461	H146	0.565600	0.910000	0.429800
C2981	C298	0.691800	0.700100	0.677400
C2991	C299	0.886300	0.934800	0.495000
C3001	C300	0.390600	0.793900	0.325400
C3011	C301	0.560000	0.518700	0.657300
H1471	H147	0.564500	0.561600	0.641900
N131	N13	0.698500	0.138300	0.456800
N141	N14	0.632100	0.807500	0.479400
O911	O91	0.556600	0.398700	0.530700
O921	O92	0.531200	0.419800	0.447100
O931	O93	0.786000	0.153600	0.696300
O941	O94	0.843700	0.060600	0.682300
O951	O95	0.782900	0.974000	0.271100
O961	O96	0.690900	0.921000	0.277900
O971	O97	0.652200	0.656200	0.688500
O981	O98	0.747200	0.717600	0.706200
O991	O99	0.922300	0.936400	0.538800
O1001	O100	0.900700	0.961900	0.455700
O1011	O101	0.369800	0.853200	0.315500
O1021	O102	0.364200	0.738300	0.311200
O1031	O103	0.554900	0.652200	0.750000
O1041	O104	0.578200	0.514800	0.705500
O1051	O105	0.537200	0.469900	0.630000
Zn221	Zn22	0.013370	0.984220	0.555100
Zn231	Zn23	0.136510	0.092780	0.742830
Zn241	Zn24	0.287230	0.157630	0.763840
C3021	C302	0.157200	0.695800	0.457000
C3031	C303	0.121400	0.734000	0.415900
H1481	H148	0.120100	0.719300	0.382700
C3041	C304	0.088300	0.793300	0.425700
H1491	H149	0.064200	0.819200	0.398900
C3051	C305	0.090500	0.815700	0.476400
C3061	C306	0.125200	0.778700	0.515800
H1501	H150	0.125600	0.793400	0.548900
C3071	C307	0.160900	0.717900	0.507200
C3081	C308	0.205700	0.672100	0.539300
C3091	C309	0.229900	0.665700	0.591500
H1511	H151	0.215600	0.696800	0.613900
C3101	C310	0.275000	0.613500	0.609900
C3111	C311	0.295800	0.565400	0.577000
H1521	H152	0.326200	0.530400	0.590000
C3121	C312	0.271700	0.569400	0.525300
H1531	H153	0.284400	0.536500	0.503500
C3131	C313	0.228200	0.623300	0.506500
C3141	C314	0.205000	0.597800	0.413400
C3151	C315	0.267000	0.593000	0.399600
H1541	H154	0.303600	0.617300	0.417900
C3161	C316	0.274500	0.552700	0.359400
H1551	H155	0.316400	0.549900	0.350100
C3171	C317	0.220700	0.515700	0.332000
C3181	C318	0.159300	0.522000	0.346000
H1561	H156	0.122400	0.497900	0.328000
C3191	C319	0.151800	0.563100	0.385900
H1571	H157	0.109600	0.567400	0.394400
C3201	C320	0.056700	0.883700	0.485000
C3211	C321	0.302400	0.607800	0.665500
C3221	C322	0.233500	0.467600	0.290500
C3231	C323	0.137600	0.279600	0.527500
C3241	C324	0.090200	0.241900	0.547400
H1581	H158	0.047500	0.233200	0.528400
C3251	C325	0.109300	0.218000	0.596700
H1591	H159	0.079100	0.191700	0.611000
C3261	C326	0.173900	0.232800	0.626000
C3271	C327	0.219400	0.271300	0.605800
H1601	H160	0.261700	0.281000	0.625000
C3281	C328	0.201500	0.295700	0.556200
C3291	C329	0.236100	0.336000	0.523000
C3301	C330	0.192800	0.340000	0.475800
C3311	C331	0.210600	0.374400	0.434600
H1611	H161	0.180800	0.378000	0.403700
C3321	C332	0.274900	0.403300	0.441600
H1621	H162	0.288800	0.424600	0.414200
C3331	C333	0.319600	0.401100	0.489100
C3341	C334	0.299800	0.366000	0.529900
H1631	H163	0.329100	0.362900	0.561200
C3351	C335	0.072600	0.304200	0.440600
C3361	C336	0.041200	0.241900	0.425900
H1641	H164	0.058700	0.200100	0.440500
C3371	C337	0.982200	0.242300	0.388500
H1651	H165	0.962200	0.199400	0.378700
C3381	C338	0.952900	0.299000	0.366100
C3391	C339	0.986400	0.363000	0.382800
H1661	H166	0.967800	0.404400	0.368200
C3401	C340	0.045500	0.367300	0.419700
H1671	H167	0.065600	0.410000	0.429800
C3411	C341	0.191800	0.200100	0.677400
C3421	C342	0.386300	0.434800	0.495000
C3431	C343	0.890600	0.293900	0.325400
C3441	C344	0.060000	0.018700	0.657300
H1681	H168	0.064500	0.061600	0.641900
N151	N15	0.198500	0.638300	0.456800
N161	N16	0.132100	0.307500	0.479400
O1061	O106	0.056600	0.898700	0.530700
O1071	O107	0.031200	0.919800	0.447100
O1081	O108	0.286000	0.653600	0.696300
O1091	O109	0.343700	0.560600	0.682300
O1101	O110	0.282900	0.474000	0.271100
O1111	O111	0.190900	0.421000	0.277900
O1121	O112	0.152200	0.156200	0.688500
O1131	O113	0.247200	0.217600	0.706200
O1141	O114	0.422300	0.436400	0.538800
O1151	O115	0.400700	0.461900	0.455700
O1161	O116	0.869800	0.353200	0.315500
O1171	O117	0.864200	0.238300	0.311200
O1181	O118	0.054900	0.152200	0.750000
O1191	O119	0.078200	0.014800	0.705500
O1201	O120	0.037200	0.969900	0.630000
C3451	C345	0.500000	0.374400	0.250000
H1691	H169	0.500000	0.423100	0.250000
C3461	C346	0.000000	0.874400	0.250000
H1701	H170	0.000000	0.923100	0.250000
C3471	C347	0.500000	0.625600	0.750000
H1711	H171	0.500000	0.576900	0.750000
C3481	C348	0.000000	0.125600	0.750000
H1721	H172	0.000000	0.076900	0.750000
