data_HOLQIK_clean_PM
_symmetry_space_group_name_H-M	'P1'
_cell_length_a	25.384000
_cell_length_b	25.384000
_cell_length_c	25.384000
_cell_angle_alpha	90.000000
_cell_angle_beta	90.000000
_cell_angle_gamma	90.000000
_symmetry_Int_Tables_number 1

loop_
_symmetry_equiv_pos_as_xyz
'x,y,z'

loop_
_atom_site_label
_atom_site_type_symbol
_atom_site_fract_x
_atom_site_fract_y
_atom_site_fract_z
O11	O1	0.183100	0.188900	0.098000
O21	O2	0.187800	0.229800	0.827700
O31	O3	0.236800	0.302100	0.844000
O41	O4	0.266200	0.245100	0.103200
C11	C1	0.183600	0.196400	0.990000
H11	H1	0.161800	0.171000	0.004900
C21	C2	0.251000	0.272200	0.003200
H21	H2	0.270800	0.294000	0.025000
C31	C3	0.211800	0.260900	0.856000
C41	C4	0.220400	0.228700	0.021200
C51	C5	0.221900	0.222700	0.080600
C61	C6	0.213000	0.246400	0.915500
C71	C7	0.247300	0.278000	0.945400
H31	H3	0.268100	0.303100	0.928500
C81	C8	0.184600	0.207300	0.936600
N11	N1	0.158300	0.167900	0.906500
H41	H4	0.143900	0.183200	0.879900
O51	O5	0.167600	0.088000	0.943700
C91	C9	0.097500	0.117200	0.823400
H51	H5	0.103600	0.153300	0.822100
C101	C10	0.118100	0.092200	0.864700
C111	C11	0.121000	0.040600	0.881000
H61	H6	0.138200	0.025800	0.910200
C121	C12	0.068300	0.096800	0.782300
H71	H7	0.051900	0.111600	0.753100
C131	C13	0.092200	0.018000	0.843000
H81	H8	0.085200	0.982500	0.844600
C141	C14	0.072500	0.047000	0.801000
C151	C15	0.147100	0.116000	0.903300
Zn11	Zn1	0.250660	0.176470	0.272170
O61	O6	0.316900	0.811100	0.598000
O71	O7	0.312200	0.770200	0.327700
O81	O8	0.263200	0.697900	0.344000
O91	O9	0.233800	0.754900	0.603200
C161	C16	0.316400	0.803600	0.490000
H91	H9	0.338200	0.829000	0.504900
C171	C17	0.249000	0.727800	0.503200
H101	H10	0.229200	0.706000	0.525000
C181	C18	0.288200	0.739100	0.356000
C191	C19	0.279600	0.771300	0.521200
C201	C20	0.278100	0.777300	0.580600
C211	C21	0.287000	0.753600	0.415500
C221	C22	0.252700	0.722000	0.445400
H111	H11	0.231900	0.696900	0.428500
C231	C23	0.315400	0.792700	0.436600
N21	N2	0.341700	0.832100	0.406500
H121	H12	0.356100	0.816800	0.379900
O101	O10	0.332400	0.912000	0.443700
C241	C24	0.402500	0.882800	0.323400
H131	H13	0.396400	0.846700	0.322100
C251	C25	0.381900	0.907800	0.364700
C261	C26	0.379000	0.959400	0.381000
H141	H14	0.361800	0.974200	0.410200
C271	C27	0.431700	0.903200	0.282300
H151	H15	0.448100	0.888400	0.253100
C281	C28	0.407800	0.982000	0.343000
H161	H16	0.414800	0.017500	0.344600
C291	C29	0.427500	0.953000	0.301000
C301	C30	0.352900	0.884000	0.403300
Zn21	Zn2	0.249340	0.823530	0.772170
O111	O11	0.816900	0.688900	0.402000
O121	O12	0.812200	0.729800	0.672300
O131	O13	0.763200	0.802100	0.656000
O141	O14	0.733800	0.745100	0.396800
C311	C31	0.816400	0.696400	0.510000
H171	H17	0.838200	0.671000	0.495100
C321	C32	0.749000	0.772200	0.496800
H181	H18	0.729200	0.794000	0.475000
C331	C33	0.788200	0.760900	0.644000
C341	C34	0.779600	0.728700	0.478800
C351	C35	0.778100	0.722700	0.419400
C361	C36	0.787000	0.746400	0.584500
C371	C37	0.752700	0.778000	0.554600
H191	H19	0.731900	0.803100	0.571500
C381	C38	0.815400	0.707300	0.563400
N31	N3	0.841700	0.667900	0.593500
H201	H20	0.856100	0.683200	0.620100
O151	O15	0.832400	0.588000	0.556300
C391	C39	0.902500	0.617200	0.676600
H211	H21	0.896400	0.653300	0.677900
C401	C40	0.881900	0.592200	0.635300
C411	C41	0.879000	0.540600	0.619000
H221	H22	0.861800	0.525800	0.589800
C421	C42	0.931700	0.596800	0.717700
H231	H23	0.948100	0.611600	0.746900
C431	C43	0.907800	0.518000	0.657000
H241	H24	0.914800	0.482500	0.655400
C441	C44	0.927500	0.547000	0.699000
C451	C45	0.852900	0.616000	0.596700
Zn31	Zn3	0.749340	0.676470	0.227830
O161	O16	0.683100	0.311100	0.902000
O171	O17	0.687800	0.270200	0.172300
O181	O18	0.736800	0.197900	0.156000
O191	O19	0.766200	0.254900	0.896800
C461	C46	0.683600	0.303600	0.010000
H251	H25	0.661800	0.329000	0.995100
C471	C47	0.751000	0.227800	0.996800
H261	H26	0.770800	0.206000	0.975000
C481	C48	0.711800	0.239100	0.144000
C491	C49	0.720400	0.271300	0.978800
C501	C50	0.721900	0.277300	0.919400
C511	C51	0.713000	0.253600	0.084500
C521	C52	0.747300	0.222000	0.054600
H271	H27	0.768100	0.196900	0.071500
C531	C53	0.684600	0.292700	0.063400
N41	N4	0.658300	0.332100	0.093500
H281	H28	0.643900	0.316800	0.120100
O201	O20	0.667600	0.412000	0.056300
C541	C54	0.597500	0.382800	0.176600
H291	H29	0.603600	0.346700	0.177900
C551	C55	0.618100	0.407800	0.135300
C561	C56	0.621000	0.459400	0.119000
H301	H30	0.638200	0.474200	0.089800
C571	C57	0.568300	0.403200	0.217700
H311	H31	0.551900	0.388400	0.246900
C581	C58	0.592200	0.482000	0.157000
H321	H32	0.585200	0.517500	0.155400
C591	C59	0.572500	0.453000	0.199000
C601	C60	0.647100	0.384000	0.096700
Zn41	Zn4	0.750660	0.323530	0.727830
O211	O21	0.098000	0.183100	0.188900
O221	O22	0.827700	0.187800	0.229800
O231	O23	0.844000	0.236800	0.302100
O241	O24	0.103200	0.266200	0.245100
C611	C61	0.990000	0.183600	0.196400
H331	H33	0.004900	0.161800	0.171000
C621	C62	0.003200	0.251000	0.272200
H341	H34	0.025000	0.270800	0.294000
C631	C63	0.856000	0.211800	0.260900
C641	C64	0.021200	0.220400	0.228700
C651	C65	0.080600	0.221900	0.222700
C661	C66	0.915500	0.213000	0.246400
C671	C67	0.945400	0.247300	0.278000
H351	H35	0.928500	0.268100	0.303100
C681	C68	0.936600	0.184600	0.207300
N51	N5	0.906500	0.158300	0.167900
H361	H36	0.879900	0.143900	0.183200
O251	O25	0.943700	0.167600	0.088000
C691	C69	0.823400	0.097500	0.117200
H371	H37	0.822100	0.103600	0.153300
C701	C70	0.864700	0.118100	0.092200
C711	C71	0.881000	0.121000	0.040600
H381	H38	0.910200	0.138200	0.025800
C721	C72	0.782300	0.068300	0.096800
H391	H39	0.753100	0.051900	0.111600
C731	C73	0.843000	0.092200	0.018000
H401	H40	0.844600	0.085200	0.982500
C741	C74	0.801000	0.072500	0.047000
C751	C75	0.903300	0.147100	0.116000
Zn51	Zn5	0.272170	0.250660	0.176470
O261	O26	0.598000	0.316900	0.811100
O271	O27	0.327700	0.312200	0.770200
O281	O28	0.344000	0.263200	0.697900
O291	O29	0.603200	0.233800	0.754900
C761	C76	0.490000	0.316400	0.803600
H411	H41	0.504900	0.338200	0.829000
C771	C77	0.503200	0.249000	0.727800
H421	H42	0.525000	0.229200	0.706000
C781	C78	0.356000	0.288200	0.739100
C791	C79	0.521200	0.279600	0.771300
C801	C80	0.580600	0.278100	0.777300
C811	C81	0.415500	0.287000	0.753600
C821	C82	0.445400	0.252700	0.722000
H431	H43	0.428500	0.231900	0.696900
C831	C83	0.436600	0.315400	0.792700
N61	N6	0.406500	0.341700	0.832100
H441	H44	0.379900	0.356100	0.816800
O301	O30	0.443700	0.332400	0.912000
C841	C84	0.323400	0.402500	0.882800
H451	H45	0.322100	0.396400	0.846700
C851	C85	0.364700	0.381900	0.907800
C861	C86	0.381000	0.379000	0.959400
H461	H46	0.410200	0.361800	0.974200
C871	C87	0.282300	0.431700	0.903200
H471	H47	0.253100	0.448100	0.888400
C881	C88	0.343000	0.407800	0.982000
H481	H48	0.344600	0.414800	0.017500
C891	C89	0.301000	0.427500	0.953000
C901	C90	0.403300	0.352900	0.884000
Zn61	Zn6	0.772170	0.249340	0.823530
O311	O31	0.402000	0.816900	0.688900
O321	O32	0.672300	0.812200	0.729800
O331	O33	0.656000	0.763200	0.802100
O341	O34	0.396800	0.733800	0.745100
C911	C91	0.510000	0.816400	0.696400
H491	H49	0.495100	0.838200	0.671000
C921	C92	0.496800	0.749000	0.772200
H501	H50	0.475000	0.729200	0.794000
C931	C93	0.644000	0.788200	0.760900
C941	C94	0.478800	0.779600	0.728700
C951	C95	0.419400	0.778100	0.722700
C961	C96	0.584500	0.787000	0.746400
C971	C97	0.554600	0.752700	0.778000
H511	H51	0.571500	0.731900	0.803100
C981	C98	0.563400	0.815400	0.707300
N71	N7	0.593500	0.841700	0.667900
H521	H52	0.620100	0.856100	0.683200
O351	O35	0.556300	0.832400	0.588000
C991	C99	0.676600	0.902500	0.617200
H531	H53	0.677900	0.896400	0.653300
C1001	C100	0.635300	0.881900	0.592200
C1011	C101	0.619000	0.879000	0.540600
H541	H54	0.589800	0.861800	0.525800
C1021	C102	0.717700	0.931700	0.596800
H551	H55	0.746900	0.948100	0.611600
C1031	C103	0.657000	0.907800	0.518000
H561	H56	0.655400	0.914800	0.482500
C1041	C104	0.699000	0.927500	0.547000
C1051	C105	0.596700	0.852900	0.616000
Zn71	Zn7	0.227830	0.749340	0.676470
O361	O36	0.902000	0.683100	0.311100
O371	O37	0.172300	0.687800	0.270200
O381	O38	0.156000	0.736800	0.197900
O391	O39	0.896800	0.766200	0.254900
C1061	C106	0.010000	0.683600	0.303600
H571	H57	0.995100	0.661800	0.329000
C1071	C107	0.996800	0.751000	0.227800
H581	H58	0.975000	0.770800	0.206000
C1081	C108	0.144000	0.711800	0.239100
C1091	C109	0.978800	0.720400	0.271300
C1101	C110	0.919400	0.721900	0.277300
C1111	C111	0.084500	0.713000	0.253600
C1121	C112	0.054600	0.747300	0.222000
H591	H59	0.071500	0.768100	0.196900
C1131	C113	0.063400	0.684600	0.292700
N81	N8	0.093500	0.658300	0.332100
H601	H60	0.120100	0.643900	0.316800
O401	O40	0.056300	0.667600	0.412000
C1141	C114	0.176600	0.597500	0.382800
H611	H61	0.177900	0.603600	0.346700
C1151	C115	0.135300	0.618100	0.407800
C1161	C116	0.119000	0.621000	0.459400
H621	H62	0.089800	0.638200	0.474200
C1171	C117	0.217700	0.568300	0.403200
H631	H63	0.246900	0.551900	0.388400
C1181	C118	0.157000	0.592200	0.482000
H641	H64	0.155400	0.585200	0.517500
C1191	C119	0.199000	0.572500	0.453000
C1201	C120	0.096700	0.647100	0.384000
Zn81	Zn8	0.727830	0.750660	0.323530
O411	O41	0.188900	0.098000	0.183100
O421	O42	0.229800	0.827700	0.187800
O431	O43	0.302100	0.844000	0.236800
O441	O44	0.245100	0.103200	0.266200
C1211	C121	0.196400	0.990000	0.183600
H651	H65	0.171000	0.004900	0.161800
C1221	C122	0.272200	0.003200	0.251000
H661	H66	0.294000	0.025000	0.270800
C1231	C123	0.260900	0.856000	0.211800
C1241	C124	0.228700	0.021200	0.220400
C1251	C125	0.222700	0.080600	0.221900
C1261	C126	0.246400	0.915500	0.213000
C1271	C127	0.278000	0.945400	0.247300
H671	H67	0.303100	0.928500	0.268100
C1281	C128	0.207300	0.936600	0.184600
N91	N9	0.167900	0.906500	0.158300
H681	H68	0.183200	0.879900	0.143900
O451	O45	0.088000	0.943700	0.167600
C1291	C129	0.117200	0.823400	0.097500
H691	H69	0.153300	0.822100	0.103600
C1301	C130	0.092200	0.864700	0.118100
C1311	C131	0.040600	0.881000	0.121000
H701	H70	0.025800	0.910200	0.138200
C1321	C132	0.096800	0.782300	0.068300
H711	H71	0.111600	0.753100	0.051900
C1331	C133	0.018000	0.843000	0.092200
H721	H72	0.982500	0.844600	0.085200
C1341	C134	0.047000	0.801000	0.072500
C1351	C135	0.116000	0.903300	0.147100
Zn91	Zn9	0.176470	0.272170	0.250660
O461	O46	0.811100	0.598000	0.316900
O471	O47	0.770200	0.327700	0.312200
O481	O48	0.697900	0.344000	0.263200
O491	O49	0.754900	0.603200	0.233800
C1361	C136	0.803600	0.490000	0.316400
H731	H73	0.829000	0.504900	0.338200
C1371	C137	0.727800	0.503200	0.249000
H741	H74	0.706000	0.525000	0.229200
C1381	C138	0.739100	0.356000	0.288200
C1391	C139	0.771300	0.521200	0.279600
C1401	C140	0.777300	0.580600	0.278100
C1411	C141	0.753600	0.415500	0.287000
C1421	C142	0.722000	0.445400	0.252700
H751	H75	0.696900	0.428500	0.231900
C1431	C143	0.792700	0.436600	0.315400
N101	N10	0.832100	0.406500	0.341700
H761	H76	0.816800	0.379900	0.356100
O501	O50	0.912000	0.443700	0.332400
C1441	C144	0.882800	0.323400	0.402500
H771	H77	0.846700	0.322100	0.396400
C1451	C145	0.907800	0.364700	0.381900
C1461	C146	0.959400	0.381000	0.379000
H781	H78	0.974200	0.410200	0.361800
C1471	C147	0.903200	0.282300	0.431700
H791	H79	0.888400	0.253100	0.448100
C1481	C148	0.982000	0.343000	0.407800
H801	H80	0.017500	0.344600	0.414800
C1491	C149	0.953000	0.301000	0.427500
C1501	C150	0.884000	0.403300	0.352900
Zn101	Zn10	0.823530	0.772170	0.249340
O511	O51	0.688900	0.402000	0.816900
O521	O52	0.729800	0.672300	0.812200
O531	O53	0.802100	0.656000	0.763200
O541	O54	0.745100	0.396800	0.733800
C1511	C151	0.696400	0.510000	0.816400
H811	H81	0.671000	0.495100	0.838200
C1521	C152	0.772200	0.496800	0.749000
H821	H82	0.794000	0.475000	0.729200
C1531	C153	0.760900	0.644000	0.788200
C1541	C154	0.728700	0.478800	0.779600
C1551	C155	0.722700	0.419400	0.778100
C1561	C156	0.746400	0.584500	0.787000
C1571	C157	0.778000	0.554600	0.752700
H831	H83	0.803100	0.571500	0.731900
C1581	C158	0.707300	0.563400	0.815400
N111	N11	0.667900	0.593500	0.841700
H841	H84	0.683200	0.620100	0.856100
O551	O55	0.588000	0.556300	0.832400
C1591	C159	0.617200	0.676600	0.902500
H851	H85	0.653300	0.677900	0.896400
C1601	C160	0.592200	0.635300	0.881900
C1611	C161	0.540600	0.619000	0.879000
H861	H86	0.525800	0.589800	0.861800
C1621	C162	0.596800	0.717700	0.931700
H871	H87	0.611600	0.746900	0.948100
C1631	C163	0.518000	0.657000	0.907800
H881	H88	0.482500	0.655400	0.914800
C1641	C164	0.547000	0.699000	0.927500
C1651	C165	0.616000	0.596700	0.852900
Zn111	Zn11	0.676470	0.227830	0.749340
O561	O56	0.311100	0.902000	0.683100
O571	O57	0.270200	0.172300	0.687800
O581	O58	0.197900	0.156000	0.736800
O591	O59	0.254900	0.896800	0.766200
C1661	C166	0.303600	0.010000	0.683600
H891	H89	0.329000	0.995100	0.661800
C1671	C167	0.227800	0.996800	0.751000
H901	H90	0.206000	0.975000	0.770800
C1681	C168	0.239100	0.144000	0.711800
C1691	C169	0.271300	0.978800	0.720400
C1701	C170	0.277300	0.919400	0.721900
C1711	C171	0.253600	0.084500	0.713000
C1721	C172	0.222000	0.054600	0.747300
H911	H91	0.196900	0.071500	0.768100
C1731	C173	0.292700	0.063400	0.684600
N121	N12	0.332100	0.093500	0.658300
H921	H92	0.316800	0.120100	0.643900
O601	O60	0.412000	0.056300	0.667600
C1741	C174	0.382800	0.176600	0.597500
H931	H93	0.346700	0.177900	0.603600
C1751	C175	0.407800	0.135300	0.618100
C1761	C176	0.459400	0.119000	0.621000
H941	H94	0.474200	0.089800	0.638200
C1771	C177	0.403200	0.217700	0.568300
H951	H95	0.388400	0.246900	0.551900
C1781	C178	0.482000	0.157000	0.592200
H961	H96	0.517500	0.155400	0.585200
C1791	C179	0.453000	0.199000	0.572500
C1801	C180	0.384000	0.096700	0.647100
Zn121	Zn12	0.323530	0.727830	0.750660
O611	O61	0.816900	0.811100	0.902000
O621	O62	0.812200	0.770200	0.172300
O631	O63	0.763200	0.697900	0.156000
O641	O64	0.733800	0.754900	0.896800
C1811	C181	0.816400	0.803600	0.010000
H971	H97	0.838200	0.829000	0.995100
C1821	C182	0.749000	0.727800	0.996800
H981	H98	0.729200	0.706000	0.975000
C1831	C183	0.788200	0.739100	0.144000
C1841	C184	0.779600	0.771300	0.978800
C1851	C185	0.778100	0.777300	0.919400
C1861	C186	0.787000	0.753600	0.084500
C1871	C187	0.752700	0.722000	0.054600
H991	H99	0.731900	0.696900	0.071500
C1881	C188	0.815400	0.792700	0.063400
N131	N13	0.841700	0.832100	0.093500
H1001	H100	0.856100	0.816800	0.120100
O651	O65	0.832400	0.912000	0.056300
C1891	C189	0.902500	0.882800	0.176600
H1011	H101	0.896400	0.846700	0.177900
C1901	C190	0.881900	0.907800	0.135300
C1911	C191	0.879000	0.959400	0.119000
H1021	H102	0.861800	0.974200	0.089800
C1921	C192	0.931700	0.903200	0.217700
H1031	H103	0.948100	0.888400	0.246900
C1931	C193	0.907800	0.982000	0.157000
H1041	H104	0.914800	0.017500	0.155400
C1941	C194	0.927500	0.953000	0.199000
C1951	C195	0.852900	0.884000	0.096700
Zn131	Zn13	0.749340	0.823530	0.727830
O661	O66	0.683100	0.188900	0.402000
O671	O67	0.687800	0.229800	0.672300
O681	O68	0.736800	0.302100	0.656000
O691	O69	0.766200	0.245100	0.396800
C1961	C196	0.683600	0.196400	0.510000
H1051	H105	0.661800	0.171000	0.495100
C1971	C197	0.751000	0.272200	0.496800
H1061	H106	0.770800	0.294000	0.475000
C1981	C198	0.711800	0.260900	0.644000
C1991	C199	0.720400	0.228700	0.478800
C2001	C200	0.721900	0.222700	0.419400
C2011	C201	0.713000	0.246400	0.584500
C2021	C202	0.747300	0.278000	0.554600
H1071	H107	0.768100	0.303100	0.571500
C2031	C203	0.684600	0.207300	0.563400
N141	N14	0.658300	0.167900	0.593500
H1081	H108	0.643900	0.183200	0.620100
O701	O70	0.667600	0.088000	0.556300
C2041	C204	0.597500	0.117200	0.676600
H1091	H109	0.603600	0.153300	0.677900
C2051	C205	0.618100	0.092200	0.635300
C2061	C206	0.621000	0.040600	0.619000
H1101	H110	0.638200	0.025800	0.589800
C2071	C207	0.568300	0.096800	0.717700
H1111	H111	0.551900	0.111600	0.746900
C2081	C208	0.592200	0.018000	0.657000
H1121	H112	0.585200	0.982500	0.655400
C2091	C209	0.572500	0.047000	0.699000
C2101	C210	0.647100	0.116000	0.596700
Zn141	Zn14	0.750660	0.176470	0.227830
O711	O71	0.183100	0.311100	0.598000
O721	O72	0.187800	0.270200	0.327700
O731	O73	0.236800	0.197900	0.344000
O741	O74	0.266200	0.254900	0.603200
C2111	C211	0.183600	0.303600	0.490000
H1131	H113	0.161800	0.329000	0.504900
C2121	C212	0.251000	0.227800	0.503200
H1141	H114	0.270800	0.206000	0.525000
C2131	C213	0.211800	0.239100	0.356000
C2141	C214	0.220400	0.271300	0.521200
C2151	C215	0.221900	0.277300	0.580600
C2161	C216	0.213000	0.253600	0.415500
C2171	C217	0.247300	0.222000	0.445400
H1151	H115	0.268100	0.196900	0.428500
C2181	C218	0.184600	0.292700	0.436600
N151	N15	0.158300	0.332100	0.406500
H1161	H116	0.143900	0.316800	0.379900
O751	O75	0.167600	0.412000	0.443700
C2191	C219	0.097500	0.382800	0.323400
H1171	H117	0.103600	0.346700	0.322100
C2201	C220	0.118100	0.407800	0.364700
C2211	C221	0.121000	0.459400	0.381000
H1181	H118	0.138200	0.474200	0.410200
C2221	C222	0.068300	0.403200	0.282300
H1191	H119	0.051900	0.388400	0.253100
C2231	C223	0.092200	0.482000	0.343000
H1201	H120	0.085200	0.517500	0.344600
C2241	C224	0.072500	0.453000	0.301000
C2251	C225	0.147100	0.384000	0.403300
Zn151	Zn15	0.250660	0.323530	0.772170
O761	O76	0.316900	0.688900	0.098000
O771	O77	0.312200	0.729800	0.827700
O781	O78	0.263200	0.802100	0.844000
O791	O79	0.233800	0.745100	0.103200
C2261	C226	0.316400	0.696400	0.990000
H1211	H121	0.338200	0.671000	0.004900
C2271	C227	0.249000	0.772200	0.003200
H1221	H122	0.229200	0.794000	0.025000
C2281	C228	0.288200	0.760900	0.856000
C2291	C229	0.279600	0.728700	0.021200
C2301	C230	0.278100	0.722700	0.080600
C2311	C231	0.287000	0.746400	0.915500
C2321	C232	0.252700	0.778000	0.945400
H1231	H123	0.231900	0.803100	0.928500
C2331	C233	0.315400	0.707300	0.936600
N161	N16	0.341700	0.667900	0.906500
H1241	H124	0.356100	0.683200	0.879900
O801	O80	0.332400	0.588000	0.943700
C2341	C234	0.402500	0.617200	0.823400
H1251	H125	0.396400	0.653300	0.822100
C2351	C235	0.381900	0.592200	0.864700
C2361	C236	0.379000	0.540600	0.881000
H1261	H126	0.361800	0.525800	0.910200
C2371	C237	0.431700	0.596800	0.782300
H1271	H127	0.448100	0.611600	0.753100
C2381	C238	0.407800	0.518000	0.843000
H1281	H128	0.414800	0.482500	0.844600
C2391	C239	0.427500	0.547000	0.801000
C2401	C240	0.352900	0.616000	0.903300
Zn161	Zn16	0.249340	0.676470	0.272170
O811	O81	0.902000	0.816900	0.811100
O821	O82	0.172300	0.812200	0.770200
O831	O83	0.156000	0.763200	0.697900
O841	O84	0.896800	0.733800	0.754900
C2411	C241	0.010000	0.816400	0.803600
H1291	H129	0.995100	0.838200	0.829000
C2421	C242	0.996800	0.749000	0.727800
H1301	H130	0.975000	0.729200	0.706000
C2431	C243	0.144000	0.788200	0.739100
C2441	C244	0.978800	0.779600	0.771300
C2451	C245	0.919400	0.778100	0.777300
C2461	C246	0.084500	0.787000	0.753600
C2471	C247	0.054600	0.752700	0.722000
H1311	H131	0.071500	0.731900	0.696900
C2481	C248	0.063400	0.815400	0.792700
N171	N17	0.093500	0.841700	0.832100
H1321	H132	0.120100	0.856100	0.816800
O851	O85	0.056300	0.832400	0.912000
C2491	C249	0.176600	0.902500	0.882800
H1331	H133	0.177900	0.896400	0.846700
C2501	C250	0.135300	0.881900	0.907800
C2511	C251	0.119000	0.879000	0.959400
H1341	H134	0.089800	0.861800	0.974200
C2521	C252	0.217700	0.931700	0.903200
H1351	H135	0.246900	0.948100	0.888400
C2531	C253	0.157000	0.907800	0.982000
H1361	H136	0.155400	0.914800	0.017500
C2541	C254	0.199000	0.927500	0.953000
C2551	C255	0.096700	0.852900	0.884000
Zn171	Zn17	0.727830	0.749340	0.823530
O861	O86	0.402000	0.683100	0.188900
O871	O87	0.672300	0.687800	0.229800
O881	O88	0.656000	0.736800	0.302100
O891	O89	0.396800	0.766200	0.245100
C2561	C256	0.510000	0.683600	0.196400
H1371	H137	0.495100	0.661800	0.171000
C2571	C257	0.496800	0.751000	0.272200
H1381	H138	0.475000	0.770800	0.294000
C2581	C258	0.644000	0.711800	0.260900
C2591	C259	0.478800	0.720400	0.228700
C2601	C260	0.419400	0.721900	0.222700
C2611	C261	0.584500	0.713000	0.246400
C2621	C262	0.554600	0.747300	0.278000
H1391	H139	0.571500	0.768100	0.303100
C2631	C263	0.563400	0.684600	0.207300
N181	N18	0.593500	0.658300	0.167900
H1401	H140	0.620100	0.643900	0.183200
O901	O90	0.556300	0.667600	0.088000
C2641	C264	0.676600	0.597500	0.117200
H1411	H141	0.677900	0.603600	0.153300
C2651	C265	0.635300	0.618100	0.092200
C2661	C266	0.619000	0.621000	0.040600
H1421	H142	0.589800	0.638200	0.025800
C2671	C267	0.717700	0.568300	0.096800
H1431	H143	0.746900	0.551900	0.111600
C2681	C268	0.657000	0.592200	0.018000
H1441	H144	0.655400	0.585200	0.982500
C2691	C269	0.699000	0.572500	0.047000
C2701	C270	0.596700	0.647100	0.116000
Zn181	Zn18	0.227830	0.750660	0.176470
O911	O91	0.598000	0.183100	0.311100
O921	O92	0.327700	0.187800	0.270200
O931	O93	0.344000	0.236800	0.197900
O941	O94	0.603200	0.266200	0.254900
C2711	C271	0.490000	0.183600	0.303600
H1451	H145	0.504900	0.161800	0.329000
C2721	C272	0.503200	0.251000	0.227800
H1461	H146	0.525000	0.270800	0.206000
C2731	C273	0.356000	0.211800	0.239100
C2741	C274	0.521200	0.220400	0.271300
C2751	C275	0.580600	0.221900	0.277300
C2761	C276	0.415500	0.213000	0.253600
C2771	C277	0.445400	0.247300	0.222000
H1471	H147	0.428500	0.268100	0.196900
C2781	C278	0.436600	0.184600	0.292700
N191	N19	0.406500	0.158300	0.332100
H1481	H148	0.379900	0.143900	0.316800
O951	O95	0.443700	0.167600	0.412000
C2791	C279	0.323400	0.097500	0.382800
H1491	H149	0.322100	0.103600	0.346700
C2801	C280	0.364700	0.118100	0.407800
C2811	C281	0.381000	0.121000	0.459400
H1501	H150	0.410200	0.138200	0.474200
C2821	C282	0.282300	0.068300	0.403200
H1511	H151	0.253100	0.051900	0.388400
C2831	C283	0.343000	0.092200	0.482000
H1521	H152	0.344600	0.085200	0.517500
C2841	C284	0.301000	0.072500	0.453000
C2851	C285	0.403300	0.147100	0.384000
Zn191	Zn19	0.772170	0.250660	0.323530
O961	O96	0.098000	0.316900	0.688900
O971	O97	0.827700	0.312200	0.729800
O981	O98	0.844000	0.263200	0.802100
O991	O99	0.103200	0.233800	0.745100
C2861	C286	0.990000	0.316400	0.696400
H1531	H153	0.004900	0.338200	0.671000
C2871	C287	0.003200	0.249000	0.772200
H1541	H154	0.025000	0.229200	0.794000
C2881	C288	0.856000	0.288200	0.760900
C2891	C289	0.021200	0.279600	0.728700
C2901	C290	0.080600	0.278100	0.722700
C2911	C291	0.915500	0.287000	0.746400
C2921	C292	0.945400	0.252700	0.778000
H1551	H155	0.928500	0.231900	0.803100
C2931	C293	0.936600	0.315400	0.707300
N201	N20	0.906500	0.341700	0.667900
H1561	H156	0.879900	0.356100	0.683200
O1001	O100	0.943700	0.332400	0.588000
C2941	C294	0.823400	0.402500	0.617200
H1571	H157	0.822100	0.396400	0.653300
C2951	C295	0.864700	0.381900	0.592200
C2961	C296	0.881000	0.379000	0.540600
H1581	H158	0.910200	0.361800	0.525800
C2971	C297	0.782300	0.431700	0.596800
H1591	H159	0.753100	0.448100	0.611600
C2981	C298	0.843000	0.407800	0.518000
H1601	H160	0.844600	0.414800	0.482500
C2991	C299	0.801000	0.427500	0.547000
C3001	C300	0.903300	0.352900	0.616000
Zn201	Zn20	0.272170	0.249340	0.676470
O1011	O101	0.811100	0.902000	0.816900
O1021	O102	0.770200	0.172300	0.812200
O1031	O103	0.697900	0.156000	0.763200
O1041	O104	0.754900	0.896800	0.733800
C3011	C301	0.803600	0.010000	0.816400
H1611	H161	0.829000	0.995100	0.838200
C3021	C302	0.727800	0.996800	0.749000
H1621	H162	0.706000	0.975000	0.729200
C3031	C303	0.739100	0.144000	0.788200
C3041	C304	0.771300	0.978800	0.779600
C3051	C305	0.777300	0.919400	0.778100
C3061	C306	0.753600	0.084500	0.787000
C3071	C307	0.722000	0.054600	0.752700
H1631	H163	0.696900	0.071500	0.731900
C3081	C308	0.792700	0.063400	0.815400
N211	N21	0.832100	0.093500	0.841700
H1641	H164	0.816800	0.120100	0.856100
O1051	O105	0.912000	0.056300	0.832400
C3091	C309	0.882800	0.176600	0.902500
H1651	H165	0.846700	0.177900	0.896400
C3101	C310	0.907800	0.135300	0.881900
C3111	C311	0.959400	0.119000	0.879000
H1661	H166	0.974200	0.089800	0.861800
C3121	C312	0.903200	0.217700	0.931700
H1671	H167	0.888400	0.246900	0.948100
C3131	C313	0.982000	0.157000	0.907800
H1681	H168	0.017500	0.155400	0.914800
C3141	C314	0.953000	0.199000	0.927500
C3151	C315	0.884000	0.096700	0.852900
Zn211	Zn21	0.823530	0.727830	0.749340
O1061	O106	0.188900	0.402000	0.683100
O1071	O107	0.229800	0.672300	0.687800
O1081	O108	0.302100	0.656000	0.736800
O1091	O109	0.245100	0.396800	0.766200
C3161	C316	0.196400	0.510000	0.683600
H1691	H169	0.171000	0.495100	0.661800
C3171	C317	0.272200	0.496800	0.751000
H1701	H170	0.294000	0.475000	0.770800
C3181	C318	0.260900	0.644000	0.711800
C3191	C319	0.228700	0.478800	0.720400
C3201	C320	0.222700	0.419400	0.721900
C3211	C321	0.246400	0.584500	0.713000
C3221	C322	0.278000	0.554600	0.747300
H1711	H171	0.303100	0.571500	0.768100
C3231	C323	0.207300	0.563400	0.684600
N221	N22	0.167900	0.593500	0.658300
H1721	H172	0.183200	0.620100	0.643900
O1101	O110	0.088000	0.556300	0.667600
C3241	C324	0.117200	0.676600	0.597500
H1731	H173	0.153300	0.677900	0.603600
C3251	C325	0.092200	0.635300	0.618100
C3261	C326	0.040600	0.619000	0.621000
H1741	H174	0.025800	0.589800	0.638200
C3271	C327	0.096800	0.717700	0.568300
H1751	H175	0.111600	0.746900	0.551900
C3281	C328	0.018000	0.657000	0.592200
H1761	H176	0.982500	0.655400	0.585200
C3291	C329	0.047000	0.699000	0.572500
C3301	C330	0.116000	0.596700	0.647100
Zn221	Zn22	0.176470	0.227830	0.750660
O1111	O111	0.311100	0.598000	0.183100
O1121	O112	0.270200	0.327700	0.187800
O1131	O113	0.197900	0.344000	0.236800
O1141	O114	0.254900	0.603200	0.266200
C3311	C331	0.303600	0.490000	0.183600
H1771	H177	0.329000	0.504900	0.161800
C3321	C332	0.227800	0.503200	0.251000
H1781	H178	0.206000	0.525000	0.270800
C3331	C333	0.239100	0.356000	0.211800
C3341	C334	0.271300	0.521200	0.220400
C3351	C335	0.277300	0.580600	0.221900
C3361	C336	0.253600	0.415500	0.213000
C3371	C337	0.222000	0.445400	0.247300
H1791	H179	0.196900	0.428500	0.268100
C3381	C338	0.292700	0.436600	0.184600
N231	N23	0.332100	0.406500	0.158300
H1801	H180	0.316800	0.379900	0.143900
O1151	O115	0.412000	0.443700	0.167600
C3391	C339	0.382800	0.323400	0.097500
H1811	H181	0.346700	0.322100	0.103600
C3401	C340	0.407800	0.364700	0.118100
C3411	C341	0.459400	0.381000	0.121000
H1821	H182	0.474200	0.410200	0.138200
C3421	C342	0.403200	0.282300	0.068300
H1831	H183	0.388400	0.253100	0.051900
C3431	C343	0.482000	0.343000	0.092200
H1841	H184	0.517500	0.344600	0.085200
C3441	C344	0.453000	0.301000	0.072500
C3451	C345	0.384000	0.403300	0.147100
Zn231	Zn23	0.323530	0.772170	0.250660
O1161	O116	0.688900	0.098000	0.316900
O1171	O117	0.729800	0.827700	0.312200
O1181	O118	0.802100	0.844000	0.263200
O1191	O119	0.745100	0.103200	0.233800
C3461	C346	0.696400	0.990000	0.316400
H1851	H185	0.671000	0.004900	0.338200
C3471	C347	0.772200	0.003200	0.249000
H1861	H186	0.794000	0.025000	0.229200
C3481	C348	0.760900	0.856000	0.288200
C3491	C349	0.728700	0.021200	0.279600
C3501	C350	0.722700	0.080600	0.278100
C3511	C351	0.746400	0.915500	0.287000
C3521	C352	0.778000	0.945400	0.252700
H1871	H187	0.803100	0.928500	0.231900
C3531	C353	0.707300	0.936600	0.315400
N241	N24	0.667900	0.906500	0.341700
H1881	H188	0.683200	0.879900	0.356100
O1201	O120	0.588000	0.943700	0.332400
C3541	C354	0.617200	0.823400	0.402500
H1891	H189	0.653300	0.822100	0.396400
C3551	C355	0.592200	0.864700	0.381900
C3561	C356	0.540600	0.881000	0.379000
H1901	H190	0.525800	0.910200	0.361800
C3571	C357	0.596800	0.782300	0.431700
H1911	H191	0.611600	0.753100	0.448100
C3581	C358	0.518000	0.843000	0.407800
H1921	H192	0.482500	0.844600	0.414800
C3591	C359	0.547000	0.801000	0.427500
C3601	C360	0.616000	0.903300	0.352900
Zn241	Zn24	0.676470	0.272170	0.249340
O1211	O121	0.218000	0.218000	0.218000
Zn251	Zn25	0.173360	0.173360	0.173360
O1221	O122	0.282000	0.782000	0.718000
Zn261	Zn26	0.326640	0.826640	0.673360
O1231	O123	0.782000	0.718000	0.282000
Zn271	Zn27	0.826640	0.673360	0.326640
O1241	O124	0.718000	0.282000	0.782000
Zn281	Zn28	0.673360	0.326640	0.826640
O1251	O125	0.782000	0.782000	0.782000
Zn291	Zn29	0.826640	0.826640	0.826640
O1261	O126	0.718000	0.218000	0.282000
Zn301	Zn30	0.673360	0.173360	0.326640
O1271	O127	0.218000	0.282000	0.718000
Zn311	Zn31	0.173360	0.326640	0.673360
O1281	O128	0.282000	0.718000	0.218000
Zn321	Zn32	0.326640	0.673360	0.173360
