data_HOMRIL_clean_PM
_symmetry_space_group_name_H-M	'P1'
_cell_length_a	11.201500
_cell_length_b	14.969300
_cell_length_c	21.458500
_cell_angle_alpha	90.000000
_cell_angle_beta	92.098000
_cell_angle_gamma	90.000000
_symmetry_Int_Tables_number 1

loop_
_symmetry_equiv_pos_as_xyz
'x,y,z'

loop_
_atom_site_label
_atom_site_type_symbol
_atom_site_fract_x
_atom_site_fract_y
_atom_site_fract_z
Cu11	Cu1	0.597550	0.237780	0.300330
C11	C1	0.426900	0.385400	0.291700
H11	H1	0.418900	0.384700	0.334700
C21	C2	0.475000	0.353000	0.199200
H21	H2	0.509000	0.323600	0.166000
C31	C3	0.317600	0.531600	0.271100
H31	H3	0.255700	0.545700	0.240000
H41	H4	0.279400	0.521100	0.310300
C41	C4	0.400000	0.609900	0.278500
H51	H5	0.443900	0.617000	0.240700
H61	H6	0.353200	0.663500	0.284100
C51	C5	0.489400	0.599800	0.334000
H71	H7	0.555700	0.563200	0.321300
H81	H8	0.450500	0.568600	0.367300
C61	C6	0.538000	0.687300	0.359000
H91	H9	0.576900	0.677100	0.399400
H101	H10	0.471600	0.728000	0.364900
C71	C7	0.709700	0.694100	0.286200
H111	H11	0.724200	0.633300	0.282100
C81	C8	0.725000	0.833000	0.281400
H121	H12	0.753900	0.889600	0.272200
C91	C9	0.367700	0.175200	0.359200
H131	H13	0.321800	0.174600	0.322200
C101	C10	0.510800	0.198500	0.427800
H141	H14	0.581500	0.215900	0.448400
C111	C11	0.422000	0.115500	0.517700
H151	H15	0.345500	0.126300	0.535600
H161	H16	0.483200	0.144200	0.544200
C121	C12	0.446000	0.016200	0.515600
H171	H17	0.377100	0.988100	0.495200
H181	H18	0.450400	0.994600	0.558200
C131	C13	0.693900	0.057900	0.337500
H191	H19	0.628200	0.031000	0.317400
C141	C14	0.810800	0.155700	0.373000
H201	H20	0.846600	0.209800	0.383900
C151	C15	0.966500	0.055300	0.421100
H211	H21	0.008900	0.010100	0.398200
H221	H22	0.017500	0.107600	0.424900
C161	C16	0.942000	0.020700	0.484800
H231	H23	0.914000	0.069100	0.510600
H241	H24	0.879600	0.975700	0.481800
N11	N1	0.485400	0.326000	0.259800
N21	N2	0.407000	0.428300	0.194100
N31	N3	0.380000	0.447800	0.252200
N41	N4	0.631300	0.820100	0.316400
N51	N5	0.620900	0.728300	0.318700
N61	N6	0.775200	0.757900	0.260400
N71	N7	0.480900	0.213800	0.366500
N81	N8	0.423400	0.155600	0.452700
N91	N9	0.336000	0.140300	0.411300
N101	N10	0.708300	0.148900	0.342500
N111	N11	0.782700	0.012900	0.364000
N121	N12	0.856500	0.079000	0.386300
Cu21	Cu2	0.902450	0.737780	0.199670
C171	C17	0.073100	0.885400	0.208300
H251	H25	0.081100	0.884700	0.165300
C181	C18	0.025000	0.853000	0.300800
H261	H26	0.991000	0.823600	0.334000
C191	C19	0.182400	0.031600	0.228900
H271	H27	0.244300	0.045700	0.260000
H281	H28	0.220600	0.021100	0.189700
C201	C20	0.100000	0.109900	0.221500
H291	H29	0.056100	0.117000	0.259300
H301	H30	0.146800	0.163500	0.215900
C211	C21	0.010600	0.099800	0.166000
H311	H31	0.944300	0.063200	0.178700
H321	H32	0.049500	0.068600	0.132700
C221	C22	0.962000	0.187300	0.141000
H331	H33	0.923100	0.177100	0.100600
H341	H34	0.028400	0.228000	0.135100
C231	C23	0.790300	0.194100	0.213800
H351	H35	0.775800	0.133300	0.217900
C241	C24	0.775000	0.333000	0.218600
H361	H36	0.746100	0.389600	0.227800
C251	C25	0.132300	0.675200	0.140800
H371	H37	0.178200	0.674600	0.177800
C261	C26	0.989200	0.698500	0.072200
H381	H38	0.918500	0.715900	0.051600
C271	C27	0.078000	0.615500	0.982300
H391	H39	0.154500	0.626300	0.964400
H401	H40	0.016800	0.644200	0.955800
C281	C28	0.054000	0.516200	0.984400
H411	H41	0.122900	0.488100	0.004800
H421	H42	0.049600	0.494600	0.941800
C291	C29	0.806100	0.557900	0.162500
H431	H43	0.871800	0.531000	0.182600
C301	C30	0.689200	0.655700	0.127000
H441	H44	0.653400	0.709800	0.116100
C311	C31	0.533500	0.555300	0.078900
H451	H45	0.491100	0.510100	0.101800
H461	H46	0.482500	0.607600	0.075100
C321	C32	0.558000	0.520700	0.015200
H471	H47	0.586000	0.569100	0.989400
H481	H48	0.620400	0.475700	0.018200
N131	N13	0.014600	0.826000	0.240200
N141	N14	0.093000	0.928300	0.305900
N151	N15	0.120000	0.947800	0.247800
N161	N16	0.868700	0.320100	0.183600
N171	N17	0.879100	0.228300	0.181300
N181	N18	0.724800	0.257900	0.239600
N191	N19	0.019100	0.713800	0.133500
N201	N20	0.076600	0.655600	0.047300
N211	N21	0.164000	0.640300	0.088700
N221	N22	0.791700	0.648900	0.157500
N231	N23	0.717300	0.512900	0.136000
N241	N24	0.643500	0.579000	0.113700
Cu31	Cu3	0.402450	0.762220	0.699670
C331	C33	0.573100	0.614600	0.708300
H491	H49	0.581100	0.615300	0.665300
C341	C34	0.525000	0.647000	0.800800
H501	H50	0.491000	0.676400	0.834000
C351	C35	0.682400	0.468400	0.728900
H511	H51	0.744300	0.454300	0.760000
H521	H52	0.720600	0.478900	0.689700
C361	C36	0.600000	0.390100	0.721500
H531	H53	0.556100	0.383000	0.759300
H541	H54	0.646800	0.336500	0.715900
C371	C37	0.510600	0.400200	0.666000
H551	H55	0.444300	0.436800	0.678700
H561	H56	0.549500	0.431400	0.632700
C381	C38	0.462000	0.312700	0.641000
H571	H57	0.423100	0.322900	0.600600
H581	H58	0.528400	0.272000	0.635100
C391	C39	0.290300	0.305900	0.713800
H591	H59	0.275800	0.366700	0.717900
C401	C40	0.275000	0.167000	0.718600
H601	H60	0.246100	0.110400	0.727800
C411	C41	0.632300	0.824800	0.640800
H611	H61	0.678200	0.825400	0.677800
C421	C42	0.489200	0.801500	0.572200
H621	H62	0.418500	0.784100	0.551600
C431	C43	0.578000	0.884500	0.482300
H631	H63	0.654500	0.873700	0.464400
H641	H64	0.516800	0.855800	0.455800
C441	C44	0.554000	0.983800	0.484400
H651	H65	0.622900	0.011900	0.504800
H661	H66	0.549600	0.005400	0.441800
C451	C45	0.306100	0.942100	0.662500
H671	H67	0.371800	0.969000	0.682600
C461	C46	0.189200	0.844300	0.627000
H681	H68	0.153400	0.790200	0.616100
C471	C47	0.033500	0.944700	0.578900
H691	H69	0.991100	0.989900	0.601800
H701	H70	0.982500	0.892400	0.575100
C481	C48	0.058000	0.979300	0.515200
H711	H71	0.086000	0.930900	0.489400
H721	H72	0.120400	0.024300	0.518200
N251	N25	0.514600	0.674000	0.740200
N261	N26	0.593000	0.571700	0.805900
N271	N27	0.620000	0.552200	0.747800
N281	N28	0.368700	0.179900	0.683600
N291	N29	0.379100	0.271700	0.681300
N301	N30	0.224800	0.242100	0.739600
N311	N31	0.519100	0.786200	0.633500
N321	N32	0.576600	0.844400	0.547300
N331	N33	0.664000	0.859700	0.588700
N341	N34	0.291700	0.851100	0.657500
N351	N35	0.217300	0.987100	0.636000
N361	N36	0.143500	0.921000	0.613700
Cu41	Cu4	0.097550	0.262220	0.800330
C491	C49	0.926900	0.114600	0.791700
H731	H73	0.918900	0.115300	0.834700
C501	C50	0.975000	0.147000	0.699200
H741	H74	0.009000	0.176400	0.666000
C511	C51	0.817600	0.968400	0.771100
H751	H75	0.755700	0.954300	0.740000
H761	H76	0.779400	0.978900	0.810300
C521	C52	0.900000	0.890100	0.778500
H771	H77	0.943900	0.883000	0.740700
H781	H78	0.853200	0.836500	0.784100
C531	C53	0.989400	0.900200	0.834000
H791	H79	0.055700	0.936800	0.821300
H801	H80	0.950500	0.931400	0.867300
C541	C54	0.038000	0.812700	0.859000
H811	H81	0.076900	0.822900	0.899400
H821	H82	0.971600	0.772000	0.864900
C551	C55	0.209700	0.805900	0.786200
H831	H83	0.224200	0.866700	0.782100
C561	C56	0.225000	0.667000	0.781400
H841	H84	0.253900	0.610400	0.772200
C571	C57	0.867700	0.324800	0.859200
H851	H85	0.821800	0.325400	0.822200
C581	C58	0.010800	0.301500	0.927800
H861	H86	0.081500	0.284100	0.948400
C591	C59	0.922000	0.384500	0.017700
H871	H87	0.845500	0.373700	0.035600
H881	H88	0.983200	0.355800	0.044200
C601	C60	0.946000	0.483800	0.015600
H891	H89	0.877100	0.511900	0.995200
H901	H90	0.950400	0.505400	0.058200
C611	C61	0.193900	0.442100	0.837500
H911	H91	0.128200	0.469000	0.817400
C621	C62	0.310800	0.344300	0.873000
H921	H92	0.346600	0.290200	0.883900
C631	C63	0.466500	0.444700	0.921100
H931	H93	0.508900	0.489900	0.898200
H941	H94	0.517500	0.392400	0.924900
C641	C64	0.442000	0.479300	0.984800
H951	H95	0.414000	0.430900	0.010600
H961	H96	0.379600	0.524300	0.981800
N371	N37	0.985400	0.174000	0.759800
N381	N38	0.907000	0.071700	0.694100
N391	N39	0.880000	0.052200	0.752200
N401	N40	0.131300	0.679900	0.816400
N411	N41	0.120900	0.771700	0.818700
N421	N42	0.275200	0.742100	0.760400
N431	N43	0.980900	0.286200	0.866500
N441	N44	0.923400	0.344400	0.952700
N451	N45	0.836000	0.359700	0.911300
N461	N46	0.208300	0.351100	0.842500
N471	N47	0.282700	0.487100	0.864000
N481	N48	0.356500	0.421000	0.886300
