data_HOMZEP_clean_PM
_symmetry_space_group_name_H-M	'P1'
_cell_length_a	14.566500
_cell_length_b	14.566500
_cell_length_c	31.683500
_cell_angle_alpha	90.000000
_cell_angle_beta	90.000000
_cell_angle_gamma	120.000000
_symmetry_Int_Tables_number 1

loop_
_symmetry_equiv_pos_as_xyz
'x,y,z'

loop_
_atom_site_label
_atom_site_type_symbol
_atom_site_fract_x
_atom_site_fract_y
_atom_site_fract_z
Ga11	Ga1	0.925680	0.074320	0.250000
Ga21	Ga2	0.148640	0.074320	0.250000
Ga31	Ga3	0.925680	0.851360	0.250000
Ga41	Ga4	0.074320	0.925680	0.750000
Ga51	Ga5	0.851360	0.925680	0.750000
Ga61	Ga6	0.074320	0.148640	0.750000
Ga71	Ga7	0.583250	0.166500	0.415090
Ga81	Ga8	0.583250	0.416740	0.415090
Ga91	Ga9	0.833490	0.416740	0.415090
Ga101	Ga10	0.416750	0.833500	0.915090
Ga111	Ga11	0.416750	0.583260	0.915090
Ga121	Ga12	0.166510	0.583260	0.915090
Ga131	Ga13	0.416750	0.833500	0.584910
Ga141	Ga14	0.166510	0.583260	0.584910
Ga151	Ga15	0.416750	0.583260	0.584910
Ga161	Ga16	0.583250	0.166500	0.084910
Ga171	Ga17	0.833490	0.416740	0.084910
Ga181	Ga18	0.583250	0.416740	0.084910
Ga191	Ga19	0.500000	0.000000	0.500000
Ga201	Ga20	0.500000	0.500000	0.500000
Ga211	Ga21	0.000000	0.500000	0.500000
Ga221	Ga22	0.500000	0.000000	0.000000
Ga231	Ga23	0.500000	0.500000	0.000000
Ga241	Ga24	0.000000	0.500000	0.000000
H11	H1	0.723400	0.000000	0.355200
H21	H2	0.276600	0.276600	0.355200
H31	H3	0.000000	0.723400	0.355200
H41	H4	0.276600	0.000000	0.855200
H51	H5	0.723400	0.723400	0.855200
H61	H6	0.000000	0.276600	0.855200
H71	H7	0.723400	0.000000	0.644800
H81	H8	0.000000	0.723400	0.644800
H91	H9	0.276600	0.276600	0.644800
H101	H10	0.276600	0.000000	0.144800
H111	H11	0.000000	0.276600	0.144800
H121	H12	0.723400	0.723400	0.144800
H131	H13	0.276600	0.000000	0.644800
H141	H14	0.723400	0.723400	0.644800
H151	H15	0.000000	0.276600	0.644800
H161	H16	0.723400	0.000000	0.144800
H171	H17	0.276600	0.276600	0.144800
H181	H18	0.000000	0.723400	0.144800
H191	H19	0.276600	0.000000	0.355200
H201	H20	0.000000	0.276600	0.355200
H211	H21	0.723400	0.723400	0.355200
H221	H22	0.723400	0.000000	0.855200
H231	H23	0.000000	0.723400	0.855200
H241	H24	0.276600	0.276600	0.855200
H251	H25	0.574900	0.787450	0.447700
H261	H26	0.212550	0.425100	0.447700
H271	H27	0.212550	0.787450	0.447700
H281	H28	0.425100	0.212550	0.947700
H291	H29	0.787450	0.574900	0.947700
H301	H30	0.787450	0.212550	0.947700
H311	H31	0.787450	0.212550	0.552300
H321	H32	0.787450	0.574900	0.552300
H331	H33	0.425100	0.212550	0.552300
H341	H34	0.212550	0.787450	0.052300
H351	H35	0.212550	0.425100	0.052300
H361	H36	0.574900	0.787450	0.052300
C11	C1	0.610500	0.975200	0.425000
C21	C2	0.704400	0.935100	0.367800
C31	C3	0.646000	0.905700	0.405100
C41	C4	0.364700	0.389500	0.425000
C51	C5	0.230700	0.295600	0.367800
C61	C6	0.259700	0.354000	0.405100
C71	C7	0.024800	0.635300	0.425000
C81	C8	0.064900	0.769300	0.367800
C91	C9	0.094300	0.740300	0.405100
C101	C10	0.389500	0.024800	0.925000
C111	C11	0.295600	0.064900	0.867800
C121	C12	0.354000	0.094300	0.905100
C131	C13	0.635300	0.610500	0.925000
C141	C14	0.769300	0.704400	0.867800
C151	C15	0.740300	0.646000	0.905100
C161	C16	0.975200	0.364700	0.925000
C171	C17	0.935100	0.230700	0.867800
C181	C18	0.905700	0.259700	0.905100
C191	C19	0.635300	0.024800	0.575000
C201	C20	0.769300	0.064900	0.632200
C211	C21	0.740300	0.094300	0.594900
C221	C22	0.975200	0.610500	0.575000
C231	C23	0.935100	0.704400	0.632200
C241	C24	0.905700	0.646000	0.594900
C251	C25	0.389500	0.364700	0.575000
C261	C26	0.295600	0.230700	0.632200
C271	C27	0.354000	0.259700	0.594900
C281	C28	0.364700	0.975200	0.075000
C291	C29	0.230700	0.935100	0.132200
C301	C30	0.259700	0.905700	0.094900
C311	C31	0.024800	0.389500	0.075000
C321	C32	0.064900	0.295600	0.132200
C331	C33	0.094300	0.354000	0.094900
C341	C34	0.610500	0.635300	0.075000
C351	C35	0.704400	0.769300	0.132200
C361	C36	0.646000	0.740300	0.094900
C371	C37	0.389500	0.024800	0.575000
C381	C38	0.295600	0.064900	0.632200
C391	C39	0.354000	0.094300	0.594900
C401	C40	0.635300	0.610500	0.575000
C411	C41	0.769300	0.704400	0.632200
C421	C42	0.740300	0.646000	0.594900
C431	C43	0.975200	0.364700	0.575000
C441	C44	0.935100	0.230700	0.632200
C451	C45	0.905700	0.259700	0.594900
C461	C46	0.610500	0.975200	0.075000
C471	C47	0.704400	0.935100	0.132200
C481	C48	0.646000	0.905700	0.094900
C491	C49	0.364700	0.389500	0.075000
C501	C50	0.230700	0.295600	0.132200
C511	C51	0.259700	0.354000	0.094900
C521	C52	0.024800	0.635300	0.075000
C531	C53	0.064900	0.769300	0.132200
C541	C54	0.094300	0.740300	0.094900
C551	C55	0.364700	0.975200	0.425000
C561	C56	0.230700	0.935100	0.367800
C571	C57	0.259700	0.905700	0.405100
C581	C58	0.024800	0.389500	0.425000
C591	C59	0.064900	0.295600	0.367800
C601	C60	0.094300	0.354000	0.405100
C611	C61	0.610500	0.635300	0.425000
C621	C62	0.704400	0.769300	0.367800
C631	C63	0.646000	0.740300	0.405100
C641	C64	0.635300	0.024800	0.925000
C651	C65	0.769300	0.064900	0.867800
C661	C66	0.740300	0.094300	0.905100
C671	C67	0.975200	0.610500	0.925000
C681	C68	0.935100	0.704400	0.867800
C691	C69	0.905700	0.646000	0.905100
C701	C70	0.389500	0.364700	0.925000
C711	C71	0.295600	0.230700	0.867800
C721	C72	0.354000	0.259700	0.905100
C731	C73	0.799500	0.899750	0.309500
C741	C74	0.734400	0.867200	0.349300
C751	C75	0.615600	0.807800	0.423300
C761	C76	0.100250	0.200500	0.309500
C771	C77	0.132800	0.265600	0.349300
C781	C78	0.192200	0.384400	0.423300
C791	C79	0.100250	0.899750	0.309500
C801	C80	0.132800	0.867200	0.349300
C811	C81	0.192200	0.807800	0.423300
C821	C82	0.200500	0.100250	0.809500
C831	C83	0.265600	0.132800	0.849300
C841	C84	0.384400	0.192200	0.923300
C851	C85	0.899750	0.799500	0.809500
C861	C86	0.867200	0.734400	0.849300
C871	C87	0.807800	0.615600	0.923300
C881	C88	0.899750	0.100250	0.809500
C891	C89	0.867200	0.132800	0.849300
C901	C90	0.807800	0.192200	0.923300
C911	C91	0.899750	0.100250	0.690500
C921	C92	0.867200	0.132800	0.650700
C931	C93	0.807800	0.192200	0.576700
C941	C94	0.899750	0.799500	0.690500
C951	C95	0.867200	0.734400	0.650700
C961	C96	0.807800	0.615600	0.576700
C971	C97	0.200500	0.100250	0.690500
C981	C98	0.265600	0.132800	0.650700
C991	C99	0.384400	0.192200	0.576700
C1001	C100	0.100250	0.899750	0.190500
C1011	C101	0.132800	0.867200	0.150700
C1021	C102	0.192200	0.807800	0.076700
C1031	C103	0.100250	0.200500	0.190500
C1041	C104	0.132800	0.265600	0.150700
C1051	C105	0.192200	0.384400	0.076700
C1061	C106	0.799500	0.899750	0.190500
C1071	C107	0.734400	0.867200	0.150700
C1081	C108	0.615600	0.807800	0.076700
O11	O1	0.824700	0.989500	0.295120
O21	O2	0.623300	0.055000	0.404550
O31	O3	0.570800	0.948900	0.461100
O41	O4	0.164800	0.175300	0.295120
O51	O5	0.431700	0.376700	0.404550
O61	O6	0.378100	0.429200	0.461100
O71	O7	0.010500	0.835200	0.295120
O81	O8	0.945000	0.568300	0.404550
O91	O9	0.051100	0.621900	0.461100
O101	O10	0.175300	0.010500	0.795120
O111	O11	0.376700	0.945000	0.904550
O121	O12	0.429200	0.051100	0.961100
O131	O13	0.835200	0.824700	0.795120
O141	O14	0.568300	0.623300	0.904550
O151	O15	0.621900	0.570800	0.961100
O161	O16	0.989500	0.164800	0.795120
O171	O17	0.055000	0.431700	0.904550
O181	O18	0.948900	0.378100	0.961100
O191	O19	0.835200	0.010500	0.704880
O201	O20	0.568300	0.945000	0.595450
O211	O21	0.621900	0.051100	0.538900
O221	O22	0.989500	0.824700	0.704880
O231	O23	0.055000	0.623300	0.595450
O241	O24	0.948900	0.570800	0.538900
O251	O25	0.175300	0.164800	0.704880
O261	O26	0.376700	0.431700	0.595450
O271	O27	0.429200	0.378100	0.538900
O281	O28	0.164800	0.989500	0.204880
O291	O29	0.431700	0.055000	0.095450
O301	O30	0.378100	0.948900	0.038900
O311	O31	0.010500	0.175300	0.204880
O321	O32	0.945000	0.376700	0.095450
O331	O33	0.051100	0.429200	0.038900
O341	O34	0.824700	0.835200	0.204880
O351	O35	0.623300	0.568300	0.095450
O361	O36	0.570800	0.621900	0.038900
O371	O37	0.175300	0.010500	0.704880
O381	O38	0.376700	0.945000	0.595450
O391	O39	0.429200	0.051100	0.538900
O401	O40	0.835200	0.824700	0.704880
O411	O41	0.568300	0.623300	0.595450
O421	O42	0.621900	0.570800	0.538900
O431	O43	0.989500	0.164800	0.704880
O441	O44	0.055000	0.431700	0.595450
O451	O45	0.948900	0.378100	0.538900
O461	O46	0.824700	0.989500	0.204880
O471	O47	0.623300	0.055000	0.095450
O481	O48	0.570800	0.948900	0.038900
O491	O49	0.164800	0.175300	0.204880
O501	O50	0.431700	0.376700	0.095450
O511	O51	0.378100	0.429200	0.038900
O521	O52	0.010500	0.835200	0.204880
O531	O53	0.945000	0.568300	0.095450
O541	O54	0.051100	0.621900	0.038900
O551	O55	0.164800	0.989500	0.295120
O561	O56	0.431700	0.055000	0.404550
O571	O57	0.378100	0.948900	0.461100
O581	O58	0.010500	0.175300	0.295120
O591	O59	0.945000	0.376700	0.404550
O601	O60	0.051100	0.429200	0.461100
O611	O61	0.824700	0.835200	0.295120
O621	O62	0.623300	0.568300	0.404550
O631	O63	0.570800	0.621900	0.461100
O641	O64	0.835200	0.010500	0.795120
O651	O65	0.568300	0.945000	0.904550
O661	O66	0.621900	0.051100	0.961100
O671	O67	0.989500	0.824700	0.795120
O681	O68	0.055000	0.623300	0.904550
O691	O69	0.948900	0.570800	0.961100
O701	O70	0.175300	0.164800	0.795120
O711	O71	0.376700	0.431700	0.904550
O721	O72	0.429200	0.378100	0.961100
O731	O73	0.568600	0.137200	0.474500
O741	O74	0.568600	0.431400	0.474500
O751	O75	0.862800	0.431400	0.474500
O761	O76	0.431400	0.862800	0.974500
O771	O77	0.431400	0.568600	0.974500
O781	O78	0.137200	0.568600	0.974500
O791	O79	0.431400	0.862800	0.525500
O801	O80	0.137200	0.568600	0.525500
O811	O81	0.431400	0.568600	0.525500
O821	O82	0.568600	0.137200	0.025500
O831	O83	0.862800	0.431400	0.025500
O841	O84	0.568600	0.431400	0.025500
O851	O85	0.000000	0.000000	0.250000
O861	O86	0.000000	0.000000	0.750000
O871	O87	0.536000	0.268000	0.418600
O881	O88	0.732000	0.464000	0.418600
O891	O89	0.732000	0.268000	0.418600
O901	O90	0.464000	0.732000	0.918600
O911	O91	0.268000	0.536000	0.918600
O921	O92	0.268000	0.732000	0.918600
O931	O93	0.268000	0.732000	0.581400
O941	O94	0.268000	0.536000	0.581400
O951	O95	0.464000	0.732000	0.581400
O961	O96	0.732000	0.268000	0.081400
O971	O97	0.732000	0.464000	0.081400
O981	O98	0.536000	0.268000	0.081400
