data_HOPYEQ01_clean_PM
_symmetry_space_group_name_H-M	'P1'
_cell_length_a	10.004900
_cell_length_b	8.274500
_cell_length_c	11.830400
_cell_angle_alpha	90.000000
_cell_angle_beta	103.093000
_cell_angle_gamma	90.000000
_symmetry_Int_Tables_number 1

loop_
_symmetry_equiv_pos_as_xyz
'x,y,z'

loop_
_atom_site_label
_atom_site_type_symbol
_atom_site_fract_x
_atom_site_fract_y
_atom_site_fract_z
Zn11	Zn1	0.322760	0.675700	0.029650
Zn21	Zn2	0.621630	0.653980	0.929510
Zn31	Zn3	0.073140	0.880430	0.336410
Zn41	Zn4	0.336330	0.263910	0.714620
P11	P1	0.583000	0.449800	0.125500
P21	P2	0.354200	0.861300	0.259300
P31	P3	0.073500	0.111000	0.545700
P41	P4	0.173300	0.377100	0.897400
O11	O1	0.509500	0.584500	0.039800
O21	O2	0.689000	0.365300	0.070100
O31	O3	0.169200	0.530000	0.968600
O41	O4	0.296500	0.717300	0.183000
O51	O5	0.476500	0.335800	0.154800
O61	O6	0.205900	0.230900	0.976900
O71	O7	0.350100	0.014700	0.188400
O81	O8	0.268800	0.888800	0.350400
O91	O9	0.026600	0.072700	0.417100
O101	O10	0.032100	0.349900	0.818800
O111	O11	0.953600	0.165100	0.595700
O121	O12	0.127000	0.944800	0.605800
O131	O13	0.190600	0.231800	0.568200
O141	O14	0.285400	0.402200	0.828600
O151	O15	0.498900	0.823900	0.328800
O161	O16	0.658200	0.532900	0.238600
Zn51	Zn5	0.677240	0.175700	0.970350
Zn61	Zn6	0.378370	0.153980	0.070490
Zn71	Zn7	0.926860	0.380430	0.663590
Zn81	Zn8	0.663670	0.763910	0.285380
P51	P5	0.417000	0.949800	0.874500
P61	P6	0.645800	0.361300	0.740700
P71	P7	0.926500	0.611000	0.454300
P81	P8	0.826700	0.877100	0.102600
O171	O17	0.490500	0.084500	0.960200
O181	O18	0.311000	0.865300	0.929900
O191	O19	0.830800	0.030000	0.031400
O201	O20	0.703500	0.217300	0.817000
O211	O21	0.523500	0.835800	0.845200
O221	O22	0.794100	0.730900	0.023100
O231	O23	0.649900	0.514700	0.811600
O241	O24	0.731200	0.388800	0.649600
O251	O25	0.973400	0.572700	0.582900
O261	O26	0.967900	0.849900	0.181200
O271	O27	0.046400	0.665100	0.404300
O281	O28	0.873000	0.444800	0.394200
O291	O29	0.809400	0.731800	0.431800
O301	O30	0.714600	0.902200	0.171400
O311	O31	0.501100	0.323900	0.671200
O321	O32	0.341800	0.032900	0.761400
