data_HOQMIL03_clean_PM
_symmetry_space_group_name_H-M	'P1'
_cell_length_a	18.119000
_cell_length_b	17.229400
_cell_length_c	13.478000
_cell_angle_alpha	90.000000
_cell_angle_beta	129.380000
_cell_angle_gamma	90.000000
_symmetry_Int_Tables_number 1

loop_
_symmetry_equiv_pos_as_xyz
'x,y,z'

loop_
_atom_site_label
_atom_site_type_symbol
_atom_site_fract_x
_atom_site_fract_y
_atom_site_fract_z
O11	O1	0.230130	0.186620	0.355000
O21	O2	0.075550	0.200130	0.186200
O31	O3	0.230520	0.851040	0.061900
O41	O4	0.088370	0.888080	0.880000
O51	O5	0.099880	0.279060	0.389700
N11	N1	0.074070	0.339720	0.422800
C11	C1	0.161700	0.101980	0.177200
C21	C2	0.239600	0.052300	0.244000
H11	H1	0.294000	0.065000	0.335000
C31	C3	0.240700	0.987100	0.185600
H21	H2	0.291000	0.953000	0.227000
C41	C4	0.164600	0.970550	0.058600
C51	C5	0.087800	0.021300	0.991500
H31	H3	0.038000	0.008000	0.915000
C61	C6	0.086100	0.085800	0.050500
H41	H4	0.041000	0.123000	0.013000
C71	C7	0.156400	0.168220	0.245100
C81	C8	0.161000	0.897300	0.994700
C91	C9	0.086200	0.411300	0.397700
H51	H5	0.111000	0.417000	0.365000
C101	C10	0.056900	0.474900	0.425400
H61	H6	0.066000	0.521000	0.404000
C111	C11	0.015400	0.465800	0.483300
C121	C12	0.007300	0.390900	0.512100
H71	H7	0.975000	0.378000	0.545000
C131	C13	0.036800	0.328600	0.481500
H81	H8	0.029000	0.280000	0.489000
O61	O6	0.730130	0.686620	0.355000
O71	O7	0.575550	0.700130	0.186200
O81	O8	0.730520	0.351040	0.061900
O91	O9	0.588370	0.388080	0.880000
O101	O10	0.599880	0.779060	0.389700
N21	N2	0.574070	0.839720	0.422800
C141	C14	0.661700	0.601980	0.177200
C151	C15	0.739600	0.552300	0.244000
H91	H9	0.794000	0.565000	0.335000
C161	C16	0.740700	0.487100	0.185600
H101	H10	0.791000	0.453000	0.227000
C171	C17	0.664600	0.470550	0.058600
C181	C18	0.587800	0.521300	0.991500
H111	H11	0.538000	0.508000	0.915000
C191	C19	0.586100	0.585800	0.050500
H121	H12	0.541000	0.623000	0.013000
C201	C20	0.656400	0.668220	0.245100
C211	C21	0.661000	0.397300	0.994700
C221	C22	0.586200	0.911300	0.397700
H131	H13	0.611000	0.917000	0.365000
C231	C23	0.556900	0.974900	0.425400
H141	H14	0.566000	0.021000	0.404000
C241	C24	0.515400	0.965800	0.483300
C251	C25	0.507300	0.890900	0.512100
H151	H15	0.475000	0.878000	0.545000
C261	C26	0.536800	0.828600	0.481500
H161	H16	0.529000	0.780000	0.489000
O111	O11	0.769870	0.186620	0.145000
O121	O12	0.924450	0.200130	0.313800
O131	O13	0.769480	0.851040	0.438100
O141	O14	0.911630	0.888080	0.620000
O151	O15	0.900120	0.279060	0.110300
N31	N3	0.925930	0.339720	0.077200
C271	C27	0.838300	0.101980	0.322800
C281	C28	0.760400	0.052300	0.256000
H171	H17	0.706000	0.065000	0.165000
C291	C29	0.759300	0.987100	0.314400
H181	H18	0.709000	0.953000	0.273000
C301	C30	0.835400	0.970550	0.441400
C311	C31	0.912200	0.021300	0.508500
H191	H19	0.962000	0.008000	0.585000
C321	C32	0.913900	0.085800	0.449500
H201	H20	0.959000	0.123000	0.487000
C331	C33	0.843600	0.168220	0.254900
C341	C34	0.839000	0.897300	0.505300
C351	C35	0.913800	0.411300	0.102300
H211	H21	0.889000	0.417000	0.135000
C361	C36	0.943100	0.474900	0.074600
H221	H22	0.934000	0.521000	0.096000
C371	C37	0.984600	0.465800	0.016700
C381	C38	0.992700	0.390900	0.987900
H231	H23	0.025000	0.378000	0.955000
C391	C39	0.963200	0.328600	0.018500
H241	H24	0.971000	0.280000	0.011000
O161	O16	0.269870	0.686620	0.145000
O171	O17	0.424450	0.700130	0.313800
O181	O18	0.269480	0.351040	0.438100
O191	O19	0.411630	0.388080	0.620000
O201	O20	0.400120	0.779060	0.110300
N41	N4	0.425930	0.839720	0.077200
C401	C40	0.338300	0.601980	0.322800
C411	C41	0.260400	0.552300	0.256000
H251	H25	0.206000	0.565000	0.165000
C421	C42	0.259300	0.487100	0.314400
H261	H26	0.209000	0.453000	0.273000
C431	C43	0.335400	0.470550	0.441400
C441	C44	0.412200	0.521300	0.508500
H271	H27	0.462000	0.508000	0.585000
C451	C45	0.413900	0.585800	0.449500
H281	H28	0.459000	0.623000	0.487000
C461	C46	0.343600	0.668220	0.254900
C471	C47	0.339000	0.397300	0.505300
C481	C48	0.413800	0.911300	0.102300
H291	H29	0.389000	0.917000	0.135000
C491	C49	0.443100	0.974900	0.074600
H301	H30	0.434000	0.021000	0.096000
C501	C50	0.484600	0.965800	0.016700
C511	C51	0.492700	0.890900	0.987900
H311	H31	0.525000	0.878000	0.955000
C521	C52	0.463200	0.828600	0.018500
H321	H32	0.471000	0.780000	0.011000
O211	O21	0.769870	0.813380	0.645000
O221	O22	0.924450	0.799870	0.813800
O231	O23	0.769480	0.148960	0.938100
O241	O24	0.911630	0.111920	0.120000
O251	O25	0.900120	0.720940	0.610300
N51	N5	0.925930	0.660280	0.577200
C531	C53	0.838300	0.898020	0.822800
C541	C54	0.760400	0.947700	0.756000
H331	H33	0.706000	0.935000	0.665000
C551	C55	0.759300	0.012900	0.814400
H341	H34	0.709000	0.047000	0.773000
C561	C56	0.835400	0.029450	0.941400
C571	C57	0.912200	0.978700	0.008500
H351	H35	0.962000	0.992000	0.085000
C581	C58	0.913900	0.914200	0.949500
H361	H36	0.959000	0.877000	0.987000
C591	C59	0.843600	0.831780	0.754900
C601	C60	0.839000	0.102700	0.005300
C611	C61	0.913800	0.588700	0.602300
H371	H37	0.889000	0.583000	0.635000
C621	C62	0.943100	0.525100	0.574600
H381	H38	0.934000	0.479000	0.596000
C631	C63	0.984600	0.534200	0.516700
C641	C64	0.992700	0.609100	0.487900
H391	H39	0.025000	0.622000	0.455000
C651	C65	0.963200	0.671400	0.518500
H401	H40	0.971000	0.720000	0.511000
O261	O26	0.269870	0.313380	0.645000
O271	O27	0.424450	0.299870	0.813800
O281	O28	0.269480	0.648960	0.938100
O291	O29	0.411630	0.611920	0.120000
O301	O30	0.400120	0.220940	0.610300
N61	N6	0.425930	0.160280	0.577200
C661	C66	0.338300	0.398020	0.822800
C671	C67	0.260400	0.447700	0.756000
H411	H41	0.206000	0.435000	0.665000
C681	C68	0.259300	0.512900	0.814400
H421	H42	0.209000	0.547000	0.773000
C691	C69	0.335400	0.529450	0.941400
C701	C70	0.412200	0.478700	0.008500
H431	H43	0.462000	0.492000	0.085000
C711	C71	0.413900	0.414200	0.949500
H441	H44	0.459000	0.377000	0.987000
C721	C72	0.343600	0.331780	0.754900
C731	C73	0.339000	0.602700	0.005300
C741	C74	0.413800	0.088700	0.602300
H451	H45	0.389000	0.083000	0.635000
C751	C75	0.443100	0.025100	0.574600
H461	H46	0.434000	0.979000	0.596000
C761	C76	0.484600	0.034200	0.516700
C771	C77	0.492700	0.109100	0.487900
H471	H47	0.525000	0.122000	0.455000
C781	C78	0.463200	0.171400	0.518500
H481	H48	0.471000	0.220000	0.511000
O311	O31	0.230130	0.813380	0.855000
O321	O32	0.075550	0.799870	0.686200
O331	O33	0.230520	0.148960	0.561900
O341	O34	0.088370	0.111920	0.380000
O351	O35	0.099880	0.720940	0.889700
N71	N7	0.074070	0.660280	0.922800
C791	C79	0.161700	0.898020	0.677200
C801	C80	0.239600	0.947700	0.744000
H491	H49	0.294000	0.935000	0.835000
C811	C81	0.240700	0.012900	0.685600
H501	H50	0.291000	0.047000	0.727000
C821	C82	0.164600	0.029450	0.558600
C831	C83	0.087800	0.978700	0.491500
H511	H51	0.038000	0.992000	0.415000
C841	C84	0.086100	0.914200	0.550500
H521	H52	0.041000	0.877000	0.513000
C851	C85	0.156400	0.831780	0.745100
C861	C86	0.161000	0.102700	0.494700
C871	C87	0.086200	0.588700	0.897700
H531	H53	0.111000	0.583000	0.865000
C881	C88	0.056900	0.525100	0.925400
H541	H54	0.066000	0.479000	0.904000
C891	C89	0.015400	0.534200	0.983300
C901	C90	0.007300	0.609100	0.012100
H551	H55	0.975000	0.622000	0.045000
C911	C91	0.036800	0.671400	0.981500
H561	H56	0.029000	0.720000	0.989000
O361	O36	0.730130	0.313380	0.855000
O371	O37	0.575550	0.299870	0.686200
O381	O38	0.730520	0.648960	0.561900
O391	O39	0.588370	0.611920	0.380000
O401	O40	0.599880	0.220940	0.889700
N81	N8	0.574070	0.160280	0.922800
C921	C92	0.661700	0.398020	0.677200
C931	C93	0.739600	0.447700	0.744000
H571	H57	0.794000	0.435000	0.835000
C941	C94	0.740700	0.512900	0.685600
H581	H58	0.791000	0.547000	0.727000
C951	C95	0.664600	0.529450	0.558600
C961	C96	0.587800	0.478700	0.491500
H591	H59	0.538000	0.492000	0.415000
C971	C97	0.586100	0.414200	0.550500
H601	H60	0.541000	0.377000	0.513000
C981	C98	0.656400	0.331780	0.745100
C991	C99	0.661000	0.602700	0.494700
C1001	C100	0.586200	0.088700	0.897700
H611	H61	0.611000	0.083000	0.865000
C1011	C101	0.556900	0.025100	0.925400
H621	H62	0.566000	0.979000	0.904000
C1021	C102	0.515400	0.034200	0.983300
C1031	C103	0.507300	0.109100	0.012100
H631	H63	0.475000	0.122000	0.045000
C1041	C104	0.536800	0.171400	0.981500
H641	H64	0.529000	0.220000	0.989000
Mg11	Mg1	0.250000	0.250000	0.500000
Mg21	Mg2	0.750000	0.250000	0.000000
Mg31	Mg3	0.750000	0.750000	0.500000
Mg41	Mg4	0.250000	0.750000	0.000000
Mg51	Mg5	0.000000	0.194700	0.250000
Mg61	Mg6	0.500000	0.694700	0.250000
Mg71	Mg7	0.000000	0.805300	0.750000
Mg81	Mg8	0.500000	0.305300	0.750000
