data_HOQMUX_clean_PM
_symmetry_space_group_name_H-M	'P1'
_cell_length_a	16.557000
_cell_length_b	18.311000
_cell_length_c	11.934900
_cell_angle_alpha	90.000000
_cell_angle_beta	123.096000
_cell_angle_gamma	90.000000
_symmetry_Int_Tables_number 1

loop_
_symmetry_equiv_pos_as_xyz
'x,y,z'

loop_
_atom_site_label
_atom_site_type_symbol
_atom_site_fract_x
_atom_site_fract_y
_atom_site_fract_z
O11	O1	0.084390	0.379900	0.382000
O21	O2	0.220400	0.343180	0.568600
O31	O3	0.085950	0.702280	0.676100
O41	O4	0.237620	0.686460	0.847200
O51	O5	0.097580	0.222530	0.388300
N11	N1	0.069800	0.160900	0.418700
C11	C1	0.162700	0.464000	0.558100
C21	C2	0.231900	0.478500	0.690600
H11	H1	0.271000	0.443000	0.745000
C31	C3	0.235000	0.545500	0.745000
H21	H2	0.281000	0.554000	0.842000
C41	C4	0.168500	0.599100	0.670900
C51	C5	0.100100	0.584200	0.538300
H31	H3	0.073000	0.619000	0.499000
C61	C6	0.098100	0.517600	0.484000
H41	H4	0.068000	0.507000	0.404000
C71	C7	0.154700	0.390000	0.498200
C81	C8	0.164200	0.667900	0.736000
C91	C9	0.096000	0.096800	0.395200
H51	H5	0.144000	0.100000	0.370000
C101	C10	0.067800	0.033100	0.424400
H61	H6	0.090000	0.991000	0.412000
C111	C11	0.013900	0.034500	0.481300
C121	C12	0.988700	0.102200	0.502600
H71	H7	0.951000	0.111000	0.539000
C131	C13	0.016000	0.165000	0.471500
H81	H8	0.995000	0.219000	0.477000
O61	O6	0.584390	0.879900	0.382000
O71	O7	0.720400	0.843180	0.568600
O81	O8	0.585950	0.202280	0.676100
O91	O9	0.737620	0.186460	0.847200
O101	O10	0.597580	0.722530	0.388300
N21	N2	0.569800	0.660900	0.418700
C141	C14	0.662700	0.964000	0.558100
C151	C15	0.731900	0.978500	0.690600
H91	H9	0.771000	0.943000	0.745000
C161	C16	0.735000	0.045500	0.745000
H101	H10	0.781000	0.054000	0.842000
C171	C17	0.668500	0.099100	0.670900
C181	C18	0.600100	0.084200	0.538300
H111	H11	0.573000	0.119000	0.499000
C191	C19	0.598100	0.017600	0.484000
H121	H12	0.568000	0.007000	0.404000
C201	C20	0.654700	0.890000	0.498200
C211	C21	0.664200	0.167900	0.736000
C221	C22	0.596000	0.596800	0.395200
H131	H13	0.644000	0.600000	0.370000
C231	C23	0.567800	0.533100	0.424400
H141	H14	0.590000	0.491000	0.412000
C241	C24	0.513900	0.534500	0.481300
C251	C25	0.488700	0.602200	0.502600
H151	H15	0.451000	0.611000	0.539000
C261	C26	0.516000	0.665000	0.471500
H161	H16	0.495000	0.719000	0.477000
O111	O11	0.915610	0.379900	0.118000
O121	O12	0.779600	0.343180	0.931400
O131	O13	0.914050	0.702280	0.823900
O141	O14	0.762380	0.686460	0.652800
O151	O15	0.902420	0.222530	0.111700
N31	N3	0.930200	0.160900	0.081300
C271	C27	0.837300	0.464000	0.941900
C281	C28	0.768100	0.478500	0.809400
H171	H17	0.729000	0.443000	0.755000
C291	C29	0.765000	0.545500	0.755000
H181	H18	0.719000	0.554000	0.658000
C301	C30	0.831500	0.599100	0.829100
C311	C31	0.899900	0.584200	0.961700
H191	H19	0.927000	0.619000	0.001000
C321	C32	0.901900	0.517600	0.016000
H201	H20	0.932000	0.507000	0.096000
C331	C33	0.845300	0.390000	0.001800
C341	C34	0.835800	0.667900	0.764000
C351	C35	0.904000	0.096800	0.104800
H211	H21	0.856000	0.100000	0.130000
C361	C36	0.932200	0.033100	0.075600
H221	H22	0.910000	0.991000	0.088000
C371	C37	0.986100	0.034500	0.018700
C381	C38	0.011300	0.102200	0.997400
H231	H23	0.049000	0.111000	0.961000
C391	C39	0.984000	0.165000	0.028500
H241	H24	0.005000	0.219000	0.023000
O161	O16	0.415610	0.879900	0.118000
O171	O17	0.279600	0.843180	0.931400
O181	O18	0.414050	0.202280	0.823900
O191	O19	0.262380	0.186460	0.652800
O201	O20	0.402420	0.722530	0.111700
N41	N4	0.430200	0.660900	0.081300
C401	C40	0.337300	0.964000	0.941900
C411	C41	0.268100	0.978500	0.809400
H251	H25	0.229000	0.943000	0.755000
C421	C42	0.265000	0.045500	0.755000
H261	H26	0.219000	0.054000	0.658000
C431	C43	0.331500	0.099100	0.829100
C441	C44	0.399900	0.084200	0.961700
H271	H27	0.427000	0.119000	0.001000
C451	C45	0.401900	0.017600	0.016000
H281	H28	0.432000	0.007000	0.096000
C461	C46	0.345300	0.890000	0.001800
C471	C47	0.335800	0.167900	0.764000
C481	C48	0.404000	0.596800	0.104800
H291	H29	0.356000	0.600000	0.130000
C491	C49	0.432200	0.533100	0.075600
H301	H30	0.410000	0.491000	0.088000
C501	C50	0.486100	0.534500	0.018700
C511	C51	0.511300	0.602200	0.997400
H311	H31	0.549000	0.611000	0.961000
C521	C52	0.484000	0.665000	0.028500
H321	H32	0.505000	0.719000	0.023000
O211	O21	0.915610	0.620100	0.618000
O221	O22	0.779600	0.656820	0.431400
O231	O23	0.914050	0.297720	0.323900
O241	O24	0.762380	0.313540	0.152800
O251	O25	0.902420	0.777470	0.611700
N51	N5	0.930200	0.839100	0.581300
C531	C53	0.837300	0.536000	0.441900
C541	C54	0.768100	0.521500	0.309400
H331	H33	0.729000	0.557000	0.255000
C551	C55	0.765000	0.454500	0.255000
H341	H34	0.719000	0.446000	0.158000
C561	C56	0.831500	0.400900	0.329100
C571	C57	0.899900	0.415800	0.461700
H351	H35	0.927000	0.381000	0.501000
C581	C58	0.901900	0.482400	0.516000
H361	H36	0.932000	0.493000	0.596000
C591	C59	0.845300	0.610000	0.501800
C601	C60	0.835800	0.332100	0.264000
C611	C61	0.904000	0.903200	0.604800
H371	H37	0.856000	0.900000	0.630000
C621	C62	0.932200	0.966900	0.575600
H381	H38	0.910000	0.009000	0.588000
C631	C63	0.986100	0.965500	0.518700
C641	C64	0.011300	0.897800	0.497400
H391	H39	0.049000	0.889000	0.461000
C651	C65	0.984000	0.835000	0.528500
H401	H40	0.005000	0.781000	0.523000
O261	O26	0.415610	0.120100	0.618000
O271	O27	0.279600	0.156820	0.431400
O281	O28	0.414050	0.797720	0.323900
O291	O29	0.262380	0.813540	0.152800
O301	O30	0.402420	0.277470	0.611700
N61	N6	0.430200	0.339100	0.581300
C661	C66	0.337300	0.036000	0.441900
C671	C67	0.268100	0.021500	0.309400
H411	H41	0.229000	0.057000	0.255000
C681	C68	0.265000	0.954500	0.255000
H421	H42	0.219000	0.946000	0.158000
C691	C69	0.331500	0.900900	0.329100
C701	C70	0.399900	0.915800	0.461700
H431	H43	0.427000	0.881000	0.501000
C711	C71	0.401900	0.982400	0.516000
H441	H44	0.432000	0.993000	0.596000
C721	C72	0.345300	0.110000	0.501800
C731	C73	0.335800	0.832100	0.264000
C741	C74	0.404000	0.403200	0.604800
H451	H45	0.356000	0.400000	0.630000
C751	C75	0.432200	0.466900	0.575600
H461	H46	0.410000	0.509000	0.588000
C761	C76	0.486100	0.465500	0.518700
C771	C77	0.511300	0.397800	0.497400
H471	H47	0.549000	0.389000	0.461000
C781	C78	0.484000	0.335000	0.528500
H481	H48	0.505000	0.281000	0.523000
O311	O31	0.084390	0.620100	0.882000
O321	O32	0.220400	0.656820	0.068600
O331	O33	0.085950	0.297720	0.176100
O341	O34	0.237620	0.313540	0.347200
O351	O35	0.097580	0.777470	0.888300
N71	N7	0.069800	0.839100	0.918700
C791	C79	0.162700	0.536000	0.058100
C801	C80	0.231900	0.521500	0.190600
H491	H49	0.271000	0.557000	0.245000
C811	C81	0.235000	0.454500	0.245000
H501	H50	0.281000	0.446000	0.342000
C821	C82	0.168500	0.400900	0.170900
C831	C83	0.100100	0.415800	0.038300
H511	H51	0.073000	0.381000	0.999000
C841	C84	0.098100	0.482400	0.984000
H521	H52	0.068000	0.493000	0.904000
C851	C85	0.154700	0.610000	0.998200
C861	C86	0.164200	0.332100	0.236000
C871	C87	0.096000	0.903200	0.895200
H531	H53	0.144000	0.900000	0.870000
C881	C88	0.067800	0.966900	0.924400
H541	H54	0.090000	0.009000	0.912000
C891	C89	0.013900	0.965500	0.981300
C901	C90	0.988700	0.897800	0.002600
H551	H55	0.951000	0.889000	0.039000
C911	C91	0.016000	0.835000	0.971500
H561	H56	0.995000	0.781000	0.977000
O361	O36	0.584390	0.120100	0.882000
O371	O37	0.720400	0.156820	0.068600
O381	O38	0.585950	0.797720	0.176100
O391	O39	0.737620	0.813540	0.347200
O401	O40	0.597580	0.277470	0.888300
N81	N8	0.569800	0.339100	0.918700
C921	C92	0.662700	0.036000	0.058100
C931	C93	0.731900	0.021500	0.190600
H571	H57	0.771000	0.057000	0.245000
C941	C94	0.735000	0.954500	0.245000
H581	H58	0.781000	0.946000	0.342000
C951	C95	0.668500	0.900900	0.170900
C961	C96	0.600100	0.915800	0.038300
H591	H59	0.573000	0.881000	0.999000
C971	C97	0.598100	0.982400	0.984000
H601	H60	0.568000	0.993000	0.904000
C981	C98	0.654700	0.110000	0.998200
C991	C99	0.664200	0.832100	0.236000
C1001	C100	0.596000	0.403200	0.895200
H611	H61	0.644000	0.400000	0.870000
C1011	C101	0.567800	0.466900	0.924400
H621	H62	0.590000	0.509000	0.912000
C1021	C102	0.513900	0.465500	0.981300
C1031	C103	0.488700	0.397800	0.002600
H631	H63	0.451000	0.389000	0.039000
C1041	C104	0.516000	0.335000	0.971500
H641	H64	0.495000	0.281000	0.977000
Mg11	Mg1	0.000000	0.302240	0.250000
Mg21	Mg2	0.500000	0.802240	0.250000
Mg31	Mg3	0.000000	0.697760	0.750000
Mg41	Mg4	0.500000	0.197760	0.750000
Mg51	Mg5	0.250000	0.250000	0.500000
Mg61	Mg6	0.750000	0.250000	0.000000
Mg71	Mg7	0.750000	0.750000	0.500000
Mg81	Mg8	0.250000	0.750000	0.000000
