data_HOTFED_clean_PM
_symmetry_space_group_name_H-M	'P1'
_cell_length_a	10.252000
_cell_length_b	13.228000
_cell_length_c	20.553000
_cell_angle_alpha	90.000000
_cell_angle_beta	90.000000
_cell_angle_gamma	90.000000
_symmetry_Int_Tables_number 1

loop_
_symmetry_equiv_pos_as_xyz
'x,y,z'

loop_
_atom_site_label
_atom_site_type_symbol
_atom_site_fract_x
_atom_site_fract_y
_atom_site_fract_z
C11	C1	0.689700	0.480400	0.270400
H11	H1	0.687200	0.440200	0.307500
C21	C2	0.641300	0.593600	0.199800
C31	C3	0.746900	0.543600	0.177900
C41	C4	0.555000	0.674600	0.172000
C51	C5	0.831900	0.544100	0.119700
C61	C6	0.410500	0.739700	0.410200
H21	H2	0.366300	0.683500	0.426100
C71	C7	0.428400	0.821700	0.451100
H31	H3	0.396300	0.819700	0.493400
C81	C8	0.493700	0.906300	0.429300
C91	C9	0.534700	0.903700	0.365200
H41	H4	0.577100	0.959400	0.347500
C101	C10	0.513300	0.819500	0.327400
H51	H5	0.542000	0.819800	0.284500
C111	C11	0.519100	0.994700	0.469800
H61	H6	0.565900	0.047700	0.451300
N11	N1	0.604600	0.554600	0.258700
N21	N2	0.776500	0.470000	0.224600
N31	N3	0.453200	0.737900	0.349900
O11	O1	0.924300	0.480700	0.119900
O21	O2	0.806200	0.603000	0.072800
O31	O3	0.450700	0.689500	0.203500
O41	O4	0.583500	0.721900	0.122000
Zn11	Zn1	0.437020	0.610670	0.293770
C121	C12	0.810300	0.019600	0.270400
H71	H7	0.812800	0.059800	0.307500
C131	C13	0.858700	0.906400	0.199800
C141	C14	0.753100	0.956400	0.177900
C151	C15	0.945000	0.825400	0.172000
C161	C16	0.668100	0.955900	0.119700
C171	C17	0.089500	0.760300	0.410200
H81	H8	0.133700	0.816500	0.426100
C181	C18	0.071600	0.678300	0.451100
H91	H9	0.103700	0.680300	0.493400
C191	C19	0.006300	0.593700	0.429300
C201	C20	0.965300	0.596300	0.365200
H101	H10	0.922900	0.540600	0.347500
C211	C21	0.986700	0.680500	0.327400
H111	H11	0.958000	0.680200	0.284500
C221	C22	0.980900	0.505300	0.469800
H121	H12	0.934100	0.452300	0.451300
N41	N4	0.895400	0.945400	0.258700
N51	N5	0.723500	0.030000	0.224600
N61	N6	0.046800	0.762100	0.349900
O51	O5	0.575700	0.019300	0.119900
O61	O6	0.693800	0.897000	0.072800
O71	O7	0.049300	0.810500	0.203500
O81	O8	0.916500	0.778100	0.122000
Zn21	Zn2	0.062980	0.889330	0.293770
C231	C23	0.310300	0.980400	0.229600
H131	H13	0.312800	0.940200	0.192500
C241	C24	0.358700	0.093600	0.300200
C251	C25	0.253100	0.043600	0.322100
C261	C26	0.445000	0.174600	0.328000
C271	C27	0.168100	0.044100	0.380300
C281	C28	0.589500	0.239700	0.089800
H141	H14	0.633700	0.183500	0.073900
C291	C29	0.571600	0.321700	0.048900
H151	H15	0.603700	0.319700	0.006600
C301	C30	0.506300	0.406300	0.070700
C311	C31	0.465300	0.403700	0.134800
H161	H16	0.422900	0.459400	0.152500
C321	C32	0.486700	0.319500	0.172600
H171	H17	0.458000	0.319800	0.215500
C331	C33	0.480900	0.494700	0.030200
H181	H18	0.434100	0.547700	0.048700
N71	N7	0.395400	0.054600	0.241300
N81	N8	0.223500	0.970000	0.275400
N91	N9	0.546800	0.237900	0.150100
O91	O9	0.075700	0.980700	0.380100
O101	O10	0.193800	0.103000	0.427200
O111	O11	0.549300	0.189500	0.296500
O121	O12	0.416500	0.221900	0.378000
Zn31	Zn3	0.562980	0.110670	0.206230
C341	C34	0.189700	0.519600	0.229600
H191	H19	0.187200	0.559800	0.192500
C351	C35	0.141300	0.406400	0.300200
C361	C36	0.246900	0.456400	0.322100
C371	C37	0.055000	0.325400	0.328000
C381	C38	0.331900	0.455900	0.380300
C391	C39	0.910500	0.260300	0.089800
H201	H20	0.866300	0.316500	0.073900
C401	C40	0.928400	0.178300	0.048900
H211	H21	0.896300	0.180300	0.006600
C411	C41	0.993700	0.093700	0.070700
C421	C42	0.034700	0.096300	0.134800
H221	H22	0.077100	0.040600	0.152500
C431	C43	0.013300	0.180500	0.172600
H231	H23	0.042000	0.180200	0.215500
C441	C44	0.019100	0.005300	0.030200
H241	H24	0.065900	0.952300	0.048700
N101	N10	0.104600	0.445400	0.241300
N111	N11	0.276500	0.530000	0.275400
N121	N12	0.953200	0.262100	0.150100
O131	O13	0.424300	0.519300	0.380100
O141	O14	0.306200	0.397000	0.427200
O151	O15	0.950700	0.310500	0.296500
O161	O16	0.083500	0.278100	0.378000
Zn41	Zn4	0.937020	0.389330	0.206230
C451	C45	0.310300	0.519600	0.729600
H251	H25	0.312800	0.559800	0.692500
C461	C46	0.358700	0.406400	0.800200
C471	C47	0.253100	0.456400	0.822100
C481	C48	0.445000	0.325400	0.828000
C491	C49	0.168100	0.455900	0.880300
C501	C50	0.589500	0.260300	0.589800
H261	H26	0.633700	0.316500	0.573900
C511	C51	0.571600	0.178300	0.548900
H271	H27	0.603700	0.180300	0.506600
C521	C52	0.506300	0.093700	0.570700
C531	C53	0.465300	0.096300	0.634800
H281	H28	0.422900	0.040600	0.652500
C541	C54	0.486700	0.180500	0.672600
H291	H29	0.458000	0.180200	0.715500
C551	C55	0.480900	0.005300	0.530200
H301	H30	0.434100	0.952300	0.548700
N131	N13	0.395400	0.445400	0.741300
N141	N14	0.223500	0.530000	0.775400
N151	N15	0.546800	0.262100	0.650100
O171	O17	0.075700	0.519300	0.880100
O181	O18	0.193800	0.397000	0.927200
O191	O19	0.549300	0.310500	0.796500
O201	O20	0.416500	0.278100	0.878000
Zn51	Zn5	0.562980	0.389330	0.706230
C561	C56	0.189700	0.980400	0.729600
H311	H31	0.187200	0.940200	0.692500
C571	C57	0.141300	0.093600	0.800200
C581	C58	0.246900	0.043600	0.822100
C591	C59	0.055000	0.174600	0.828000
C601	C60	0.331900	0.044100	0.880300
C611	C61	0.910500	0.239700	0.589800
H321	H32	0.866300	0.183500	0.573900
C621	C62	0.928400	0.321700	0.548900
H331	H33	0.896300	0.319700	0.506600
C631	C63	0.993700	0.406300	0.570700
C641	C64	0.034700	0.403700	0.634800
H341	H34	0.077100	0.459400	0.652500
C651	C65	0.013300	0.319500	0.672600
H351	H35	0.042000	0.319800	0.715500
C661	C66	0.019100	0.494700	0.530200
H361	H36	0.065900	0.547700	0.548700
N161	N16	0.104600	0.054600	0.741300
N171	N17	0.276500	0.970000	0.775400
N181	N18	0.953200	0.237900	0.650100
O211	O21	0.424300	0.980700	0.880100
O221	O22	0.306200	0.103000	0.927200
O231	O23	0.950700	0.189500	0.796500
O241	O24	0.083500	0.221900	0.878000
Zn61	Zn6	0.937020	0.110670	0.706230
C671	C67	0.689700	0.019600	0.770400
H371	H37	0.687200	0.059800	0.807500
C681	C68	0.641300	0.906400	0.699800
C691	C69	0.746900	0.956400	0.677900
C701	C70	0.555000	0.825400	0.672000
C711	C71	0.831900	0.955900	0.619700
C721	C72	0.410500	0.760300	0.910200
H381	H38	0.366300	0.816500	0.926100
C731	C73	0.428400	0.678300	0.951100
H391	H39	0.396300	0.680300	0.993400
C741	C74	0.493700	0.593700	0.929300
C751	C75	0.534700	0.596300	0.865200
H401	H40	0.577100	0.540600	0.847500
C761	C76	0.513300	0.680500	0.827400
H411	H41	0.542000	0.680200	0.784500
C771	C77	0.519100	0.505300	0.969800
H421	H42	0.565900	0.452300	0.951300
N191	N19	0.604600	0.945400	0.758700
N201	N20	0.776500	0.030000	0.724600
N211	N21	0.453200	0.762100	0.849900
O251	O25	0.924300	0.019300	0.619900
O261	O26	0.806200	0.897000	0.572800
O271	O27	0.450700	0.810500	0.703500
O281	O28	0.583500	0.778100	0.622000
Zn71	Zn7	0.437020	0.889330	0.793770
C781	C78	0.810300	0.480400	0.770400
H431	H43	0.812800	0.440200	0.807500
C791	C79	0.858700	0.593600	0.699800
C801	C80	0.753100	0.543600	0.677900
C811	C81	0.945000	0.674600	0.672000
C821	C82	0.668100	0.544100	0.619700
C831	C83	0.089500	0.739700	0.910200
H441	H44	0.133700	0.683500	0.926100
C841	C84	0.071600	0.821700	0.951100
H451	H45	0.103700	0.819700	0.993400
C851	C85	0.006300	0.906300	0.929300
C861	C86	0.965300	0.903700	0.865200
H461	H46	0.922900	0.959400	0.847500
C871	C87	0.986700	0.819500	0.827400
H471	H47	0.958000	0.819800	0.784500
C881	C88	0.980900	0.994700	0.969800
H481	H48	0.934100	0.047700	0.951300
N221	N22	0.895400	0.554600	0.758700
N231	N23	0.723500	0.470000	0.724600
N241	N24	0.046800	0.737900	0.849900
O291	O29	0.575700	0.480700	0.619900
O301	O30	0.693800	0.603000	0.572800
O311	O31	0.049300	0.689500	0.703500
O321	O32	0.916500	0.721900	0.622000
Zn81	Zn8	0.062980	0.610670	0.793770
Zn91	Zn9	0.750000	0.750000	0.075460
Zn101	Zn10	0.250000	0.250000	0.424540
Zn111	Zn11	0.250000	0.250000	0.924540
Zn121	Zn12	0.750000	0.750000	0.575460
