data_HOTWUJ_clean_PM
_symmetry_space_group_name_H-M	'P1'
_cell_length_a	9.072200
_cell_length_b	9.072200
_cell_length_c	14.582000
_cell_angle_alpha	79.917200
_cell_angle_beta	79.917600
_cell_angle_gamma	115.926000
_symmetry_Int_Tables_number 1

loop_
_symmetry_equiv_pos_as_xyz
'x,y,z'

loop_
_atom_site_label
_atom_site_type_symbol
_atom_site_fract_x
_atom_site_fract_y
_atom_site_fract_z
Nd11	Nd1	0.490590	0.740590	0.018820
Nd21	Nd2	0.259410	0.509410	0.481180
Nd31	Nd3	0.509410	0.259410	0.981180
Nd41	Nd4	0.740590	0.490590	0.518820
H11	H1	0.907800	0.312400	0.029600
H21	H2	0.836900	0.222700	0.141200
H31	H3	0.062600	0.158000	0.029600
H41	H4	0.021900	0.136100	0.141200
H51	H5	0.687600	0.092200	0.470400
H61	H6	0.777300	0.163100	0.358800
H71	H7	0.842000	0.937400	0.470400
H81	H8	0.863900	0.978100	0.358800
H91	H9	0.092200	0.687600	0.970400
H101	H10	0.163100	0.777300	0.858800
H111	H11	0.937400	0.842000	0.970400
H121	H12	0.978100	0.863900	0.858800
H131	H13	0.312400	0.907800	0.529600
H141	H14	0.222700	0.836900	0.641200
H151	H15	0.158000	0.062600	0.529600
H161	H16	0.136100	0.021900	0.641200
C11	C1	0.744700	0.061500	0.062200
C21	C2	0.882000	0.211200	0.079000
C31	C3	0.193100	0.376300	0.062200
C41	C4	0.039000	0.209800	0.079000
C51	C5	0.938500	0.255300	0.437800
C61	C6	0.788800	0.118000	0.421000
C71	C7	0.623700	0.806900	0.437800
C81	C8	0.790200	0.961000	0.421000
C91	C9	0.255300	0.938500	0.937800
C101	C10	0.118000	0.788800	0.921000
C111	C11	0.806900	0.623700	0.937800
C121	C12	0.961000	0.790200	0.921000
C131	C13	0.061500	0.744700	0.562200
C141	C14	0.211200	0.882000	0.579000
C151	C15	0.376300	0.193100	0.562200
C161	C16	0.209800	0.039000	0.579000
C171	C17	0.425400	0.574600	0.250000
C181	C18	0.324600	0.675400	0.250000
C191	C19	0.574600	0.425400	0.750000
C201	C20	0.675400	0.324600	0.750000
O11	O1	0.735710	0.919290	0.079000
O21	O2	0.634120	0.085840	0.032840
O31	O3	0.490230	0.567710	0.170260
O41	O4	0.185290	0.501710	0.079000
O51	O5	0.333040	0.381320	0.032840
O61	O6	0.339510	0.762030	0.170260
O71	O7	0.080710	0.264290	0.421000
O81	O8	0.914160	0.365880	0.467160
O91	O9	0.432290	0.509770	0.329740
O101	O10	0.498290	0.814710	0.421000
O111	O11	0.618680	0.666960	0.467160
O121	O12	0.237970	0.660490	0.329740
O131	O13	0.264290	0.080710	0.921000
O141	O14	0.365880	0.914160	0.967160
O151	O15	0.509770	0.432290	0.829740
O161	O16	0.814710	0.498290	0.921000
O171	O17	0.666960	0.618680	0.967160
O181	O18	0.660490	0.237970	0.829740
O191	O19	0.919290	0.735710	0.579000
O201	O20	0.085840	0.634120	0.532840
O211	O21	0.567710	0.490230	0.670260
O221	O22	0.501710	0.185290	0.579000
O231	O23	0.381320	0.333040	0.532840
O241	O24	0.762030	0.339510	0.670260
