data_HOVJIN_clean_PM
_symmetry_space_group_name_H-M	'P1'
_cell_length_a	9.499000
_cell_length_b	9.585400
_cell_length_c	11.494500
_cell_angle_alpha	101.906000
_cell_angle_beta	95.748000
_cell_angle_gamma	119.387000
_symmetry_Int_Tables_number 1

loop_
_symmetry_equiv_pos_as_xyz
'x,y,z'

loop_
_atom_site_label
_atom_site_type_symbol
_atom_site_fract_x
_atom_site_fract_y
_atom_site_fract_z
Er11	Er1	0.731410	0.361220	0.494970
Ag11	Ag1	0.510320	0.808040	0.177620
O11	O1	0.414700	0.810600	0.385280
O21	O2	0.205700	0.669300	0.693100
O31	O3	0.930500	0.517500	0.673500
O41	O4	0.131700	0.781000	0.482300
O51	O5	0.857600	0.624400	0.466200
O61	O6	0.495200	0.644800	0.617600
O71	O7	0.628800	0.507100	0.622450
N11	N1	0.282600	0.756500	0.068200
N21	N2	0.760800	0.870300	0.246100
C11	C1	0.158400	0.746900	0.118600
H11	H1	0.175400	0.771800	0.203300
C21	C2	0.006700	0.701900	0.051200
H21	H2	0.925500	0.702200	0.090000
C31	C3	0.976800	0.656500	0.926200
H31	H3	0.873500	0.621200	0.878800
C41	C4	0.102800	0.664200	0.871300
C51	C5	0.254000	0.716800	0.944400
H41	H4	0.339700	0.725500	0.907600
C61	C6	0.077700	0.613600	0.734300
C71	C7	0.793800	0.788300	0.316900
H51	H5	0.705800	0.694000	0.328600
C81	C8	0.955200	0.840800	0.372500
C91	C9	0.084500	0.981500	0.356000
H61	H6	0.193700	0.020100	0.393000
C101	C10	0.050400	0.064700	0.284000
H71	H7	0.136200	0.159800	0.271400
C111	C11	0.888500	0.005100	0.231200
H81	H8	0.866600	0.061700	0.182500
C121	C12	0.983500	0.741900	0.447400
C131	C13	0.486800	0.966700	0.430300
C141	C14	0.535700	0.543000	0.569100
O81	O8	0.540200	0.072600	0.373660
Er21	Er2	0.268590	0.638780	0.505030
Ag21	Ag2	0.489680	0.191960	0.822380
O91	O9	0.585300	0.189400	0.614720
O101	O10	0.794300	0.330700	0.306900
O111	O11	0.069500	0.482500	0.326500
O121	O12	0.868300	0.219000	0.517700
O131	O13	0.142400	0.375600	0.533800
O141	O14	0.504800	0.355200	0.382400
O151	O15	0.371200	0.492900	0.377550
N31	N3	0.717400	0.243500	0.931800
N41	N4	0.239200	0.129700	0.753900
C151	C15	0.841600	0.253100	0.881400
H91	H9	0.824600	0.228200	0.796700
C161	C16	0.993300	0.298100	0.948800
H101	H10	0.074500	0.297800	0.910000
C171	C17	0.023200	0.343500	0.073800
H111	H11	0.126500	0.378800	0.121200
C181	C18	0.897200	0.335800	0.128700
C191	C19	0.746000	0.283200	0.055600
H121	H12	0.660300	0.274500	0.092400
C201	C20	0.922300	0.386400	0.265700
C211	C21	0.206200	0.211700	0.683100
H131	H13	0.294200	0.306000	0.671400
C221	C22	0.044800	0.159200	0.627500
C231	C23	0.915500	0.018500	0.644000
H141	H14	0.806300	0.979900	0.607000
C241	C24	0.949600	0.935300	0.716000
H151	H15	0.863800	0.840200	0.728600
C251	C25	0.111500	0.994900	0.768800
H161	H16	0.133400	0.938300	0.817500
C261	C26	0.016500	0.258100	0.552600
C271	C27	0.513200	0.033300	0.569700
C281	C28	0.464300	0.457000	0.430900
O161	O16	0.459800	0.927400	0.626340
