data_HOWPUF_clean_PM
_symmetry_space_group_name_H-M	'P1'
_cell_length_a	12.125000
_cell_length_b	13.833200
_cell_length_c	21.643600
_cell_angle_alpha	90.000000
_cell_angle_beta	90.000000
_cell_angle_gamma	90.000000
_symmetry_Int_Tables_number 1

loop_
_symmetry_equiv_pos_as_xyz
'x,y,z'

loop_
_atom_site_label
_atom_site_type_symbol
_atom_site_fract_x
_atom_site_fract_y
_atom_site_fract_z
Zn11	Zn1	0.248460	0.925140	0.244060
Zn21	Zn2	0.233790	0.432340	0.125790
Zn31	Zn3	0.248460	0.074860	0.755940
Zn41	Zn4	0.233790	0.567660	0.874210
Zn51	Zn5	0.751540	0.574860	0.744060
Zn61	Zn6	0.766210	0.067660	0.625790
Zn71	Zn7	0.751540	0.425140	0.255940
Zn81	Zn8	0.766210	0.932340	0.374210
H11	H1	0.231000	0.718900	0.210800
H21	H2	0.943000	0.718200	0.344400
H31	H3	0.041200	0.857200	0.323500
H41	H4	0.251500	0.129800	0.192000
H51	H5	0.608300	0.113600	0.255000
H61	H6	0.493500	0.985600	0.265200
H71	H7	0.371500	0.604300	0.085500
H81	H8	0.463300	0.530400	0.105100
H91	H9	0.600300	0.518500	0.965800
H101	H10	0.372200	0.332100	0.018800
H111	H11	0.463600	0.364200	0.066000
H121	H12	0.230500	0.553300	0.012200
H131	H13	0.231000	0.281100	0.789200
H141	H14	0.943000	0.281800	0.655600
H151	H15	0.041200	0.142800	0.676500
H161	H16	0.251500	0.870200	0.808000
H171	H17	0.608300	0.886400	0.745000
H181	H18	0.493500	0.014400	0.734800
H191	H19	0.371500	0.395700	0.914500
H201	H20	0.463300	0.469600	0.894900
H211	H21	0.600300	0.481500	0.034200
H221	H22	0.372200	0.667900	0.981200
H231	H23	0.463600	0.635800	0.934000
H241	H24	0.230500	0.446700	0.987800
H251	H25	0.769000	0.781100	0.710800
H261	H26	0.057000	0.781800	0.844400
H271	H27	0.958800	0.642800	0.823500
H281	H28	0.748500	0.370200	0.692000
H291	H29	0.391700	0.386400	0.755000
H301	H30	0.506500	0.514400	0.765200
H311	H31	0.628500	0.895700	0.585500
H321	H32	0.536700	0.969600	0.605100
H331	H33	0.399700	0.981500	0.465800
H341	H34	0.627800	0.167900	0.518800
H351	H35	0.536400	0.135800	0.566000
H361	H36	0.769500	0.946700	0.512200
H371	H37	0.769000	0.218900	0.289200
H381	H38	0.057000	0.218200	0.155600
H391	H39	0.958800	0.357200	0.176500
H401	H40	0.748500	0.629800	0.308000
H411	H41	0.391700	0.613600	0.245000
H421	H42	0.506500	0.485600	0.234800
H431	H43	0.628500	0.104300	0.414500
H441	H44	0.536700	0.030400	0.394900
H451	H45	0.399700	0.018500	0.534200
H461	H46	0.627800	0.832100	0.481200
H471	H47	0.536400	0.864200	0.434000
H481	H48	0.769500	0.053300	0.487800
C11	C1	0.170700	0.718800	0.237400
C21	C2	0.113700	0.632200	0.244400
C31	C3	0.150300	0.546200	0.209500
C41	C4	0.027100	0.631700	0.286200
C51	C5	0.047600	0.043400	0.201600
C61	C6	0.000800	0.716600	0.316200
C71	C7	0.061400	0.800100	0.303800
C81	C8	0.324800	0.126500	0.204600
C91	C9	0.390500	0.209200	0.197500
C101	C10	0.337200	0.298400	0.172000
C111	C11	0.499100	0.204800	0.215600
C121	C12	0.421500	0.789300	0.294700
C131	C13	0.535700	0.118700	0.241400
C141	C14	0.466700	0.042000	0.247200
C151	C15	0.416300	0.550700	0.071200
C161	C16	0.417900	0.385900	0.031900
C171	C17	0.170700	0.281200	0.762600
C181	C18	0.113700	0.367800	0.755600
C191	C19	0.150300	0.453800	0.790500
C201	C20	0.027100	0.368300	0.713800
C211	C21	0.047600	0.956600	0.798400
C221	C22	0.000800	0.283400	0.683800
C231	C23	0.061400	0.199900	0.696200
C241	C24	0.324800	0.873500	0.795400
C251	C25	0.390500	0.790800	0.802500
C261	C26	0.337200	0.701600	0.828000
C271	C27	0.499100	0.795200	0.784400
C281	C28	0.421500	0.210700	0.705300
C291	C29	0.535700	0.881300	0.758600
C301	C30	0.466700	0.958000	0.752800
C311	C31	0.416300	0.449300	0.928800
C321	C32	0.417900	0.614100	0.968100
C331	C33	0.829300	0.781200	0.737400
C341	C34	0.886300	0.867800	0.744400
C351	C35	0.849700	0.953800	0.709500
C361	C36	0.972900	0.868300	0.786200
C371	C37	0.952400	0.456600	0.701600
C381	C38	0.999200	0.783400	0.816200
C391	C39	0.938600	0.699900	0.803800
C401	C40	0.675200	0.373500	0.704600
C411	C41	0.609500	0.290800	0.697500
C421	C42	0.662800	0.201600	0.672000
C431	C43	0.500900	0.295200	0.715600
C441	C44	0.578500	0.710700	0.794700
C451	C45	0.464300	0.381300	0.741400
C461	C46	0.533300	0.458000	0.747200
C471	C47	0.583700	0.949300	0.571200
C481	C48	0.582100	0.114100	0.531900
C491	C49	0.829300	0.218800	0.262600
C501	C50	0.886300	0.132200	0.255600
C511	C51	0.849700	0.046200	0.290500
C521	C52	0.972900	0.131700	0.213800
C531	C53	0.952400	0.543400	0.298400
C541	C54	0.999200	0.216600	0.183800
C551	C55	0.938600	0.300100	0.196200
C561	C56	0.675200	0.626500	0.295400
C571	C57	0.609500	0.709200	0.302500
C581	C58	0.662800	0.798400	0.328000
C591	C59	0.500900	0.704800	0.284400
C601	C60	0.578500	0.289300	0.205300
C611	C61	0.464300	0.618700	0.258600
C621	C62	0.533300	0.542000	0.252800
C631	C63	0.583700	0.050700	0.428800
C641	C64	0.582100	0.885900	0.468100
C651	C65	0.553100	0.500000	0.000000
C661	C66	0.277600	0.500000	0.000000
C671	C67	0.446900	0.000000	0.500000
C681	C68	0.722400	0.000000	0.500000
N11	N1	0.360800	0.044100	0.228000
N21	N2	0.146100	0.801600	0.265500
N31	N3	0.344300	0.470200	0.053200
N41	N4	0.486600	0.583400	0.018400
N51	N5	0.360800	0.955900	0.772000
N61	N6	0.146100	0.198400	0.734500
N71	N7	0.344300	0.529800	0.946800
N81	N8	0.486600	0.416600	0.981600
N91	N9	0.639200	0.455900	0.728000
N101	N10	0.853900	0.698400	0.765500
N111	N11	0.655700	0.029800	0.553200
N121	N12	0.513400	0.916600	0.518400
N131	N13	0.639200	0.544100	0.272000
N141	N14	0.853900	0.301600	0.234500
N151	N15	0.655700	0.970200	0.446800
N161	N16	0.513400	0.083400	0.481600
O11	O1	0.212100	0.563500	0.162400
O21	O2	0.121900	0.464200	0.224000
O31	O3	0.112600	0.021800	0.244200
O41	O4	0.039100	0.006400	0.150000
O51	O5	0.254400	0.288400	0.136900
O61	O6	0.371900	0.379900	0.186900
O71	O7	0.383000	0.828000	0.246610
O81	O8	0.400100	0.809300	0.348900
O91	O9	0.212100	0.436500	0.837600
O101	O10	0.121900	0.535800	0.776000
O111	O11	0.112600	0.978200	0.755800
O121	O12	0.039100	0.993600	0.850000
O131	O13	0.254400	0.711600	0.863100
O141	O14	0.371900	0.620100	0.813100
O151	O15	0.383000	0.172000	0.753390
O161	O16	0.400100	0.190700	0.651100
O171	O17	0.787900	0.936500	0.662400
O181	O18	0.878100	0.035800	0.724000
O191	O19	0.887400	0.478200	0.744200
O201	O20	0.960900	0.493600	0.650000
O211	O21	0.745600	0.211600	0.636900
O221	O22	0.628100	0.120100	0.686900
O231	O23	0.617000	0.672000	0.746610
O241	O24	0.599900	0.690700	0.848900
O251	O25	0.787900	0.063500	0.337600
O261	O26	0.878100	0.964200	0.276000
O271	O27	0.887400	0.521800	0.255800
O281	O28	0.960900	0.506400	0.350000
O291	O29	0.745600	0.788400	0.363100
O301	O30	0.628100	0.879900	0.313100
O311	O31	0.617000	0.328000	0.253390
O321	O32	0.599900	0.309300	0.151100
