data_HOWPEQ_clean_PM
_symmetry_space_group_name_H-M	'P1'
_cell_length_a	12.866000
_cell_length_b	12.776000
_cell_length_c	16.802000
_cell_angle_alpha	90.000000
_cell_angle_beta	105.303000
_cell_angle_gamma	90.000000
_symmetry_Int_Tables_number 1

loop_
_symmetry_equiv_pos_as_xyz
'x,y,z'

loop_
_atom_site_label
_atom_site_type_symbol
_atom_site_fract_x
_atom_site_fract_y
_atom_site_fract_z
Ag11	Ag1	0.085200	0.656920	0.905370
Ag21	Ag2	0.144020	0.388660	0.024280
N11	N1	0.281900	0.246700	0.636700
N21	N2	0.173600	0.243300	0.595300
N31	N3	0.191800	0.327500	0.709800
N41	N4	0.167600	0.376900	0.776000
N51	N5	0.130500	0.399400	0.892400
N61	N6	0.131000	0.496900	0.855300
N71	N7	0.423400	0.780200	0.330100
N81	N8	0.334000	0.798200	0.359600
N91	N9	0.280800	0.719700	0.243100
N101	N10	0.215000	0.674900	0.172500
N111	N11	0.124800	0.652800	0.045700
N121	N12	0.132900	0.556400	0.087400
C11	C1	0.154300	0.480800	0.785400
H11	H1	0.160800	0.532400	0.748000
C21	C2	0.153100	0.328700	0.843500
H21	H2	0.158200	0.257100	0.853500
C31	C3	0.289700	0.298000	0.705800
H31	H3	0.353600	0.311500	0.745700
C41	C4	0.120600	0.292300	0.639500
H41	H4	0.046300	0.301900	0.625700
C51	C5	0.387500	0.734100	0.258700
H51	H5	0.429500	0.714300	0.223900
C61	C6	0.249900	0.762100	0.306900
H61	H6	0.179700	0.764800	0.311900
C71	C7	0.174600	0.721100	0.098300
H71	H7	0.181800	0.791600	0.087000
C81	C8	0.186600	0.572800	0.161900
H81	H8	0.203600	0.522000	0.202900
Ag31	Ag3	0.414800	0.156920	0.594630
Ag41	Ag4	0.355980	0.888660	0.475720
N131	N13	0.218100	0.746700	0.863300
N141	N14	0.326400	0.743300	0.904700
N151	N15	0.308200	0.827500	0.790200
N161	N16	0.332400	0.876900	0.724000
N171	N17	0.369500	0.899400	0.607600
N181	N18	0.369000	0.996900	0.644700
N191	N19	0.076600	0.280200	0.169900
N201	N20	0.166000	0.298200	0.140400
N211	N21	0.219200	0.219700	0.256900
N221	N22	0.285000	0.174900	0.327500
N231	N23	0.375200	0.152800	0.454300
N241	N24	0.367100	0.056400	0.412600
C91	C9	0.345700	0.980800	0.714600
H91	H9	0.339200	0.032400	0.752000
C101	C10	0.346900	0.828700	0.656500
H101	H10	0.341800	0.757100	0.646500
C111	C11	0.210300	0.798000	0.794200
H111	H11	0.146400	0.811500	0.754300
C121	C12	0.379400	0.792300	0.860500
H121	H12	0.453700	0.801900	0.874300
C131	C13	0.112500	0.234100	0.241300
H131	H13	0.070500	0.214300	0.276100
C141	C14	0.250100	0.262100	0.193100
H141	H14	0.320300	0.264800	0.188100
C151	C15	0.325400	0.221100	0.401700
H151	H15	0.318200	0.291600	0.413000
C161	C16	0.313400	0.072800	0.338100
H161	H16	0.296400	0.022000	0.297100
Ag51	Ag5	0.914800	0.343080	0.094630
Ag61	Ag6	0.855980	0.611340	0.975720
N251	N25	0.718100	0.753300	0.363300
N261	N26	0.826400	0.756700	0.404700
N271	N27	0.808200	0.672500	0.290200
N281	N28	0.832400	0.623100	0.224000
N291	N29	0.869500	0.600600	0.107600
N301	N30	0.869000	0.503100	0.144700
N311	N31	0.576600	0.219800	0.669900
N321	N32	0.666000	0.201800	0.640400
N331	N33	0.719200	0.280300	0.756900
N341	N34	0.785000	0.325100	0.827500
N351	N35	0.875200	0.347200	0.954300
N361	N36	0.867100	0.443600	0.912600
C171	C17	0.845700	0.519200	0.214600
H171	H17	0.839200	0.467600	0.252000
C181	C18	0.846900	0.671300	0.156500
H181	H18	0.841800	0.742900	0.146500
C191	C19	0.710300	0.702000	0.294200
H191	H19	0.646400	0.688500	0.254300
C201	C20	0.879400	0.707700	0.360500
H201	H20	0.953700	0.698100	0.374300
C211	C21	0.612500	0.265900	0.741300
H211	H21	0.570500	0.285700	0.776100
C221	C22	0.750100	0.237900	0.693100
H221	H22	0.820300	0.235200	0.688100
C231	C23	0.825400	0.278900	0.901700
H231	H23	0.818200	0.208400	0.913000
C241	C24	0.813400	0.427200	0.838100
H241	H24	0.796400	0.478000	0.797100
Ag71	Ag7	0.585200	0.843080	0.405370
Ag81	Ag8	0.644020	0.111340	0.524280
N371	N37	0.781900	0.253300	0.136700
N381	N38	0.673600	0.256700	0.095300
N391	N39	0.691800	0.172500	0.209800
N401	N40	0.667600	0.123100	0.276000
N411	N41	0.630500	0.100600	0.392400
N421	N42	0.631000	0.003100	0.355300
N431	N43	0.923400	0.719800	0.830100
N441	N44	0.834000	0.701800	0.859600
N451	N45	0.780800	0.780300	0.743100
N461	N46	0.715000	0.825100	0.672500
N471	N47	0.624800	0.847200	0.545700
N481	N48	0.632900	0.943600	0.587400
C251	C25	0.654300	0.019200	0.285400
H251	H25	0.660800	0.967600	0.248000
C261	C26	0.653100	0.171300	0.343500
H261	H26	0.658200	0.242900	0.353500
C271	C27	0.789700	0.202000	0.205800
H271	H27	0.853600	0.188500	0.245700
C281	C28	0.620600	0.207700	0.139500
H281	H28	0.546300	0.198100	0.125700
C291	C29	0.887500	0.765900	0.758700
H291	H29	0.929500	0.785700	0.723900
C301	C30	0.749900	0.737900	0.806900
H301	H30	0.679700	0.735200	0.811900
C311	C31	0.674600	0.778900	0.598300
H311	H31	0.681800	0.708400	0.587000
C321	C32	0.686600	0.927200	0.661900
H321	H32	0.703600	0.978000	0.702900
