data_HOWQOA_clean_PM
_symmetry_space_group_name_H-M	'P1'
_cell_length_a	14.084000
_cell_length_b	21.632000
_cell_length_c	25.794000
_cell_angle_alpha	106.270000
_cell_angle_beta	90.000000
_cell_angle_gamma	90.000000
_symmetry_Int_Tables_number 1

loop_
_symmetry_equiv_pos_as_xyz
'x,y,z'

loop_
_atom_site_label
_atom_site_type_symbol
_atom_site_fract_x
_atom_site_fract_y
_atom_site_fract_z
Zn11	Zn1	0.871540	0.610100	0.711560
Zn21	Zn2	0.377190	0.881390	0.773700
Zn31	Zn3	0.371670	0.575500	0.600700
Zn41	Zn4	0.857700	0.916210	0.876290
Zn51	Zn5	0.371540	0.389900	0.788440
Zn61	Zn6	0.877190	0.118610	0.726300
Zn71	Zn7	0.871670	0.424500	0.899300
Zn81	Zn8	0.357700	0.083790	0.623710
Zn91	Zn9	0.128460	0.389900	0.288440
Zn101	Zn10	0.622810	0.118610	0.226300
Zn111	Zn11	0.628330	0.424500	0.399300
Zn121	Zn12	0.142300	0.083790	0.123710
Zn131	Zn13	0.628460	0.610100	0.211560
Zn141	Zn14	0.122810	0.881390	0.273700
Zn151	Zn15	0.128330	0.575500	0.100700
Zn161	Zn16	0.642300	0.916210	0.376290
H11	H1	0.669500	0.581900	0.662700
H21	H2	0.665600	0.438500	0.761900
H31	H3	0.799500	0.495700	0.756000
H41	H4	0.075400	0.601600	0.668900
H51	H5	0.083000	0.814000	0.762000
H61	H6	0.945200	0.751800	0.758000
H71	H7	0.194500	0.913300	0.833400
H81	H8	0.155000	0.031000	0.713000
H91	H9	0.291300	0.976200	0.716800
H101	H10	0.575500	0.880100	0.809000
H111	H11	0.581300	0.690400	0.676700
H121	H12	0.445200	0.749200	0.697800
H131	H13	0.903000	0.479900	0.633600
H141	H14	0.968000	0.433100	0.550800
H151	H15	0.971200	0.606300	0.523900
H161	H16	0.905400	0.647700	0.607300
H171	H17	0.629300	0.770800	0.358200
H181	H18	0.571300	0.699100	0.400100
H191	H19	0.507500	0.633100	0.438600
H201	H20	0.446600	0.567500	0.485900
H211	H21	0.380200	0.714600	0.605800
H221	H22	0.443000	0.783900	0.563300
H231	H23	0.492700	0.845700	0.524300
H241	H24	0.551500	0.914500	0.479500
H251	H25	0.169500	0.418100	0.837300
H261	H26	0.165600	0.561500	0.738100
H271	H27	0.299500	0.504300	0.744000
H281	H28	0.575400	0.398400	0.831100
H291	H29	0.583000	0.186000	0.738000
H301	H30	0.445200	0.248200	0.742000
H311	H31	0.694500	0.086700	0.666600
H321	H32	0.655000	0.969000	0.787000
H331	H33	0.791300	0.023800	0.783200
H341	H34	0.075500	0.119900	0.691000
H351	H35	0.081300	0.309600	0.823300
H361	H36	0.945200	0.250800	0.802200
H371	H37	0.403000	0.520100	0.866400
H381	H38	0.468000	0.566900	0.949200
H391	H39	0.471200	0.393700	0.976100
H401	H40	0.405400	0.352300	0.892700
H411	H41	0.129300	0.229200	0.141800
H421	H42	0.071300	0.300900	0.099900
H431	H43	0.007500	0.366900	0.061400
H441	H44	0.946600	0.432500	0.014100
H451	H45	0.880200	0.285400	0.894200
H461	H46	0.943000	0.216100	0.936700
H471	H47	0.992700	0.154300	0.975700
H481	H48	0.051500	0.085500	0.020500
H491	H49	0.330500	0.418100	0.337300
H501	H50	0.334400	0.561500	0.238100
H511	H51	0.200500	0.504300	0.244000
H521	H52	0.924600	0.398400	0.331100
H531	H53	0.917000	0.186000	0.238000
H541	H54	0.054800	0.248200	0.242000
H551	H55	0.805500	0.086700	0.166600
H561	H56	0.845000	0.969000	0.287000
H571	H57	0.708700	0.023800	0.283200
H581	H58	0.424500	0.119900	0.191000
H591	H59	0.418700	0.309600	0.323300
H601	H60	0.554800	0.250800	0.302200
H611	H61	0.097000	0.520100	0.366400
H621	H62	0.032000	0.566900	0.449200
H631	H63	0.028800	0.393700	0.476100
H641	H64	0.094600	0.352300	0.392700
H651	H65	0.370700	0.229200	0.641800
H661	H66	0.428700	0.300900	0.599900
H671	H67	0.492500	0.366900	0.561400
H681	H68	0.553400	0.432500	0.514100
H691	H69	0.619800	0.285400	0.394200
H701	H70	0.557000	0.216100	0.436700
H711	H71	0.507300	0.154300	0.475700
H721	H72	0.448500	0.085500	0.520500
H731	H73	0.830500	0.581900	0.162700
H741	H74	0.834400	0.438500	0.261900
H751	H75	0.700500	0.495700	0.256000
H761	H76	0.424600	0.601600	0.168900
H771	H77	0.417000	0.814000	0.262000
H781	H78	0.554800	0.751800	0.258000
H791	H79	0.305500	0.913300	0.333400
H801	H80	0.345000	0.031000	0.213000
H811	H81	0.208700	0.976200	0.216800
H821	H82	0.924500	0.880100	0.309000
H831	H83	0.918700	0.690400	0.176700
H841	H84	0.054800	0.749200	0.197800
H851	H85	0.597000	0.479900	0.133600
H861	H86	0.532000	0.433100	0.050800
H871	H87	0.528800	0.606300	0.023900
H881	H88	0.594600	0.647700	0.107300
H891	H89	0.870700	0.770800	0.858200
H901	H90	0.928700	0.699100	0.900100
H911	H91	0.992500	0.633100	0.938600
H921	H92	0.053400	0.567500	0.985900
H931	H93	0.119800	0.714600	0.105800
H941	H94	0.057000	0.783900	0.063300
H951	H95	0.007300	0.845700	0.024300
H961	H96	0.948500	0.914500	0.979500
C11	C1	0.668300	0.552900	0.683400
C21	C2	0.584100	0.520800	0.685800
C31	C3	0.495400	0.537900	0.659600
C41	C4	0.581100	0.476000	0.715500
C51	C5	0.495400	0.435800	0.719100
C61	C6	0.664300	0.467800	0.741500
C71	C7	0.745100	0.502300	0.737800
C81	C8	0.076500	0.645000	0.688100
C91	C9	0.160900	0.678200	0.688700
C101	C10	0.245900	0.643200	0.660200
C111	C11	0.162700	0.743500	0.716700
C121	C12	0.248200	0.786400	0.719400
C131	C13	0.080000	0.770500	0.742300
C141	C14	0.999600	0.732800	0.740000
C151	C15	0.185800	0.937700	0.809300
C161	C16	0.100300	0.969500	0.811000
C171	C17	0.024800	0.957200	0.848300
C181	C18	0.087200	0.006300	0.775200
C191	C19	0.999800	0.047600	0.775500
C201	C20	0.160600	0.007800	0.739500
C211	C21	0.243000	0.974400	0.741000
C221	C22	0.577500	0.841500	0.781600
C231	C23	0.663300	0.809900	0.771200
C241	C24	0.748500	0.841100	0.802500
C251	C25	0.666500	0.751300	0.731000
C261	C26	0.753000	0.709100	0.715500
C271	C27	0.582200	0.729300	0.703700
C281	C28	0.500500	0.764800	0.716700
C291	C29	0.916800	0.505700	0.611200
C301	C30	0.956000	0.477200	0.561400
C311	C31	0.977600	0.514400	0.527000
C321	C32	0.957900	0.579300	0.545400
C331	C33	0.918400	0.603800	0.595800
C341	C34	0.601500	0.786300	0.392100
C351	C35	0.566700	0.743000	0.417300
C361	C36	0.525100	0.763000	0.467400
C371	C37	0.485200	0.717700	0.495700
C381	C38	0.483300	0.651000	0.473100
C391	C39	0.445800	0.611800	0.501700
C401	C40	0.407500	0.697700	0.571900
C411	C41	0.444900	0.739900	0.546300
C421	C42	0.520200	0.829200	0.490400
C431	C43	0.556000	0.870400	0.463300
C441	C44	0.168300	0.447100	0.816600
C451	C45	0.084100	0.479200	0.814200
C461	C46	0.995400	0.462100	0.840400
C471	C47	0.081100	0.524000	0.784500
C481	C48	0.995400	0.564200	0.780900
C491	C49	0.164300	0.532200	0.758500
C501	C50	0.245100	0.497700	0.762200
C511	C51	0.576500	0.355000	0.811900
C521	C52	0.660900	0.321800	0.811300
C531	C53	0.745900	0.356800	0.839800
C541	C54	0.662700	0.256500	0.783300
C551	C55	0.748200	0.213600	0.780600
C561	C56	0.580000	0.229500	0.757700
C571	C57	0.499600	0.267200	0.760000
C581	C58	0.685800	0.062300	0.690700
C591	C59	0.600300	0.030500	0.689000
C601	C60	0.524800	0.042800	0.651700
C611	C61	0.587200	0.993700	0.724800
C621	C62	0.499800	0.952400	0.724500
C631	C63	0.660600	0.992200	0.760500
C641	C64	0.743000	0.025600	0.759000
C651	C65	0.077500	0.158500	0.718400
C661	C66	0.163300	0.190100	0.728800
C671	C67	0.248500	0.158900	0.697500
C681	C68	0.166500	0.248700	0.769000
C691	C69	0.253000	0.290900	0.784500
C701	C70	0.082200	0.270700	0.796300
C711	C71	0.000500	0.235200	0.783300
C721	C72	0.416800	0.494300	0.888800
C731	C73	0.456000	0.522800	0.938600
C741	C74	0.477600	0.485600	0.973000
C751	C75	0.457900	0.420700	0.954600
C761	C76	0.418400	0.396200	0.904200
C771	C77	0.101500	0.213700	0.107900
C781	C78	0.066700	0.257000	0.082700
C791	C79	0.025100	0.237000	0.032600
C801	C80	0.985200	0.282300	0.004300
C811	C81	0.983300	0.349000	0.026900
C821	C82	0.945800	0.388200	0.998300
C831	C83	0.907500	0.302300	0.928100
C841	C84	0.944900	0.260100	0.953700
C851	C85	0.020200	0.170800	0.009600
C861	C86	0.056000	0.129600	0.036700
C871	C87	0.331700	0.447100	0.316600
C881	C88	0.415900	0.479200	0.314200
C891	C89	0.504600	0.462100	0.340400
C901	C90	0.418900	0.524000	0.284500
C911	C91	0.504600	0.564200	0.280900
C921	C92	0.335700	0.532200	0.258500
C931	C93	0.254900	0.497700	0.262200
C941	C94	0.923500	0.355000	0.311900
C951	C95	0.839100	0.321800	0.311300
C961	C96	0.754100	0.356800	0.339800
C971	C97	0.837300	0.256500	0.283300
C981	C98	0.751800	0.213600	0.280600
C991	C99	0.920000	0.229500	0.257700
C1001	C100	0.000400	0.267200	0.260000
C1011	C101	0.814200	0.062300	0.190700
C1021	C102	0.899700	0.030500	0.189000
C1031	C103	0.975200	0.042800	0.151700
C1041	C104	0.912800	0.993700	0.224800
C1051	C105	0.000200	0.952400	0.224500
C1061	C106	0.839400	0.992200	0.260500
C1071	C107	0.757000	0.025600	0.259000
C1081	C108	0.422500	0.158500	0.218400
C1091	C109	0.336700	0.190100	0.228800
C1101	C110	0.251500	0.158900	0.197500
C1111	C111	0.333500	0.248700	0.269000
C1121	C112	0.247000	0.290900	0.284500
C1131	C113	0.417800	0.270700	0.296300
C1141	C114	0.499500	0.235200	0.283300
C1151	C115	0.083200	0.494300	0.388800
C1161	C116	0.044000	0.522800	0.438600
C1171	C117	0.022400	0.485600	0.473000
C1181	C118	0.042100	0.420700	0.454600
C1191	C119	0.081600	0.396200	0.404200
C1201	C120	0.398500	0.213700	0.607900
C1211	C121	0.433300	0.257000	0.582700
C1221	C122	0.474900	0.237000	0.532600
C1231	C123	0.514800	0.282300	0.504300
C1241	C124	0.516700	0.349000	0.526900
C1251	C125	0.554200	0.388200	0.498300
C1261	C126	0.592500	0.302300	0.428100
C1271	C127	0.555100	0.260100	0.453700
C1281	C128	0.479800	0.170800	0.509600
C1291	C129	0.444000	0.129600	0.536700
C1301	C130	0.831700	0.552900	0.183400
C1311	C131	0.915900	0.520800	0.185800
C1321	C132	0.004600	0.537900	0.159600
C1331	C133	0.918900	0.476000	0.215500
C1341	C134	0.004600	0.435800	0.219100
C1351	C135	0.835700	0.467800	0.241500
C1361	C136	0.754900	0.502300	0.237800
C1371	C137	0.423500	0.645000	0.188100
C1381	C138	0.339100	0.678200	0.188700
C1391	C139	0.254100	0.643200	0.160200
C1401	C140	0.337300	0.743500	0.216700
C1411	C141	0.251800	0.786400	0.219400
C1421	C142	0.420000	0.770500	0.242300
C1431	C143	0.500400	0.732800	0.240000
C1441	C144	0.314200	0.937700	0.309300
C1451	C145	0.399700	0.969500	0.311000
C1461	C146	0.475200	0.957200	0.348300
C1471	C147	0.412800	0.006300	0.275200
C1481	C148	0.500200	0.047600	0.275500
C1491	C149	0.339400	0.007800	0.239500
C1501	C150	0.257000	0.974400	0.241000
C1511	C151	0.922500	0.841500	0.281600
C1521	C152	0.836700	0.809900	0.271200
C1531	C153	0.751500	0.841100	0.302500
C1541	C154	0.833500	0.751300	0.231000
C1551	C155	0.747000	0.709100	0.215500
C1561	C156	0.917800	0.729300	0.203700
C1571	C157	0.999500	0.764800	0.216700
C1581	C158	0.583200	0.505700	0.111200
C1591	C159	0.544000	0.477200	0.061400
C1601	C160	0.522400	0.514400	0.027000
C1611	C161	0.542100	0.579300	0.045400
C1621	C162	0.581600	0.603800	0.095800
C1631	C163	0.898500	0.786300	0.892100
C1641	C164	0.933300	0.743000	0.917300
C1651	C165	0.974900	0.763000	0.967400
C1661	C166	0.014800	0.717700	0.995700
C1671	C167	0.016700	0.651000	0.973100
C1681	C168	0.054200	0.611800	0.001700
C1691	C169	0.092500	0.697700	0.071900
C1701	C170	0.055100	0.739900	0.046300
C1711	C171	0.979800	0.829200	0.990400
C1721	C172	0.944000	0.870400	0.963300
N11	N1	0.747900	0.544900	0.708760
N21	N2	0.997100	0.670500	0.713120
N31	N3	0.257000	0.939700	0.775460
N41	N4	0.496700	0.820700	0.755080
N51	N5	0.897800	0.568200	0.628930
N61	N6	0.597000	0.850100	0.414600
N71	N7	0.408100	0.633900	0.551100
N81	N8	0.247900	0.455100	0.791240
N91	N9	0.497100	0.329500	0.786880
N101	N10	0.757000	0.060300	0.724540
N111	N11	0.996700	0.179300	0.744920
N121	N12	0.397800	0.431800	0.871070
N131	N13	0.097000	0.149900	0.085400
N141	N14	0.908100	0.366100	0.948900
N151	N15	0.252100	0.455100	0.291240
N161	N16	0.002900	0.329500	0.286880
N171	N17	0.743000	0.060300	0.224540
N181	N18	0.503300	0.179300	0.244920
N191	N19	0.102200	0.431800	0.371070
N201	N20	0.403000	0.149900	0.585400
N211	N21	0.591900	0.366100	0.448900
N221	N22	0.752100	0.544900	0.208760
N231	N23	0.502900	0.670500	0.213120
N241	N24	0.243000	0.939700	0.275460
N251	N25	0.003300	0.820700	0.255080
N261	N26	0.602200	0.568200	0.128930
N271	N27	0.903000	0.850100	0.914600
N281	N28	0.091900	0.633900	0.051100
O11	O1	0.506300	0.565600	0.623170
O21	O2	0.417200	0.525900	0.674400
O31	O3	0.475500	0.390900	0.679730
O41	O4	0.454100	0.451410	0.764060
O51	O5	0.232900	0.591900	0.623240
O61	O6	0.326700	0.665200	0.672580
O71	O7	0.271500	0.802700	0.679100
O81	O8	0.286700	0.804830	0.765020
O91	O9	0.048000	0.953700	0.893500
O101	O10	0.942100	0.949390	0.829870
O111	O11	0.975900	0.083900	0.819300
O121	O12	0.962700	0.043830	0.730880
O131	O13	0.732700	0.888810	0.844020
O141	O14	0.828300	0.821570	0.787760
O151	O15	0.783900	0.700700	0.669400
O161	O16	0.783200	0.681440	0.749300
O171	O17	0.006300	0.434400	0.876830
O181	O18	0.917200	0.474100	0.825600
O191	O19	0.975500	0.609100	0.820270
O201	O20	0.954100	0.548590	0.735940
O211	O21	0.732900	0.408100	0.876760
O221	O22	0.826700	0.334800	0.827420
O231	O23	0.771500	0.197300	0.820900
O241	O24	0.786700	0.195170	0.734980
O251	O25	0.548000	0.046300	0.606500
O261	O26	0.442100	0.050610	0.670130
O271	O27	0.475900	0.916100	0.680700
O281	O28	0.462700	0.956170	0.769120
O291	O29	0.232700	0.111190	0.655980
O301	O30	0.328300	0.178430	0.712240
O311	O31	0.283900	0.299300	0.830600
O321	O32	0.283200	0.318560	0.750700
O331	O33	0.493700	0.434400	0.376830
O341	O34	0.582800	0.474100	0.325600
O351	O35	0.524500	0.609100	0.320270
O361	O36	0.545900	0.548590	0.235940
O371	O37	0.767100	0.408100	0.376760
O381	O38	0.673300	0.334800	0.327420
O391	O39	0.728500	0.197300	0.320900
O401	O40	0.713300	0.195170	0.234980
O411	O41	0.952000	0.046300	0.106500
O421	O42	0.057900	0.050610	0.170130
O431	O43	0.024100	0.916100	0.180700
O441	O44	0.037300	0.956170	0.269120
O451	O45	0.267300	0.111190	0.155980
O461	O46	0.171700	0.178430	0.212240
O471	O47	0.216100	0.299300	0.330600
O481	O48	0.216800	0.318560	0.250700
O491	O49	0.993700	0.565600	0.123170
O501	O50	0.082800	0.525900	0.174400
O511	O51	0.024500	0.390900	0.179730
O521	O52	0.045900	0.451410	0.264060
O531	O53	0.267100	0.591900	0.123240
O541	O54	0.173300	0.665200	0.172580
O551	O55	0.228500	0.802700	0.179100
O561	O56	0.213300	0.804830	0.265020
O571	O57	0.452000	0.953700	0.393500
O581	O58	0.557900	0.949390	0.329870
O591	O59	0.524100	0.083900	0.319300
O601	O60	0.537300	0.043830	0.230880
O611	O61	0.767300	0.888810	0.344020
O621	O62	0.671700	0.821570	0.287760
O631	O63	0.716100	0.700700	0.169400
O641	O64	0.716800	0.681440	0.249300
