data_HOWSET_clean_PM
_symmetry_space_group_name_H-M	'P1'
_cell_length_a	12.473600
_cell_length_b	12.473600
_cell_length_c	70.288400
_cell_angle_alpha	90.000000
_cell_angle_beta	90.000000
_cell_angle_gamma	90.000000
_symmetry_Int_Tables_number 1

loop_
_symmetry_equiv_pos_as_xyz
'x,y,z'

loop_
_atom_site_label
_atom_site_type_symbol
_atom_site_fract_x
_atom_site_fract_y
_atom_site_fract_z
Cu11	Cu1	0.311900	0.422380	0.116760
Cu21	Cu2	0.382520	0.361550	0.082710
Cu31	Cu3	0.964800	0.336020	0.999280
Cu41	Cu4	0.767360	0.382500	0.004710
O11	O1	0.227900	0.337100	0.078280
O21	O2	0.398000	0.221800	0.094530
O31	O3	0.301400	0.560700	0.102220
O41	O4	0.453900	0.464900	0.124040
O51	O5	0.170900	0.379800	0.107620
O61	O6	0.349500	0.274000	0.123810
O71	O7	0.363600	0.506900	0.073660
O81	O8	0.255300	0.993000	0.108180
O91	O9	0.517700	0.411600	0.095420
C11	C1	0.334100	0.578600	0.085770
C21	C2	0.155300	0.354800	0.090820
C31	C3	0.338000	0.773600	0.092480
H11	H1	0.327800	0.757800	0.105300
N11	N1	0.434700	0.016800	0.106030
C41	C4	0.959000	0.368700	0.097020
H21	H2	0.974100	0.374000	0.109900
C51	C5	0.892900	0.349100	0.037590
C61	C6	0.350700	0.880500	0.086610
C71	C7	0.361800	0.844900	0.032960
C81	C8	0.344200	0.967800	0.101210
C91	C9	0.357800	0.904900	0.067190
H31	H3	0.363700	0.975500	0.063100
C101	C10	0.340600	0.692100	0.079250
C111	C11	0.525700	0.458400	0.111580
C121	C12	0.853000	0.378200	0.090550
O101	O10	0.799300	0.366000	0.032100
O111	O11	0.968300	0.330000	0.026820
C131	C13	0.040800	0.351500	0.084150
C141	C14	0.020500	0.341000	0.064560
H41	H4	0.076000	0.328800	0.056000
N21	N2	0.714900	0.493600	0.102590
C151	C15	0.388300	0.208600	0.111910
C161	C16	0.764900	0.404400	0.105010
C171	C17	0.349800	0.715400	0.060060
H51	H5	0.351800	0.660400	0.051200
O121	O12	0.750000	0.342600	0.118380
O131	O13	0.755200	0.217300	0.005020
O141	O14	0.377900	0.766400	0.022590
C181	C18	0.915800	0.349400	0.058480
O151	O15	0.353900	0.939200	0.028130
C191	C19	0.831700	0.369000	0.071380
H61	H6	0.761700	0.375800	0.067000
C201	C20	0.625900	0.521000	0.115890
H71	H7	0.648100	0.510200	0.129100
C211	C21	0.355800	0.820900	0.054230
O161	O16	0.939900	0.185400	0.998020
C221	C22	0.552900	0.122800	0.124630
H81	H8	0.566600	0.197200	0.127800
H91	H9	0.577000	0.077500	0.135000
C231	C23	0.432700	0.103900	0.120170
H101	H10	0.393200	0.082500	0.131600
C241	C24	0.542000	0.998100	0.098510
H111	H11	0.541000	0.996200	0.084700
H121	H12	0.570800	0.930900	0.103200
O171	O17	0.499300	0.964200	0.998770
C251	C25	0.732300	0.578700	0.088310
H131	H13	0.725600	0.551900	0.075400
H141	H14	0.801300	0.613500	0.089900
C261	C26	0.608000	0.091300	0.105540
H151	H15	0.681900	0.070200	0.107600
H161	H16	0.606200	0.150300	0.096600
C271	C27	0.704800	0.006700	0.999000
C281	C28	0.608400	0.640500	0.111700
H171	H17	0.534000	0.659700	0.113800
H181	H18	0.652800	0.684000	0.120000
C291	C29	0.682900	0.915600	0.998500
C301	C30	0.634900	0.655800	0.094010
H191	H19	0.655800	0.730000	0.092200
H201	H20	0.573800	0.641200	0.085900
C311	C31	0.544300	0.891500	0.996300
C321	C32	0.817900	0.043100	0.999600
C331	C33	0.842000	0.164100	0.001490
O181	O18	0.531600	0.787200	0.994870
C341	C34	0.887100	0.957600	0.998820
C351	C35	0.761800	0.834400	0.996260
Cu51	Cu5	0.688100	0.577620	0.616760
Cu61	Cu6	0.617480	0.638450	0.582710
Cu71	Cu7	0.035200	0.663980	0.499280
Cu81	Cu8	0.232640	0.617500	0.504710
O191	O19	0.772100	0.662900	0.578280
O201	O20	0.602000	0.778200	0.594530
O211	O21	0.698600	0.439300	0.602220
O221	O22	0.546100	0.535100	0.624040
O231	O23	0.829100	0.620200	0.607620
O241	O24	0.650500	0.726000	0.623810
O251	O25	0.636400	0.493100	0.573660
O261	O26	0.744700	0.007000	0.608180
O271	O27	0.482300	0.588400	0.595420
C361	C36	0.665900	0.421400	0.585770
C371	C37	0.844700	0.645200	0.590820
C381	C38	0.662000	0.226400	0.592480
H211	H21	0.672200	0.242200	0.605300
N31	N3	0.565300	0.983200	0.606030
C391	C39	0.041000	0.631300	0.597020
H221	H22	0.025900	0.626000	0.609900
C401	C40	0.107100	0.650900	0.537590
C411	C41	0.649300	0.119500	0.586610
C421	C42	0.638200	0.155100	0.532960
C431	C43	0.655800	0.032200	0.601210
C441	C44	0.642200	0.095100	0.567190
H231	H23	0.636300	0.024500	0.563100
C451	C45	0.659400	0.307900	0.579250
C461	C46	0.474300	0.541600	0.611580
C471	C47	0.147000	0.621800	0.590550
O281	O28	0.200700	0.634000	0.532100
O291	O29	0.031700	0.670000	0.526820
C481	C48	0.959200	0.648500	0.584150
C491	C49	0.979500	0.659000	0.564560
H241	H24	0.924000	0.671200	0.556000
N41	N4	0.285100	0.506400	0.602590
C501	C50	0.611700	0.791400	0.611910
C511	C51	0.235100	0.595600	0.605010
C521	C52	0.650200	0.284600	0.560060
H251	H25	0.648200	0.339600	0.551200
O301	O30	0.250000	0.657400	0.618380
O311	O31	0.244800	0.782700	0.505020
O321	O32	0.622100	0.233600	0.522590
C531	C53	0.084200	0.650600	0.558480
O331	O33	0.646100	0.060800	0.528130
C541	C54	0.168300	0.631000	0.571380
H261	H26	0.238300	0.624200	0.567000
C551	C55	0.374100	0.479000	0.615890
H271	H27	0.351900	0.489800	0.629100
C561	C56	0.644200	0.179100	0.554230
O341	O34	0.060100	0.814600	0.498020
C571	C57	0.447100	0.877200	0.624630
H281	H28	0.433400	0.802800	0.627800
H291	H29	0.423000	0.922500	0.635000
C581	C58	0.567300	0.896100	0.620170
H301	H30	0.606800	0.917500	0.631600
C591	C59	0.458000	0.001900	0.598510
H311	H31	0.459000	0.003800	0.584700
H321	H32	0.429200	0.069100	0.603200
O351	O35	0.500700	0.035800	0.498770
C601	C60	0.267700	0.421300	0.588310
H331	H33	0.274400	0.448100	0.575400
H341	H34	0.198700	0.386500	0.589900
C611	C61	0.392000	0.908700	0.605540
H351	H35	0.318100	0.929800	0.607600
H361	H36	0.393800	0.849700	0.596600
C621	C62	0.295200	0.993300	0.499000
C631	C63	0.391600	0.359500	0.611700
H371	H37	0.466000	0.340300	0.613800
H381	H38	0.347200	0.316000	0.620000
C641	C64	0.317100	0.084400	0.498500
C651	C65	0.365100	0.344200	0.594010
H391	H39	0.344200	0.270000	0.592200
H401	H40	0.426200	0.358800	0.585900
C661	C66	0.455700	0.108500	0.496300
C671	C67	0.182100	0.956900	0.499600
C681	C68	0.158000	0.835900	0.501490
O361	O36	0.468400	0.212800	0.494870
C691	C69	0.112900	0.042400	0.498820
C701	C70	0.238200	0.165600	0.496260
Cu91	Cu9	0.077620	0.811900	0.366760
Cu101	Cu10	0.138450	0.882520	0.332710
Cu111	Cu11	0.163980	0.464800	0.249280
Cu121	Cu12	0.117500	0.267360	0.254710
O371	O37	0.162900	0.727900	0.328280
O381	O38	0.278200	0.898000	0.344530
O391	O39	0.939300	0.801400	0.352220
O401	O40	0.035100	0.953900	0.374040
O411	O41	0.120200	0.670900	0.357620
O421	O42	0.226000	0.849500	0.373810
O431	O43	0.993100	0.863600	0.323660
O441	O44	0.507000	0.755300	0.358180
O451	O45	0.088400	0.017700	0.345420
C711	C71	0.921400	0.834100	0.335770
C721	C72	0.145200	0.655300	0.340820
C731	C73	0.726400	0.838000	0.342480
H411	H41	0.742200	0.827800	0.355300
N51	N5	0.483200	0.934700	0.356030
C741	C74	0.131300	0.459000	0.347020
H421	H42	0.126000	0.474100	0.359900
C751	C75	0.150900	0.392900	0.287590
C761	C76	0.619500	0.850700	0.336610
C771	C77	0.655100	0.861800	0.282960
C781	C78	0.532200	0.844200	0.351210
C791	C79	0.595100	0.857800	0.317190
H431	H43	0.524500	0.863700	0.313100
C801	C80	0.807900	0.840600	0.329250
C811	C81	0.041600	0.025700	0.361580
C821	C82	0.121800	0.353000	0.340550
O461	O46	0.134000	0.299300	0.282100
O471	O47	0.170000	0.468300	0.276820
C831	C83	0.148500	0.540800	0.334150
C841	C84	0.159000	0.520500	0.314560
H441	H44	0.171200	0.576000	0.306000
N61	N6	0.006400	0.214900	0.352590
C851	C85	0.291400	0.888300	0.361910
C861	C86	0.095600	0.264900	0.355010
C871	C87	0.784600	0.849800	0.310060
H451	H45	0.839600	0.851800	0.301200
O481	O48	0.157400	0.250000	0.368380
O491	O49	0.282700	0.255200	0.255020
O501	O50	0.733600	0.877900	0.272590
C881	C88	0.150600	0.415800	0.308480
O511	O51	0.560800	0.853900	0.278130
C891	C89	0.131000	0.331700	0.321380
H461	H46	0.124200	0.261700	0.317000
C901	C90	0.979000	0.125900	0.365890
H471	H47	0.989800	0.148100	0.379100
C911	C91	0.679100	0.855800	0.304230
O521	O52	0.314600	0.439900	0.248020
C921	C92	0.377200	0.052900	0.374630
H481	H48	0.302800	0.066600	0.377800
H491	H49	0.422500	0.077000	0.385000
C931	C93	0.396100	0.932700	0.370170
H501	H50	0.417500	0.893200	0.381600
C941	C94	0.501900	0.042000	0.348510
H511	H51	0.503800	0.041000	0.334700
H521	H52	0.569100	0.070800	0.353200
O531	O53	0.535800	0.999300	0.248770
C951	C95	0.921300	0.232300	0.338310
H531	H53	0.948100	0.225600	0.325400
H541	H54	0.886500	0.301300	0.339900
C961	C96	0.408700	0.108000	0.355540
H551	H55	0.429800	0.181900	0.357600
H561	H56	0.349700	0.106200	0.346600
C971	C97	0.493300	0.204800	0.249000
C981	C98	0.859500	0.108400	0.361700
H571	H57	0.840300	0.034000	0.363800
H581	H58	0.816000	0.152800	0.370000
C991	C99	0.584400	0.182900	0.248500
C1001	C100	0.844200	0.134900	0.344010
H591	H59	0.770000	0.155800	0.342200
H601	H60	0.858800	0.073800	0.335900
C1011	C101	0.608500	0.044300	0.246300
C1021	C102	0.456900	0.317900	0.249600
C1031	C103	0.335900	0.342000	0.251490
O541	O54	0.712800	0.031600	0.244870
C1041	C104	0.542400	0.387100	0.248820
C1051	C105	0.665600	0.261800	0.246260
Cu131	Cu13	0.922380	0.188100	0.866760
Cu141	Cu14	0.861550	0.117480	0.832710
Cu151	Cu15	0.836020	0.535200	0.749280
Cu161	Cu16	0.882500	0.732640	0.754710
O551	O55	0.837100	0.272100	0.828280
O561	O56	0.721800	0.102000	0.844530
O571	O57	0.060700	0.198600	0.852220
O581	O58	0.964900	0.046100	0.874040
O591	O59	0.879800	0.329100	0.857620
O601	O60	0.774000	0.150500	0.873810
O611	O61	0.006900	0.136400	0.823660
O621	O62	0.493000	0.244700	0.858180
O631	O63	0.911600	0.982300	0.845420
C1061	C106	0.078600	0.165900	0.835770
C1071	C107	0.854800	0.344700	0.840820
C1081	C108	0.273600	0.162000	0.842480
H611	H61	0.257800	0.172200	0.855300
N71	N7	0.516800	0.065300	0.856030
C1091	C109	0.868700	0.541000	0.847020
H621	H62	0.874000	0.525900	0.859900
C1101	C110	0.849100	0.607100	0.787590
C1111	C111	0.380500	0.149300	0.836610
C1121	C112	0.344900	0.138200	0.782960
C1131	C113	0.467800	0.155800	0.851210
C1141	C114	0.404900	0.142200	0.817190
H631	H63	0.475500	0.136300	0.813100
C1151	C115	0.192100	0.159400	0.829250
C1161	C116	0.958400	0.974300	0.861580
C1171	C117	0.878200	0.647000	0.840550
O641	O64	0.866000	0.700700	0.782100
O651	O65	0.830000	0.531700	0.776820
C1181	C118	0.851500	0.459200	0.834150
C1191	C119	0.841000	0.479500	0.814560
H641	H64	0.828800	0.424000	0.806000
N81	N8	0.993600	0.785100	0.852590
C1201	C120	0.708600	0.111700	0.861910
C1211	C121	0.904400	0.735100	0.855010
C1221	C122	0.215400	0.150200	0.810060
H651	H65	0.160400	0.148200	0.801200
O661	O66	0.842600	0.750000	0.868380
O671	O67	0.717300	0.744800	0.755020
O681	O68	0.266400	0.122100	0.772590
C1231	C123	0.849400	0.584200	0.808480
O691	O69	0.439200	0.146100	0.778130
C1241	C124	0.869000	0.668300	0.821380
H661	H66	0.875800	0.738300	0.817000
C1251	C125	0.021000	0.874100	0.865890
H671	H67	0.010200	0.851900	0.879100
C1261	C126	0.320900	0.144200	0.804230
O701	O70	0.685400	0.560100	0.748020
C1271	C127	0.622800	0.947100	0.874630
H681	H68	0.697200	0.933400	0.877800
H691	H69	0.577500	0.923000	0.885000
C1281	C128	0.603900	0.067300	0.870170
H701	H70	0.582500	0.106800	0.881600
C1291	C129	0.498100	0.958000	0.848510
H711	H71	0.496200	0.959000	0.834700
H721	H72	0.430900	0.929200	0.853200
O711	O71	0.464200	0.000700	0.748770
C1301	C130	0.078700	0.767700	0.838310
H731	H73	0.051900	0.774400	0.825400
H741	H74	0.113500	0.698700	0.839900
C1311	C131	0.591300	0.892000	0.855540
H751	H75	0.570200	0.818100	0.857600
H761	H76	0.650300	0.893800	0.846600
C1321	C132	0.506700	0.795200	0.749000
C1331	C133	0.140500	0.891600	0.861700
H771	H77	0.159700	0.966000	0.863800
H781	H78	0.184000	0.847200	0.870000
C1341	C134	0.415600	0.817100	0.748500
C1351	C135	0.155800	0.865100	0.844010
H791	H79	0.230000	0.844200	0.842200
H801	H80	0.141200	0.926200	0.835900
C1361	C136	0.391500	0.955700	0.746300
C1371	C137	0.543100	0.682100	0.749600
C1381	C138	0.664100	0.658000	0.751490
O721	O72	0.287200	0.968400	0.744870
C1391	C139	0.457600	0.612900	0.748820
C1401	C140	0.334400	0.738200	0.746260
Cu171	Cu17	0.188100	0.922380	0.133240
Cu181	Cu18	0.117480	0.861550	0.167290
Cu191	Cu19	0.535200	0.836020	0.250720
Cu201	Cu20	0.732640	0.882500	0.245290
O731	O73	0.272100	0.837100	0.171720
O741	O74	0.102000	0.721800	0.155470
O751	O75	0.198600	0.060700	0.147780
O761	O76	0.046100	0.964900	0.125960
O771	O77	0.329100	0.879800	0.142380
O781	O78	0.150500	0.774000	0.126190
O791	O79	0.136400	0.006900	0.176340
O801	O80	0.244700	0.493000	0.141820
O811	O81	0.982300	0.911600	0.154580
C1411	C141	0.165900	0.078600	0.164230
C1421	C142	0.344700	0.854800	0.159180
C1431	C143	0.162000	0.273600	0.157520
H811	H81	0.172200	0.257800	0.144700
N91	N9	0.065300	0.516800	0.143970
C1441	C144	0.541000	0.868700	0.152980
H821	H82	0.525900	0.874000	0.140100
C1451	C145	0.607100	0.849100	0.212410
C1461	C146	0.149300	0.380500	0.163390
C1471	C147	0.138200	0.344900	0.217040
C1481	C148	0.155800	0.467800	0.148790
C1491	C149	0.142200	0.404900	0.182810
H831	H83	0.136300	0.475500	0.186900
C1501	C150	0.159400	0.192100	0.170750
C1511	C151	0.974300	0.958400	0.138420
C1521	C152	0.647000	0.878200	0.159450
O821	O82	0.700700	0.866000	0.217900
O831	O83	0.531700	0.830000	0.223180
C1531	C153	0.459200	0.851500	0.165850
C1541	C154	0.479500	0.841000	0.185440
H841	H84	0.424000	0.828800	0.194000
N101	N10	0.785100	0.993600	0.147410
C1551	C155	0.111700	0.708600	0.138090
C1561	C156	0.735100	0.904400	0.144990
C1571	C157	0.150200	0.215400	0.189940
H851	H85	0.148200	0.160400	0.198800
O841	O84	0.750000	0.842600	0.131620
O851	O85	0.744800	0.717300	0.244980
O861	O86	0.122100	0.266400	0.227410
C1581	C158	0.584200	0.849400	0.191520
O871	O87	0.146100	0.439200	0.221870
C1591	C159	0.668300	0.869000	0.178620
H861	H86	0.738300	0.875800	0.183000
C1601	C160	0.874100	0.021000	0.134110
H871	H87	0.851900	0.010200	0.120900
C1611	C161	0.144200	0.320900	0.195770
O881	O88	0.560100	0.685400	0.251980
C1621	C162	0.947100	0.622800	0.125370
H881	H88	0.933400	0.697200	0.122200
H891	H89	0.923000	0.577500	0.115000
C1631	C163	0.067300	0.603900	0.129830
H901	H90	0.106800	0.582500	0.118400
C1641	C164	0.958000	0.498100	0.151490
H911	H91	0.959000	0.496200	0.165300
H921	H92	0.929200	0.430900	0.146800
O891	O89	0.000700	0.464200	0.251230
C1651	C165	0.767700	0.078700	0.161690
H931	H93	0.774400	0.051900	0.174600
H941	H94	0.698700	0.113500	0.160100
C1661	C166	0.892000	0.591300	0.144460
H951	H95	0.818100	0.570200	0.142400
H961	H96	0.893800	0.650300	0.153400
C1671	C167	0.795200	0.506700	0.251000
C1681	C168	0.891600	0.140500	0.138300
H971	H97	0.966000	0.159700	0.136200
H981	H98	0.847200	0.184000	0.130000
C1691	C169	0.817100	0.415600	0.251500
C1701	C170	0.865100	0.155800	0.155990
H991	H99	0.844200	0.230000	0.157800
H1001	H100	0.926200	0.141200	0.164100
C1711	C171	0.955700	0.391500	0.253700
C1721	C172	0.682100	0.543100	0.250400
C1731	C173	0.658000	0.664100	0.248510
O901	O90	0.968400	0.287200	0.255130
C1741	C174	0.612900	0.457600	0.251180
C1751	C175	0.738200	0.334400	0.253740
Cu211	Cu21	0.811900	0.077620	0.633240
Cu221	Cu22	0.882520	0.138450	0.667290
Cu231	Cu23	0.464800	0.163980	0.750720
Cu241	Cu24	0.267360	0.117500	0.745290
O911	O91	0.727900	0.162900	0.671720
O921	O92	0.898000	0.278200	0.655470
O931	O93	0.801400	0.939300	0.647780
O941	O94	0.953900	0.035100	0.625960
O951	O95	0.670900	0.120200	0.642380
O961	O96	0.849500	0.226000	0.626190
O971	O97	0.863600	0.993100	0.676340
O981	O98	0.755300	0.507000	0.641820
O991	O99	0.017700	0.088400	0.654580
C1761	C176	0.834100	0.921400	0.664230
C1771	C177	0.655300	0.145200	0.659180
C1781	C178	0.838000	0.726400	0.657520
H1011	H101	0.827800	0.742200	0.644700
N111	N11	0.934700	0.483200	0.643970
C1791	C179	0.459000	0.131300	0.652980
H1021	H102	0.474100	0.126000	0.640100
C1801	C180	0.392900	0.150900	0.712410
C1811	C181	0.850700	0.619500	0.663390
C1821	C182	0.861800	0.655100	0.717040
C1831	C183	0.844200	0.532200	0.648790
C1841	C184	0.857800	0.595100	0.682810
H1031	H103	0.863700	0.524500	0.686900
C1851	C185	0.840600	0.807900	0.670750
C1861	C186	0.025700	0.041600	0.638420
C1871	C187	0.353000	0.121800	0.659450
O1001	O100	0.299300	0.134000	0.717900
O1011	O101	0.468300	0.170000	0.723180
C1881	C188	0.540800	0.148500	0.665850
C1891	C189	0.520500	0.159000	0.685440
H1041	H104	0.576000	0.171200	0.694000
N121	N12	0.214900	0.006400	0.647410
C1901	C190	0.888300	0.291400	0.638090
C1911	C191	0.264900	0.095600	0.644990
C1921	C192	0.849800	0.784600	0.689940
H1051	H105	0.851800	0.839600	0.698800
O1021	O102	0.250000	0.157400	0.631620
O1031	O103	0.255200	0.282700	0.744980
O1041	O104	0.877900	0.733600	0.727410
C1931	C193	0.415800	0.150600	0.691520
O1051	O105	0.853900	0.560800	0.721870
C1941	C194	0.331700	0.131000	0.678620
H1061	H106	0.261700	0.124200	0.683000
C1951	C195	0.125900	0.979000	0.634110
H1071	H107	0.148100	0.989800	0.620900
C1961	C196	0.855800	0.679100	0.695770
O1061	O106	0.439900	0.314600	0.751980
C1971	C197	0.052900	0.377200	0.625370
H1081	H108	0.066600	0.302800	0.622200
H1091	H109	0.077000	0.422500	0.615000
C1981	C198	0.932700	0.396100	0.629830
H1101	H110	0.893200	0.417500	0.618400
C1991	C199	0.042000	0.501900	0.651490
H1111	H111	0.041000	0.503800	0.665300
H1121	H112	0.070800	0.569100	0.646800
O1071	O107	0.999300	0.535800	0.751230
C2001	C200	0.232300	0.921300	0.661690
H1131	H113	0.225600	0.948100	0.674600
H1141	H114	0.301300	0.886500	0.660100
C2011	C201	0.108000	0.408700	0.644460
H1151	H115	0.181900	0.429800	0.642400
H1161	H116	0.106200	0.349700	0.653400
C2021	C202	0.204800	0.493300	0.751000
C2031	C203	0.108400	0.859500	0.638300
H1171	H117	0.034000	0.840300	0.636200
H1181	H118	0.152800	0.816000	0.630000
C2041	C204	0.182900	0.584400	0.751500
C2051	C205	0.134900	0.844200	0.655990
H1191	H119	0.155800	0.770000	0.657800
H1201	H120	0.073800	0.858800	0.664100
C2061	C206	0.044300	0.608500	0.753700
C2071	C207	0.317900	0.456900	0.750400
C2081	C208	0.342000	0.335900	0.748510
O1081	O108	0.031600	0.712800	0.755130
C2091	C209	0.387100	0.542400	0.751180
C2101	C210	0.261800	0.665600	0.753740
Cu251	Cu25	0.422380	0.311900	0.883240
Cu261	Cu26	0.361550	0.382520	0.917290
Cu271	Cu27	0.336020	0.964800	0.000720
Cu281	Cu28	0.382500	0.767360	0.995290
O1091	O109	0.337100	0.227900	0.921720
O1101	O110	0.221800	0.398000	0.905470
O1111	O111	0.560700	0.301400	0.897780
O1121	O112	0.464900	0.453900	0.875960
O1131	O113	0.379800	0.170900	0.892380
O1141	O114	0.274000	0.349500	0.876190
O1151	O115	0.506900	0.363600	0.926340
O1161	O116	0.993000	0.255300	0.891820
O1171	O117	0.411600	0.517700	0.904580
C2111	C211	0.578600	0.334100	0.914230
C2121	C212	0.354800	0.155300	0.909180
C2131	C213	0.773600	0.338000	0.907520
H1211	H121	0.757800	0.327800	0.894700
N131	N13	0.016800	0.434700	0.893970
C2141	C214	0.368700	0.959000	0.902980
H1221	H122	0.374000	0.974100	0.890100
C2151	C215	0.349100	0.892900	0.962410
C2161	C216	0.880500	0.350700	0.913390
C2171	C217	0.844900	0.361800	0.967040
C2181	C218	0.967800	0.344200	0.898790
C2191	C219	0.904900	0.357800	0.932810
H1231	H123	0.975500	0.363700	0.936900
C2201	C220	0.692100	0.340600	0.920750
C2211	C221	0.458400	0.525700	0.888420
C2221	C222	0.378200	0.853000	0.909450
O1181	O118	0.366000	0.799300	0.967900
O1191	O119	0.330000	0.968300	0.973180
C2231	C223	0.351500	0.040800	0.915850
C2241	C224	0.341000	0.020500	0.935440
H1241	H124	0.328800	0.076000	0.944000
N141	N14	0.493600	0.714900	0.897410
C2251	C225	0.208600	0.388300	0.888090
C2261	C226	0.404400	0.764900	0.894990
C2271	C227	0.715400	0.349800	0.939940
H1251	H125	0.660400	0.351800	0.948800
O1201	O120	0.342600	0.750000	0.881620
O1211	O121	0.217300	0.755200	0.994980
O1221	O122	0.766400	0.377900	0.977410
C2281	C228	0.349400	0.915800	0.941520
O1231	O123	0.939200	0.353900	0.971870
C2291	C229	0.369000	0.831700	0.928620
H1261	H126	0.375800	0.761700	0.933000
C2301	C230	0.521000	0.625900	0.884110
H1271	H127	0.510200	0.648100	0.870900
C2311	C231	0.820900	0.355800	0.945770
O1241	O124	0.185400	0.939900	0.001980
C2321	C232	0.122800	0.552900	0.875370
H1281	H128	0.197200	0.566600	0.872200
H1291	H129	0.077500	0.577000	0.865000
C2331	C233	0.103900	0.432700	0.879830
H1301	H130	0.082500	0.393200	0.868400
C2341	C234	0.998100	0.542000	0.901490
H1311	H131	0.996200	0.541000	0.915300
H1321	H132	0.930900	0.570800	0.896800
O1251	O125	0.964200	0.499300	0.001230
C2351	C235	0.578700	0.732300	0.911690
H1331	H133	0.551900	0.725600	0.924600
H1341	H134	0.613500	0.801300	0.910100
C2361	C236	0.091300	0.608000	0.894460
H1351	H135	0.070200	0.681900	0.892400
H1361	H136	0.150300	0.606200	0.903400
C2371	C237	0.006700	0.704800	0.001000
C2381	C238	0.640500	0.608400	0.888300
H1371	H137	0.659700	0.534000	0.886200
H1381	H138	0.684000	0.652800	0.880000
C2391	C239	0.915600	0.682900	0.001500
C2401	C240	0.655800	0.634900	0.905990
H1391	H139	0.730000	0.655800	0.907800
H1401	H140	0.641200	0.573800	0.914100
C2411	C241	0.891500	0.544300	0.003700
C2421	C242	0.043100	0.817900	0.000400
C2431	C243	0.164100	0.842000	0.998510
O1261	O126	0.787200	0.531600	0.005130
C2441	C244	0.957600	0.887100	0.001180
C2451	C245	0.834400	0.761800	0.003740
Cu291	Cu29	0.577620	0.688100	0.383240
Cu301	Cu30	0.638450	0.617480	0.417290
Cu311	Cu31	0.663980	0.035200	0.500720
Cu321	Cu32	0.617500	0.232640	0.495290
O1271	O127	0.662900	0.772100	0.421720
O1281	O128	0.778200	0.602000	0.405470
O1291	O129	0.439300	0.698600	0.397780
O1301	O130	0.535100	0.546100	0.375960
O1311	O131	0.620200	0.829100	0.392380
O1321	O132	0.726000	0.650500	0.376190
O1331	O133	0.493100	0.636400	0.426340
O1341	O134	0.007000	0.744700	0.391820
O1351	O135	0.588400	0.482300	0.404580
C2461	C246	0.421400	0.665900	0.414230
C2471	C247	0.645200	0.844700	0.409180
C2481	C248	0.226400	0.662000	0.407520
H1411	H141	0.242200	0.672200	0.394700
N151	N15	0.983200	0.565300	0.393970
C2491	C249	0.631300	0.041000	0.402980
H1421	H142	0.626000	0.025900	0.390100
C2501	C250	0.650900	0.107100	0.462410
C2511	C251	0.119500	0.649300	0.413390
C2521	C252	0.155100	0.638200	0.467040
C2531	C253	0.032200	0.655800	0.398790
C2541	C254	0.095100	0.642200	0.432810
H1431	H143	0.024500	0.636300	0.436900
C2551	C255	0.307900	0.659400	0.420750
C2561	C256	0.541600	0.474300	0.388420
C2571	C257	0.621800	0.147000	0.409450
O1361	O136	0.634000	0.200700	0.467900
O1371	O137	0.670000	0.031700	0.473180
C2581	C258	0.648500	0.959200	0.415850
C2591	C259	0.659000	0.979500	0.435440
H1441	H144	0.671200	0.924000	0.444000
N161	N16	0.506400	0.285100	0.397410
C2601	C260	0.791400	0.611700	0.388090
C2611	C261	0.595600	0.235100	0.394990
C2621	C262	0.284600	0.650200	0.439940
H1451	H145	0.339600	0.648200	0.448800
O1381	O138	0.657400	0.250000	0.381620
O1391	O139	0.782700	0.244800	0.494980
O1401	O140	0.233600	0.622100	0.477410
C2631	C263	0.650600	0.084200	0.441520
O1411	O141	0.060800	0.646100	0.471870
C2641	C264	0.631000	0.168300	0.428620
H1461	H146	0.624200	0.238300	0.433000
C2651	C265	0.479000	0.374100	0.384110
H1471	H147	0.489800	0.351900	0.370900
C2661	C266	0.179100	0.644200	0.445770
O1421	O142	0.814600	0.060100	0.501980
C2671	C267	0.877200	0.447100	0.375370
H1481	H148	0.802800	0.433400	0.372200
H1491	H149	0.922500	0.423000	0.365000
C2681	C268	0.896100	0.567300	0.379830
H1501	H150	0.917500	0.606800	0.368400
C2691	C269	0.001900	0.458000	0.401490
H1511	H151	0.003800	0.459000	0.415300
H1521	H152	0.069100	0.429200	0.396800
O1431	O143	0.035800	0.500700	0.501230
C2701	C270	0.421300	0.267700	0.411690
H1531	H153	0.448100	0.274400	0.424600
H1541	H154	0.386500	0.198700	0.410100
C2711	C271	0.908700	0.392000	0.394460
H1551	H155	0.929800	0.318100	0.392400
H1561	H156	0.849700	0.393800	0.403400
C2721	C272	0.993300	0.295200	0.501000
C2731	C273	0.359500	0.391600	0.388300
H1571	H157	0.340300	0.466000	0.386200
H1581	H158	0.316000	0.347200	0.380000
C2741	C274	0.084400	0.317100	0.501500
C2751	C275	0.344200	0.365100	0.405990
H1591	H159	0.270000	0.344200	0.407800
H1601	H160	0.358800	0.426200	0.414100
C2761	C276	0.108500	0.455700	0.503700
C2771	C277	0.956900	0.182100	0.500400
C2781	C278	0.835900	0.158000	0.498510
O1441	O144	0.212800	0.468400	0.505130
C2791	C279	0.042400	0.112900	0.501180
C2801	C280	0.165600	0.238200	0.503740
C2811	C281	0.865400	0.865400	0.000000
C2821	C282	0.134600	0.134600	0.500000
C2831	C283	0.634600	0.365400	0.250000
C2841	C284	0.365400	0.634600	0.750000
