data_HOYREU_clean_PM
_symmetry_space_group_name_H-M	'P1'
_cell_length_a	15.093300
_cell_length_b	15.093300
_cell_length_c	10.058700
_cell_angle_alpha	90.000000
_cell_angle_beta	90.000000
_cell_angle_gamma	90.000000
_symmetry_Int_Tables_number 1

loop_
_symmetry_equiv_pos_as_xyz
'x,y,z'

loop_
_atom_site_label
_atom_site_type_symbol
_atom_site_fract_x
_atom_site_fract_y
_atom_site_fract_z
Li11	Li1	0.444000	0.190600	0.361700
O11	O1	0.390320	0.123060	0.492000
O21	O2	0.333200	0.076300	0.681300
O31	O3	0.088490	0.435460	0.620300
O41	O4	0.070920	0.344790	0.794000
N11	N1	0.209900	0.319200	0.506700
H11	H1	0.196000	0.357000	0.448000
N21	N2	0.272700	0.259500	0.479000
C11	C1	0.334800	0.128900	0.584700
C21	C2	0.269300	0.202100	0.579300
C31	C3	0.204500	0.225100	0.671200
H21	H2	0.189600	0.195100	0.748800
C41	C4	0.167300	0.301600	0.623100
C51	C5	0.103400	0.364800	0.682600
Li21	Li2	0.556000	0.809400	0.361700
O51	O5	0.609680	0.876940	0.492000
O61	O6	0.666800	0.923700	0.681300
O71	O7	0.911510	0.564540	0.620300
O81	O8	0.929080	0.655210	0.794000
N31	N3	0.790100	0.680800	0.506700
H31	H3	0.804000	0.643000	0.448000
N41	N4	0.727300	0.740500	0.479000
C61	C6	0.665200	0.871100	0.584700
C71	C7	0.730700	0.797900	0.579300
C81	C8	0.795500	0.774900	0.671200
H41	H4	0.810400	0.804900	0.748800
C91	C9	0.832700	0.698400	0.623100
C101	C10	0.896600	0.635200	0.682600
Li31	Li3	0.190600	0.556000	0.638300
O91	O9	0.123060	0.609680	0.508000
O101	O10	0.076300	0.666800	0.318700
O111	O11	0.435460	0.911510	0.379700
O121	O12	0.344790	0.929080	0.206000
N51	N5	0.319200	0.790100	0.493300
H51	H5	0.357000	0.804000	0.552000
N61	N6	0.259500	0.727300	0.521000
C111	C11	0.128900	0.665200	0.415300
C121	C12	0.202100	0.730700	0.420700
C131	C13	0.225100	0.795500	0.328800
H61	H6	0.195100	0.810400	0.251200
C141	C14	0.301600	0.832700	0.376900
C151	C15	0.364800	0.896600	0.317400
Li41	Li4	0.809400	0.444000	0.638300
O131	O13	0.876940	0.390320	0.508000
O141	O14	0.923700	0.333200	0.318700
O151	O15	0.564540	0.088490	0.379700
O161	O16	0.655210	0.070920	0.206000
N71	N7	0.680800	0.209900	0.493300
H71	H7	0.643000	0.196000	0.552000
N81	N8	0.740500	0.272700	0.521000
C161	C16	0.871100	0.334800	0.415300
C171	C17	0.797900	0.269300	0.420700
C181	C18	0.774900	0.204500	0.328800
H81	H8	0.804900	0.189600	0.251200
C191	C19	0.698400	0.167300	0.376900
C201	C20	0.635200	0.103400	0.317400
Li51	Li5	0.056000	0.690600	0.138300
O171	O17	0.109680	0.623060	0.008000
O181	O18	0.166800	0.576300	0.818700
O191	O19	0.411510	0.935460	0.879700
O201	O20	0.429080	0.844790	0.706000
N91	N9	0.290100	0.819200	0.993300
H91	H9	0.304000	0.857000	0.052000
N101	N10	0.227300	0.759500	0.021000
C211	C21	0.165200	0.628900	0.915300
C221	C22	0.230700	0.702100	0.920700
C231	C23	0.295500	0.725100	0.828800
H101	H10	0.310400	0.695100	0.751200
C241	C24	0.332700	0.801600	0.876900
C251	C25	0.396600	0.864800	0.817400
Li61	Li6	0.944000	0.309400	0.138300
O211	O21	0.890320	0.376940	0.008000
O221	O22	0.833200	0.423700	0.818700
O231	O23	0.588490	0.064540	0.879700
O241	O24	0.570920	0.155210	0.706000
N111	N11	0.709900	0.180800	0.993300
H111	H11	0.696000	0.143000	0.052000
N121	N12	0.772700	0.240500	0.021000
C261	C26	0.834800	0.371100	0.915300
C271	C27	0.769300	0.297900	0.920700
C281	C28	0.704500	0.274900	0.828800
H121	H12	0.689600	0.304900	0.751200
C291	C29	0.667300	0.198400	0.876900
C301	C30	0.603400	0.135200	0.817400
Li71	Li7	0.309400	0.056000	0.861700
O251	O25	0.376940	0.109680	0.992000
O261	O26	0.423700	0.166800	0.181300
O271	O27	0.064540	0.411510	0.120300
O281	O28	0.155210	0.429080	0.294000
N131	N13	0.180800	0.290100	0.006700
H131	H13	0.143000	0.304000	0.948000
N141	N14	0.240500	0.227300	0.979000
C311	C31	0.371100	0.165200	0.084700
C321	C32	0.297900	0.230700	0.079300
C331	C33	0.274900	0.295500	0.171200
H141	H14	0.304900	0.310400	0.248800
C341	C34	0.198400	0.332700	0.123100
C351	C35	0.135200	0.396600	0.182600
Li81	Li8	0.690600	0.944000	0.861700
O291	O29	0.623060	0.890320	0.992000
O301	O30	0.576300	0.833200	0.181300
O311	O31	0.935460	0.588490	0.120300
O321	O32	0.844790	0.570920	0.294000
N151	N15	0.819200	0.709900	0.006700
H151	H15	0.857000	0.696000	0.948000
N161	N16	0.759500	0.772700	0.979000
C361	C36	0.628900	0.834800	0.084700
C371	C37	0.702100	0.769300	0.079300
C381	C38	0.725100	0.704500	0.171200
H161	H16	0.695100	0.689600	0.248800
C391	C39	0.801600	0.667300	0.123100
C401	C40	0.864800	0.603400	0.182600
Ba11	Ba1	0.500000	0.000000	0.608910
Ba21	Ba2	0.000000	0.500000	0.391090
Ba31	Ba3	0.000000	0.500000	0.891090
Ba41	Ba4	0.500000	0.000000	0.108910
