data_HOYTUL_clean_PM
_symmetry_space_group_name_H-M	'P1'
_cell_length_a	12.902000
_cell_length_b	13.030000
_cell_length_c	13.101000
_cell_angle_alpha	70.260000
_cell_angle_beta	73.030000
_cell_angle_gamma	71.980000
_symmetry_Int_Tables_number 1

loop_
_symmetry_equiv_pos_as_xyz
'x,y,z'

loop_
_atom_site_label
_atom_site_type_symbol
_atom_site_fract_x
_atom_site_fract_y
_atom_site_fract_z
Yb11	Yb1	0.662710	0.657070	0.664370
Na11	Na1	0.683500	0.151800	0.663900
Na21	Na2	0.678400	0.673200	0.153500
Na31	Na3	0.157600	0.651500	0.678900
H11	H1	0.700100	0.899000	0.242700
H21	H2	0.662900	0.076300	0.271000
H31	H3	0.624400	0.090400	0.453400
H41	H4	0.088100	0.441700	0.630500
H51	H5	0.067600	0.260200	0.673500
H61	H6	0.889600	0.229500	0.713200
H71	H7	0.239900	0.700200	0.885500
H81	H8	0.269600	0.669200	0.061300
H91	H9	0.453200	0.630300	0.084200
H101	H10	0.541700	0.316300	0.504800
H111	H11	0.775300	0.023200	0.847200
H121	H12	0.288500	0.608600	0.483700
H131	H13	0.061500	0.494800	0.874100
C11	C1	0.680900	0.815900	0.405400
C21	C2	0.684000	0.907300	0.313800
C31	C3	0.662300	0.012600	0.330900
C41	C4	0.639600	0.021300	0.439400
C51	C5	0.640600	0.923500	0.524900
C61	C6	0.620100	0.923600	0.643900
C71	C7	0.707700	0.696500	0.397100
C81	C8	0.924900	0.515400	0.644100
C91	C9	0.017600	0.428200	0.646200
C101	C10	0.005400	0.320000	0.672000
C111	C11	0.900000	0.301500	0.695400
C121	C12	0.810700	0.393700	0.691500
C131	C13	0.691000	0.386500	0.717200
C141	C14	0.928100	0.635800	0.620100
C151	C15	0.402200	0.680500	0.809000
C161	C16	0.311700	0.684900	0.896700
C171	C17	0.329300	0.666200	0.001200
C181	C18	0.438500	0.642800	0.015000
C191	C19	0.523800	0.638900	0.922500
C201	C20	0.645700	0.616200	0.927800
C211	C21	0.393200	0.706500	0.690900
N11	N1	0.659500	0.824600	0.508700
N21	N2	0.823800	0.498100	0.666000
N31	N3	0.507400	0.656600	0.822900
O11	O1	0.615700	0.828100	0.713900
O21	O2	0.613500	0.009900	0.667600
O31	O3	0.733000	0.679500	0.305600
O41	O4	0.704000	0.621100	0.490500
O51	O5	0.619800	0.479600	0.711800
O61	O6	0.671000	0.292700	0.744800
O71	O7	0.017200	0.659000	0.607400
O81	O8	0.835400	0.706300	0.612800
O91	O9	0.714400	0.604700	0.835400
O101	O10	0.669900	0.609800	0.012500
O111	O11	0.299100	0.733500	0.669000
O121	O12	0.486000	0.702700	0.620300
O131	O13	0.557400	0.295100	0.574700
O141	O14	0.797500	0.030700	0.786900
O151	O15	0.296000	0.571400	0.552000
O161	O16	0.138100	0.493400	0.841200
Yb21	Yb2	0.337290	0.342930	0.335630
Na41	Na4	0.316500	0.848200	0.336100
Na51	Na5	0.321600	0.326800	0.846500
Na61	Na6	0.842400	0.348500	0.321100
H141	H14	0.938500	0.505200	0.125900
H151	H15	0.299900	0.101000	0.757300
H161	H16	0.337100	0.923700	0.729000
H171	H17	0.375600	0.909600	0.546600
H181	H18	0.911900	0.558300	0.369500
H191	H19	0.932400	0.739800	0.326500
H201	H20	0.110400	0.770500	0.286800
H211	H21	0.760100	0.299800	0.114500
H221	H22	0.730400	0.330800	0.938700
H231	H23	0.546800	0.369700	0.915800
H241	H24	0.458300	0.683700	0.495200
H251	H25	0.224700	0.976800	0.152800
H261	H26	0.711500	0.391400	0.516300
C221	C22	0.319100	0.184100	0.594600
C231	C23	0.316000	0.092700	0.686200
C241	C24	0.337700	0.987400	0.669100
C251	C25	0.360400	0.978700	0.560600
C261	C26	0.359400	0.076500	0.475100
C271	C27	0.379900	0.076400	0.356100
C281	C28	0.292300	0.303500	0.602900
C291	C29	0.075100	0.484600	0.355900
C301	C30	0.982400	0.571800	0.353800
C311	C31	0.994600	0.680000	0.328000
C321	C32	0.100000	0.698500	0.304600
C331	C33	0.189300	0.606300	0.308500
C341	C34	0.309000	0.613500	0.282800
C351	C35	0.071900	0.364200	0.379900
C361	C36	0.597800	0.319500	0.191000
C371	C37	0.688300	0.315100	0.103300
C381	C38	0.670700	0.333800	0.998800
C391	C39	0.561500	0.357200	0.985000
C401	C40	0.476200	0.361100	0.077500
C411	C41	0.354300	0.383800	0.072200
C421	C42	0.606800	0.293500	0.309100
N41	N4	0.340500	0.175400	0.491300
N51	N5	0.176200	0.501900	0.334000
N61	N6	0.492600	0.343400	0.177100
O171	O17	0.861900	0.506600	0.158800
O181	O18	0.384300	0.171900	0.286100
O191	O19	0.386500	0.990100	0.332400
O201	O20	0.267000	0.320500	0.694400
O211	O21	0.296000	0.378900	0.509500
O221	O22	0.380200	0.520400	0.288200
O231	O23	0.329000	0.707300	0.255200
O241	O24	0.982800	0.341000	0.392600
O251	O25	0.164600	0.293700	0.387200
O261	O26	0.285600	0.395300	0.164600
O271	O27	0.330100	0.390200	0.987500
O281	O28	0.700900	0.266500	0.331000
O291	O29	0.514000	0.297300	0.379700
O301	O30	0.442600	0.704900	0.425300
O311	O31	0.202500	0.969300	0.213100
O321	O32	0.704000	0.428600	0.448000
