data_HOZDIL_clean_PM
_symmetry_space_group_name_H-M	'P1'
_cell_length_a	38.186100
_cell_length_b	5.004200
_cell_length_c	8.381000
_cell_angle_alpha	90.000000
_cell_angle_beta	102.535000
_cell_angle_gamma	90.000000
_symmetry_Int_Tables_number 1

loop_
_symmetry_equiv_pos_as_xyz
'x,y,z'

loop_
_atom_site_label
_atom_site_type_symbol
_atom_site_fract_x
_atom_site_fract_y
_atom_site_fract_z
O11	O1	0.357780	0.751000	0.204500
O21	O2	0.165590	0.246200	0.313600
O31	O3	0.404970	0.763400	0.046300
O41	O4	0.857780	0.251000	0.204500
O51	O5	0.665590	0.746200	0.313600
O61	O6	0.904970	0.263400	0.046300
O71	O7	0.642220	0.751000	0.795500
O81	O8	0.834410	0.246200	0.686400
O91	O9	0.595030	0.763400	0.953700
O101	O10	0.142220	0.251000	0.795500
O111	O11	0.334410	0.746200	0.686400
O121	O12	0.095030	0.263400	0.953700
O131	O13	0.642220	0.249000	0.795500
O141	O14	0.834410	0.753800	0.686400
O151	O15	0.595030	0.236600	0.953700
O161	O16	0.142220	0.749000	0.795500
O171	O17	0.334410	0.253800	0.686400
O181	O18	0.095030	0.736600	0.953700
O191	O19	0.357780	0.249000	0.204500
O201	O20	0.165590	0.753800	0.313600
O211	O21	0.404970	0.236600	0.046300
O221	O22	0.857780	0.749000	0.204500
O231	O23	0.665590	0.253800	0.313600
O241	O24	0.904970	0.736600	0.046300
Al11	Al1	0.107990	0.000000	0.845800
P11	P1	0.347110	0.000000	0.287800
O251	O25	0.365840	0.000000	0.463700
O261	O26	0.156390	0.000000	0.045700
P21	P2	0.176150	0.000000	0.231300
Al21	Al2	0.362480	0.000000	0.645300
P31	P3	0.416140	0.000000	0.958100
O271	O27	0.398640	0.000000	0.777800
C11	C1	0.298550	0.000000	0.271700
C21	C2	0.275480	0.000000	0.119600
C31	C3	0.238430	0.000000	0.107300
C41	C4	0.224770	0.000000	0.247400
C51	C5	0.247840	0.000000	0.399600
C61	C6	0.284890	0.000000	0.411800
C71	C7	0.463140	0.000000	0.982400
C81	C8	0.478290	0.000000	0.845690
C91	C9	0.484650	0.000000	0.135100
H11	H1	0.284960	0.000000	0.022420
H21	H2	0.222420	0.000000	0.001750
H31	H3	0.238370	0.000000	0.496710
H41	H4	0.300890	0.000000	0.517370
H51	H5	0.463130	0.000000	0.738100
H61	H6	0.474200	0.000000	0.229490
Al31	Al3	0.607990	0.500000	0.845800
P41	P4	0.847110	0.500000	0.287800
O281	O28	0.865840	0.500000	0.463700
O291	O29	0.656390	0.500000	0.045700
P51	P5	0.676150	0.500000	0.231300
Al41	Al4	0.862480	0.500000	0.645300
P61	P6	0.916140	0.500000	0.958100
O301	O30	0.898640	0.500000	0.777800
C101	C10	0.798550	0.500000	0.271700
C111	C11	0.775480	0.500000	0.119600
C121	C12	0.738430	0.500000	0.107300
C131	C13	0.724770	0.500000	0.247400
C141	C14	0.747840	0.500000	0.399600
C151	C15	0.784890	0.500000	0.411800
C161	C16	0.963140	0.500000	0.982400
C171	C17	0.978290	0.500000	0.845690
C181	C18	0.984650	0.500000	0.135100
H71	H7	0.784960	0.500000	0.022420
H81	H8	0.722420	0.500000	0.001750
H91	H9	0.738370	0.500000	0.496710
H101	H10	0.800890	0.500000	0.517370
H111	H11	0.963130	0.500000	0.738100
H121	H12	0.974200	0.500000	0.229490
Al51	Al5	0.892010	0.000000	0.154200
P71	P7	0.652890	0.000000	0.712200
O311	O31	0.634160	0.000000	0.536300
O321	O32	0.843610	0.000000	0.954300
P81	P8	0.823850	0.000000	0.768700
Al61	Al6	0.637520	0.000000	0.354700
P91	P9	0.583860	0.000000	0.041900
O331	O33	0.601360	0.000000	0.222200
C191	C19	0.701450	0.000000	0.728300
C201	C20	0.724520	0.000000	0.880400
C211	C21	0.761570	0.000000	0.892700
C221	C22	0.775230	0.000000	0.752600
C231	C23	0.752160	0.000000	0.600400
C241	C24	0.715110	0.000000	0.588200
C251	C25	0.536860	0.000000	0.017600
C261	C26	0.521710	0.000000	0.154310
C271	C27	0.515350	0.000000	0.864900
H131	H13	0.715040	0.000000	0.977580
H141	H14	0.777580	0.000000	0.998250
H151	H15	0.761630	0.000000	0.503290
H161	H16	0.699110	0.000000	0.482630
H171	H17	0.536870	0.000000	0.261900
H181	H18	0.525800	0.000000	0.770510
Al71	Al7	0.392010	0.500000	0.154200
P101	P10	0.152890	0.500000	0.712200
O341	O34	0.134160	0.500000	0.536300
O351	O35	0.343610	0.500000	0.954300
P111	P11	0.323850	0.500000	0.768700
Al81	Al8	0.137520	0.500000	0.354700
P121	P12	0.083860	0.500000	0.041900
O361	O36	0.101360	0.500000	0.222200
C281	C28	0.201450	0.500000	0.728300
C291	C29	0.224520	0.500000	0.880400
C301	C30	0.261570	0.500000	0.892700
C311	C31	0.275230	0.500000	0.752600
C321	C32	0.252160	0.500000	0.600400
C331	C33	0.215110	0.500000	0.588200
C341	C34	0.036860	0.500000	0.017600
C351	C35	0.021710	0.500000	0.154310
C361	C36	0.015350	0.500000	0.864900
H191	H19	0.215040	0.500000	0.977580
H201	H20	0.277580	0.500000	0.998250
H211	H21	0.261630	0.500000	0.503290
H221	H22	0.199110	0.500000	0.482630
H231	H23	0.036870	0.500000	0.261900
H241	H24	0.025800	0.500000	0.770510
