data_HOZXEB_clean_PM
_symmetry_space_group_name_H-M	'P1'
_cell_length_a	13.491000
_cell_length_b	36.221000
_cell_length_c	13.779000
_cell_angle_alpha	90.000000
_cell_angle_beta	100.794000
_cell_angle_gamma	90.000000
_symmetry_Int_Tables_number 1

loop_
_symmetry_equiv_pos_as_xyz
'x,y,z'

loop_
_atom_site_label
_atom_site_type_symbol
_atom_site_fract_x
_atom_site_fract_y
_atom_site_fract_z
Cd11	Cd1	0.350790	0.150500	0.005190
Cd21	Cd2	0.207380	0.091580	0.793870
Cd31	Cd3	0.400750	0.052590	0.616800
Cd41	Cd4	0.989650	0.147600	0.636910
Cl11	Cl1	0.238300	0.092600	0.984900
Cl21	Cl2	0.011300	0.088800	0.759500
Cl31	Cl3	0.262100	0.191800	0.116100
N11	N1	0.253800	0.085000	0.562400
N21	N2	0.200700	0.101500	0.620300
N31	N3	0.120700	0.118200	0.572800
N41	N4	0.124700	0.114600	0.476300
C11	C1	0.206700	0.092600	0.471300
N51	N5	0.236100	0.081500	0.385100
H11	H1	0.289700	0.068400	0.387700
H21	H2	0.200900	0.087700	0.328900
N61	N6	0.113700	0.177900	0.744700
N71	N7	0.184000	0.156200	0.801500
N81	N8	0.235300	0.177200	0.871600
N91	N9	0.197600	0.210800	0.865800
C21	C2	0.122800	0.211200	0.788800
N101	N10	0.065400	0.240700	0.752900
H31	H3	0.076200	0.261900	0.781000
H41	H4	0.018100	0.238200	0.701900
N111	N11	0.419300	0.238600	0.995000
N121	N12	0.453300	0.203200	0.995100
H51	H5	0.444200	0.309600	0.996500
N131	N13	0.527800	0.128700	0.867200
N141	N14	0.430600	0.123300	0.884100
N151	N15	0.383400	0.104300	0.807800
N161	N16	0.446400	0.096200	0.745200
C31	C3	0.532700	0.112400	0.787200
N171	N17	0.616900	0.113300	0.741000
H61	H6	0.669600	0.125700	0.767200
H71	H7	0.615800	0.101600	0.686500
N181	N18	0.235000	0.029900	0.775800
N191	N19	0.306200	0.018200	0.723900
H81	H8	0.110000	0.020500	0.882200
Cd51	Cd5	0.850790	0.650500	0.005190
Cd61	Cd6	0.707380	0.591580	0.793870
Cd71	Cd7	0.900750	0.552590	0.616800
Cd81	Cd8	0.489650	0.647600	0.636910
Cl41	Cl4	0.738300	0.592600	0.984900
Cl51	Cl5	0.511300	0.588800	0.759500
Cl61	Cl6	0.762100	0.691800	0.116100
N201	N20	0.753800	0.585000	0.562400
N211	N21	0.700700	0.601500	0.620300
N221	N22	0.620700	0.618200	0.572800
N231	N23	0.624700	0.614600	0.476300
C41	C4	0.706700	0.592600	0.471300
N241	N24	0.736100	0.581500	0.385100
H91	H9	0.789700	0.568400	0.387700
H101	H10	0.700900	0.587700	0.328900
N251	N25	0.613700	0.677900	0.744700
N261	N26	0.684000	0.656200	0.801500
N271	N27	0.735300	0.677200	0.871600
N281	N28	0.697600	0.710800	0.865800
C51	C5	0.622800	0.711200	0.788800
N291	N29	0.565400	0.740700	0.752900
H111	H11	0.576200	0.761900	0.781000
H121	H12	0.518100	0.738200	0.701900
N301	N30	0.919300	0.738600	0.995000
N311	N31	0.953300	0.703200	0.995100
H131	H13	0.944200	0.809600	0.996500
N321	N32	0.027800	0.628700	0.867200
N331	N33	0.930600	0.623300	0.884100
N341	N34	0.883400	0.604300	0.807800
N351	N35	0.946400	0.596200	0.745200
C61	C6	0.032700	0.612400	0.787200
N361	N36	0.116900	0.613300	0.741000
H141	H14	0.169600	0.625700	0.767200
H151	H15	0.115800	0.601600	0.686500
N371	N37	0.735000	0.529900	0.775800
N381	N38	0.806200	0.518200	0.723900
H161	H16	0.610000	0.520500	0.882200
Cd91	Cd9	0.649210	0.150500	0.994810
Cd101	Cd10	0.792620	0.091580	0.206130
Cd111	Cd11	0.599250	0.052590	0.383200
Cd121	Cd12	0.010350	0.147600	0.363090
Cl71	Cl7	0.761700	0.092600	0.015100
Cl81	Cl8	0.988700	0.088800	0.240500
Cl91	Cl9	0.737900	0.191800	0.883900
N391	N39	0.746200	0.085000	0.437600
N401	N40	0.799300	0.101500	0.379700
N411	N41	0.879300	0.118200	0.427200
N421	N42	0.875300	0.114600	0.523700
C71	C7	0.793300	0.092600	0.528700
N431	N43	0.763900	0.081500	0.614900
H171	H17	0.710300	0.068400	0.612300
H181	H18	0.799100	0.087700	0.671100
N441	N44	0.886300	0.177900	0.255300
N451	N45	0.816000	0.156200	0.198500
N461	N46	0.764700	0.177200	0.128400
N471	N47	0.802400	0.210800	0.134200
C81	C8	0.877200	0.211200	0.211200
N481	N48	0.934600	0.240700	0.247100
H191	H19	0.923800	0.261900	0.219000
H201	H20	0.981900	0.238200	0.298100
N491	N49	0.580700	0.238600	0.005000
N501	N50	0.546700	0.203200	0.004900
H211	H21	0.555800	0.309600	0.003500
N511	N51	0.472200	0.128700	0.132800
N521	N52	0.569400	0.123300	0.115900
N531	N53	0.616600	0.104300	0.192200
N541	N54	0.553600	0.096200	0.254800
C91	C9	0.467300	0.112400	0.212800
N551	N55	0.383100	0.113300	0.259000
H221	H22	0.330400	0.125700	0.232800
H231	H23	0.384200	0.101600	0.313500
N561	N56	0.765000	0.029900	0.224200
N571	N57	0.693800	0.018200	0.276100
H241	H24	0.890000	0.020500	0.117800
Cd131	Cd13	0.149210	0.650500	0.994810
Cd141	Cd14	0.292620	0.591580	0.206130
Cd151	Cd15	0.099250	0.552590	0.383200
Cd161	Cd16	0.510350	0.647600	0.363090
Cl101	Cl10	0.261700	0.592600	0.015100
Cl111	Cl11	0.488700	0.588800	0.240500
Cl121	Cl12	0.237900	0.691800	0.883900
N581	N58	0.246200	0.585000	0.437600
N591	N59	0.299300	0.601500	0.379700
N601	N60	0.379300	0.618200	0.427200
N611	N61	0.375300	0.614600	0.523700
C101	C10	0.293300	0.592600	0.528700
N621	N62	0.263900	0.581500	0.614900
H251	H25	0.210300	0.568400	0.612300
H261	H26	0.299100	0.587700	0.671100
N631	N63	0.386300	0.677900	0.255300
N641	N64	0.316000	0.656200	0.198500
N651	N65	0.264700	0.677200	0.128400
N661	N66	0.302400	0.710800	0.134200
C111	C11	0.377200	0.711200	0.211200
N671	N67	0.434600	0.740700	0.247100
H271	H27	0.423800	0.761900	0.219000
H281	H28	0.481900	0.738200	0.298100
N681	N68	0.080700	0.738600	0.005000
N691	N69	0.046700	0.703200	0.004900
H291	H29	0.055800	0.809600	0.003500
N701	N70	0.972200	0.628700	0.132800
N711	N71	0.069400	0.623300	0.115900
N721	N72	0.116600	0.604300	0.192200
N731	N73	0.053600	0.596200	0.254800
C121	C12	0.967300	0.612400	0.212800
N741	N74	0.883100	0.613300	0.259000
H301	H30	0.830400	0.625700	0.232800
H311	H31	0.884200	0.601600	0.313500
N751	N75	0.265000	0.529900	0.224200
N761	N76	0.193800	0.518200	0.276100
H321	H32	0.390000	0.520500	0.117800
Cd171	Cd17	0.649210	0.849500	0.994810
Cd181	Cd18	0.792620	0.908420	0.206130
Cd191	Cd19	0.599250	0.947410	0.383200
Cd201	Cd20	0.010350	0.852400	0.363090
Cl131	Cl13	0.761700	0.907400	0.015100
Cl141	Cl14	0.988700	0.911200	0.240500
Cl151	Cl15	0.737900	0.808200	0.883900
N771	N77	0.746200	0.915000	0.437600
N781	N78	0.799300	0.898500	0.379700
N791	N79	0.879300	0.881800	0.427200
N801	N80	0.875300	0.885400	0.523700
C131	C13	0.793300	0.907400	0.528700
N811	N81	0.763900	0.918500	0.614900
H331	H33	0.710300	0.931600	0.612300
H341	H34	0.799100	0.912300	0.671100
N821	N82	0.886300	0.822100	0.255300
N831	N83	0.816000	0.843800	0.198500
N841	N84	0.764700	0.822800	0.128400
N851	N85	0.802400	0.789200	0.134200
C141	C14	0.877200	0.788800	0.211200
N861	N86	0.934600	0.759300	0.247100
H351	H35	0.923800	0.738100	0.219000
H361	H36	0.981900	0.761800	0.298100
N871	N87	0.580700	0.761400	0.005000
N881	N88	0.546700	0.796800	0.004900
H371	H37	0.555800	0.690400	0.003500
N891	N89	0.472200	0.871300	0.132800
N901	N90	0.569400	0.876700	0.115900
N911	N91	0.616600	0.895700	0.192200
N921	N92	0.553600	0.903800	0.254800
C151	C15	0.467300	0.887600	0.212800
N931	N93	0.383100	0.886700	0.259000
H381	H38	0.330400	0.874300	0.232800
H391	H39	0.384200	0.898400	0.313500
N941	N94	0.765000	0.970100	0.224200
N951	N95	0.693800	0.981800	0.276100
H401	H40	0.890000	0.979500	0.117800
Cd211	Cd21	0.149210	0.349500	0.994810
Cd221	Cd22	0.292620	0.408420	0.206130
Cd231	Cd23	0.099250	0.447410	0.383200
Cd241	Cd24	0.510350	0.352400	0.363090
Cl161	Cl16	0.261700	0.407400	0.015100
Cl171	Cl17	0.488700	0.411200	0.240500
Cl181	Cl18	0.237900	0.308200	0.883900
N961	N96	0.246200	0.415000	0.437600
N971	N97	0.299300	0.398500	0.379700
N981	N98	0.379300	0.381800	0.427200
N991	N99	0.375300	0.385400	0.523700
C161	C16	0.293300	0.407400	0.528700
N1001	N100	0.263900	0.418500	0.614900
H411	H41	0.210300	0.431600	0.612300
H421	H42	0.299100	0.412300	0.671100
N1011	N101	0.386300	0.322100	0.255300
N1021	N102	0.316000	0.343800	0.198500
N1031	N103	0.264700	0.322800	0.128400
N1041	N104	0.302400	0.289200	0.134200
C171	C17	0.377200	0.288800	0.211200
N1051	N105	0.434600	0.259300	0.247100
H431	H43	0.423800	0.238100	0.219000
H441	H44	0.481900	0.261800	0.298100
N1061	N106	0.080700	0.261400	0.005000
N1071	N107	0.046700	0.296800	0.004900
H451	H45	0.055800	0.190400	0.003500
N1081	N108	0.972200	0.371300	0.132800
N1091	N109	0.069400	0.376700	0.115900
N1101	N110	0.116600	0.395700	0.192200
N1111	N111	0.053600	0.403800	0.254800
C181	C18	0.967300	0.387600	0.212800
N1121	N112	0.883100	0.386700	0.259000
H461	H46	0.830400	0.374300	0.232800
H471	H47	0.884200	0.398400	0.313500
N1131	N113	0.265000	0.470100	0.224200
N1141	N114	0.193800	0.481800	0.276100
H481	H48	0.390000	0.479500	0.117800
Cd251	Cd25	0.350790	0.849500	0.005190
Cd261	Cd26	0.207380	0.908420	0.793870
Cd271	Cd27	0.400750	0.947410	0.616800
Cd281	Cd28	0.989650	0.852400	0.636910
Cl191	Cl19	0.238300	0.907400	0.984900
Cl201	Cl20	0.011300	0.911200	0.759500
Cl211	Cl21	0.262100	0.808200	0.116100
N1151	N115	0.253800	0.915000	0.562400
N1161	N116	0.200700	0.898500	0.620300
N1171	N117	0.120700	0.881800	0.572800
N1181	N118	0.124700	0.885400	0.476300
C191	C19	0.206700	0.907400	0.471300
N1191	N119	0.236100	0.918500	0.385100
H491	H49	0.289700	0.931600	0.387700
H501	H50	0.200900	0.912300	0.328900
N1201	N120	0.113700	0.822100	0.744700
N1211	N121	0.184000	0.843800	0.801500
N1221	N122	0.235300	0.822800	0.871600
N1231	N123	0.197600	0.789200	0.865800
C201	C20	0.122800	0.788800	0.788800
N1241	N124	0.065400	0.759300	0.752900
H511	H51	0.076200	0.738100	0.781000
H521	H52	0.018100	0.761800	0.701900
N1251	N125	0.419300	0.761400	0.995000
N1261	N126	0.453300	0.796800	0.995100
H531	H53	0.444200	0.690400	0.996500
N1271	N127	0.527800	0.871300	0.867200
N1281	N128	0.430600	0.876700	0.884100
N1291	N129	0.383400	0.895700	0.807800
N1301	N130	0.446400	0.903800	0.745200
C211	C21	0.532700	0.887600	0.787200
N1311	N131	0.616900	0.886700	0.741000
H541	H54	0.669600	0.874300	0.767200
H551	H55	0.615800	0.898400	0.686500
N1321	N132	0.235000	0.970100	0.775800
N1331	N133	0.306200	0.981800	0.723900
H561	H56	0.110000	0.979500	0.882200
Cd291	Cd29	0.850790	0.349500	0.005190
Cd301	Cd30	0.707380	0.408420	0.793870
Cd311	Cd31	0.900750	0.447410	0.616800
Cd321	Cd32	0.489650	0.352400	0.636910
Cl221	Cl22	0.738300	0.407400	0.984900
Cl231	Cl23	0.511300	0.411200	0.759500
Cl241	Cl24	0.762100	0.308200	0.116100
N1341	N134	0.753800	0.415000	0.562400
N1351	N135	0.700700	0.398500	0.620300
N1361	N136	0.620700	0.381800	0.572800
N1371	N137	0.624700	0.385400	0.476300
C221	C22	0.706700	0.407400	0.471300
N1381	N138	0.736100	0.418500	0.385100
H571	H57	0.789700	0.431600	0.387700
H581	H58	0.700900	0.412300	0.328900
N1391	N139	0.613700	0.322100	0.744700
N1401	N140	0.684000	0.343800	0.801500
N1411	N141	0.735300	0.322800	0.871600
N1421	N142	0.697600	0.289200	0.865800
C231	C23	0.622800	0.288800	0.788800
N1431	N143	0.565400	0.259300	0.752900
H591	H59	0.576200	0.238100	0.781000
H601	H60	0.518100	0.261800	0.701900
N1441	N144	0.919300	0.261400	0.995000
N1451	N145	0.953300	0.296800	0.995100
H611	H61	0.944200	0.190400	0.996500
N1461	N146	0.027800	0.371300	0.867200
N1471	N147	0.930600	0.376700	0.884100
N1481	N148	0.883400	0.395700	0.807800
N1491	N149	0.946400	0.403800	0.745200
C241	C24	0.032700	0.387600	0.787200
N1501	N150	0.116900	0.386700	0.741000
H621	H62	0.169600	0.374300	0.767200
H631	H63	0.115800	0.398400	0.686500
N1511	N151	0.735000	0.470100	0.775800
N1521	N152	0.806200	0.481800	0.723900
H641	H64	0.610000	0.479500	0.882200
Cd331	Cd33	0.250000	0.250000	0.000000
Cd341	Cd34	0.750000	0.250000	0.000000
Cd351	Cd35	0.750000	0.750000	0.000000
Cd361	Cd36	0.250000	0.750000	0.000000
Cl251	Cl25	0.500000	0.088630	0.500000
Cl261	Cl26	0.000000	0.588630	0.500000
Cl271	Cl27	0.500000	0.911370	0.500000
Cl281	Cl28	0.000000	0.411370	0.500000
Cl291	Cl29	0.341100	0.000000	0.491500
C251	C25	0.195000	0.000000	0.804000
N1531	N153	0.127000	0.000000	0.862000
Cl301	Cl30	0.841100	0.500000	0.491500
C261	C26	0.695000	0.500000	0.804000
N1541	N154	0.627000	0.500000	0.862000
Cl311	Cl31	0.658900	0.000000	0.508500
C271	C27	0.805000	0.000000	0.196000
N1551	N155	0.873000	0.000000	0.138000
Cl321	Cl32	0.158900	0.500000	0.508500
C281	C28	0.305000	0.500000	0.196000
N1561	N156	0.373000	0.500000	0.138000
Cl331	Cl33	0.000000	0.197980	0.500000
Cl341	Cl34	0.500000	0.697980	0.500000
Cl351	Cl35	0.000000	0.802020	0.500000
Cl361	Cl36	0.500000	0.302020	0.500000
C291	C29	0.500000	0.260700	0.000000
N1571	N157	0.500000	0.297800	0.000000
C301	C30	0.000000	0.760700	0.000000
N1581	N158	0.000000	0.797800	0.000000
C311	C31	0.500000	0.739300	0.000000
N1591	N159	0.500000	0.702200	0.000000
C321	C32	0.000000	0.239300	0.000000
N1601	N160	0.000000	0.202200	0.000000
