data_HUCBAJ_charged_PM
_symmetry_space_group_name_H-M	'P1'
_cell_length_a	9.758900
_cell_length_b	18.931900
_cell_length_c	19.652500
_cell_angle_alpha	103.092000
_cell_angle_beta	90.000000
_cell_angle_gamma	104.936000
_symmetry_Int_Tables_number 1

loop_
_symmetry_equiv_pos_as_xyz
'x,y,z'

loop_
_atom_site_label
_atom_site_type_symbol
_atom_site_fract_x
_atom_site_fract_y
_atom_site_fract_z
Li11	Li1	0.544400	0.960800	0.690700
Li21	Li2	0.583600	0.039200	0.809300
Li31	Li3	0.455600	0.039200	0.309300
Li41	Li4	0.416400	0.960800	0.190700
In11	In1	0.455300	0.787050	0.611960
In21	In2	0.668250	0.212950	0.888040
In31	In3	0.544700	0.212950	0.388040
In41	In4	0.331750	0.787050	0.111960
H11	H1	0.357400	0.590400	0.720400
H21	H2	0.387700	0.784600	0.865000
H31	H3	0.262600	0.586000	0.918600
H41	H4	0.381100	0.353800	0.700200
H51	H5	0.434300	0.483200	0.733800
H61	H6	0.097100	0.469800	0.853000
H71	H7	0.043400	0.340200	0.821000
H81	H8	0.313800	0.110200	0.691900
H91	H9	0.367900	0.238400	0.732900
H101	H10	0.954400	0.232200	0.727100
H111	H11	0.898600	0.103400	0.692100
H121	H12	0.265100	0.995200	0.657900
H131	H13	0.962400	0.795400	0.612400
H141	H14	0.850100	0.989400	0.662900
H151	H15	0.767000	0.409600	0.779600
H161	H16	0.603100	0.215400	0.635000
H171	H17	0.676600	0.414000	0.581400
H181	H18	0.027300	0.646200	0.799800
H191	H19	0.951100	0.516800	0.766200
H201	H20	0.627300	0.530200	0.647000
H211	H21	0.703200	0.659800	0.679000
H221	H22	0.203600	0.889800	0.808100
H231	H23	0.129500	0.761600	0.767100
H241	H24	0.722200	0.767800	0.772900
H251	H25	0.795200	0.896600	0.807900
H261	H26	0.269900	0.004800	0.842100
H271	H27	0.167000	0.204600	0.887600
H281	H28	0.860700	0.010600	0.837100
H291	H29	0.642600	0.409600	0.279600
H301	H30	0.612300	0.215400	0.135000
H311	H31	0.737400	0.414000	0.081400
H321	H32	0.618900	0.646200	0.299800
H331	H33	0.565700	0.516800	0.266200
H341	H34	0.902900	0.530200	0.147000
H351	H35	0.956600	0.659800	0.179000
H361	H36	0.686200	0.889800	0.308100
H371	H37	0.632100	0.761600	0.267100
H381	H38	0.045600	0.767800	0.272900
H391	H39	0.101400	0.896600	0.307900
H401	H40	0.734900	0.004800	0.342100
H411	H41	0.037600	0.204600	0.387600
H421	H42	0.149900	0.010600	0.337100
H431	H43	0.233000	0.590400	0.220400
H441	H44	0.396900	0.784600	0.365000
H451	H45	0.323400	0.586000	0.418600
H461	H46	0.972700	0.353800	0.200200
H471	H47	0.048900	0.483200	0.233800
H481	H48	0.372700	0.469800	0.353000
H491	H49	0.296800	0.340200	0.321000
H501	H50	0.796400	0.110200	0.191900
H511	H51	0.870500	0.238400	0.232900
H521	H52	0.277800	0.232200	0.227100
H531	H53	0.204800	0.103400	0.192100
H541	H54	0.730100	0.995200	0.157900
H551	H55	0.833000	0.795400	0.112400
H561	H56	0.139300	0.989400	0.162900
C11	C1	0.415100	0.735200	0.727000
C21	C2	0.319900	0.729000	0.976700
C31	C3	0.346800	0.616000	0.766900
C41	C4	0.376000	0.693600	0.783500
C51	C5	0.365900	0.731200	0.852300
C61	C6	0.324200	0.690600	0.902000
C71	C7	0.292300	0.613200	0.883700
C81	C8	0.301900	0.573800	0.816400
C91	C9	0.322600	0.377200	0.731300
C101	C10	0.354100	0.454000	0.751400
C111	C11	0.270800	0.490600	0.797200
C121	C12	0.155300	0.446200	0.821900
C131	C13	0.122700	0.369000	0.802500
C141	C14	0.204700	0.332400	0.756100
C151	C15	0.239500	0.134400	0.700200
C161	C16	0.271000	0.210800	0.723300
C171	C17	0.169000	0.250200	0.733300
C181	C18	0.028500	0.207600	0.720800
C191	C19	0.995800	0.131000	0.699700
C201	C20	0.097900	0.092000	0.689000
C211	C21	0.062900	0.007800	0.665100
C221	C22	0.167800	0.968200	0.653400
C231	C23	0.130700	0.890000	0.635300
C241	C24	0.987600	0.848800	0.625600
C251	C25	0.885100	0.886800	0.635400
C261	C26	0.923400	0.964400	0.655400
C271	C27	0.245700	0.850800	0.625900
C281	C28	0.732400	0.845000	0.626800
C291	C29	0.679900	0.264800	0.773000
C301	C30	0.590900	0.271000	0.523300
C311	C31	0.730800	0.384000	0.733100
C321	C32	0.682400	0.306400	0.716500
C331	C33	0.634700	0.268800	0.647700
C341	C34	0.633600	0.309400	0.598000
C351	C35	0.679100	0.386800	0.616300
C361	C36	0.728100	0.426200	0.683600
C371	C37	0.945400	0.622800	0.768700
C381	C38	0.900100	0.546000	0.748600
C391	C39	0.780200	0.509400	0.702800
C401	C40	0.709100	0.553800	0.678100
C411	C41	0.753700	0.631000	0.697500
C421	C42	0.872300	0.667600	0.743900
C431	C43	0.105100	0.865600	0.799800
C441	C44	0.060200	0.789200	0.776700
C451	C45	0.918800	0.749800	0.766700
C461	C46	0.820900	0.792400	0.779200
C471	C47	0.864800	0.869000	0.800300
C481	C48	0.005900	0.908000	0.811000
C491	C49	0.055100	0.992200	0.834900
C501	C50	0.199600	0.031800	0.846600
C511	C51	0.240700	0.110000	0.864700
C521	C52	0.138800	0.151200	0.874400
C531	C53	0.998300	0.113200	0.864600
C541	C54	0.959000	0.035600	0.844600
C551	C55	0.394900	0.149200	0.874100
C561	C56	0.887400	0.155000	0.873200
C571	C57	0.584900	0.264800	0.273000
C581	C58	0.680100	0.271000	0.023300
C591	C59	0.653200	0.384000	0.233100
C601	C60	0.624000	0.306400	0.216500
C611	C61	0.634100	0.268800	0.147700
C621	C62	0.675800	0.309400	0.098000
C631	C63	0.707700	0.386800	0.116300
C641	C64	0.698100	0.426200	0.183600
C651	C65	0.677400	0.622800	0.268700
C661	C66	0.645900	0.546000	0.248600
C671	C67	0.729200	0.509400	0.202800
C681	C68	0.844700	0.553800	0.178100
C691	C69	0.877300	0.631000	0.197500
C701	C70	0.795300	0.667600	0.243900
C711	C71	0.760500	0.865600	0.299800
C721	C72	0.729000	0.789200	0.276700
C731	C73	0.831000	0.749800	0.266700
C741	C74	0.971500	0.792400	0.279200
C751	C75	0.004200	0.869000	0.300300
C761	C76	0.902100	0.908000	0.311000
C771	C77	0.937100	0.992200	0.334900
C781	C78	0.832200	0.031800	0.346600
C791	C79	0.869300	0.110000	0.364700
C801	C80	0.012400	0.151200	0.374400
C811	C81	0.114900	0.113200	0.364600
C821	C82	0.076600	0.035600	0.344600
C831	C83	0.754300	0.149200	0.374100
C841	C84	0.267600	0.155000	0.373200
C851	C85	0.320100	0.735200	0.227000
C861	C86	0.409100	0.729000	0.476700
C871	C87	0.269200	0.616000	0.266900
C881	C88	0.317600	0.693600	0.283500
C891	C89	0.365300	0.731200	0.352300
C901	C90	0.366400	0.690600	0.402000
C911	C91	0.320900	0.613200	0.383700
C921	C92	0.271900	0.573800	0.316400
C931	C93	0.054600	0.377200	0.231300
C941	C94	0.099900	0.454000	0.251400
C951	C95	0.219800	0.490600	0.297200
C961	C96	0.290900	0.446200	0.321900
C971	C97	0.246300	0.369000	0.302500
C981	C98	0.127700	0.332400	0.256100
C991	C99	0.894900	0.134400	0.200200
C1001	C100	0.939800	0.210800	0.223300
C1011	C101	0.081200	0.250200	0.233300
C1021	C102	0.179100	0.207600	0.220800
C1031	C103	0.135200	0.131000	0.199700
C1041	C104	0.994100	0.092000	0.189000
C1051	C105	0.944900	0.007800	0.165100
C1061	C106	0.800400	0.968200	0.153400
C1071	C107	0.759300	0.890000	0.135300
C1081	C108	0.861200	0.848800	0.125600
C1091	C109	0.001700	0.886800	0.135400
C1101	C110	0.041000	0.964400	0.155400
C1111	C111	0.605100	0.850800	0.125900
C1121	C112	0.112600	0.845000	0.126800
O11	O1	0.691630	0.777260	0.606100
O21	O2	0.641400	0.880600	0.639000
O31	O3	0.372470	0.890340	0.636000
O41	O4	0.220150	0.780300	0.609600
O51	O5	0.351800	0.799600	0.996800
O61	O6	0.287580	0.688760	0.021700
O71	O7	0.440770	0.805140	0.739800
O81	O8	0.416120	0.696640	0.665700
O91	O9	0.589600	0.031200	0.714300
O101	O10	0.914370	0.222740	0.893900
O111	O11	0.760800	0.119400	0.861000
O121	O12	0.482130	0.109660	0.864000
O131	O13	0.439850	0.219700	0.890400
O141	O14	0.552200	0.200400	0.503200
O151	O15	0.598820	0.311240	0.478300
O161	O16	0.635630	0.194860	0.760200
O171	O17	0.719480	0.303360	0.834300
O181	O18	0.558400	0.968800	0.785700
O191	O19	0.308370	0.222740	0.393900
O201	O20	0.358600	0.119400	0.361000
O211	O21	0.627530	0.109660	0.364000
O221	O22	0.779850	0.219700	0.390400
O231	O23	0.648200	0.200400	0.003200
O241	O24	0.712420	0.311240	0.978300
O251	O25	0.559230	0.194860	0.260200
O261	O26	0.583880	0.303360	0.334300
O271	O27	0.410400	0.968800	0.285700
O281	O28	0.085630	0.777260	0.106100
O291	O29	0.239200	0.880600	0.139000
O301	O30	0.517870	0.890340	0.136000
O311	O31	0.560150	0.780300	0.109600
O321	O32	0.447800	0.799600	0.496800
O331	O33	0.401180	0.688760	0.521700
O341	O34	0.364370	0.805140	0.239800
O351	O35	0.280520	0.696640	0.165700
O361	O36	0.441600	0.031200	0.214300
