data_HUCFAO_clean_PM
_symmetry_space_group_name_H-M	'P1'
_cell_length_a	8.914700
_cell_length_b	12.715000
_cell_length_c	21.226000
_cell_angle_alpha	90.210000
_cell_angle_beta	94.140000
_cell_angle_gamma	91.290000
_symmetry_Int_Tables_number 1

loop_
_symmetry_equiv_pos_as_xyz
'x,y,z'

loop_
_atom_site_label
_atom_site_type_symbol
_atom_site_fract_x
_atom_site_fract_y
_atom_site_fract_z
O11	O1	0.167000	0.428000	0.276700
Mn11	Mn1	0.602200	0.270800	0.237400
Mn21	Mn2	0.974100	0.360800	0.246900
Mn31	Mn3	0.279500	0.145100	0.262600
O21	O2	0.517000	0.126000	0.281100
O31	O3	0.739000	0.075000	0.314100
O41	O4	0.096000	0.664000	0.656000
O51	O5	0.338000	0.681000	0.671900
O61	O6	0.359000	0.314000	0.265400
O71	O7	0.482000	0.749000	0.291100
O81	O8	0.570000	0.849000	0.488600
O91	O9	0.317000	0.550000	0.457500
O101	O10	0.836000	0.232000	0.204200
O111	O11	0.053000	0.189000	0.240400
O121	O12	0.815000	0.837000	0.207300
O131	O13	0.760000	0.025000	0.029700
O141	O14	0.804000	0.669000	0.019600
O151	O15	0.462000	0.771000	0.855700
O161	O16	0.665000	0.866000	0.835500
O171	O17	0.625000	0.425000	0.192300
O181	O18	0.830000	0.488000	0.232300
O191	O19	0.206000	0.156000	0.362500
H11	H1	0.115200	0.165200	0.361300
O201	O20	0.240000	0.975000	0.258000
H21	H2	0.192200	0.956200	0.287300
O211	O21	0.071000	0.377000	0.148000
H31	H3	0.112000	0.434900	0.145200
C11	C1	0.601000	0.067000	0.315300
C21	C2	0.524000	0.985000	0.356000
H41	H4	0.510000	0.014100	0.397100
H51	H5	0.426400	0.965000	0.335800
C31	C3	0.622000	0.889000	0.363000
H61	H6	0.655900	0.869100	0.321800
H71	H7	0.710500	0.904700	0.390800
C41	C4	0.519000	0.788000	0.454000
C51	C5	0.469000	0.734000	0.347000
C61	C6	0.380000	0.627000	0.438000
C71	C7	0.307000	0.582000	0.332000
H81	H8	0.277900	0.619300	0.293400
H91	H9	0.216200	0.560300	0.351100
C81	C8	0.393000	0.481000	0.314000
H101	H10	0.472500	0.501900	0.287600
H111	H11	0.440600	0.452200	0.352700
C91	C9	0.301000	0.401000	0.282600
C101	C10	0.422000	0.680000	0.543900
H121	H12	0.498700	0.720600	0.568600
H131	H13	0.439000	0.606400	0.552800
C111	C11	0.264000	0.708000	0.569000
H141	H14	0.251500	0.783300	0.563000
H151	H15	0.187000	0.673200	0.540900
C121	C12	0.230000	0.682000	0.637300
C131	C13	0.942000	0.166000	0.211200
C141	C14	0.936000	0.057000	0.182000
H161	H16	0.017900	0.012700	0.180100
C151	C15	0.786000	0.031000	0.157000
H171	H17	0.746600	0.087900	0.130400
H181	H18	0.720100	0.020500	0.190900
C161	C16	0.778000	0.942000	0.055000
C171	C17	0.809000	0.841000	0.151000
C181	C18	0.801000	0.750000	0.050000
C191	C19	0.754000	0.850000	0.955000
H191	H19	0.813000	0.797100	0.935900
H201	H20	0.781600	0.918500	0.939600
C201	C20	0.592000	0.828000	0.943000
H211	H21	0.519600	0.819500	0.971900
C211	C21	0.571000	0.821000	0.872000
C221	C22	0.841000	0.649000	0.145000
H221	H22	0.912000	0.658500	0.181800
H231	H23	0.884200	0.600600	0.116400
C231	C23	0.693000	0.600000	0.167000
H241	H24	0.649000	0.649000	0.195000
H251	H25	0.622200	0.590000	0.130000
C241	C24	0.718000	0.495000	0.200000
N11	N1	0.391000	0.650000	0.373200
N21	N2	0.443000	0.698000	0.475400
N31	N3	0.534000	0.798000	0.388800
N41	N4	0.795000	0.934000	0.119600
N51	N5	0.816000	0.751000	0.113900
N61	N6	0.778000	0.847000	0.022800
O221	O22	0.833000	0.572000	0.723300
Mn41	Mn4	0.397800	0.729200	0.762600
Mn51	Mn5	0.025900	0.639200	0.753100
Mn61	Mn6	0.720500	0.854900	0.737400
O231	O23	0.483000	0.874000	0.718900
O241	O24	0.261000	0.925000	0.685900
O251	O25	0.904000	0.336000	0.344000
O261	O26	0.662000	0.319000	0.328100
O271	O27	0.641000	0.686000	0.734600
O281	O28	0.518000	0.251000	0.708900
O291	O29	0.430000	0.151000	0.511400
O301	O30	0.683000	0.450000	0.542500
O311	O31	0.164000	0.768000	0.795800
O321	O32	0.947000	0.811000	0.759600
O331	O33	0.185000	0.163000	0.792700
O341	O34	0.240000	0.975000	0.970300
O351	O35	0.196000	0.331000	0.980400
O361	O36	0.538000	0.229000	0.144300
O371	O37	0.335000	0.134000	0.164500
O381	O38	0.375000	0.575000	0.807700
O391	O39	0.170000	0.512000	0.767700
O401	O40	0.794000	0.844000	0.637500
H261	H26	0.884800	0.834800	0.638700
O411	O41	0.760000	0.025000	0.742000
H271	H27	0.807800	0.043800	0.712700
O421	O42	0.929000	0.623000	0.852000
H281	H28	0.888000	0.565100	0.854800
C251	C25	0.399000	0.933000	0.684700
C261	C26	0.476000	0.015000	0.644000
H291	H29	0.490000	0.985900	0.602900
H301	H30	0.573600	0.035000	0.664200
C271	C27	0.378000	0.111000	0.637000
H311	H31	0.344100	0.130900	0.678200
H321	H32	0.289500	0.095300	0.609200
C281	C28	0.481000	0.212000	0.546000
C291	C29	0.531000	0.266000	0.653000
C301	C30	0.620000	0.373000	0.562000
C311	C31	0.693000	0.418000	0.668000
H331	H33	0.722100	0.380700	0.706600
H341	H34	0.783800	0.439700	0.648900
C321	C32	0.607000	0.519000	0.686000
H351	H35	0.527500	0.498100	0.712400
H361	H36	0.559400	0.547800	0.647300
C331	C33	0.699000	0.599000	0.717400
C341	C34	0.578000	0.320000	0.456100
H371	H37	0.501300	0.279400	0.431400
H381	H38	0.561000	0.393600	0.447200
C351	C35	0.736000	0.292000	0.431000
H391	H39	0.748500	0.216700	0.437000
H401	H40	0.813000	0.326800	0.459100
C361	C36	0.770000	0.318000	0.362700
C371	C37	0.058000	0.834000	0.788800
C381	C38	0.064000	0.943000	0.818000
H411	H41	0.982100	0.987300	0.819900
C391	C39	0.214000	0.969000	0.843000
H421	H42	0.253400	0.912100	0.869600
H431	H43	0.279900	0.979500	0.809100
C401	C40	0.222000	0.058000	0.945000
C411	C41	0.191000	0.159000	0.849000
C421	C42	0.199000	0.250000	0.950000
C431	C43	0.246000	0.150000	0.045000
H441	H44	0.187000	0.202900	0.064100
H451	H45	0.218400	0.081500	0.060400
C441	C44	0.408000	0.172000	0.057000
H461	H46	0.480400	0.180500	0.028100
C451	C45	0.429000	0.179000	0.128000
C461	C46	0.159000	0.351000	0.855000
H471	H47	0.088000	0.341500	0.818200
H481	H48	0.115800	0.399400	0.883600
C471	C47	0.307000	0.400000	0.833000
H491	H49	0.351000	0.351000	0.805000
H501	H50	0.377800	0.410000	0.870000
C481	C48	0.282000	0.505000	0.800000
N71	N7	0.609000	0.350000	0.626800
N81	N8	0.557000	0.302000	0.524600
N91	N9	0.466000	0.202000	0.611200
N101	N10	0.205000	0.066000	0.880400
N111	N11	0.184000	0.249000	0.886100
N121	N12	0.222000	0.153000	0.977200
