data_HUCWOT_clean_PM
_symmetry_space_group_name_H-M	'P1'
_cell_length_a	16.295400
_cell_length_b	8.761900
_cell_length_c	20.755000
_cell_angle_alpha	90.000000
_cell_angle_beta	95.316000
_cell_angle_gamma	90.000000
_symmetry_Int_Tables_number 1

loop_
_symmetry_equiv_pos_as_xyz
'x,y,z'

loop_
_atom_site_label
_atom_site_type_symbol
_atom_site_fract_x
_atom_site_fract_y
_atom_site_fract_z
Sm11	Sm1	0.241850	0.219700	0.711710
O11	O1	0.122500	0.356300	0.661200
O21	O2	0.371400	0.318200	0.747900
O31	O3	0.179700	0.534200	0.842100
O41	O4	0.178400	0.297800	0.803900
O51	O5	0.365100	0.540500	0.798400
O61	O6	0.210500	0.527200	0.704180
N11	N1	0.984500	0.934900	0.498900
N21	N2	0.757200	0.460500	0.839400
N31	N3	0.787100	0.361400	0.811600
C11	C1	0.149300	0.490100	0.665300
C21	C2	0.108200	0.607400	0.619800
C31	C3	0.147600	0.746300	0.609900
H11	H1	0.199900	0.764800	0.630200
C41	C4	0.109100	0.855600	0.570100
H21	H2	0.135000	0.948400	0.564000
C51	C5	0.031000	0.826100	0.538800
C61	C6	0.994500	0.685700	0.545800
H31	H3	0.944000	0.664500	0.522900
C71	C7	0.032100	0.576300	0.586400
H41	H4	0.006700	0.482500	0.591300
C81	C8	0.404100	0.428300	0.779800
C91	C9	0.495900	0.423800	0.796500
C101	C10	0.533900	0.537800	0.835300
H51	H5	0.502100	0.614100	0.851800
C111	C11	0.617900	0.538100	0.849500
H61	H6	0.643000	0.611500	0.877100
C121	C12	0.664100	0.429900	0.822700
C131	C13	0.628200	0.312000	0.785500
H71	H7	0.660500	0.235600	0.769600
C141	C14	0.542200	0.310400	0.772300
H81	H8	0.516700	0.232700	0.747300
C151	C15	0.143800	0.414100	0.824400
C161	C16	0.051600	0.404500	0.827500
C171	C17	0.010100	0.516400	0.858900
H91	H9	0.039100	0.595100	0.880800
C181	C18	0.923600	0.509600	0.857300
H101	H10	0.895200	0.582900	0.878800
C191	C19	0.881200	0.394100	0.823800
C201	C20	0.923000	0.283800	0.794200
H111	H11	0.894100	0.204500	0.772700
C211	C21	0.008000	0.288400	0.795800
H121	H12	0.035800	0.212400	0.775300
Sm21	Sm2	0.258150	0.719700	0.788290
O71	O7	0.377500	0.856300	0.838800
O81	O8	0.128600	0.818200	0.752100
O91	O9	0.320300	0.034200	0.657900
O101	O10	0.321600	0.797800	0.696100
O111	O11	0.134900	0.040500	0.701600
O121	O12	0.289500	0.027200	0.795820
N41	N4	0.515500	0.434900	0.001100
N51	N5	0.742800	0.960500	0.660600
N61	N6	0.712900	0.861400	0.688400
C221	C22	0.350700	0.990100	0.834700
C231	C23	0.391800	0.107400	0.880200
C241	C24	0.352400	0.246300	0.890100
H131	H13	0.300100	0.264800	0.869800
C251	C25	0.390900	0.355600	0.929900
H141	H14	0.365000	0.448400	0.936000
C261	C26	0.469000	0.326100	0.961200
C271	C27	0.505500	0.185700	0.954200
H151	H15	0.556000	0.164500	0.977100
C281	C28	0.467900	0.076300	0.913600
H161	H16	0.493300	0.982500	0.908700
C291	C29	0.095900	0.928300	0.720200
C301	C30	0.004100	0.923800	0.703500
C311	C31	0.966100	0.037800	0.664700
H171	H17	0.997900	0.114100	0.648200
C321	C32	0.882100	0.038100	0.650500
H181	H18	0.857000	0.111500	0.622900
C331	C33	0.835900	0.929900	0.677300
C341	C34	0.871800	0.812000	0.714500
H191	H19	0.839500	0.735600	0.730400
C351	C35	0.957800	0.810400	0.727700
H201	H20	0.983300	0.732700	0.752700
C361	C36	0.356200	0.914100	0.675600
C371	C37	0.448400	0.904500	0.672500
C381	C38	0.489900	0.016400	0.641100
H211	H21	0.460900	0.095100	0.619200
C391	C39	0.576400	0.009600	0.642700
H221	H22	0.604800	0.082900	0.621200
C401	C40	0.618800	0.894100	0.676200
C411	C41	0.577000	0.783800	0.705800
H231	H23	0.605900	0.704500	0.727300
C421	C42	0.492000	0.788400	0.704200
H241	H24	0.464200	0.712400	0.724700
Sm31	Sm3	0.758150	0.780300	0.288290
O131	O13	0.877500	0.643700	0.338800
O141	O14	0.628600	0.681800	0.252100
O151	O15	0.820300	0.465800	0.157900
O161	O16	0.821600	0.702200	0.196100
O171	O17	0.634900	0.459500	0.201600
O181	O18	0.789500	0.472800	0.295820
N71	N7	0.015500	0.065100	0.501100
N81	N8	0.242800	0.539500	0.160600
N91	N9	0.212900	0.638600	0.188400
C431	C43	0.850700	0.509900	0.334700
C441	C44	0.891800	0.392600	0.380200
C451	C45	0.852400	0.253700	0.390100
H251	H25	0.800100	0.235200	0.369800
C461	C46	0.890900	0.144400	0.429900
H261	H26	0.865000	0.051600	0.436000
C471	C47	0.969000	0.173900	0.461200
C481	C48	0.005500	0.314300	0.454200
H271	H27	0.056000	0.335500	0.477100
C491	C49	0.967900	0.423700	0.413600
H281	H28	0.993300	0.517500	0.408700
C501	C50	0.595900	0.571700	0.220200
C511	C51	0.504100	0.576200	0.203500
C521	C52	0.466100	0.462200	0.164700
H291	H29	0.497900	0.385900	0.148200
C531	C53	0.382100	0.461900	0.150500
H301	H30	0.357000	0.388500	0.122900
C541	C54	0.335900	0.570100	0.177300
C551	C55	0.371800	0.688000	0.214500
H311	H31	0.339500	0.764400	0.230400
C561	C56	0.457800	0.689600	0.227700
H321	H32	0.483300	0.767300	0.252700
C571	C57	0.856200	0.585900	0.175600
C581	C58	0.948400	0.595500	0.172500
C591	C59	0.989900	0.483600	0.141100
H331	H33	0.960900	0.404900	0.119200
C601	C60	0.076400	0.490400	0.142700
H341	H34	0.104800	0.417100	0.121200
C611	C61	0.118800	0.605900	0.176200
C621	C62	0.077000	0.716200	0.205800
H351	H35	0.105900	0.795500	0.227300
C631	C63	0.992000	0.711600	0.204200
H361	H36	0.964200	0.787600	0.224700
Sm41	Sm4	0.741850	0.280300	0.211710
O191	O19	0.622500	0.143700	0.161200
O201	O20	0.871400	0.181800	0.247900
O211	O21	0.679700	0.965800	0.342100
O221	O22	0.678400	0.202200	0.303900
O231	O23	0.865100	0.959500	0.298400
O241	O24	0.710500	0.972800	0.204180
N101	N10	0.484500	0.565100	0.998900
N111	N11	0.257200	0.039500	0.339400
N121	N12	0.287100	0.138600	0.311600
C641	C64	0.649300	0.009900	0.165300
C651	C65	0.608200	0.892600	0.119800
C661	C66	0.647600	0.753700	0.109900
H371	H37	0.699900	0.735200	0.130200
C671	C67	0.609100	0.644400	0.070100
H381	H38	0.635000	0.551600	0.064000
C681	C68	0.531000	0.673900	0.038800
C691	C69	0.494500	0.814300	0.045800
H391	H39	0.444000	0.835500	0.022900
C701	C70	0.532100	0.923700	0.086400
H401	H40	0.506700	0.017500	0.091300
C711	C71	0.904100	0.071700	0.279800
C721	C72	0.995900	0.076200	0.296500
C731	C73	0.033900	0.962200	0.335300
H411	H41	0.002100	0.885900	0.351800
C741	C74	0.117900	0.961900	0.349500
H421	H42	0.143000	0.888500	0.377100
C751	C75	0.164100	0.070100	0.322700
C761	C76	0.128200	0.188000	0.285500
H431	H43	0.160500	0.264400	0.269600
C771	C77	0.042200	0.189600	0.272300
H441	H44	0.016700	0.267300	0.247300
C781	C78	0.643800	0.085900	0.324400
C791	C79	0.551600	0.095500	0.327500
C801	C80	0.510100	0.983600	0.358900
H451	H45	0.539100	0.904900	0.380800
C811	C81	0.423600	0.990400	0.357300
H461	H46	0.395200	0.917100	0.378800
C821	C82	0.381200	0.105900	0.323800
C831	C83	0.423000	0.216200	0.294200
H471	H47	0.394100	0.295500	0.272700
C841	C84	0.508000	0.211600	0.295800
H481	H48	0.535800	0.287600	0.275300
