data_HUFJEZ_clean_PM
_symmetry_space_group_name_H-M	'P1'
_cell_length_a	28.159000
_cell_length_b	28.159000
_cell_length_c	11.936500
_cell_angle_alpha	90.000000
_cell_angle_beta	90.000000
_cell_angle_gamma	120.000000
_symmetry_Int_Tables_number 1

loop_
_symmetry_equiv_pos_as_xyz
'x,y,z'

loop_
_atom_site_label
_atom_site_type_symbol
_atom_site_fract_x
_atom_site_fract_y
_atom_site_fract_z
Ag11	Ag1	0.589050	0.068010	0.190370
C11	C1	0.644500	0.036900	0.990900
H11	H1	0.609900	0.004200	0.989800
C21	C2	0.765400	0.200400	0.289000
H21	H2	0.794300	0.227900	0.245400
N11	N1	0.650900	0.080600	0.048800
N21	N2	0.737700	0.083600	0.932800
C31	C3	0.717000	0.166900	0.239500
C41	C4	0.683400	0.120300	0.398200
H31	H3	0.654600	0.091000	0.438800
C51	C5	0.688800	0.039500	0.932100
H41	H4	0.683400	0.008400	0.890500
C61	C6	0.700400	0.126000	0.048700
N31	N3	0.675800	0.126700	0.294300
C71	C7	0.742500	0.125900	0.989500
H51	H5	0.777200	0.158600	0.989600
C81	C8	0.732200	0.154500	0.452900
H61	H6	0.736500	0.149200	0.530000
N41	N4	0.773900	0.196100	0.394600
C91	C9	0.707200	0.173200	0.115700
H71	H7	0.673900	0.176400	0.108300
H81	H8	0.738600	0.207300	0.086200
Ag21	Ag2	0.255720	0.401340	0.523700
C101	C10	0.311170	0.370230	0.324230
H91	H9	0.276570	0.337530	0.323130
C111	C11	0.432070	0.533730	0.622330
H101	H10	0.460970	0.561230	0.578730
N51	N5	0.317570	0.413930	0.382130
N61	N6	0.404370	0.416930	0.266130
C121	C12	0.383670	0.500230	0.572830
C131	C13	0.350070	0.453630	0.731530
H111	H11	0.321270	0.424330	0.772130
C141	C14	0.355470	0.372830	0.265430
H121	H12	0.350070	0.341730	0.223830
C151	C15	0.367070	0.459330	0.382030
N71	N7	0.342470	0.460030	0.627630
C161	C16	0.409170	0.459230	0.322830
H131	H13	0.443870	0.491930	0.322930
C171	C17	0.398870	0.487830	0.786230
H141	H14	0.403170	0.482530	0.863330
N81	N8	0.440570	0.529430	0.727930
C181	C18	0.373870	0.506530	0.449030
H151	H15	0.340570	0.509730	0.441630
H161	H16	0.405270	0.540630	0.419530
Ag31	Ag3	0.922380	0.734680	0.857040
C191	C19	0.977830	0.703570	0.657570
H171	H17	0.943230	0.670870	0.656470
C201	C20	0.098730	0.867070	0.955670
H181	H18	0.127630	0.894570	0.912070
N91	N9	0.984230	0.747270	0.715470
N101	N10	0.071030	0.750270	0.599470
C211	C21	0.050330	0.833570	0.906170
C221	C22	0.016730	0.786970	0.064870
H191	H19	0.987930	0.757670	0.105470
C231	C23	0.022130	0.706170	0.598770
H201	H20	0.016730	0.675070	0.557170
C241	C24	0.033730	0.792670	0.715370
N111	N11	0.009130	0.793370	0.960970
C251	C25	0.075830	0.792570	0.656170
H211	H21	0.110530	0.825270	0.656270
C261	C26	0.065530	0.821170	0.119570
H221	H22	0.069830	0.815870	0.196670
N121	N12	0.107230	0.862770	0.061270
C271	C27	0.040530	0.839870	0.782370
H231	H23	0.007230	0.843070	0.774970
H241	H24	0.071930	0.873970	0.752870
Ag41	Ag4	0.931990	0.521040	0.190370
C281	C28	0.963100	0.607600	0.990900
H251	H25	0.995800	0.605700	0.989800
C291	C29	0.799600	0.565000	0.289000
H261	H26	0.772100	0.566400	0.245400
N131	N13	0.919400	0.570300	0.048800
N141	N14	0.916400	0.654100	0.932800
C301	C30	0.833100	0.550100	0.239500
C311	C31	0.879700	0.563100	0.398200
H271	H27	0.909000	0.563600	0.438800
C321	C32	0.960500	0.649300	0.932100
H281	H28	0.991600	0.675000	0.890500
C331	C33	0.874000	0.574400	0.048700
N151	N15	0.873300	0.549100	0.294300
C341	C34	0.874100	0.616600	0.989500
H291	H29	0.841400	0.618600	0.989600
C351	C35	0.845500	0.577700	0.452900
H301	H30	0.850800	0.587300	0.530000
N161	N16	0.803900	0.577800	0.394600
C361	C36	0.826800	0.534000	0.115700
H311	H31	0.823600	0.497500	0.108300
H321	H32	0.792700	0.531300	0.086200
Ag51	Ag5	0.598660	0.854370	0.523700
C371	C37	0.629770	0.940930	0.324230
H331	H33	0.662470	0.939030	0.323130
C381	C38	0.466270	0.898330	0.622330
H341	H34	0.438770	0.899730	0.578730
N171	N17	0.586070	0.903630	0.382130
N181	N18	0.583070	0.987430	0.266130
C391	C39	0.499770	0.883430	0.572830
C401	C40	0.546370	0.896430	0.731530
H351	H35	0.575670	0.896930	0.772130
C411	C41	0.627170	0.982630	0.265430
H361	H36	0.658270	0.008330	0.223830
C421	C42	0.540670	0.907730	0.382030
N191	N19	0.539970	0.882430	0.627630
C431	C43	0.540770	0.949930	0.322830
H371	H37	0.508070	0.951930	0.322930
C441	C44	0.512170	0.911030	0.786230
H381	H38	0.517470	0.920630	0.863330
N201	N20	0.470570	0.911130	0.727930
C451	C45	0.493470	0.867330	0.449030
H391	H39	0.490270	0.830830	0.441630
H401	H40	0.459370	0.864630	0.419530
Ag61	Ag6	0.265320	0.187710	0.857040
C461	C46	0.296430	0.274270	0.657570
H411	H41	0.329130	0.272370	0.656470
C471	C47	0.132930	0.231670	0.955670
H421	H42	0.105430	0.233070	0.912070
N211	N21	0.252730	0.236970	0.715470
N221	N22	0.249730	0.320770	0.599470
C481	C48	0.166430	0.216770	0.906170
C491	C49	0.213030	0.229770	0.064870
H431	H43	0.242330	0.230270	0.105470
C501	C50	0.293830	0.315970	0.598770
H441	H44	0.324930	0.341670	0.557170
C511	C51	0.207330	0.241070	0.715370
N231	N23	0.206630	0.215770	0.960970
C521	C52	0.207430	0.283270	0.656170
H451	H45	0.174730	0.285270	0.656270
C531	C53	0.178830	0.244370	0.119570
H461	H46	0.184130	0.253970	0.196670
N241	N24	0.137230	0.244470	0.061270
C541	C54	0.160130	0.200670	0.782370
H471	H47	0.156930	0.164170	0.774970
H481	H48	0.126030	0.197970	0.752870
Ag71	Ag7	0.478960	0.410950	0.190370
C551	C55	0.392400	0.355500	0.990900
H491	H49	0.394300	0.390100	0.989800
C561	C56	0.435000	0.234600	0.289000
H501	H50	0.433600	0.205700	0.245400
N251	N25	0.429700	0.349100	0.048800
N261	N26	0.345900	0.262300	0.932800
C571	C57	0.449900	0.283000	0.239500
C581	C58	0.436900	0.316600	0.398200
H511	H51	0.436400	0.345400	0.438800
C591	C59	0.350700	0.311200	0.932100
H521	H52	0.325000	0.316600	0.890500
C601	C60	0.425600	0.299600	0.048700
N271	N27	0.450900	0.324200	0.294300
C611	C61	0.383400	0.257500	0.989500
H531	H53	0.381400	0.222800	0.989600
C621	C62	0.422300	0.267800	0.452900
H541	H54	0.412700	0.263500	0.530000
N281	N28	0.422200	0.226100	0.394600
C631	C63	0.466000	0.292800	0.115700
H551	H55	0.502500	0.326100	0.108300
H561	H56	0.468700	0.261400	0.086200
Ag81	Ag8	0.145630	0.744280	0.523700
C641	C64	0.059070	0.688830	0.324230
H571	H57	0.060970	0.723430	0.323130
C651	C65	0.101670	0.567930	0.622330
H581	H58	0.100270	0.539030	0.578730
N291	N29	0.096370	0.682430	0.382130
N301	N30	0.012570	0.595630	0.266130
C661	C66	0.116570	0.616330	0.572830
C671	C67	0.103570	0.649930	0.731530
H591	H59	0.103070	0.678730	0.772130
C681	C68	0.017370	0.644530	0.265430
H601	H60	0.991670	0.649930	0.223830
C691	C69	0.092270	0.632930	0.382030
N311	N31	0.117570	0.657530	0.627630
C701	C70	0.050070	0.590830	0.322830
H611	H61	0.048070	0.556130	0.322930
C711	C71	0.088970	0.601130	0.786230
H621	H62	0.079370	0.596830	0.863330
N321	N32	0.088870	0.559430	0.727930
C721	C72	0.132670	0.626130	0.449030
H631	H63	0.169170	0.659430	0.441630
H641	H64	0.135370	0.594730	0.419530
Ag91	Ag9	0.812290	0.077620	0.857040
C731	C73	0.725730	0.022170	0.657570
H651	H65	0.727630	0.056770	0.656470
C741	C74	0.768330	0.901270	0.955670
H661	H66	0.766930	0.872370	0.912070
N331	N33	0.763030	0.015770	0.715470
N341	N34	0.679230	0.928970	0.599470
C751	C75	0.783230	0.949670	0.906170
C761	C76	0.770230	0.983270	0.064870
H671	H67	0.769730	0.012070	0.105470
C771	C77	0.684030	0.977870	0.598770
H681	H68	0.658330	0.983270	0.557170
C781	C78	0.758930	0.966270	0.715370
N351	N35	0.784230	0.990870	0.960970
C791	C79	0.716730	0.924170	0.656170
H691	H69	0.714730	0.889470	0.656270
C801	C80	0.755630	0.934470	0.119570
H701	H70	0.746030	0.930170	0.196670
N361	N36	0.755530	0.892770	0.061270
C811	C81	0.799330	0.959470	0.782370
H711	H71	0.835830	0.992770	0.774970
H721	H72	0.802030	0.928070	0.752870
Ag101	Ag10	0.410950	0.931990	0.809630
C821	C82	0.355500	0.963100	0.009100
H731	H73	0.390100	0.995800	0.010200
C831	C83	0.234600	0.799600	0.711000
H741	H74	0.205700	0.772100	0.754600
N371	N37	0.349100	0.919400	0.951200
N381	N38	0.262300	0.916400	0.067200
C841	C84	0.283000	0.833100	0.760500
C851	C85	0.316600	0.879700	0.601800
H751	H75	0.345400	0.909000	0.561200
C861	C86	0.311200	0.960500	0.067900
H761	H76	0.316600	0.991600	0.109500
C871	C87	0.299600	0.874000	0.951300
N391	N39	0.324200	0.873300	0.705700
C881	C88	0.257500	0.874100	0.010500
H771	H77	0.222800	0.841400	0.010400
C891	C89	0.267800	0.845500	0.547100
H781	H78	0.263500	0.850800	0.470000
N401	N40	0.226100	0.803900	0.605400
C901	C90	0.292800	0.826800	0.884300
H791	H79	0.326100	0.823600	0.891700
H801	H80	0.261400	0.792700	0.913800
Ag111	Ag11	0.077620	0.265320	0.142960
C911	C91	0.022170	0.296430	0.342430
H811	H81	0.056770	0.329130	0.343530
C921	C92	0.901270	0.132930	0.044330
H821	H82	0.872370	0.105430	0.087930
N411	N41	0.015770	0.252730	0.284530
N421	N42	0.928970	0.249730	0.400530
C931	C93	0.949670	0.166430	0.093830
C941	C94	0.983270	0.213030	0.935130
H831	H83	0.012070	0.242330	0.894530
C951	C95	0.977870	0.293830	0.401230
H841	H84	0.983270	0.324930	0.442830
C961	C96	0.966270	0.207330	0.284630
N431	N43	0.990870	0.206630	0.039030
C971	C97	0.924170	0.207430	0.343830
H851	H85	0.889470	0.174730	0.343730
C981	C98	0.934470	0.178830	0.880430
H861	H86	0.930170	0.184130	0.803330
N441	N44	0.892770	0.137230	0.938730
C991	C99	0.959470	0.160130	0.217630
H871	H87	0.992770	0.156930	0.225030
H881	H88	0.928070	0.126030	0.247130
Ag121	Ag12	0.744280	0.598660	0.476300
C1001	C100	0.688830	0.629770	0.675770
H891	H89	0.723430	0.662470	0.676870
C1011	C101	0.567930	0.466270	0.377670
H901	H90	0.539030	0.438770	0.421270
N451	N45	0.682430	0.586070	0.617870
N461	N46	0.595630	0.583070	0.733870
C1021	C102	0.616330	0.499770	0.427170
C1031	C103	0.649930	0.546370	0.268470
H911	H91	0.678730	0.575670	0.227870
C1041	C104	0.644530	0.627170	0.734570
H921	H92	0.649930	0.658270	0.776170
C1051	C105	0.632930	0.540670	0.617970
N471	N47	0.657530	0.539970	0.372370
C1061	C106	0.590830	0.540770	0.677170
H931	H93	0.556130	0.508070	0.677070
C1071	C107	0.601130	0.512170	0.213770
H941	H94	0.596830	0.517470	0.136670
N481	N48	0.559430	0.470570	0.272070
C1081	C108	0.626130	0.493470	0.550970
H951	H95	0.659430	0.490270	0.558370
H961	H96	0.594730	0.459370	0.580470
Ag131	Ag13	0.068010	0.478960	0.809630
C1091	C109	0.036900	0.392400	0.009100
H971	H97	0.004200	0.394300	0.010200
C1101	C110	0.200400	0.435000	0.711000
H981	H98	0.227900	0.433600	0.754600
N491	N49	0.080600	0.429700	0.951200
N501	N50	0.083600	0.345900	0.067200
C1111	C111	0.166900	0.449900	0.760500
C1121	C112	0.120300	0.436900	0.601800
H991	H99	0.091000	0.436400	0.561200
C1131	C113	0.039500	0.350700	0.067900
H1001	H100	0.008400	0.325000	0.109500
C1141	C114	0.126000	0.425600	0.951300
N511	N51	0.126700	0.450900	0.705700
C1151	C115	0.125900	0.383400	0.010500
H1011	H101	0.158600	0.381400	0.010400
C1161	C116	0.154500	0.422300	0.547100
H1021	H102	0.149200	0.412700	0.470000
N521	N52	0.196100	0.422200	0.605400
C1171	C117	0.173200	0.466000	0.884300
H1031	H103	0.176400	0.502500	0.891700
H1041	H104	0.207300	0.468700	0.913800
Ag141	Ag14	0.734680	0.812290	0.142960
C1181	C118	0.703570	0.725730	0.342430
H1051	H105	0.670870	0.727630	0.343530
C1191	C119	0.867070	0.768330	0.044330
H1061	H106	0.894570	0.766930	0.087930
N531	N53	0.747270	0.763030	0.284530
N541	N54	0.750270	0.679230	0.400530
C1201	C120	0.833570	0.783230	0.093830
C1211	C121	0.786970	0.770230	0.935130
H1071	H107	0.757670	0.769730	0.894530
C1221	C122	0.706170	0.684030	0.401230
H1081	H108	0.675070	0.658330	0.442830
C1231	C123	0.792670	0.758930	0.284630
N551	N55	0.793370	0.784230	0.039030
C1241	C124	0.792570	0.716730	0.343830
H1091	H109	0.825270	0.714730	0.343730
C1251	C125	0.821170	0.755630	0.880430
H1101	H110	0.815870	0.746030	0.803330
N561	N56	0.862770	0.755530	0.938730
C1261	C126	0.839870	0.799330	0.217630
H1111	H111	0.843070	0.835830	0.225030
H1121	H112	0.873970	0.802030	0.247130
Ag151	Ag15	0.401340	0.145630	0.476300
C1271	C127	0.370230	0.059070	0.675770
H1131	H113	0.337530	0.060970	0.676870
C1281	C128	0.533730	0.101670	0.377670
H1141	H114	0.561230	0.100270	0.421270
N571	N57	0.413930	0.096370	0.617870
N581	N58	0.416930	0.012570	0.733870
C1291	C129	0.500230	0.116570	0.427170
C1301	C130	0.453630	0.103570	0.268470
H1151	H115	0.424330	0.103070	0.227870
C1311	C131	0.372830	0.017370	0.734570
H1161	H116	0.341730	0.991670	0.776170
C1321	C132	0.459330	0.092270	0.617970
N591	N59	0.460030	0.117570	0.372370
C1331	C133	0.459230	0.050070	0.677170
H1171	H117	0.491930	0.048070	0.677070
C1341	C134	0.487830	0.088970	0.213770
H1181	H118	0.482530	0.079370	0.136670
N601	N60	0.529430	0.088870	0.272070
C1351	C135	0.506530	0.132670	0.550970
H1191	H119	0.509730	0.169170	0.558370
H1201	H120	0.540630	0.135370	0.580470
Ag161	Ag16	0.521040	0.589050	0.809630
C1361	C136	0.607600	0.644500	0.009100
H1211	H121	0.605700	0.609900	0.010200
C1371	C137	0.565000	0.765400	0.711000
H1221	H122	0.566400	0.794300	0.754600
N611	N61	0.570300	0.650900	0.951200
N621	N62	0.654100	0.737700	0.067200
C1381	C138	0.550100	0.717000	0.760500
C1391	C139	0.563100	0.683400	0.601800
H1231	H123	0.563600	0.654600	0.561200
C1401	C140	0.649300	0.688800	0.067900
H1241	H124	0.675000	0.683400	0.109500
C1411	C141	0.574400	0.700400	0.951300
N631	N63	0.549100	0.675800	0.705700
C1421	C142	0.616600	0.742500	0.010500
H1251	H125	0.618600	0.777200	0.010400
C1431	C143	0.577700	0.732200	0.547100
H1261	H126	0.587300	0.736500	0.470000
N641	N64	0.577800	0.773900	0.605400
C1441	C144	0.534000	0.707200	0.884300
H1271	H127	0.497500	0.673900	0.891700
H1281	H128	0.531300	0.738600	0.913800
Ag171	Ag17	0.187710	0.922380	0.142960
C1451	C145	0.274270	0.977830	0.342430
H1291	H129	0.272370	0.943230	0.343530
C1461	C146	0.231670	0.098730	0.044330
H1301	H130	0.233070	0.127630	0.087930
N651	N65	0.236970	0.984230	0.284530
N661	N66	0.320770	0.071030	0.400530
C1471	C147	0.216770	0.050330	0.093830
C1481	C148	0.229770	0.016730	0.935130
H1311	H131	0.230270	0.987930	0.894530
C1491	C149	0.315970	0.022130	0.401230
H1321	H132	0.341670	0.016730	0.442830
C1501	C150	0.241070	0.033730	0.284630
N671	N67	0.215770	0.009130	0.039030
C1511	C151	0.283270	0.075830	0.343830
H1331	H133	0.285270	0.110530	0.343730
C1521	C152	0.244370	0.065530	0.880430
H1341	H134	0.253970	0.069830	0.803330
N681	N68	0.244470	0.107230	0.938730
C1531	C153	0.200670	0.040530	0.217630
H1351	H135	0.164170	0.007230	0.225030
H1361	H136	0.197970	0.071930	0.247130
Ag181	Ag18	0.854370	0.255720	0.476300
C1541	C154	0.940930	0.311170	0.675770
H1371	H137	0.939030	0.276570	0.676870
C1551	C155	0.898330	0.432070	0.377670
H1381	H138	0.899730	0.460970	0.421270
N691	N69	0.903630	0.317570	0.617870
N701	N70	0.987430	0.404370	0.733870
C1561	C156	0.883430	0.383670	0.427170
C1571	C157	0.896430	0.350070	0.268470
H1391	H139	0.896930	0.321270	0.227870
C1581	C158	0.982630	0.355470	0.734570
H1401	H140	0.008330	0.350070	0.776170
C1591	C159	0.907730	0.367070	0.617970
N711	N71	0.882430	0.342470	0.372370
C1601	C160	0.949930	0.409170	0.677170
H1411	H141	0.951930	0.443870	0.677070
C1611	C161	0.911030	0.398870	0.213770
H1421	H142	0.920630	0.403170	0.136670
N721	N72	0.911130	0.440570	0.272070
C1621	C162	0.867330	0.373870	0.550970
H1431	H143	0.830830	0.340570	0.558370
H1441	H144	0.864630	0.405270	0.580470
