data_HUFMUS_clean_PM
_symmetry_space_group_name_H-M	'P1'
_cell_length_a	14.268600
_cell_length_b	16.732600
_cell_length_c	7.018100
_cell_angle_alpha	90.000000
_cell_angle_beta	90.000000
_cell_angle_gamma	90.000000
_symmetry_Int_Tables_number 1

loop_
_symmetry_equiv_pos_as_xyz
'x,y,z'

loop_
_atom_site_label
_atom_site_type_symbol
_atom_site_fract_x
_atom_site_fract_y
_atom_site_fract_z
Sr11	Sr1	0.427250	0.532100	0.966860
F11	F1	0.480530	0.744900	0.616900
F21	F2	0.375750	0.877510	0.612100
F31	F3	0.127030	0.732590	0.332300
F41	F4	0.233310	0.601040	0.328400
O11	O1	0.440000	0.565300	0.311900
O21	O2	0.448300	0.568200	0.625700
O31	O3	0.171900	0.916500	0.631500
O41	O4	0.160500	0.909130	0.316400
O51	O5	0.211800	0.714000	0.908600
O61	O6	0.249900	0.588320	0.876500
O71	O7	0.352100	0.673430	0.974800
N11	N1	0.268600	0.659100	0.918400
C11	C1	0.420000	0.594300	0.469000
C21	C2	0.359800	0.669100	0.472200
C31	C3	0.392500	0.740400	0.546000
C41	C4	0.338300	0.808900	0.545800
C51	C5	0.247400	0.808900	0.475700
C61	C6	0.187700	0.884200	0.475600
C71	C7	0.214400	0.737000	0.401300
C81	C8	0.269600	0.668700	0.400600
Sr21	Sr2	0.572750	0.467900	0.466860
F51	F5	0.519470	0.255100	0.116900
F61	F6	0.624250	0.122490	0.112100
F71	F7	0.872970	0.267410	0.832300
F81	F8	0.766690	0.398960	0.828400
O81	O8	0.560000	0.434700	0.811900
O91	O9	0.551700	0.431800	0.125700
O101	O10	0.828100	0.083500	0.131500
O111	O11	0.839500	0.090870	0.816400
O121	O12	0.788200	0.286000	0.408600
O131	O13	0.750100	0.411680	0.376500
O141	O14	0.647900	0.326570	0.474800
N21	N2	0.731400	0.340900	0.418400
C91	C9	0.580000	0.405700	0.969000
C101	C10	0.640200	0.330900	0.972200
C111	C11	0.607500	0.259600	0.046000
C121	C12	0.661700	0.191100	0.045800
C131	C13	0.752600	0.191100	0.975700
C141	C14	0.812300	0.115800	0.975600
C151	C15	0.785600	0.263000	0.901300
C161	C16	0.730400	0.331300	0.900600
Sr31	Sr3	0.927250	0.967900	0.966860
F91	F9	0.980530	0.755100	0.616900
F101	F10	0.875750	0.622490	0.612100
F111	F11	0.627030	0.767410	0.332300
F121	F12	0.733310	0.898960	0.328400
O151	O15	0.940000	0.934700	0.311900
O161	O16	0.948300	0.931800	0.625700
O171	O17	0.671900	0.583500	0.631500
O181	O18	0.660500	0.590870	0.316400
O191	O19	0.711800	0.786000	0.908600
O201	O20	0.749900	0.911680	0.876500
O211	O21	0.852100	0.826570	0.974800
N31	N3	0.768600	0.840900	0.918400
C171	C17	0.920000	0.905700	0.469000
C181	C18	0.859800	0.830900	0.472200
C191	C19	0.892500	0.759600	0.546000
C201	C20	0.838300	0.691100	0.545800
C211	C21	0.747400	0.691100	0.475700
C221	C22	0.687700	0.615800	0.475600
C231	C23	0.714400	0.763000	0.401300
C241	C24	0.769600	0.831300	0.400600
Sr41	Sr4	0.072750	0.032100	0.466860
F131	F13	0.019470	0.244900	0.116900
F141	F14	0.124250	0.377510	0.112100
F151	F15	0.372970	0.232590	0.832300
F161	F16	0.266690	0.101040	0.828400
O221	O22	0.060000	0.065300	0.811900
O231	O23	0.051700	0.068200	0.125700
O241	O24	0.328100	0.416500	0.131500
O251	O25	0.339500	0.409130	0.816400
O261	O26	0.288200	0.214000	0.408600
O271	O27	0.250100	0.088320	0.376500
O281	O28	0.147900	0.173430	0.474800
N41	N4	0.231400	0.159100	0.418400
C251	C25	0.080000	0.094300	0.969000
C261	C26	0.140200	0.169100	0.972200
C271	C27	0.107500	0.240400	0.046000
C281	C28	0.161700	0.308900	0.045800
C291	C29	0.252600	0.308900	0.975700
C301	C30	0.312300	0.384200	0.975600
C311	C31	0.285600	0.237000	0.901300
C321	C32	0.230400	0.168700	0.900600
