data_HUHBET_clean_PM
_symmetry_space_group_name_H-M	'P1'
_cell_length_a	24.425200
_cell_length_b	19.042500
_cell_length_c	26.715300
_cell_angle_alpha	90.000000
_cell_angle_beta	90.000000
_cell_angle_gamma	90.000000
_symmetry_Int_Tables_number 1

loop_
_symmetry_equiv_pos_as_xyz
'x,y,z'

loop_
_atom_site_label
_atom_site_type_symbol
_atom_site_fract_x
_atom_site_fract_y
_atom_site_fract_z
Mn11	Mn1	0.869110	0.739500	0.870220
Mn21	Mn2	0.772050	0.819870	0.924490
Mn31	Mn3	0.848520	0.950660	0.946100
Mn41	Mn4	0.832230	0.891140	0.839000
Mn51	Mn5	0.945780	0.871060	0.890320
Mn61	Mn6	0.885830	0.796400	0.982590
O11	O1	0.854390	0.847700	0.903830
C11	C1	0.992400	0.710400	0.925500
C21	C2	0.941100	0.670100	0.942400
H11	H1	0.938800	0.625700	0.923200
H21	H2	0.945100	0.657800	0.978200
O21	O2	0.891220	0.708430	0.935800
C31	C3	0.988900	0.728900	0.870400
H31	H3	0.023500	0.751800	0.860200
H41	H4	0.985200	0.685100	0.850800
O31	O3	0.944110	0.774620	0.858380
C41	C4	0.003000	0.775700	0.956800
H51	H5	0.008000	0.761300	0.992100
H61	H6	0.037800	0.797200	0.945400
O41	O4	0.961420	0.827430	0.954660
C51	C5	0.041500	0.660200	0.932300
H71	H7	0.074900	0.683000	0.920100
H81	H8	0.035100	0.617000	0.913300
H91	H9	0.045800	0.648900	0.967900
C61	C6	0.914000	0.038000	0.853100
C71	C7	0.927000	0.981400	0.814600
H101	H10	0.908000	0.993300	0.782900
H111	H11	0.966800	0.982300	0.807800
O51	O5	0.911830	0.911340	0.828750
C81	C8	0.852900	0.045400	0.861600
H121	H12	0.846600	0.085500	0.884500
H131	H13	0.835300	0.057000	0.829200
O61	O6	0.826900	0.984980	0.881860
C91	C9	0.943200	0.024300	0.902300
H141	H14	0.983100	0.022200	0.895900
H151	H15	0.936400	0.064400	0.925000
O71	O7	0.926950	0.960670	0.927420
C101	C10	0.935400	0.108200	0.831900
H161	H16	0.917200	0.118100	0.799900
H171	H17	0.975000	0.104900	0.826600
H181	H18	0.927600	0.146100	0.855600
C111	C11	0.749100	0.750300	0.807900
C121	C12	0.753900	0.702700	0.853000
H191	H19	0.717300	0.697700	0.868600
H201	H20	0.765700	0.655600	0.841700
O81	O8	0.791650	0.727600	0.890030
C131	C13	0.725800	0.821500	0.822000
H211	H21	0.722700	0.850400	0.791300
H221	H22	0.688400	0.814700	0.835500
O91	O9	0.757750	0.859980	0.858420
C141	C14	0.803800	0.757500	0.780300
H231	H23	0.815400	0.710500	0.768600
H241	H24	0.798200	0.787300	0.750400
O101	O10	0.846730	0.787120	0.809990
C151	C15	0.708600	0.715800	0.771200
H251	H25	0.672300	0.713200	0.786800
H261	H26	0.721300	0.668400	0.763000
H271	H27	0.706500	0.744000	0.740600
C161	C16	0.778700	0.883000	0.044200
C171	C17	0.748900	0.924700	0.004600
H281	H28	0.710300	0.908900	0.003200
H291	H29	0.748900	0.974900	0.014200
O111	O11	0.772730	0.917800	0.955680
C181	C18	0.837900	0.908400	0.049300
H301	H30	0.837400	0.958500	0.059200
H311	H31	0.855600	0.881800	0.076800
O121	O12	0.870680	0.901100	0.005100
C191	C19	0.775300	0.803700	0.033200
H321	H32	0.793900	0.778200	0.060600
H331	H33	0.736300	0.789600	0.033600
O131	O13	0.798700	0.781800	0.986760
C201	C20	0.750300	0.894600	0.094300
H341	H34	0.755200	0.943500	0.104800
H351	H35	0.766300	0.863300	0.119500
H361	H36	0.711200	0.884500	0.090900
C211	C21	0.810000	0.091400	0.984000
C221	C22	0.818700	0.154900	0.015700
H371	H37	0.788900	0.158800	0.040200
H381	H38	0.819200	0.196900	0.994500
H391	H39	0.853800	0.150900	0.033400
O141	O14	0.849060	0.045680	0.984490
O151	O15	0.767950	0.084800	0.959480
C231	C23	0.054000	0.888000	0.836600
C241	C24	0.111900	0.912200	0.836200
H401	H40	0.131600	0.889300	0.808800
H411	H41	0.129300	0.900000	0.868100
H421	H42	0.113000	0.963200	0.831600
O161	O16	0.027730	0.899100	0.877530
O171	O17	0.033070	0.861000	0.799080
C251	C25	0.868600	0.583300	0.850600
C261	C26	0.891300	0.522000	0.821700
H431	H43	0.886300	0.478800	0.841100
H441	H44	0.930400	0.529600	0.815500
H451	H45	0.872000	0.517900	0.789700
O181	O18	0.882820	0.644200	0.833920
O191	O19	0.839060	0.573200	0.887610
C271	C27	0.771800	0.979700	0.769300
C281	C28	0.769000	0.010900	0.720500
H461	H46	0.743800	0.051000	0.721200
H471	H47	0.755800	0.976000	0.696300
H481	H48	0.805500	0.027000	0.710500
O201	O20	0.811750	0.933900	0.776870
O211	O21	0.739640	0.998100	0.801960
C291	C29	0.940600	0.778400	0.080400
C301	C30	0.954000	0.742000	0.128800
H491	H49	0.944300	0.772600	0.157000
H501	H50	0.993200	0.731400	0.130000
H511	H51	0.933000	0.698200	0.131100
O221	O22	0.909400	0.753300	0.048200
O231	O23	0.967000	0.839400	0.074000
C311	C31	0.651400	0.837100	0.926900
C321	C32	0.597200	0.800200	0.926400
H521	H52	0.567700	0.834900	0.927100
H531	H53	0.594400	0.769600	0.955800
H541	H54	0.594200	0.771800	0.895900
O241	O24	0.692900	0.797500	0.936630
O251	O25	0.654030	0.899300	0.916320
Na11	Na1	0.939100	0.815330	0.774560
Na21	Na2	0.968090	0.923240	0.011920
Na31	Na3	0.725000	0.981930	0.889830
Na41	Na4	0.810520	0.646050	0.956650
O261	O26	0.949530	0.042820	0.029700
H551	H55	0.951300	0.060800	0.058300
H561	H56	0.918500	0.052900	0.018200
Mn71	Mn7	0.630890	0.760500	0.370220
Mn81	Mn8	0.727950	0.680130	0.424490
Mn91	Mn9	0.651480	0.549340	0.446100
Mn101	Mn10	0.667770	0.608860	0.339000
Mn111	Mn11	0.554220	0.628940	0.390320
Mn121	Mn12	0.614170	0.703600	0.482590
O271	O27	0.645610	0.652300	0.403830
C331	C33	0.507600	0.789600	0.425500
C341	C34	0.558900	0.829900	0.442400
H571	H57	0.561200	0.874300	0.423200
H581	H58	0.554900	0.842200	0.478200
O281	O28	0.608780	0.791570	0.435800
C351	C35	0.511100	0.771100	0.370400
H591	H59	0.476500	0.748200	0.360200
H601	H60	0.514800	0.814900	0.350800
O291	O29	0.555890	0.725380	0.358380
C361	C36	0.497000	0.724300	0.456800
H611	H61	0.492000	0.738700	0.492100
H621	H62	0.462200	0.702800	0.445400
O301	O30	0.538580	0.672570	0.454660
C371	C37	0.458500	0.839800	0.432300
H631	H63	0.425100	0.817000	0.420100
H641	H64	0.464900	0.883000	0.413300
H651	H65	0.454200	0.851100	0.467900
C381	C38	0.586000	0.462000	0.353100
C391	C39	0.573000	0.518600	0.314600
H661	H66	0.592000	0.506700	0.282900
H671	H67	0.533200	0.517700	0.307800
O311	O31	0.588170	0.588660	0.328750
C401	C40	0.647100	0.454600	0.361600
H681	H68	0.653400	0.414500	0.384500
H691	H69	0.664700	0.443000	0.329200
O321	O32	0.673100	0.515020	0.381860
C411	C41	0.556800	0.475700	0.402300
H701	H70	0.516900	0.477800	0.395900
H711	H71	0.563600	0.435600	0.425000
O331	O33	0.573050	0.539330	0.427420
C421	C42	0.564600	0.391800	0.331900
H721	H72	0.582800	0.381900	0.299900
H731	H73	0.525000	0.395100	0.326600
H741	H74	0.572400	0.353900	0.355600
C431	C43	0.750900	0.749700	0.307900
C441	C44	0.746100	0.797300	0.353000
H751	H75	0.782700	0.802300	0.368600
H761	H76	0.734300	0.844400	0.341700
O341	O34	0.708350	0.772400	0.390030
C451	C45	0.774200	0.678500	0.322000
H771	H77	0.777300	0.649600	0.291300
H781	H78	0.811600	0.685300	0.335500
O351	O35	0.742250	0.640020	0.358420
C461	C46	0.696200	0.742500	0.280300
H791	H79	0.684600	0.789500	0.268600
H801	H80	0.701800	0.712700	0.250400
O361	O36	0.653270	0.712880	0.309990
C471	C47	0.791400	0.784200	0.271200
H811	H81	0.827700	0.786800	0.286800
H821	H82	0.778700	0.831600	0.263000
H831	H83	0.793500	0.756000	0.240600
C481	C48	0.721300	0.617000	0.544200
C491	C49	0.751100	0.575300	0.504600
H841	H84	0.789700	0.591100	0.503200
H851	H85	0.751100	0.525100	0.514200
O371	O37	0.727270	0.582200	0.455680
C501	C50	0.662100	0.591600	0.549300
H861	H86	0.662600	0.541500	0.559200
H871	H87	0.644400	0.618200	0.576800
O381	O38	0.629320	0.598900	0.505100
C511	C51	0.724700	0.696300	0.533200
H881	H88	0.706100	0.721800	0.560600
H891	H89	0.763700	0.710400	0.533600
O391	O39	0.701300	0.718200	0.486760
C521	C52	0.749700	0.605400	0.594300
H901	H90	0.744800	0.556500	0.604800
H911	H91	0.733700	0.636700	0.619500
H921	H92	0.788800	0.615500	0.590900
C531	C53	0.690000	0.408600	0.484000
C541	C54	0.681300	0.345100	0.515700
H931	H93	0.711100	0.341200	0.540200
H941	H94	0.680800	0.303100	0.494500
H951	H95	0.646200	0.349100	0.533400
O401	O40	0.650940	0.454320	0.484490
O411	O41	0.732050	0.415200	0.459480
C551	C55	0.446000	0.612000	0.336600
C561	C56	0.388100	0.587800	0.336200
H961	H96	0.368400	0.610700	0.308800
H971	H97	0.370700	0.600000	0.368100
H981	H98	0.387000	0.536800	0.331600
O421	O42	0.472270	0.600900	0.377530
O431	O43	0.466930	0.639000	0.299080
C571	C57	0.631400	0.916700	0.350600
C581	C58	0.608700	0.978000	0.321700
H991	H99	0.613700	0.021200	0.341100
H1001	H100	0.569600	0.970400	0.315500
H1011	H101	0.628000	0.982100	0.289700
O441	O44	0.617180	0.855800	0.333920
O451	O45	0.660940	0.926800	0.387610
C591	C59	0.728200	0.520300	0.269300
C601	C60	0.731000	0.489100	0.220500
H1021	H102	0.756200	0.449000	0.221200
H1031	H103	0.744200	0.524000	0.196300
H1041	H104	0.694500	0.473000	0.210500
O461	O46	0.688250	0.566100	0.276870
O471	O47	0.760360	0.501900	0.301960
C611	C61	0.559400	0.721600	0.580400
C621	C62	0.546000	0.758000	0.628800
H1051	H105	0.555700	0.727400	0.657000
H1061	H106	0.506800	0.768600	0.630000
H1071	H107	0.567000	0.801800	0.631100
O481	O48	0.590600	0.746700	0.548200
O491	O49	0.533000	0.660600	0.574000
C631	C63	0.848600	0.662900	0.426900
C641	C64	0.902800	0.699800	0.426400
H1081	H108	0.932300	0.665100	0.427100
H1091	H109	0.905600	0.730400	0.455800
H1101	H110	0.905800	0.728200	0.395900
O501	O50	0.807100	0.702500	0.436630
O511	O51	0.845970	0.600700	0.416320
Na51	Na5	0.560900	0.684670	0.274560
Na61	Na6	0.531910	0.576760	0.511920
Na71	Na7	0.775000	0.518070	0.389830
Na81	Na8	0.689480	0.853950	0.456650
O521	O52	0.550470	0.457180	0.529700
H1111	H111	0.548700	0.439200	0.558300
H1121	H112	0.581500	0.447100	0.518200
Mn131	Mn13	0.130890	0.739500	0.629780
Mn141	Mn14	0.227950	0.819870	0.575510
Mn151	Mn15	0.151480	0.950660	0.553900
Mn161	Mn16	0.167770	0.891140	0.661000
Mn171	Mn17	0.054220	0.871060	0.609680
Mn181	Mn18	0.114170	0.796400	0.517410
O531	O53	0.145610	0.847700	0.596170
C651	C65	0.007600	0.710400	0.574500
C661	C66	0.058900	0.670100	0.557600
H1131	H113	0.061200	0.625700	0.576800
H1141	H114	0.054900	0.657800	0.521800
O541	O54	0.108780	0.708430	0.564200
C671	C67	0.011100	0.728900	0.629600
H1151	H115	0.976500	0.751800	0.639800
H1161	H116	0.014800	0.685100	0.649200
O551	O55	0.055890	0.774620	0.641620
C681	C68	0.997000	0.775700	0.543200
H1171	H117	0.992000	0.761300	0.507900
H1181	H118	0.962200	0.797200	0.554600
O561	O56	0.038580	0.827430	0.545340
C691	C69	0.958500	0.660200	0.567700
H1191	H119	0.925100	0.683000	0.579900
H1201	H120	0.964900	0.617000	0.586700
H1211	H121	0.954200	0.648900	0.532100
C701	C70	0.086000	0.038000	0.646900
C711	C71	0.073000	0.981400	0.685400
H1221	H122	0.092000	0.993300	0.717100
H1231	H123	0.033200	0.982300	0.692200
O571	O57	0.088170	0.911340	0.671250
C721	C72	0.147100	0.045400	0.638400
H1241	H124	0.153400	0.085500	0.615500
H1251	H125	0.164700	0.057000	0.670800
O581	O58	0.173100	0.984980	0.618140
C731	C73	0.056800	0.024300	0.597700
H1261	H126	0.016900	0.022200	0.604100
H1271	H127	0.063600	0.064400	0.575000
O591	O59	0.073050	0.960670	0.572580
C741	C74	0.064600	0.108200	0.668100
H1281	H128	0.082800	0.118100	0.700100
H1291	H129	0.025000	0.104900	0.673400
H1301	H130	0.072400	0.146100	0.644400
C751	C75	0.250900	0.750300	0.692100
C761	C76	0.246100	0.702700	0.647000
H1311	H131	0.282700	0.697700	0.631400
H1321	H132	0.234300	0.655600	0.658300
O601	O60	0.208350	0.727600	0.609970
C771	C77	0.274200	0.821500	0.678000
H1331	H133	0.277300	0.850400	0.708700
H1341	H134	0.311600	0.814700	0.664500
O611	O61	0.242250	0.859980	0.641580
C781	C78	0.196200	0.757500	0.719700
H1351	H135	0.184600	0.710500	0.731400
H1361	H136	0.201800	0.787300	0.749600
O621	O62	0.153270	0.787120	0.690010
C791	C79	0.291400	0.715800	0.728800
H1371	H137	0.327700	0.713200	0.713200
H1381	H138	0.278700	0.668400	0.737000
H1391	H139	0.293500	0.744000	0.759400
C801	C80	0.221300	0.883000	0.455800
C811	C81	0.251100	0.924700	0.495400
H1401	H140	0.289700	0.908900	0.496800
H1411	H141	0.251100	0.974900	0.485800
O631	O63	0.227270	0.917800	0.544320
C821	C82	0.162100	0.908400	0.450700
H1421	H142	0.162600	0.958500	0.440800
H1431	H143	0.144400	0.881800	0.423200
O641	O64	0.129320	0.901100	0.494900
C831	C83	0.224700	0.803700	0.466800
H1441	H144	0.206100	0.778200	0.439400
H1451	H145	0.263700	0.789600	0.466400
O651	O65	0.201300	0.781800	0.513240
C841	C84	0.249700	0.894600	0.405700
H1461	H146	0.244800	0.943500	0.395200
H1471	H147	0.233700	0.863300	0.380500
H1481	H148	0.288800	0.884500	0.409100
C851	C85	0.190000	0.091400	0.516000
C861	C86	0.181300	0.154900	0.484300
H1491	H149	0.211100	0.158800	0.459800
H1501	H150	0.180800	0.196900	0.505500
H1511	H151	0.146200	0.150900	0.466600
O661	O66	0.150940	0.045680	0.515510
O671	O67	0.232050	0.084800	0.540520
C871	C87	0.946000	0.888000	0.663400
C881	C88	0.888100	0.912200	0.663800
H1521	H152	0.868400	0.889300	0.691200
H1531	H153	0.870700	0.900000	0.631900
H1541	H154	0.887000	0.963200	0.668400
O681	O68	0.972270	0.899100	0.622470
O691	O69	0.966930	0.861000	0.700920
C891	C89	0.131400	0.583300	0.649400
C901	C90	0.108700	0.522000	0.678300
H1551	H155	0.113700	0.478800	0.658900
H1561	H156	0.069600	0.529600	0.684500
H1571	H157	0.128000	0.517900	0.710300
O701	O70	0.117180	0.644200	0.666080
O711	O71	0.160940	0.573200	0.612390
C911	C91	0.228200	0.979700	0.730700
C921	C92	0.231000	0.010900	0.779500
H1581	H158	0.256200	0.051000	0.778800
H1591	H159	0.244200	0.976000	0.803700
H1601	H160	0.194500	0.027000	0.789500
O721	O72	0.188250	0.933900	0.723130
O731	O73	0.260360	0.998100	0.698040
C931	C93	0.059400	0.778400	0.419600
C941	C94	0.046000	0.742000	0.371200
H1611	H161	0.055700	0.772600	0.343000
H1621	H162	0.006800	0.731400	0.370000
H1631	H163	0.067000	0.698200	0.368900
O741	O74	0.090600	0.753300	0.451800
O751	O75	0.033000	0.839400	0.426000
C951	C95	0.348600	0.837100	0.573100
C961	C96	0.402800	0.800200	0.573600
H1641	H164	0.432300	0.834900	0.572900
H1651	H165	0.405600	0.769600	0.544200
H1661	H166	0.405800	0.771800	0.604100
O761	O76	0.307100	0.797500	0.563370
O771	O77	0.345970	0.899300	0.583680
Na91	Na9	0.060900	0.815330	0.725440
Na101	Na10	0.031910	0.923240	0.488080
Na111	Na11	0.275000	0.981930	0.610170
Na121	Na12	0.189480	0.646050	0.543350
O781	O78	0.050470	0.042820	0.470300
H1671	H167	0.048700	0.060800	0.441700
H1681	H168	0.081500	0.052900	0.481800
Mn191	Mn19	0.369110	0.760500	0.129780
Mn201	Mn20	0.272050	0.680130	0.075510
Mn211	Mn21	0.348520	0.549340	0.053900
Mn221	Mn22	0.332230	0.608860	0.161000
Mn231	Mn23	0.445780	0.628940	0.109680
Mn241	Mn24	0.385830	0.703600	0.017410
O791	O79	0.354390	0.652300	0.096170
C971	C97	0.492400	0.789600	0.074500
C981	C98	0.441100	0.829900	0.057600
H1691	H169	0.438800	0.874300	0.076800
H1701	H170	0.445100	0.842200	0.021800
O801	O80	0.391220	0.791570	0.064200
C991	C99	0.488900	0.771100	0.129600
H1711	H171	0.523500	0.748200	0.139800
H1721	H172	0.485200	0.814900	0.149200
O811	O81	0.444110	0.725380	0.141620
C1001	C100	0.503000	0.724300	0.043200
H1731	H173	0.508000	0.738700	0.007900
H1741	H174	0.537800	0.702800	0.054600
O821	O82	0.461420	0.672570	0.045340
C1011	C101	0.541500	0.839800	0.067700
H1751	H175	0.574900	0.817000	0.079900
H1761	H176	0.535100	0.883000	0.086700
H1771	H177	0.545800	0.851100	0.032100
C1021	C102	0.414000	0.462000	0.146900
C1031	C103	0.427000	0.518600	0.185400
H1781	H178	0.408000	0.506700	0.217100
H1791	H179	0.466800	0.517700	0.192200
O831	O83	0.411830	0.588660	0.171250
C1041	C104	0.352900	0.454600	0.138400
H1801	H180	0.346600	0.414500	0.115500
H1811	H181	0.335300	0.443000	0.170800
O841	O84	0.326900	0.515020	0.118140
C1051	C105	0.443200	0.475700	0.097700
H1821	H182	0.483100	0.477800	0.104100
H1831	H183	0.436400	0.435600	0.075000
O851	O85	0.426950	0.539330	0.072580
C1061	C106	0.435400	0.391800	0.168100
H1841	H184	0.417200	0.381900	0.200100
H1851	H185	0.475000	0.395100	0.173400
H1861	H186	0.427600	0.353900	0.144400
C1071	C107	0.249100	0.749700	0.192100
C1081	C108	0.253900	0.797300	0.147000
H1871	H187	0.217300	0.802300	0.131400
H1881	H188	0.265700	0.844400	0.158300
O861	O86	0.291650	0.772400	0.109970
C1091	C109	0.225800	0.678500	0.178000
H1891	H189	0.222700	0.649600	0.208700
H1901	H190	0.188400	0.685300	0.164500
O871	O87	0.257750	0.640020	0.141580
C1101	C110	0.303800	0.742500	0.219700
H1911	H191	0.315400	0.789500	0.231400
H1921	H192	0.298200	0.712700	0.249600
O881	O88	0.346730	0.712880	0.190010
C1111	C111	0.208600	0.784200	0.228800
H1931	H193	0.172300	0.786800	0.213200
H1941	H194	0.221300	0.831600	0.237000
H1951	H195	0.206500	0.756000	0.259400
C1121	C112	0.278700	0.617000	0.955800
C1131	C113	0.248900	0.575300	0.995400
H1961	H196	0.210300	0.591100	0.996800
H1971	H197	0.248900	0.525100	0.985800
O891	O89	0.272730	0.582200	0.044320
C1141	C114	0.337900	0.591600	0.950700
H1981	H198	0.337400	0.541500	0.940800
H1991	H199	0.355600	0.618200	0.923200
O901	O90	0.370680	0.598900	0.994900
C1151	C115	0.275300	0.696300	0.966800
H2001	H200	0.293900	0.721800	0.939400
H2011	H201	0.236300	0.710400	0.966400
O911	O91	0.298700	0.718200	0.013240
C1161	C116	0.250300	0.605400	0.905700
H2021	H202	0.255200	0.556500	0.895200
H2031	H203	0.266300	0.636700	0.880500
H2041	H204	0.211200	0.615500	0.909100
C1171	C117	0.310000	0.408600	0.016000
C1181	C118	0.318700	0.345100	0.984300
H2051	H205	0.288900	0.341200	0.959800
H2061	H206	0.319200	0.303100	0.005500
H2071	H207	0.353800	0.349100	0.966600
O921	O92	0.349060	0.454320	0.015510
O931	O93	0.267950	0.415200	0.040520
C1191	C119	0.554000	0.612000	0.163400
C1201	C120	0.611900	0.587800	0.163800
H2081	H208	0.631600	0.610700	0.191200
H2091	H209	0.629300	0.600000	0.131900
H2101	H210	0.613000	0.536800	0.168400
O941	O94	0.527730	0.600900	0.122470
O951	O95	0.533070	0.639000	0.200920
C1211	C121	0.368600	0.916700	0.149400
C1221	C122	0.391300	0.978000	0.178300
H2111	H211	0.386300	0.021200	0.158900
H2121	H212	0.430400	0.970400	0.184500
H2131	H213	0.372000	0.982100	0.210300
O961	O96	0.382820	0.855800	0.166080
O971	O97	0.339060	0.926800	0.112390
C1231	C123	0.271800	0.520300	0.230700
C1241	C124	0.269000	0.489100	0.279500
H2141	H214	0.243800	0.449000	0.278800
H2151	H215	0.255800	0.524000	0.303700
H2161	H216	0.305500	0.473000	0.289500
O981	O98	0.311750	0.566100	0.223130
O991	O99	0.239640	0.501900	0.198040
C1251	C125	0.440600	0.721600	0.919600
C1261	C126	0.454000	0.758000	0.871200
H2171	H217	0.444300	0.727400	0.843000
H2181	H218	0.493200	0.768600	0.870000
H2191	H219	0.433000	0.801800	0.868900
O1001	O100	0.409400	0.746700	0.951800
O1011	O101	0.467000	0.660600	0.926000
C1271	C127	0.151400	0.662900	0.073100
C1281	C128	0.097200	0.699800	0.073600
H2201	H220	0.067700	0.665100	0.072900
H2211	H221	0.094400	0.730400	0.044200
H2221	H222	0.094200	0.728200	0.104100
O1021	O102	0.192900	0.702500	0.063370
O1031	O103	0.154030	0.600700	0.083680
Na131	Na13	0.439100	0.684670	0.225440
Na141	Na14	0.468090	0.576760	0.988080
Na151	Na15	0.225000	0.518070	0.110170
Na161	Na16	0.310520	0.853950	0.043350
O1041	O104	0.449530	0.457180	0.970300
H2231	H223	0.451300	0.439200	0.941700
H2241	H224	0.418500	0.447100	0.981800
Mn251	Mn25	0.130890	0.260500	0.129780
Mn261	Mn26	0.227950	0.180130	0.075510
Mn271	Mn27	0.151480	0.049340	0.053900
Mn281	Mn28	0.167770	0.108860	0.161000
Mn291	Mn29	0.054220	0.128940	0.109680
Mn301	Mn30	0.114170	0.203600	0.017410
O1051	O105	0.145610	0.152300	0.096170
C1291	C129	0.007600	0.289600	0.074500
C1301	C130	0.058900	0.329900	0.057600
H2251	H225	0.061200	0.374300	0.076800
H2261	H226	0.054900	0.342200	0.021800
O1061	O106	0.108780	0.291570	0.064200
C1311	C131	0.011100	0.271100	0.129600
H2271	H227	0.976500	0.248200	0.139800
H2281	H228	0.014800	0.314900	0.149200
O1071	O107	0.055890	0.225380	0.141620
C1321	C132	0.997000	0.224300	0.043200
H2291	H229	0.992000	0.238700	0.007900
H2301	H230	0.962200	0.202800	0.054600
O1081	O108	0.038580	0.172570	0.045340
C1331	C133	0.958500	0.339800	0.067700
H2311	H231	0.925100	0.317000	0.079900
H2321	H232	0.964900	0.383000	0.086700
H2331	H233	0.954200	0.351100	0.032100
C1341	C134	0.086000	0.962000	0.146900
C1351	C135	0.073000	0.018600	0.185400
H2341	H234	0.092000	0.006700	0.217100
H2351	H235	0.033200	0.017700	0.192200
O1091	O109	0.088170	0.088660	0.171250
C1361	C136	0.147100	0.954600	0.138400
H2361	H236	0.153400	0.914500	0.115500
H2371	H237	0.164700	0.943000	0.170800
O1101	O110	0.173100	0.015020	0.118140
C1371	C137	0.056800	0.975700	0.097700
H2381	H238	0.016900	0.977800	0.104100
H2391	H239	0.063600	0.935600	0.075000
O1111	O111	0.073050	0.039330	0.072580
C1381	C138	0.064600	0.891800	0.168100
H2401	H240	0.082800	0.881900	0.200100
H2411	H241	0.025000	0.895100	0.173400
H2421	H242	0.072400	0.853900	0.144400
C1391	C139	0.250900	0.249700	0.192100
C1401	C140	0.246100	0.297300	0.147000
H2431	H243	0.282700	0.302300	0.131400
H2441	H244	0.234300	0.344400	0.158300
O1121	O112	0.208350	0.272400	0.109970
C1411	C141	0.274200	0.178500	0.178000
H2451	H245	0.277300	0.149600	0.208700
H2461	H246	0.311600	0.185300	0.164500
O1131	O113	0.242250	0.140020	0.141580
C1421	C142	0.196200	0.242500	0.219700
H2471	H247	0.184600	0.289500	0.231400
H2481	H248	0.201800	0.212700	0.249600
O1141	O114	0.153270	0.212880	0.190010
C1431	C143	0.291400	0.284200	0.228800
H2491	H249	0.327700	0.286800	0.213200
H2501	H250	0.278700	0.331600	0.237000
H2511	H251	0.293500	0.256000	0.259400
C1441	C144	0.221300	0.117000	0.955800
C1451	C145	0.251100	0.075300	0.995400
H2521	H252	0.289700	0.091100	0.996800
H2531	H253	0.251100	0.025100	0.985800
O1151	O115	0.227270	0.082200	0.044320
C1461	C146	0.162100	0.091600	0.950700
H2541	H254	0.162600	0.041500	0.940800
H2551	H255	0.144400	0.118200	0.923200
O1161	O116	0.129320	0.098900	0.994900
C1471	C147	0.224700	0.196300	0.966800
H2561	H256	0.206100	0.221800	0.939400
H2571	H257	0.263700	0.210400	0.966400
O1171	O117	0.201300	0.218200	0.013240
C1481	C148	0.249700	0.105400	0.905700
H2581	H258	0.244800	0.056500	0.895200
H2591	H259	0.233700	0.136700	0.880500
H2601	H260	0.288800	0.115500	0.909100
C1491	C149	0.190000	0.908600	0.016000
C1501	C150	0.181300	0.845100	0.984300
H2611	H261	0.211100	0.841200	0.959800
H2621	H262	0.180800	0.803100	0.005500
H2631	H263	0.146200	0.849100	0.966600
O1181	O118	0.150940	0.954320	0.015510
O1191	O119	0.232050	0.915200	0.040520
C1511	C151	0.946000	0.112000	0.163400
C1521	C152	0.888100	0.087800	0.163800
H2641	H264	0.868400	0.110700	0.191200
H2651	H265	0.870700	0.100000	0.131900
H2661	H266	0.887000	0.036800	0.168400
O1201	O120	0.972270	0.100900	0.122470
O1211	O121	0.966930	0.139000	0.200920
C1531	C153	0.131400	0.416700	0.149400
C1541	C154	0.108700	0.478000	0.178300
H2671	H267	0.113700	0.521200	0.158900
H2681	H268	0.069600	0.470400	0.184500
H2691	H269	0.128000	0.482100	0.210300
O1221	O122	0.117180	0.355800	0.166080
O1231	O123	0.160940	0.426800	0.112390
C1551	C155	0.228200	0.020300	0.230700
C1561	C156	0.231000	0.989100	0.279500
H2701	H270	0.256200	0.949000	0.278800
H2711	H271	0.244200	0.024000	0.303700
H2721	H272	0.194500	0.973000	0.289500
O1241	O124	0.188250	0.066100	0.223130
O1251	O125	0.260360	0.001900	0.198040
C1571	C157	0.059400	0.221600	0.919600
C1581	C158	0.046000	0.258000	0.871200
H2731	H273	0.055700	0.227400	0.843000
H2741	H274	0.006800	0.268600	0.870000
H2751	H275	0.067000	0.301800	0.868900
O1261	O126	0.090600	0.246700	0.951800
O1271	O127	0.033000	0.160600	0.926000
C1591	C159	0.348600	0.162900	0.073100
C1601	C160	0.402800	0.199800	0.073600
H2761	H276	0.432300	0.165100	0.072900
H2771	H277	0.405600	0.230400	0.044200
H2781	H278	0.405800	0.228200	0.104100
O1281	O128	0.307100	0.202500	0.063370
O1291	O129	0.345970	0.100700	0.083680
Na171	Na17	0.060900	0.184670	0.225440
Na181	Na18	0.031910	0.076760	0.988080
Na191	Na19	0.275000	0.018070	0.110170
Na201	Na20	0.189480	0.353950	0.043350
O1301	O130	0.050470	0.957180	0.970300
H2791	H279	0.048700	0.939200	0.941700
H2801	H280	0.081500	0.947100	0.981800
Mn311	Mn31	0.369110	0.239500	0.629780
Mn321	Mn32	0.272050	0.319870	0.575510
Mn331	Mn33	0.348520	0.450660	0.553900
Mn341	Mn34	0.332230	0.391140	0.661000
Mn351	Mn35	0.445780	0.371060	0.609680
Mn361	Mn36	0.385830	0.296400	0.517410
O1311	O131	0.354390	0.347700	0.596170
C1611	C161	0.492400	0.210400	0.574500
C1621	C162	0.441100	0.170100	0.557600
H2811	H281	0.438800	0.125700	0.576800
H2821	H282	0.445100	0.157800	0.521800
O1321	O132	0.391220	0.208430	0.564200
C1631	C163	0.488900	0.228900	0.629600
H2831	H283	0.523500	0.251800	0.639800
H2841	H284	0.485200	0.185100	0.649200
O1331	O133	0.444110	0.274620	0.641620
C1641	C164	0.503000	0.275700	0.543200
H2851	H285	0.508000	0.261300	0.507900
H2861	H286	0.537800	0.297200	0.554600
O1341	O134	0.461420	0.327430	0.545340
C1651	C165	0.541500	0.160200	0.567700
H2871	H287	0.574900	0.183000	0.579900
H2881	H288	0.535100	0.117000	0.586700
H2891	H289	0.545800	0.148900	0.532100
C1661	C166	0.414000	0.538000	0.646900
C1671	C167	0.427000	0.481400	0.685400
H2901	H290	0.408000	0.493300	0.717100
H2911	H291	0.466800	0.482300	0.692200
O1351	O135	0.411830	0.411340	0.671250
C1681	C168	0.352900	0.545400	0.638400
H2921	H292	0.346600	0.585500	0.615500
H2931	H293	0.335300	0.557000	0.670800
O1361	O136	0.326900	0.484980	0.618140
C1691	C169	0.443200	0.524300	0.597700
H2941	H294	0.483100	0.522200	0.604100
H2951	H295	0.436400	0.564400	0.575000
O1371	O137	0.426950	0.460670	0.572580
C1701	C170	0.435400	0.608200	0.668100
H2961	H296	0.417200	0.618100	0.700100
H2971	H297	0.475000	0.604900	0.673400
H2981	H298	0.427600	0.646100	0.644400
C1711	C171	0.249100	0.250300	0.692100
C1721	C172	0.253900	0.202700	0.647000
H2991	H299	0.217300	0.197700	0.631400
H3001	H300	0.265700	0.155600	0.658300
O1381	O138	0.291650	0.227600	0.609970
C1731	C173	0.225800	0.321500	0.678000
H3011	H301	0.222700	0.350400	0.708700
H3021	H302	0.188400	0.314700	0.664500
O1391	O139	0.257750	0.359980	0.641580
C1741	C174	0.303800	0.257500	0.719700
H3031	H303	0.315400	0.210500	0.731400
H3041	H304	0.298200	0.287300	0.749600
O1401	O140	0.346730	0.287120	0.690010
C1751	C175	0.208600	0.215800	0.728800
H3051	H305	0.172300	0.213200	0.713200
H3061	H306	0.221300	0.168400	0.737000
H3071	H307	0.206500	0.244000	0.759400
C1761	C176	0.278700	0.383000	0.455800
C1771	C177	0.248900	0.424700	0.495400
H3081	H308	0.210300	0.408900	0.496800
H3091	H309	0.248900	0.474900	0.485800
O1411	O141	0.272730	0.417800	0.544320
C1781	C178	0.337900	0.408400	0.450700
H3101	H310	0.337400	0.458500	0.440800
H3111	H311	0.355600	0.381800	0.423200
O1421	O142	0.370680	0.401100	0.494900
C1791	C179	0.275300	0.303700	0.466800
H3121	H312	0.293900	0.278200	0.439400
H3131	H313	0.236300	0.289600	0.466400
O1431	O143	0.298700	0.281800	0.513240
C1801	C180	0.250300	0.394600	0.405700
H3141	H314	0.255200	0.443500	0.395200
H3151	H315	0.266300	0.363300	0.380500
H3161	H316	0.211200	0.384500	0.409100
C1811	C181	0.310000	0.591400	0.516000
C1821	C182	0.318700	0.654900	0.484300
H3171	H317	0.288900	0.658800	0.459800
H3181	H318	0.319200	0.696900	0.505500
H3191	H319	0.353800	0.650900	0.466600
O1441	O144	0.349060	0.545680	0.515510
O1451	O145	0.267950	0.584800	0.540520
C1831	C183	0.554000	0.388000	0.663400
C1841	C184	0.611900	0.412200	0.663800
H3201	H320	0.631600	0.389300	0.691200
H3211	H321	0.629300	0.400000	0.631900
H3221	H322	0.613000	0.463200	0.668400
O1461	O146	0.527730	0.399100	0.622470
O1471	O147	0.533070	0.361000	0.700920
C1851	C185	0.368600	0.083300	0.649400
C1861	C186	0.391300	0.022000	0.678300
H3231	H323	0.386300	0.978800	0.658900
H3241	H324	0.430400	0.029600	0.684500
H3251	H325	0.372000	0.017900	0.710300
O1481	O148	0.382820	0.144200	0.666080
O1491	O149	0.339060	0.073200	0.612390
C1871	C187	0.271800	0.479700	0.730700
C1881	C188	0.269000	0.510900	0.779500
H3261	H326	0.243800	0.551000	0.778800
H3271	H327	0.255800	0.476000	0.803700
H3281	H328	0.305500	0.527000	0.789500
O1501	O150	0.311750	0.433900	0.723130
O1511	O151	0.239640	0.498100	0.698040
C1891	C189	0.440600	0.278400	0.419600
C1901	C190	0.454000	0.242000	0.371200
H3291	H329	0.444300	0.272600	0.343000
H3301	H330	0.493200	0.231400	0.370000
H3311	H331	0.433000	0.198200	0.368900
O1521	O152	0.409400	0.253300	0.451800
O1531	O153	0.467000	0.339400	0.426000
C1911	C191	0.151400	0.337100	0.573100
C1921	C192	0.097200	0.300200	0.573600
H3321	H332	0.067700	0.334900	0.572900
H3331	H333	0.094400	0.269600	0.544200
H3341	H334	0.094200	0.271800	0.604100
O1541	O154	0.192900	0.297500	0.563370
O1551	O155	0.154030	0.399300	0.583680
Na211	Na21	0.439100	0.315330	0.725440
Na221	Na22	0.468090	0.423240	0.488080
Na231	Na23	0.225000	0.481930	0.610170
Na241	Na24	0.310520	0.146050	0.543350
O1561	O156	0.449530	0.542820	0.470300
H3351	H335	0.451300	0.560800	0.441700
H3361	H336	0.418500	0.552900	0.481800
Mn371	Mn37	0.869110	0.260500	0.370220
Mn381	Mn38	0.772050	0.180130	0.424490
Mn391	Mn39	0.848520	0.049340	0.446100
Mn401	Mn40	0.832230	0.108860	0.339000
Mn411	Mn41	0.945780	0.128940	0.390320
Mn421	Mn42	0.885830	0.203600	0.482590
O1571	O157	0.854390	0.152300	0.403830
C1931	C193	0.992400	0.289600	0.425500
C1941	C194	0.941100	0.329900	0.442400
H3371	H337	0.938800	0.374300	0.423200
H3381	H338	0.945100	0.342200	0.478200
O1581	O158	0.891220	0.291570	0.435800
C1951	C195	0.988900	0.271100	0.370400
H3391	H339	0.023500	0.248200	0.360200
H3401	H340	0.985200	0.314900	0.350800
O1591	O159	0.944110	0.225380	0.358380
C1961	C196	0.003000	0.224300	0.456800
H3411	H341	0.008000	0.238700	0.492100
H3421	H342	0.037800	0.202800	0.445400
O1601	O160	0.961420	0.172570	0.454660
C1971	C197	0.041500	0.339800	0.432300
H3431	H343	0.074900	0.317000	0.420100
H3441	H344	0.035100	0.383000	0.413300
H3451	H345	0.045800	0.351100	0.467900
C1981	C198	0.914000	0.962000	0.353100
C1991	C199	0.927000	0.018600	0.314600
H3461	H346	0.908000	0.006700	0.282900
H3471	H347	0.966800	0.017700	0.307800
O1611	O161	0.911830	0.088660	0.328750
C2001	C200	0.852900	0.954600	0.361600
H3481	H348	0.846600	0.914500	0.384500
H3491	H349	0.835300	0.943000	0.329200
O1621	O162	0.826900	0.015020	0.381860
C2011	C201	0.943200	0.975700	0.402300
H3501	H350	0.983100	0.977800	0.395900
H3511	H351	0.936400	0.935600	0.425000
O1631	O163	0.926950	0.039330	0.427420
C2021	C202	0.935400	0.891800	0.331900
H3521	H352	0.917200	0.881900	0.299900
H3531	H353	0.975000	0.895100	0.326600
H3541	H354	0.927600	0.853900	0.355600
C2031	C203	0.749100	0.249700	0.307900
C2041	C204	0.753900	0.297300	0.353000
H3551	H355	0.717300	0.302300	0.368600
H3561	H356	0.765700	0.344400	0.341700
O1641	O164	0.791650	0.272400	0.390030
C2051	C205	0.725800	0.178500	0.322000
H3571	H357	0.722700	0.149600	0.291300
H3581	H358	0.688400	0.185300	0.335500
O1651	O165	0.757750	0.140020	0.358420
C2061	C206	0.803800	0.242500	0.280300
H3591	H359	0.815400	0.289500	0.268600
H3601	H360	0.798200	0.212700	0.250400
O1661	O166	0.846730	0.212880	0.309990
C2071	C207	0.708600	0.284200	0.271200
H3611	H361	0.672300	0.286800	0.286800
H3621	H362	0.721300	0.331600	0.263000
H3631	H363	0.706500	0.256000	0.240600
C2081	C208	0.778700	0.117000	0.544200
C2091	C209	0.748900	0.075300	0.504600
H3641	H364	0.710300	0.091100	0.503200
H3651	H365	0.748900	0.025100	0.514200
O1671	O167	0.772730	0.082200	0.455680
C2101	C210	0.837900	0.091600	0.549300
H3661	H366	0.837400	0.041500	0.559200
H3671	H367	0.855600	0.118200	0.576800
O1681	O168	0.870680	0.098900	0.505100
C2111	C211	0.775300	0.196300	0.533200
H3681	H368	0.793900	0.221800	0.560600
H3691	H369	0.736300	0.210400	0.533600
O1691	O169	0.798700	0.218200	0.486760
C2121	C212	0.750300	0.105400	0.594300
H3701	H370	0.755200	0.056500	0.604800
H3711	H371	0.766300	0.136700	0.619500
H3721	H372	0.711200	0.115500	0.590900
C2131	C213	0.810000	0.908600	0.484000
C2141	C214	0.818700	0.845100	0.515700
H3731	H373	0.788900	0.841200	0.540200
H3741	H374	0.819200	0.803100	0.494500
H3751	H375	0.853800	0.849100	0.533400
O1701	O170	0.849060	0.954320	0.484490
O1711	O171	0.767950	0.915200	0.459480
C2151	C215	0.054000	0.112000	0.336600
C2161	C216	0.111900	0.087800	0.336200
H3761	H376	0.131600	0.110700	0.308800
H3771	H377	0.129300	0.100000	0.368100
H3781	H378	0.113000	0.036800	0.331600
O1721	O172	0.027730	0.100900	0.377530
O1731	O173	0.033070	0.139000	0.299080
C2171	C217	0.868600	0.416700	0.350600
C2181	C218	0.891300	0.478000	0.321700
H3791	H379	0.886300	0.521200	0.341100
H3801	H380	0.930400	0.470400	0.315500
H3811	H381	0.872000	0.482100	0.289700
O1741	O174	0.882820	0.355800	0.333920
O1751	O175	0.839060	0.426800	0.387610
C2191	C219	0.771800	0.020300	0.269300
C2201	C220	0.769000	0.989100	0.220500
H3821	H382	0.743800	0.949000	0.221200
H3831	H383	0.755800	0.024000	0.196300
H3841	H384	0.805500	0.973000	0.210500
O1761	O176	0.811750	0.066100	0.276870
O1771	O177	0.739640	0.001900	0.301960
C2211	C221	0.940600	0.221600	0.580400
C2221	C222	0.954000	0.258000	0.628800
H3851	H385	0.944300	0.227400	0.657000
H3861	H386	0.993200	0.268600	0.630000
H3871	H387	0.933000	0.301800	0.631100
O1781	O178	0.909400	0.246700	0.548200
O1791	O179	0.967000	0.160600	0.574000
C2231	C223	0.651400	0.162900	0.426900
C2241	C224	0.597200	0.199800	0.426400
H3881	H388	0.567700	0.165100	0.427100
H3891	H389	0.594400	0.230400	0.455800
H3901	H390	0.594200	0.228200	0.395900
O1801	O180	0.692900	0.202500	0.436630
O1811	O181	0.654030	0.100700	0.416320
Na251	Na25	0.939100	0.184670	0.274560
Na261	Na26	0.968090	0.076760	0.511920
Na271	Na27	0.725000	0.018070	0.389830
Na281	Na28	0.810520	0.353950	0.456650
O1821	O182	0.949530	0.957180	0.529700
H3911	H391	0.951300	0.939200	0.558300
H3921	H392	0.918500	0.947100	0.518200
Mn431	Mn43	0.630890	0.239500	0.870220
Mn441	Mn44	0.727950	0.319870	0.924490
Mn451	Mn45	0.651480	0.450660	0.946100
Mn461	Mn46	0.667770	0.391140	0.839000
Mn471	Mn47	0.554220	0.371060	0.890320
Mn481	Mn48	0.614170	0.296400	0.982590
O1831	O183	0.645610	0.347700	0.903830
C2251	C225	0.507600	0.210400	0.925500
C2261	C226	0.558900	0.170100	0.942400
H3931	H393	0.561200	0.125700	0.923200
H3941	H394	0.554900	0.157800	0.978200
O1841	O184	0.608780	0.208430	0.935800
C2271	C227	0.511100	0.228900	0.870400
H3951	H395	0.476500	0.251800	0.860200
H3961	H396	0.514800	0.185100	0.850800
O1851	O185	0.555890	0.274620	0.858380
C2281	C228	0.497000	0.275700	0.956800
H3971	H397	0.492000	0.261300	0.992100
H3981	H398	0.462200	0.297200	0.945400
O1861	O186	0.538580	0.327430	0.954660
C2291	C229	0.458500	0.160200	0.932300
H3991	H399	0.425100	0.183000	0.920100
H4001	H400	0.464900	0.117000	0.913300
H4011	H401	0.454200	0.148900	0.967900
C2301	C230	0.586000	0.538000	0.853100
C2311	C231	0.573000	0.481400	0.814600
H4021	H402	0.592000	0.493300	0.782900
H4031	H403	0.533200	0.482300	0.807800
O1871	O187	0.588170	0.411340	0.828750
C2321	C232	0.647100	0.545400	0.861600
H4041	H404	0.653400	0.585500	0.884500
H4051	H405	0.664700	0.557000	0.829200
O1881	O188	0.673100	0.484980	0.881860
C2331	C233	0.556800	0.524300	0.902300
H4061	H406	0.516900	0.522200	0.895900
H4071	H407	0.563600	0.564400	0.925000
O1891	O189	0.573050	0.460670	0.927420
C2341	C234	0.564600	0.608200	0.831900
H4081	H408	0.582800	0.618100	0.799900
H4091	H409	0.525000	0.604900	0.826600
H4101	H410	0.572400	0.646100	0.855600
C2351	C235	0.750900	0.250300	0.807900
C2361	C236	0.746100	0.202700	0.853000
H4111	H411	0.782700	0.197700	0.868600
H4121	H412	0.734300	0.155600	0.841700
O1901	O190	0.708350	0.227600	0.890030
C2371	C237	0.774200	0.321500	0.822000
H4131	H413	0.777300	0.350400	0.791300
H4141	H414	0.811600	0.314700	0.835500
O1911	O191	0.742250	0.359980	0.858420
C2381	C238	0.696200	0.257500	0.780300
H4151	H415	0.684600	0.210500	0.768600
H4161	H416	0.701800	0.287300	0.750400
O1921	O192	0.653270	0.287120	0.809990
C2391	C239	0.791400	0.215800	0.771200
H4171	H417	0.827700	0.213200	0.786800
H4181	H418	0.778700	0.168400	0.763000
H4191	H419	0.793500	0.244000	0.740600
C2401	C240	0.721300	0.383000	0.044200
C2411	C241	0.751100	0.424700	0.004600
H4201	H420	0.789700	0.408900	0.003200
H4211	H421	0.751100	0.474900	0.014200
O1931	O193	0.727270	0.417800	0.955680
C2421	C242	0.662100	0.408400	0.049300
H4221	H422	0.662600	0.458500	0.059200
H4231	H423	0.644400	0.381800	0.076800
O1941	O194	0.629320	0.401100	0.005100
C2431	C243	0.724700	0.303700	0.033200
H4241	H424	0.706100	0.278200	0.060600
H4251	H425	0.763700	0.289600	0.033600
O1951	O195	0.701300	0.281800	0.986760
C2441	C244	0.749700	0.394600	0.094300
H4261	H426	0.744800	0.443500	0.104800
H4271	H427	0.733700	0.363300	0.119500
H4281	H428	0.788800	0.384500	0.090900
C2451	C245	0.690000	0.591400	0.984000
C2461	C246	0.681300	0.654900	0.015700
H4291	H429	0.711100	0.658800	0.040200
H4301	H430	0.680800	0.696900	0.994500
H4311	H431	0.646200	0.650900	0.033400
O1961	O196	0.650940	0.545680	0.984490
O1971	O197	0.732050	0.584800	0.959480
C2471	C247	0.446000	0.388000	0.836600
C2481	C248	0.388100	0.412200	0.836200
H4321	H432	0.368400	0.389300	0.808800
H4331	H433	0.370700	0.400000	0.868100
H4341	H434	0.387000	0.463200	0.831600
O1981	O198	0.472270	0.399100	0.877530
O1991	O199	0.466930	0.361000	0.799080
C2491	C249	0.631400	0.083300	0.850600
C2501	C250	0.608700	0.022000	0.821700
H4351	H435	0.613700	0.978800	0.841100
H4361	H436	0.569600	0.029600	0.815500
H4371	H437	0.628000	0.017900	0.789700
O2001	O200	0.617180	0.144200	0.833920
O2011	O201	0.660940	0.073200	0.887610
C2511	C251	0.728200	0.479700	0.769300
C2521	C252	0.731000	0.510900	0.720500
H4381	H438	0.756200	0.551000	0.721200
H4391	H439	0.744200	0.476000	0.696300
H4401	H440	0.694500	0.527000	0.710500
O2021	O202	0.688250	0.433900	0.776870
O2031	O203	0.760360	0.498100	0.801960
C2531	C253	0.559400	0.278400	0.080400
C2541	C254	0.546000	0.242000	0.128800
H4411	H441	0.555700	0.272600	0.157000
H4421	H442	0.506800	0.231400	0.130000
H4431	H443	0.567000	0.198200	0.131100
O2041	O204	0.590600	0.253300	0.048200
O2051	O205	0.533000	0.339400	0.074000
C2551	C255	0.848600	0.337100	0.926900
C2561	C256	0.902800	0.300200	0.926400
H4441	H444	0.932300	0.334900	0.927100
H4451	H445	0.905600	0.269600	0.955800
H4461	H446	0.905800	0.271800	0.895900
O2061	O206	0.807100	0.297500	0.936630
O2071	O207	0.845970	0.399300	0.916320
Na291	Na29	0.560900	0.315330	0.774560
Na301	Na30	0.531910	0.423240	0.011920
Na311	Na31	0.775000	0.481930	0.889830
Na321	Na32	0.689480	0.146050	0.956650
O2081	O208	0.550470	0.542820	0.029700
H4471	H447	0.548700	0.560800	0.058300
H4481	H448	0.581500	0.552900	0.018200
