data_HUHJOL_clean_PM
_symmetry_space_group_name_H-M	'P1'
_cell_length_a	12.843200
_cell_length_b	19.560700
_cell_length_c	25.691000
_cell_angle_alpha	79.224000
_cell_angle_beta	78.864000
_cell_angle_gamma	71.244000
_symmetry_Int_Tables_number 1

loop_
_symmetry_equiv_pos_as_xyz
'x,y,z'

loop_
_atom_site_label
_atom_site_type_symbol
_atom_site_fract_x
_atom_site_fract_y
_atom_site_fract_z
Mn11	Mn1	0.689640	0.374900	0.382880
Mn21	Mn2	0.742100	0.451150	0.262760
Mn31	Mn3	0.658760	0.310320	0.279850
Mn41	Mn4	0.505470	0.464950	0.243210
Mn51	Mn5	0.530060	0.529760	0.338250
Mn61	Mn6	0.443890	0.390250	0.357930
Na11	Na1	0.914000	0.288030	0.303700
Na21	Na2	0.447800	0.453840	0.466990
Na31	Na3	0.578400	0.624900	0.213150
O11	O1	0.589000	0.426200	0.306470
C11	C1	0.781100	0.526700	0.364600
C21	C2	0.687100	0.517900	0.410200
H11	H1	0.720400	0.488700	0.442000
H21	H2	0.642900	0.566700	0.420000
O21	O2	0.613500	0.483500	0.396910
C31	C3	0.734800	0.574500	0.315800
H31	H3	0.691100	0.623200	0.325800
H41	H4	0.797400	0.580800	0.288100
O31	O3	0.664300	0.546000	0.292970
C41	C4	0.859000	0.452300	0.349900
H51	H5	0.922200	0.460600	0.323300
H61	H6	0.889400	0.422900	0.382300
O41	O4	0.806000	0.411400	0.328280
C51	C5	0.851700	0.567000	0.383100
H71	H7	0.900500	0.582300	0.351400
H81	H8	0.800600	0.611700	0.396900
C61	C6	0.923700	0.524000	0.425700
H91	H9	0.877000	0.507800	0.457400
H101	H10	0.961500	0.555000	0.435500
H111	H11	0.979200	0.481500	0.411700
C71	C7	0.724400	0.386900	0.151200
C81	C8	0.621300	0.360200	0.167200
H121	H12	0.565600	0.388600	0.143500
H131	H13	0.642300	0.308500	0.161700
O51	O5	0.571000	0.366900	0.222510
C91	C9	0.814400	0.343900	0.186300
H141	H14	0.836500	0.291800	0.181700
H151	H15	0.880600	0.361300	0.173800
O61	O6	0.780300	0.350400	0.242460
C101	C10	0.695700	0.469100	0.153900
H161	H16	0.763800	0.484300	0.141200
H171	H17	0.641200	0.496100	0.129200
O71	O7	0.651300	0.488900	0.205810
C111	C11	0.776200	0.370800	0.092900
H181	H18	0.847000	0.383200	0.083800
H191	H19	0.793900	0.317900	0.092000
C121	C12	0.703600	0.411400	0.049900
H201	H20	0.699600	0.463100	0.044400
H211	H21	0.628700	0.406500	0.061200
H221	H22	0.735700	0.390900	0.016300
C131	C13	0.604600	0.220500	0.403800
C141	C14	0.722500	0.218900	0.378700
H231	H23	0.768200	0.210000	0.407600
H241	H24	0.754100	0.177700	0.357500
O81	O8	0.730200	0.284400	0.344750
C151	C15	0.554300	0.280800	0.440500
H251	H25	0.480600	0.277200	0.458800
H261	H26	0.602400	0.271500	0.468500
O91	O9	0.541400	0.353700	0.413740
C161	C16	0.532500	0.230700	0.361600
H271	H27	0.563400	0.189300	0.340600
H281	H28	0.457300	0.229700	0.379500
O101	O10	0.522900	0.297000	0.326000
C171	C17	0.607500	0.147600	0.441200
H291	H29	0.635700	0.148700	0.474100
H301	H30	0.530300	0.145200	0.451700
C181	C18	0.678300	0.077200	0.417700
H311	H31	0.662000	0.079700	0.381600
H321	H32	0.660700	0.035200	0.440600
H331	H33	0.757300	0.072100	0.416100
C191	C19	0.263400	0.554900	0.319800
C201	C20	0.336000	0.596600	0.280900
H341	H34	0.311600	0.607300	0.245200
H351	H35	0.324500	0.643600	0.293500
O111	O11	0.453500	0.557300	0.275570
C211	C21	0.294800	0.538800	0.374400
H361	H36	0.285400	0.585500	0.387200
H371	H37	0.243000	0.515000	0.398700
O121	O12	0.406400	0.493100	0.377950
C221	C22	0.270600	0.484800	0.298100
H381	H38	0.217400	0.461600	0.321800
H391	H39	0.247000	0.498500	0.262200
O131	O13	0.377100	0.433000	0.294200
C231	C23	0.140500	0.602900	0.319800
H401	H40	0.124100	0.613300	0.282600
H411	H41	0.092100	0.574100	0.341000
C241	C24	0.108900	0.674900	0.341800
H421	H42	0.124000	0.665700	0.378900
H431	H43	0.029600	0.699700	0.340900
H441	H44	0.152600	0.705600	0.320000
C251	C25	0.982000	0.433400	0.221800
O141	O14	0.007800	0.370100	0.241400
O151	O15	0.880200	0.474900	0.220600
C261	C26	0.066300	0.471400	0.195200
H451	H45	0.140300	0.440700	0.202700
H461	H46	0.048800	0.517800	0.209100
H471	H47	0.065200	0.480600	0.156500
C271	C27	0.818200	0.176000	0.240000
O161	O16	0.887600	0.181600	0.266200
O171	O17	0.715400	0.212400	0.246340
C281	C28	0.857800	0.127100	0.196900
H481	H48	0.921600	0.138300	0.173300
H491	H49	0.797700	0.135000	0.176100
H501	H50	0.880000	0.076100	0.213400
C291	C29	0.272200	0.370500	0.451800
O181	O18	0.305400	0.400800	0.480000
O191	O19	0.312100	0.362300	0.402700
C301	C30	0.176100	0.339900	0.473400
H511	H51	0.145200	0.352500	0.509500
H521	H52	0.202000	0.286800	0.474700
H531	H53	0.118500	0.360600	0.450000
C311	C31	0.457500	0.690800	0.344100
O201	O20	0.489600	0.701100	0.295800
O211	O21	0.463700	0.627300	0.370450
C321	C32	0.413000	0.753600	0.376300
H541	H54	0.474600	0.770000	0.381300
H551	H55	0.375500	0.737900	0.411400
H561	H56	0.360000	0.793800	0.357300
C331	C33	0.414300	0.564000	0.153500
O221	O22	0.460400	0.610400	0.156600
O231	O23	0.423300	0.502600	0.183700
C341	C34	0.343500	0.579800	0.108700
H571	H57	0.264700	0.591700	0.124000
H581	H58	0.363600	0.536800	0.090400
H591	H59	0.356700	0.621100	0.083100
O241	O24	0.415700	0.578200	0.476800
H601	H60	0.431500	0.596800	0.445300
H611	H61	0.368400	0.611800	0.492000
Mn71	Mn7	0.234120	0.057060	0.154450
Mn81	Mn8	0.298660	0.963460	0.261360
Mn91	Mn9	0.311710	0.118850	0.241380
Mn101	Mn10	0.531720	0.986240	0.244110
Mn111	Mn11	0.457000	0.922830	0.156630
Mn121	Mn12	0.475600	0.088550	0.132680
Na41	Na4	0.058800	0.104010	0.277710
Na51	Na5	0.377600	0.026560	0.037590
Na61	Na6	0.552800	0.795810	0.254530
Na71	Na7	0.583900	0.155580	0.219680
O251	O25	0.375400	0.019100	0.204650
C351	C35	0.208800	0.885600	0.174800
C361	C36	0.259400	0.914700	0.120300
H621	H62	0.310000	0.873200	0.102300
H631	H63	0.199300	0.940200	0.098200
O261	O26	0.320600	0.964400	0.122620
C371	C37	0.124000	0.948100	0.202800
H641	H64	0.064800	0.973000	0.180200
H651	H65	0.089000	0.927000	0.237100
O271	O27	0.169600	0.001300	0.213400
C381	C38	0.297800	0.841300	0.209500
H661	H66	0.260900	0.823400	0.244500
H671	H67	0.344300	0.798100	0.192200
O281	O28	0.369300	0.880000	0.218770
C391	C39	0.141700	0.835700	0.166600
H681	H68	0.103500	0.820700	0.202200
H691	H69	0.083200	0.866000	0.144800
C401	C40	0.197700	0.772500	0.142600
H701	H70	0.216700	0.785900	0.104000
H711	H71	0.149800	0.740800	0.148700
H721	H72	0.265900	0.746600	0.158300
C411	C41	0.375700	0.023300	0.363100
C421	C42	0.442300	0.074400	0.331400
H731	H73	0.406100	0.123800	0.341600
H741	H74	0.517800	0.057300	0.341800
O291	O29	0.451800	0.078500	0.275180
C431	C43	0.257500	0.048700	0.351100
H751	H75	0.217900	0.014400	0.372200
H761	H76	0.220100	0.097000	0.363300
O301	O30	0.247300	0.054400	0.295400
C441	C44	0.431600	0.945100	0.351800
H771	H77	0.505900	0.928100	0.363400
H781	H78	0.387400	0.914000	0.373600
O311	O31	0.444200	0.935500	0.296490
C451	C45	0.371000	0.022600	0.423700
H791	H79	0.330900	0.987700	0.443100
H801	H80	0.448100	0.003400	0.432100
C461	C46	0.316600	0.095000	0.446400
H811	H81	0.353300	0.131100	0.427000
H821	H82	0.323900	0.087800	0.484500
H831	H83	0.237700	0.112500	0.442200
C471	C47	0.232100	0.233400	0.129500
C481	C48	0.272800	0.184300	0.085700
H841	H84	0.209100	0.188300	0.067700
H851	H85	0.327600	0.202300	0.058700
O321	O32	0.323000	0.108900	0.103960
C491	C49	0.326900	0.235100	0.155600
H861	H86	0.380200	0.253300	0.127700
H871	H87	0.297100	0.270400	0.181700
O331	O33	0.386000	0.166400	0.182530
C501	C50	0.144400	0.209500	0.171100
H881	H88	0.115000	0.244800	0.197300
H891	H89	0.082000	0.211000	0.153100
O341	O34	0.184400	0.138100	0.199250
C511	C51	0.173600	0.311300	0.104200
H901	H90	0.114700	0.308500	0.085600
H911	H91	0.136500	0.340900	0.133600
C521	C52	0.245600	0.351900	0.064700
H921	H92	0.272800	0.380000	0.083900
H931	H93	0.201500	0.385100	0.038000
H941	H94	0.308900	0.316800	0.046700
C531	C53	0.717700	0.942100	0.132000
C541	C54	0.705100	0.009400	0.157400
H951	H95	0.758300	0.995900	0.183500
H961	H96	0.725900	0.046600	0.129100
O351	O35	0.595100	0.041600	0.184340
C551	C55	0.689000	0.882600	0.174000
H971	H97	0.701800	0.838900	0.156600
H981	H98	0.740000	0.869200	0.201100
O361	O36	0.576000	0.902600	0.200820
C561	C56	0.643300	0.961500	0.087300
H991	H99	0.665600	0.998900	0.059800
H1001	H100	0.658400	0.917500	0.069900
O371	O37	0.527000	0.987600	0.103940
C571	C57	0.840000	0.915400	0.108000
H1011	H101	0.854800	0.951600	0.077200
H1021	H102	0.885900	0.914300	0.135200
C581	C58	0.877400	0.843800	0.089800
H1031	H103	0.863300	0.807200	0.119700
H1041	H104	0.957100	0.831500	0.076500
H1051	H105	0.836700	0.844900	0.060900
C591	C59	0.117100	0.931500	0.338300
O381	O38	0.056200	0.993700	0.331300
O391	O39	0.221200	0.909600	0.315600
C601	C60	0.080400	0.872500	0.374200
H1061	H106	0.126700	0.853200	0.402900
H1071	H107	0.087600	0.833300	0.353600
H1081	H108	0.002600	0.891700	0.389800
C611	C61	0.106900	0.086800	0.063000
O401	O40	0.190100	0.065900	0.030400
O411	O41	0.104900	0.086200	0.112710
C621	C62	0.991700	0.112200	0.045000
H1091	H109	0.966500	0.165600	0.038200
H1101	H110	0.939000	0.095000	0.073200
H1111	H111	0.995900	0.092300	0.012100
C631	C63	0.162300	0.231400	0.308200
O421	O42	0.259500	0.206400	0.282100
O431	O43	0.084800	0.206400	0.309550
C641	C64	0.150500	0.292600	0.338600
H1121	H112	0.143600	0.337900	0.313800
H1131	H113	0.216200	0.281600	0.356400
H1141	H114	0.084000	0.298200	0.365600
C651	C65	0.610100	0.183800	0.077900
O441	O44	0.553200	0.144900	0.068860
O451	O45	0.623300	0.190000	0.122500
C661	C66	0.662800	0.222500	0.029100
H1151	H115	0.607300	0.266900	0.016000
H1161	H116	0.691400	0.190500	0.001100
H1171	H117	0.724100	0.235400	0.038200
C671	C67	0.559100	0.770400	0.127000
O461	O46	0.561500	0.746600	0.174930
O471	O47	0.521600	0.838500	0.109120
C681	C68	0.601400	0.719600	0.084600
H1181	H118	0.606500	0.748200	0.049100
H1191	H119	0.550000	0.691000	0.086900
H1201	H120	0.675000	0.686600	0.090600
C691	C69	0.724200	0.986300	0.292300
O481	O48	0.664500	0.947800	0.284160
O491	O49	0.699100	0.053300	0.279100
C701	C70	0.823700	0.945500	0.317100
H1211	H121	0.866100	0.904000	0.297900
H1221	H122	0.801800	0.927800	0.354600
H1231	H123	0.869800	0.977500	0.315400
O501	O50	0.508300	0.086300	0.989530
H1241	H124	0.534700	0.100900	0.011100
H1251	H125	0.492200	0.121000	0.965000
Mn131	Mn13	0.310360	0.625100	0.617120
Mn141	Mn14	0.257900	0.548850	0.737240
Mn151	Mn15	0.341240	0.689680	0.720150
Mn161	Mn16	0.494530	0.535050	0.756790
Mn171	Mn17	0.469940	0.470240	0.661750
Mn181	Mn18	0.556110	0.609750	0.642070
Na81	Na8	0.086000	0.711970	0.696300
Na91	Na9	0.552200	0.546160	0.533010
Na101	Na10	0.421600	0.375100	0.786850
O511	O51	0.411000	0.573800	0.693530
C711	C71	0.218900	0.473300	0.635400
C721	C72	0.312900	0.482100	0.589800
H1261	H126	0.279600	0.511300	0.558000
H1271	H127	0.357100	0.433300	0.580000
O521	O52	0.386500	0.516500	0.603090
C731	C73	0.265200	0.425500	0.684200
H1281	H128	0.308900	0.376800	0.674200
H1291	H129	0.202600	0.419200	0.711900
O531	O53	0.335700	0.454000	0.707030
C741	C74	0.141000	0.547700	0.650100
H1301	H130	0.077800	0.539400	0.676700
H1311	H131	0.110600	0.577100	0.617700
O541	O54	0.194000	0.588600	0.671720
C751	C75	0.148300	0.433000	0.616900
H1321	H132	0.099500	0.417700	0.648600
H1331	H133	0.199400	0.388300	0.603100
C761	C76	0.076300	0.476000	0.574300
H1341	H134	0.123000	0.492200	0.542600
H1351	H135	0.038500	0.445000	0.564500
H1361	H136	0.020800	0.518500	0.588300
C771	C77	0.275600	0.613100	0.848800
C781	C78	0.378700	0.639800	0.832800
H1371	H137	0.434400	0.611400	0.856500
H1381	H138	0.357700	0.691500	0.838300
O551	O55	0.429000	0.633100	0.777490
C791	C79	0.185600	0.656100	0.813700
H1391	H139	0.163500	0.708200	0.818300
H1401	H140	0.119400	0.638700	0.826200
O561	O56	0.219700	0.649600	0.757540
C801	C80	0.304300	0.530900	0.846100
H1411	H141	0.236200	0.515700	0.858800
H1421	H142	0.358800	0.503900	0.870800
O571	O57	0.348700	0.511100	0.794190
C811	C81	0.223800	0.629200	0.907100
H1431	H143	0.153000	0.616800	0.916200
H1441	H144	0.206100	0.682100	0.908000
C821	C82	0.296400	0.588600	0.950100
H1451	H145	0.300400	0.536900	0.955600
H1461	H146	0.371300	0.593500	0.938800
H1471	H147	0.264300	0.609100	0.983700
C831	C83	0.395400	0.779500	0.596200
C841	C84	0.277500	0.781100	0.621300
H1481	H148	0.231800	0.790000	0.592400
H1491	H149	0.245900	0.822300	0.642500
O581	O58	0.269800	0.715600	0.655250
C851	C85	0.445700	0.719200	0.559500
H1501	H150	0.519400	0.722800	0.541200
H1511	H151	0.397600	0.728500	0.531500
O591	O59	0.458600	0.646300	0.586260
C861	C86	0.467500	0.769300	0.638400
H1521	H152	0.436600	0.810700	0.659400
H1531	H153	0.542700	0.770300	0.620500
O601	O60	0.477100	0.703000	0.674000
C871	C87	0.392500	0.852400	0.558800
H1541	H154	0.364300	0.851300	0.525900
H1551	H155	0.469700	0.854800	0.548300
C881	C88	0.321700	0.922800	0.582300
H1561	H156	0.338000	0.920300	0.618400
H1571	H157	0.339300	0.964800	0.559400
H1581	H158	0.242700	0.927900	0.583900
C891	C89	0.736600	0.445100	0.680200
C901	C90	0.664000	0.403400	0.719100
H1591	H159	0.688400	0.392700	0.754800
H1601	H160	0.675500	0.356400	0.706500
O611	O61	0.546500	0.442700	0.724430
C911	C91	0.705200	0.461200	0.625600
H1611	H161	0.714600	0.414500	0.612800
H1621	H162	0.757000	0.485000	0.601300
O621	O62	0.593600	0.506900	0.622050
C921	C92	0.729400	0.515200	0.701900
H1631	H163	0.782600	0.538400	0.678200
H1641	H164	0.753000	0.501500	0.737800
O631	O63	0.622900	0.567000	0.705800
C931	C93	0.859500	0.397100	0.680200
H1651	H165	0.875900	0.386700	0.717400
H1661	H166	0.907900	0.425900	0.659000
C941	C94	0.891100	0.325100	0.658200
H1671	H167	0.876000	0.334300	0.621100
H1681	H168	0.970400	0.300300	0.659100
H1691	H169	0.847400	0.294400	0.680000
C951	C95	0.018000	0.566600	0.778200
O641	O64	0.992200	0.629900	0.758600
O651	O65	0.119800	0.525100	0.779400
C961	C96	0.933700	0.528600	0.804800
H1701	H170	0.859700	0.559300	0.797300
H1711	H171	0.951200	0.482200	0.790900
H1721	H172	0.934800	0.519400	0.843500
C971	C97	0.181800	0.824000	0.760000
O661	O66	0.112400	0.818400	0.733800
O671	O67	0.284600	0.787600	0.753660
C981	C98	0.142200	0.872900	0.803100
H1731	H173	0.078400	0.861700	0.826700
H1741	H174	0.202300	0.865000	0.823900
H1751	H175	0.120000	0.923900	0.786600
C991	C99	0.727800	0.629500	0.548200
O681	O68	0.694600	0.599200	0.520000
O691	O69	0.687900	0.637700	0.597300
C1001	C100	0.823900	0.660100	0.526600
H1761	H176	0.854800	0.647500	0.490500
H1771	H177	0.798000	0.713200	0.525300
H1781	H178	0.881500	0.639400	0.550000
C1011	C101	0.542500	0.309200	0.655900
O701	O70	0.510400	0.298900	0.704200
O711	O71	0.536300	0.372700	0.629550
C1021	C102	0.587000	0.246400	0.623700
H1791	H179	0.525400	0.230000	0.618700
H1801	H180	0.624500	0.262100	0.588600
H1811	H181	0.640000	0.206200	0.642700
C1031	C103	0.585700	0.436000	0.846500
O721	O72	0.539600	0.389600	0.843400
O731	O73	0.576700	0.497400	0.816300
C1041	C104	0.656500	0.420200	0.891300
H1821	H182	0.735300	0.408300	0.876000
H1831	H183	0.636400	0.463200	0.909600
H1841	H184	0.643300	0.378900	0.916900
O741	O74	0.584300	0.421800	0.523200
H1851	H185	0.568500	0.403200	0.554700
H1861	H186	0.631600	0.388200	0.508000
Mn191	Mn19	0.765880	0.942940	0.845550
Mn201	Mn20	0.701340	0.036540	0.738640
Mn211	Mn21	0.688290	0.881150	0.758620
Mn221	Mn22	0.468280	0.013760	0.755890
Mn231	Mn23	0.543000	0.077170	0.843370
Mn241	Mn24	0.524400	0.911450	0.867320
Na111	Na11	0.941200	0.895990	0.722290
Na121	Na12	0.622400	0.973440	0.962410
Na131	Na13	0.447200	0.204190	0.745470
Na141	Na14	0.416100	0.844420	0.780320
O751	O75	0.624600	0.980900	0.795350
C1051	C105	0.791200	0.114400	0.825200
C1061	C106	0.740600	0.085300	0.879700
H1871	H187	0.690000	0.126800	0.897700
H1881	H188	0.800700	0.059800	0.901800
O761	O76	0.679400	0.035600	0.877380
C1071	C107	0.876000	0.051900	0.797200
H1891	H189	0.935200	0.027000	0.819800
H1901	H190	0.911000	0.073000	0.762900
O771	O77	0.830400	0.998700	0.786600
C1081	C108	0.702200	0.158700	0.790500
H1911	H191	0.739100	0.176600	0.755500
H1921	H192	0.655700	0.201900	0.807800
O781	O78	0.630700	0.120000	0.781230
C1091	C109	0.858300	0.164300	0.833400
H1931	H193	0.896500	0.179300	0.797800
H1941	H194	0.916800	0.134000	0.855200
C1101	C110	0.802300	0.227500	0.857400
H1951	H195	0.783300	0.214100	0.896000
H1961	H196	0.850200	0.259200	0.851300
H1971	H197	0.734100	0.253400	0.841700
C1111	C111	0.624300	0.976700	0.636900
C1121	C112	0.557700	0.925600	0.668600
H1981	H198	0.593900	0.876200	0.658400
H1991	H199	0.482200	0.942700	0.658200
O791	O79	0.548200	0.921500	0.724820
C1131	C113	0.742500	0.951300	0.648900
H2001	H200	0.782100	0.985600	0.627800
H2011	H201	0.779900	0.903000	0.636700
O801	O80	0.752700	0.945600	0.704600
C1141	C114	0.568400	0.054900	0.648200
H2021	H202	0.494100	0.071900	0.636600
H2031	H203	0.612600	0.086000	0.626400
O811	O81	0.555800	0.064500	0.703510
C1151	C115	0.629000	0.977400	0.576300
H2041	H204	0.669100	0.012300	0.556900
H2051	H205	0.551900	0.996600	0.567900
C1161	C116	0.683400	0.905000	0.553600
H2061	H206	0.646700	0.868900	0.573000
H2071	H207	0.676100	0.912200	0.515500
H2081	H208	0.762300	0.887500	0.557800
C1171	C117	0.767900	0.766600	0.870500
C1181	C118	0.727200	0.815700	0.914300
H2091	H209	0.790900	0.811700	0.932300
H2101	H210	0.672400	0.797700	0.941300
O821	O82	0.677000	0.891100	0.896040
C1191	C119	0.673100	0.764900	0.844400
H2111	H211	0.619800	0.746700	0.872300
H2121	H212	0.702900	0.729600	0.818300
O831	O83	0.614000	0.833600	0.817470
C1201	C120	0.855600	0.790500	0.828900
H2131	H213	0.885000	0.755200	0.802700
H2141	H214	0.918000	0.789000	0.846900
O841	O84	0.815600	0.861900	0.800750
C1211	C121	0.826400	0.688700	0.895800
H2151	H215	0.885300	0.691500	0.914400
H2161	H216	0.863500	0.659100	0.866400
C1221	C122	0.754400	0.648100	0.935300
H2171	H217	0.727200	0.620000	0.916100
H2181	H218	0.798500	0.614900	0.962000
H2191	H219	0.691100	0.683200	0.953300
C1231	C123	0.282300	0.057900	0.868000
C1241	C124	0.294900	0.990600	0.842600
H2201	H220	0.241700	0.004100	0.816500
H2211	H221	0.274100	0.953400	0.870900
O851	O85	0.404900	0.958400	0.815660
C1251	C125	0.311000	0.117400	0.826000
H2221	H222	0.298200	0.161100	0.843400
H2231	H223	0.260000	0.130800	0.798900
O861	O86	0.424000	0.097400	0.799180
C1261	C126	0.356700	0.038500	0.912700
H2241	H224	0.334400	0.001100	0.940200
H2251	H225	0.341600	0.082500	0.930100
O871	O87	0.473000	0.012400	0.896060
C1271	C127	0.160000	0.084600	0.892000
H2261	H226	0.145200	0.048400	0.922800
H2271	H227	0.114100	0.085700	0.864800
C1281	C128	0.122600	0.156200	0.910200
H2281	H228	0.136700	0.192800	0.880300
H2291	H229	0.042900	0.168500	0.923500
H2301	H230	0.163300	0.155100	0.939100
C1291	C129	0.882900	0.068500	0.661700
O881	O88	0.943800	0.006300	0.668700
O891	O89	0.778800	0.090400	0.684400
C1301	C130	0.919600	0.127500	0.625800
H2311	H231	0.873300	0.146800	0.597100
H2321	H232	0.912400	0.166700	0.646400
H2331	H233	0.997400	0.108300	0.610200
C1311	C131	0.893100	0.913200	0.937000
O901	O90	0.809900	0.934100	0.969600
O911	O91	0.895100	0.913800	0.887290
C1321	C132	0.008300	0.887800	0.955000
H2341	H234	0.033500	0.834400	0.961800
H2351	H235	0.061000	0.905000	0.926800
H2361	H236	0.004100	0.907700	0.987900
C1331	C133	0.837700	0.768600	0.691800
O921	O92	0.740500	0.793600	0.717900
O931	O93	0.915200	0.793600	0.690450
C1341	C134	0.849500	0.707400	0.661400
H2371	H237	0.856400	0.662100	0.686200
H2381	H238	0.783800	0.718400	0.643600
H2391	H239	0.916000	0.701800	0.634400
C1351	C135	0.389900	0.816200	0.922100
O941	O94	0.446800	0.855100	0.931140
O951	O95	0.376700	0.810000	0.877500
C1361	C136	0.337200	0.777500	0.970900
H2401	H240	0.392700	0.733100	0.984000
H2411	H241	0.308600	0.809500	0.998900
H2421	H242	0.275900	0.764600	0.961800
C1371	C137	0.440900	0.229600	0.873000
O961	O96	0.438500	0.253400	0.825070
O971	O97	0.478400	0.161500	0.890880
C1381	C138	0.398600	0.280400	0.915400
H2431	H243	0.393500	0.251800	0.950900
H2441	H244	0.450000	0.309000	0.913100
H2451	H245	0.325000	0.313400	0.909400
C1391	C139	0.275800	0.013700	0.707700
O981	O98	0.335500	0.052200	0.715840
O991	O99	0.300900	0.946700	0.720900
C1401	C140	0.176300	0.054500	0.682900
H2461	H246	0.133900	0.096000	0.702100
H2471	H247	0.198200	0.072200	0.645400
H2481	H248	0.130200	0.022500	0.684600
O1001	O100	0.491700	0.913700	0.010470
H2491	H249	0.465300	0.899100	0.988900
H2501	H250	0.507800	0.879000	0.035000
