data_HUHNIJ_clean_PM
_symmetry_space_group_name_H-M	'P1'
_cell_length_a	13.932500
_cell_length_b	26.873000
_cell_length_c	27.147000
_cell_angle_alpha	90.000000
_cell_angle_beta	90.000000
_cell_angle_gamma	90.000000
_symmetry_Int_Tables_number 1

loop_
_symmetry_equiv_pos_as_xyz
'x,y,z'

loop_
_atom_site_label
_atom_site_type_symbol
_atom_site_fract_x
_atom_site_fract_y
_atom_site_fract_z
Cd11	Cd1	0.307930	0.629320	0.041940
Cd21	Cd2	0.907650	0.783800	0.862010
Ti11	Ti1	0.687260	0.444010	0.780860
Ti21	Ti2	0.555570	0.521490	0.696990
O11	O1	0.663200	0.376570	0.768100
O21	O2	0.776800	0.428700	0.832500
O31	O3	0.595300	0.510000	0.631800
O41	O4	0.459100	0.571600	0.679900
O51	O5	0.622000	0.472700	0.728600
O61	O6	0.767500	0.825300	0.889500
O71	O7	0.644500	0.821400	0.935000
N11	N1	0.768300	0.514500	0.783700
H11	H1	0.731200	0.539200	0.763800
N21	N2	0.808900	0.431100	0.727200
H21	H2	0.856600	0.408600	0.743400
N31	N3	0.682500	0.183800	0.522300
N41	N4	0.187500	0.584200	0.001600
N51	N5	0.444900	0.462400	0.677300
H31	H3	0.400400	0.477300	0.652400
N61	N6	0.461600	0.517000	0.762700
H41	H4	0.494900	0.495800	0.787700
N71	N7	0.610900	0.277500	0.422000
N81	N8	0.040000	0.739700	0.829500
C11	C1	0.862500	0.510200	0.760700
H51	H5	0.905200	0.492700	0.784700
C21	C2	0.858900	0.479200	0.715200
H61	H6	0.818400	0.497200	0.690600
C31	C3	0.962000	0.471600	0.691500
H71	H7	0.003800	0.454100	0.715300
H81	H8	0.956000	0.450300	0.661800
C41	C4	0.008700	0.520700	0.677100
H91	H9	0.971300	0.537400	0.650900
H101	H10	0.074900	0.515200	0.665100
C51	C5	0.009200	0.553000	0.725400
H111	H11	0.051800	0.536800	0.749800
H121	H12	0.037300	0.586000	0.717600
C61	C6	0.909500	0.561200	0.749500
H131	H13	0.916800	0.580400	0.780400
H141	H14	0.867900	0.580500	0.726900
C71	C7	0.775700	0.406300	0.681100
H151	H15	0.832300	0.399800	0.660100
H161	H16	0.733500	0.429700	0.663100
C81	C8	0.667800	0.344710	0.730250
C91	C9	0.617400	0.300100	0.732050
C101	C10	0.620000	0.267690	0.692200
H171	H17	0.585600	0.237200	0.693400
C111	C11	0.672900	0.279890	0.650480
C121	C12	0.723300	0.324500	0.648680
H181	H18	0.759500	0.332800	0.620200
C131	C13	0.720800	0.356900	0.688600
C141	C14	0.555800	0.286300	0.777500
C151	C15	0.475200	0.325100	0.785600
H191	H19	0.503800	0.357300	0.794400
H201	H20	0.433100	0.313900	0.812300
H211	H21	0.437800	0.328700	0.755200
C161	C16	0.619600	0.284300	0.824200
H221	H22	0.660300	0.254600	0.822900
H231	H23	0.578700	0.282900	0.853500
H241	H24	0.660000	0.314100	0.825600
C171	C17	0.502200	0.235100	0.772400
H251	H25	0.444900	0.239400	0.751900
H261	H26	0.483100	0.223300	0.805200
H271	H27	0.545000	0.210700	0.757100
C181	C18	0.676900	0.246800	0.606200
C191	C19	0.742100	0.251000	0.570000
H281	H28	0.790400	0.275700	0.573300
C201	C20	0.743200	0.222200	0.529600
H291	H29	0.789200	0.229300	0.504700
C211	C21	0.614600	0.179100	0.558500
H301	H30	0.566700	0.154300	0.554600
C221	C22	0.612000	0.207800	0.599400
H311	H31	0.565100	0.201400	0.624000
C231	C23	0.769900	0.533200	0.833900
H321	H32	0.705200	0.530200	0.848800
H331	H33	0.788500	0.568700	0.834100
C241	C24	0.841600	0.503120	0.863700
C251	C25	0.840400	0.451410	0.862800
C261	C26	0.907600	0.424630	0.889800
C271	C27	0.976100	0.449570	0.917700
H341	H34	0.022100	0.431300	0.936100
C281	C28	0.977300	0.501300	0.918600
C291	C29	0.910000	0.528060	0.891600
H351	H35	0.910900	0.563400	0.892200
C301	C30	0.911900	0.365900	0.887500
C311	C31	0.924900	0.348500	0.833300
H361	H36	0.863100	0.350200	0.816200
H371	H37	0.948700	0.314200	0.832800
H381	H38	0.971200	0.370300	0.816700
C321	C32	0.818700	0.347200	0.907500
H391	H39	0.814300	0.355300	0.942600
H401	H40	0.815100	0.311100	0.903100
H411	H41	0.765600	0.363100	0.889700
C331	C33	0.999200	0.345700	0.913100
H421	H42	0.053800	0.367900	0.907100
H431	H43	0.013800	0.312500	0.900200
H441	H44	0.986800	0.343600	0.948600
C341	C34	0.051300	0.528200	0.949100
C351	C35	0.083500	0.573100	0.932700
H451	H45	0.059900	0.586300	0.902600
C361	C36	0.151900	0.600200	0.960600
H461	H46	0.172600	0.631600	0.948500
C371	C37	0.150500	0.540500	0.019000
H471	H47	0.171700	0.528300	0.050000
C381	C38	0.083800	0.513700	0.993100
H481	H48	0.059700	0.483800	0.007000
C391	C39	0.387400	0.447600	0.719500
H491	H49	0.426200	0.423600	0.739400
C401	C40	0.369000	0.492900	0.750900
H501	H50	0.328700	0.516900	0.731800
C411	C41	0.313600	0.477600	0.798400
H511	H51	0.353200	0.454600	0.818400
H521	H52	0.299100	0.507400	0.818500
C421	C42	0.220200	0.451900	0.782700
H531	H53	0.183400	0.442600	0.812500
H541	H54	0.180800	0.475700	0.763600
C431	C43	0.237500	0.406600	0.752400
H551	H55	0.175600	0.391400	0.742700
H561	H56	0.274400	0.381800	0.771700
C441	C44	0.295200	0.422300	0.705600
H571	H57	0.309400	0.392400	0.685600
H581	H58	0.255700	0.445200	0.685400
C451	C45	0.491900	0.418800	0.653900
H591	H59	0.441900	0.393700	0.646600
H601	H60	0.536600	0.403900	0.678100
C461	C46	0.608400	0.396690	0.529390
C471	C47	0.553200	0.391230	0.571710
H611	H61	0.518900	0.361200	0.577300
C481	C48	0.548300	0.429690	0.605860
C491	C49	0.598500	0.473610	0.597680
C501	C50	0.653700	0.479070	0.555360
C511	C51	0.658600	0.440600	0.521210
H621	H62	0.696300	0.444300	0.492300
C521	C52	0.710500	0.527400	0.545700
C531	C53	0.767700	0.526000	0.496600
H631	H63	0.817200	0.500200	0.498500
H641	H64	0.798100	0.558400	0.491000
H651	H65	0.723900	0.518600	0.469400
C541	C54	0.647600	0.573500	0.545100
H661	H66	0.606100	0.572700	0.516000
H671	H67	0.688100	0.603200	0.544100
H681	H68	0.607800	0.574100	0.574900
C551	C55	0.786300	0.536100	0.586700
H691	H69	0.754100	0.538200	0.618700
H701	H70	0.820600	0.567300	0.580200
H711	H71	0.832100	0.508500	0.587000
C561	C56	0.610700	0.355200	0.493300
C571	C57	0.545200	0.317400	0.493600
H721	H72	0.496500	0.317600	0.518100
C581	C58	0.546600	0.278900	0.459800
H731	H73	0.501400	0.252700	0.463100
C591	C59	0.671300	0.314600	0.420500
H741	H74	0.714700	0.315700	0.393500
C601	C60	0.677500	0.352400	0.455100
H751	H75	0.727200	0.376500	0.452800
C611	C61	0.450900	0.567200	0.783900
H761	H76	0.515000	0.583000	0.786500
H771	H77	0.423900	0.564500	0.817500
C621	C62	0.386500	0.599710	0.753050
C631	C63	0.392300	0.600120	0.701940
C641	C64	0.327800	0.628300	0.674600
C651	C65	0.257500	0.656100	0.698380
H781	H78	0.213400	0.675300	0.679700
C661	C66	0.251700	0.655600	0.749490
C671	C67	0.316300	0.627500	0.776830
H791	H79	0.312300	0.627200	0.811800
C681	C68	0.334000	0.627100	0.618000
C691	C69	0.317300	0.572400	0.599400
H801	H80	0.366800	0.550500	0.613200
H811	H81	0.321000	0.571600	0.563300
H821	H82	0.253800	0.560900	0.610000
C701	C70	0.430500	0.651200	0.600000
H831	H83	0.436400	0.684800	0.613800
H841	H84	0.430700	0.653100	0.564000
H851	H85	0.484700	0.630800	0.611100
C711	C71	0.250900	0.660000	0.595900
H861	H86	0.188800	0.645100	0.604200
H871	H87	0.257800	0.661800	0.560000
H881	H88	0.254500	0.693600	0.609800
C721	C72	0.177600	0.685000	0.775500
C731	C73	0.134600	0.667200	0.818700
H891	H89	0.154200	0.636100	0.831900
C741	C74	0.065500	0.693900	0.841800
H901	H90	0.033000	0.678700	0.868700
C751	C75	0.082400	0.758300	0.788600
H911	H91	0.065100	0.790800	0.777900
C761	C76	0.147800	0.732800	0.762400
H921	H92	0.174800	0.747800	0.733900
C771	C77	0.686100	0.811900	0.896500
C781	C78	0.631700	0.780300	0.854500
H931	H93	0.660500	0.787500	0.822400
H941	H94	0.563700	0.789500	0.854000
H951	H95	0.637900	0.744700	0.861700
Cd31	Cd3	0.192070	0.370680	0.541940
Cd41	Cd4	0.592350	0.216200	0.362010
Ti31	Ti3	0.812740	0.555990	0.280860
Ti41	Ti4	0.944430	0.478510	0.196990
O81	O8	0.836800	0.623430	0.268100
O91	O9	0.723200	0.571300	0.332500
O101	O10	0.904700	0.490000	0.131800
O111	O11	0.040900	0.428400	0.179900
O121	O12	0.878000	0.527300	0.228600
O131	O13	0.732500	0.174700	0.389500
O141	O14	0.855500	0.178600	0.435000
N91	N9	0.731700	0.485500	0.283700
H961	H96	0.768800	0.460800	0.263800
N101	N10	0.691100	0.568900	0.227200
H971	H97	0.643400	0.591400	0.243400
N111	N11	0.817500	0.816200	0.022300
N121	N12	0.312500	0.415800	0.501600
N131	N13	0.055100	0.537600	0.177300
H981	H98	0.099600	0.522700	0.152400
N141	N14	0.038400	0.483000	0.262700
H991	H99	0.005100	0.504200	0.287700
N151	N15	0.889100	0.722500	0.922000
N161	N16	0.460000	0.260300	0.329500
C791	C79	0.637500	0.489800	0.260700
H1001	H100	0.594800	0.507300	0.284700
C801	C80	0.641100	0.520800	0.215200
H1011	H101	0.681600	0.502800	0.190600
C811	C81	0.538000	0.528400	0.191500
H1021	H102	0.496200	0.545900	0.215300
H1031	H103	0.544000	0.549700	0.161800
C821	C82	0.491300	0.479300	0.177100
H1041	H104	0.528700	0.462600	0.150900
H1051	H105	0.425100	0.484800	0.165100
C831	C83	0.490800	0.447000	0.225400
H1061	H106	0.448200	0.463200	0.249800
H1071	H107	0.462700	0.414000	0.217600
C841	C84	0.590500	0.438800	0.249500
H1081	H108	0.583200	0.419600	0.280400
H1091	H109	0.632100	0.419500	0.226900
C851	C85	0.724300	0.593700	0.181100
H1101	H110	0.667700	0.600200	0.160100
H1111	H111	0.766500	0.570300	0.163100
C861	C86	0.832200	0.655290	0.230250
C871	C87	0.882600	0.699900	0.232050
C881	C88	0.880000	0.732310	0.192200
H1121	H112	0.914400	0.762800	0.193400
C891	C89	0.827100	0.720110	0.150480
C901	C90	0.776700	0.675500	0.148680
H1131	H113	0.740500	0.667200	0.120200
C911	C91	0.779200	0.643100	0.188600
C921	C92	0.944200	0.713700	0.277500
C931	C93	0.024800	0.674900	0.285600
H1141	H114	0.996200	0.642700	0.294400
H1151	H115	0.066900	0.686100	0.312300
H1161	H116	0.062200	0.671300	0.255200
C941	C94	0.880400	0.715700	0.324200
H1171	H117	0.839700	0.745400	0.322900
H1181	H118	0.921300	0.717100	0.353500
H1191	H119	0.840000	0.685900	0.325600
C951	C95	0.997800	0.764900	0.272400
H1201	H120	0.055100	0.760600	0.251900
H1211	H121	0.016900	0.776700	0.305200
H1221	H122	0.955000	0.789300	0.257100
C961	C96	0.823100	0.753200	0.106200
C971	C97	0.757900	0.749000	0.070000
H1231	H123	0.709600	0.724300	0.073300
C981	C98	0.756800	0.777800	0.029600
H1241	H124	0.710800	0.770700	0.004700
C991	C99	0.885400	0.820900	0.058500
H1251	H125	0.933300	0.845700	0.054600
C1001	C100	0.888000	0.792200	0.099400
H1261	H126	0.934900	0.798600	0.124000
C1011	C101	0.730100	0.466800	0.333900
H1271	H127	0.794800	0.469800	0.348800
H1281	H128	0.711500	0.431300	0.334100
C1021	C102	0.658400	0.496880	0.363700
C1031	C103	0.659600	0.548590	0.362800
C1041	C104	0.592400	0.575370	0.389800
C1051	C105	0.523900	0.550430	0.417700
H1291	H129	0.477900	0.568700	0.436100
C1061	C106	0.522700	0.498700	0.418600
C1071	C107	0.590000	0.471940	0.391600
H1301	H130	0.589100	0.436600	0.392200
C1081	C108	0.588100	0.634100	0.387500
C1091	C109	0.575100	0.651500	0.333300
H1311	H131	0.636900	0.649800	0.316200
H1321	H132	0.551300	0.685800	0.332800
H1331	H133	0.528800	0.629700	0.316700
C1101	C110	0.681300	0.652800	0.407500
H1341	H134	0.685700	0.644700	0.442600
H1351	H135	0.684900	0.688900	0.403100
H1361	H136	0.734400	0.636900	0.389700
C1111	C111	0.500800	0.654300	0.413100
H1371	H137	0.446200	0.632100	0.407100
H1381	H138	0.486200	0.687500	0.400200
H1391	H139	0.513200	0.656400	0.448600
C1121	C112	0.448700	0.471800	0.449100
C1131	C113	0.416500	0.426900	0.432700
H1401	H140	0.440100	0.413700	0.402600
C1141	C114	0.348100	0.399800	0.460600
H1411	H141	0.327400	0.368400	0.448500
C1151	C115	0.349500	0.459500	0.519000
H1421	H142	0.328300	0.471700	0.550000
C1161	C116	0.416200	0.486300	0.493100
H1431	H143	0.440300	0.516200	0.507000
C1171	C117	0.112600	0.552400	0.219500
H1441	H144	0.073800	0.576400	0.239400
C1181	C118	0.131000	0.507100	0.250900
H1451	H145	0.171300	0.483100	0.231800
C1191	C119	0.186400	0.522400	0.298400
H1461	H146	0.146800	0.545400	0.318400
H1471	H147	0.200900	0.492600	0.318500
C1201	C120	0.279800	0.548100	0.282700
H1481	H148	0.316600	0.557400	0.312500
H1491	H149	0.319200	0.524300	0.263600
C1211	C121	0.262500	0.593400	0.252400
H1501	H150	0.324400	0.608600	0.242700
H1511	H151	0.225600	0.618200	0.271700
C1221	C122	0.204800	0.577700	0.205600
H1521	H152	0.190600	0.607600	0.185600
H1531	H153	0.244300	0.554800	0.185400
C1231	C123	0.008100	0.581200	0.153900
H1541	H154	0.058100	0.606300	0.146600
H1551	H155	0.963400	0.596100	0.178100
C1241	C124	0.891600	0.603310	0.029390
C1251	C125	0.946800	0.608770	0.071710
H1561	H156	0.981100	0.638800	0.077300
C1261	C126	0.951700	0.570310	0.105860
C1271	C127	0.901500	0.526390	0.097680
C1281	C128	0.846300	0.520930	0.055360
C1291	C129	0.841400	0.559400	0.021210
H1571	H157	0.803700	0.555700	0.992300
C1301	C130	0.789500	0.472600	0.045700
C1311	C131	0.732300	0.474000	0.996600
H1581	H158	0.682800	0.499800	0.998500
H1591	H159	0.701900	0.441600	0.991000
H1601	H160	0.776100	0.481400	0.969400
C1321	C132	0.852400	0.426500	0.045100
H1611	H161	0.893900	0.427300	0.016000
H1621	H162	0.811900	0.396800	0.044100
H1631	H163	0.892200	0.425900	0.074900
C1331	C133	0.713700	0.463900	0.086700
H1641	H164	0.745900	0.461800	0.118700
H1651	H165	0.679400	0.432700	0.080200
H1661	H166	0.667900	0.491500	0.087000
C1341	C134	0.889300	0.644800	0.993300
C1351	C135	0.954800	0.682600	0.993600
H1671	H167	0.003500	0.682400	0.018100
C1361	C136	0.953400	0.721100	0.959800
H1681	H168	0.998600	0.747300	0.963100
C1371	C137	0.828700	0.685400	0.920500
H1691	H169	0.785300	0.684300	0.893500
C1381	C138	0.822500	0.647600	0.955100
H1701	H170	0.772800	0.623500	0.952800
C1391	C139	0.049100	0.432800	0.283900
H1711	H171	0.985000	0.417000	0.286500
H1721	H172	0.076100	0.435500	0.317500
C1401	C140	0.113500	0.400290	0.253050
C1411	C141	0.107700	0.399880	0.201940
C1421	C142	0.172200	0.371700	0.174600
C1431	C143	0.242500	0.343900	0.198380
H1731	H173	0.286600	0.324700	0.179700
C1441	C144	0.248300	0.344400	0.249490
C1451	C145	0.183700	0.372500	0.276830
H1741	H174	0.187700	0.372800	0.311800
C1461	C146	0.166000	0.372900	0.118000
C1471	C147	0.182700	0.427600	0.099400
H1751	H175	0.133200	0.449500	0.113200
H1761	H176	0.179000	0.428400	0.063300
H1771	H177	0.246200	0.439100	0.110000
C1481	C148	0.069500	0.348800	0.100000
H1781	H178	0.063600	0.315200	0.113800
H1791	H179	0.069300	0.346900	0.064000
H1801	H180	0.015300	0.369200	0.111100
C1491	C149	0.249100	0.340000	0.095900
H1811	H181	0.311200	0.354900	0.104200
H1821	H182	0.242200	0.338200	0.060000
H1831	H183	0.245500	0.306400	0.109800
C1501	C150	0.322400	0.315000	0.275500
C1511	C151	0.365400	0.332800	0.318700
H1841	H184	0.345800	0.363900	0.331900
C1521	C152	0.434500	0.306100	0.341800
H1851	H185	0.467000	0.321300	0.368700
C1531	C153	0.417600	0.241700	0.288600
H1861	H186	0.434900	0.209200	0.277900
C1541	C154	0.352200	0.267200	0.262400
H1871	H187	0.325200	0.252200	0.233900
C1551	C155	0.813900	0.188100	0.396500
C1561	C156	0.868300	0.219700	0.354500
H1881	H188	0.839500	0.212500	0.322400
H1891	H189	0.936300	0.210500	0.354000
H1901	H190	0.862100	0.255300	0.361700
Cd51	Cd5	0.692070	0.129320	0.458060
Cd61	Cd6	0.092350	0.283800	0.637990
Ti51	Ti5	0.312740	0.944010	0.719140
Ti61	Ti6	0.444430	0.021490	0.803010
O151	O15	0.336800	0.876570	0.731900
O161	O16	0.223200	0.928700	0.667500
O171	O17	0.404700	0.010000	0.868200
O181	O18	0.540900	0.071600	0.820100
O191	O19	0.378000	0.972700	0.771400
O201	O20	0.232500	0.325300	0.610500
O211	O21	0.355500	0.321400	0.565000
N171	N17	0.231700	0.014500	0.716300
H1911	H191	0.268800	0.039200	0.736200
N181	N18	0.191100	0.931100	0.772800
H1921	H192	0.143400	0.908600	0.756600
N191	N19	0.317500	0.683800	0.977700
N201	N20	0.812500	0.084200	0.498400
N211	N21	0.555100	0.962400	0.822700
H1931	H193	0.599600	0.977300	0.847600
N221	N22	0.538400	0.017000	0.737300
H1941	H194	0.505100	0.995800	0.712300
N231	N23	0.389100	0.777500	0.078000
N241	N24	0.960000	0.239700	0.670500
C1571	C157	0.137500	0.010200	0.739300
H1951	H195	0.094800	0.992700	0.715300
C1581	C158	0.141100	0.979200	0.784800
H1961	H196	0.181600	0.997200	0.809400
C1591	C159	0.038000	0.971600	0.808500
H1971	H197	0.996200	0.954100	0.784700
H1981	H198	0.044000	0.950300	0.838200
C1601	C160	0.991300	0.020700	0.822900
H1991	H199	0.028700	0.037400	0.849100
H2001	H200	0.925100	0.015200	0.834900
C1611	C161	0.990800	0.053000	0.774600
H2011	H201	0.948200	0.036800	0.750200
H2021	H202	0.962700	0.086000	0.782400
C1621	C162	0.090500	0.061200	0.750500
H2031	H203	0.083200	0.080400	0.719600
H2041	H204	0.132100	0.080500	0.773100
C1631	C163	0.224300	0.906300	0.818900
H2051	H205	0.167700	0.899800	0.839900
H2061	H206	0.266500	0.929700	0.836900
C1641	C164	0.332200	0.844710	0.769750
C1651	C165	0.382600	0.800100	0.767950
C1661	C166	0.380000	0.767690	0.807800
H2071	H207	0.414400	0.737200	0.806600
C1671	C167	0.327100	0.779890	0.849520
C1681	C168	0.276700	0.824500	0.851320
H2081	H208	0.240500	0.832800	0.879800
C1691	C169	0.279200	0.856900	0.811400
C1701	C170	0.444200	0.786300	0.722500
C1711	C171	0.524800	0.825100	0.714400
H2091	H209	0.496200	0.857300	0.705600
H2101	H210	0.566900	0.813900	0.687700
H2111	H211	0.562200	0.828700	0.744800
C1721	C172	0.380400	0.784300	0.675800
H2121	H212	0.339700	0.754600	0.677100
H2131	H213	0.421300	0.782900	0.646500
H2141	H214	0.340000	0.814100	0.674400
C1731	C173	0.497800	0.735100	0.727600
H2151	H215	0.555100	0.739400	0.748100
H2161	H216	0.516900	0.723300	0.694800
H2171	H217	0.455000	0.710700	0.742900
C1741	C174	0.323100	0.746800	0.893800
C1751	C175	0.257900	0.751000	0.930000
H2181	H218	0.209600	0.775700	0.926700
C1761	C176	0.256800	0.722200	0.970400
H2191	H219	0.210800	0.729300	0.995300
C1771	C177	0.385400	0.679100	0.941500
H2201	H220	0.433300	0.654300	0.945400
C1781	C178	0.388000	0.707800	0.900600
H2211	H221	0.434900	0.701400	0.876000
C1791	C179	0.230100	0.033200	0.666100
H2221	H222	0.294800	0.030200	0.651200
H2231	H223	0.211500	0.068700	0.665900
C1801	C180	0.158400	0.003120	0.636300
C1811	C181	0.159600	0.951410	0.637200
C1821	C182	0.092400	0.924630	0.610200
C1831	C183	0.023900	0.949570	0.582300
H2241	H224	0.977900	0.931300	0.563900
C1841	C184	0.022700	0.001300	0.581400
C1851	C185	0.090000	0.028060	0.608400
H2251	H225	0.089100	0.063400	0.607800
C1861	C186	0.088100	0.865900	0.612500
C1871	C187	0.075100	0.848500	0.666700
H2261	H226	0.136900	0.850200	0.683800
H2271	H227	0.051300	0.814200	0.667200
H2281	H228	0.028800	0.870300	0.683300
C1881	C188	0.181300	0.847200	0.592500
H2291	H229	0.185700	0.855300	0.557400
H2301	H230	0.184900	0.811100	0.596900
H2311	H231	0.234400	0.863100	0.610300
C1891	C189	0.000800	0.845700	0.586900
H2321	H232	0.946200	0.867900	0.592900
H2331	H233	0.986200	0.812500	0.599800
H2341	H234	0.013200	0.843600	0.551400
C1901	C190	0.948700	0.028200	0.550900
C1911	C191	0.916500	0.073100	0.567300
H2351	H235	0.940100	0.086300	0.597400
C1921	C192	0.848100	0.100200	0.539400
H2361	H236	0.827400	0.131600	0.551500
C1931	C193	0.849500	0.040500	0.481000
H2371	H237	0.828300	0.028300	0.450000
C1941	C194	0.916200	0.013700	0.506900
H2381	H238	0.940300	0.983800	0.493000
C1951	C195	0.612600	0.947600	0.780500
H2391	H239	0.573800	0.923600	0.760600
C1961	C196	0.631000	0.992900	0.749100
H2401	H240	0.671300	0.016900	0.768200
C1971	C197	0.686400	0.977600	0.701600
H2411	H241	0.646800	0.954600	0.681600
H2421	H242	0.700900	0.007400	0.681500
C1981	C198	0.779800	0.951900	0.717300
H2431	H243	0.816600	0.942600	0.687500
H2441	H244	0.819200	0.975700	0.736400
C1991	C199	0.762500	0.906600	0.747600
H2451	H245	0.824400	0.891400	0.757300
H2461	H246	0.725600	0.881800	0.728300
C2001	C200	0.704800	0.922300	0.794400
H2471	H247	0.690600	0.892400	0.814400
H2481	H248	0.744300	0.945200	0.814600
C2011	C201	0.508100	0.918800	0.846100
H2491	H249	0.558100	0.893700	0.853400
H2501	H250	0.463400	0.903900	0.821900
C2021	C202	0.391600	0.896690	0.970610
C2031	C203	0.446800	0.891230	0.928290
H2511	H251	0.481100	0.861200	0.922700
C2041	C204	0.451700	0.929690	0.894140
C2051	C205	0.401500	0.973610	0.902320
C2061	C206	0.346300	0.979070	0.944640
C2071	C207	0.341400	0.940600	0.978790
H2521	H252	0.303700	0.944300	0.007700
C2081	C208	0.289500	0.027400	0.954300
C2091	C209	0.232300	0.026000	0.003400
H2531	H253	0.182800	0.000200	0.001500
H2541	H254	0.201900	0.058400	0.009000
H2551	H255	0.276100	0.018600	0.030600
C2101	C210	0.352400	0.073500	0.954900
H2561	H256	0.393900	0.072700	0.984000
H2571	H257	0.311900	0.103200	0.955900
H2581	H258	0.392200	0.074100	0.925100
C2111	C211	0.213700	0.036100	0.913300
H2591	H259	0.245900	0.038200	0.881300
H2601	H260	0.179400	0.067300	0.919800
H2611	H261	0.167900	0.008500	0.913000
C2121	C212	0.389300	0.855200	0.006700
C2131	C213	0.454800	0.817400	0.006400
H2621	H262	0.503500	0.817600	0.981900
C2141	C214	0.453400	0.778900	0.040200
H2631	H263	0.498600	0.752700	0.036900
C2151	C215	0.328700	0.814600	0.079500
H2641	H264	0.285300	0.815700	0.106500
C2161	C216	0.322500	0.852400	0.044900
H2651	H265	0.272800	0.876500	0.047200
C2171	C217	0.549100	0.067200	0.716100
H2661	H266	0.485000	0.083000	0.713500
H2671	H267	0.576100	0.064500	0.682500
C2181	C218	0.613500	0.099710	0.746950
C2191	C219	0.607700	0.100120	0.798060
C2201	C220	0.672200	0.128300	0.825400
C2211	C221	0.742500	0.156100	0.801620
H2681	H268	0.786600	0.175300	0.820300
C2221	C222	0.748300	0.155600	0.750510
C2231	C223	0.683700	0.127500	0.723170
H2691	H269	0.687700	0.127200	0.688200
C2241	C224	0.666000	0.127100	0.882000
C2251	C225	0.682700	0.072400	0.900600
H2701	H270	0.633200	0.050500	0.886800
H2711	H271	0.679000	0.071600	0.936700
H2721	H272	0.746200	0.060900	0.890000
C2261	C226	0.569500	0.151200	0.900000
H2731	H273	0.563600	0.184800	0.886200
H2741	H274	0.569300	0.153100	0.936000
H2751	H275	0.515300	0.130800	0.888900
C2271	C227	0.749100	0.160000	0.904100
H2761	H276	0.811200	0.145100	0.895800
H2771	H277	0.742200	0.161800	0.940000
H2781	H278	0.745500	0.193600	0.890200
C2281	C228	0.822400	0.185000	0.724500
C2291	C229	0.865400	0.167200	0.681300
H2791	H279	0.845800	0.136100	0.668100
C2301	C230	0.934500	0.193900	0.658200
H2801	H280	0.967000	0.178700	0.631300
C2311	C231	0.917600	0.258300	0.711400
H2811	H281	0.934900	0.290800	0.722100
C2321	C232	0.852200	0.232800	0.737600
H2821	H282	0.825200	0.247800	0.766100
C2331	C233	0.313900	0.311900	0.603500
C2341	C234	0.368300	0.280300	0.645500
H2831	H283	0.339500	0.287500	0.677600
H2841	H284	0.436300	0.289500	0.646000
H2851	H285	0.362100	0.244700	0.638300
Cd71	Cd7	0.807930	0.870680	0.958060
Cd81	Cd8	0.407650	0.716200	0.137990
Ti71	Ti7	0.187260	0.055990	0.219140
Ti81	Ti8	0.055570	0.978510	0.303010
O221	O22	0.163200	0.123430	0.231900
O231	O23	0.276800	0.071300	0.167500
O241	O24	0.095300	0.990000	0.368200
O251	O25	0.959100	0.928400	0.320100
O261	O26	0.122000	0.027300	0.271400
O271	O27	0.267500	0.674700	0.110500
O281	O28	0.144500	0.678600	0.065000
N251	N25	0.268300	0.985500	0.216300
H2861	H286	0.231200	0.960800	0.236200
N261	N26	0.308900	0.068900	0.272800
H2871	H287	0.356600	0.091400	0.256600
N271	N27	0.182500	0.316200	0.477700
N281	N28	0.687500	0.915800	0.998400
N291	N29	0.944900	0.037600	0.322700
H2881	H288	0.900400	0.022700	0.347600
N301	N30	0.961600	0.983000	0.237300
H2891	H289	0.994900	0.004200	0.212300
N311	N31	0.110900	0.222500	0.578000
N321	N32	0.540000	0.760300	0.170500
C2351	C235	0.362500	0.989800	0.239300
H2901	H290	0.405200	0.007300	0.215300
C2361	C236	0.358900	0.020800	0.284800
H2911	H291	0.318400	0.002800	0.309400
C2371	C237	0.462000	0.028400	0.308500
H2921	H292	0.503800	0.045900	0.284700
H2931	H293	0.456000	0.049700	0.338200
C2381	C238	0.508700	0.979300	0.322900
H2941	H294	0.471300	0.962600	0.349100
H2951	H295	0.574900	0.984800	0.334900
C2391	C239	0.509200	0.947000	0.274600
H2961	H296	0.551800	0.963200	0.250200
H2971	H297	0.537300	0.914000	0.282400
C2401	C240	0.409500	0.938800	0.250500
H2981	H298	0.416800	0.919600	0.219600
H2991	H299	0.367900	0.919500	0.273100
C2411	C241	0.275700	0.093700	0.318900
H3001	H300	0.332300	0.100200	0.339900
H3011	H301	0.233500	0.070300	0.336900
C2421	C242	0.167800	0.155290	0.269750
C2431	C243	0.117400	0.199900	0.267950
C2441	C244	0.120000	0.232310	0.307800
H3021	H302	0.085600	0.262800	0.306600
C2451	C245	0.172900	0.220110	0.349520
C2461	C246	0.223300	0.175500	0.351320
H3031	H303	0.259500	0.167200	0.379800
C2471	C247	0.220800	0.143100	0.311400
C2481	C248	0.055800	0.213700	0.222500
C2491	C249	0.975200	0.174900	0.214400
H3041	H304	0.003800	0.142700	0.205600
H3051	H305	0.933100	0.186100	0.187700
H3061	H306	0.937800	0.171300	0.244800
C2501	C250	0.119600	0.215700	0.175800
H3071	H307	0.160300	0.245400	0.177100
H3081	H308	0.078700	0.217100	0.146500
H3091	H309	0.160000	0.185900	0.174400
C2511	C251	0.002200	0.264900	0.227600
H3101	H310	0.944900	0.260600	0.248100
H3111	H311	0.983100	0.276700	0.194800
H3121	H312	0.045000	0.289300	0.242900
C2521	C252	0.176900	0.253200	0.393800
C2531	C253	0.242100	0.249000	0.430000
H3131	H313	0.290400	0.224300	0.426700
C2541	C254	0.243200	0.277800	0.470400
H3141	H314	0.289200	0.270700	0.495300
C2551	C255	0.114600	0.320900	0.441500
H3151	H315	0.066700	0.345700	0.445400
C2561	C256	0.112000	0.292200	0.400600
H3161	H316	0.065100	0.298600	0.376000
C2571	C257	0.269900	0.966800	0.166100
H3171	H317	0.205200	0.969800	0.151200
H3181	H318	0.288500	0.931300	0.165900
C2581	C258	0.341600	0.996880	0.136300
C2591	C259	0.340400	0.048590	0.137200
C2601	C260	0.407600	0.075370	0.110200
C2611	C261	0.476100	0.050430	0.082300
H3191	H319	0.522100	0.068700	0.063900
C2621	C262	0.477300	0.998700	0.081400
C2631	C263	0.410000	0.971940	0.108400
H3201	H320	0.410900	0.936600	0.107800
C2641	C264	0.411900	0.134100	0.112500
C2651	C265	0.424900	0.151500	0.166700
H3211	H321	0.363100	0.149800	0.183800
H3221	H322	0.448700	0.185800	0.167200
H3231	H323	0.471200	0.129700	0.183300
C2661	C266	0.318700	0.152800	0.092500
H3241	H324	0.314300	0.144700	0.057400
H3251	H325	0.315100	0.188900	0.096900
H3261	H326	0.265600	0.136900	0.110300
C2671	C267	0.499200	0.154300	0.086900
H3271	H327	0.553800	0.132100	0.092900
H3281	H328	0.513800	0.187500	0.099800
H3291	H329	0.486800	0.156400	0.051400
C2681	C268	0.551300	0.971800	0.050900
C2691	C269	0.583500	0.926900	0.067300
H3301	H330	0.559900	0.913700	0.097400
C2701	C270	0.651900	0.899800	0.039400
H3311	H331	0.672600	0.868400	0.051500
C2711	C271	0.650500	0.959500	0.981000
H3321	H332	0.671700	0.971700	0.950000
C2721	C272	0.583800	0.986300	0.006900
H3331	H333	0.559700	0.016200	0.993000
C2731	C273	0.887400	0.052400	0.280500
H3341	H334	0.926200	0.076400	0.260600
C2741	C274	0.869000	0.007100	0.249100
H3351	H335	0.828700	0.983100	0.268200
C2751	C275	0.813600	0.022400	0.201600
H3361	H336	0.853200	0.045400	0.181600
H3371	H337	0.799100	0.992600	0.181500
C2761	C276	0.720200	0.048100	0.217300
H3381	H338	0.683400	0.057400	0.187500
H3391	H339	0.680800	0.024300	0.236400
C2771	C277	0.737500	0.093400	0.247600
H3401	H340	0.675600	0.108600	0.257300
H3411	H341	0.774400	0.118200	0.228300
C2781	C278	0.795200	0.077700	0.294400
H3421	H342	0.809400	0.107600	0.314400
H3431	H343	0.755700	0.054800	0.314600
C2791	C279	0.991900	0.081200	0.346100
H3441	H344	0.941900	0.106300	0.353400
H3451	H345	0.036600	0.096100	0.321900
C2801	C280	0.108400	0.103310	0.470610
C2811	C281	0.053200	0.108770	0.428290
H3461	H346	0.018900	0.138800	0.422700
C2821	C282	0.048300	0.070310	0.394140
C2831	C283	0.098500	0.026390	0.402320
C2841	C284	0.153700	0.020930	0.444640
C2851	C285	0.158600	0.059400	0.478790
H3471	H347	0.196300	0.055700	0.507700
C2861	C286	0.210500	0.972600	0.454300
C2871	C287	0.267700	0.974000	0.503400
H3481	H348	0.317200	0.999800	0.501500
H3491	H349	0.298100	0.941600	0.509000
H3501	H350	0.223900	0.981400	0.530600
C2881	C288	0.147600	0.926500	0.454900
H3511	H351	0.106100	0.927300	0.484000
H3521	H352	0.188100	0.896800	0.455900
H3531	H353	0.107800	0.925900	0.425100
C2891	C289	0.286300	0.963900	0.413300
H3541	H354	0.254100	0.961800	0.381300
H3551	H355	0.320600	0.932700	0.419800
H3561	H356	0.332100	0.991500	0.413000
C2901	C290	0.110700	0.144800	0.506700
C2911	C291	0.045200	0.182600	0.506400
H3571	H357	0.996500	0.182400	0.481900
C2921	C292	0.046600	0.221100	0.540200
H3581	H358	0.001400	0.247300	0.536900
C2931	C293	0.171300	0.185400	0.579500
H3591	H359	0.214700	0.184300	0.606500
C2941	C294	0.177500	0.147600	0.544900
H3601	H360	0.227200	0.123500	0.547200
C2951	C295	0.950900	0.932800	0.216100
H3611	H361	0.015000	0.917000	0.213500
H3621	H362	0.923900	0.935500	0.182500
C2961	C296	0.886500	0.900290	0.246950
C2971	C297	0.892300	0.899880	0.298060
C2981	C298	0.827800	0.871700	0.325400
C2991	C299	0.757500	0.843900	0.301620
H3631	H363	0.713400	0.824700	0.320300
C3001	C300	0.751700	0.844400	0.250510
C3011	C301	0.816300	0.872500	0.223170
H3641	H364	0.812300	0.872800	0.188200
C3021	C302	0.834000	0.872900	0.382000
C3031	C303	0.817300	0.927600	0.400600
H3651	H365	0.866800	0.949500	0.386800
H3661	H366	0.821000	0.928400	0.436700
H3671	H367	0.753800	0.939100	0.390000
C3041	C304	0.930500	0.848800	0.400000
H3681	H368	0.936400	0.815200	0.386200
H3691	H369	0.930700	0.846900	0.436000
H3701	H370	0.984700	0.869200	0.388900
C3051	C305	0.750900	0.840000	0.404100
H3711	H371	0.688800	0.854900	0.395800
H3721	H372	0.757800	0.838200	0.440000
H3731	H373	0.754500	0.806400	0.390200
C3061	C306	0.677600	0.815000	0.224500
C3071	C307	0.634600	0.832800	0.181300
H3741	H374	0.654200	0.863900	0.168100
C3081	C308	0.565500	0.806100	0.158200
H3751	H375	0.533000	0.821300	0.131300
C3091	C309	0.582400	0.741700	0.211400
H3761	H376	0.565100	0.709200	0.222100
C3101	C310	0.647800	0.767200	0.237600
H3771	H377	0.674800	0.752200	0.266100
C3111	C311	0.186100	0.688100	0.103500
C3121	C312	0.131700	0.719700	0.145500
H3781	H378	0.160500	0.712500	0.177600
H3791	H379	0.063700	0.710500	0.146000
H3801	H380	0.137900	0.755300	0.138300
