data_HUKQUZ_charged_PM
_symmetry_space_group_name_H-M	'P1'
_cell_length_a	20.783000
_cell_length_b	20.783000
_cell_length_c	23.135000
_cell_angle_alpha	63.309600
_cell_angle_beta	63.309700
_cell_angle_gamma	60.000000
_symmetry_Int_Tables_number 1

loop_
_symmetry_equiv_pos_as_xyz
'x,y,z'

loop_
_atom_site_label
_atom_site_type_symbol
_atom_site_fract_x
_atom_site_fract_y
_atom_site_fract_z
Cd11	Cd1	0.000000	0.000000	0.000000
Cd21	Cd2	0.500000	0.500000	0.500000
H11	H1	0.822000	0.099100	0.968800
H21	H2	0.997800	0.167100	0.863500
H31	H3	0.889300	0.264300	0.817600
H41	H4	0.725200	0.282200	0.893800
H51	H5	0.722400	0.200200	0.909700
H61	H6	0.815000	0.142900	0.802900
H71	H7	0.699000	0.369000	0.789400
H81	H8	0.821000	0.169700	0.693100
H91	H9	0.706900	0.397400	0.678100
H101	H10	0.789200	0.347000	0.574000
H111	H11	0.803700	0.259200	0.586300
H121	H12	0.675400	0.438800	0.526300
H131	H13	0.652000	0.240800	0.661900
H141	H14	0.534500	0.325800	0.624700
H151	H15	0.099100	0.110100	0.968800
H161	H16	0.167100	0.971600	0.863500
H171	H17	0.264300	0.028800	0.817600
H181	H18	0.282200	0.098800	0.893800
H191	H19	0.200200	0.167700	0.909700
H201	H20	0.142900	0.239200	0.802900
H211	H21	0.369000	0.142600	0.789400
H221	H22	0.169700	0.316200	0.693100
H231	H23	0.397400	0.217600	0.678100
H241	H24	0.347000	0.289800	0.574000
H251	H25	0.259200	0.350800	0.586300
H261	H26	0.438800	0.359500	0.526300
H271	H27	0.240800	0.445300	0.661900
H281	H28	0.325800	0.515000	0.624700
H291	H29	0.110100	0.822000	0.968800
H301	H30	0.971600	0.997800	0.863500
H311	H31	0.028800	0.889300	0.817600
H321	H32	0.098800	0.725200	0.893800
H331	H33	0.167700	0.722400	0.909700
H341	H34	0.239200	0.815000	0.802900
H351	H35	0.142600	0.699000	0.789400
H361	H36	0.316200	0.821000	0.693100
H371	H37	0.217600	0.706900	0.678100
H381	H38	0.289800	0.789200	0.574000
H391	H39	0.350800	0.803700	0.586300
H401	H40	0.359500	0.675400	0.526300
H411	H41	0.445300	0.652000	0.661900
H421	H42	0.515000	0.534500	0.624700
H431	H43	0.178000	0.900900	0.031200
H441	H44	0.002200	0.832900	0.136500
H451	H45	0.110700	0.735700	0.182400
H461	H46	0.274800	0.717800	0.106200
H471	H47	0.277600	0.799800	0.090300
H481	H48	0.185000	0.857100	0.197100
H491	H49	0.301000	0.631000	0.210600
H501	H50	0.179000	0.830300	0.306900
H511	H51	0.293100	0.602600	0.321900
H521	H52	0.210800	0.653000	0.426000
H531	H53	0.196300	0.740800	0.413700
H541	H54	0.324600	0.561200	0.473700
H551	H55	0.348000	0.759200	0.338100
H561	H56	0.465500	0.674200	0.375300
H571	H57	0.900900	0.889900	0.031200
H581	H58	0.832900	0.028400	0.136500
H591	H59	0.735700	0.971200	0.182400
H601	H60	0.717800	0.901200	0.106200
H611	H61	0.799800	0.832300	0.090300
H621	H62	0.857100	0.760800	0.197100
H631	H63	0.631000	0.857400	0.210600
H641	H64	0.830300	0.683800	0.306900
H651	H65	0.602600	0.782400	0.321900
H661	H66	0.653000	0.710200	0.426000
H671	H67	0.740800	0.649200	0.413700
H681	H68	0.561200	0.640500	0.473700
H691	H69	0.759200	0.554700	0.338100
H701	H70	0.674200	0.485000	0.375300
H711	H71	0.889900	0.178000	0.031200
H721	H72	0.028400	0.002200	0.136500
H731	H73	0.971200	0.110700	0.182400
H741	H74	0.901200	0.274800	0.106200
H751	H75	0.832300	0.277600	0.090300
H761	H76	0.760800	0.185000	0.197100
H771	H77	0.857400	0.301000	0.210600
H781	H78	0.683800	0.179000	0.306900
H791	H79	0.782400	0.293100	0.321900
H801	H80	0.710200	0.210800	0.426000
H811	H81	0.649200	0.196300	0.413700
H821	H82	0.640500	0.324600	0.473700
H831	H83	0.554700	0.348000	0.338100
H841	H84	0.485000	0.465500	0.375300
C11	C1	0.853050	0.128650	0.936550
C21	C2	0.947700	0.165200	0.880000
C31	C3	0.888700	0.218500	0.854200
C41	C4	0.752600	0.233900	0.880300
C51	C5	0.756250	0.253850	0.807550
C61	C6	0.792600	0.195000	0.777700
C71	C7	0.724700	0.327900	0.769600
C81	C8	0.796400	0.211000	0.712600
C91	C9	0.728980	0.345180	0.703360
C101	C10	0.765590	0.285590	0.674530
C111	C11	0.768250	0.305450	0.602650
C121	C12	0.653690	0.400590	0.556630
C131	C13	0.642580	0.291280	0.630460
C141	C14	0.578200	0.338900	0.610000
C151	C15	0.128650	0.081750	0.936550
C161	C16	0.165200	0.007100	0.880000
C171	C17	0.218500	0.038600	0.854200
C181	C18	0.233900	0.133200	0.880300
C191	C19	0.253850	0.182350	0.807550
C201	C20	0.195000	0.234700	0.777700
C211	C21	0.327900	0.177800	0.769600
C221	C22	0.211000	0.280000	0.712600
C231	C23	0.345180	0.222480	0.703360
C241	C24	0.285590	0.274290	0.674530
C251	C25	0.305450	0.323650	0.602650
C261	C26	0.400590	0.389090	0.556630
C271	C27	0.291280	0.435680	0.630460
C281	C28	0.338900	0.472900	0.610000
C291	C29	0.081750	0.853050	0.936550
C301	C30	0.007100	0.947700	0.880000
C311	C31	0.038600	0.888700	0.854200
C321	C32	0.133200	0.752600	0.880300
C331	C33	0.182350	0.756250	0.807550
C341	C34	0.234700	0.792600	0.777700
C351	C35	0.177800	0.724700	0.769600
C361	C36	0.280000	0.796400	0.712600
C371	C37	0.222480	0.728980	0.703360
C381	C38	0.274290	0.765590	0.674530
C391	C39	0.323650	0.768250	0.602650
C401	C40	0.389090	0.653690	0.556630
C411	C41	0.435680	0.642580	0.630460
C421	C42	0.472900	0.578200	0.610000
C431	C43	0.146950	0.871350	0.063450
C441	C44	0.052300	0.834800	0.120000
C451	C45	0.111300	0.781500	0.145800
C461	C46	0.247400	0.766100	0.119700
C471	C47	0.243750	0.746150	0.192450
C481	C48	0.207400	0.805000	0.222300
C491	C49	0.275300	0.672100	0.230400
C501	C50	0.203600	0.789000	0.287400
C511	C51	0.271020	0.654820	0.296640
C521	C52	0.234410	0.714410	0.325470
C531	C53	0.231750	0.694550	0.397350
C541	C54	0.346310	0.599410	0.443370
C551	C55	0.357420	0.708720	0.369540
C561	C56	0.421800	0.661100	0.390000
C571	C57	0.871350	0.918250	0.063450
C581	C58	0.834800	0.992900	0.120000
C591	C59	0.781500	0.961400	0.145800
C601	C60	0.766100	0.866800	0.119700
C611	C61	0.746150	0.817650	0.192450
C621	C62	0.805000	0.765300	0.222300
C631	C63	0.672100	0.822200	0.230400
C641	C64	0.789000	0.720000	0.287400
C651	C65	0.654820	0.777520	0.296640
C661	C66	0.714410	0.725710	0.325470
C671	C67	0.694550	0.676350	0.397350
C681	C68	0.599410	0.610910	0.443370
C691	C69	0.708720	0.564320	0.369540
C701	C70	0.661100	0.527100	0.390000
C711	C71	0.918250	0.146950	0.063450
C721	C72	0.992900	0.052300	0.120000
C731	C73	0.961400	0.111300	0.145800
C741	C74	0.866800	0.247400	0.119700
C751	C75	0.817650	0.243750	0.192450
C761	C76	0.765300	0.207400	0.222300
C771	C77	0.822200	0.275300	0.230400
C781	C78	0.720000	0.203600	0.287400
C791	C79	0.777520	0.271020	0.296640
C801	C80	0.725710	0.234410	0.325470
C811	C81	0.676350	0.231750	0.397350
C821	C82	0.610910	0.346310	0.443370
C831	C83	0.564320	0.357420	0.369540
C841	C84	0.527100	0.421800	0.390000
N11	N1	0.926180	0.108480	0.932560
N21	N2	0.828050	0.195250	0.890050
N31	N3	0.691290	0.331190	0.596530
N41	N4	0.583560	0.407660	0.565720
N51	N5	0.108480	0.032780	0.932560
N61	N6	0.195250	0.086650	0.890050
N71	N7	0.331190	0.380990	0.596530
N81	N8	0.407660	0.443060	0.565720
N91	N9	0.032780	0.926180	0.932560
N101	N10	0.086650	0.828050	0.890050
N111	N11	0.380990	0.691290	0.596530
N121	N12	0.443060	0.583560	0.565720
N131	N13	0.073820	0.891520	0.067440
N141	N14	0.171950	0.804750	0.109950
N151	N15	0.308710	0.668810	0.403470
N161	N16	0.416440	0.592340	0.434280
N171	N17	0.891520	0.967220	0.067440
N181	N18	0.804750	0.913350	0.109950
N191	N19	0.668810	0.619010	0.403470
N201	N20	0.592340	0.556940	0.434280
N211	N21	0.967220	0.073820	0.067440
N221	N22	0.913350	0.171950	0.109950
N231	N23	0.619010	0.308710	0.403470
N241	N24	0.556940	0.416440	0.434280
Cd31	Cd3	0.156550	0.156550	0.530350
Cd41	Cd4	0.656110	0.656110	0.031670
H851	H85	0.984100	0.298200	0.503200
H861	H86	0.016000	0.235700	0.350200
H871	H87	0.130500	0.157000	0.391900
H881	H88	0.873600	0.376000	0.452800
H891	H89	0.860700	0.318100	0.434800
H901	H90	0.943100	0.464400	0.352300
H911	H91	0.843000	0.356700	0.330100
H921	H92	0.942900	0.549100	0.244300
H931	H93	0.847800	0.440300	0.219100
H941	H94	0.913000	0.598100	0.143500
H951	H95	0.931200	0.528600	0.118900
H961	H96	0.748800	0.659300	0.212800
H971	H97	0.833000	0.563400	0.064900
H981	H98	0.645300	0.703100	0.161800
H991	H99	0.327000	0.007700	0.561400
H1001	H100	0.199400	0.175400	0.650800
H1011	H101	0.323100	0.102500	0.680800
H1021	H102	0.446400	0.937800	0.601600
H1031	H103	0.466800	0.996600	0.611200
H1041	H104	0.317800	0.923600	0.731800
H1051	H105	0.532200	0.905700	0.693400
H1061	H106	0.313400	0.852200	0.842500
H1071	H107	0.534900	0.818700	0.799900
H1081	H108	0.388700	0.823600	0.935200
H1091	H109	0.380800	0.757500	0.924100
H1101	H110	0.487700	0.769100	0.989300
H1111	H111	0.547500	0.659000	0.858400
H1121	H112	0.650800	0.599400	0.911300
H1131	H113	0.298200	0.214500	0.503200
H1141	H114	0.235700	0.398100	0.350200
H1151	H115	0.157000	0.320600	0.391900
H1161	H116	0.376000	0.297600	0.452800
H1171	H117	0.318100	0.386400	0.434800
H1181	H118	0.464400	0.240200	0.352300
H1191	H119	0.356700	0.470200	0.330100
H1201	H120	0.549100	0.263700	0.244300
H1211	H121	0.440300	0.492800	0.219100
H1221	H122	0.598100	0.345400	0.143500
H1231	H123	0.528600	0.421300	0.118900
H1241	H124	0.659300	0.379100	0.212800
H1251	H125	0.563400	0.538700	0.064900
H1261	H126	0.703100	0.489800	0.161800
H1271	H127	0.007700	0.103900	0.561400
H1281	H128	0.175400	0.974400	0.650800
H1291	H129	0.102500	0.893600	0.680800
H1301	H130	0.937800	0.014200	0.601600
H1311	H131	0.996600	0.925400	0.611200
H1321	H132	0.923600	0.026800	0.731800
H1331	H133	0.905700	0.868700	0.693400
H1341	H134	0.852200	0.991900	0.842500
H1351	H135	0.818700	0.846500	0.799900
H1361	H136	0.823600	0.852500	0.935200
H1371	H137	0.757500	0.937600	0.924100
H1381	H138	0.769100	0.753900	0.989300
H1391	H139	0.659000	0.935100	0.858400
H1401	H140	0.599400	0.838500	0.911300
H1411	H141	0.214500	0.984100	0.503200
H1421	H142	0.398100	0.016000	0.350200
H1431	H143	0.320600	0.130500	0.391900
H1441	H144	0.297600	0.873600	0.452800
H1451	H145	0.386400	0.860700	0.434800
H1461	H146	0.240200	0.943100	0.352300
H1471	H147	0.470200	0.843000	0.330100
H1481	H148	0.263700	0.942900	0.244300
H1491	H149	0.492800	0.847800	0.219100
H1501	H150	0.345400	0.913000	0.143500
H1511	H151	0.421300	0.931200	0.118900
H1521	H152	0.379100	0.748800	0.212800
H1531	H153	0.538700	0.833000	0.064900
H1541	H154	0.489800	0.645300	0.161800
H1551	H155	0.103900	0.327000	0.561400
H1561	H156	0.974400	0.199400	0.650800
H1571	H157	0.893600	0.323100	0.680800
H1581	H158	0.014200	0.446400	0.601600
H1591	H159	0.925400	0.466800	0.611200
H1601	H160	0.026800	0.317800	0.731800
H1611	H161	0.868700	0.532200	0.693400
H1621	H162	0.991900	0.313400	0.842500
H1631	H163	0.846500	0.534900	0.799900
H1641	H164	0.852500	0.388700	0.935200
H1651	H165	0.937600	0.380800	0.924100
H1661	H166	0.753900	0.487700	0.989300
H1671	H167	0.935100	0.547500	0.858400
H1681	H168	0.838500	0.650800	0.911300
C851	C85	0.006440	0.272440	0.469780
C861	C86	0.023000	0.239300	0.386500
C871	C87	0.085300	0.196100	0.409600
C881	C88	0.895030	0.345730	0.420910
C891	C89	0.895490	0.401390	0.349930
C901	C90	0.923430	0.459330	0.325210
C911	C91	0.864800	0.395000	0.312100
C921	C92	0.923000	0.509700	0.261100
C931	C93	0.866400	0.445700	0.246700
C941	C94	0.894800	0.504100	0.222100
C951	C95	0.894300	0.558200	0.152200
C961	C96	0.753300	0.645200	0.177100
C971	C97	0.798300	0.592700	0.096100
C981	C98	0.697060	0.668060	0.149020
C991	C99	0.309830	0.040730	0.587710
C1001	C100	0.241000	0.131800	0.636400
C1011	C101	0.308500	0.092300	0.653200
C1021	C102	0.428420	0.972320	0.628840
C1031	C103	0.423100	0.926200	0.700600
C1041	C104	0.361500	0.906200	0.746200
C1051	C105	0.487400	0.893800	0.723100
C1061	C106	0.359280	0.861980	0.812260
C1071	C107	0.488200	0.844700	0.787300
C1081	C108	0.420600	0.832400	0.834700
C1091	C109	0.414200	0.786800	0.908200
C1101	C110	0.516000	0.733500	0.963200
C1111	C111	0.547900	0.673800	0.891400
C1121	C112	0.603700	0.642000	0.920600
C1131	C113	0.272440	0.251340	0.469780
C1141	C114	0.239300	0.351200	0.386500
C1151	C115	0.196100	0.309000	0.409600
C1161	C116	0.345730	0.338330	0.420910
C1171	C117	0.401390	0.353190	0.349930
C1181	C118	0.459330	0.292030	0.325210
C1191	C119	0.395000	0.428100	0.312100
C1201	C120	0.509700	0.306200	0.261100
C1211	C121	0.445700	0.441200	0.246700
C1221	C122	0.504100	0.379000	0.222100
C1231	C123	0.558200	0.395300	0.152200
C1241	C124	0.645200	0.424400	0.177100
C1251	C125	0.592700	0.512900	0.096100
C1261	C126	0.668060	0.485860	0.149020
C1271	C127	0.040730	0.061730	0.587710
C1281	C128	0.131800	0.990800	0.636400
C1291	C129	0.092300	0.946000	0.653200
C1301	C130	0.972320	0.970420	0.628840
C1311	C131	0.926200	0.950100	0.700600
C1321	C132	0.906200	0.986100	0.746200
C1331	C133	0.893800	0.895700	0.723100
C1341	C134	0.861980	0.966480	0.812260
C1351	C135	0.844700	0.879800	0.787300
C1361	C136	0.832400	0.912300	0.834700
C1371	C137	0.786800	0.890800	0.908200
C1381	C138	0.733500	0.787300	0.963200
C1391	C139	0.673800	0.886900	0.891400
C1401	C140	0.642000	0.833700	0.920600
C1411	C141	0.251340	0.006440	0.469780
C1421	C142	0.351200	0.023000	0.386500
C1431	C143	0.309000	0.085300	0.409600
C1441	C144	0.338330	0.895030	0.420910
C1451	C145	0.353190	0.895490	0.349930
C1461	C146	0.292030	0.923430	0.325210
C1471	C147	0.428100	0.864800	0.312100
C1481	C148	0.306200	0.923000	0.261100
C1491	C149	0.441200	0.866400	0.246700
C1501	C150	0.379000	0.894800	0.222100
C1511	C151	0.395300	0.894300	0.152200
C1521	C152	0.424400	0.753300	0.177100
C1531	C153	0.512900	0.798300	0.096100
C1541	C154	0.485860	0.697060	0.149020
C1551	C155	0.061730	0.309830	0.587710
C1561	C156	0.990800	0.241000	0.636400
C1571	C157	0.946000	0.308500	0.653200
C1581	C158	0.970420	0.428420	0.628840
C1591	C159	0.950100	0.423100	0.700600
C1601	C160	0.986100	0.361500	0.746200
C1611	C161	0.895700	0.487400	0.723100
C1621	C162	0.966480	0.359280	0.812260
C1631	C163	0.879800	0.488200	0.787300
C1641	C164	0.912300	0.420600	0.834700
C1651	C165	0.890800	0.414200	0.908200
C1661	C166	0.787300	0.516000	0.963200
C1671	C167	0.886900	0.547900	0.891400
C1681	C168	0.833700	0.603700	0.920600
N251	N25	0.074230	0.216030	0.462310
N261	N26	0.971350	0.290050	0.424450
N271	N27	0.818580	0.596780	0.141160
N281	N28	0.725720	0.633620	0.099940
N291	N29	0.241680	0.099380	0.595060
N301	N30	0.351380	0.033880	0.622360
N311	N31	0.490790	0.731790	0.919930
N321	N32	0.583760	0.679960	0.965120
N331	N33	0.216030	0.247430	0.462310
N341	N34	0.290050	0.314150	0.424450
N351	N35	0.596780	0.443480	0.141160
N361	N36	0.633620	0.540720	0.099940
N371	N37	0.099380	0.063880	0.595060
N381	N38	0.033880	0.992380	0.622360
N391	N39	0.731790	0.857490	0.919930
N401	N40	0.679960	0.771160	0.965120
N411	N41	0.247430	0.074230	0.462310
N421	N42	0.314150	0.971350	0.424450
N431	N43	0.443480	0.818580	0.141160
N441	N44	0.540720	0.725720	0.099940
N451	N45	0.063880	0.241680	0.595060
N461	N46	0.992380	0.351380	0.622360
N471	N47	0.857490	0.490790	0.919930
N481	N48	0.771160	0.583760	0.965120
Cd51	Cd5	0.843450	0.843450	0.469650
Cd61	Cd6	0.343890	0.343890	0.968330
H1691	H169	0.015900	0.701800	0.496800
H1701	H170	0.984000	0.764300	0.649800
H1711	H171	0.869500	0.843000	0.608100
H1721	H172	0.126400	0.624000	0.547200
H1731	H173	0.139300	0.681900	0.565200
H1741	H174	0.056900	0.535600	0.647700
H1751	H175	0.157000	0.643300	0.669900
H1761	H176	0.057100	0.450900	0.755700
H1771	H177	0.152200	0.559700	0.780900
H1781	H178	0.087000	0.401900	0.856500
H1791	H179	0.068800	0.471400	0.881100
H1801	H180	0.251200	0.340700	0.787200
H1811	H181	0.167000	0.436600	0.935100
H1821	H182	0.354700	0.296900	0.838200
H1831	H183	0.673000	0.992300	0.438600
H1841	H184	0.800600	0.824600	0.349200
H1851	H185	0.676900	0.897500	0.319200
H1861	H186	0.553600	0.062200	0.398400
H1871	H187	0.533200	0.003400	0.388800
H1881	H188	0.682200	0.076400	0.268200
H1891	H189	0.467800	0.094300	0.306600
H1901	H190	0.686600	0.147800	0.157500
H1911	H191	0.465100	0.181300	0.200100
H1921	H192	0.611300	0.176400	0.064800
H1931	H193	0.619200	0.242500	0.075900
H1941	H194	0.512300	0.230900	0.010700
H1951	H195	0.452500	0.341000	0.141600
H1961	H196	0.349200	0.400600	0.088700
H1971	H197	0.701800	0.785500	0.496800
H1981	H198	0.764300	0.601900	0.649800
H1991	H199	0.843000	0.679400	0.608100
H2001	H200	0.624000	0.702400	0.547200
H2011	H201	0.681900	0.613600	0.565200
H2021	H202	0.535600	0.759800	0.647700
H2031	H203	0.643300	0.529800	0.669900
H2041	H204	0.450900	0.736300	0.755700
H2051	H205	0.559700	0.507200	0.780900
H2061	H206	0.401900	0.654600	0.856500
H2071	H207	0.471400	0.578700	0.881100
H2081	H208	0.340700	0.620900	0.787200
H2091	H209	0.436600	0.461300	0.935100
H2101	H210	0.296900	0.510200	0.838200
H2111	H211	0.992300	0.896100	0.438600
H2121	H212	0.824600	0.025600	0.349200
H2131	H213	0.897500	0.106400	0.319200
H2141	H214	0.062200	0.985800	0.398400
H2151	H215	0.003400	0.074600	0.388800
H2161	H216	0.076400	0.973200	0.268200
H2171	H217	0.094300	0.131300	0.306600
H2181	H218	0.147800	0.008100	0.157500
H2191	H219	0.181300	0.153500	0.200100
H2201	H220	0.176400	0.147500	0.064800
H2211	H221	0.242500	0.062400	0.075900
H2221	H222	0.230900	0.246100	0.010700
H2231	H223	0.341000	0.064900	0.141600
H2241	H224	0.400600	0.161500	0.088700
H2251	H225	0.785500	0.015900	0.496800
H2261	H226	0.601900	0.984000	0.649800
H2271	H227	0.679400	0.869500	0.608100
H2281	H228	0.702400	0.126400	0.547200
H2291	H229	0.613600	0.139300	0.565200
H2301	H230	0.759800	0.056900	0.647700
H2311	H231	0.529800	0.157000	0.669900
H2321	H232	0.736300	0.057100	0.755700
H2331	H233	0.507200	0.152200	0.780900
H2341	H234	0.654600	0.087000	0.856500
H2351	H235	0.578700	0.068800	0.881100
H2361	H236	0.620900	0.251200	0.787200
H2371	H237	0.461300	0.167000	0.935100
H2381	H238	0.510200	0.354700	0.838200
H2391	H239	0.896100	0.673000	0.438600
H2401	H240	0.025600	0.800600	0.349200
H2411	H241	0.106400	0.676900	0.319200
H2421	H242	0.985800	0.553600	0.398400
H2431	H243	0.074600	0.533200	0.388800
H2441	H244	0.973200	0.682200	0.268200
H2451	H245	0.131300	0.467800	0.306600
H2461	H246	0.008100	0.686600	0.157500
H2471	H247	0.153500	0.465100	0.200100
H2481	H248	0.147500	0.611300	0.064800
H2491	H249	0.062400	0.619200	0.075900
H2501	H250	0.246100	0.512300	0.010700
H2511	H251	0.064900	0.452500	0.141600
H2521	H252	0.161500	0.349200	0.088700
C1691	C169	0.993560	0.727560	0.530220
C1701	C170	0.977000	0.760700	0.613500
C1711	C171	0.914700	0.803900	0.590400
C1721	C172	0.104970	0.654270	0.579090
C1731	C173	0.104510	0.598610	0.650070
C1741	C174	0.076570	0.540670	0.674790
C1751	C175	0.135200	0.605000	0.687900
C1761	C176	0.077000	0.490300	0.738900
C1771	C177	0.133600	0.554300	0.753300
C1781	C178	0.105200	0.495900	0.777900
C1791	C179	0.105700	0.441800	0.847800
C1801	C180	0.246700	0.354800	0.822900
C1811	C181	0.201700	0.407300	0.903900
C1821	C182	0.302940	0.331940	0.850980
C1831	C183	0.690170	0.959270	0.412290
C1841	C184	0.759000	0.868200	0.363600
C1851	C185	0.691500	0.907700	0.346800
C1861	C186	0.571580	0.027680	0.371160
C1871	C187	0.576900	0.073800	0.299400
C1881	C188	0.638500	0.093800	0.253800
C1891	C189	0.512600	0.106200	0.276900
C1901	C190	0.640720	0.138020	0.187740
C1911	C191	0.511800	0.155300	0.212700
C1921	C192	0.579400	0.167600	0.165300
C1931	C193	0.585800	0.213200	0.091800
C1941	C194	0.484000	0.266500	0.036800
C1951	C195	0.452100	0.326200	0.108600
C1961	C196	0.396300	0.358000	0.079400
C1971	C197	0.727560	0.748660	0.530220
C1981	C198	0.760700	0.648800	0.613500
C1991	C199	0.803900	0.691000	0.590400
C2001	C200	0.654270	0.661670	0.579090
C2011	C201	0.598610	0.646810	0.650070
C2021	C202	0.540670	0.707970	0.674790
C2031	C203	0.605000	0.571900	0.687900
C2041	C204	0.490300	0.693800	0.738900
C2051	C205	0.554300	0.558800	0.753300
C2061	C206	0.495900	0.621000	0.777900
C2071	C207	0.441800	0.604700	0.847800
C2081	C208	0.354800	0.575600	0.822900
C2091	C209	0.407300	0.487100	0.903900
C2101	C210	0.331940	0.514140	0.850980
C2111	C211	0.959270	0.938270	0.412290
C2121	C212	0.868200	0.009200	0.363600
C2131	C213	0.907700	0.054000	0.346800
C2141	C214	0.027680	0.029580	0.371160
C2151	C215	0.073800	0.049900	0.299400
C2161	C216	0.093800	0.013900	0.253800
C2171	C217	0.106200	0.104300	0.276900
C2181	C218	0.138020	0.033520	0.187740
C2191	C219	0.155300	0.120200	0.212700
C2201	C220	0.167600	0.087700	0.165300
C2211	C221	0.213200	0.109200	0.091800
C2221	C222	0.266500	0.212700	0.036800
C2231	C223	0.326200	0.113100	0.108600
C2241	C224	0.358000	0.166300	0.079400
C2251	C225	0.748660	0.993560	0.530220
C2261	C226	0.648800	0.977000	0.613500
C2271	C227	0.691000	0.914700	0.590400
C2281	C228	0.661670	0.104970	0.579090
C2291	C229	0.646810	0.104510	0.650070
C2301	C230	0.707970	0.076570	0.674790
C2311	C231	0.571900	0.135200	0.687900
C2321	C232	0.693800	0.077000	0.738900
C2331	C233	0.558800	0.133600	0.753300
C2341	C234	0.621000	0.105200	0.777900
C2351	C235	0.604700	0.105700	0.847800
C2361	C236	0.575600	0.246700	0.822900
C2371	C237	0.487100	0.201700	0.903900
C2381	C238	0.514140	0.302940	0.850980
C2391	C239	0.938270	0.690170	0.412290
C2401	C240	0.009200	0.759000	0.363600
C2411	C241	0.054000	0.691500	0.346800
C2421	C242	0.029580	0.571580	0.371160
C2431	C243	0.049900	0.576900	0.299400
C2441	C244	0.013900	0.638500	0.253800
C2451	C245	0.104300	0.512600	0.276900
C2461	C246	0.033520	0.640720	0.187740
C2471	C247	0.120200	0.511800	0.212700
C2481	C248	0.087700	0.579400	0.165300
C2491	C249	0.109200	0.585800	0.091800
C2501	C250	0.212700	0.484000	0.036800
C2511	C251	0.113100	0.452100	0.108600
C2521	C252	0.166300	0.396300	0.079400
N491	N49	0.925770	0.783970	0.537690
N501	N50	0.028650	0.709950	0.575550
N511	N51	0.181420	0.403220	0.858840
N521	N52	0.274280	0.366380	0.900060
N531	N53	0.758320	0.900620	0.404940
N541	N54	0.648620	0.966120	0.377640
N551	N55	0.509210	0.268210	0.080070
N561	N56	0.416240	0.320040	0.034880
N571	N57	0.783970	0.752570	0.537690
N581	N58	0.709950	0.685850	0.575550
N591	N59	0.403220	0.556520	0.858840
N601	N60	0.366380	0.459280	0.900060
N611	N61	0.900620	0.936120	0.404940
N621	N62	0.966120	0.007620	0.377640
N631	N63	0.268210	0.142510	0.080070
N641	N64	0.320040	0.228840	0.034880
N651	N65	0.752570	0.925770	0.537690
N661	N66	0.685850	0.028650	0.575550
N671	N67	0.556520	0.181420	0.858840
N681	N68	0.459280	0.274280	0.900060
N691	N69	0.936120	0.758320	0.404940
N701	N70	0.007620	0.648620	0.377640
N711	N71	0.142510	0.509210	0.080070
N721	N72	0.228840	0.416240	0.034880
Cl11	Cl1	0.849590	0.163600	0.485440
O11	O1	0.883540	0.189440	0.413680
O21	O2	0.891980	0.163380	0.520060
O31	O3	0.851220	0.087020	0.503740
O41	O4	0.770990	0.216190	0.503530
Cl21	Cl2	0.673550	0.059150	0.992950
O51	O5	0.656300	0.997300	0.007500
O61	O6	0.618900	0.133800	0.973300
O71	O7	0.694400	0.057400	0.042600
O81	O8	0.742300	0.056700	0.934000
Cl31	Cl3	0.163600	0.501370	0.485440
O91	O9	0.189440	0.513340	0.413680
O101	O10	0.163380	0.424580	0.520060
O111	O11	0.087020	0.558020	0.503740
O121	O12	0.216190	0.509290	0.503530
Cl41	Cl4	0.059150	0.274350	0.992950
O131	O13	0.997300	0.338900	0.007500
O141	O14	0.133800	0.274000	0.973300
O151	O15	0.057400	0.205600	0.042600
O161	O16	0.056700	0.267000	0.934000
Cl51	Cl5	0.501370	0.849590	0.485440
O171	O17	0.513340	0.883540	0.413680
O181	O18	0.424580	0.891980	0.520060
O191	O19	0.558020	0.851220	0.503740
O201	O20	0.509290	0.770990	0.503530
Cl61	Cl6	0.274350	0.673550	0.992950
O211	O21	0.338900	0.656300	0.007500
O221	O22	0.274000	0.618900	0.973300
O231	O23	0.205600	0.694400	0.042600
O241	O24	0.267000	0.742300	0.934000
Cl71	Cl7	0.150410	0.836400	0.514560
O251	O25	0.116460	0.810560	0.586320
O261	O26	0.108020	0.836620	0.479940
O271	O27	0.148780	0.912980	0.496260
O281	O28	0.229010	0.783810	0.496470
Cl81	Cl8	0.326450	0.940850	0.007050
O291	O29	0.343700	0.002700	0.992500
O301	O30	0.381100	0.866200	0.026700
O311	O31	0.305600	0.942600	0.957400
O321	O32	0.257700	0.943300	0.066000
Cl91	Cl9	0.836400	0.498630	0.514560
O331	O33	0.810560	0.486660	0.586320
O341	O34	0.836620	0.575420	0.479940
O351	O35	0.912980	0.441980	0.496260
O361	O36	0.783810	0.490710	0.496470
Cl101	Cl10	0.940850	0.725650	0.007050
O371	O37	0.002700	0.661100	0.992500
O381	O38	0.866200	0.726000	0.026700
O391	O39	0.942600	0.794400	0.957400
O401	O40	0.943300	0.733000	0.066000
Cl111	Cl11	0.498630	0.150410	0.514560
O411	O41	0.486660	0.116460	0.586320
O421	O42	0.575420	0.108020	0.479940
O431	O43	0.441980	0.148780	0.496260
O441	O44	0.490710	0.229010	0.496470
Cl121	Cl12	0.725650	0.326450	0.007050
O451	O45	0.661100	0.343700	0.992500
O461	O46	0.726000	0.381100	0.026700
O471	O47	0.794400	0.305600	0.957400
O481	O48	0.733000	0.257700	0.066000
