data_HULCOI_clean_PM
_symmetry_space_group_name_H-M	'P1'
_cell_length_a	31.086500
_cell_length_b	31.086500
_cell_length_c	44.596000
_cell_angle_alpha	90.000000
_cell_angle_beta	90.000000
_cell_angle_gamma	90.000000
_symmetry_Int_Tables_number 1

loop_
_symmetry_equiv_pos_as_xyz
'x,y,z'

loop_
_atom_site_label
_atom_site_type_symbol
_atom_site_fract_x
_atom_site_fract_y
_atom_site_fract_z
C11	C1	0.301200	0.956000	0.144100
C21	C2	0.326200	0.982600	0.126200
H11	H1	0.338700	0.971900	0.108800
C31	C3	0.332400	0.025400	0.134200
C41	C4	0.313700	0.041500	0.160200
H21	H2	0.317800	0.070100	0.165600
C51	C5	0.288600	0.014800	0.178100
C61	C6	0.282400	0.972000	0.170100
H31	H3	0.265700	0.954200	0.182100
O11	O1	0.306800	0.690000	0.144700
N11	N1	0.302900	0.844800	0.120400
H41	H4	0.279200	0.839100	0.129500
C71	C7	0.178300	0.993500	0.310200
C81	C8	0.364100	0.779300	0.066800
C91	C9	0.319600	0.889100	0.122100
O21	O2	0.344500	0.900000	0.101200
N21	N2	0.293300	0.913400	0.137600
H51	H5	0.269800	0.902100	0.144100
Cu11	Cu1	0.362440	0.301440	0.168550
Cu21	Cu2	0.396760	0.350740	0.126840
O31	O3	0.381500	0.254000	0.142100
O41	O4	0.152600	0.143800	0.312000
O51	O5	0.513200	0.160800	0.030600
O61	O6	0.124500	0.101300	0.348300
O71	O7	0.412500	0.296400	0.107600
C101	C10	0.403300	0.262200	0.120800
O81	O8	0.151900	0.948300	0.347100
O91	O9	0.346200	0.659800	0.106900
O101	O10	0.410700	0.751200	0.031300
O111	O11	0.502300	0.232400	0.030000
C111	C11	0.145500	0.109500	0.326000
O121	O12	0.196500	0.919900	0.312200
O131	O13	0.399800	0.820400	0.031400
C121	C12	0.329300	0.690300	0.122000
C131	C13	0.175600	0.949400	0.325600
C141	C14	0.496800	0.193600	0.039500
O141	O14	0.352100	0.115700	0.138100
C151	C15	0.417900	0.221600	0.103400
C161	C16	0.394500	0.784500	0.040700
C171	C17	0.163400	0.069400	0.309600
C181	C18	0.334200	0.733500	0.106400
C191	C19	0.463800	0.190500	0.063500
C201	C20	0.347600	0.815200	0.079900
H61	H6	0.353000	0.842300	0.071800
O151	O15	0.334900	0.259000	0.203400
H71	H7	0.342000	0.267700	0.220000
N31	N3	0.265500	0.035200	0.202200
H81	H8	0.267000	0.062800	0.202900
C211	C21	0.446200	0.226100	0.078400
H91	H9	0.453100	0.253600	0.071700
C221	C22	0.184300	0.074400	0.282100
H101	H10	0.185500	0.101300	0.273000
O161	O16	0.238900	0.977900	0.226400
C231	C23	0.448000	0.150500	0.072500
H111	H11	0.458900	0.125900	0.063300
C241	C24	0.358400	0.738400	0.080600
H121	H12	0.371100	0.714300	0.071900
N41	N4	0.403200	0.104000	0.099800
H131	H13	0.415000	0.083600	0.089700
C251	C25	0.315500	0.769800	0.118000
H141	H14	0.297600	0.767800	0.134600
C261	C26	0.159100	0.029800	0.321700
H151	H15	0.142000	0.026800	0.338700
N51	N5	0.228900	0.046100	0.246300
H161	H16	0.239000	0.071800	0.245300
C271	C27	0.203900	0.038200	0.267700
O171	O17	0.425100	0.390600	0.091100
H171	H17	0.447600	0.379600	0.085400
C281	C28	0.323600	0.811100	0.104500
C291	C29	0.403400	0.181800	0.109400
H181	H18	0.383000	0.178000	0.124500
C301	C30	0.199500	0.997700	0.280800
H191	H19	0.210000	0.973400	0.271100
C311	C31	0.242400	0.016600	0.223200
C321	C32	0.371600	0.091500	0.120200
C331	C33	0.418300	0.145900	0.093400
N61	N6	0.366000	0.047800	0.117200
H201	H20	0.382300	0.033600	0.105200
C341	C34	0.801200	0.456000	0.644100
C351	C35	0.826200	0.482600	0.626200
H211	H21	0.838700	0.471900	0.608800
C361	C36	0.832400	0.525400	0.634200
C371	C37	0.813700	0.541500	0.660200
H221	H22	0.817800	0.570100	0.665600
C381	C38	0.788600	0.514800	0.678100
C391	C39	0.782400	0.472000	0.670100
H231	H23	0.765700	0.454200	0.682100
O181	O18	0.806800	0.190000	0.644700
N71	N7	0.802900	0.344800	0.620400
H241	H24	0.779200	0.339100	0.629500
C401	C40	0.678300	0.493500	0.810200
C411	C41	0.864100	0.279300	0.566800
C421	C42	0.819600	0.389100	0.622100
O191	O19	0.844500	0.400000	0.601200
N81	N8	0.793300	0.413400	0.637600
H251	H25	0.769800	0.402100	0.644100
Cu31	Cu3	0.862440	0.801440	0.668550
Cu41	Cu4	0.896760	0.850740	0.626840
O201	O20	0.881500	0.754000	0.642100
O211	O21	0.652600	0.643800	0.812000
O221	O22	0.013200	0.660800	0.530600
O231	O23	0.624500	0.601300	0.848300
O241	O24	0.912500	0.796400	0.607600
C431	C43	0.903300	0.762200	0.620800
O251	O25	0.651900	0.448300	0.847100
O261	O26	0.846200	0.159800	0.606900
O271	O27	0.910700	0.251200	0.531300
O281	O28	0.002300	0.732400	0.530000
C441	C44	0.645500	0.609500	0.826000
O291	O29	0.696500	0.419900	0.812200
O301	O30	0.899800	0.320400	0.531400
C451	C45	0.829300	0.190300	0.622000
C461	C46	0.675600	0.449400	0.825600
C471	C47	0.996800	0.693600	0.539500
O311	O31	0.852100	0.615700	0.638100
C481	C48	0.917900	0.721600	0.603400
C491	C49	0.894500	0.284500	0.540700
C501	C50	0.663400	0.569400	0.809600
C511	C51	0.834200	0.233500	0.606400
C521	C52	0.963800	0.690500	0.563500
C531	C53	0.847600	0.315200	0.579900
H261	H26	0.853000	0.342300	0.571800
O321	O32	0.834900	0.759000	0.703400
H271	H27	0.842000	0.767700	0.720000
N91	N9	0.765500	0.535200	0.702200
H281	H28	0.767000	0.562800	0.702900
C541	C54	0.946200	0.726100	0.578400
H291	H29	0.953100	0.753600	0.571700
C551	C55	0.684300	0.574400	0.782100
H301	H30	0.685500	0.601300	0.773000
O331	O33	0.738900	0.477900	0.726400
C561	C56	0.948000	0.650500	0.572500
H311	H31	0.958900	0.625900	0.563300
C571	C57	0.858400	0.238400	0.580600
H321	H32	0.871100	0.214300	0.571900
N101	N10	0.903200	0.604000	0.599800
H331	H33	0.915000	0.583600	0.589700
C581	C58	0.815500	0.269800	0.618000
H341	H34	0.797600	0.267800	0.634600
C591	C59	0.659100	0.529800	0.821700
H351	H35	0.642000	0.526800	0.838700
N111	N11	0.728900	0.546100	0.746300
H361	H36	0.739000	0.571800	0.745300
C601	C60	0.703900	0.538200	0.767700
O341	O34	0.925100	0.890600	0.591100
H371	H37	0.947600	0.879600	0.585400
C611	C61	0.823600	0.311100	0.604500
C621	C62	0.903400	0.681800	0.609400
H381	H38	0.883000	0.678000	0.624500
C631	C63	0.699500	0.497700	0.780800
H391	H39	0.710000	0.473400	0.771100
C641	C64	0.742400	0.516600	0.723200
C651	C65	0.871600	0.591500	0.620200
C661	C66	0.918300	0.645900	0.593400
N121	N12	0.866000	0.547800	0.617200
H401	H40	0.882300	0.533600	0.605200
C671	C67	0.698800	0.044000	0.144100
C681	C68	0.673800	0.017400	0.126200
H411	H41	0.661300	0.028100	0.108800
C691	C69	0.667600	0.974600	0.134200
C701	C70	0.686300	0.958500	0.160200
H421	H42	0.682200	0.929900	0.165600
C711	C71	0.711400	0.985200	0.178100
C721	C72	0.717600	0.028000	0.170100
H431	H43	0.734300	0.045800	0.182100
O351	O35	0.693200	0.310000	0.144700
N131	N13	0.697100	0.155200	0.120400
H441	H44	0.720800	0.160900	0.129500
C731	C73	0.821700	0.006500	0.310200
C741	C74	0.635900	0.220700	0.066800
C751	C75	0.680400	0.110900	0.122100
O361	O36	0.655500	0.100000	0.101200
N141	N14	0.706700	0.086600	0.137600
H451	H45	0.730200	0.097900	0.144100
Cu51	Cu5	0.637560	0.698560	0.168550
Cu61	Cu6	0.603240	0.649260	0.126840
O371	O37	0.618500	0.746000	0.142100
O381	O38	0.847400	0.856200	0.312000
O391	O39	0.486800	0.839200	0.030600
O401	O40	0.875500	0.898700	0.348300
O411	O41	0.587500	0.703600	0.107600
C761	C76	0.596700	0.737800	0.120800
O421	O42	0.848100	0.051700	0.347100
O431	O43	0.653800	0.340200	0.106900
O441	O44	0.589300	0.248800	0.031300
O451	O45	0.497700	0.767600	0.030000
C771	C77	0.854500	0.890500	0.326000
O461	O46	0.803500	0.080100	0.312200
O471	O47	0.600200	0.179600	0.031400
C781	C78	0.670700	0.309700	0.122000
C791	C79	0.824400	0.050600	0.325600
C801	C80	0.503200	0.806400	0.039500
O481	O48	0.647900	0.884300	0.138100
C811	C81	0.582100	0.778400	0.103400
C821	C82	0.605500	0.215500	0.040700
C831	C83	0.836600	0.930600	0.309600
C841	C84	0.665800	0.266500	0.106400
C851	C85	0.536200	0.809500	0.063500
C861	C86	0.652400	0.184800	0.079900
H461	H46	0.647000	0.157700	0.071800
O491	O49	0.665100	0.741000	0.203400
H471	H47	0.658000	0.732300	0.220000
N151	N15	0.734500	0.964800	0.202200
H481	H48	0.733000	0.937200	0.202900
C871	C87	0.553800	0.773900	0.078400
H491	H49	0.546900	0.746400	0.071700
C881	C88	0.815700	0.925600	0.282100
H501	H50	0.814500	0.898700	0.273000
O501	O50	0.761100	0.022100	0.226400
C891	C89	0.552000	0.849500	0.072500
H511	H51	0.541100	0.874100	0.063300
C901	C90	0.641600	0.261600	0.080600
H521	H52	0.628900	0.285700	0.071900
N161	N16	0.596800	0.896000	0.099800
H531	H53	0.585000	0.916400	0.089700
C911	C91	0.684500	0.230200	0.118000
H541	H54	0.702400	0.232200	0.134600
C921	C92	0.840900	0.970200	0.321700
H551	H55	0.858000	0.973200	0.338700
N171	N17	0.771100	0.953900	0.246300
H561	H56	0.761000	0.928200	0.245300
C931	C93	0.796100	0.961800	0.267700
O511	O51	0.574900	0.609400	0.091100
H571	H57	0.552400	0.620400	0.085400
C941	C94	0.676400	0.188900	0.104500
C951	C95	0.596600	0.818200	0.109400
H581	H58	0.617000	0.822000	0.124500
C961	C96	0.800500	0.002300	0.280800
H591	H59	0.790000	0.026600	0.271100
C971	C97	0.757600	0.983400	0.223200
C981	C98	0.628400	0.908500	0.120200
C991	C99	0.581700	0.854100	0.093400
N181	N18	0.634000	0.952200	0.117200
H601	H60	0.617700	0.966400	0.105200
C1001	C100	0.198800	0.544000	0.644100
C1011	C101	0.173800	0.517400	0.626200
H611	H61	0.161300	0.528100	0.608800
C1021	C102	0.167600	0.474600	0.634200
C1031	C103	0.186300	0.458500	0.660200
H621	H62	0.182200	0.429900	0.665600
C1041	C104	0.211400	0.485200	0.678100
C1051	C105	0.217600	0.528000	0.670100
H631	H63	0.234300	0.545800	0.682100
O521	O52	0.193200	0.810000	0.644700
N191	N19	0.197100	0.655200	0.620400
H641	H64	0.220800	0.660900	0.629500
C1061	C106	0.321700	0.506500	0.810200
C1071	C107	0.135900	0.720700	0.566800
C1081	C108	0.180400	0.610900	0.622100
O531	O53	0.155500	0.600000	0.601200
N201	N20	0.206700	0.586600	0.637600
H651	H65	0.230200	0.597900	0.644100
Cu71	Cu7	0.137560	0.198560	0.668550
Cu81	Cu8	0.103240	0.149260	0.626840
O541	O54	0.118500	0.246000	0.642100
O551	O55	0.347400	0.356200	0.812000
O561	O56	0.986800	0.339200	0.530600
O571	O57	0.375500	0.398700	0.848300
O581	O58	0.087500	0.203600	0.607600
C1091	C109	0.096700	0.237800	0.620800
O591	O59	0.348100	0.551700	0.847100
O601	O60	0.153800	0.840200	0.606900
O611	O61	0.089300	0.748800	0.531300
O621	O62	0.997700	0.267600	0.530000
C1101	C110	0.354500	0.390500	0.826000
O631	O63	0.303500	0.580100	0.812200
O641	O64	0.100200	0.679600	0.531400
C1111	C111	0.170700	0.809700	0.622000
C1121	C112	0.324400	0.550600	0.825600
C1131	C113	0.003200	0.306400	0.539500
O651	O65	0.147900	0.384300	0.638100
C1141	C114	0.082100	0.278400	0.603400
C1151	C115	0.105500	0.715500	0.540700
C1161	C116	0.336600	0.430600	0.809600
C1171	C117	0.165800	0.766500	0.606400
C1181	C118	0.036200	0.309500	0.563500
C1191	C119	0.152400	0.684800	0.579900
H661	H66	0.147000	0.657700	0.571800
O661	O66	0.165100	0.241000	0.703400
H671	H67	0.158000	0.232300	0.720000
N211	N21	0.234500	0.464800	0.702200
H681	H68	0.233000	0.437200	0.702900
C1201	C120	0.053800	0.273900	0.578400
H691	H69	0.046900	0.246400	0.571700
C1211	C121	0.315700	0.425600	0.782100
H701	H70	0.314500	0.398700	0.773000
O671	O67	0.261100	0.522100	0.726400
C1221	C122	0.052000	0.349500	0.572500
H711	H71	0.041100	0.374100	0.563300
C1231	C123	0.141600	0.761600	0.580600
H721	H72	0.128900	0.785700	0.571900
N221	N22	0.096800	0.396000	0.599800
H731	H73	0.085000	0.416400	0.589700
C1241	C124	0.184500	0.730200	0.618000
H741	H74	0.202400	0.732200	0.634600
C1251	C125	0.340900	0.470200	0.821700
H751	H75	0.358000	0.473200	0.838700
N231	N23	0.271100	0.453900	0.746300
H761	H76	0.261000	0.428200	0.745300
C1261	C126	0.296100	0.461800	0.767700
O681	O68	0.074900	0.109400	0.591100
H771	H77	0.052400	0.120400	0.585400
C1271	C127	0.176400	0.688900	0.604500
C1281	C128	0.096600	0.318200	0.609400
H781	H78	0.117000	0.322000	0.624500
C1291	C129	0.300500	0.502300	0.780800
H791	H79	0.290000	0.526600	0.771100
C1301	C130	0.257600	0.483400	0.723200
C1311	C131	0.128400	0.408500	0.620200
C1321	C132	0.081700	0.354100	0.593400
N241	N24	0.134000	0.452200	0.617200
H801	H80	0.117700	0.466400	0.605200
C1331	C133	0.044000	0.301200	0.144100
C1341	C134	0.017400	0.326200	0.126200
H811	H81	0.028100	0.338700	0.108800
C1351	C135	0.974600	0.332400	0.134200
C1361	C136	0.958500	0.313700	0.160200
H821	H82	0.929900	0.317800	0.165600
C1371	C137	0.985200	0.288600	0.178100
C1381	C138	0.028000	0.282400	0.170100
H831	H83	0.045800	0.265700	0.182100
O691	O69	0.310000	0.306800	0.144700
N251	N25	0.155200	0.302900	0.120400
H841	H84	0.160900	0.279200	0.129500
C1391	C139	0.006500	0.178300	0.310200
C1401	C140	0.220700	0.364100	0.066800
C1411	C141	0.110900	0.319600	0.122100
O701	O70	0.100000	0.344500	0.101200
N261	N26	0.086600	0.293300	0.137600
H851	H85	0.097900	0.269800	0.144100
Cu91	Cu9	0.698560	0.362440	0.168550
Cu101	Cu10	0.649260	0.396760	0.126840
O711	O71	0.746000	0.381500	0.142100
O721	O72	0.856200	0.152600	0.312000
O731	O73	0.839200	0.513200	0.030600
O741	O74	0.898700	0.124500	0.348300
O751	O75	0.703600	0.412500	0.107600
C1421	C142	0.737800	0.403300	0.120800
O761	O76	0.051700	0.151900	0.347100
O771	O77	0.340200	0.346200	0.106900
O781	O78	0.248800	0.410700	0.031300
O791	O79	0.767600	0.502300	0.030000
C1431	C143	0.890500	0.145500	0.326000
O801	O80	0.080100	0.196500	0.312200
O811	O81	0.179600	0.399800	0.031400
C1441	C144	0.309700	0.329300	0.122000
C1451	C145	0.050600	0.175600	0.325600
C1461	C146	0.806400	0.496800	0.039500
O821	O82	0.884300	0.352100	0.138100
C1471	C147	0.778400	0.417900	0.103400
C1481	C148	0.215500	0.394500	0.040700
C1491	C149	0.930600	0.163400	0.309600
C1501	C150	0.266500	0.334200	0.106400
C1511	C151	0.809500	0.463800	0.063500
C1521	C152	0.184800	0.347600	0.079900
H861	H86	0.157700	0.353000	0.071800
O831	O83	0.741000	0.334900	0.203400
H871	H87	0.732300	0.342000	0.220000
N271	N27	0.964800	0.265500	0.202200
H881	H88	0.937200	0.267000	0.202900
C1531	C153	0.773900	0.446200	0.078400
H891	H89	0.746400	0.453100	0.071700
C1541	C154	0.925600	0.184300	0.282100
H901	H90	0.898700	0.185500	0.273000
O841	O84	0.022100	0.238900	0.226400
C1551	C155	0.849500	0.448000	0.072500
H911	H91	0.874100	0.458900	0.063300
C1561	C156	0.261600	0.358400	0.080600
H921	H92	0.285700	0.371100	0.071900
N281	N28	0.896000	0.403200	0.099800
H931	H93	0.916400	0.415000	0.089700
C1571	C157	0.230200	0.315500	0.118000
H941	H94	0.232200	0.297600	0.134600
C1581	C158	0.970200	0.159100	0.321700
H951	H95	0.973200	0.142000	0.338700
N291	N29	0.953900	0.228900	0.246300
H961	H96	0.928200	0.239000	0.245300
C1591	C159	0.961800	0.203900	0.267700
O851	O85	0.609400	0.425100	0.091100
H971	H97	0.620400	0.447600	0.085400
C1601	C160	0.188900	0.323600	0.104500
C1611	C161	0.818200	0.403400	0.109400
H981	H98	0.822000	0.383000	0.124500
C1621	C162	0.002300	0.199500	0.280800
H991	H99	0.026600	0.210000	0.271100
C1631	C163	0.983400	0.242400	0.223200
C1641	C164	0.908500	0.371600	0.120200
C1651	C165	0.854100	0.418300	0.093400
N301	N30	0.952200	0.366000	0.117200
H1001	H100	0.966400	0.382300	0.105200
C1661	C166	0.544000	0.801200	0.644100
C1671	C167	0.517400	0.826200	0.626200
H1011	H101	0.528100	0.838700	0.608800
C1681	C168	0.474600	0.832400	0.634200
C1691	C169	0.458500	0.813700	0.660200
H1021	H102	0.429900	0.817800	0.665600
C1701	C170	0.485200	0.788600	0.678100
C1711	C171	0.528000	0.782400	0.670100
H1031	H103	0.545800	0.765700	0.682100
O861	O86	0.810000	0.806800	0.644700
N311	N31	0.655200	0.802900	0.620400
H1041	H104	0.660900	0.779200	0.629500
C1721	C172	0.506500	0.678300	0.810200
C1731	C173	0.720700	0.864100	0.566800
C1741	C174	0.610900	0.819600	0.622100
O871	O87	0.600000	0.844500	0.601200
N321	N32	0.586600	0.793300	0.637600
H1051	H105	0.597900	0.769800	0.644100
Cu111	Cu11	0.198560	0.862440	0.668550
Cu121	Cu12	0.149260	0.896760	0.626840
O881	O88	0.246000	0.881500	0.642100
O891	O89	0.356200	0.652600	0.812000
O901	O90	0.339200	0.013200	0.530600
O911	O91	0.398700	0.624500	0.848300
O921	O92	0.203600	0.912500	0.607600
C1751	C175	0.237800	0.903300	0.620800
O931	O93	0.551700	0.651900	0.847100
O941	O94	0.840200	0.846200	0.606900
O951	O95	0.748800	0.910700	0.531300
O961	O96	0.267600	0.002300	0.530000
C1761	C176	0.390500	0.645500	0.826000
O971	O97	0.580100	0.696500	0.812200
O981	O98	0.679600	0.899800	0.531400
C1771	C177	0.809700	0.829300	0.622000
C1781	C178	0.550600	0.675600	0.825600
C1791	C179	0.306400	0.996800	0.539500
O991	O99	0.384300	0.852100	0.638100
C1801	C180	0.278400	0.917900	0.603400
C1811	C181	0.715500	0.894500	0.540700
C1821	C182	0.430600	0.663400	0.809600
C1831	C183	0.766500	0.834200	0.606400
C1841	C184	0.309500	0.963800	0.563500
C1851	C185	0.684800	0.847600	0.579900
H1061	H106	0.657700	0.853000	0.571800
O1001	O100	0.241000	0.834900	0.703400
H1071	H107	0.232300	0.842000	0.720000
N331	N33	0.464800	0.765500	0.702200
H1081	H108	0.437200	0.767000	0.702900
C1861	C186	0.273900	0.946200	0.578400
H1091	H109	0.246400	0.953100	0.571700
C1871	C187	0.425600	0.684300	0.782100
H1101	H110	0.398700	0.685500	0.773000
O1011	O101	0.522100	0.738900	0.726400
C1881	C188	0.349500	0.948000	0.572500
H1111	H111	0.374100	0.958900	0.563300
C1891	C189	0.761600	0.858400	0.580600
H1121	H112	0.785700	0.871100	0.571900
N341	N34	0.396000	0.903200	0.599800
H1131	H113	0.416400	0.915000	0.589700
C1901	C190	0.730200	0.815500	0.618000
H1141	H114	0.732200	0.797600	0.634600
C1911	C191	0.470200	0.659100	0.821700
H1151	H115	0.473200	0.642000	0.838700
N351	N35	0.453900	0.728900	0.746300
H1161	H116	0.428200	0.739000	0.745300
C1921	C192	0.461800	0.703900	0.767700
O1021	O102	0.109400	0.925100	0.591100
H1171	H117	0.120400	0.947600	0.585400
C1931	C193	0.688900	0.823600	0.604500
C1941	C194	0.318200	0.903400	0.609400
H1181	H118	0.322000	0.883000	0.624500
C1951	C195	0.502300	0.699500	0.780800
H1191	H119	0.526600	0.710000	0.771100
C1961	C196	0.483400	0.742400	0.723200
C1971	C197	0.408500	0.871600	0.620200
C1981	C198	0.354100	0.918300	0.593400
N361	N36	0.452200	0.866000	0.617200
H1201	H120	0.466400	0.882300	0.605200
C1991	C199	0.956000	0.698800	0.144100
C2001	C200	0.982600	0.673800	0.126200
H1211	H121	0.971900	0.661300	0.108800
C2011	C201	0.025400	0.667600	0.134200
C2021	C202	0.041500	0.686300	0.160200
H1221	H122	0.070100	0.682200	0.165600
C2031	C203	0.014800	0.711400	0.178100
C2041	C204	0.972000	0.717600	0.170100
H1231	H123	0.954200	0.734300	0.182100
O1031	O103	0.690000	0.693200	0.144700
N371	N37	0.844800	0.697100	0.120400
H1241	H124	0.839100	0.720800	0.129500
C2051	C205	0.993500	0.821700	0.310200
C2061	C206	0.779300	0.635900	0.066800
C2071	C207	0.889100	0.680400	0.122100
O1041	O104	0.900000	0.655500	0.101200
N381	N38	0.913400	0.706700	0.137600
H1251	H125	0.902100	0.730200	0.144100
Cu131	Cu13	0.301440	0.637560	0.168550
Cu141	Cu14	0.350740	0.603240	0.126840
O1051	O105	0.254000	0.618500	0.142100
O1061	O106	0.143800	0.847400	0.312000
O1071	O107	0.160800	0.486800	0.030600
O1081	O108	0.101300	0.875500	0.348300
O1091	O109	0.296400	0.587500	0.107600
C2081	C208	0.262200	0.596700	0.120800
O1101	O110	0.948300	0.848100	0.347100
O1111	O111	0.659800	0.653800	0.106900
O1121	O112	0.751200	0.589300	0.031300
O1131	O113	0.232400	0.497700	0.030000
C2091	C209	0.109500	0.854500	0.326000
O1141	O114	0.919900	0.803500	0.312200
O1151	O115	0.820400	0.600200	0.031400
C2101	C210	0.690300	0.670700	0.122000
C2111	C211	0.949400	0.824400	0.325600
C2121	C212	0.193600	0.503200	0.039500
O1161	O116	0.115700	0.647900	0.138100
C2131	C213	0.221600	0.582100	0.103400
C2141	C214	0.784500	0.605500	0.040700
C2151	C215	0.069400	0.836600	0.309600
C2161	C216	0.733500	0.665800	0.106400
C2171	C217	0.190500	0.536200	0.063500
C2181	C218	0.815200	0.652400	0.079900
H1261	H126	0.842300	0.647000	0.071800
O1171	O117	0.259000	0.665100	0.203400
H1271	H127	0.267700	0.658000	0.220000
N391	N39	0.035200	0.734500	0.202200
H1281	H128	0.062800	0.733000	0.202900
C2191	C219	0.226100	0.553800	0.078400
H1291	H129	0.253600	0.546900	0.071700
C2201	C220	0.074400	0.815700	0.282100
H1301	H130	0.101300	0.814500	0.273000
O1181	O118	0.977900	0.761100	0.226400
C2211	C221	0.150500	0.552000	0.072500
H1311	H131	0.125900	0.541100	0.063300
C2221	C222	0.738400	0.641600	0.080600
H1321	H132	0.714300	0.628900	0.071900
N401	N40	0.104000	0.596800	0.099800
H1331	H133	0.083600	0.585000	0.089700
C2231	C223	0.769800	0.684500	0.118000
H1341	H134	0.767800	0.702400	0.134600
C2241	C224	0.029800	0.840900	0.321700
H1351	H135	0.026800	0.858000	0.338700
N411	N41	0.046100	0.771100	0.246300
H1361	H136	0.071800	0.761000	0.245300
C2251	C225	0.038200	0.796100	0.267700
O1191	O119	0.390600	0.574900	0.091100
H1371	H137	0.379600	0.552400	0.085400
C2261	C226	0.811100	0.676400	0.104500
C2271	C227	0.181800	0.596600	0.109400
H1381	H138	0.178000	0.617000	0.124500
C2281	C228	0.997700	0.800500	0.280800
H1391	H139	0.973400	0.790000	0.271100
C2291	C229	0.016600	0.757600	0.223200
C2301	C230	0.091500	0.628400	0.120200
C2311	C231	0.145900	0.581700	0.093400
N421	N42	0.047800	0.634000	0.117200
H1401	H140	0.033600	0.617700	0.105200
C2321	C232	0.456000	0.198800	0.644100
C2331	C233	0.482600	0.173800	0.626200
H1411	H141	0.471900	0.161300	0.608800
C2341	C234	0.525400	0.167600	0.634200
C2351	C235	0.541500	0.186300	0.660200
H1421	H142	0.570100	0.182200	0.665600
C2361	C236	0.514800	0.211400	0.678100
C2371	C237	0.472000	0.217600	0.670100
H1431	H143	0.454200	0.234300	0.682100
O1201	O120	0.190000	0.193200	0.644700
N431	N43	0.344800	0.197100	0.620400
H1441	H144	0.339100	0.220800	0.629500
C2381	C238	0.493500	0.321700	0.810200
C2391	C239	0.279300	0.135900	0.566800
C2401	C240	0.389100	0.180400	0.622100
O1211	O121	0.400000	0.155500	0.601200
N441	N44	0.413400	0.206700	0.637600
H1451	H145	0.402100	0.230200	0.644100
Cu151	Cu15	0.801440	0.137560	0.668550
Cu161	Cu16	0.850740	0.103240	0.626840
O1221	O122	0.754000	0.118500	0.642100
O1231	O123	0.643800	0.347400	0.812000
O1241	O124	0.660800	0.986800	0.530600
O1251	O125	0.601300	0.375500	0.848300
O1261	O126	0.796400	0.087500	0.607600
C2411	C241	0.762200	0.096700	0.620800
O1271	O127	0.448300	0.348100	0.847100
O1281	O128	0.159800	0.153800	0.606900
O1291	O129	0.251200	0.089300	0.531300
O1301	O130	0.732400	0.997700	0.530000
C2421	C242	0.609500	0.354500	0.826000
O1311	O131	0.419900	0.303500	0.812200
O1321	O132	0.320400	0.100200	0.531400
C2431	C243	0.190300	0.170700	0.622000
C2441	C244	0.449400	0.324400	0.825600
C2451	C245	0.693600	0.003200	0.539500
O1331	O133	0.615700	0.147900	0.638100
C2461	C246	0.721600	0.082100	0.603400
C2471	C247	0.284500	0.105500	0.540700
C2481	C248	0.569400	0.336600	0.809600
C2491	C249	0.233500	0.165800	0.606400
C2501	C250	0.690500	0.036200	0.563500
C2511	C251	0.315200	0.152400	0.579900
H1461	H146	0.342300	0.147000	0.571800
O1341	O134	0.759000	0.165100	0.703400
H1471	H147	0.767700	0.158000	0.720000
N451	N45	0.535200	0.234500	0.702200
H1481	H148	0.562800	0.233000	0.702900
C2521	C252	0.726100	0.053800	0.578400
H1491	H149	0.753600	0.046900	0.571700
C2531	C253	0.574400	0.315700	0.782100
H1501	H150	0.601300	0.314500	0.773000
O1351	O135	0.477900	0.261100	0.726400
C2541	C254	0.650500	0.052000	0.572500
H1511	H151	0.625900	0.041100	0.563300
C2551	C255	0.238400	0.141600	0.580600
H1521	H152	0.214300	0.128900	0.571900
N461	N46	0.604000	0.096800	0.599800
H1531	H153	0.583600	0.085000	0.589700
C2561	C256	0.269800	0.184500	0.618000
H1541	H154	0.267800	0.202400	0.634600
C2571	C257	0.529800	0.340900	0.821700
H1551	H155	0.526800	0.358000	0.838700
N471	N47	0.546100	0.271100	0.746300
H1561	H156	0.571800	0.261000	0.745300
C2581	C258	0.538200	0.296100	0.767700
O1361	O136	0.890600	0.074900	0.591100
H1571	H157	0.879600	0.052400	0.585400
C2591	C259	0.311100	0.176400	0.604500
C2601	C260	0.681800	0.096600	0.609400
H1581	H158	0.678000	0.117000	0.624500
C2611	C261	0.497700	0.300500	0.780800
H1591	H159	0.473400	0.290000	0.771100
C2621	C262	0.516600	0.257600	0.723200
C2631	C263	0.591500	0.128400	0.620200
C2641	C264	0.645900	0.081700	0.593400
N481	N48	0.547800	0.134000	0.617200
H1601	H160	0.533600	0.117700	0.605200
C2651	C265	0.698800	0.044000	0.855900
C2661	C266	0.673800	0.017400	0.873800
H1611	H161	0.661300	0.028100	0.891200
C2671	C267	0.667600	0.974600	0.865800
C2681	C268	0.686300	0.958500	0.839800
H1621	H162	0.682200	0.929900	0.834400
C2691	C269	0.711400	0.985200	0.821900
C2701	C270	0.717600	0.028000	0.829900
H1631	H163	0.734300	0.045800	0.817900
O1371	O137	0.693200	0.310000	0.855300
N491	N49	0.697100	0.155200	0.879600
H1641	H164	0.720800	0.160900	0.870500
C2711	C271	0.821700	0.006500	0.689800
C2721	C272	0.635900	0.220700	0.933200
C2731	C273	0.680400	0.110900	0.877900
O1381	O138	0.655500	0.100000	0.898800
N501	N50	0.706700	0.086600	0.862400
H1651	H165	0.730200	0.097900	0.855900
Cu171	Cu17	0.637560	0.698560	0.831450
Cu181	Cu18	0.603240	0.649260	0.873160
O1391	O139	0.618500	0.746000	0.857900
O1401	O140	0.847400	0.856200	0.688000
O1411	O141	0.486800	0.839200	0.969400
O1421	O142	0.875500	0.898700	0.651700
O1431	O143	0.587500	0.703600	0.892400
C2741	C274	0.596700	0.737800	0.879200
O1441	O144	0.848100	0.051700	0.652900
O1451	O145	0.653800	0.340200	0.893100
O1461	O146	0.589300	0.248800	0.968700
O1471	O147	0.497700	0.767600	0.970000
C2751	C275	0.854500	0.890500	0.674000
O1481	O148	0.803500	0.080100	0.687800
O1491	O149	0.600200	0.179600	0.968600
C2761	C276	0.670700	0.309700	0.878000
C2771	C277	0.824400	0.050600	0.674400
C2781	C278	0.503200	0.806400	0.960500
O1501	O150	0.647900	0.884300	0.861900
C2791	C279	0.582100	0.778400	0.896600
C2801	C280	0.605500	0.215500	0.959300
C2811	C281	0.836600	0.930600	0.690400
C2821	C282	0.665800	0.266500	0.893600
C2831	C283	0.536200	0.809500	0.936500
C2841	C284	0.652400	0.184800	0.920100
H1661	H166	0.647000	0.157700	0.928200
O1511	O151	0.665100	0.741000	0.796600
H1671	H167	0.658000	0.732300	0.780000
N511	N51	0.734500	0.964800	0.797800
H1681	H168	0.733000	0.937200	0.797100
C2851	C285	0.553800	0.773900	0.921600
H1691	H169	0.546900	0.746400	0.928300
C2861	C286	0.815700	0.925600	0.717900
H1701	H170	0.814500	0.898700	0.727000
O1521	O152	0.761100	0.022100	0.773600
C2871	C287	0.552000	0.849500	0.927500
H1711	H171	0.541100	0.874100	0.936700
C2881	C288	0.641600	0.261600	0.919400
H1721	H172	0.628900	0.285700	0.928100
N521	N52	0.596800	0.896000	0.900200
H1731	H173	0.585000	0.916400	0.910300
C2891	C289	0.684500	0.230200	0.882000
H1741	H174	0.702400	0.232200	0.865400
C2901	C290	0.840900	0.970200	0.678300
H1751	H175	0.858000	0.973200	0.661300
N531	N53	0.771100	0.953900	0.753700
H1761	H176	0.761000	0.928200	0.754700
C2911	C291	0.796100	0.961800	0.732300
O1531	O153	0.574900	0.609400	0.908900
H1771	H177	0.552400	0.620400	0.914600
C2921	C292	0.676400	0.188900	0.895500
C2931	C293	0.596600	0.818200	0.890600
H1781	H178	0.617000	0.822000	0.875500
C2941	C294	0.800500	0.002300	0.719200
H1791	H179	0.790000	0.026600	0.728900
C2951	C295	0.757600	0.983400	0.776800
C2961	C296	0.628400	0.908500	0.879800
C2971	C297	0.581700	0.854100	0.906600
N541	N54	0.634000	0.952200	0.882800
H1801	H180	0.617700	0.966400	0.894800
C2981	C298	0.198800	0.544000	0.355900
C2991	C299	0.173800	0.517400	0.373800
H1811	H181	0.161300	0.528100	0.391200
C3001	C300	0.167600	0.474600	0.365800
C3011	C301	0.186300	0.458500	0.339800
H1821	H182	0.182200	0.429900	0.334400
C3021	C302	0.211400	0.485200	0.321900
C3031	C303	0.217600	0.528000	0.329900
H1831	H183	0.234300	0.545800	0.317900
O1541	O154	0.193200	0.810000	0.355300
N551	N55	0.197100	0.655200	0.379600
H1841	H184	0.220800	0.660900	0.370500
C3041	C304	0.321700	0.506500	0.189800
C3051	C305	0.135900	0.720700	0.433200
C3061	C306	0.180400	0.610900	0.377900
O1551	O155	0.155500	0.600000	0.398800
N561	N56	0.206700	0.586600	0.362400
H1851	H185	0.230200	0.597900	0.355900
Cu191	Cu19	0.137560	0.198560	0.331450
Cu201	Cu20	0.103240	0.149260	0.373160
O1561	O156	0.118500	0.246000	0.357900
O1571	O157	0.347400	0.356200	0.188000
O1581	O158	0.986800	0.339200	0.469400
O1591	O159	0.375500	0.398700	0.151700
O1601	O160	0.087500	0.203600	0.392400
C3071	C307	0.096700	0.237800	0.379200
O1611	O161	0.348100	0.551700	0.152900
O1621	O162	0.153800	0.840200	0.393100
O1631	O163	0.089300	0.748800	0.468700
O1641	O164	0.997700	0.267600	0.470000
C3081	C308	0.354500	0.390500	0.174000
O1651	O165	0.303500	0.580100	0.187800
O1661	O166	0.100200	0.679600	0.468600
C3091	C309	0.170700	0.809700	0.378000
C3101	C310	0.324400	0.550600	0.174400
C3111	C311	0.003200	0.306400	0.460500
O1671	O167	0.147900	0.384300	0.361900
C3121	C312	0.082100	0.278400	0.396600
C3131	C313	0.105500	0.715500	0.459300
C3141	C314	0.336600	0.430600	0.190400
C3151	C315	0.165800	0.766500	0.393600
C3161	C316	0.036200	0.309500	0.436500
C3171	C317	0.152400	0.684800	0.420100
H1861	H186	0.147000	0.657700	0.428200
O1681	O168	0.165100	0.241000	0.296600
H1871	H187	0.158000	0.232300	0.280000
N571	N57	0.234500	0.464800	0.297800
H1881	H188	0.233000	0.437200	0.297100
C3181	C318	0.053800	0.273900	0.421600
H1891	H189	0.046900	0.246400	0.428300
C3191	C319	0.315700	0.425600	0.217900
H1901	H190	0.314500	0.398700	0.227000
O1691	O169	0.261100	0.522100	0.273600
C3201	C320	0.052000	0.349500	0.427500
H1911	H191	0.041100	0.374100	0.436700
C3211	C321	0.141600	0.761600	0.419400
H1921	H192	0.128900	0.785700	0.428100
N581	N58	0.096800	0.396000	0.400200
H1931	H193	0.085000	0.416400	0.410300
C3221	C322	0.184500	0.730200	0.382000
H1941	H194	0.202400	0.732200	0.365400
C3231	C323	0.340900	0.470200	0.178300
H1951	H195	0.358000	0.473200	0.161300
N591	N59	0.271100	0.453900	0.253700
H1961	H196	0.261000	0.428200	0.254700
C3241	C324	0.296100	0.461800	0.232300
O1701	O170	0.074900	0.109400	0.408900
H1971	H197	0.052400	0.120400	0.414600
C3251	C325	0.176400	0.688900	0.395500
C3261	C326	0.096600	0.318200	0.390600
H1981	H198	0.117000	0.322000	0.375500
C3271	C327	0.300500	0.502300	0.219200
H1991	H199	0.290000	0.526600	0.228900
C3281	C328	0.257600	0.483400	0.276800
C3291	C329	0.128400	0.408500	0.379800
C3301	C330	0.081700	0.354100	0.406600
N601	N60	0.134000	0.452200	0.382800
H2001	H200	0.117700	0.466400	0.394800
C3311	C331	0.301200	0.956000	0.855900
C3321	C332	0.326200	0.982600	0.873800
H2011	H201	0.338700	0.971900	0.891200
C3331	C333	0.332400	0.025400	0.865800
C3341	C334	0.313700	0.041500	0.839800
H2021	H202	0.317800	0.070100	0.834400
C3351	C335	0.288600	0.014800	0.821900
C3361	C336	0.282400	0.972000	0.829900
H2031	H203	0.265700	0.954200	0.817900
O1711	O171	0.306800	0.690000	0.855300
N611	N61	0.302900	0.844800	0.879600
H2041	H204	0.279200	0.839100	0.870500
C3371	C337	0.178300	0.993500	0.689800
C3381	C338	0.364100	0.779300	0.933200
C3391	C339	0.319600	0.889100	0.877900
O1721	O172	0.344500	0.900000	0.898800
N621	N62	0.293300	0.913400	0.862400
H2051	H205	0.269800	0.902100	0.855900
Cu211	Cu21	0.362440	0.301440	0.831450
Cu221	Cu22	0.396760	0.350740	0.873160
O1731	O173	0.381500	0.254000	0.857900
O1741	O174	0.152600	0.143800	0.688000
O1751	O175	0.513200	0.160800	0.969400
O1761	O176	0.124500	0.101300	0.651700
O1771	O177	0.412500	0.296400	0.892400
C3401	C340	0.403300	0.262200	0.879200
O1781	O178	0.151900	0.948300	0.652900
O1791	O179	0.346200	0.659800	0.893100
O1801	O180	0.410700	0.751200	0.968700
O1811	O181	0.502300	0.232400	0.970000
C3411	C341	0.145500	0.109500	0.674000
O1821	O182	0.196500	0.919900	0.687800
O1831	O183	0.399800	0.820400	0.968600
C3421	C342	0.329300	0.690300	0.878000
C3431	C343	0.175600	0.949400	0.674400
C3441	C344	0.496800	0.193600	0.960500
O1841	O184	0.352100	0.115700	0.861900
C3451	C345	0.417900	0.221600	0.896600
C3461	C346	0.394500	0.784500	0.959300
C3471	C347	0.163400	0.069400	0.690400
C3481	C348	0.334200	0.733500	0.893600
C3491	C349	0.463800	0.190500	0.936500
C3501	C350	0.347600	0.815200	0.920100
H2061	H206	0.353000	0.842300	0.928200
O1851	O185	0.334900	0.259000	0.796600
H2071	H207	0.342000	0.267700	0.780000
N631	N63	0.265500	0.035200	0.797800
H2081	H208	0.267000	0.062800	0.797100
C3511	C351	0.446200	0.226100	0.921600
H2091	H209	0.453100	0.253600	0.928300
C3521	C352	0.184300	0.074400	0.717900
H2101	H210	0.185500	0.101300	0.727000
O1861	O186	0.238900	0.977900	0.773600
C3531	C353	0.448000	0.150500	0.927500
H2111	H211	0.458900	0.125900	0.936700
C3541	C354	0.358400	0.738400	0.919400
H2121	H212	0.371100	0.714300	0.928100
N641	N64	0.403200	0.104000	0.900200
H2131	H213	0.415000	0.083600	0.910300
C3551	C355	0.315500	0.769800	0.882000
H2141	H214	0.297600	0.767800	0.865400
C3561	C356	0.159100	0.029800	0.678300
H2151	H215	0.142000	0.026800	0.661300
N651	N65	0.228900	0.046100	0.753700
H2161	H216	0.239000	0.071800	0.754700
C3571	C357	0.203900	0.038200	0.732300
O1871	O187	0.425100	0.390600	0.908900
H2171	H217	0.447600	0.379600	0.914600
C3581	C358	0.323600	0.811100	0.895500
C3591	C359	0.403400	0.181800	0.890600
H2181	H218	0.383000	0.178000	0.875500
C3601	C360	0.199500	0.997700	0.719200
H2191	H219	0.210000	0.973400	0.728900
C3611	C361	0.242400	0.016600	0.776800
C3621	C362	0.371600	0.091500	0.879800
C3631	C363	0.418300	0.145900	0.906600
N661	N66	0.366000	0.047800	0.882800
H2201	H220	0.382300	0.033600	0.894800
C3641	C364	0.801200	0.456000	0.355900
C3651	C365	0.826200	0.482600	0.373800
H2211	H221	0.838700	0.471900	0.391200
C3661	C366	0.832400	0.525400	0.365800
C3671	C367	0.813700	0.541500	0.339800
H2221	H222	0.817800	0.570100	0.334400
C3681	C368	0.788600	0.514800	0.321900
C3691	C369	0.782400	0.472000	0.329900
H2231	H223	0.765700	0.454200	0.317900
O1881	O188	0.806800	0.190000	0.355300
N671	N67	0.802900	0.344800	0.379600
H2241	H224	0.779200	0.339100	0.370500
C3701	C370	0.678300	0.493500	0.189800
C3711	C371	0.864100	0.279300	0.433200
C3721	C372	0.819600	0.389100	0.377900
O1891	O189	0.844500	0.400000	0.398800
N681	N68	0.793300	0.413400	0.362400
H2251	H225	0.769800	0.402100	0.355900
Cu231	Cu23	0.862440	0.801440	0.331450
Cu241	Cu24	0.896760	0.850740	0.373160
O1901	O190	0.881500	0.754000	0.357900
O1911	O191	0.652600	0.643800	0.188000
O1921	O192	0.013200	0.660800	0.469400
O1931	O193	0.624500	0.601300	0.151700
O1941	O194	0.912500	0.796400	0.392400
C3731	C373	0.903300	0.762200	0.379200
O1951	O195	0.651900	0.448300	0.152900
O1961	O196	0.846200	0.159800	0.393100
O1971	O197	0.910700	0.251200	0.468700
O1981	O198	0.002300	0.732400	0.470000
C3741	C374	0.645500	0.609500	0.174000
O1991	O199	0.696500	0.419900	0.187800
O2001	O200	0.899800	0.320400	0.468600
C3751	C375	0.829300	0.190300	0.378000
C3761	C376	0.675600	0.449400	0.174400
C3771	C377	0.996800	0.693600	0.460500
O2011	O201	0.852100	0.615700	0.361900
C3781	C378	0.917900	0.721600	0.396600
C3791	C379	0.894500	0.284500	0.459300
C3801	C380	0.663400	0.569400	0.190400
C3811	C381	0.834200	0.233500	0.393600
C3821	C382	0.963800	0.690500	0.436500
C3831	C383	0.847600	0.315200	0.420100
H2261	H226	0.853000	0.342300	0.428200
O2021	O202	0.834900	0.759000	0.296600
H2271	H227	0.842000	0.767700	0.280000
N691	N69	0.765500	0.535200	0.297800
H2281	H228	0.767000	0.562800	0.297100
C3841	C384	0.946200	0.726100	0.421600
H2291	H229	0.953100	0.753600	0.428300
C3851	C385	0.684300	0.574400	0.217900
H2301	H230	0.685500	0.601300	0.227000
O2031	O203	0.738900	0.477900	0.273600
C3861	C386	0.948000	0.650500	0.427500
H2311	H231	0.958900	0.625900	0.436700
C3871	C387	0.858400	0.238400	0.419400
H2321	H232	0.871100	0.214300	0.428100
N701	N70	0.903200	0.604000	0.400200
H2331	H233	0.915000	0.583600	0.410300
C3881	C388	0.815500	0.269800	0.382000
H2341	H234	0.797600	0.267800	0.365400
C3891	C389	0.659100	0.529800	0.178300
H2351	H235	0.642000	0.526800	0.161300
N711	N71	0.728900	0.546100	0.253700
H2361	H236	0.739000	0.571800	0.254700
C3901	C390	0.703900	0.538200	0.232300
O2041	O204	0.925100	0.890600	0.408900
H2371	H237	0.947600	0.879600	0.414600
C3911	C391	0.823600	0.311100	0.395500
C3921	C392	0.903400	0.681800	0.390600
H2381	H238	0.883000	0.678000	0.375500
C3931	C393	0.699500	0.497700	0.219200
H2391	H239	0.710000	0.473400	0.228900
C3941	C394	0.742400	0.516600	0.276800
C3951	C395	0.871600	0.591500	0.379800
C3961	C396	0.918300	0.645900	0.406600
N721	N72	0.866000	0.547800	0.382800
H2401	H240	0.882300	0.533600	0.394800
C3971	C397	0.956000	0.698800	0.855900
C3981	C398	0.982600	0.673800	0.873800
H2411	H241	0.971900	0.661300	0.891200
C3991	C399	0.025400	0.667600	0.865800
C4001	C400	0.041500	0.686300	0.839800
H2421	H242	0.070100	0.682200	0.834400
C4011	C401	0.014800	0.711400	0.821900
C4021	C402	0.972000	0.717600	0.829900
H2431	H243	0.954200	0.734300	0.817900
O2051	O205	0.690000	0.693200	0.855300
N731	N73	0.844800	0.697100	0.879600
H2441	H244	0.839100	0.720800	0.870500
C4031	C403	0.993500	0.821700	0.689800
C4041	C404	0.779300	0.635900	0.933200
C4051	C405	0.889100	0.680400	0.877900
O2061	O206	0.900000	0.655500	0.898800
N741	N74	0.913400	0.706700	0.862400
H2451	H245	0.902100	0.730200	0.855900
Cu251	Cu25	0.301440	0.637560	0.831450
Cu261	Cu26	0.350740	0.603240	0.873160
O2071	O207	0.254000	0.618500	0.857900
O2081	O208	0.143800	0.847400	0.688000
O2091	O209	0.160800	0.486800	0.969400
O2101	O210	0.101300	0.875500	0.651700
O2111	O211	0.296400	0.587500	0.892400
C4061	C406	0.262200	0.596700	0.879200
O2121	O212	0.948300	0.848100	0.652900
O2131	O213	0.659800	0.653800	0.893100
O2141	O214	0.751200	0.589300	0.968700
O2151	O215	0.232400	0.497700	0.970000
C4071	C407	0.109500	0.854500	0.674000
O2161	O216	0.919900	0.803500	0.687800
O2171	O217	0.820400	0.600200	0.968600
C4081	C408	0.690300	0.670700	0.878000
C4091	C409	0.949400	0.824400	0.674400
C4101	C410	0.193600	0.503200	0.960500
O2181	O218	0.115700	0.647900	0.861900
C4111	C411	0.221600	0.582100	0.896600
C4121	C412	0.784500	0.605500	0.959300
C4131	C413	0.069400	0.836600	0.690400
C4141	C414	0.733500	0.665800	0.893600
C4151	C415	0.190500	0.536200	0.936500
C4161	C416	0.815200	0.652400	0.920100
H2461	H246	0.842300	0.647000	0.928200
O2191	O219	0.259000	0.665100	0.796600
H2471	H247	0.267700	0.658000	0.780000
N751	N75	0.035200	0.734500	0.797800
H2481	H248	0.062800	0.733000	0.797100
C4171	C417	0.226100	0.553800	0.921600
H2491	H249	0.253600	0.546900	0.928300
C4181	C418	0.074400	0.815700	0.717900
H2501	H250	0.101300	0.814500	0.727000
O2201	O220	0.977900	0.761100	0.773600
C4191	C419	0.150500	0.552000	0.927500
H2511	H251	0.125900	0.541100	0.936700
C4201	C420	0.738400	0.641600	0.919400
H2521	H252	0.714300	0.628900	0.928100
N761	N76	0.104000	0.596800	0.900200
H2531	H253	0.083600	0.585000	0.910300
C4211	C421	0.769800	0.684500	0.882000
H2541	H254	0.767800	0.702400	0.865400
C4221	C422	0.029800	0.840900	0.678300
H2551	H255	0.026800	0.858000	0.661300
N771	N77	0.046100	0.771100	0.753700
H2561	H256	0.071800	0.761000	0.754700
C4231	C423	0.038200	0.796100	0.732300
O2211	O221	0.390600	0.574900	0.908900
H2571	H257	0.379600	0.552400	0.914600
C4241	C424	0.811100	0.676400	0.895500
C4251	C425	0.181800	0.596600	0.890600
H2581	H258	0.178000	0.617000	0.875500
C4261	C426	0.997700	0.800500	0.719200
H2591	H259	0.973400	0.790000	0.728900
C4271	C427	0.016600	0.757600	0.776800
C4281	C428	0.091500	0.628400	0.879800
C4291	C429	0.145900	0.581700	0.906600
N781	N78	0.047800	0.634000	0.882800
H2601	H260	0.033600	0.617700	0.894800
C4301	C430	0.456000	0.198800	0.355900
C4311	C431	0.482600	0.173800	0.373800
H2611	H261	0.471900	0.161300	0.391200
C4321	C432	0.525400	0.167600	0.365800
C4331	C433	0.541500	0.186300	0.339800
H2621	H262	0.570100	0.182200	0.334400
C4341	C434	0.514800	0.211400	0.321900
C4351	C435	0.472000	0.217600	0.329900
H2631	H263	0.454200	0.234300	0.317900
O2221	O222	0.190000	0.193200	0.355300
N791	N79	0.344800	0.197100	0.379600
H2641	H264	0.339100	0.220800	0.370500
C4361	C436	0.493500	0.321700	0.189800
C4371	C437	0.279300	0.135900	0.433200
C4381	C438	0.389100	0.180400	0.377900
O2231	O223	0.400000	0.155500	0.398800
N801	N80	0.413400	0.206700	0.362400
H2651	H265	0.402100	0.230200	0.355900
Cu271	Cu27	0.801440	0.137560	0.331450
Cu281	Cu28	0.850740	0.103240	0.373160
O2241	O224	0.754000	0.118500	0.357900
O2251	O225	0.643800	0.347400	0.188000
O2261	O226	0.660800	0.986800	0.469400
O2271	O227	0.601300	0.375500	0.151700
O2281	O228	0.796400	0.087500	0.392400
C4391	C439	0.762200	0.096700	0.379200
O2291	O229	0.448300	0.348100	0.152900
O2301	O230	0.159800	0.153800	0.393100
O2311	O231	0.251200	0.089300	0.468700
O2321	O232	0.732400	0.997700	0.470000
C4401	C440	0.609500	0.354500	0.174000
O2331	O233	0.419900	0.303500	0.187800
O2341	O234	0.320400	0.100200	0.468600
C4411	C441	0.190300	0.170700	0.378000
C4421	C442	0.449400	0.324400	0.174400
C4431	C443	0.693600	0.003200	0.460500
O2351	O235	0.615700	0.147900	0.361900
C4441	C444	0.721600	0.082100	0.396600
C4451	C445	0.284500	0.105500	0.459300
C4461	C446	0.569400	0.336600	0.190400
C4471	C447	0.233500	0.165800	0.393600
C4481	C448	0.690500	0.036200	0.436500
C4491	C449	0.315200	0.152400	0.420100
H2661	H266	0.342300	0.147000	0.428200
O2361	O236	0.759000	0.165100	0.296600
H2671	H267	0.767700	0.158000	0.280000
N811	N81	0.535200	0.234500	0.297800
H2681	H268	0.562800	0.233000	0.297100
C4501	C450	0.726100	0.053800	0.421600
H2691	H269	0.753600	0.046900	0.428300
C4511	C451	0.574400	0.315700	0.217900
H2701	H270	0.601300	0.314500	0.227000
O2371	O237	0.477900	0.261100	0.273600
C4521	C452	0.650500	0.052000	0.427500
H2711	H271	0.625900	0.041100	0.436700
C4531	C453	0.238400	0.141600	0.419400
H2721	H272	0.214300	0.128900	0.428100
N821	N82	0.604000	0.096800	0.400200
H2731	H273	0.583600	0.085000	0.410300
C4541	C454	0.269800	0.184500	0.382000
H2741	H274	0.267800	0.202400	0.365400
C4551	C455	0.529800	0.340900	0.178300
H2751	H275	0.526800	0.358000	0.161300
N831	N83	0.546100	0.271100	0.253700
H2761	H276	0.571800	0.261000	0.254700
C4561	C456	0.538200	0.296100	0.232300
O2381	O238	0.890600	0.074900	0.408900
H2771	H277	0.879600	0.052400	0.414600
C4571	C457	0.311100	0.176400	0.395500
C4581	C458	0.681800	0.096600	0.390600
H2781	H278	0.678000	0.117000	0.375500
C4591	C459	0.497700	0.300500	0.219200
H2791	H279	0.473400	0.290000	0.228900
C4601	C460	0.516600	0.257600	0.276800
C4611	C461	0.591500	0.128400	0.379800
C4621	C462	0.645900	0.081700	0.406600
N841	N84	0.547800	0.134000	0.382800
H2801	H280	0.533600	0.117700	0.394800
C4631	C463	0.044000	0.301200	0.855900
C4641	C464	0.017400	0.326200	0.873800
H2811	H281	0.028100	0.338700	0.891200
C4651	C465	0.974600	0.332400	0.865800
C4661	C466	0.958500	0.313700	0.839800
H2821	H282	0.929900	0.317800	0.834400
C4671	C467	0.985200	0.288600	0.821900
C4681	C468	0.028000	0.282400	0.829900
H2831	H283	0.045800	0.265700	0.817900
O2391	O239	0.310000	0.306800	0.855300
N851	N85	0.155200	0.302900	0.879600
H2841	H284	0.160900	0.279200	0.870500
C4691	C469	0.006500	0.178300	0.689800
C4701	C470	0.220700	0.364100	0.933200
C4711	C471	0.110900	0.319600	0.877900
O2401	O240	0.100000	0.344500	0.898800
N861	N86	0.086600	0.293300	0.862400
H2851	H285	0.097900	0.269800	0.855900
Cu291	Cu29	0.698560	0.362440	0.831450
Cu301	Cu30	0.649260	0.396760	0.873160
O2411	O241	0.746000	0.381500	0.857900
O2421	O242	0.856200	0.152600	0.688000
O2431	O243	0.839200	0.513200	0.969400
O2441	O244	0.898700	0.124500	0.651700
O2451	O245	0.703600	0.412500	0.892400
C4721	C472	0.737800	0.403300	0.879200
O2461	O246	0.051700	0.151900	0.652900
O2471	O247	0.340200	0.346200	0.893100
O2481	O248	0.248800	0.410700	0.968700
O2491	O249	0.767600	0.502300	0.970000
C4731	C473	0.890500	0.145500	0.674000
O2501	O250	0.080100	0.196500	0.687800
O2511	O251	0.179600	0.399800	0.968600
C4741	C474	0.309700	0.329300	0.878000
C4751	C475	0.050600	0.175600	0.674400
C4761	C476	0.806400	0.496800	0.960500
O2521	O252	0.884300	0.352100	0.861900
C4771	C477	0.778400	0.417900	0.896600
C4781	C478	0.215500	0.394500	0.959300
C4791	C479	0.930600	0.163400	0.690400
C4801	C480	0.266500	0.334200	0.893600
C4811	C481	0.809500	0.463800	0.936500
C4821	C482	0.184800	0.347600	0.920100
H2861	H286	0.157700	0.353000	0.928200
O2531	O253	0.741000	0.334900	0.796600
H2871	H287	0.732300	0.342000	0.780000
N871	N87	0.964800	0.265500	0.797800
H2881	H288	0.937200	0.267000	0.797100
C4831	C483	0.773900	0.446200	0.921600
H2891	H289	0.746400	0.453100	0.928300
C4841	C484	0.925600	0.184300	0.717900
H2901	H290	0.898700	0.185500	0.727000
O2541	O254	0.022100	0.238900	0.773600
C4851	C485	0.849500	0.448000	0.927500
H2911	H291	0.874100	0.458900	0.936700
C4861	C486	0.261600	0.358400	0.919400
H2921	H292	0.285700	0.371100	0.928100
N881	N88	0.896000	0.403200	0.900200
H2931	H293	0.916400	0.415000	0.910300
C4871	C487	0.230200	0.315500	0.882000
H2941	H294	0.232200	0.297600	0.865400
C4881	C488	0.970200	0.159100	0.678300
H2951	H295	0.973200	0.142000	0.661300
N891	N89	0.953900	0.228900	0.753700
H2961	H296	0.928200	0.239000	0.754700
C4891	C489	0.961800	0.203900	0.732300
O2551	O255	0.609400	0.425100	0.908900
H2971	H297	0.620400	0.447600	0.914600
C4901	C490	0.188900	0.323600	0.895500
C4911	C491	0.818200	0.403400	0.890600
H2981	H298	0.822000	0.383000	0.875500
C4921	C492	0.002300	0.199500	0.719200
H2991	H299	0.026600	0.210000	0.728900
C4931	C493	0.983400	0.242400	0.776800
C4941	C494	0.908500	0.371600	0.879800
C4951	C495	0.854100	0.418300	0.906600
N901	N90	0.952200	0.366000	0.882800
H3001	H300	0.966400	0.382300	0.894800
C4961	C496	0.544000	0.801200	0.355900
C4971	C497	0.517400	0.826200	0.373800
H3011	H301	0.528100	0.838700	0.391200
C4981	C498	0.474600	0.832400	0.365800
C4991	C499	0.458500	0.813700	0.339800
H3021	H302	0.429900	0.817800	0.334400
C5001	C500	0.485200	0.788600	0.321900
C5011	C501	0.528000	0.782400	0.329900
H3031	H303	0.545800	0.765700	0.317900
O2561	O256	0.810000	0.806800	0.355300
N911	N91	0.655200	0.802900	0.379600
H3041	H304	0.660900	0.779200	0.370500
C5021	C502	0.506500	0.678300	0.189800
C5031	C503	0.720700	0.864100	0.433200
C5041	C504	0.610900	0.819600	0.377900
O2571	O257	0.600000	0.844500	0.398800
N921	N92	0.586600	0.793300	0.362400
H3051	H305	0.597900	0.769800	0.355900
Cu311	Cu31	0.198560	0.862440	0.331450
Cu321	Cu32	0.149260	0.896760	0.373160
O2581	O258	0.246000	0.881500	0.357900
O2591	O259	0.356200	0.652600	0.188000
O2601	O260	0.339200	0.013200	0.469400
O2611	O261	0.398700	0.624500	0.151700
O2621	O262	0.203600	0.912500	0.392400
C5051	C505	0.237800	0.903300	0.379200
O2631	O263	0.551700	0.651900	0.152900
O2641	O264	0.840200	0.846200	0.393100
O2651	O265	0.748800	0.910700	0.468700
O2661	O266	0.267600	0.002300	0.470000
C5061	C506	0.390500	0.645500	0.174000
O2671	O267	0.580100	0.696500	0.187800
O2681	O268	0.679600	0.899800	0.468600
C5071	C507	0.809700	0.829300	0.378000
C5081	C508	0.550600	0.675600	0.174400
C5091	C509	0.306400	0.996800	0.460500
O2691	O269	0.384300	0.852100	0.361900
C5101	C510	0.278400	0.917900	0.396600
C5111	C511	0.715500	0.894500	0.459300
C5121	C512	0.430600	0.663400	0.190400
C5131	C513	0.766500	0.834200	0.393600
C5141	C514	0.309500	0.963800	0.436500
C5151	C515	0.684800	0.847600	0.420100
H3061	H306	0.657700	0.853000	0.428200
O2701	O270	0.241000	0.834900	0.296600
H3071	H307	0.232300	0.842000	0.280000
N931	N93	0.464800	0.765500	0.297800
H3081	H308	0.437200	0.767000	0.297100
C5161	C516	0.273900	0.946200	0.421600
H3091	H309	0.246400	0.953100	0.428300
C5171	C517	0.425600	0.684300	0.217900
H3101	H310	0.398700	0.685500	0.227000
O2711	O271	0.522100	0.738900	0.273600
C5181	C518	0.349500	0.948000	0.427500
H3111	H311	0.374100	0.958900	0.436700
C5191	C519	0.761600	0.858400	0.419400
H3121	H312	0.785700	0.871100	0.428100
N941	N94	0.396000	0.903200	0.400200
H3131	H313	0.416400	0.915000	0.410300
C5201	C520	0.730200	0.815500	0.382000
H3141	H314	0.732200	0.797600	0.365400
C5211	C521	0.470200	0.659100	0.178300
H3151	H315	0.473200	0.642000	0.161300
N951	N95	0.453900	0.728900	0.253700
H3161	H316	0.428200	0.739000	0.254700
C5221	C522	0.461800	0.703900	0.232300
O2721	O272	0.109400	0.925100	0.408900
H3171	H317	0.120400	0.947600	0.414600
C5231	C523	0.688900	0.823600	0.395500
C5241	C524	0.318200	0.903400	0.390600
H3181	H318	0.322000	0.883000	0.375500
C5251	C525	0.502300	0.699500	0.219200
H3191	H319	0.526600	0.710000	0.228900
C5261	C526	0.483400	0.742400	0.276800
C5271	C527	0.408500	0.871600	0.379800
C5281	C528	0.354100	0.918300	0.406600
N961	N96	0.452200	0.866000	0.382800
H3201	H320	0.466400	0.882300	0.394800
Cu331	Cu33	0.544470	0.247500	0.000000
Cu341	Cu34	0.558500	0.163670	0.000000
Cu351	Cu35	0.044470	0.747500	0.500000
Cu361	Cu36	0.058500	0.663670	0.500000
Cu371	Cu37	0.455530	0.752500	0.000000
Cu381	Cu38	0.441500	0.836330	0.000000
Cu391	Cu39	0.955530	0.252500	0.500000
Cu401	Cu40	0.941500	0.336330	0.500000
Cu411	Cu41	0.752500	0.544470	0.000000
Cu421	Cu42	0.836330	0.558500	0.000000
Cu431	Cu43	0.252500	0.044470	0.500000
Cu441	Cu44	0.336330	0.058500	0.500000
Cu451	Cu45	0.247500	0.455530	0.000000
Cu461	Cu46	0.163670	0.441500	0.000000
Cu471	Cu47	0.747500	0.955530	0.500000
Cu481	Cu48	0.663670	0.941500	0.500000
