data_HULRIR_clean_PM
_symmetry_space_group_name_H-M	'P1'
_cell_length_a	18.873000
_cell_length_b	19.329000
_cell_length_c	25.911000
_cell_angle_alpha	90.000000
_cell_angle_beta	101.040000
_cell_angle_gamma	90.000000
_symmetry_Int_Tables_number 1

loop_
_symmetry_equiv_pos_as_xyz
'x,y,z'

loop_
_atom_site_label
_atom_site_type_symbol
_atom_site_fract_x
_atom_site_fract_y
_atom_site_fract_z
O11	O1	0.234300	0.059400	0.517300
O21	O2	0.313200	0.029200	0.469500
C11	C1	0.296900	0.047500	0.511800
O31	O3	0.305700	0.081600	0.706500
O41	O4	0.409800	0.110100	0.740900
C21	C2	0.369700	0.090500	0.703400
O51	O5	0.670800	0.431500	0.452400
O61	O6	0.763300	0.369200	0.495500
C31	C3	0.699300	0.390200	0.488500
O71	O7	0.444500	0.394100	0.601100
O81	O8	0.445100	0.442600	0.529700
C41	C4	0.472500	0.404600	0.562900
C51	C5	0.544800	0.372000	0.562000
C61	C6	0.864600	0.938500	0.800700
H11	H1	0.876700	0.932000	0.836900
Cd11	Cd1	0.696540	0.078550	0.570950
Cd21	Cd2	0.678110	0.119750	0.706450
Cd31	Cd3	0.836460	0.947400	0.562260
O91	O9	0.575000	0.085400	0.551500
C71	C7	0.480900	0.069100	0.598900
C81	C8	0.462000	0.077200	0.647700
H21	H2	0.497800	0.083900	0.677400
C91	C9	0.337700	0.067400	0.607300
H31	H3	0.289400	0.069800	0.610200
C101	C10	0.558900	0.069400	0.595500
N11	N1	0.768300	0.028100	0.643600
O101	O10	0.703600	0.182900	0.617900
O111	O11	0.619000	0.209800	0.663600
C111	C11	0.674100	0.306500	0.557200
H41	H4	0.717700	0.284600	0.556100
C121	C12	0.654000	0.361900	0.526200
N21	N2	0.758100	0.041200	0.691700
C131	C13	0.630700	0.281800	0.590600
C141	C14	0.354400	0.056100	0.559000
C151	C15	0.652200	0.222100	0.625800
C161	C16	0.427000	0.057200	0.555300
H51	H5	0.439700	0.049900	0.522800
C171	C17	0.587400	0.396000	0.527400
H61	H6	0.572700	0.433600	0.505600
N31	N3	0.816000	0.981200	0.641800
O121	O12	0.605800	0.055300	0.634400
C181	C18	0.567500	0.316000	0.594200
H71	H7	0.540100	0.301300	0.618400
C191	C19	0.390600	0.075500	0.652300
C201	C20	0.838900	0.959300	0.690900
C211	C21	0.802100	0.997800	0.721400
C221	C22	0.815500	0.987600	0.779600
H81	H8	0.791100	0.013700	0.800800
C231	C23	0.888500	0.906700	0.708700
H91	H9	0.912700	0.881100	0.687100
C241	C24	0.897300	0.897100	0.765200
H101	H10	0.926800	0.860800	0.779900
O131	O13	0.734300	0.559400	0.517300
O141	O14	0.813200	0.529200	0.469500
C251	C25	0.796900	0.547500	0.511800
O151	O15	0.805700	0.581600	0.706500
O161	O16	0.909800	0.610100	0.740900
C261	C26	0.869700	0.590500	0.703400
O171	O17	0.170800	0.931500	0.452400
O181	O18	0.263300	0.869200	0.495500
C271	C27	0.199300	0.890200	0.488500
O191	O19	0.944500	0.894100	0.601100
O201	O20	0.945100	0.942600	0.529700
C281	C28	0.972500	0.904600	0.562900
C291	C29	0.044800	0.872000	0.562000
C301	C30	0.364600	0.438500	0.800700
H111	H11	0.376700	0.432000	0.836900
Cd41	Cd4	0.196540	0.578550	0.570950
Cd51	Cd5	0.178110	0.619750	0.706450
Cd61	Cd6	0.336460	0.447400	0.562260
O211	O21	0.075000	0.585400	0.551500
C311	C31	0.980900	0.569100	0.598900
C321	C32	0.962000	0.577200	0.647700
H121	H12	0.997800	0.583900	0.677400
C331	C33	0.837700	0.567400	0.607300
H131	H13	0.789400	0.569800	0.610200
C341	C34	0.058900	0.569400	0.595500
N41	N4	0.268300	0.528100	0.643600
O221	O22	0.203600	0.682900	0.617900
O231	O23	0.119000	0.709800	0.663600
C351	C35	0.174100	0.806500	0.557200
H141	H14	0.217700	0.784600	0.556100
C361	C36	0.154000	0.861900	0.526200
N51	N5	0.258100	0.541200	0.691700
C371	C37	0.130700	0.781800	0.590600
C381	C38	0.854400	0.556100	0.559000
C391	C39	0.152200	0.722100	0.625800
C401	C40	0.927000	0.557200	0.555300
H151	H15	0.939700	0.549900	0.522800
C411	C41	0.087400	0.896000	0.527400
H161	H16	0.072700	0.933600	0.505600
N61	N6	0.316000	0.481200	0.641800
O241	O24	0.105800	0.555300	0.634400
C421	C42	0.067500	0.816000	0.594200
H171	H17	0.040100	0.801300	0.618400
C431	C43	0.890600	0.575500	0.652300
C441	C44	0.338900	0.459300	0.690900
C451	C45	0.302100	0.497800	0.721400
C461	C46	0.315500	0.487600	0.779600
H181	H18	0.291100	0.513700	0.800800
C471	C47	0.388500	0.406700	0.708700
H191	H19	0.412700	0.381100	0.687100
C481	C48	0.397300	0.397100	0.765200
H201	H20	0.426800	0.360800	0.779900
O251	O25	0.765700	0.059400	0.982700
O261	O26	0.686800	0.029200	0.030500
C491	C49	0.703100	0.047500	0.988200
O271	O27	0.694300	0.081600	0.793500
O281	O28	0.590200	0.110100	0.759100
C501	C50	0.630300	0.090500	0.796600
O291	O29	0.329200	0.431500	0.047600
O301	O30	0.236700	0.369200	0.004500
C511	C51	0.300700	0.390200	0.011500
O311	O31	0.555500	0.394100	0.898900
O321	O32	0.554900	0.442600	0.970300
C521	C52	0.527500	0.404600	0.937100
C531	C53	0.455200	0.372000	0.938000
C541	C54	0.135400	0.938500	0.699300
H211	H21	0.123300	0.932000	0.663100
Cd71	Cd7	0.303460	0.078550	0.929050
Cd81	Cd8	0.321890	0.119750	0.793550
Cd91	Cd9	0.163540	0.947400	0.937740
O331	O33	0.425000	0.085400	0.948500
C551	C55	0.519100	0.069100	0.901100
C561	C56	0.538000	0.077200	0.852300
H221	H22	0.502200	0.083900	0.822600
C571	C57	0.662300	0.067400	0.892700
H231	H23	0.710600	0.069800	0.889800
C581	C58	0.441100	0.069400	0.904500
N71	N7	0.231700	0.028100	0.856400
O341	O34	0.296400	0.182900	0.882100
O351	O35	0.381000	0.209800	0.836400
C591	C59	0.325900	0.306500	0.942800
H241	H24	0.282300	0.284600	0.943900
C601	C60	0.346000	0.361900	0.973800
N81	N8	0.241900	0.041200	0.808300
C611	C61	0.369300	0.281800	0.909400
C621	C62	0.645600	0.056100	0.941000
C631	C63	0.347800	0.222100	0.874200
C641	C64	0.573000	0.057200	0.944700
H251	H25	0.560300	0.049900	0.977200
C651	C65	0.412600	0.396000	0.972600
H261	H26	0.427300	0.433600	0.994400
N91	N9	0.184000	0.981200	0.858200
O361	O36	0.394200	0.055300	0.865600
C661	C66	0.432500	0.316000	0.905800
H271	H27	0.459900	0.301300	0.881600
C671	C67	0.609400	0.075500	0.847700
C681	C68	0.161100	0.959300	0.809100
C691	C69	0.197900	0.997800	0.778600
C701	C70	0.184500	0.987600	0.720400
H281	H28	0.208900	0.013700	0.699200
C711	C71	0.111500	0.906700	0.791300
H291	H29	0.087300	0.881100	0.812900
C721	C72	0.102700	0.897100	0.734800
H301	H30	0.073200	0.860800	0.720100
O371	O37	0.265700	0.559400	0.982700
O381	O38	0.186800	0.529200	0.030500
C731	C73	0.203100	0.547500	0.988200
O391	O39	0.194300	0.581600	0.793500
O401	O40	0.090200	0.610100	0.759100
C741	C74	0.130300	0.590500	0.796600
O411	O41	0.829200	0.931500	0.047600
O421	O42	0.736700	0.869200	0.004500
C751	C75	0.800700	0.890200	0.011500
O431	O43	0.055500	0.894100	0.898900
O441	O44	0.054900	0.942600	0.970300
C761	C76	0.027500	0.904600	0.937100
C771	C77	0.955200	0.872000	0.938000
C781	C78	0.635400	0.438500	0.699300
H311	H31	0.623300	0.432000	0.663100
Cd101	Cd10	0.803460	0.578550	0.929050
Cd111	Cd11	0.821890	0.619750	0.793550
Cd121	Cd12	0.663540	0.447400	0.937740
O451	O45	0.925000	0.585400	0.948500
C791	C79	0.019100	0.569100	0.901100
C801	C80	0.038000	0.577200	0.852300
H321	H32	0.002200	0.583900	0.822600
C811	C81	0.162300	0.567400	0.892700
H331	H33	0.210600	0.569800	0.889800
C821	C82	0.941100	0.569400	0.904500
N101	N10	0.731700	0.528100	0.856400
O461	O46	0.796400	0.682900	0.882100
O471	O47	0.881000	0.709800	0.836400
C831	C83	0.825900	0.806500	0.942800
H341	H34	0.782300	0.784600	0.943900
C841	C84	0.846000	0.861900	0.973800
N111	N11	0.741900	0.541200	0.808300
C851	C85	0.869300	0.781800	0.909400
C861	C86	0.145600	0.556100	0.941000
C871	C87	0.847800	0.722100	0.874200
C881	C88	0.073000	0.557200	0.944700
H351	H35	0.060300	0.549900	0.977200
C891	C89	0.912600	0.896000	0.972600
H361	H36	0.927300	0.933600	0.994400
N121	N12	0.684000	0.481200	0.858200
O481	O48	0.894200	0.555300	0.865600
C901	C90	0.932500	0.816000	0.905800
H371	H37	0.959900	0.801300	0.881600
C911	C91	0.109400	0.575500	0.847700
C921	C92	0.661100	0.459300	0.809100
C931	C93	0.697900	0.497800	0.778600
C941	C94	0.684500	0.487600	0.720400
H381	H38	0.708900	0.513700	0.699200
C951	C95	0.611500	0.406700	0.791300
H391	H39	0.587300	0.381100	0.812900
C961	C96	0.602700	0.397100	0.734800
H401	H40	0.573200	0.360800	0.720100
O491	O49	0.765700	0.940600	0.482700
O501	O50	0.686800	0.970800	0.530500
C971	C97	0.703100	0.952500	0.488200
O511	O51	0.694300	0.918400	0.293500
O521	O52	0.590200	0.889900	0.259100
C981	C98	0.630300	0.909500	0.296600
O531	O53	0.329200	0.568500	0.547600
O541	O54	0.236700	0.630800	0.504500
C991	C99	0.300700	0.609800	0.511500
O551	O55	0.555500	0.605900	0.398900
O561	O56	0.554900	0.557400	0.470300
C1001	C100	0.527500	0.595400	0.437100
C1011	C101	0.455200	0.628000	0.438000
C1021	C102	0.135400	0.061500	0.199300
H411	H41	0.123300	0.068000	0.163100
Cd131	Cd13	0.303460	0.921450	0.429050
Cd141	Cd14	0.321890	0.880250	0.293550
Cd151	Cd15	0.163540	0.052600	0.437740
O571	O57	0.425000	0.914600	0.448500
C1031	C103	0.519100	0.930900	0.401100
C1041	C104	0.538000	0.922800	0.352300
H421	H42	0.502200	0.916100	0.322600
C1051	C105	0.662300	0.932600	0.392700
H431	H43	0.710600	0.930200	0.389800
C1061	C106	0.441100	0.930600	0.404500
N131	N13	0.231700	0.971900	0.356400
O581	O58	0.296400	0.817100	0.382100
O591	O59	0.381000	0.790200	0.336400
C1071	C107	0.325900	0.693500	0.442800
H441	H44	0.282300	0.715400	0.443900
C1081	C108	0.346000	0.638100	0.473800
N141	N14	0.241900	0.958800	0.308300
C1091	C109	0.369300	0.718200	0.409400
C1101	C110	0.645600	0.943900	0.441000
C1111	C111	0.347800	0.777900	0.374200
C1121	C112	0.573000	0.942800	0.444700
H451	H45	0.560300	0.950100	0.477200
C1131	C113	0.412600	0.604000	0.472600
H461	H46	0.427300	0.566400	0.494400
N151	N15	0.184000	0.018800	0.358200
O601	O60	0.394200	0.944700	0.365600
C1141	C114	0.432500	0.684000	0.405800
H471	H47	0.459900	0.698700	0.381600
C1151	C115	0.609400	0.924500	0.347700
C1161	C116	0.161100	0.040700	0.309100
C1171	C117	0.197900	0.002200	0.278600
C1181	C118	0.184500	0.012400	0.220400
H481	H48	0.208900	0.986300	0.199200
C1191	C119	0.111500	0.093300	0.291300
H491	H49	0.087300	0.118900	0.312900
C1201	C120	0.102700	0.102900	0.234800
H501	H50	0.073200	0.139200	0.220100
O611	O61	0.265700	0.440600	0.482700
O621	O62	0.186800	0.470800	0.530500
C1211	C121	0.203100	0.452500	0.488200
O631	O63	0.194300	0.418400	0.293500
O641	O64	0.090200	0.389900	0.259100
C1221	C122	0.130300	0.409500	0.296600
O651	O65	0.829200	0.068500	0.547600
O661	O66	0.736700	0.130800	0.504500
C1231	C123	0.800700	0.109800	0.511500
O671	O67	0.055500	0.105900	0.398900
O681	O68	0.054900	0.057400	0.470300
C1241	C124	0.027500	0.095400	0.437100
C1251	C125	0.955200	0.128000	0.438000
C1261	C126	0.635400	0.561500	0.199300
H511	H51	0.623300	0.568000	0.163100
Cd161	Cd16	0.803460	0.421450	0.429050
Cd171	Cd17	0.821890	0.380250	0.293550
Cd181	Cd18	0.663540	0.552600	0.437740
O691	O69	0.925000	0.414600	0.448500
C1271	C127	0.019100	0.430900	0.401100
C1281	C128	0.038000	0.422800	0.352300
H521	H52	0.002200	0.416100	0.322600
C1291	C129	0.162300	0.432600	0.392700
H531	H53	0.210600	0.430200	0.389800
C1301	C130	0.941100	0.430600	0.404500
N161	N16	0.731700	0.471900	0.356400
O701	O70	0.796400	0.317100	0.382100
O711	O71	0.881000	0.290200	0.336400
C1311	C131	0.825900	0.193500	0.442800
H541	H54	0.782300	0.215400	0.443900
C1321	C132	0.846000	0.138100	0.473800
N171	N17	0.741900	0.458800	0.308300
C1331	C133	0.869300	0.218200	0.409400
C1341	C134	0.145600	0.443900	0.441000
C1351	C135	0.847800	0.277900	0.374200
C1361	C136	0.073000	0.442800	0.444700
H551	H55	0.060300	0.450100	0.477200
C1371	C137	0.912600	0.104000	0.472600
H561	H56	0.927300	0.066400	0.494400
N181	N18	0.684000	0.518800	0.358200
O721	O72	0.894200	0.444700	0.365600
C1381	C138	0.932500	0.184000	0.405800
H571	H57	0.959900	0.198700	0.381600
C1391	C139	0.109400	0.424500	0.347700
C1401	C140	0.661100	0.540700	0.309100
C1411	C141	0.697900	0.502200	0.278600
C1421	C142	0.684500	0.512400	0.220400
H581	H58	0.708900	0.486300	0.199200
C1431	C143	0.611500	0.593300	0.291300
H591	H59	0.587300	0.618900	0.312900
C1441	C144	0.602700	0.602900	0.234800
H601	H60	0.573200	0.639200	0.220100
O731	O73	0.234300	0.940600	0.017300
O741	O74	0.313200	0.970800	0.969500
C1451	C145	0.296900	0.952500	0.011800
O751	O75	0.305700	0.918400	0.206500
O761	O76	0.409800	0.889900	0.240900
C1461	C146	0.369700	0.909500	0.203400
O771	O77	0.670800	0.568500	0.952400
O781	O78	0.763300	0.630800	0.995500
C1471	C147	0.699300	0.609800	0.988500
O791	O79	0.444500	0.605900	0.101100
O801	O80	0.445100	0.557400	0.029700
C1481	C148	0.472500	0.595400	0.062900
C1491	C149	0.544800	0.628000	0.062000
C1501	C150	0.864600	0.061500	0.300700
H611	H61	0.876700	0.068000	0.336900
Cd191	Cd19	0.696540	0.921450	0.070950
Cd201	Cd20	0.678110	0.880250	0.206450
Cd211	Cd21	0.836460	0.052600	0.062260
O811	O81	0.575000	0.914600	0.051500
C1511	C151	0.480900	0.930900	0.098900
C1521	C152	0.462000	0.922800	0.147700
H621	H62	0.497800	0.916100	0.177400
C1531	C153	0.337700	0.932600	0.107300
H631	H63	0.289400	0.930200	0.110200
C1541	C154	0.558900	0.930600	0.095500
N191	N19	0.768300	0.971900	0.143600
O821	O82	0.703600	0.817100	0.117900
O831	O83	0.619000	0.790200	0.163600
C1551	C155	0.674100	0.693500	0.057200
H641	H64	0.717700	0.715400	0.056100
C1561	C156	0.654000	0.638100	0.026200
N201	N20	0.758100	0.958800	0.191700
C1571	C157	0.630700	0.718200	0.090600
C1581	C158	0.354400	0.943900	0.059000
C1591	C159	0.652200	0.777900	0.125800
C1601	C160	0.427000	0.942800	0.055300
H651	H65	0.439700	0.950100	0.022800
C1611	C161	0.587400	0.604000	0.027400
H661	H66	0.572700	0.566400	0.005600
N211	N21	0.816000	0.018800	0.141800
O841	O84	0.605800	0.944700	0.134400
C1621	C162	0.567500	0.684000	0.094200
H671	H67	0.540100	0.698700	0.118400
C1631	C163	0.390600	0.924500	0.152300
C1641	C164	0.838900	0.040700	0.190900
C1651	C165	0.802100	0.002200	0.221400
C1661	C166	0.815500	0.012400	0.279600
H681	H68	0.791100	0.986300	0.300800
C1671	C167	0.888500	0.093300	0.208700
H691	H69	0.912700	0.118900	0.187100
C1681	C168	0.897300	0.102900	0.265200
H701	H70	0.926800	0.139200	0.279900
O851	O85	0.734300	0.440600	0.017300
O861	O86	0.813200	0.470800	0.969500
C1691	C169	0.796900	0.452500	0.011800
O871	O87	0.805700	0.418400	0.206500
O881	O88	0.909800	0.389900	0.240900
C1701	C170	0.869700	0.409500	0.203400
O891	O89	0.170800	0.068500	0.952400
O901	O90	0.263300	0.130800	0.995500
C1711	C171	0.199300	0.109800	0.988500
O911	O91	0.944500	0.105900	0.101100
O921	O92	0.945100	0.057400	0.029700
C1721	C172	0.972500	0.095400	0.062900
C1731	C173	0.044800	0.128000	0.062000
C1741	C174	0.364600	0.561500	0.300700
H711	H71	0.376700	0.568000	0.336900
Cd221	Cd22	0.196540	0.421450	0.070950
Cd231	Cd23	0.178110	0.380250	0.206450
Cd241	Cd24	0.336460	0.552600	0.062260
O931	O93	0.075000	0.414600	0.051500
C1751	C175	0.980900	0.430900	0.098900
C1761	C176	0.962000	0.422800	0.147700
H721	H72	0.997800	0.416100	0.177400
C1771	C177	0.837700	0.432600	0.107300
H731	H73	0.789400	0.430200	0.110200
C1781	C178	0.058900	0.430600	0.095500
N221	N22	0.268300	0.471900	0.143600
O941	O94	0.203600	0.317100	0.117900
O951	O95	0.119000	0.290200	0.163600
C1791	C179	0.174100	0.193500	0.057200
H741	H74	0.217700	0.215400	0.056100
C1801	C180	0.154000	0.138100	0.026200
N231	N23	0.258100	0.458800	0.191700
C1811	C181	0.130700	0.218200	0.090600
C1821	C182	0.854400	0.443900	0.059000
C1831	C183	0.152200	0.277900	0.125800
C1841	C184	0.927000	0.442800	0.055300
H751	H75	0.939700	0.450100	0.022800
C1851	C185	0.087400	0.104000	0.027400
H761	H76	0.072700	0.066400	0.005600
N241	N24	0.316000	0.518800	0.141800
O961	O96	0.105800	0.444700	0.134400
C1861	C186	0.067500	0.184000	0.094200
H771	H77	0.040100	0.198700	0.118400
C1871	C187	0.890600	0.424500	0.152300
C1881	C188	0.338900	0.540700	0.190900
C1891	C189	0.302100	0.502200	0.221400
C1901	C190	0.315500	0.512400	0.279600
H781	H78	0.291100	0.486300	0.300800
C1911	C191	0.388500	0.593300	0.208700
H791	H79	0.412700	0.618900	0.187100
C1921	C192	0.397300	0.602900	0.265200
H801	H80	0.426800	0.639200	0.279900
