data_HULTEP_clean_PM
_symmetry_space_group_name_H-M	'P1'
_cell_length_a	13.717000
_cell_length_b	13.717000
_cell_length_c	58.970000
_cell_angle_alpha	90.000000
_cell_angle_beta	90.000000
_cell_angle_gamma	120.000000
_symmetry_Int_Tables_number 1

loop_
_symmetry_equiv_pos_as_xyz
'x,y,z'

loop_
_atom_site_label
_atom_site_type_symbol
_atom_site_fract_x
_atom_site_fract_y
_atom_site_fract_z
C11	C1	0.853300	0.018800	0.039030
H11	H1	0.841400	0.951900	0.045500
C21	C2	0.910000	0.160300	0.017420
H21	H2	0.945900	0.211400	0.005700
C31	C3	0.843200	0.169500	0.032950
H31	H3	0.825500	0.226500	0.034100
C41	C4	0.733500	0.051000	0.065840
C51	C5	0.701000	0.120900	0.074310
H41	H4	0.725400	0.191300	0.067900
N11	N1	0.918100	0.067000	0.021040
N21	N2	0.807000	0.078700	0.046660
N31	N3	0.700200	0.951800	0.073780
C61	C6	0.519970	0.352130	0.372360
H51	H5	0.508070	0.285230	0.378830
C71	C7	0.576670	0.493630	0.350750
H61	H6	0.612570	0.544730	0.339030
C81	C8	0.509870	0.502830	0.366280
H71	H7	0.492170	0.559830	0.367430
C91	C9	0.400170	0.384330	0.399170
C101	C10	0.367670	0.454230	0.407640
H81	H8	0.392070	0.524630	0.401230
N41	N4	0.584770	0.400330	0.354370
N51	N5	0.473670	0.412030	0.379990
N61	N6	0.366870	0.285130	0.407110
C111	C11	0.186630	0.685470	0.705700
H91	H9	0.174730	0.618570	0.712170
C121	C12	0.243330	0.826970	0.684090
H101	H10	0.279230	0.878070	0.672370
C131	C13	0.176530	0.836170	0.699620
H111	H11	0.158830	0.893170	0.700770
C141	C14	0.066830	0.717670	0.732510
C151	C15	0.034330	0.787570	0.740980
H121	H12	0.058730	0.857970	0.734570
N71	N7	0.251430	0.733670	0.687710
N81	N8	0.140330	0.745370	0.713330
N91	N9	0.033530	0.618470	0.740450
C161	C16	0.981200	0.834500	0.039030
H131	H13	0.048100	0.889500	0.045500
C171	C17	0.839700	0.749700	0.017420
H141	H14	0.788600	0.734500	0.005700
C181	C18	0.830500	0.673700	0.032950
H151	H15	0.773500	0.599000	0.034100
C191	C19	0.949000	0.682500	0.065840
C201	C20	0.879100	0.580100	0.074310
H161	H16	0.808700	0.534100	0.067900
N101	N10	0.933000	0.851100	0.021040
N111	N11	0.921300	0.728300	0.046660
N121	N12	0.048200	0.748400	0.073780
C211	C21	0.647870	0.167830	0.372360
H171	H17	0.714770	0.222830	0.378830
C221	C22	0.506370	0.083030	0.350750
H181	H18	0.455270	0.067830	0.339030
C231	C23	0.497170	0.007030	0.366280
H191	H19	0.440170	0.932330	0.367430
C241	C24	0.615670	0.015830	0.399170
C251	C25	0.545770	0.913430	0.407640
H201	H20	0.475370	0.867430	0.401230
N131	N13	0.599670	0.184430	0.354370
N141	N14	0.587970	0.061630	0.379990
N151	N15	0.714870	0.081730	0.407110
C261	C26	0.314530	0.501170	0.705700
H211	H21	0.381430	0.556170	0.712170
C271	C27	0.173030	0.416370	0.684090
H221	H22	0.121930	0.401170	0.672370
C281	C28	0.163830	0.340370	0.699620
H231	H23	0.106830	0.265670	0.700770
C291	C29	0.282330	0.349170	0.732510
C301	C30	0.212430	0.246770	0.740980
H241	H24	0.142030	0.200770	0.734570
N161	N16	0.266330	0.517770	0.687710
N171	N17	0.254630	0.394970	0.713330
N181	N18	0.381530	0.415070	0.740450
C311	C31	0.165500	0.146700	0.039030
H251	H25	0.110500	0.158600	0.045500
C321	C32	0.250300	0.090000	0.017420
H261	H26	0.265500	0.054100	0.005700
C331	C33	0.326300	0.156800	0.032950
H271	H27	0.401000	0.174500	0.034100
C341	C34	0.317500	0.266500	0.065840
C351	C35	0.419900	0.299000	0.074310
H281	H28	0.465900	0.274600	0.067900
N191	N19	0.148900	0.081900	0.021040
N201	N20	0.271700	0.193000	0.046660
N211	N21	0.251600	0.299800	0.073780
C361	C36	0.832170	0.480030	0.372360
H291	H29	0.777170	0.491930	0.378830
C371	C37	0.916970	0.423330	0.350750
H301	H30	0.932170	0.387430	0.339030
C381	C38	0.992970	0.490130	0.366280
H311	H31	0.067670	0.507830	0.367430
C391	C39	0.984170	0.599830	0.399170
C401	C40	0.086570	0.632330	0.407640
H321	H32	0.132570	0.607930	0.401230
N221	N22	0.815570	0.415230	0.354370
N231	N23	0.938370	0.526330	0.379990
N241	N24	0.918270	0.633130	0.407110
C411	C41	0.498830	0.813370	0.705700
H331	H33	0.443830	0.825270	0.712170
C421	C42	0.583630	0.756670	0.684090
H341	H34	0.598830	0.720770	0.672370
C431	C43	0.659630	0.823470	0.699620
H351	H35	0.734330	0.841170	0.700770
C441	C44	0.650830	0.933170	0.732510
C451	C45	0.753230	0.965670	0.740980
H361	H36	0.799230	0.941270	0.734570
N251	N25	0.482230	0.748570	0.687710
N261	N26	0.605030	0.859670	0.713330
N271	N27	0.584930	0.966470	0.740450
C461	C46	0.018800	0.853300	0.460970
H371	H37	0.951900	0.841400	0.454500
C471	C47	0.160300	0.910000	0.482580
H381	H38	0.211400	0.945900	0.494300
C481	C48	0.169500	0.843200	0.467050
H391	H39	0.226500	0.825500	0.465900
C491	C49	0.051000	0.733500	0.434160
C501	C50	0.120900	0.701000	0.425690
H401	H40	0.191300	0.725400	0.432100
N281	N28	0.067000	0.918100	0.478960
N291	N29	0.078700	0.807000	0.453340
N301	N30	0.951800	0.700200	0.426220
C511	C51	0.685470	0.186630	0.794300
H411	H41	0.618570	0.174730	0.787830
C521	C52	0.826970	0.243330	0.815910
H421	H42	0.878070	0.279230	0.827630
C531	C53	0.836170	0.176530	0.800380
H431	H43	0.893170	0.158830	0.799230
C541	C54	0.717670	0.066830	0.767490
C551	C55	0.787570	0.034330	0.759020
H441	H44	0.857970	0.058730	0.765430
N311	N31	0.733670	0.251430	0.812290
N321	N32	0.745370	0.140330	0.786670
N331	N33	0.618470	0.033530	0.759550
C561	C56	0.352130	0.519970	0.127640
H451	H45	0.285230	0.508070	0.121170
C571	C57	0.493630	0.576670	0.149250
H461	H46	0.544730	0.612570	0.160970
C581	C58	0.502830	0.509870	0.133720
H471	H47	0.559830	0.492170	0.132570
C591	C59	0.384330	0.400170	0.100830
C601	C60	0.454230	0.367670	0.092360
H481	H48	0.524630	0.392070	0.098770
N341	N34	0.400330	0.584770	0.145630
N351	N35	0.412030	0.473670	0.120010
N361	N36	0.285130	0.366870	0.092890
C611	C61	0.834500	0.981200	0.460970
H491	H49	0.889500	0.048100	0.454500
C621	C62	0.749700	0.839700	0.482580
H501	H50	0.734500	0.788600	0.494300
C631	C63	0.673700	0.830500	0.467050
H511	H51	0.599000	0.773500	0.465900
C641	C64	0.682500	0.949000	0.434160
C651	C65	0.580100	0.879100	0.425690
H521	H52	0.534100	0.808700	0.432100
N371	N37	0.851100	0.933000	0.478960
N381	N38	0.728300	0.921300	0.453340
N391	N39	0.748400	0.048200	0.426220
C661	C66	0.501170	0.314530	0.794300
H531	H53	0.556170	0.381430	0.787830
C671	C67	0.416370	0.173030	0.815910
H541	H54	0.401170	0.121930	0.827630
C681	C68	0.340370	0.163830	0.800380
H551	H55	0.265670	0.106830	0.799230
C691	C69	0.349170	0.282330	0.767490
C701	C70	0.246770	0.212430	0.759020
H561	H56	0.200770	0.142030	0.765430
N401	N40	0.517770	0.266330	0.812290
N411	N41	0.394970	0.254630	0.786670
N421	N42	0.415070	0.381530	0.759550
C711	C71	0.167830	0.647870	0.127640
H571	H57	0.222830	0.714770	0.121170
C721	C72	0.083030	0.506370	0.149250
H581	H58	0.067830	0.455270	0.160970
C731	C73	0.007030	0.497170	0.133720
H591	H59	0.932330	0.440170	0.132570
C741	C74	0.015830	0.615670	0.100830
C751	C75	0.913430	0.545770	0.092360
H601	H60	0.867430	0.475370	0.098770
N431	N43	0.184430	0.599670	0.145630
N441	N44	0.061630	0.587970	0.120010
N451	N45	0.081730	0.714870	0.092890
C761	C76	0.146700	0.165500	0.460970
H611	H61	0.158600	0.110500	0.454500
C771	C77	0.090000	0.250300	0.482580
H621	H62	0.054100	0.265500	0.494300
C781	C78	0.156800	0.326300	0.467050
H631	H63	0.174500	0.401000	0.465900
C791	C79	0.266500	0.317500	0.434160
C801	C80	0.299000	0.419900	0.425690
H641	H64	0.274600	0.465900	0.432100
N461	N46	0.081900	0.148900	0.478960
N471	N47	0.193000	0.271700	0.453340
N481	N48	0.299800	0.251600	0.426220
C811	C81	0.813370	0.498830	0.794300
H651	H65	0.825270	0.443830	0.787830
C821	C82	0.756670	0.583630	0.815910
H661	H66	0.720770	0.598830	0.827630
C831	C83	0.823470	0.659630	0.800380
H671	H67	0.841170	0.734330	0.799230
C841	C84	0.933170	0.650830	0.767490
C851	C85	0.965670	0.753230	0.759020
H681	H68	0.941270	0.799230	0.765430
N491	N49	0.748570	0.482230	0.812290
N501	N50	0.859670	0.605030	0.786670
N511	N51	0.966470	0.584930	0.759550
C861	C86	0.480030	0.832170	0.127640
H691	H69	0.491930	0.777170	0.121170
C871	C87	0.423330	0.916970	0.149250
H701	H70	0.387430	0.932170	0.160970
C881	C88	0.490130	0.992970	0.133720
H711	H71	0.507830	0.067670	0.132570
C891	C89	0.599830	0.984170	0.100830
C901	C90	0.632330	0.086570	0.092360
H721	H72	0.607930	0.132570	0.098770
N521	N52	0.415230	0.815570	0.145630
N531	N53	0.526330	0.938370	0.120010
N541	N54	0.633130	0.918270	0.092890
C911	C91	0.146700	0.981200	0.960970
H731	H73	0.158600	0.048100	0.954500
C921	C92	0.090000	0.839700	0.982580
H741	H74	0.054100	0.788600	0.994300
C931	C93	0.156800	0.830500	0.967050
H751	H75	0.174500	0.773500	0.965900
C941	C94	0.266500	0.949000	0.934160
C951	C95	0.299000	0.879100	0.925690
H761	H76	0.274600	0.808700	0.932100
N551	N55	0.081900	0.933000	0.978960
N561	N56	0.193000	0.921300	0.953340
N571	N57	0.299800	0.048200	0.926220
C961	C96	0.813370	0.314530	0.294300
H771	H77	0.825270	0.381430	0.287830
C971	C97	0.756670	0.173030	0.315910
H781	H78	0.720770	0.121930	0.327630
C981	C98	0.823470	0.163830	0.300380
H791	H79	0.841170	0.106830	0.299230
C991	C99	0.933170	0.282330	0.267490
C1001	C100	0.965670	0.212430	0.259020
H801	H80	0.941270	0.142030	0.265430
N581	N58	0.748570	0.266330	0.312290
N591	N59	0.859670	0.254630	0.286670
N601	N60	0.966470	0.381530	0.259550
C1011	C101	0.480030	0.647870	0.627640
H811	H81	0.491930	0.714770	0.621170
C1021	C102	0.423330	0.506370	0.649250
H821	H82	0.387430	0.455270	0.660970
C1031	C103	0.490130	0.497170	0.633720
H831	H83	0.507830	0.440170	0.632570
C1041	C104	0.599830	0.615670	0.600830
C1051	C105	0.632330	0.545770	0.592360
H841	H84	0.607930	0.475370	0.598770
N611	N61	0.415230	0.599670	0.645630
N621	N62	0.526330	0.587970	0.620010
N631	N63	0.633130	0.714870	0.592890
C1061	C106	0.018800	0.165500	0.960970
H851	H85	0.951900	0.110500	0.954500
C1071	C107	0.160300	0.250300	0.982580
H861	H86	0.211400	0.265500	0.994300
C1081	C108	0.169500	0.326300	0.967050
H871	H87	0.226500	0.401000	0.965900
C1091	C109	0.051000	0.317500	0.934160
C1101	C110	0.120900	0.419900	0.925690
H881	H88	0.191300	0.465900	0.932100
N641	N64	0.067000	0.148900	0.978960
N651	N65	0.078700	0.271700	0.953340
N661	N66	0.951800	0.251600	0.926220
C1111	C111	0.685470	0.498830	0.294300
H891	H89	0.618570	0.443830	0.287830
C1121	C112	0.826970	0.583630	0.315910
H901	H90	0.878070	0.598830	0.327630
C1131	C113	0.836170	0.659630	0.300380
H911	H91	0.893170	0.734330	0.299230
C1141	C114	0.717670	0.650830	0.267490
C1151	C115	0.787570	0.753230	0.259020
H921	H92	0.857970	0.799230	0.265430
N671	N67	0.733670	0.482230	0.312290
N681	N68	0.745370	0.605030	0.286670
N691	N69	0.618470	0.584930	0.259550
C1161	C116	0.352130	0.832170	0.627640
H931	H93	0.285230	0.777170	0.621170
C1171	C117	0.493630	0.916970	0.649250
H941	H94	0.544730	0.932170	0.660970
C1181	C118	0.502830	0.992970	0.633720
H951	H95	0.559830	0.067670	0.632570
C1191	C119	0.384330	0.984170	0.600830
C1201	C120	0.454230	0.086570	0.592360
H961	H96	0.524630	0.132570	0.598770
N701	N70	0.400330	0.815570	0.645630
N711	N71	0.412030	0.938370	0.620010
N721	N72	0.285130	0.918270	0.592890
C1211	C121	0.834500	0.853300	0.960970
H971	H97	0.889500	0.841400	0.954500
C1221	C122	0.749700	0.910000	0.982580
H981	H98	0.734500	0.945900	0.994300
C1231	C123	0.673700	0.843200	0.967050
H991	H99	0.599000	0.825500	0.965900
C1241	C124	0.682500	0.733500	0.934160
C1251	C125	0.580100	0.701000	0.925690
H1001	H100	0.534100	0.725400	0.932100
N731	N73	0.851100	0.918100	0.978960
N741	N74	0.728300	0.807000	0.953340
N751	N75	0.748400	0.700200	0.926220
C1261	C126	0.501170	0.186630	0.294300
H1011	H101	0.556170	0.174730	0.287830
C1271	C127	0.416370	0.243330	0.315910
H1021	H102	0.401170	0.279230	0.327630
C1281	C128	0.340370	0.176530	0.300380
H1031	H103	0.265670	0.158830	0.299230
C1291	C129	0.349170	0.066830	0.267490
C1301	C130	0.246770	0.034330	0.259020
H1041	H104	0.200770	0.058730	0.265430
N761	N76	0.517770	0.251430	0.312290
N771	N77	0.394970	0.140330	0.286670
N781	N78	0.415070	0.033530	0.259550
C1311	C131	0.167830	0.519970	0.627640
H1051	H105	0.222830	0.508070	0.621170
C1321	C132	0.083030	0.576670	0.649250
H1061	H106	0.067830	0.612570	0.660970
C1331	C133	0.007030	0.509870	0.633720
H1071	H107	0.932330	0.492170	0.632570
C1341	C134	0.015830	0.400170	0.600830
C1351	C135	0.913430	0.367670	0.592360
H1081	H108	0.867430	0.392070	0.598770
N791	N79	0.184430	0.584770	0.645630
N801	N80	0.061630	0.473670	0.620010
N811	N81	0.081730	0.366870	0.592890
C1361	C136	0.981200	0.146700	0.539030
H1091	H109	0.048100	0.158600	0.545500
C1371	C137	0.839700	0.090000	0.517420
H1101	H110	0.788600	0.054100	0.505700
C1381	C138	0.830500	0.156800	0.532950
H1111	H111	0.773500	0.174500	0.534100
C1391	C139	0.949000	0.266500	0.565840
C1401	C140	0.879100	0.299000	0.574310
H1121	H112	0.808700	0.274600	0.567900
N821	N82	0.933000	0.081900	0.521040
N831	N83	0.921300	0.193000	0.546660
N841	N84	0.048200	0.299800	0.573780
C1411	C141	0.647870	0.480030	0.872360
H1131	H113	0.714770	0.491930	0.878830
C1421	C142	0.506370	0.423330	0.850750
H1141	H114	0.455270	0.387430	0.839030
C1431	C143	0.497170	0.490130	0.866280
H1151	H115	0.440170	0.507830	0.867430
C1441	C144	0.615670	0.599830	0.899170
C1451	C145	0.545770	0.632330	0.907640
H1161	H116	0.475370	0.607930	0.901230
N851	N85	0.599670	0.415230	0.854370
N861	N86	0.587970	0.526330	0.879990
N871	N87	0.714870	0.633130	0.907110
C1461	C146	0.314530	0.813370	0.205700
H1171	H117	0.381430	0.825270	0.212170
C1471	C147	0.173030	0.756670	0.184090
H1181	H118	0.121930	0.720770	0.172370
C1481	C148	0.163830	0.823470	0.199620
H1191	H119	0.106830	0.841170	0.200770
C1491	C149	0.282330	0.933170	0.232510
C1501	C150	0.212430	0.965670	0.240980
H1201	H120	0.142030	0.941270	0.234570
N881	N88	0.266330	0.748570	0.187710
N891	N89	0.254630	0.859670	0.213330
N901	N90	0.381530	0.966470	0.240450
C1511	C151	0.165500	0.018800	0.539030
H1211	H121	0.110500	0.951900	0.545500
C1521	C152	0.250300	0.160300	0.517420
H1221	H122	0.265500	0.211400	0.505700
C1531	C153	0.326300	0.169500	0.532950
H1231	H123	0.401000	0.226500	0.534100
C1541	C154	0.317500	0.051000	0.565840
C1551	C155	0.419900	0.120900	0.574310
H1241	H124	0.465900	0.191300	0.567900
N911	N91	0.148900	0.067000	0.521040
N921	N92	0.271700	0.078700	0.546660
N931	N93	0.251600	0.951800	0.573780
C1561	C156	0.832170	0.352130	0.872360
H1251	H125	0.777170	0.285230	0.878830
C1571	C157	0.916970	0.493630	0.850750
H1261	H126	0.932170	0.544730	0.839030
C1581	C158	0.992970	0.502830	0.866280
H1271	H127	0.067670	0.559830	0.867430
C1591	C159	0.984170	0.384330	0.899170
C1601	C160	0.086570	0.454230	0.907640
H1281	H128	0.132570	0.524630	0.901230
N941	N94	0.815570	0.400330	0.854370
N951	N95	0.938370	0.412030	0.879990
N961	N96	0.918270	0.285130	0.907110
C1611	C161	0.498830	0.685470	0.205700
H1291	H129	0.443830	0.618570	0.212170
C1621	C162	0.583630	0.826970	0.184090
H1301	H130	0.598830	0.878070	0.172370
C1631	C163	0.659630	0.836170	0.199620
H1311	H131	0.734330	0.893170	0.200770
C1641	C164	0.650830	0.717670	0.232510
C1651	C165	0.753230	0.787570	0.240980
H1321	H132	0.799230	0.857970	0.234570
N971	N97	0.482230	0.733670	0.187710
N981	N98	0.605030	0.745370	0.213330
N991	N99	0.584930	0.618470	0.240450
C1661	C166	0.853300	0.834500	0.539030
H1331	H133	0.841400	0.889500	0.545500
C1671	C167	0.910000	0.749700	0.517420
H1341	H134	0.945900	0.734500	0.505700
C1681	C168	0.843200	0.673700	0.532950
H1351	H135	0.825500	0.599000	0.534100
C1691	C169	0.733500	0.682500	0.565840
C1701	C170	0.701000	0.580100	0.574310
H1361	H136	0.725400	0.534100	0.567900
N1001	N100	0.918100	0.851100	0.521040
N1011	N101	0.807000	0.728300	0.546660
N1021	N102	0.700200	0.748400	0.573780
C1711	C171	0.519970	0.167830	0.872360
H1371	H137	0.508070	0.222830	0.878830
C1721	C172	0.576670	0.083030	0.850750
H1381	H138	0.612570	0.067830	0.839030
C1731	C173	0.509870	0.007030	0.866280
H1391	H139	0.492170	0.932330	0.867430
C1741	C174	0.400170	0.015830	0.899170
C1751	C175	0.367670	0.913430	0.907640
H1401	H140	0.392070	0.867430	0.901230
N1031	N103	0.584770	0.184430	0.854370
N1041	N104	0.473670	0.061630	0.879990
N1051	N105	0.366870	0.081730	0.907110
C1761	C176	0.186630	0.501170	0.205700
H1411	H141	0.174730	0.556170	0.212170
C1771	C177	0.243330	0.416370	0.184090
H1421	H142	0.279230	0.401170	0.172370
C1781	C178	0.176530	0.340370	0.199620
H1431	H143	0.158830	0.265670	0.200770
C1791	C179	0.066830	0.349170	0.232510
C1801	C180	0.034330	0.246770	0.240980
H1441	H144	0.058730	0.200770	0.234570
N1061	N106	0.251430	0.517770	0.187710
N1071	N107	0.140330	0.394970	0.213330
N1081	N108	0.033530	0.415070	0.240450
Co11	Co1	0.000000	0.000000	0.000000
Co21	Co2	0.666670	0.333330	0.333330
Co31	Co3	0.333330	0.666670	0.666670
Co41	Co4	0.000000	0.000000	0.500000
Co51	Co5	0.666670	0.333330	0.833330
Co61	Co6	0.333330	0.666670	0.166670
