data_HUNCUQ_clean_PM
_symmetry_space_group_name_H-M	'P1'
_cell_length_a	16.330300
_cell_length_b	20.684700
_cell_length_c	16.980100
_cell_angle_alpha	90.000000
_cell_angle_beta	98.472000
_cell_angle_gamma	90.000000
_symmetry_Int_Tables_number 1

loop_
_symmetry_equiv_pos_as_xyz
'x,y,z'

loop_
_atom_site_label
_atom_site_type_symbol
_atom_site_fract_x
_atom_site_fract_y
_atom_site_fract_z
Zn11	Zn1	0.479660	0.174160	0.249220
Zn21	Zn2	0.602810	0.150280	0.439510
Zn31	Zn3	0.387860	0.138030	0.055660
S11	S1	0.545930	0.564730	0.373300
S21	S2	0.958110	0.273970	0.240870
S31	S3	0.117630	0.006000	0.458120
O11	O1	0.896500	0.655200	0.247400
O21	O2	0.496200	0.246800	0.330000
O31	O3	0.477100	0.111000	0.357600
O41	O4	0.993100	0.257200	0.662000
O51	O5	0.354000	0.187800	0.238700
O61	O6	0.038700	0.587700	0.309200
O71	O7	0.596100	0.244600	0.433700
O81	O8	0.830600	0.614000	0.135300
O91	O9	0.510600	0.104000	0.486700
O101	O10	0.961500	0.293000	0.537100
O111	O11	0.302000	0.173200	0.109000
O121	O12	0.065900	0.552200	0.429900
O131	O13	0.904400	0.276600	0.165400
O141	O14	0.934700	0.237100	0.304900
O151	O15	0.119800	0.956900	0.517400
O161	O16	0.071900	0.996000	0.380300
O171	O17	0.563100	0.589500	0.452100
O181	O18	0.473100	0.584400	0.321200
C11	C1	0.236600	0.050800	0.376000
H11	H1	0.194400	0.054200	0.333000
C21	C2	0.151100	0.223000	0.132600
H21	H2	0.162700	0.219500	0.080700
C31	C3	0.072900	0.242600	0.145900
H31	H3	0.032200	0.252400	0.103300
C41	C4	0.283000	0.018900	0.511400
H41	H4	0.271900	0.000100	0.558500
C51	C5	0.193700	0.213200	0.273800
H51	H5	0.233800	0.203500	0.316900
C61	C6	0.973400	0.403600	0.221200
H61	H6	0.959500	0.395400	0.167000
C71	C7	0.632200	0.581400	0.323200
C81	C8	0.593500	0.448200	0.441700
H71	H7	0.624900	0.471500	0.482200
C91	C9	0.991100	0.465200	0.247800
H81	H8	0.988200	0.499100	0.211600
C101	C10	0.212200	0.208500	0.196400
C111	C11	0.015000	0.427200	0.382200
H91	H9	0.029100	0.435000	0.436500
C121	C12	0.462300	0.095900	0.423200
C131	C13	0.115900	0.232200	0.286300
H101	H10	0.103500	0.234800	0.338000
C141	C14	0.014200	0.180200	0.475600
H111	H11	0.989800	0.211800	0.440700
C151	C15	0.079800	0.078100	0.496700
C161	C16	0.593400	0.381500	0.442400
H121	H12	0.625700	0.359800	0.483800
C171	C17	0.056200	0.247300	0.223000
C181	C18	0.765600	0.608600	0.248800
C191	C19	0.297200	0.187800	0.181000
C201	C20	0.088100	0.086300	0.578900
H131	H13	0.112400	0.054500	0.613300
C211	C21	0.500400	0.378300	0.321600
H141	H14	0.469700	0.355100	0.280500
C221	C22	0.021700	0.190200	0.556900
C231	C23	0.995800	0.365200	0.355000
H151	H15	0.996000	0.331300	0.391000
C241	C24	0.315200	0.070600	0.369000
H161	H16	0.326500	0.086600	0.320600
C251	C25	0.772200	0.610600	0.330100
H171	H17	0.822400	0.621900	0.360400
C261	C26	0.013200	0.477300	0.328500
C271	C27	0.362200	0.040000	0.504200
H181	H18	0.404700	0.036300	0.546900
C281	C28	0.546300	0.274300	0.382100
C291	C29	0.498600	0.444600	0.319500
H191	H19	0.466000	0.466300	0.278300
C301	C30	0.038700	0.545000	0.356300
C311	C31	0.624800	0.577600	0.243400
H201	H20	0.574300	0.566500	0.213600
C321	C32	0.546700	0.478700	0.380300
C331	C33	0.837600	0.627100	0.207700
C341	C34	0.377800	0.067000	0.432600
C351	C35	0.692000	0.589900	0.206000
H211	H21	0.687500	0.585600	0.151000
C361	C36	0.059600	0.142700	0.607900
H221	H22	0.065700	0.149400	0.662600
C371	C37	0.546000	0.345700	0.382200
C381	C38	0.043100	0.123500	0.445800
H231	H23	0.037200	0.116700	0.391100
C391	C39	0.990400	0.251200	0.589000
C401	C40	0.220600	0.026200	0.446800
C411	C41	0.976500	0.354000	0.275400
C421	C42	0.705300	0.596200	0.367200
H241	H24	0.710400	0.596500	0.422500
Zn41	Zn4	0.020340	0.674160	0.250780
Zn51	Zn5	0.897190	0.650280	0.060490
Zn61	Zn6	0.112140	0.638030	0.444340
S41	S4	0.954070	0.064730	0.126700
S51	S5	0.541890	0.773970	0.259130
S61	S6	0.382370	0.506000	0.041880
O191	O19	0.603500	0.155200	0.252600
O201	O20	0.003800	0.746800	0.170000
O211	O21	0.022900	0.611000	0.142400
O221	O22	0.506900	0.757200	0.838000
O231	O23	0.146000	0.687800	0.261300
O241	O24	0.461300	0.087700	0.190800
O251	O25	0.903900	0.744600	0.066300
O261	O26	0.669400	0.114000	0.364700
O271	O27	0.989400	0.604000	0.013300
O281	O28	0.538500	0.793000	0.962900
O291	O29	0.198000	0.673200	0.391000
O301	O30	0.434100	0.052200	0.070100
O311	O31	0.595600	0.776600	0.334600
O321	O32	0.565300	0.737100	0.195100
O331	O33	0.380200	0.456900	0.982600
O341	O34	0.428100	0.496000	0.119700
O351	O35	0.936900	0.089500	0.047900
O361	O36	0.026900	0.084400	0.178800
C431	C43	0.263400	0.550800	0.124000
H251	H25	0.305600	0.554200	0.167000
C441	C44	0.348900	0.723000	0.367400
H261	H26	0.337300	0.719500	0.419300
C451	C45	0.427100	0.742600	0.354100
H271	H27	0.467800	0.752400	0.396700
C461	C46	0.217000	0.518900	0.988600
H281	H28	0.228100	0.500100	0.941500
C471	C47	0.306300	0.713200	0.226200
H291	H29	0.266200	0.703500	0.183100
C481	C48	0.526600	0.903600	0.278800
H301	H30	0.540500	0.895400	0.333000
C491	C49	0.867800	0.081400	0.176800
C501	C50	0.906500	0.948200	0.058300
H311	H31	0.875100	0.971500	0.017800
C511	C51	0.508900	0.965200	0.252200
H321	H32	0.511800	0.999100	0.288400
C521	C52	0.287800	0.708500	0.303600
C531	C53	0.485000	0.927200	0.117800
H331	H33	0.470900	0.935000	0.063500
C541	C54	0.037700	0.595900	0.076800
C551	C55	0.384100	0.732200	0.213700
H341	H34	0.396500	0.734800	0.162000
C561	C56	0.485800	0.680200	0.024400
H351	H35	0.510200	0.711800	0.059300
C571	C57	0.420200	0.578100	0.003300
C581	C58	0.906600	0.881500	0.057600
H361	H36	0.874300	0.859800	0.016200
C591	C59	0.443800	0.747300	0.277000
C601	C60	0.734400	0.108600	0.251200
C611	C61	0.202800	0.687800	0.319000
C621	C62	0.411900	0.586300	0.921100
H371	H37	0.387600	0.554500	0.886700
C631	C63	0.999600	0.878300	0.178400
H381	H38	0.030300	0.855100	0.219500
C641	C64	0.478300	0.690200	0.943100
C651	C65	0.504200	0.865200	0.145000
H391	H39	0.504000	0.831300	0.109000
C661	C66	0.184800	0.570600	0.131000
H401	H40	0.173500	0.586600	0.179400
C671	C67	0.727800	0.110600	0.169900
H411	H41	0.677600	0.121900	0.139600
C681	C68	0.486800	0.977300	0.171500
C691	C69	0.137800	0.540000	0.995800
H421	H42	0.095300	0.536300	0.953100
C701	C70	0.953700	0.774300	0.117900
C711	C71	0.001400	0.944600	0.180500
H431	H43	0.034000	0.966300	0.221700
C721	C72	0.461300	0.045000	0.143700
C731	C73	0.875200	0.077600	0.256600
H441	H44	0.925700	0.066500	0.286400
C741	C74	0.953300	0.978700	0.119700
C751	C75	0.662400	0.127100	0.292300
C761	C76	0.122200	0.567000	0.067400
C771	C77	0.808000	0.089900	0.294000
H451	H45	0.812500	0.085600	0.349000
C781	C78	0.440400	0.642700	0.892100
H461	H46	0.434300	0.649400	0.837400
C791	C79	0.954000	0.845700	0.117800
C801	C80	0.456900	0.623500	0.054200
H471	H47	0.462800	0.616700	0.108900
C811	C81	0.509600	0.751200	0.911000
C821	C82	0.279400	0.526200	0.053200
C831	C83	0.523500	0.854000	0.224600
C841	C84	0.794700	0.096200	0.132800
H481	H48	0.789600	0.096500	0.077500
Zn71	Zn7	0.520340	0.825840	0.750780
Zn81	Zn8	0.397190	0.849720	0.560490
Zn91	Zn9	0.612140	0.861970	0.944340
S71	S7	0.454070	0.435270	0.626700
S81	S8	0.041890	0.726030	0.759130
S91	S9	0.882370	0.994000	0.541880
O371	O37	0.103500	0.344800	0.752600
O381	O38	0.503800	0.753200	0.670000
O391	O39	0.522900	0.889000	0.642400
O401	O40	0.006900	0.742800	0.338000
O411	O41	0.646000	0.812200	0.761300
O421	O42	0.961300	0.412300	0.690800
O431	O43	0.403900	0.755400	0.566300
O441	O44	0.169400	0.386000	0.864700
O451	O45	0.489400	0.896000	0.513300
O461	O46	0.038500	0.707000	0.462900
O471	O47	0.698000	0.826800	0.891000
O481	O48	0.934100	0.447800	0.570100
O491	O49	0.095600	0.723400	0.834600
O501	O50	0.065300	0.762900	0.695100
O511	O51	0.880200	0.043100	0.482600
O521	O52	0.928100	0.004000	0.619700
O531	O53	0.436900	0.410500	0.547900
O541	O54	0.526900	0.415600	0.678800
C851	C85	0.763400	0.949200	0.624000
H491	H49	0.805600	0.945800	0.667000
C861	C86	0.848900	0.777000	0.867400
H501	H50	0.837300	0.780500	0.919300
C871	C87	0.927100	0.757400	0.854100
H511	H51	0.967800	0.747600	0.896700
C881	C88	0.717000	0.981100	0.488600
H521	H52	0.728100	0.999900	0.441500
C891	C89	0.806300	0.786800	0.726200
H531	H53	0.766200	0.796500	0.683100
C901	C90	0.026600	0.596400	0.778800
H541	H54	0.040500	0.604600	0.833000
C911	C91	0.367800	0.418600	0.676800
C921	C92	0.406500	0.551800	0.558300
H551	H55	0.375100	0.528500	0.517800
C931	C93	0.008900	0.534800	0.752200
H561	H56	0.011800	0.500900	0.788400
C941	C94	0.787800	0.791500	0.803600
C951	C95	0.985000	0.572800	0.617800
H571	H57	0.970900	0.565000	0.563500
C961	C96	0.537700	0.904100	0.576800
C971	C97	0.884100	0.767800	0.713700
H581	H58	0.896500	0.765200	0.662000
C981	C98	0.985800	0.819800	0.524400
H591	H59	0.010200	0.788200	0.559300
C991	C99	0.920200	0.921900	0.503300
C1001	C100	0.406600	0.618500	0.557600
H601	H60	0.374300	0.640200	0.516200
C1011	C101	0.943800	0.752700	0.777000
C1021	C102	0.234400	0.391400	0.751200
C1031	C103	0.702800	0.812200	0.819000
C1041	C104	0.911900	0.913700	0.421100
H611	H61	0.887600	0.945500	0.386700
C1051	C105	0.499600	0.621700	0.678400
H621	H62	0.530300	0.644900	0.719500
C1061	C106	0.978300	0.809800	0.443100
C1071	C107	0.004200	0.634800	0.645000
H631	H63	0.004000	0.668700	0.609000
C1081	C108	0.684800	0.929400	0.631000
H641	H64	0.673500	0.913400	0.679400
C1091	C109	0.227800	0.389400	0.669900
H651	H65	0.177600	0.378100	0.639600
C1101	C110	0.986800	0.522700	0.671500
C1111	C111	0.637800	0.960000	0.495800
H661	H66	0.595300	0.963700	0.453100
C1121	C112	0.453700	0.725700	0.617900
C1131	C113	0.501400	0.555400	0.680500
H671	H67	0.534000	0.533700	0.721700
C1141	C114	0.961300	0.455000	0.643700
C1151	C115	0.375200	0.422400	0.756600
H681	H68	0.425700	0.433500	0.786400
C1161	C116	0.453300	0.521300	0.619700
C1171	C117	0.162400	0.372900	0.792300
C1181	C118	0.622200	0.933000	0.567400
C1191	C119	0.308000	0.410100	0.794000
H691	H69	0.312500	0.414400	0.849000
C1201	C120	0.940400	0.857300	0.392100
H701	H70	0.934300	0.850600	0.337400
C1211	C121	0.454000	0.654300	0.617800
C1221	C122	0.956900	0.876500	0.554200
H711	H71	0.962800	0.883300	0.608900
C1231	C123	0.009600	0.748800	0.411000
C1241	C124	0.779400	0.973800	0.553200
C1251	C125	0.023500	0.646000	0.724600
C1261	C126	0.294700	0.403800	0.632800
H721	H72	0.289600	0.403500	0.577500
Zn101	Zn10	0.979660	0.325840	0.749220
Zn111	Zn11	0.102810	0.349720	0.939510
Zn121	Zn12	0.887860	0.361970	0.555660
S101	S10	0.045930	0.935270	0.873300
S111	S11	0.458110	0.226030	0.740870
S121	S12	0.617630	0.494000	0.958120
O551	O55	0.396500	0.844800	0.747400
O561	O56	0.996200	0.253200	0.830000
O571	O57	0.977100	0.389000	0.857600
O581	O58	0.493100	0.242800	0.162000
O591	O59	0.854000	0.312200	0.738700
O601	O60	0.538700	0.912300	0.809200
O611	O61	0.096100	0.255400	0.933700
O621	O62	0.330600	0.886000	0.635300
O631	O63	0.010600	0.396000	0.986700
O641	O64	0.461500	0.207000	0.037100
O651	O65	0.802000	0.326800	0.609000
O661	O66	0.565900	0.947800	0.929900
O671	O67	0.404400	0.223400	0.665400
O681	O68	0.434700	0.262900	0.804900
O691	O69	0.619800	0.543100	0.017400
O701	O70	0.571900	0.504000	0.880300
O711	O71	0.063100	0.910500	0.952100
O721	O72	0.973100	0.915600	0.821200
C1271	C127	0.736600	0.449200	0.876000
H731	H73	0.694400	0.445800	0.833000
C1281	C128	0.651100	0.277000	0.632600
H741	H74	0.662700	0.280500	0.580700
C1291	C129	0.572900	0.257400	0.645900
H751	H75	0.532200	0.247600	0.603300
C1301	C130	0.783000	0.481100	0.011400
H761	H76	0.771900	0.499900	0.058500
C1311	C131	0.693700	0.286800	0.773800
H771	H77	0.733800	0.296500	0.816900
C1321	C132	0.473400	0.096400	0.721200
H781	H78	0.459500	0.104600	0.667000
C1331	C133	0.132200	0.918600	0.823200
C1341	C134	0.093500	0.051800	0.941700
H791	H79	0.124900	0.028500	0.982200
C1351	C135	0.491100	0.034800	0.747800
H801	H80	0.488200	0.000900	0.711600
C1361	C136	0.712200	0.291500	0.696400
C1371	C137	0.515000	0.072800	0.882200
H811	H81	0.529100	0.065000	0.936500
C1381	C138	0.962300	0.404100	0.923200
C1391	C139	0.615900	0.267800	0.786300
H821	H82	0.603500	0.265200	0.838000
C1401	C140	0.514200	0.319800	0.975600
H831	H83	0.489800	0.288200	0.940700
C1411	C141	0.579800	0.421900	0.996700
C1421	C142	0.093400	0.118500	0.942400
H841	H84	0.125700	0.140200	0.983800
C1431	C143	0.556200	0.252700	0.723000
C1441	C144	0.265600	0.891400	0.748800
C1451	C145	0.797200	0.312200	0.681000
C1461	C146	0.588100	0.413700	0.078900
H851	H85	0.612400	0.445500	0.113300
C1471	C147	0.000400	0.121700	0.821600
H861	H86	0.969700	0.144900	0.780500
C1481	C148	0.521700	0.309800	0.056900
C1491	C149	0.495800	0.134800	0.855000
H871	H87	0.496000	0.168700	0.891000
C1501	C150	0.815200	0.429400	0.869000
H881	H88	0.826500	0.413400	0.820600
C1511	C151	0.272200	0.889400	0.830100
H891	H89	0.322400	0.878100	0.860400
C1521	C152	0.513200	0.022700	0.828500
C1531	C153	0.862200	0.460000	0.004200
H901	H90	0.904700	0.463700	0.046900
C1541	C154	0.046300	0.225700	0.882100
C1551	C155	0.998600	0.055400	0.819500
H911	H91	0.966000	0.033700	0.778300
C1561	C156	0.538700	0.955000	0.856300
C1571	C157	0.124800	0.922400	0.743400
H921	H92	0.074300	0.933500	0.713600
C1581	C158	0.046700	0.021300	0.880300
C1591	C159	0.337600	0.872900	0.707700
C1601	C160	0.877800	0.433000	0.932600
C1611	C161	0.192000	0.910100	0.706000
H931	H93	0.187500	0.914400	0.651000
C1621	C162	0.559600	0.357300	0.107900
H941	H94	0.565700	0.350600	0.162600
C1631	C163	0.046000	0.154300	0.882200
C1641	C164	0.543100	0.376500	0.945800
H951	H95	0.537200	0.383300	0.891100
C1651	C165	0.490400	0.248800	0.089000
C1661	C166	0.720600	0.473800	0.946800
C1671	C167	0.476500	0.146000	0.775400
C1681	C168	0.205300	0.903800	0.867200
H961	H96	0.210400	0.903500	0.922500
