data_HUNFON_clean_PM
_symmetry_space_group_name_H-M	'P1'
_cell_length_a	13.189700
_cell_length_b	16.438000
_cell_length_c	15.472500
_cell_angle_alpha	90.000000
_cell_angle_beta	102.345000
_cell_angle_gamma	90.000000
_symmetry_Int_Tables_number 1

loop_
_symmetry_equiv_pos_as_xyz
'x,y,z'

loop_
_atom_site_label
_atom_site_type_symbol
_atom_site_fract_x
_atom_site_fract_y
_atom_site_fract_z
V11	V1	0.340370	0.833420	0.851900
V21	V2	0.781980	0.995800	0.122550
Zn11	Zn1	0.490270	0.804920	0.072050
V31	V3	0.725600	0.839740	0.246850
C11	C1	0.374900	0.076800	0.409400
H11	H1	0.365300	0.018700	0.415200
H21	H2	0.314400	0.104000	0.421900
C21	C2	0.097900	0.135400	0.472900
H31	H3	0.146800	0.164500	0.513400
C31	C3	0.288100	0.795400	0.132400
H41	H4	0.264600	0.786300	0.072100
C41	C4	0.428500	0.323600	0.532400
H51	H5	0.389200	0.352000	0.565700
C51	C5	0.113000	0.053200	0.464200
H61	H6	0.171100	0.028100	0.498500
C61	C6	0.947700	0.131500	0.367800
H71	H7	0.890600	0.158000	0.333800
C71	C7	0.170300	0.814600	0.332700
H81	H8	0.201500	0.795800	0.391800
H91	H9	0.110200	0.781000	0.309500
C81	C8	0.957500	0.049700	0.356100
H101	H10	0.907100	0.022000	0.315400
C91	C9	0.137700	0.904000	0.335400
H111	H11	0.198900	0.936700	0.357900
H121	H12	0.108400	0.922100	0.275600
C101	C10	0.110200	0.071900	0.180900
H131	H13	0.044000	0.091000	0.181700
C111	C11	0.422200	0.240000	0.530500
H141	H14	0.378300	0.213400	0.561000
C121	C12	0.216500	0.797400	0.184000
H151	H15	0.146500	0.791000	0.158400
C131	C13	0.546000	0.323400	0.442900
H161	H16	0.588000	0.351600	0.411900
C141	C14	0.419600	0.818200	0.249900
H171	H17	0.489900	0.826400	0.273500
C151	C15	0.301400	0.015900	0.180900
H181	H18	0.366500	0.995000	0.179000
C161	C16	0.382900	0.095600	0.315000
H191	H19	0.391500	0.153800	0.309400
H201	H20	0.444500	0.069400	0.303300
C171	C17	0.216600	0.993400	0.117800
H211	H21	0.226100	0.956500	0.074600
C181	C18	0.190500	0.096600	0.247000
H221	H22	0.178800	0.131300	0.291300
C191	C19	0.352400	0.819800	0.306000
H231	H23	0.377600	0.828200	0.366200
C201	C20	0.473200	0.104200	0.478700
H241	H24	0.534700	0.081800	0.462800
H251	H25	0.469400	0.083300	0.536500
C211	C21	0.545800	0.239000	0.439800
H261	H26	0.588700	0.211800	0.408900
C221	C22	0.059000	0.918300	0.392600
H271	H27	0.993700	0.892700	0.365200
H281	H28	0.083600	0.893400	0.450100
N11	N1	0.389400	0.805500	0.162800
N21	N2	0.121100	0.021300	0.114700
C231	C23	0.481600	0.195100	0.482900
N31	N3	0.488300	0.366300	0.488900
C241	C24	0.291000	0.068800	0.246700
C251	C25	0.247400	0.808900	0.273800
N41	N4	0.016000	0.175500	0.425600
C261	C26	0.041500	0.007600	0.404300
O11	O1	0.366100	0.808050	0.958000
O21	O2	0.623200	0.813800	0.170600
O31	O3	0.303700	0.748100	0.781600
O41	O4	0.887000	0.001190	0.079500
O51	O5	0.798700	0.916640	0.202800
O61	O6	0.237100	0.907880	0.830100
V41	V4	0.159630	0.333420	0.648100
V51	V5	0.718020	0.495800	0.377450
Zn21	Zn2	0.009730	0.304920	0.427950
V61	V6	0.774400	0.339740	0.253150
C271	C27	0.125100	0.576800	0.090600
H291	H29	0.134700	0.518700	0.084800
H301	H30	0.185600	0.604000	0.078100
C281	C28	0.402100	0.635400	0.027100
H311	H31	0.353200	0.664500	0.986600
C291	C29	0.211900	0.295400	0.367600
H321	H32	0.235400	0.286300	0.427900
C301	C30	0.071500	0.823600	0.967600
H331	H33	0.110800	0.852000	0.934300
C311	C31	0.387000	0.553200	0.035800
H341	H34	0.328900	0.528100	0.001500
C321	C32	0.552300	0.631500	0.132200
H351	H35	0.609400	0.658000	0.166200
C331	C33	0.329700	0.314600	0.167300
H361	H36	0.298500	0.295800	0.108200
H371	H37	0.389800	0.281000	0.190500
C341	C34	0.542500	0.549700	0.143900
H381	H38	0.592900	0.522000	0.184600
C351	C35	0.362300	0.404000	0.164600
H391	H39	0.301100	0.436700	0.142100
H401	H40	0.391600	0.422100	0.224400
C361	C36	0.389800	0.571900	0.319100
H411	H41	0.456000	0.591000	0.318300
C371	C37	0.077800	0.740000	0.969500
H421	H42	0.121700	0.713400	0.939000
C381	C38	0.283500	0.297400	0.316000
H431	H43	0.353500	0.291000	0.341600
C391	C39	0.954000	0.823400	0.057100
H441	H44	0.912000	0.851600	0.088100
C401	C40	0.080400	0.318200	0.250100
H451	H45	0.010100	0.326400	0.226500
C411	C41	0.198600	0.515900	0.319100
H461	H46	0.133500	0.495000	0.321000
C421	C42	0.117100	0.595600	0.185000
H471	H47	0.108500	0.653800	0.190600
H481	H48	0.055500	0.569400	0.196700
C431	C43	0.283400	0.493400	0.382200
H491	H49	0.273900	0.456500	0.425400
C441	C44	0.309500	0.596600	0.253000
H501	H50	0.321200	0.631300	0.208700
C451	C45	0.147600	0.319800	0.194000
H511	H51	0.122400	0.328200	0.133800
C461	C46	0.026800	0.604200	0.021300
H521	H52	0.965300	0.581800	0.037200
H531	H53	0.030600	0.583300	0.963500
C471	C47	0.954200	0.739000	0.060200
H541	H54	0.911300	0.711800	0.091100
C481	C48	0.441000	0.418300	0.107400
H551	H55	0.506300	0.392700	0.134800
H561	H56	0.416400	0.393400	0.049900
N51	N5	0.110600	0.305500	0.337200
N61	N6	0.378900	0.521300	0.385300
C491	C49	0.018400	0.695100	0.017100
N71	N7	0.011700	0.866300	0.011100
C501	C50	0.209000	0.568800	0.253300
C511	C51	0.252600	0.308900	0.226200
N81	N8	0.484000	0.675500	0.074400
C521	C52	0.458500	0.507600	0.095700
O71	O7	0.133900	0.308050	0.542000
O81	O8	0.876800	0.313800	0.329400
O91	O9	0.196300	0.248100	0.718400
O101	O10	0.613000	0.501190	0.420500
O111	O11	0.701300	0.416640	0.297200
O121	O12	0.262900	0.407880	0.669900
V71	V7	0.659630	0.166580	0.148100
V81	V8	0.218020	0.004200	0.877450
Zn31	Zn3	0.509730	0.195080	0.927950
V91	V9	0.274400	0.160260	0.753150
C531	C53	0.625100	0.923200	0.590600
H571	H57	0.634700	0.981300	0.584800
H581	H58	0.685600	0.896000	0.578100
C541	C54	0.902100	0.864600	0.527100
H591	H59	0.853200	0.835500	0.486600
C551	C55	0.711900	0.204600	0.867600
H601	H60	0.735400	0.213700	0.927900
C561	C56	0.571500	0.676400	0.467600
H611	H61	0.610800	0.648000	0.434300
C571	C57	0.887000	0.946800	0.535800
H621	H62	0.828900	0.971900	0.501500
C581	C58	0.052300	0.868500	0.632200
H631	H63	0.109400	0.842000	0.666200
C591	C59	0.829700	0.185400	0.667300
H641	H64	0.798500	0.204200	0.608200
H651	H65	0.889800	0.219000	0.690500
C601	C60	0.042500	0.950300	0.643900
H661	H66	0.092900	0.978000	0.684600
C611	C61	0.862300	0.096000	0.664600
H671	H67	0.801100	0.063300	0.642100
H681	H68	0.891600	0.077900	0.724400
C621	C62	0.889800	0.928100	0.819100
H691	H69	0.956000	0.909000	0.818300
C631	C63	0.577800	0.760000	0.469500
H701	H70	0.621700	0.786600	0.439000
C641	C64	0.783500	0.202600	0.816000
H711	H71	0.853500	0.209000	0.841600
C651	C65	0.454000	0.676600	0.557100
H721	H72	0.412000	0.648400	0.588100
C661	C66	0.580400	0.181800	0.750100
H731	H73	0.510100	0.173600	0.726500
C671	C67	0.698600	0.984100	0.819100
H741	H74	0.633500	0.005000	0.821000
C681	C68	0.617100	0.904400	0.685000
H751	H75	0.608500	0.846200	0.690600
H761	H76	0.555500	0.930600	0.696700
C691	C69	0.783400	0.006600	0.882200
H771	H77	0.773900	0.043500	0.925400
C701	C70	0.809500	0.903400	0.753000
H781	H78	0.821200	0.868700	0.708700
C711	C71	0.647600	0.180200	0.694000
H791	H79	0.622400	0.171800	0.633800
C721	C72	0.526800	0.895800	0.521300
H801	H80	0.465300	0.918200	0.537200
H811	H81	0.530600	0.916700	0.463500
C731	C73	0.454200	0.761000	0.560200
H821	H82	0.411300	0.788200	0.591100
C741	C74	0.941000	0.081700	0.607400
H831	H83	0.006300	0.107300	0.634800
H841	H84	0.916400	0.106600	0.549900
N91	N9	0.610600	0.194500	0.837200
N101	N10	0.878900	0.978700	0.885300
C751	C75	0.518400	0.804900	0.517100
N111	N11	0.511700	0.633700	0.511100
C761	C76	0.709000	0.931200	0.753300
C771	C77	0.752600	0.191100	0.726200
N121	N12	0.984000	0.824500	0.574400
C781	C78	0.958500	0.992400	0.595700
O131	O13	0.633900	0.191950	0.042000
O141	O14	0.376800	0.186200	0.829400
O151	O15	0.696300	0.251900	0.218400
O161	O16	0.113000	0.998810	0.920500
O171	O17	0.201300	0.083360	0.797200
O181	O18	0.762900	0.092120	0.169900
V101	V10	0.840370	0.666580	0.351900
V111	V11	0.281980	0.504200	0.622550
Zn41	Zn4	0.990270	0.695080	0.572050
V121	V12	0.225600	0.660260	0.746850
C791	C79	0.874900	0.423200	0.909400
H851	H85	0.865300	0.481300	0.915200
H861	H86	0.814400	0.396000	0.921900
C801	C80	0.597900	0.364600	0.972900
H871	H87	0.646800	0.335500	0.013400
C811	C81	0.788100	0.704600	0.632400
H881	H88	0.764600	0.713700	0.572100
C821	C82	0.928500	0.176400	0.032400
H891	H89	0.889200	0.148000	0.065700
C831	C83	0.613000	0.446800	0.964200
H901	H90	0.671100	0.471900	0.998500
C841	C84	0.447700	0.368500	0.867800
H911	H91	0.390600	0.342000	0.833800
C851	C85	0.670300	0.685400	0.832700
H921	H92	0.701500	0.704200	0.891800
H931	H93	0.610200	0.719000	0.809500
C861	C86	0.457500	0.450300	0.856100
H941	H94	0.407100	0.478000	0.815400
C871	C87	0.637700	0.596000	0.835400
H951	H95	0.698900	0.563300	0.857900
H961	H96	0.608400	0.577900	0.775600
C881	C88	0.610200	0.428100	0.680900
H971	H97	0.544000	0.409000	0.681700
C891	C89	0.922200	0.260000	0.030500
H981	H98	0.878300	0.286600	0.061000
C901	C90	0.716500	0.702600	0.684000
H991	H99	0.646500	0.709000	0.658400
C911	C91	0.046000	0.176600	0.942900
H1001	H100	0.088000	0.148400	0.911900
C921	C92	0.919600	0.681800	0.749900
H1011	H101	0.989900	0.673600	0.773500
C931	C93	0.801400	0.484100	0.680900
H1021	H102	0.866500	0.505000	0.679000
C941	C94	0.882900	0.404400	0.815000
H1031	H103	0.891500	0.346200	0.809400
H1041	H104	0.944500	0.430600	0.803300
C951	C95	0.716600	0.506600	0.617800
H1051	H105	0.726100	0.543500	0.574600
C961	C96	0.690500	0.403400	0.747000
H1061	H106	0.678800	0.368700	0.791300
C971	C97	0.852400	0.680200	0.806000
H1071	H107	0.877600	0.671800	0.866200
C981	C98	0.973200	0.395800	0.978700
H1081	H108	0.034700	0.418200	0.962800
H1091	H109	0.969400	0.416700	0.036500
C991	C99	0.045800	0.261000	0.939800
H1101	H110	0.088700	0.288200	0.908900
C1001	C100	0.559000	0.581700	0.892600
H1111	H111	0.493700	0.607300	0.865200
H1121	H112	0.583600	0.606600	0.950100
N131	N13	0.889400	0.694500	0.662800
N141	N14	0.621100	0.478700	0.614700
C1011	C101	0.981600	0.304900	0.982900
N151	N15	0.988300	0.133700	0.988900
C1021	C102	0.791000	0.431200	0.746700
C1031	C103	0.747400	0.691100	0.773800
N161	N16	0.516000	0.324500	0.925600
C1041	C104	0.541500	0.492400	0.904300
O191	O19	0.866100	0.691950	0.458000
O201	O20	0.123200	0.686200	0.670600
O211	O21	0.803700	0.751900	0.281600
O221	O22	0.387000	0.498810	0.579500
O231	O23	0.298700	0.583360	0.702800
O241	O24	0.737100	0.592120	0.330100
Zn51	Zn5	0.000000	0.000000	0.000000
Zn61	Zn6	0.500000	0.500000	0.500000
