data_HUPQIU_clean_PM
_symmetry_space_group_name_H-M	'P1'
_cell_length_a	29.923000
_cell_length_b	29.923000
_cell_length_c	37.639000
_cell_angle_alpha	90.000000
_cell_angle_beta	90.000000
_cell_angle_gamma	120.000000
_symmetry_Int_Tables_number 1

loop_
_symmetry_equiv_pos_as_xyz
'x,y,z'

loop_
_atom_site_label
_atom_site_type_symbol
_atom_site_fract_x
_atom_site_fract_y
_atom_site_fract_z
Zn11	Zn1	0.631200	0.263180	0.315190
O11	O1	0.740700	0.285400	0.316300
O21	O2	0.757500	0.321200	0.294700
O31	O3	0.684700	0.274300	0.274200
O41	O4	0.899600	0.345600	0.116500
O51	O5	0.937900	0.306200	0.077100
C11	C1	0.723300	0.278000	0.281300
C21	C2	0.746800	0.254300	0.257700
C31	C3	0.724800	0.234600	0.227000
H11	H1	0.694400	0.233800	0.220500
C41	C4	0.747200	0.214900	0.204200
H21	H2	0.732100	0.202300	0.182200
C51	C5	0.791100	0.213200	0.213100
C61	C6	0.814900	0.237400	0.244600
H31	H3	0.845600	0.238900	0.251200
C71	C7	0.794300	0.258700	0.265700
H41	H4	0.812000	0.276600	0.285900
C81	C8	0.812300	0.189000	0.189300
C91	C9	0.801700	0.138000	0.195900
C101	C10	0.844800	0.218000	0.160500
C111	C11	0.856300	0.268700	0.153800
H51	H5	0.843200	0.283600	0.169200
C121	C12	0.886400	0.298100	0.125200
C131	C13	0.875800	0.369900	0.136600
H61	H6	0.882700	0.401300	0.125000
H71	H7	0.889800	0.377500	0.160200
H81	H8	0.839200	0.346800	0.137800
C141	C14	0.908800	0.274000	0.102900
C151	C15	0.897900	0.226400	0.108900
H91	H9	0.912200	0.212100	0.094000
C161	C16	0.958900	0.285100	0.051500
H101	H10	0.975400	0.309400	0.032500
H111	H11	0.931400	0.253500	0.041900
H121	H12	0.983600	0.278400	0.063000
Zn21	Zn2	0.297870	0.596510	0.648520
O61	O6	0.407370	0.618730	0.649630
O71	O7	0.424170	0.654530	0.628030
O81	O8	0.351370	0.607630	0.607530
O91	O9	0.566270	0.678930	0.449830
O101	O10	0.604570	0.639530	0.410430
C171	C17	0.389970	0.611330	0.614630
C181	C18	0.413470	0.587630	0.591030
C191	C19	0.391470	0.567930	0.560330
H131	H13	0.361070	0.567130	0.553830
C201	C20	0.413870	0.548230	0.537530
H141	H14	0.398770	0.535630	0.515530
C211	C21	0.457770	0.546530	0.546430
C221	C22	0.481570	0.570730	0.577930
H151	H15	0.512270	0.572230	0.584530
C231	C23	0.460970	0.592030	0.599030
H161	H16	0.478670	0.609930	0.619230
C241	C24	0.478970	0.522330	0.522630
C251	C25	0.468370	0.471330	0.529230
C261	C26	0.511470	0.551330	0.493830
C271	C27	0.522970	0.602030	0.487130
H171	H17	0.509870	0.616930	0.502530
C281	C28	0.553070	0.631430	0.458530
C291	C29	0.542470	0.703230	0.469930
H181	H18	0.549370	0.734630	0.458330
H191	H19	0.556470	0.710830	0.493530
H201	H20	0.505870	0.680130	0.471130
C301	C30	0.575470	0.607330	0.436230
C311	C31	0.564570	0.559730	0.442230
H211	H21	0.578870	0.545430	0.427330
C321	C32	0.625570	0.618430	0.384830
H221	H22	0.642070	0.642730	0.365830
H231	H23	0.598070	0.586830	0.375230
H241	H24	0.650270	0.611730	0.396330
Zn31	Zn3	0.964530	0.929850	0.981860
O111	O11	0.074030	0.952070	0.982970
O121	O12	0.090830	0.987870	0.961370
O131	O13	0.018030	0.940970	0.940870
O141	O14	0.232930	0.012270	0.783170
O151	O15	0.271230	0.972870	0.743770
C331	C33	0.056630	0.944670	0.947970
C341	C34	0.080130	0.920970	0.924370
C351	C35	0.058130	0.901270	0.893670
H251	H25	0.027730	0.900470	0.887170
C361	C36	0.080530	0.881570	0.870870
H261	H26	0.065430	0.868970	0.848870
C371	C37	0.124430	0.879870	0.879770
C381	C38	0.148230	0.904070	0.911270
H271	H27	0.178930	0.905570	0.917870
C391	C39	0.127630	0.925370	0.932370
H281	H28	0.145330	0.943270	0.952570
C401	C40	0.145630	0.855670	0.855970
C411	C41	0.135030	0.804670	0.862570
C421	C42	0.178130	0.884670	0.827170
C431	C43	0.189630	0.935370	0.820470
H291	H29	0.176530	0.950270	0.835870
C441	C44	0.219730	0.964770	0.791870
C451	C45	0.209130	0.036570	0.803270
H301	H30	0.216030	0.067970	0.791670
H311	H31	0.223130	0.044170	0.826870
H321	H32	0.172530	0.013470	0.804470
C461	C46	0.242130	0.940670	0.769570
C471	C47	0.231230	0.893070	0.775570
H331	H33	0.245530	0.878770	0.760670
C481	C48	0.292230	0.951770	0.718170
H341	H34	0.308730	0.976070	0.699170
H351	H35	0.264730	0.920170	0.708570
H361	H36	0.316930	0.945070	0.729670
Zn41	Zn4	0.736820	0.368020	0.315190
O161	O16	0.714600	0.455300	0.316300
O171	O17	0.678800	0.436300	0.294700
O181	O18	0.725700	0.410400	0.274200
O191	O19	0.654400	0.554000	0.116500
O201	O20	0.693800	0.631700	0.077100
C491	C49	0.722000	0.445300	0.281300
C501	C50	0.745700	0.492500	0.257700
C511	C51	0.765400	0.490200	0.227000
H371	H37	0.766200	0.460600	0.220500
C521	C52	0.785100	0.532300	0.204200
H381	H38	0.797700	0.529800	0.182200
C531	C53	0.786800	0.577900	0.213100
C541	C54	0.762600	0.577500	0.244600
H391	H39	0.761100	0.606700	0.251200
C551	C55	0.741300	0.535600	0.265700
H401	H40	0.723400	0.535400	0.285900
C561	C56	0.811000	0.623300	0.189300
C571	C57	0.862000	0.663700	0.195900
C581	C58	0.782000	0.626800	0.160500
C591	C59	0.731300	0.587600	0.153800
H411	H41	0.716400	0.559600	0.169200
C601	C60	0.701900	0.588300	0.125200
C611	C61	0.630100	0.505900	0.136600
H421	H42	0.598700	0.481400	0.125000
H431	H43	0.622500	0.512300	0.160200
H441	H44	0.653200	0.492400	0.137800
C621	C62	0.726000	0.634800	0.102900
C631	C63	0.773600	0.671500	0.108900
H451	H45	0.787900	0.700100	0.094000
C641	C64	0.714900	0.673800	0.051500
H461	H46	0.690600	0.666000	0.032500
H471	H47	0.746500	0.677900	0.041900
H481	H48	0.721600	0.705200	0.063000
Zn51	Zn5	0.403490	0.701350	0.648520
O211	O21	0.381270	0.788630	0.649630
O221	O22	0.345470	0.769630	0.628030
O231	O23	0.392370	0.743730	0.607530
O241	O24	0.321070	0.887330	0.449830
O251	O25	0.360470	0.965030	0.410430
C651	C65	0.388670	0.778630	0.614630
C661	C66	0.412370	0.825830	0.591030
C671	C67	0.432070	0.823530	0.560330
H491	H49	0.432870	0.793930	0.553830
C681	C68	0.451770	0.865630	0.537530
H501	H50	0.464370	0.863130	0.515530
C691	C69	0.453470	0.911230	0.546430
C701	C70	0.429270	0.910830	0.577930
H511	H51	0.427770	0.940030	0.584530
C711	C71	0.407970	0.868930	0.599030
H521	H52	0.390070	0.868730	0.619230
C721	C72	0.477670	0.956630	0.522630
C731	C73	0.528670	0.997030	0.529230
C741	C74	0.448670	0.960130	0.493830
C751	C75	0.397970	0.920930	0.487130
H531	H53	0.383070	0.892930	0.502530
C761	C76	0.368570	0.921630	0.458530
C771	C77	0.296770	0.839230	0.469930
H541	H54	0.265370	0.814730	0.458330
H551	H55	0.289170	0.845630	0.493530
H561	H56	0.319870	0.825730	0.471130
C781	C78	0.392670	0.968130	0.436230
C791	C79	0.440270	0.004830	0.442230
H571	H57	0.454570	0.033430	0.427330
C801	C80	0.381570	0.007130	0.384830
H581	H58	0.357270	0.999330	0.365830
H591	H59	0.413170	0.011230	0.375230
H601	H60	0.388270	0.038530	0.396330
Zn61	Zn6	0.070150	0.034690	0.981860
O261	O26	0.047930	0.121970	0.982970
O271	O27	0.012130	0.102970	0.961370
O281	O28	0.059030	0.077070	0.940870
O291	O29	0.987730	0.220670	0.783170
O301	O30	0.027130	0.298370	0.743770
C811	C81	0.055330	0.111970	0.947970
C821	C82	0.079030	0.159170	0.924370
C831	C83	0.098730	0.156870	0.893670
H611	H61	0.099530	0.127270	0.887170
C841	C84	0.118430	0.198970	0.870870
H621	H62	0.131030	0.196470	0.848870
C851	C85	0.120130	0.244570	0.879770
C861	C86	0.095930	0.244170	0.911270
H631	H63	0.094430	0.273370	0.917870
C871	C87	0.074630	0.202270	0.932370
H641	H64	0.056730	0.202070	0.952570
C881	C88	0.144330	0.289970	0.855970
C891	C89	0.195330	0.330370	0.862570
C901	C90	0.115330	0.293470	0.827170
C911	C91	0.064630	0.254270	0.820470
H651	H65	0.049730	0.226270	0.835870
C921	C92	0.035230	0.254970	0.791870
C931	C93	0.963430	0.172570	0.803270
H661	H66	0.932030	0.148070	0.791670
H671	H67	0.955830	0.178970	0.826870
H681	H68	0.986530	0.159070	0.804470
C941	C94	0.059330	0.301470	0.769570
C951	C95	0.106930	0.338170	0.775570
H691	H69	0.121230	0.366770	0.760670
C961	C96	0.048230	0.340470	0.718170
H701	H70	0.023930	0.332670	0.699170
H711	H71	0.079830	0.344570	0.708570
H721	H72	0.054930	0.371870	0.729670
Zn71	Zn7	0.631980	0.368800	0.315190
O311	O31	0.544700	0.259300	0.316300
O321	O32	0.563700	0.242500	0.294700
O331	O33	0.589600	0.315300	0.274200
O341	O34	0.446000	0.100400	0.116500
O351	O35	0.368300	0.062100	0.077100
C971	C97	0.554700	0.276700	0.281300
C981	C98	0.507500	0.253200	0.257700
C991	C99	0.509800	0.275200	0.227000
H731	H73	0.539400	0.305600	0.220500
C1001	C100	0.467700	0.252800	0.204200
H741	H74	0.470200	0.267900	0.182200
C1011	C101	0.422100	0.208900	0.213100
C1021	C102	0.422500	0.185100	0.244600
H751	H75	0.393300	0.154400	0.251200
C1031	C103	0.464400	0.205700	0.265700
H761	H76	0.464600	0.188000	0.285900
C1041	C104	0.376700	0.187700	0.189300
C1051	C105	0.336300	0.198300	0.195900
C1061	C106	0.373200	0.155200	0.160500
C1071	C107	0.412400	0.143700	0.153800
H771	H77	0.440400	0.156800	0.169200
C1081	C108	0.411700	0.113600	0.125200
C1091	C109	0.494100	0.124200	0.136600
H781	H78	0.518600	0.117300	0.125000
H791	H79	0.487700	0.110200	0.160200
H801	H80	0.507600	0.160800	0.137800
C1101	C110	0.365200	0.091200	0.102900
C1111	C111	0.328500	0.102100	0.108900
H811	H81	0.299900	0.087800	0.094000
C1121	C112	0.326200	0.041100	0.051500
H821	H82	0.334000	0.024600	0.032500
H831	H83	0.322100	0.068600	0.041900
H841	H84	0.294800	0.016400	0.063000
Zn81	Zn8	0.298650	0.702130	0.648520
O361	O36	0.211370	0.592630	0.649630
O371	O37	0.230370	0.575830	0.628030
O381	O38	0.256270	0.648630	0.607530
O391	O39	0.112670	0.433730	0.449830
O401	O40	0.034970	0.395430	0.410430
C1131	C113	0.221370	0.610030	0.614630
C1141	C114	0.174170	0.586530	0.591030
C1151	C115	0.176470	0.608530	0.560330
H851	H85	0.206070	0.638930	0.553830
C1161	C116	0.134370	0.586130	0.537530
H861	H86	0.136870	0.601230	0.515530
C1171	C117	0.088770	0.542230	0.546430
C1181	C118	0.089170	0.518430	0.577930
H871	H87	0.059970	0.487730	0.584530
C1191	C119	0.131070	0.539030	0.599030
H881	H88	0.131270	0.521330	0.619230
C1201	C120	0.043370	0.521030	0.522630
C1211	C121	0.002970	0.531630	0.529230
C1221	C122	0.039870	0.488530	0.493830
C1231	C123	0.079070	0.477030	0.487130
H891	H89	0.107070	0.490130	0.502530
C1241	C124	0.078370	0.446930	0.458530
C1251	C125	0.160770	0.457530	0.469930
H901	H90	0.185270	0.450630	0.458330
H911	H91	0.154370	0.443530	0.493530
H921	H92	0.174270	0.494130	0.471130
C1261	C126	0.031870	0.424530	0.436230
C1271	C127	0.995170	0.435430	0.442230
H931	H93	0.966570	0.421130	0.427330
C1281	C128	0.992870	0.374430	0.384830
H941	H94	0.000670	0.357930	0.365830
H951	H95	0.988770	0.401930	0.375230
H961	H96	0.961470	0.349730	0.396330
Zn91	Zn9	0.965310	0.035470	0.981860
O411	O41	0.878030	0.925970	0.982970
O421	O42	0.897030	0.909170	0.961370
O431	O43	0.922930	0.981970	0.940870
O441	O44	0.779330	0.767070	0.783170
O451	O45	0.701630	0.728770	0.743770
C1291	C129	0.888030	0.943370	0.947970
C1301	C130	0.840830	0.919870	0.924370
C1311	C131	0.843130	0.941870	0.893670
H971	H97	0.872730	0.972270	0.887170
C1321	C132	0.801030	0.919470	0.870870
H981	H98	0.803530	0.934570	0.848870
C1331	C133	0.755430	0.875570	0.879770
C1341	C134	0.755830	0.851770	0.911270
H991	H99	0.726630	0.821070	0.917870
C1351	C135	0.797730	0.872370	0.932370
H1001	H100	0.797930	0.854670	0.952570
C1361	C136	0.710030	0.854370	0.855970
C1371	C137	0.669630	0.864970	0.862570
C1381	C138	0.706530	0.821870	0.827170
C1391	C139	0.745730	0.810370	0.820470
H1011	H101	0.773730	0.823470	0.835870
C1401	C140	0.745030	0.780270	0.791870
C1411	C141	0.827430	0.790870	0.803270
H1021	H102	0.851930	0.783970	0.791670
H1031	H103	0.821030	0.776870	0.826870
H1041	H104	0.840930	0.827470	0.804470
C1421	C142	0.698530	0.757870	0.769570
C1431	C143	0.661830	0.768770	0.775570
H1051	H105	0.633230	0.754470	0.760670
C1441	C144	0.659530	0.707770	0.718170
H1061	H106	0.667330	0.691270	0.699170
H1071	H107	0.655430	0.735270	0.708570
H1081	H108	0.628130	0.683070	0.729670
Zn101	Zn10	0.368800	0.736820	0.684810
O461	O46	0.259300	0.714600	0.683700
O471	O47	0.242500	0.678800	0.705300
O481	O48	0.315300	0.725700	0.725800
O491	O49	0.100400	0.654400	0.883500
O501	O50	0.062100	0.693800	0.922900
C1451	C145	0.276700	0.722000	0.718700
C1461	C146	0.253200	0.745700	0.742300
C1471	C147	0.275200	0.765400	0.773000
H1091	H109	0.305600	0.766200	0.779500
C1481	C148	0.252800	0.785100	0.795800
H1101	H110	0.267900	0.797700	0.817800
C1491	C149	0.208900	0.786800	0.786900
C1501	C150	0.185100	0.762600	0.755400
H1111	H111	0.154400	0.761100	0.748800
C1511	C151	0.205700	0.741300	0.734300
H1121	H112	0.188000	0.723400	0.714100
C1521	C152	0.187700	0.811000	0.810700
C1531	C153	0.198300	0.862000	0.804100
C1541	C154	0.155200	0.782000	0.839500
C1551	C155	0.143700	0.731300	0.846200
H1131	H113	0.156800	0.716400	0.830800
C1561	C156	0.113600	0.701900	0.874800
C1571	C157	0.124200	0.630100	0.863400
H1141	H114	0.117300	0.598700	0.875000
H1151	H115	0.110200	0.622500	0.839800
H1161	H116	0.160800	0.653200	0.862200
C1581	C158	0.091200	0.726000	0.897100
C1591	C159	0.102100	0.773600	0.891100
H1171	H117	0.087800	0.787900	0.906000
C1601	C160	0.041100	0.714900	0.948500
H1181	H118	0.024600	0.690600	0.967500
H1191	H119	0.068600	0.746500	0.958100
H1201	H120	0.016400	0.721600	0.937000
Zn111	Zn11	0.035470	0.070150	0.018140
O511	O51	0.925970	0.047930	0.017030
O521	O52	0.909170	0.012130	0.038630
O531	O53	0.981970	0.059030	0.059130
O541	O54	0.767070	0.987730	0.216830
O551	O55	0.728770	0.027130	0.256230
C1611	C161	0.943370	0.055330	0.052030
C1621	C162	0.919870	0.079030	0.075630
C1631	C163	0.941870	0.098730	0.106330
H1211	H121	0.972270	0.099530	0.112830
C1641	C164	0.919470	0.118430	0.129130
H1221	H122	0.934570	0.131030	0.151130
C1651	C165	0.875570	0.120130	0.120230
C1661	C166	0.851770	0.095930	0.088730
H1231	H123	0.821070	0.094430	0.082130
C1671	C167	0.872370	0.074630	0.067630
H1241	H124	0.854670	0.056730	0.047430
C1681	C168	0.854370	0.144330	0.144030
C1691	C169	0.864970	0.195330	0.137430
C1701	C170	0.821870	0.115330	0.172830
C1711	C171	0.810370	0.064630	0.179530
H1251	H125	0.823470	0.049730	0.164130
C1721	C172	0.780270	0.035230	0.208130
C1731	C173	0.790870	0.963430	0.196730
H1261	H126	0.783970	0.932030	0.208330
H1271	H127	0.776870	0.955830	0.173130
H1281	H128	0.827470	0.986530	0.195530
C1741	C174	0.757870	0.059330	0.230430
C1751	C175	0.768770	0.106930	0.224430
H1291	H129	0.754470	0.121230	0.239330
C1761	C176	0.707770	0.048230	0.281830
H1301	H130	0.691270	0.023930	0.300830
H1311	H131	0.735270	0.079830	0.291430
H1321	H132	0.683070	0.054930	0.270330
Zn121	Zn12	0.702130	0.403490	0.351480
O561	O56	0.592630	0.381270	0.350370
O571	O57	0.575830	0.345470	0.371970
O581	O58	0.648630	0.392370	0.392470
O591	O59	0.433730	0.321070	0.550170
O601	O60	0.395430	0.360470	0.589570
C1771	C177	0.610030	0.388670	0.385370
C1781	C178	0.586530	0.412370	0.408970
C1791	C179	0.608530	0.432070	0.439670
H1331	H133	0.638930	0.432870	0.446170
C1801	C180	0.586130	0.451770	0.462470
H1341	H134	0.601230	0.464370	0.484470
C1811	C181	0.542230	0.453470	0.453570
C1821	C182	0.518430	0.429270	0.422070
H1351	H135	0.487730	0.427770	0.415470
C1831	C183	0.539030	0.407970	0.400970
H1361	H136	0.521330	0.390070	0.380770
C1841	C184	0.521030	0.477670	0.477370
C1851	C185	0.531630	0.528670	0.470770
C1861	C186	0.488530	0.448670	0.506170
C1871	C187	0.477030	0.397970	0.512870
H1371	H137	0.490130	0.383070	0.497470
C1881	C188	0.446930	0.368570	0.541470
C1891	C189	0.457530	0.296770	0.530070
H1381	H138	0.450630	0.265370	0.541670
H1391	H139	0.443530	0.289170	0.506470
H1401	H140	0.494130	0.319870	0.528870
C1901	C190	0.424530	0.392670	0.563770
C1911	C191	0.435430	0.440270	0.557770
H1411	H141	0.421130	0.454570	0.572670
C1921	C192	0.374430	0.381570	0.615170
H1421	H142	0.357930	0.357270	0.634170
H1431	H143	0.401930	0.413170	0.624770
H1441	H144	0.349730	0.388270	0.603670
Zn131	Zn13	0.263180	0.631980	0.684810
O611	O61	0.285400	0.544700	0.683700
O621	O62	0.321200	0.563700	0.705300
O631	O63	0.274300	0.589600	0.725800
O641	O64	0.345600	0.446000	0.883500
O651	O65	0.306200	0.368300	0.922900
C1931	C193	0.278000	0.554700	0.718700
C1941	C194	0.254300	0.507500	0.742300
C1951	C195	0.234600	0.509800	0.773000
H1451	H145	0.233800	0.539400	0.779500
C1961	C196	0.214900	0.467700	0.795800
H1461	H146	0.202300	0.470200	0.817800
C1971	C197	0.213200	0.422100	0.786900
C1981	C198	0.237400	0.422500	0.755400
H1471	H147	0.238900	0.393300	0.748800
C1991	C199	0.258700	0.464400	0.734300
H1481	H148	0.276600	0.464600	0.714100
C2001	C200	0.189000	0.376700	0.810700
C2011	C201	0.138000	0.336300	0.804100
C2021	C202	0.218000	0.373200	0.839500
C2031	C203	0.268700	0.412400	0.846200
H1491	H149	0.283600	0.440400	0.830800
C2041	C204	0.298100	0.411700	0.874800
C2051	C205	0.369900	0.494100	0.863400
H1501	H150	0.401300	0.518600	0.875000
H1511	H151	0.377500	0.487700	0.839800
H1521	H152	0.346800	0.507600	0.862200
C2061	C206	0.274000	0.365200	0.897100
C2071	C207	0.226400	0.328500	0.891100
H1531	H153	0.212100	0.299900	0.906000
C2081	C208	0.285100	0.326200	0.948500
H1541	H154	0.309400	0.334000	0.967500
H1551	H155	0.253500	0.322100	0.958100
H1561	H156	0.278400	0.294800	0.937000
Zn141	Zn14	0.929850	0.965310	0.018140
O661	O66	0.952070	0.878030	0.017030
O671	O67	0.987870	0.897030	0.038630
O681	O68	0.940970	0.922930	0.059130
O691	O69	0.012270	0.779330	0.216830
O701	O70	0.972870	0.701630	0.256230
C2091	C209	0.944670	0.888030	0.052030
C2101	C210	0.920970	0.840830	0.075630
C2111	C211	0.901270	0.843130	0.106330
H1571	H157	0.900470	0.872730	0.112830
C2121	C212	0.881570	0.801030	0.129130
H1581	H158	0.868970	0.803530	0.151130
C2131	C213	0.879870	0.755430	0.120230
C2141	C214	0.904070	0.755830	0.088730
H1591	H159	0.905570	0.726630	0.082130
C2151	C215	0.925370	0.797730	0.067630
H1601	H160	0.943270	0.797930	0.047430
C2161	C216	0.855670	0.710030	0.144030
C2171	C217	0.804670	0.669630	0.137430
C2181	C218	0.884670	0.706530	0.172830
C2191	C219	0.935370	0.745730	0.179530
H1611	H161	0.950270	0.773730	0.164130
C2201	C220	0.964770	0.745030	0.208130
C2211	C221	0.036570	0.827430	0.196730
H1621	H162	0.067970	0.851930	0.208330
H1631	H163	0.044170	0.821030	0.173130
H1641	H164	0.013470	0.840930	0.195530
C2221	C222	0.940670	0.698530	0.230430
C2231	C223	0.893070	0.661830	0.224430
H1651	H165	0.878770	0.633230	0.239330
C2241	C224	0.951770	0.659530	0.281830
H1661	H166	0.976070	0.667330	0.300830
H1671	H167	0.920170	0.655430	0.291430
H1681	H168	0.945070	0.628130	0.270330
Zn151	Zn15	0.596510	0.298650	0.351480
O711	O71	0.618730	0.211370	0.350370
O721	O72	0.654530	0.230370	0.371970
O731	O73	0.607630	0.256270	0.392470
O741	O74	0.678930	0.112670	0.550170
O751	O75	0.639530	0.034970	0.589570
C2251	C225	0.611330	0.221370	0.385370
C2261	C226	0.587630	0.174170	0.408970
C2271	C227	0.567930	0.176470	0.439670
H1691	H169	0.567130	0.206070	0.446170
C2281	C228	0.548230	0.134370	0.462470
H1701	H170	0.535630	0.136870	0.484470
C2291	C229	0.546530	0.088770	0.453570
C2301	C230	0.570730	0.089170	0.422070
H1711	H171	0.572230	0.059970	0.415470
C2311	C231	0.592030	0.131070	0.400970
H1721	H172	0.609930	0.131270	0.380770
C2321	C232	0.522330	0.043370	0.477370
C2331	C233	0.471330	0.002970	0.470770
C2341	C234	0.551330	0.039870	0.506170
C2351	C235	0.602030	0.079070	0.512870
H1731	H173	0.616930	0.107070	0.497470
C2361	C236	0.631430	0.078370	0.541470
C2371	C237	0.703230	0.160770	0.530070
H1741	H174	0.734630	0.185270	0.541670
H1751	H175	0.710830	0.154370	0.506470
H1761	H176	0.680130	0.174270	0.528870
C2381	C238	0.607330	0.031870	0.563770
C2391	C239	0.559730	0.995170	0.557770
H1771	H177	0.545430	0.966570	0.572670
C2401	C240	0.618430	0.992870	0.615170
H1781	H178	0.642730	0.000670	0.634170
H1791	H179	0.586830	0.988770	0.624770
H1801	H180	0.611730	0.961470	0.603670
Zn161	Zn16	0.368020	0.631200	0.684810
O761	O76	0.455300	0.740700	0.683700
O771	O77	0.436300	0.757500	0.705300
O781	O78	0.410400	0.684700	0.725800
O791	O79	0.554000	0.899600	0.883500
O801	O80	0.631700	0.937900	0.922900
C2411	C241	0.445300	0.723300	0.718700
C2421	C242	0.492500	0.746800	0.742300
C2431	C243	0.490200	0.724800	0.773000
H1811	H181	0.460600	0.694400	0.779500
C2441	C244	0.532300	0.747200	0.795800
H1821	H182	0.529800	0.732100	0.817800
C2451	C245	0.577900	0.791100	0.786900
C2461	C246	0.577500	0.814900	0.755400
H1831	H183	0.606700	0.845600	0.748800
C2471	C247	0.535600	0.794300	0.734300
H1841	H184	0.535400	0.812000	0.714100
C2481	C248	0.623300	0.812300	0.810700
C2491	C249	0.663700	0.801700	0.804100
C2501	C250	0.626800	0.844800	0.839500
C2511	C251	0.587600	0.856300	0.846200
H1851	H185	0.559600	0.843200	0.830800
C2521	C252	0.588300	0.886400	0.874800
C2531	C253	0.505900	0.875800	0.863400
H1861	H186	0.481400	0.882700	0.875000
H1871	H187	0.512300	0.889800	0.839800
H1881	H188	0.492400	0.839200	0.862200
C2541	C254	0.634800	0.908800	0.897100
C2551	C255	0.671500	0.897900	0.891100
H1891	H189	0.700100	0.912200	0.906000
C2561	C256	0.673800	0.958900	0.948500
H1901	H190	0.666000	0.975400	0.967500
H1911	H191	0.677900	0.931400	0.958100
H1921	H192	0.705200	0.983600	0.937000
Zn171	Zn17	0.034690	0.964530	0.018140
O811	O81	0.121970	0.074030	0.017030
O821	O82	0.102970	0.090830	0.038630
O831	O83	0.077070	0.018030	0.059130
O841	O84	0.220670	0.232930	0.216830
O851	O85	0.298370	0.271230	0.256230
C2571	C257	0.111970	0.056630	0.052030
C2581	C258	0.159170	0.080130	0.075630
C2591	C259	0.156870	0.058130	0.106330
H1931	H193	0.127270	0.027730	0.112830
C2601	C260	0.198970	0.080530	0.129130
H1941	H194	0.196470	0.065430	0.151130
C2611	C261	0.244570	0.124430	0.120230
C2621	C262	0.244170	0.148230	0.088730
H1951	H195	0.273370	0.178930	0.082130
C2631	C263	0.202270	0.127630	0.067630
H1961	H196	0.202070	0.145330	0.047430
C2641	C264	0.289970	0.145630	0.144030
C2651	C265	0.330370	0.135030	0.137430
C2661	C266	0.293470	0.178130	0.172830
C2671	C267	0.254270	0.189630	0.179530
H1971	H197	0.226270	0.176530	0.164130
C2681	C268	0.254970	0.219730	0.208130
C2691	C269	0.172570	0.209130	0.196730
H1981	H198	0.148070	0.216030	0.208330
H1991	H199	0.178970	0.223130	0.173130
H2001	H200	0.159070	0.172530	0.195530
C2701	C270	0.301470	0.242130	0.230430
C2711	C271	0.338170	0.231230	0.224430
H2011	H201	0.366770	0.245530	0.239330
C2721	C272	0.340470	0.292230	0.281830
H2021	H202	0.332670	0.308730	0.300830
H2031	H203	0.344570	0.264730	0.291430
H2041	H204	0.371870	0.316930	0.270330
Zn181	Zn18	0.701350	0.297870	0.351480
O861	O86	0.788630	0.407370	0.350370
O871	O87	0.769630	0.424170	0.371970
O881	O88	0.743730	0.351370	0.392470
O891	O89	0.887330	0.566270	0.550170
O901	O90	0.965030	0.604570	0.589570
C2731	C273	0.778630	0.389970	0.385370
C2741	C274	0.825830	0.413470	0.408970
C2751	C275	0.823530	0.391470	0.439670
H2051	H205	0.793930	0.361070	0.446170
C2761	C276	0.865630	0.413870	0.462470
H2061	H206	0.863130	0.398770	0.484470
C2771	C277	0.911230	0.457770	0.453570
C2781	C278	0.910830	0.481570	0.422070
H2071	H207	0.940030	0.512270	0.415470
C2791	C279	0.868930	0.460970	0.400970
H2081	H208	0.868730	0.478670	0.380770
C2801	C280	0.956630	0.478970	0.477370
C2811	C281	0.997030	0.468370	0.470770
C2821	C282	0.960130	0.511470	0.506170
C2831	C283	0.920930	0.522970	0.512870
H2091	H209	0.892930	0.509870	0.497470
C2841	C284	0.921630	0.553070	0.541470
C2851	C285	0.839230	0.542470	0.530070
H2101	H210	0.814730	0.549370	0.541670
H2111	H211	0.845630	0.556470	0.506470
H2121	H212	0.825730	0.505870	0.528870
C2861	C286	0.968130	0.575470	0.563770
C2871	C287	0.004830	0.564570	0.557770
H2131	H213	0.033430	0.578870	0.572670
C2881	C288	0.007130	0.625570	0.615170
H2141	H214	0.999330	0.642070	0.634170
H2151	H215	0.011230	0.598070	0.624770
H2161	H216	0.038530	0.650270	0.603670
Zn191	Zn19	0.666670	0.333330	0.384120
Zn201	Zn20	0.333330	0.666670	0.717450
Zn211	Zn21	0.000000	0.000000	0.050790
Zn221	Zn22	0.333330	0.666670	0.615880
Zn231	Zn23	0.000000	0.000000	0.949210
Zn241	Zn24	0.666670	0.333330	0.282550
O911	O91	0.666670	0.333330	0.333330
O921	O92	0.333330	0.666670	0.666670
O931	O93	0.000000	0.000000	0.000000
Zn251	Zn25	0.700730	0.297880	0.137820
O941	O94	0.749800	0.339300	0.174340
O951	O95	0.209400	0.594800	0.437500
O961	O96	0.767300	0.418100	0.159510
O971	O97	0.263100	0.634500	0.390600
O981	O98	0.027600	0.385500	0.202600
O991	O99	0.102400	0.415700	0.246500
O1001	O100	0.889900	0.567800	0.338400
O1011	O101	0.972900	0.612100	0.374000
C2891	C289	0.777600	0.389200	0.174800
C2901	C290	0.823900	0.410600	0.199400
C2911	C291	0.831300	0.380100	0.223600
H2171	H217	0.808100	0.344800	0.224300
C2921	C292	0.872000	0.401000	0.246400
H2181	H218	0.874600	0.380400	0.263800
C2931	C293	0.909400	0.452200	0.244100
C2941	C294	0.902900	0.482000	0.218900
H2191	H219	0.927900	0.516700	0.216800
C2951	C295	0.862600	0.463100	0.197600
H2201	H220	0.859600	0.484700	0.181200
C2961	C296	0.953100	0.473700	0.267800
C2971	C297	0.994300	0.461000	0.262300
C2981	C298	0.990000	0.428200	0.234000
H2211	H221	0.961400	0.414600	0.219100
C2991	C299	0.029600	0.415800	0.228400
C3001	C300	0.985700	0.366400	0.176700
H2221	H222	0.991800	0.347800	0.158400
H2231	H223	0.984200	0.394900	0.166500
H2241	H224	0.953600	0.343800	0.188400
C3011	C301	0.069800	0.431500	0.252300
C3021	C302	0.146700	0.433600	0.270500
H2251	H225	0.165300	0.416100	0.265100
H2261	H226	0.134700	0.426400	0.294600
H2271	H227	0.169000	0.470100	0.267600
C3031	C303	0.074300	0.466300	0.281200
H2281	H228	0.101100	0.477600	0.297500
C3041	C304	0.038700	0.482000	0.284000
C3051	C305	0.041900	0.516400	0.312300
C3061	C306	0.003000	0.528900	0.316600
C3071	C307	0.009500	0.567100	0.344600
H2291	H229	0.039200	0.583100	0.358400
C3081	C308	0.970700	0.577500	0.349100
C3091	C309	0.017400	0.638700	0.395200
H2301	H230	0.046900	0.658200	0.380300
H2311	H231	0.022200	0.614500	0.409000
H2321	H232	0.013300	0.661800	0.410900
C3101	C310	0.925400	0.554500	0.328700
C3111	C311	0.842900	0.545400	0.320300
H2331	H233	0.848200	0.539400	0.296000
H2341	H234	0.829100	0.568300	0.321000
H2351	H235	0.819100	0.513300	0.331400
C3121	C312	0.919300	0.520000	0.302900
H2361	H236	0.888900	0.503900	0.289900
C3131	C313	0.959500	0.508200	0.295600
C3141	C314	0.087300	0.537700	0.335900
C3151	C315	0.083500	0.524700	0.370600
H2371	H237	0.051100	0.501400	0.379600
C3161	C316	0.124200	0.543600	0.393100
H2381	H238	0.119800	0.531800	0.416400
C3171	C317	0.172500	0.580900	0.381100
C3181	C318	0.218500	0.606100	0.405400
C3191	C319	0.177800	0.596400	0.346600
H2391	H239	0.209900	0.621600	0.338100
C3201	C320	0.136400	0.575000	0.324400
H2401	H240	0.140900	0.585600	0.300800
Zn261	Zn26	0.367400	0.631210	0.471150
O1021	O102	0.416470	0.672630	0.507670
O1031	O103	0.876070	0.928130	0.770830
O1041	O104	0.433970	0.751430	0.492840
O1051	O105	0.929770	0.967830	0.723930
O1061	O106	0.694270	0.718830	0.535930
O1071	O107	0.769070	0.749030	0.579830
O1081	O108	0.556570	0.901130	0.671730
O1091	O109	0.639570	0.945430	0.707330
C3211	C321	0.444270	0.722530	0.508130
C3221	C322	0.490570	0.743930	0.532730
C3231	C323	0.497970	0.713430	0.556930
H2411	H241	0.474770	0.678130	0.557630
C3241	C324	0.538670	0.734330	0.579730
H2421	H242	0.541270	0.713730	0.597130
C3251	C325	0.576070	0.785530	0.577430
C3261	C326	0.569570	0.815330	0.552230
H2431	H243	0.594570	0.850030	0.550130
C3271	C327	0.529270	0.796430	0.530930
H2441	H244	0.526270	0.818030	0.514530
C3281	C328	0.619770	0.807030	0.601130
C3291	C329	0.660970	0.794330	0.595630
C3301	C330	0.656670	0.761530	0.567330
H2451	H245	0.628070	0.747930	0.552430
C3311	C331	0.696270	0.749130	0.561730
C3321	C332	0.652370	0.699730	0.510030
H2461	H246	0.658470	0.681130	0.491730
H2471	H247	0.650870	0.728230	0.499830
H2481	H248	0.620270	0.677130	0.521730
C3331	C333	0.736470	0.764830	0.585630
C3341	C334	0.813370	0.766930	0.603830
H2491	H249	0.831970	0.749430	0.598430
H2501	H250	0.801370	0.759730	0.627930
H2511	H251	0.835670	0.803430	0.600930
C3351	C335	0.740970	0.799630	0.614530
H2521	H252	0.767770	0.810930	0.630830
C3361	C336	0.705370	0.815330	0.617330
C3371	C337	0.708570	0.849730	0.645630
C3381	C338	0.669670	0.862230	0.649930
C3391	C339	0.676170	0.900430	0.677930
H2531	H253	0.705870	0.916430	0.691730
C3401	C340	0.637370	0.910830	0.682430
C3411	C341	0.684070	0.972030	0.728530
H2541	H254	0.713570	0.991530	0.713630
H2551	H255	0.688870	0.947830	0.742330
H2561	H256	0.679970	0.995130	0.744230
C3421	C342	0.592070	0.887830	0.662030
C3431	C343	0.509570	0.878730	0.653630
H2571	H257	0.514870	0.872730	0.629330
H2581	H258	0.495770	0.901630	0.654330
H2591	H259	0.485770	0.846630	0.664730
C3441	C344	0.585970	0.853330	0.636230
H2601	H260	0.555570	0.837230	0.623230
C3451	C345	0.626170	0.841530	0.628930
C3461	C346	0.753970	0.871030	0.669230
C3471	C347	0.750170	0.858030	0.703930
H2611	H261	0.717770	0.834730	0.712930
C3481	C348	0.790870	0.876930	0.726430
H2621	H262	0.786470	0.865130	0.749730
C3491	C349	0.839170	0.914230	0.714430
C3501	C350	0.885170	0.939430	0.738730
C3511	C351	0.844470	0.929730	0.679930
H2631	H263	0.876570	0.954930	0.671430
C3521	C352	0.803070	0.908330	0.657730
H2641	H264	0.807570	0.918930	0.634130
Zn271	Zn27	0.034060	0.964550	0.804490
O1101	O110	0.083130	0.005970	0.841010
O1111	O111	0.542730	0.261470	0.104170
O1121	O112	0.100630	0.084770	0.826180
O1131	O113	0.596430	0.301170	0.057270
O1141	O114	0.360930	0.052170	0.869270
O1151	O115	0.435730	0.082370	0.913170
O1161	O116	0.223230	0.234470	0.005070
O1171	O117	0.306230	0.278770	0.040670
C3531	C353	0.110930	0.055870	0.841470
C3541	C354	0.157230	0.077270	0.866070
C3551	C355	0.164630	0.046770	0.890270
H2651	H265	0.141430	0.011470	0.890970
C3561	C356	0.205330	0.067670	0.913070
H2661	H266	0.207930	0.047070	0.930470
C3571	C357	0.242730	0.118870	0.910770
C3581	C358	0.236230	0.148670	0.885570
H2671	H267	0.261230	0.183370	0.883470
C3591	C359	0.195930	0.129770	0.864270
H2681	H268	0.192930	0.151370	0.847870
C3601	C360	0.286430	0.140370	0.934470
C3611	C361	0.327630	0.127670	0.928970
C3621	C362	0.323330	0.094870	0.900670
H2691	H269	0.294730	0.081270	0.885770
C3631	C363	0.362930	0.082470	0.895070
C3641	C364	0.319030	0.033070	0.843370
H2701	H270	0.325130	0.014470	0.825070
H2711	H271	0.317530	0.061570	0.833170
H2721	H272	0.286930	0.010470	0.855070
C3651	C365	0.403130	0.098170	0.918970
C3661	C366	0.480030	0.100270	0.937170
H2731	H273	0.498630	0.082770	0.931770
H2741	H274	0.468030	0.093070	0.961270
H2751	H275	0.502330	0.136770	0.934270
C3671	C367	0.407630	0.132970	0.947870
H2761	H276	0.434430	0.144270	0.964170
C3681	C368	0.372030	0.148670	0.950670
C3691	C369	0.375230	0.183070	0.978970
C3701	C370	0.336330	0.195570	0.983270
C3711	C371	0.342830	0.233770	0.011270
H2771	H277	0.372530	0.249770	0.025070
C3721	C372	0.304030	0.244170	0.015770
C3731	C373	0.350730	0.305370	0.061870
H2781	H278	0.380230	0.324870	0.046970
H2791	H279	0.355530	0.281170	0.075670
H2801	H280	0.346630	0.328470	0.077570
C3741	C374	0.258730	0.221170	0.995370
C3751	C375	0.176230	0.212070	0.986970
H2811	H281	0.181530	0.206070	0.962670
H2821	H282	0.162430	0.234970	0.987670
H2831	H283	0.152430	0.179970	0.998070
C3761	C376	0.252630	0.186670	0.969570
H2841	H284	0.222230	0.170570	0.956570
C3771	C377	0.292830	0.174870	0.962270
C3781	C378	0.420630	0.204370	0.002570
C3791	C379	0.416830	0.191370	0.037270
H2851	H285	0.384430	0.168070	0.046270
C3801	C380	0.457530	0.210270	0.059770
H2861	H286	0.453130	0.198470	0.083070
C3811	C381	0.505830	0.247570	0.047770
C3821	C382	0.551830	0.272770	0.072070
C3831	C383	0.511130	0.263070	0.013270
H2871	H287	0.543230	0.288270	0.004770
C3841	C384	0.469730	0.241670	0.991070
H2881	H288	0.474230	0.252270	0.967470
Zn281	Zn28	0.702120	0.402850	0.137820
O1181	O118	0.660700	0.410500	0.174340
O1191	O119	0.405200	0.614600	0.437500
O1201	O120	0.581900	0.349200	0.159510
O1211	O121	0.365500	0.628600	0.390600
O1221	O122	0.614500	0.642100	0.202600
O1231	O123	0.584300	0.686700	0.246500
O1241	O124	0.432200	0.322100	0.338400
O1251	O125	0.387900	0.360800	0.374000
C3851	C385	0.610800	0.388400	0.174800
C3861	C386	0.589400	0.413300	0.199400
C3871	C387	0.619900	0.451200	0.223600
H2891	H289	0.655200	0.463300	0.224300
C3881	C388	0.599000	0.471000	0.246400
H2901	H290	0.619600	0.494200	0.263800
C3891	C389	0.547800	0.457200	0.244100
C3901	C390	0.518000	0.420900	0.218900
H2911	H291	0.483300	0.411200	0.216800
C3911	C391	0.536900	0.399500	0.197600
H2921	H292	0.515300	0.374900	0.181200
C3921	C392	0.526300	0.479400	0.267800
C3931	C393	0.539000	0.533300	0.262300
C3941	C394	0.571800	0.561800	0.234000
H2931	H293	0.585400	0.546800	0.219100
C3951	C395	0.584200	0.613800	0.228400
C3961	C396	0.633600	0.619300	0.176700
H2941	H294	0.652200	0.644000	0.158400
H2951	H295	0.605100	0.589300	0.166500
H2961	H296	0.656200	0.609800	0.188400
C3971	C397	0.568500	0.638300	0.252300
C3981	C398	0.566400	0.713100	0.270500
H2971	H297	0.583900	0.749200	0.265100
H2981	H298	0.573600	0.708300	0.294600
H2991	H299	0.529900	0.698900	0.267600
C3991	C399	0.533700	0.608000	0.281200
H3001	H300	0.522400	0.623500	0.297500
C4001	C400	0.518000	0.556700	0.284000
C4011	C401	0.483600	0.525500	0.312300
C4021	C402	0.471100	0.474100	0.316600
C4031	C403	0.432900	0.442400	0.344600
H3011	H301	0.416900	0.456100	0.358400
C4041	C404	0.422500	0.393200	0.349100
C4051	C405	0.361300	0.378700	0.395200
H3021	H302	0.341800	0.388700	0.380300
H3031	H303	0.385500	0.407700	0.409000
H3041	H304	0.338200	0.351500	0.410900
C4061	C406	0.445500	0.370900	0.328700
C4071	C407	0.454600	0.297500	0.320300
H3051	H305	0.460600	0.308800	0.296000
H3061	H306	0.431700	0.260800	0.321000
H3071	H307	0.486700	0.305800	0.331400
C4081	C408	0.480000	0.399300	0.302900
H3081	H308	0.496100	0.385000	0.289900
C4091	C409	0.491800	0.451300	0.295600
C4101	C410	0.462300	0.549600	0.335900
C4111	C411	0.475300	0.558800	0.370600
H3091	H309	0.498600	0.549700	0.379600
C4121	C412	0.456400	0.580600	0.393100
H3101	H310	0.468200	0.588000	0.416400
C4131	C413	0.419100	0.591600	0.381100
C4141	C414	0.393900	0.612400	0.405400
C4151	C415	0.403600	0.581400	0.346600
H3111	H311	0.378400	0.588300	0.338100
C4161	C416	0.425000	0.561400	0.324400
H3121	H312	0.414400	0.555300	0.300800
Zn291	Zn29	0.368790	0.736180	0.471150
O1261	O126	0.327370	0.743830	0.507670
O1271	O127	0.071870	0.947930	0.770830
O1281	O128	0.248570	0.682530	0.492840
O1291	O129	0.032170	0.961930	0.723930
O1301	O130	0.281170	0.975430	0.535930
O1311	O131	0.250970	0.020030	0.579830
O1321	O132	0.098870	0.655430	0.671730
O1331	O133	0.054570	0.694130	0.707330
C4171	C417	0.277470	0.721730	0.508130
C4181	C418	0.256070	0.746630	0.532730
C4191	C419	0.286570	0.784530	0.556930
H3131	H313	0.321870	0.796630	0.557630
C4201	C420	0.265670	0.804330	0.579730
H3141	H314	0.286270	0.827530	0.597130
C4211	C421	0.214470	0.790530	0.577430
C4221	C422	0.184670	0.754230	0.552230
H3151	H315	0.149970	0.744530	0.550130
C4231	C423	0.203570	0.732830	0.530930
H3161	H316	0.181970	0.708230	0.514530
C4241	C424	0.192970	0.812730	0.601130
C4251	C425	0.205670	0.866630	0.595630
C4261	C426	0.238470	0.895130	0.567330
H3171	H317	0.252070	0.880130	0.552430
C4271	C427	0.250870	0.947130	0.561730
C4281	C428	0.300270	0.952630	0.510030
H3181	H318	0.318870	0.977330	0.491730
H3191	H319	0.271770	0.922630	0.499830
H3201	H320	0.322870	0.943130	0.521730
C4291	C429	0.235170	0.971630	0.585630
C4301	C430	0.233070	0.046430	0.603830
H3211	H321	0.250570	0.082530	0.598430
H3221	H322	0.240270	0.041630	0.627930
H3231	H323	0.196570	0.032230	0.600930
C4311	C431	0.200370	0.941330	0.614530
H3241	H324	0.189070	0.956830	0.630830
C4321	C432	0.184670	0.890030	0.617330
C4331	C433	0.150270	0.858830	0.645630
C4341	C434	0.137770	0.807430	0.649930
C4351	C435	0.099570	0.775730	0.677930
H3251	H325	0.083570	0.789430	0.691730
C4361	C436	0.089170	0.726530	0.682430
C4371	C437	0.027970	0.712030	0.728530
H3261	H326	0.008470	0.722030	0.713630
H3271	H327	0.052170	0.741030	0.742330
H3281	H328	0.004870	0.684830	0.744230
C4381	C438	0.112170	0.704230	0.662030
C4391	C439	0.121270	0.630830	0.653630
H3291	H329	0.127270	0.642130	0.629330
H3301	H330	0.098370	0.594130	0.654330
H3311	H331	0.153370	0.639130	0.664730
C4401	C440	0.146670	0.732630	0.636230
H3321	H332	0.162770	0.718330	0.623230
C4411	C441	0.158470	0.784630	0.628930
C4421	C442	0.128970	0.882930	0.669230
C4431	C443	0.141970	0.892130	0.703930
H3331	H333	0.165270	0.883030	0.712930
C4441	C444	0.123070	0.913930	0.726430
H3341	H334	0.134870	0.921330	0.749730
C4451	C445	0.085770	0.924930	0.714430
C4461	C446	0.060570	0.945730	0.738730
C4471	C447	0.070270	0.914730	0.679930
H3351	H335	0.045070	0.921630	0.671430
C4481	C448	0.091670	0.894730	0.657730
H3361	H336	0.081070	0.888630	0.634130
Zn301	Zn30	0.035450	0.069520	0.804490
O1341	O134	0.994030	0.077170	0.841010
O1351	O135	0.738530	0.281270	0.104170
O1361	O136	0.915230	0.015870	0.826180
O1371	O137	0.698830	0.295270	0.057270
O1381	O138	0.947830	0.308770	0.869270
O1391	O139	0.917630	0.353370	0.913170
O1401	O140	0.765530	0.988770	0.005070
O1411	O141	0.721230	0.027470	0.040670
C4491	C449	0.944130	0.055070	0.841470
C4501	C450	0.922730	0.079970	0.866070
C4511	C451	0.953230	0.117870	0.890270
H3371	H337	0.988530	0.129970	0.890970
C4521	C452	0.932330	0.137670	0.913070
H3381	H338	0.952930	0.160870	0.930470
C4531	C453	0.881130	0.123870	0.910770
C4541	C454	0.851330	0.087570	0.885570
H3391	H339	0.816630	0.077870	0.883470
C4551	C455	0.870230	0.066170	0.864270
H3401	H340	0.848630	0.041570	0.847870
C4561	C456	0.859630	0.146070	0.934470
C4571	C457	0.872330	0.199970	0.928970
C4581	C458	0.905130	0.228470	0.900670
H3411	H341	0.918730	0.213470	0.885770
C4591	C459	0.917530	0.280470	0.895070
C4601	C460	0.966930	0.285970	0.843370
H3421	H342	0.985530	0.310670	0.825070
H3431	H343	0.938430	0.255970	0.833170
H3441	H344	0.989530	0.276470	0.855070
C4611	C461	0.901830	0.304970	0.918970
C4621	C462	0.899730	0.379770	0.937170
H3451	H345	0.917230	0.415870	0.931770
H3461	H346	0.906930	0.374970	0.961270
H3471	H347	0.863230	0.365570	0.934270
C4631	C463	0.867030	0.274670	0.947870
H3481	H348	0.855730	0.290170	0.964170
C4641	C464	0.851330	0.223370	0.950670
C4651	C465	0.816930	0.192170	0.978970
C4661	C466	0.804430	0.140770	0.983270
C4671	C467	0.766230	0.109070	0.011270
H3491	H349	0.750230	0.122770	0.025070
C4681	C468	0.755830	0.059870	0.015770
C4691	C469	0.694630	0.045370	0.061870
H3501	H350	0.675130	0.055370	0.046970
H3511	H351	0.718830	0.074370	0.075670
H3521	H352	0.671530	0.018170	0.077570
C4701	C470	0.778830	0.037570	0.995370
C4711	C471	0.787930	0.964170	0.986970
H3531	H353	0.793930	0.975470	0.962670
H3541	H354	0.765030	0.927470	0.987670
H3551	H355	0.820030	0.972470	0.998070
C4721	C472	0.813330	0.065970	0.969570
H3561	H356	0.829430	0.051670	0.956570
C4731	C473	0.825130	0.117970	0.962270
C4741	C474	0.795630	0.216270	0.002570
C4751	C475	0.808630	0.225470	0.037270
H3571	H357	0.831930	0.216370	0.046270
C4761	C476	0.789730	0.247270	0.059770
H3581	H358	0.801530	0.254670	0.083070
C4771	C477	0.752430	0.258270	0.047770
C4781	C478	0.727230	0.279070	0.072070
C4791	C479	0.736930	0.248070	0.013270
H3591	H359	0.711730	0.254970	0.004770
C4801	C480	0.758330	0.228070	0.991070
H3601	H360	0.747730	0.221970	0.967470
Zn311	Zn31	0.597150	0.299270	0.137820
O1421	O142	0.589500	0.250200	0.174340
O1431	O143	0.385400	0.790600	0.437500
O1441	O144	0.650800	0.232700	0.159510
O1451	O145	0.371400	0.736900	0.390600
O1461	O146	0.357900	0.972400	0.202600
O1471	O147	0.313300	0.897600	0.246500
O1481	O148	0.677900	0.110100	0.338400
O1491	O149	0.639200	0.027100	0.374000
C4811	C481	0.611600	0.222400	0.174800
C4821	C482	0.586700	0.176100	0.199400
C4831	C483	0.548800	0.168700	0.223600
H3611	H361	0.536700	0.191900	0.224300
C4841	C484	0.529000	0.128000	0.246400
H3621	H362	0.505800	0.125400	0.263800
C4851	C485	0.542800	0.090600	0.244100
C4861	C486	0.579100	0.097100	0.218900
H3631	H363	0.588800	0.072100	0.216800
C4871	C487	0.600500	0.137400	0.197600
H3641	H364	0.625100	0.140400	0.181200
C4881	C488	0.520600	0.046900	0.267800
C4891	C489	0.466700	0.005700	0.262300
C4901	C490	0.438200	0.010000	0.234000
H3651	H365	0.453200	0.038600	0.219100
C4911	C491	0.386200	0.970400	0.228400
C4921	C492	0.380700	0.014300	0.176700
H3661	H366	0.356000	0.008200	0.158400
H3671	H367	0.410700	0.015800	0.166500
H3681	H368	0.390200	0.046400	0.188400
C4931	C493	0.361700	0.930200	0.252300
C4941	C494	0.286900	0.853300	0.270500
H3691	H369	0.250800	0.834700	0.265100
H3701	H370	0.291700	0.865300	0.294600
H3711	H371	0.301100	0.831000	0.267600
C4951	C495	0.392000	0.925700	0.281200
H3721	H372	0.376500	0.898900	0.297500
C4961	C496	0.443300	0.961300	0.284000
C4971	C497	0.474500	0.958100	0.312300
C4981	C498	0.525900	0.997000	0.316600
C4991	C499	0.557600	0.990500	0.344600
H3731	H373	0.543900	0.960800	0.358400
C5001	C500	0.606800	0.029300	0.349100
C5011	C501	0.621300	0.982600	0.395200
H3741	H374	0.611300	0.953100	0.380300
H3751	H375	0.592300	0.977800	0.409000
H3761	H376	0.648500	0.986700	0.410900
C5021	C502	0.629100	0.074600	0.328700
C5031	C503	0.702500	0.157100	0.320300
H3771	H377	0.691200	0.151800	0.296000
H3781	H378	0.739200	0.170900	0.321000
H3791	H379	0.694200	0.180900	0.331400
C5041	C504	0.600700	0.080700	0.302900
H3801	H380	0.615000	0.111100	0.289900
C5051	C505	0.548700	0.040500	0.295600
C5061	C506	0.450400	0.912700	0.335900
C5071	C507	0.441200	0.916500	0.370600
H3811	H381	0.450300	0.948900	0.379600
C5081	C508	0.419400	0.875800	0.393100
H3821	H382	0.412000	0.880200	0.416400
C5091	C509	0.408400	0.827500	0.381100
C5101	C510	0.387600	0.781500	0.405400
C5111	C511	0.418600	0.822200	0.346600
H3831	H383	0.411700	0.790100	0.338100
C5121	C512	0.438600	0.863600	0.324400
H3841	H384	0.444700	0.859100	0.300800
Zn321	Zn32	0.263820	0.632600	0.471150
O1501	O150	0.256170	0.583530	0.507670
O1511	O151	0.052070	0.123930	0.770830
O1521	O152	0.317470	0.566030	0.492840
O1531	O153	0.038070	0.070230	0.723930
O1541	O154	0.024570	0.305730	0.535930
O1551	O155	0.979970	0.230930	0.579830
O1561	O156	0.344570	0.443430	0.671730
O1571	O157	0.305870	0.360430	0.707330
C5131	C513	0.278270	0.555730	0.508130
C5141	C514	0.253370	0.509430	0.532730
C5151	C515	0.215470	0.502030	0.556930
H3851	H385	0.203370	0.525230	0.557630
C5161	C516	0.195670	0.461330	0.579730
H3861	H386	0.172470	0.458730	0.597130
C5171	C517	0.209470	0.423930	0.577430
C5181	C518	0.245770	0.430430	0.552230
H3871	H387	0.255470	0.405430	0.550130
C5191	C519	0.267170	0.470730	0.530930
H3881	H388	0.291770	0.473730	0.514530
C5201	C520	0.187270	0.380230	0.601130
C5211	C521	0.133370	0.339030	0.595630
C5221	C522	0.104870	0.343330	0.567330
H3891	H389	0.119870	0.371930	0.552430
C5231	C523	0.052870	0.303730	0.561730
C5241	C524	0.047370	0.347630	0.510030
H3901	H390	0.022670	0.341530	0.491730
H3911	H391	0.077370	0.349130	0.499830
H3921	H392	0.056870	0.379730	0.521730
C5251	C525	0.028370	0.263530	0.585630
C5261	C526	0.953570	0.186630	0.603830
H3931	H393	0.917470	0.168030	0.598430
H3941	H394	0.958370	0.198630	0.627930
H3951	H395	0.967770	0.164330	0.600930
C5271	C527	0.058670	0.259030	0.614530
H3961	H396	0.043170	0.232230	0.630830
C5281	C528	0.109970	0.294630	0.617330
C5291	C529	0.141170	0.291430	0.645630
C5301	C530	0.192570	0.330330	0.649930
C5311	C531	0.224270	0.323830	0.677930
H3971	H397	0.210570	0.294130	0.691730
C5321	C532	0.273470	0.362630	0.682430
C5331	C533	0.287970	0.315930	0.728530
H3981	H398	0.277970	0.286430	0.713630
H3991	H399	0.258970	0.311130	0.742330
H4001	H400	0.315170	0.320030	0.744230
C5341	C534	0.295770	0.407930	0.662030
C5351	C535	0.369170	0.490430	0.653630
H4011	H401	0.357870	0.485130	0.629330
H4021	H402	0.405870	0.504230	0.654330
H4031	H403	0.360870	0.514230	0.664730
C5361	C536	0.267370	0.414030	0.636230
H4041	H404	0.281670	0.444430	0.623230
C5371	C537	0.215370	0.373830	0.628930
C5381	C538	0.117070	0.246030	0.669230
C5391	C539	0.107870	0.249830	0.703930
H4051	H405	0.116970	0.282230	0.712930
C5401	C540	0.086070	0.209130	0.726430
H4061	H406	0.078670	0.213530	0.749730
C5411	C541	0.075070	0.160830	0.714430
C5421	C542	0.054270	0.114830	0.738730
C5431	C543	0.085270	0.155530	0.679930
H4071	H407	0.078370	0.123430	0.671430
C5441	C544	0.105270	0.196930	0.657730
H4081	H408	0.111370	0.192430	0.634130
Zn331	Zn33	0.930480	0.965940	0.804490
O1581	O158	0.922830	0.916870	0.841010
O1591	O159	0.718730	0.457270	0.104170
O1601	O160	0.984130	0.899370	0.826180
O1611	O161	0.704730	0.403570	0.057270
O1621	O162	0.691230	0.639070	0.869270
O1631	O163	0.646630	0.564270	0.913170
O1641	O164	0.011230	0.776770	0.005070
O1651	O165	0.972530	0.693770	0.040670
C5451	C545	0.944930	0.889070	0.841470
C5461	C546	0.920030	0.842770	0.866070
C5471	C547	0.882130	0.835370	0.890270
H4091	H409	0.870030	0.858570	0.890970
C5481	C548	0.862330	0.794670	0.913070
H4101	H410	0.839130	0.792070	0.930470
C5491	C549	0.876130	0.757270	0.910770
C5501	C550	0.912430	0.763770	0.885570
H4111	H411	0.922130	0.738770	0.883470
C5511	C551	0.933830	0.804070	0.864270
H4121	H412	0.958430	0.807070	0.847870
C5521	C552	0.853930	0.713570	0.934470
C5531	C553	0.800030	0.672370	0.928970
C5541	C554	0.771530	0.676670	0.900670
H4131	H413	0.786530	0.705270	0.885770
C5551	C555	0.719530	0.637070	0.895070
C5561	C556	0.714030	0.680970	0.843370
H4141	H414	0.689330	0.674870	0.825070
H4151	H415	0.744030	0.682470	0.833170
H4161	H416	0.723530	0.713070	0.855070
C5571	C557	0.695030	0.596870	0.918970
C5581	C558	0.620230	0.519970	0.937170
H4171	H417	0.584130	0.501370	0.931770
H4181	H418	0.625030	0.531970	0.961270
H4191	H419	0.634430	0.497670	0.934270
C5591	C559	0.725330	0.592370	0.947870
H4201	H420	0.709830	0.565570	0.964170
C5601	C560	0.776630	0.627970	0.950670
C5611	C561	0.807830	0.624770	0.978970
C5621	C562	0.859230	0.663670	0.983270
C5631	C563	0.890930	0.657170	0.011270
H4211	H421	0.877230	0.627470	0.025070
C5641	C564	0.940130	0.695970	0.015770
C5651	C565	0.954630	0.649270	0.061870
H4221	H422	0.944630	0.619770	0.046970
H4231	H423	0.925630	0.644470	0.075670
H4241	H424	0.981830	0.653370	0.077570
C5661	C566	0.962430	0.741270	0.995370
C5671	C567	0.035830	0.823770	0.986970
H4251	H425	0.024530	0.818470	0.962670
H4261	H426	0.072530	0.837570	0.987670
H4271	H427	0.027530	0.847570	0.998070
C5681	C568	0.934030	0.747370	0.969570
H4281	H428	0.948330	0.777770	0.956570
C5691	C569	0.882030	0.707170	0.962270
C5701	C570	0.783730	0.579370	0.002570
C5711	C571	0.774530	0.583170	0.037270
H4291	H429	0.783630	0.615570	0.046270
C5721	C572	0.752730	0.542470	0.059770
H4301	H430	0.745330	0.546870	0.083070
C5731	C573	0.741730	0.494170	0.047770
C5741	C574	0.720930	0.448170	0.072070
C5751	C575	0.751930	0.488870	0.013270
H4311	H431	0.745030	0.456770	0.004770
C5761	C576	0.771930	0.530270	0.991070
H4321	H432	0.778030	0.525770	0.967470
Zn341	Zn34	0.666670	0.333330	0.066470
O1661	O166	0.666670	0.333330	0.119000
Zn351	Zn35	0.333330	0.666670	0.399800
O1671	O167	0.333330	0.666670	0.452330
Zn361	Zn36	0.000000	0.000000	0.733140
O1681	O168	0.000000	0.000000	0.785670
Zn371	Zn37	0.299270	0.702120	0.862180
O1691	O169	0.250200	0.660700	0.825660
O1701	O170	0.790600	0.405200	0.562500
O1711	O171	0.232700	0.581900	0.840490
O1721	O172	0.736900	0.365500	0.609400
O1731	O173	0.972400	0.614500	0.797400
O1741	O174	0.897600	0.584300	0.753500
O1751	O175	0.110100	0.432200	0.661600
O1761	O176	0.027100	0.387900	0.626000
C5771	C577	0.222400	0.610800	0.825200
C5781	C578	0.176100	0.589400	0.800600
C5791	C579	0.168700	0.619900	0.776400
H4331	H433	0.191900	0.655200	0.775700
C5801	C580	0.128000	0.599000	0.753600
H4341	H434	0.125400	0.619600	0.736200
C5811	C581	0.090600	0.547800	0.755900
C5821	C582	0.097100	0.518000	0.781100
H4351	H435	0.072100	0.483300	0.783200
C5831	C583	0.137400	0.536900	0.802400
H4361	H436	0.140400	0.515300	0.818800
C5841	C584	0.046900	0.526300	0.732200
C5851	C585	0.005700	0.539000	0.737700
C5861	C586	0.010000	0.571800	0.766000
H4371	H437	0.038600	0.585400	0.780900
C5871	C587	0.970400	0.584200	0.771600
C5881	C588	0.014300	0.633600	0.823300
H4381	H438	0.008200	0.652200	0.841600
H4391	H439	0.015800	0.605100	0.833500
H4401	H440	0.046400	0.656200	0.811600
C5891	C589	0.930200	0.568500	0.747700
C5901	C590	0.853300	0.566400	0.729500
H4411	H441	0.834700	0.583900	0.734900
H4421	H442	0.865300	0.573600	0.705400
H4431	H443	0.831000	0.529900	0.732400
C5911	C591	0.925700	0.533700	0.718800
H4441	H444	0.898900	0.522400	0.702500
C5921	C592	0.961300	0.518000	0.716000
C5931	C593	0.958100	0.483600	0.687700
C5941	C594	0.997000	0.471100	0.683400
C5951	C595	0.990500	0.432900	0.655400
H4451	H445	0.960800	0.416900	0.641600
C5961	C596	0.029300	0.422500	0.650900
C5971	C597	0.982600	0.361300	0.604800
H4461	H446	0.953100	0.341800	0.619700
H4471	H447	0.977800	0.385500	0.591000
H4481	H448	0.986700	0.338200	0.589100
C5981	C598	0.074600	0.445500	0.671300
C5991	C599	0.157100	0.454600	0.679700
H4491	H449	0.151800	0.460600	0.704000
H4501	H450	0.170900	0.431700	0.679000
H4511	H451	0.180900	0.486700	0.668600
C6001	C600	0.080700	0.480000	0.697100
H4521	H452	0.111100	0.496100	0.710100
C6011	C601	0.040500	0.491800	0.704400
C6021	C602	0.912700	0.462300	0.664100
C6031	C603	0.916500	0.475300	0.629400
H4531	H453	0.948900	0.498600	0.620400
C6041	C604	0.875800	0.456400	0.606900
H4541	H454	0.880200	0.468200	0.583600
C6051	C605	0.827500	0.419100	0.618900
C6061	C606	0.781500	0.393900	0.594600
C6071	C607	0.822200	0.403600	0.653400
H4551	H455	0.790100	0.378400	0.661900
C6081	C608	0.863600	0.425000	0.675600
H4561	H456	0.859100	0.414400	0.699200
Zn381	Zn38	0.965940	0.035450	0.195510
O1771	O177	0.916870	0.994030	0.158990
O1781	O178	0.457270	0.738530	0.895830
O1791	O179	0.899370	0.915230	0.173820
O1801	O180	0.403570	0.698830	0.942730
O1811	O181	0.639070	0.947830	0.130730
O1821	O182	0.564270	0.917630	0.086830
O1831	O183	0.776770	0.765530	0.994930
O1841	O184	0.693770	0.721230	0.959330
C6091	C609	0.889070	0.944130	0.158530
C6101	C610	0.842770	0.922730	0.133930
C6111	C611	0.835370	0.953230	0.109730
H4571	H457	0.858570	0.988530	0.109030
C6121	C612	0.794670	0.932330	0.086930
H4581	H458	0.792070	0.952930	0.069530
C6131	C613	0.757270	0.881130	0.089230
C6141	C614	0.763770	0.851330	0.114430
H4591	H459	0.738770	0.816630	0.116530
C6151	C615	0.804070	0.870230	0.135730
H4601	H460	0.807070	0.848630	0.152130
C6161	C616	0.713570	0.859630	0.065530
C6171	C617	0.672370	0.872330	0.071030
C6181	C618	0.676670	0.905130	0.099330
H4611	H461	0.705270	0.918730	0.114230
C6191	C619	0.637070	0.917530	0.104930
C6201	C620	0.680970	0.966930	0.156630
H4621	H462	0.674870	0.985530	0.174930
H4631	H463	0.682470	0.938430	0.166830
H4641	H464	0.713070	0.989530	0.144930
C6211	C621	0.596870	0.901830	0.081030
C6221	C622	0.519970	0.899730	0.062830
H4651	H465	0.501370	0.917230	0.068230
H4661	H466	0.531970	0.906930	0.038730
H4671	H467	0.497670	0.863230	0.065730
C6231	C623	0.592370	0.867030	0.052130
H4681	H468	0.565570	0.855730	0.035830
C6241	C624	0.627970	0.851330	0.049330
C6251	C625	0.624770	0.816930	0.021030
C6261	C626	0.663670	0.804430	0.016730
C6271	C627	0.657170	0.766230	0.988730
H4691	H469	0.627470	0.750230	0.974930
C6281	C628	0.695970	0.755830	0.984230
C6291	C629	0.649270	0.694630	0.938130
H4701	H470	0.619770	0.675130	0.953030
H4711	H471	0.644470	0.718830	0.924330
H4721	H472	0.653370	0.671530	0.922430
C6301	C630	0.741270	0.778830	0.004630
C6311	C631	0.823770	0.787930	0.013030
H4731	H473	0.818470	0.793930	0.037330
H4741	H474	0.837570	0.765030	0.012330
H4751	H475	0.847570	0.820030	0.001930
C6321	C632	0.747370	0.813330	0.030430
H4761	H476	0.777770	0.829430	0.043430
C6331	C633	0.707170	0.825130	0.037730
C6341	C634	0.579370	0.795630	0.997430
C6351	C635	0.583170	0.808630	0.962730
H4771	H477	0.615570	0.831930	0.953730
C6361	C636	0.542470	0.789730	0.940230
H4781	H478	0.546870	0.801530	0.916930
C6371	C637	0.494170	0.752430	0.952230
C6381	C638	0.448170	0.727230	0.927930
C6391	C639	0.488870	0.736930	0.986730
H4791	H479	0.456770	0.711730	0.995230
C6401	C640	0.530270	0.758330	0.008930
H4801	H480	0.525770	0.747730	0.032530
Zn391	Zn39	0.632600	0.368790	0.528850
O1851	O185	0.583530	0.327370	0.492330
O1861	O186	0.123930	0.071870	0.229170
O1871	O187	0.566030	0.248570	0.507160
O1881	O188	0.070230	0.032170	0.276070
O1891	O189	0.305730	0.281170	0.464070
O1901	O190	0.230930	0.250970	0.420170
O1911	O191	0.443430	0.098870	0.328270
O1921	O192	0.360430	0.054570	0.292670
C6411	C641	0.555730	0.277470	0.491870
C6421	C642	0.509430	0.256070	0.467270
C6431	C643	0.502030	0.286570	0.443070
H4811	H481	0.525230	0.321870	0.442370
C6441	C644	0.461330	0.265670	0.420270
H4821	H482	0.458730	0.286270	0.402870
C6451	C645	0.423930	0.214470	0.422570
C6461	C646	0.430430	0.184670	0.447770
H4831	H483	0.405430	0.149970	0.449870
C6471	C647	0.470730	0.203570	0.469070
H4841	H484	0.473730	0.181970	0.485470
C6481	C648	0.380230	0.192970	0.398870
C6491	C649	0.339030	0.205670	0.404370
C6501	C650	0.343330	0.238470	0.432670
H4851	H485	0.371930	0.252070	0.447570
C6511	C651	0.303730	0.250870	0.438270
C6521	C652	0.347630	0.300270	0.489970
H4861	H486	0.341530	0.318870	0.508270
H4871	H487	0.349130	0.271770	0.500170
H4881	H488	0.379730	0.322870	0.478270
C6531	C653	0.263530	0.235170	0.414370
C6541	C654	0.186630	0.233070	0.396170
H4891	H489	0.168030	0.250570	0.401570
H4901	H490	0.198630	0.240270	0.372070
H4911	H491	0.164330	0.196570	0.399070
C6551	C655	0.259030	0.200370	0.385470
H4921	H492	0.232230	0.189070	0.369170
C6561	C656	0.294630	0.184670	0.382670
C6571	C657	0.291430	0.150270	0.354370
C6581	C658	0.330330	0.137770	0.350070
C6591	C659	0.323830	0.099570	0.322070
H4931	H493	0.294130	0.083570	0.308270
C6601	C660	0.362630	0.089170	0.317570
C6611	C661	0.315930	0.027970	0.271470
H4941	H494	0.286430	0.008470	0.286370
H4951	H495	0.311130	0.052170	0.257670
H4961	H496	0.320030	0.004870	0.255770
C6621	C662	0.407930	0.112170	0.337970
C6631	C663	0.490430	0.121270	0.346370
H4971	H497	0.485130	0.127270	0.370670
H4981	H498	0.504230	0.098370	0.345670
H4991	H499	0.514230	0.153370	0.335270
C6641	C664	0.414030	0.146670	0.363770
H5001	H500	0.444430	0.162770	0.376770
C6651	C665	0.373830	0.158470	0.371070
C6661	C666	0.246030	0.128970	0.330770
C6671	C667	0.249830	0.141970	0.296070
H5011	H501	0.282230	0.165270	0.287070
C6681	C668	0.209130	0.123070	0.273570
H5021	H502	0.213530	0.134870	0.250270
C6691	C669	0.160830	0.085770	0.285570
C6701	C670	0.114830	0.060570	0.261270
C6711	C671	0.155530	0.070270	0.320070
H5031	H503	0.123430	0.045070	0.328570
C6721	C672	0.196930	0.091670	0.342270
H5041	H504	0.192430	0.081070	0.365870
Zn401	Zn40	0.297880	0.597150	0.862180
O1931	O193	0.339300	0.589500	0.825660
O1941	O194	0.594800	0.385400	0.562500
O1951	O195	0.418100	0.650800	0.840490
O1961	O196	0.634500	0.371400	0.609400
O1971	O197	0.385500	0.357900	0.797400
O1981	O198	0.415700	0.313300	0.753500
O1991	O199	0.567800	0.677900	0.661600
O2001	O200	0.612100	0.639200	0.626000
C6731	C673	0.389200	0.611600	0.825200
C6741	C674	0.410600	0.586700	0.800600
C6751	C675	0.380100	0.548800	0.776400
H5051	H505	0.344800	0.536700	0.775700
C6761	C676	0.401000	0.529000	0.753600
H5061	H506	0.380400	0.505800	0.736200
C6771	C677	0.452200	0.542800	0.755900
C6781	C678	0.482000	0.579100	0.781100
H5071	H507	0.516700	0.588800	0.783200
C6791	C679	0.463100	0.600500	0.802400
H5081	H508	0.484700	0.625100	0.818800
C6801	C680	0.473700	0.520600	0.732200
C6811	C681	0.461000	0.466700	0.737700
C6821	C682	0.428200	0.438200	0.766000
H5091	H509	0.414600	0.453200	0.780900
C6831	C683	0.415800	0.386200	0.771600
C6841	C684	0.366400	0.380700	0.823300
H5101	H510	0.347800	0.356000	0.841600
H5111	H511	0.394900	0.410700	0.833500
H5121	H512	0.343800	0.390200	0.811600
C6851	C685	0.431500	0.361700	0.747700
C6861	C686	0.433600	0.286900	0.729500
H5131	H513	0.416100	0.250800	0.734900
H5141	H514	0.426400	0.291700	0.705400
H5151	H515	0.470100	0.301100	0.732400
C6871	C687	0.466300	0.392000	0.718800
H5161	H516	0.477600	0.376500	0.702500
C6881	C688	0.482000	0.443300	0.716000
C6891	C689	0.516400	0.474500	0.687700
C6901	C690	0.528900	0.525900	0.683400
C6911	C691	0.567100	0.557600	0.655400
H5171	H517	0.583100	0.543900	0.641600
C6921	C692	0.577500	0.606800	0.650900
C6931	C693	0.638700	0.621300	0.604800
H5181	H518	0.658200	0.611300	0.619700
H5191	H519	0.614500	0.592300	0.591000
H5201	H520	0.661800	0.648500	0.589100
C6941	C694	0.554500	0.629100	0.671300
C6951	C695	0.545400	0.702500	0.679700
H5211	H521	0.539400	0.691200	0.704000
H5221	H522	0.568300	0.739200	0.679000
H5231	H523	0.513300	0.694200	0.668600
C6961	C696	0.520000	0.600700	0.697100
H5241	H524	0.503900	0.615000	0.710100
C6971	C697	0.508200	0.548700	0.704400
C6981	C698	0.537700	0.450400	0.664100
C6991	C699	0.524700	0.441200	0.629400
H5251	H525	0.501400	0.450300	0.620400
C7001	C700	0.543600	0.419400	0.606900
H5261	H526	0.531800	0.412000	0.583600
C7011	C701	0.580900	0.408400	0.618900
C7021	C702	0.606100	0.387600	0.594600
C7031	C703	0.596400	0.418600	0.653400
H5271	H527	0.621600	0.411700	0.661900
C7041	C704	0.575000	0.438600	0.675600
H5281	H528	0.585600	0.444700	0.699200
Zn411	Zn41	0.964550	0.930480	0.195510
O2011	O201	0.005970	0.922830	0.158990
O2021	O202	0.261470	0.718730	0.895830
O2031	O203	0.084770	0.984130	0.173820
O2041	O204	0.301170	0.704730	0.942730
O2051	O205	0.052170	0.691230	0.130730
O2061	O206	0.082370	0.646630	0.086830
O2071	O207	0.234470	0.011230	0.994930
O2081	O208	0.278770	0.972530	0.959330
C7051	C705	0.055870	0.944930	0.158530
C7061	C706	0.077270	0.920030	0.133930
C7071	C707	0.046770	0.882130	0.109730
H5291	H529	0.011470	0.870030	0.109030
C7081	C708	0.067670	0.862330	0.086930
H5301	H530	0.047070	0.839130	0.069530
C7091	C709	0.118870	0.876130	0.089230
C7101	C710	0.148670	0.912430	0.114430
H5311	H531	0.183370	0.922130	0.116530
C7111	C711	0.129770	0.933830	0.135730
H5321	H532	0.151370	0.958430	0.152130
C7121	C712	0.140370	0.853930	0.065530
C7131	C713	0.127670	0.800030	0.071030
C7141	C714	0.094870	0.771530	0.099330
H5331	H533	0.081270	0.786530	0.114230
C7151	C715	0.082470	0.719530	0.104930
C7161	C716	0.033070	0.714030	0.156630
H5341	H534	0.014470	0.689330	0.174930
H5351	H535	0.061570	0.744030	0.166830
H5361	H536	0.010470	0.723530	0.144930
C7171	C717	0.098170	0.695030	0.081030
C7181	C718	0.100270	0.620230	0.062830
H5371	H537	0.082770	0.584130	0.068230
H5381	H538	0.093070	0.625030	0.038730
H5391	H539	0.136770	0.634430	0.065730
C7191	C719	0.132970	0.725330	0.052130
H5401	H540	0.144270	0.709830	0.035830
C7201	C720	0.148670	0.776630	0.049330
C7211	C721	0.183070	0.807830	0.021030
C7221	C722	0.195570	0.859230	0.016730
C7231	C723	0.233770	0.890930	0.988730
H5411	H541	0.249770	0.877230	0.974930
C7241	C724	0.244170	0.940130	0.984230
C7251	C725	0.305370	0.954630	0.938130
H5421	H542	0.324870	0.944630	0.953030
H5431	H543	0.281170	0.925630	0.924330
H5441	H544	0.328470	0.981830	0.922430
C7261	C726	0.221170	0.962430	0.004630
C7271	C727	0.212070	0.035830	0.013030
H5451	H545	0.206070	0.024530	0.037330
H5461	H546	0.234970	0.072530	0.012330
H5471	H547	0.179970	0.027530	0.001930
C7281	C728	0.186670	0.934030	0.030430
H5481	H548	0.170570	0.948330	0.043430
C7291	C729	0.174870	0.882030	0.037730
C7301	C730	0.204370	0.783730	0.997430
C7311	C731	0.191370	0.774530	0.962730
H5491	H549	0.168070	0.783630	0.953730
C7321	C732	0.210270	0.752730	0.940230
H5501	H550	0.198470	0.745330	0.916930
C7331	C733	0.247570	0.741730	0.952230
C7341	C734	0.272770	0.720930	0.927930
C7351	C735	0.263070	0.751930	0.986730
H5511	H551	0.288270	0.745030	0.995230
C7361	C736	0.241670	0.771930	0.008930
H5521	H552	0.252270	0.778030	0.032530
Zn421	Zn42	0.631210	0.263820	0.528850
O2091	O209	0.672630	0.256170	0.492330
O2101	O210	0.928130	0.052070	0.229170
O2111	O211	0.751430	0.317470	0.507160
O2121	O212	0.967830	0.038070	0.276070
O2131	O213	0.718830	0.024570	0.464070
O2141	O214	0.749030	0.979970	0.420170
O2151	O215	0.901130	0.344570	0.328270
O2161	O216	0.945430	0.305870	0.292670
C7371	C737	0.722530	0.278270	0.491870
C7381	C738	0.743930	0.253370	0.467270
C7391	C739	0.713430	0.215470	0.443070
H5531	H553	0.678130	0.203370	0.442370
C7401	C740	0.734330	0.195670	0.420270
H5541	H554	0.713730	0.172470	0.402870
C7411	C741	0.785530	0.209470	0.422570
C7421	C742	0.815330	0.245770	0.447770
H5551	H555	0.850030	0.255470	0.449870
C7431	C743	0.796430	0.267170	0.469070
H5561	H556	0.818030	0.291770	0.485470
C7441	C744	0.807030	0.187270	0.398870
C7451	C745	0.794330	0.133370	0.404370
C7461	C746	0.761530	0.104870	0.432670
H5571	H557	0.747930	0.119870	0.447570
C7471	C747	0.749130	0.052870	0.438270
C7481	C748	0.699730	0.047370	0.489970
H5581	H558	0.681130	0.022670	0.508270
H5591	H559	0.728230	0.077370	0.500170
H5601	H560	0.677130	0.056870	0.478270
C7491	C749	0.764830	0.028370	0.414370
C7501	C750	0.766930	0.953570	0.396170
H5611	H561	0.749430	0.917470	0.401570
H5621	H562	0.759730	0.958370	0.372070
H5631	H563	0.803430	0.967770	0.399070
C7511	C751	0.799630	0.058670	0.385470
H5641	H564	0.810930	0.043170	0.369170
C7521	C752	0.815330	0.109970	0.382670
C7531	C753	0.849730	0.141170	0.354370
C7541	C754	0.862230	0.192570	0.350070
C7551	C755	0.900430	0.224270	0.322070
H5651	H565	0.916430	0.210570	0.308270
C7561	C756	0.910830	0.273470	0.317570
C7571	C757	0.972030	0.287970	0.271470
H5661	H566	0.991530	0.277970	0.286370
H5671	H567	0.947830	0.258970	0.257670
H5681	H568	0.995130	0.315170	0.255770
C7581	C758	0.887830	0.295770	0.337970
C7591	C759	0.878730	0.369170	0.346370
H5691	H569	0.872730	0.357870	0.370670
H5701	H570	0.901630	0.405870	0.345670
H5711	H571	0.846630	0.360870	0.335270
C7601	C760	0.853330	0.267370	0.363770
H5721	H572	0.837230	0.281670	0.376770
C7611	C761	0.841530	0.215370	0.371070
C7621	C762	0.871030	0.117070	0.330770
C7631	C763	0.858030	0.107870	0.296070
H5731	H573	0.834730	0.116970	0.287070
C7641	C764	0.876930	0.086070	0.273570
H5741	H574	0.865130	0.078670	0.250270
C7651	C765	0.914230	0.075070	0.285570
C7661	C766	0.939430	0.054270	0.261270
C7671	C767	0.929730	0.085270	0.320070
H5751	H575	0.954930	0.078370	0.328570
C7681	C768	0.908330	0.105270	0.342270
H5761	H576	0.918930	0.111370	0.365870
Zn431	Zn43	0.402850	0.700730	0.862180
O2171	O217	0.410500	0.749800	0.825660
O2181	O218	0.614600	0.209400	0.562500
O2191	O219	0.349200	0.767300	0.840490
O2201	O220	0.628600	0.263100	0.609400
O2211	O221	0.642100	0.027600	0.797400
O2221	O222	0.686700	0.102400	0.753500
O2231	O223	0.322100	0.889900	0.661600
O2241	O224	0.360800	0.972900	0.626000
C7691	C769	0.388400	0.777600	0.825200
C7701	C770	0.413300	0.823900	0.800600
C7711	C771	0.451200	0.831300	0.776400
H5771	H577	0.463300	0.808100	0.775700
C7721	C772	0.471000	0.872000	0.753600
H5781	H578	0.494200	0.874600	0.736200
C7731	C773	0.457200	0.909400	0.755900
C7741	C774	0.420900	0.902900	0.781100
H5791	H579	0.411200	0.927900	0.783200
C7751	C775	0.399500	0.862600	0.802400
H5801	H580	0.374900	0.859600	0.818800
C7761	C776	0.479400	0.953100	0.732200
C7771	C777	0.533300	0.994300	0.737700
C7781	C778	0.561800	0.990000	0.766000
H5811	H581	0.546800	0.961400	0.780900
C7791	C779	0.613800	0.029600	0.771600
C7801	C780	0.619300	0.985700	0.823300
H5821	H582	0.644000	0.991800	0.841600
H5831	H583	0.589300	0.984200	0.833500
H5841	H584	0.609800	0.953600	0.811600
C7811	C781	0.638300	0.069800	0.747700
C7821	C782	0.713100	0.146700	0.729500
H5851	H585	0.749200	0.165300	0.734900
H5861	H586	0.708300	0.134700	0.705400
H5871	H587	0.698900	0.169000	0.732400
C7831	C783	0.608000	0.074300	0.718800
H5881	H588	0.623500	0.101100	0.702500
C7841	C784	0.556700	0.038700	0.716000
C7851	C785	0.525500	0.041900	0.687700
C7861	C786	0.474100	0.003000	0.683400
C7871	C787	0.442400	0.009500	0.655400
H5891	H589	0.456100	0.039200	0.641600
C7881	C788	0.393200	0.970700	0.650900
C7891	C789	0.378700	0.017400	0.604800
H5901	H590	0.388700	0.046900	0.619700
H5911	H591	0.407700	0.022200	0.591000
H5921	H592	0.351500	0.013300	0.589100
C7901	C790	0.370900	0.925400	0.671300
C7911	C791	0.297500	0.842900	0.679700
H5931	H593	0.308800	0.848200	0.704000
H5941	H594	0.260800	0.829100	0.679000
H5951	H595	0.305800	0.819100	0.668600
C7921	C792	0.399300	0.919300	0.697100
H5961	H596	0.385000	0.888900	0.710100
C7931	C793	0.451300	0.959500	0.704400
C7941	C794	0.549600	0.087300	0.664100
C7951	C795	0.558800	0.083500	0.629400
H5971	H597	0.549700	0.051100	0.620400
C7961	C796	0.580600	0.124200	0.606900
H5981	H598	0.588000	0.119800	0.583600
C7971	C797	0.591600	0.172500	0.618900
C7981	C798	0.612400	0.218500	0.594600
C7991	C799	0.581400	0.177800	0.653400
H5991	H599	0.588300	0.209900	0.661900
C8001	C800	0.561400	0.136400	0.675600
H6001	H600	0.555300	0.140900	0.699200
Zn441	Zn44	0.069520	0.034060	0.195510
O2251	O225	0.077170	0.083130	0.158990
O2261	O226	0.281270	0.542730	0.895830
O2271	O227	0.015870	0.100630	0.173820
O2281	O228	0.295270	0.596430	0.942730
O2291	O229	0.308770	0.360930	0.130730
O2301	O230	0.353370	0.435730	0.086830
O2311	O231	0.988770	0.223230	0.994930
O2321	O232	0.027470	0.306230	0.959330
C8011	C801	0.055070	0.110930	0.158530
C8021	C802	0.079970	0.157230	0.133930
C8031	C803	0.117870	0.164630	0.109730
H6011	H601	0.129970	0.141430	0.109030
C8041	C804	0.137670	0.205330	0.086930
H6021	H602	0.160870	0.207930	0.069530
C8051	C805	0.123870	0.242730	0.089230
C8061	C806	0.087570	0.236230	0.114430
H6031	H603	0.077870	0.261230	0.116530
C8071	C807	0.066170	0.195930	0.135730
H6041	H604	0.041570	0.192930	0.152130
C8081	C808	0.146070	0.286430	0.065530
C8091	C809	0.199970	0.327630	0.071030
C8101	C810	0.228470	0.323330	0.099330
H6051	H605	0.213470	0.294730	0.114230
C8111	C811	0.280470	0.362930	0.104930
C8121	C812	0.285970	0.319030	0.156630
H6061	H606	0.310670	0.325130	0.174930
H6071	H607	0.255970	0.317530	0.166830
H6081	H608	0.276470	0.286930	0.144930
C8131	C813	0.304970	0.403130	0.081030
C8141	C814	0.379770	0.480030	0.062830
H6091	H609	0.415870	0.498630	0.068230
H6101	H610	0.374970	0.468030	0.038730
H6111	H611	0.365570	0.502330	0.065730
C8151	C815	0.274670	0.407630	0.052130
H6121	H612	0.290170	0.434430	0.035830
C8161	C816	0.223370	0.372030	0.049330
C8171	C817	0.192170	0.375230	0.021030
C8181	C818	0.140770	0.336330	0.016730
C8191	C819	0.109070	0.342830	0.988730
H6131	H613	0.122770	0.372530	0.974930
C8201	C820	0.059870	0.304030	0.984230
C8211	C821	0.045370	0.350730	0.938130
H6141	H614	0.055370	0.380230	0.953030
H6151	H615	0.074370	0.355530	0.924330
H6161	H616	0.018170	0.346630	0.922430
C8221	C822	0.037570	0.258730	0.004630
C8231	C823	0.964170	0.176230	0.013030
H6171	H617	0.975470	0.181530	0.037330
H6181	H618	0.927470	0.162430	0.012330
H6191	H619	0.972470	0.152430	0.001930
C8241	C824	0.065970	0.252630	0.030430
H6201	H620	0.051670	0.222230	0.043430
C8251	C825	0.117970	0.292830	0.037730
C8261	C826	0.216270	0.420630	0.997430
C8271	C827	0.225470	0.416830	0.962730
H6211	H621	0.216370	0.384430	0.953730
C8281	C828	0.247270	0.457530	0.940230
H6221	H622	0.254670	0.453130	0.916930
C8291	C829	0.258270	0.505830	0.952230
C8301	C830	0.279070	0.551830	0.927930
C8311	C831	0.248070	0.511130	0.986730
H6231	H623	0.254970	0.543230	0.995230
C8321	C832	0.228070	0.469730	0.008930
H6241	H624	0.221970	0.474230	0.032530
Zn451	Zn45	0.736180	0.367400	0.528850
O2331	O233	0.743830	0.416470	0.492330
O2341	O234	0.947930	0.876070	0.229170
O2351	O235	0.682530	0.433970	0.507160
O2361	O236	0.961930	0.929770	0.276070
O2371	O237	0.975430	0.694270	0.464070
O2381	O238	0.020030	0.769070	0.420170
O2391	O239	0.655430	0.556570	0.328270
O2401	O240	0.694130	0.639570	0.292670
C8331	C833	0.721730	0.444270	0.491870
C8341	C834	0.746630	0.490570	0.467270
C8351	C835	0.784530	0.497970	0.443070
H6251	H625	0.796630	0.474770	0.442370
C8361	C836	0.804330	0.538670	0.420270
H6261	H626	0.827530	0.541270	0.402870
C8371	C837	0.790530	0.576070	0.422570
C8381	C838	0.754230	0.569570	0.447770
H6271	H627	0.744530	0.594570	0.449870
C8391	C839	0.732830	0.529270	0.469070
H6281	H628	0.708230	0.526270	0.485470
C8401	C840	0.812730	0.619770	0.398870
C8411	C841	0.866630	0.660970	0.404370
C8421	C842	0.895130	0.656670	0.432670
H6291	H629	0.880130	0.628070	0.447570
C8431	C843	0.947130	0.696270	0.438270
C8441	C844	0.952630	0.652370	0.489970
H6301	H630	0.977330	0.658470	0.508270
H6311	H631	0.922630	0.650870	0.500170
H6321	H632	0.943130	0.620270	0.478270
C8451	C845	0.971630	0.736470	0.414370
C8461	C846	0.046430	0.813370	0.396170
H6331	H633	0.082530	0.831970	0.401570
H6341	H634	0.041630	0.801370	0.372070
H6351	H635	0.032230	0.835670	0.399070
C8471	C847	0.941330	0.740970	0.385470
H6361	H636	0.956830	0.767770	0.369170
C8481	C848	0.890030	0.705370	0.382670
C8491	C849	0.858830	0.708570	0.354370
C8501	C850	0.807430	0.669670	0.350070
C8511	C851	0.775730	0.676170	0.322070
H6371	H637	0.789430	0.705870	0.308270
C8521	C852	0.726530	0.637370	0.317570
C8531	C853	0.712030	0.684070	0.271470
H6381	H638	0.722030	0.713570	0.286370
H6391	H639	0.741030	0.688870	0.257670
H6401	H640	0.684830	0.679970	0.255770
C8541	C854	0.704230	0.592070	0.337970
C8551	C855	0.630830	0.509570	0.346370
H6411	H641	0.642130	0.514870	0.370670
H6421	H642	0.594130	0.495770	0.345670
H6431	H643	0.639130	0.485770	0.335270
C8561	C856	0.732630	0.585970	0.363770
H6441	H644	0.718330	0.555570	0.376770
C8571	C857	0.784630	0.626170	0.371070
C8581	C858	0.882930	0.753970	0.330770
C8591	C859	0.892130	0.750170	0.296070
H6451	H645	0.883030	0.717770	0.287070
C8601	C860	0.913930	0.790870	0.273570
H6461	H646	0.921330	0.786470	0.250270
C8611	C861	0.924930	0.839170	0.285570
C8621	C862	0.945730	0.885170	0.261270
C8631	C863	0.914730	0.844470	0.320070
H6471	H647	0.921630	0.876570	0.328570
C8641	C864	0.894730	0.803070	0.342270
H6481	H648	0.888630	0.807570	0.365870
Zn461	Zn46	0.333330	0.666670	0.933530
O2411	O241	0.333330	0.666670	0.881000
Zn471	Zn47	0.000000	0.000000	0.266860
O2421	O242	0.000000	0.000000	0.214330
Zn481	Zn48	0.666670	0.333330	0.600200
O2431	O243	0.666670	0.333330	0.547670
