data_HUQGOR_clean_PM
_symmetry_space_group_name_H-M	'P1'
_cell_length_a	19.792000
_cell_length_b	20.604000
_cell_length_c	21.471000
_cell_angle_alpha	115.799000
_cell_angle_beta	98.322000
_cell_angle_gamma	100.882000
_symmetry_Int_Tables_number 1

loop_
_symmetry_equiv_pos_as_xyz
'x,y,z'

loop_
_atom_site_label
_atom_site_type_symbol
_atom_site_fract_x
_atom_site_fract_y
_atom_site_fract_z
C11	C1	0.110600	0.339900	0.365100
H11	H1	0.125900	0.311300	0.325600
C21	C2	0.132700	0.430000	0.493200
H21	H2	0.165000	0.460500	0.537700
C31	C3	0.231000	0.394500	0.445500
H31	H3	0.259500	0.431500	0.490200
C41	C4	0.156600	0.389200	0.435000
C51	C5	0.263000	0.357700	0.404600
H41	H4	0.234700	0.324300	0.358600
C61	C6	0.853000	0.426200	0.529100
C71	C7	0.387100	0.409900	0.470000
H51	H5	0.375000	0.451700	0.500800
C81	C8	0.340600	0.356800	0.415500
C91	C9	0.460600	0.404600	0.484200
H61	H6	0.494800	0.442700	0.524600
C101	C10	0.354900	0.303800	0.366400
H71	H7	0.320200	0.269300	0.324600
C111	C11	0.035300	0.340000	0.363300
H81	H8	0.000900	0.309800	0.320100
C121	C12	0.823600	0.213700	0.329700
C131	C13	0.426000	0.298300	0.376800
H91	H9	0.438200	0.261200	0.340000
C141	C14	0.926000	0.501000	0.656600
H101	H10	0.966200	0.491100	0.641200
C151	C15	0.872600	0.560400	0.753900
C161	C16	0.830600	0.141900	0.281100
C171	C17	0.881800	0.445200	0.264300
C181	C18	0.886400	0.400000	0.301200
C191	C19	0.877400	0.601800	0.829800
C201	C20	0.878300	0.532500	0.192900
C211	C21	0.870800	0.411000	0.188700
H111	H11	0.862300	0.359300	0.161800
C221	C22	0.891200	0.523700	0.303700
H121	H12	0.898600	0.547200	0.353200
C231	C23	0.872800	0.457600	0.154700
H131	H13	0.870500	0.436600	0.106100
C241	C24	0.769700	0.080400	0.239200
H141	H14	0.724300	0.086700	0.237600
C251	C25	0.859000	0.472900	0.607600
C261	C26	0.930400	0.543800	0.728200
H151	H15	0.974600	0.562400	0.760700
C271	C27	0.913400	0.653100	0.190600
H161	H16	0.935400	0.676000	0.239300
C281	C28	0.926600	0.630000	0.951800
H171	H17	0.959100	0.626300	0.985200
C291	C29	0.881500	0.674100	0.974800
C301	C30	0.798800	0.487000	0.631100
H181	H18	0.754300	0.466900	0.598600
C311	C31	0.779400	0.009400	0.200000
H191	H19	0.739700	0.967700	0.176500
C321	C32	0.062600	0.426300	0.486400
H201	H20	0.047400	0.454100	0.526300
C331	C33	0.844700	0.999300	0.195000
C341	C34	0.851200	0.921100	0.151200
C351	C35	0.877400	0.664400	0.083900
C361	C36	0.821200	0.790600	0.120900
H211	H21	0.794000	0.751000	0.124500
C371	C37	0.923900	0.592200	0.881900
H221	H22	0.952000	0.559800	0.866900
C381	C38	0.805400	0.530900	0.702700
H231	H23	0.765400	0.541700	0.718100
C391	C39	0.911100	0.839900	0.077100
H241	H24	0.945500	0.834400	0.051400
C401	C40	0.846400	0.547700	0.086800
H251	H25	0.826100	0.495900	0.061400
C411	C41	0.836900	0.685200	0.925400
H261	H26	0.810100	0.718900	0.941200
C421	C42	0.868200	0.777500	0.081700
C431	C43	0.900900	0.059000	0.231600
H271	H27	0.946300	0.053700	0.229600
C441	C44	0.916500	0.695400	0.154300
H281	H28	0.945000	0.744900	0.177600
C451	C45	0.833100	0.647300	0.855700
H291	H29	0.799800	0.651300	0.823200
C461	C46	0.878300	0.578600	0.155000
C471	C47	0.889200	0.563700	0.267500
H301	H30	0.895400	0.615100	0.293800
C481	C48	0.811100	0.862400	0.157100
H311	H31	0.778100	0.870000	0.184400
C491	C49	0.842000	0.588800	0.052000
H321	H32	0.814300	0.565300	0.005100
C501	C50	0.892600	0.130400	0.273400
H331	H33	0.933000	0.171400	0.296800
C511	C51	0.897400	0.907600	0.113300
H341	H34	0.924000	0.948000	0.110300
N11	N1	0.477500	0.346900	0.440300
N21	N2	0.014400	0.382500	0.422200
N31	N3	0.883600	0.709000	0.050800
O11	O1	0.762200	0.222000	0.330300
O21	O2	0.880900	0.264500	0.370100
O31	O3	0.908900	0.416600	0.511700
O41	O4	0.885100	0.431300	0.366200
O51	O5	0.789500	0.401200	0.486800
O61	O6	0.893300	0.335300	0.269500
Zn11	Zn1	0.909310	0.370720	0.409870
Zn21	Zn2	0.737850	0.297480	0.412030
C521	C52	0.588200	0.201600	0.376400
C531	C53	0.550900	0.076800	0.272000
H351	H35	0.516900	0.092300	0.251700
C541	C54	0.654200	0.381200	0.362300
C551	C55	0.651400	0.424400	0.324000
C561	C56	0.655900	0.033500	0.324700
H361	H36	0.691900	0.019100	0.343800
C571	C57	0.646800	0.512000	0.252800
C581	C58	0.598300	0.126100	0.336800
C591	C59	0.627500	0.646400	0.031700
C601	C60	0.645800	0.556500	0.215800
C611	C61	0.631200	0.758400	0.143200
C621	C62	0.650300	0.104500	0.361900
H371	H37	0.683200	0.138200	0.405300
C631	C63	0.610400	0.984200	0.261300
C641	C64	0.603700	0.430400	0.661900
C651	C65	0.616900	0.902900	0.217400
C661	C66	0.659100	0.678000	0.995400
H381	H38	0.684600	0.728600	0.020100
C671	C67	0.655900	0.801300	0.217800
H391	H39	0.678300	0.781000	0.243100
C681	C68	0.615900	0.507900	0.694800
H401	H40	0.621500	0.532800	0.667800
C691	C69	0.655000	0.638300	0.924100
H411	H41	0.677000	0.661900	0.900900
C701	C70	0.698300	0.476000	0.252100
H421	H42	0.731800	0.478800	0.226500
C711	C71	0.593600	0.498300	0.285100
H431	H43	0.555800	0.518600	0.282200
C721	C72	0.554200	0.004800	0.237900
H441	H44	0.517800	0.969000	0.198200
C731	C73	0.616700	0.560500	0.885300
C741	C74	0.613200	0.516300	0.809100
C751	C75	0.600100	0.794200	0.109500
H451	H45	0.585200	0.769500	0.059800
C761	C76	0.584500	0.525000	0.921700
H461	H46	0.560300	0.474100	0.897400
C771	C77	0.590400	0.864600	0.146400
H471	H47	0.565900	0.884700	0.122400
C781	C78	0.638900	0.643500	0.145200
C791	C79	0.648700	0.870800	0.254700
H481	H48	0.664800	0.896900	0.304300
C801	C80	0.619900	0.548100	0.766000
H491	H49	0.627600	0.599800	0.785800
C811	C81	0.701200	0.434600	0.290000
H501	H50	0.738700	0.413700	0.291500
C821	C82	0.594800	0.395200	0.704900
H511	H51	0.584600	0.343300	0.685100
C831	C83	0.589800	0.568700	0.995800
H521	H52	0.568800	0.546600	0.020600
C841	C84	0.597900	0.385500	0.587100
C851	C85	0.587200	0.631200	0.177000
H531	H53	0.549300	0.651400	0.174800
C861	C86	0.694800	0.568600	0.183600
H541	H54	0.731200	0.545800	0.183000
C871	C87	0.592800	0.457700	0.320200
H551	H55	0.556100	0.451000	0.341400
C881	C88	0.695100	0.614500	0.149800
H561	H56	0.732900	0.624600	0.131100
C891	C89	0.589400	0.589800	0.212100
H571	H57	0.553400	0.583100	0.234000
C901	C90	0.601500	0.438800	0.776300
H581	H58	0.598000	0.415200	0.804500
N41	N4	0.633900	0.684900	0.107700
O71	O7	0.646500	0.256200	0.426700
O81	O8	0.694600	0.339100	0.349600
O91	O9	0.617600	0.419000	0.552500
O101	O10	0.533000	0.215800	0.367900
O111	O11	0.569800	0.318400	0.554300
O121	O12	0.616200	0.388800	0.404200
Zn31	Zn3	0.577200	0.333410	0.452330
C911	C91	0.889400	0.660100	0.634900
H591	H59	0.874100	0.688700	0.674400
C921	C92	0.867300	0.570000	0.506800
H601	H60	0.835000	0.539500	0.462300
C931	C93	0.769000	0.605500	0.554500
H611	H61	0.740500	0.568500	0.509800
C941	C94	0.843400	0.610800	0.565000
C951	C95	0.737000	0.642300	0.595400
H621	H62	0.765300	0.675700	0.641400
C961	C96	0.147000	0.573800	0.470900
C971	C97	0.612900	0.590100	0.530000
H631	H63	0.625000	0.548300	0.499200
C981	C98	0.659400	0.643200	0.584500
C991	C99	0.539400	0.595400	0.515800
H641	H64	0.505200	0.557300	0.475400
C1001	C100	0.645100	0.696200	0.633600
H651	H65	0.679800	0.730700	0.675400
C1011	C101	0.964700	0.660000	0.636700
H661	H66	0.999100	0.690200	0.679900
C1021	C102	0.176400	0.786300	0.670300
C1031	C103	0.574000	0.701700	0.623200
H671	H67	0.561800	0.738800	0.660000
C1041	C104	0.074000	0.499000	0.343400
H681	H68	0.033800	0.508900	0.358800
C1051	C105	0.127400	0.439600	0.246100
C1061	C106	0.169400	0.858100	0.718900
C1071	C107	0.118200	0.554800	0.735700
C1081	C108	0.113600	0.600000	0.698800
C1091	C109	0.122600	0.398200	0.170200
C1101	C110	0.121700	0.467500	0.807100
C1111	C111	0.129200	0.589000	0.811300
H691	H69	0.137700	0.640700	0.838200
C1121	C112	0.108800	0.476300	0.696300
H701	H70	0.101400	0.452800	0.646800
C1131	C113	0.127200	0.542400	0.845300
H711	H71	0.129500	0.563400	0.893900
C1141	C114	0.230300	0.919600	0.760800
H721	H72	0.275700	0.913300	0.762400
C1151	C115	0.141000	0.527100	0.392400
C1161	C116	0.069600	0.456200	0.271800
H731	H73	0.025400	0.437600	0.239300
C1171	C117	0.086600	0.346900	0.809400
H741	H74	0.064600	0.324000	0.760700
C1181	C118	0.073400	0.370000	0.048200
H751	H75	0.040900	0.373700	0.014800
C1191	C119	0.118500	0.325900	0.025200
C1201	C120	0.201200	0.513000	0.368900
H761	H76	0.245700	0.533100	0.401400
C1211	C121	0.220600	0.990600	0.800000
H771	H77	0.260300	0.032300	0.823500
C1221	C122	0.937400	0.573700	0.513600
H781	H78	0.952600	0.545900	0.473700
C1231	C123	0.155300	0.000700	0.805000
C1241	C124	0.148800	0.078900	0.848800
C1251	C125	0.122600	0.335600	0.916100
C1261	C126	0.178800	0.209400	0.879100
H791	H79	0.206000	0.249000	0.875500
C1271	C127	0.076100	0.407800	0.118100
H801	H80	0.048000	0.440200	0.133100
C1281	C128	0.194600	0.469100	0.297300
H811	H81	0.234600	0.458300	0.281900
C1291	C129	0.088900	0.160100	0.922900
H821	H82	0.054500	0.165600	0.948600
C1301	C130	0.153600	0.452300	0.913200
H831	H83	0.173900	0.504100	0.938600
C1311	C131	0.163100	0.314800	0.074600
H841	H84	0.189900	0.281100	0.058800
C1321	C132	0.131800	0.222500	0.918300
C1331	C133	0.099100	0.941000	0.768400
H851	H85	0.053700	0.946300	0.770400
C1341	C134	0.083500	0.304600	0.845700
H861	H86	0.055000	0.255100	0.822400
C1351	C135	0.166900	0.352700	0.144300
H871	H87	0.200200	0.348700	0.176800
C1361	C136	0.121700	0.421400	0.845000
C1371	C137	0.110800	0.436300	0.732500
H881	H88	0.104600	0.384900	0.706200
C1381	C138	0.188900	0.137600	0.842900
H891	H89	0.221900	0.130000	0.815600
C1391	C139	0.158000	0.411200	0.948000
H901	H90	0.185700	0.434700	0.994900
C1401	C140	0.107400	0.869600	0.726600
H911	H91	0.067000	0.828600	0.703200
C1411	C141	0.102600	0.092400	0.886700
H921	H92	0.076000	0.052000	0.889700
N51	N5	0.522500	0.653100	0.559700
N61	N6	0.985600	0.617500	0.577800
N71	N7	0.116400	0.291000	0.949200
O131	O13	0.237800	0.778000	0.669700
O141	O14	0.119100	0.735500	0.629900
O151	O15	0.091100	0.583400	0.488300
O161	O16	0.114900	0.568700	0.633800
O171	O17	0.210500	0.598800	0.513200
O181	O18	0.106700	0.664700	0.730500
Zn41	Zn4	0.090690	0.629280	0.590130
Zn51	Zn5	0.262150	0.702520	0.587970
C1421	C142	0.411800	0.798400	0.623600
C1431	C143	0.449100	0.923200	0.728000
H931	H93	0.483100	0.907700	0.748300
C1441	C144	0.345800	0.618800	0.637700
C1451	C145	0.348600	0.575600	0.676000
C1461	C146	0.344100	0.966500	0.675300
H941	H94	0.308100	0.980900	0.656200
C1471	C147	0.353200	0.488000	0.747200
C1481	C148	0.401700	0.873900	0.663200
C1491	C149	0.372500	0.353600	0.968300
C1501	C150	0.354200	0.443500	0.784200
C1511	C151	0.368800	0.241600	0.856800
C1521	C152	0.349700	0.895500	0.638100
H951	H95	0.316800	0.861800	0.594700
C1531	C153	0.389600	0.015800	0.738700
C1541	C154	0.396300	0.569600	0.338100
C1551	C155	0.383100	0.097100	0.782600
C1561	C156	0.340900	0.322000	0.004600
H961	H96	0.315400	0.271400	0.979900
C1571	C157	0.344100	0.198700	0.782200
H971	H97	0.321700	0.219000	0.756900
C1581	C158	0.384100	0.492100	0.305200
H981	H98	0.378500	0.467200	0.332200
C1591	C159	0.345000	0.361700	0.075900
H991	H99	0.323000	0.338100	0.099100
C1601	C160	0.301700	0.524000	0.747900
H1001	H100	0.268200	0.521200	0.773500
C1611	C161	0.406400	0.501700	0.714900
H1011	H101	0.444200	0.481400	0.717800
C1621	C162	0.445800	0.995200	0.762100
H1021	H102	0.482200	0.031000	0.801800
C1631	C163	0.383300	0.439500	0.114700
C1641	C164	0.386800	0.483700	0.190900
C1651	C165	0.399900	0.205800	0.890500
H1031	H103	0.414800	0.230500	0.940200
C1661	C166	0.415500	0.475000	0.078300
H1041	H104	0.439700	0.525900	0.102600
C1671	C167	0.409600	0.135400	0.853600
H1051	H105	0.434100	0.115300	0.877600
C1681	C168	0.361100	0.356500	0.854800
C1691	C169	0.351300	0.129200	0.745300
H1061	H106	0.335200	0.103100	0.695700
C1701	C170	0.380100	0.451900	0.234000
H1071	H107	0.372400	0.400200	0.214200
C1711	C171	0.298800	0.565400	0.710000
H1081	H108	0.261300	0.586300	0.708500
C1721	C172	0.405200	0.604800	0.295100
H1091	H109	0.415400	0.656700	0.314900
C1731	C173	0.410200	0.431300	0.004200
H1101	H110	0.431200	0.453400	0.979400
C1741	C174	0.402100	0.614500	0.412900
C1751	C175	0.412800	0.368800	0.823000
H1111	H111	0.450700	0.348600	0.825200
C1761	C176	0.305200	0.431400	0.816400
H1121	H112	0.268800	0.454200	0.817000
C1771	C177	0.407200	0.542300	0.679800
H1131	H113	0.443900	0.549000	0.658600
C1781	C178	0.304900	0.385500	0.850200
H1141	H114	0.267100	0.375400	0.868900
C1791	C179	0.410600	0.410200	0.787900
H1151	H115	0.446600	0.416900	0.766000
C1801	C180	0.398500	0.561200	0.223700
H1161	H116	0.402000	0.584800	0.195500
N81	N8	0.366100	0.315100	0.892300
O191	O19	0.353500	0.743800	0.573300
O201	O20	0.305400	0.660900	0.650400
O211	O21	0.382400	0.581000	0.447500
O221	O22	0.467000	0.784200	0.632100
O231	O23	0.430200	0.681600	0.445700
O241	O24	0.383800	0.611200	0.595800
Zn61	Zn6	0.422800	0.666590	0.547670
