data_HUQHOS_clean_PM
_symmetry_space_group_name_H-M	'P1'
_cell_length_a	17.898000
_cell_length_b	20.275000
_cell_length_c	21.796000
_cell_angle_alpha	63.375000
_cell_angle_beta	76.644000
_cell_angle_gamma	84.876000
_symmetry_Int_Tables_number 1

loop_
_symmetry_equiv_pos_as_xyz
'x,y,z'

loop_
_atom_site_label
_atom_site_type_symbol
_atom_site_fract_x
_atom_site_fract_y
_atom_site_fract_z
C11	C1	0.053890	0.041470	0.135880
H11	H1	0.019000	0.031900	0.177900
C21	C2	0.289000	0.108300	0.096630
H21	H2	0.252600	0.129800	0.119800
C31	C3	0.129480	0.047700	0.133020
H31	H3	0.145700	0.043600	0.172200
C41	C4	0.365180	0.115720	0.092280
H41	H4	0.379800	0.142500	0.112900
C51	C5	0.640440	0.510390	0.359800
C61	C6	0.638420	0.663920	0.285700
C71	C7	0.183190	0.060230	0.070630
C81	C8	0.625910	0.981260	0.132960
C91	C9	0.637040	0.744980	0.245760
C101	C10	0.567520	0.190480	0.918830
C111	C11	0.638430	0.397770	0.469940
C121	C12	0.320990	0.036250	0.034290
H51	H5	0.307700	0.007900	0.014600
C131	C13	0.078420	0.059590	0.020710
H61	H6	0.060500	0.063400	0.982500
C141	C14	0.600500	0.280840	0.237770
C151	C15	0.582480	0.210660	0.157010
C161	C16	0.877740	0.917810	0.194820
C171	C17	0.679230	0.866940	0.217740
H71	H7	0.710200	0.896700	0.224200
C181	C18	0.619490	0.296510	0.692830
C191	C19	0.880560	0.249660	0.668940
C201	C20	0.573730	0.173340	0.113800
C211	C21	0.265690	0.067990	0.066150
C221	C22	0.884410	0.791450	0.200630
H81	H8	0.886400	0.812400	0.152600
C231	C23	0.630990	0.390950	0.360070
C241	C24	0.631200	0.899390	0.171180
C251	C25	0.156270	0.065470	0.013700
H91	H9	0.190200	0.072800	0.971700
C261	C26	0.610920	0.318560	0.280230
C271	C27	0.827790	0.128400	0.161120
C281	C28	0.600360	0.185310	0.803100
H101	H10	0.598700	0.134100	0.827100
C291	C29	0.843820	0.099790	0.969490
C301	C30	0.659740	0.295590	0.575600
H111	H11	0.676700	0.247700	0.597900
C311	C31	0.682260	0.791310	0.254860
H121	H12	0.714700	0.770900	0.286300
C321	C32	0.577030	0.620520	0.296930
H131	H13	0.534300	0.643100	0.278800
C331	C33	0.590200	0.227860	0.840200
C341	C34	0.576740	0.544130	0.334360
H141	H14	0.534000	0.516200	0.342100
C351	C35	0.664950	0.327010	0.504010
H151	H15	0.686200	0.300800	0.478600
C361	C36	0.590180	0.778100	0.197390
H161	H16	0.561100	0.748700	0.188800
C371	C37	0.874120	0.836240	0.234750
C381	C38	0.396710	0.046580	0.031540
H171	H17	0.433800	0.025000	0.009000
C391	C39	0.924040	0.151260	0.848910
H181	H18	0.967100	0.138000	0.868700
C401	C40	0.895520	0.602880	0.346830
C411	C41	0.584380	0.287700	0.352470
H191	H19	0.559800	0.241800	0.375200
C421	C42	0.886160	0.682400	0.309050
C431	C43	0.838700	0.155480	0.211520
C441	C44	0.609680	0.437320	0.508690
H201	H20	0.592400	0.485100	0.486500
C451	C45	0.900410	0.328970	0.523590
C461	C46	0.860130	0.216410	0.298530
C471	C47	0.644430	0.258730	0.134770
H211	H21	0.679800	0.267600	0.093100
C481	C48	0.658910	0.422210	0.287410
H221	H22	0.684500	0.467600	0.264900
C491	C49	0.703010	0.551660	0.349500
H231	H23	0.746000	0.528800	0.366900
C501	C50	0.612840	0.219760	0.731010
H241	H24	0.617000	0.191200	0.706900
C511	C51	0.852640	0.132980	0.891500
C521	C52	0.607010	0.405110	0.580180
H251	H25	0.589300	0.432600	0.605000
C531	C53	0.596310	0.304110	0.803700
H261	H26	0.589000	0.332600	0.828200
C541	C54	0.629690	0.333580	0.615800
C551	C55	0.797900	0.185790	0.789850
H271	H27	0.754900	0.196400	0.770000
C561	C56	0.586280	0.853530	0.162220
H281	H28	0.552800	0.874200	0.131800
C571	C57	0.540310	0.233260	0.258410
H291	H29	0.504900	0.224200	0.300100
C581	C58	0.593290	0.323130	0.391610
H301	H30	0.573700	0.301200	0.439900
C591	C59	0.838070	0.350940	0.376850
H311	H31	0.806500	0.390000	0.376800
C601	C60	0.871310	0.727640	0.344160
H321	H32	0.865200	0.706200	0.392700
C611	C61	0.788370	0.149220	0.861890
H331	H33	0.739500	0.135600	0.890400
C621	C62	0.701250	0.627040	0.313300
H341	H34	0.743600	0.654600	0.306900
C631	C63	0.869550	0.206960	0.746580
C641	C64	0.649120	0.386790	0.248670
H351	H35	0.668400	0.408800	0.200400
C651	C65	0.786000	0.201450	0.296980
H361	H36	0.743600	0.212200	0.324700
C661	C66	0.530500	0.197750	0.218590
H371	H37	0.489000	0.165600	0.233700
C671	C67	0.839570	0.230970	0.631910
H381	H38	0.804900	0.191400	0.655900
C681	C68	0.891640	0.717130	0.236710
H391	H39	0.900500	0.688700	0.212200
C691	C69	0.613110	0.337800	0.731340
H401	H40	0.620400	0.388700	0.707400
C701	C70	0.775600	0.170580	0.253980
H411	H41	0.726300	0.160000	0.253600
C711	C71	0.653060	0.293530	0.175540
H421	H42	0.694500	0.325600	0.160800
C721	C72	0.898100	0.331970	0.411640
C731	C73	0.933180	0.189250	0.776780
H431	H43	0.982100	0.203000	0.748500
C741	C74	0.865640	0.802990	0.307750
H441	H44	0.856100	0.831900	0.331800
C751	C75	0.941700	0.348840	0.560030
H451	H45	0.976000	0.388700	0.535800
C761	C76	0.871750	0.254900	0.339800
C771	C77	0.849740	0.270460	0.559700
H461	H46	0.822000	0.257200	0.535600
C781	C78	0.936000	0.561800	0.313330
H471	H47	0.959500	0.586200	0.266000
C791	C79	0.942100	0.487460	0.347260
H481	H48	0.970700	0.462600	0.322900
C801	C80	0.825250	0.311540	0.342080
H491	H49	0.784100	0.323900	0.319800
C811	C81	0.906880	0.447490	0.417420
C821	C82	0.931480	0.309390	0.631840
H501	H50	0.959100	0.322900	0.655900
C831	C83	0.911970	0.167390	0.215070
H511	H51	0.954200	0.154800	0.188700
C841	C84	0.922690	0.198200	0.257970
H521	H52	0.972200	0.206700	0.259600
C851	C85	0.862700	0.562710	0.417680
H531	H53	0.836200	0.587600	0.442800
C861	C86	0.868300	0.486890	0.451790
H541	H54	0.845300	0.462000	0.499200
C871	C87	0.944200	0.273800	0.411100
H551	H55	0.984000	0.259900	0.435100
C881	C88	0.931600	0.236500	0.375370
H561	H56	0.963600	0.198000	0.374800
N11	N1	0.420190	0.085770	0.059230
N21	N2	0.027080	0.048600	0.080350
N31	N3	0.641140	0.430920	0.396910
N41	N4	0.910930	0.370280	0.449280
O11	O1	0.761400	0.116010	0.160060
O21	O2	0.905530	0.090530	0.990800
O31	O3	0.575580	0.006040	0.097290
O41	O4	0.778310	0.083510	0.008120
O51	O5	0.672260	0.018840	0.140960
O61	O6	0.628700	0.170910	0.067090
O71	O7	0.879020	0.944180	0.128730
O81	O8	0.509990	0.145490	0.123340
O91	O9	0.578410	0.122530	0.950490
O101	O10	0.887400	0.121740	0.121110
O111	O11	0.883940	0.957080	0.223280
O121	O12	0.539130	0.228030	0.951060
Zn11	Zn1	0.534960	0.106120	0.049590
Zn21	Zn2	0.727710	0.117020	0.080630
Zn31	Zn3	0.911410	0.045800	0.088970
C891	C89	0.946110	0.958530	0.864120
H571	H57	0.981000	0.968100	0.822100
C901	C90	0.711000	0.891700	0.903370
H581	H58	0.747400	0.870200	0.880200
C911	C91	0.870520	0.952300	0.866980
H591	H59	0.854300	0.956400	0.827800
C921	C92	0.634820	0.884280	0.907720
H601	H60	0.620200	0.857500	0.887100
C931	C93	0.359560	0.489610	0.640200
C941	C94	0.361580	0.336080	0.714300
C951	C95	0.816810	0.939770	0.929370
C961	C96	0.374090	0.018740	0.867040
C971	C97	0.362960	0.255020	0.754240
C981	C98	0.432480	0.809520	0.081170
C991	C99	0.361570	0.602230	0.530060
C1001	C100	0.679010	0.963750	0.965710
H611	H61	0.692300	0.992100	0.985400
C1011	C101	0.921580	0.940410	0.979290
H621	H62	0.939500	0.936600	0.017500
C1021	C102	0.399500	0.719160	0.762230
C1031	C103	0.417520	0.789340	0.842990
C1041	C104	0.122260	0.082190	0.805180
C1051	C105	0.320770	0.133060	0.782260
H631	H63	0.289800	0.103300	0.775800
C1061	C106	0.380510	0.703490	0.307170
C1071	C107	0.119440	0.750340	0.331060
C1081	C108	0.426270	0.826660	0.886200
C1091	C109	0.734310	0.932010	0.933850
C1101	C110	0.115590	0.208550	0.799370
H641	H64	0.113600	0.187600	0.847400
C1111	C111	0.369010	0.609050	0.639930
C1121	C112	0.368800	0.100610	0.828820
C1131	C113	0.843730	0.934530	0.986300
H651	H65	0.809800	0.927200	0.028300
C1141	C114	0.389080	0.681440	0.719770
C1151	C115	0.172210	0.871600	0.838880
C1161	C116	0.399640	0.814690	0.196900
H661	H66	0.401300	0.865900	0.172900
C1171	C117	0.156180	0.900210	0.030510
C1181	C118	0.340260	0.704410	0.424400
H671	H67	0.323300	0.752300	0.402100
C1191	C119	0.317740	0.208690	0.745140
H681	H68	0.285300	0.229100	0.713700
C1201	C120	0.422970	0.379480	0.703070
H691	H69	0.465700	0.356900	0.721200
C1211	C121	0.409800	0.772140	0.159800
C1221	C122	0.423260	0.455870	0.665640
H701	H70	0.466000	0.483800	0.657900
C1231	C123	0.335050	0.672990	0.495990
H711	H71	0.313800	0.699200	0.521400
C1241	C124	0.409820	0.221900	0.802610
H721	H72	0.438900	0.251300	0.811200
C1251	C125	0.125880	0.163760	0.765250
C1261	C126	0.603290	0.953420	0.968460
H731	H73	0.566200	0.975000	0.991000
C1271	C127	0.075960	0.848740	0.151090
H741	H74	0.032900	0.862000	0.131300
C1281	C128	0.104480	0.397120	0.653170
C1291	C129	0.415620	0.712300	0.647530
H751	H75	0.440200	0.758200	0.624800
C1301	C130	0.113840	0.317600	0.690950
C1311	C131	0.161300	0.844520	0.788480
C1321	C132	0.390320	0.562680	0.491310
H761	H76	0.407600	0.514900	0.513500
C1331	C133	0.099590	0.671030	0.476410
C1341	C134	0.139870	0.783590	0.701470
C1351	C135	0.355570	0.741270	0.865230
H771	H77	0.320200	0.732400	0.906900
C1361	C136	0.341090	0.577790	0.712590
H781	H78	0.315500	0.532400	0.735100
C1371	C137	0.296990	0.448340	0.650500
H791	H79	0.254000	0.471200	0.633100
C1381	C138	0.387160	0.780240	0.268990
H801	H80	0.383000	0.808800	0.293100
C1391	C139	0.147360	0.867020	0.108500
C1401	C140	0.392990	0.594890	0.419820
H811	H81	0.410700	0.567400	0.395000
C1411	C141	0.403690	0.695890	0.196300
H821	H82	0.411000	0.667400	0.171800
C1421	C142	0.370310	0.666420	0.384200
C1431	C143	0.202100	0.814210	0.210150
H831	H83	0.245100	0.803600	0.230000
C1441	C144	0.413720	0.146470	0.837780
H841	H84	0.447200	0.125800	0.868200
C1451	C145	0.459690	0.766740	0.741590
H851	H85	0.495100	0.775800	0.699900
C1461	C146	0.406710	0.676870	0.608390
H861	H86	0.426300	0.698800	0.560100
C1471	C147	0.161930	0.649060	0.623150
H871	H87	0.193500	0.610000	0.623200
C1481	C148	0.128690	0.272360	0.655840
H881	H88	0.134800	0.293800	0.607300
C1491	C149	0.211630	0.850780	0.138110
H891	H89	0.260500	0.864400	0.109600
C1501	C150	0.298750	0.372960	0.686700
H901	H90	0.256400	0.345400	0.693100
C1511	C151	0.130450	0.793040	0.253420
C1521	C152	0.350880	0.613210	0.751330
H911	H91	0.331600	0.591200	0.799600
C1531	C153	0.214000	0.798550	0.703020
H921	H92	0.256400	0.787800	0.675300
C1541	C154	0.469500	0.802250	0.781410
H931	H93	0.511000	0.834400	0.766300
C1551	C155	0.160430	0.769030	0.368090
H941	H94	0.195100	0.808600	0.344100
C1561	C156	0.108360	0.282870	0.763290
H951	H95	0.099500	0.311300	0.787800
C1571	C157	0.386890	0.662200	0.268660
H961	H96	0.379600	0.611300	0.292600
C1581	C158	0.224400	0.829420	0.746020
H971	H97	0.273700	0.840000	0.746400
C1591	C159	0.346940	0.706470	0.824460
H981	H98	0.305500	0.674400	0.839200
C1601	C160	0.101900	0.668030	0.588360
C1611	C161	0.066820	0.810750	0.223220
H991	H99	0.017900	0.797000	0.251500
C1621	C162	0.134360	0.197010	0.692250
H1001	H100	0.143900	0.168100	0.668200
C1631	C163	0.058300	0.651160	0.439970
H1011	H101	0.024000	0.611300	0.464200
C1641	C164	0.128250	0.745100	0.660200
C1651	C165	0.150260	0.729540	0.440300
H1021	H102	0.178000	0.742800	0.464400
C1661	C166	0.064000	0.438200	0.686670
H1031	H103	0.040500	0.413800	0.734000
C1671	C167	0.057900	0.512540	0.652740
H1041	H104	0.029300	0.537400	0.677100
C1681	C168	0.174750	0.688460	0.657920
H1051	H105	0.215900	0.676100	0.680200
C1691	C169	0.093120	0.552510	0.582580
C1701	C170	0.068520	0.690610	0.368160
H1061	H106	0.040900	0.677100	0.344100
C1711	C171	0.088030	0.832610	0.784930
H1071	H107	0.045800	0.845200	0.811300
C1721	C172	0.077310	0.801800	0.742030
H1081	H108	0.027800	0.793300	0.740400
C1731	C173	0.137300	0.437290	0.582320
H1091	H109	0.163800	0.412400	0.557200
C1741	C174	0.131700	0.513110	0.548210
H1101	H110	0.154700	0.538000	0.500800
C1751	C175	0.055800	0.726200	0.588900
H1111	H111	0.016000	0.740100	0.564900
C1761	C176	0.068400	0.763500	0.624630
H1121	H112	0.036400	0.802000	0.625200
N51	N5	0.579810	0.914230	0.940770
N61	N6	0.972920	0.951400	0.919650
N71	N7	0.358860	0.569080	0.603090
N81	N8	0.089070	0.629720	0.550720
O131	O13	0.238600	0.883990	0.839940
O141	O14	0.094470	0.909470	0.009200
O151	O15	0.424420	0.993960	0.902710
O161	O16	0.221690	0.916490	0.991880
O171	O17	0.327740	0.981160	0.859040
O181	O18	0.371300	0.829090	0.932910
O191	O19	0.120980	0.055820	0.871270
O201	O20	0.490010	0.854510	0.876660
O211	O21	0.421590	0.877470	0.049510
O221	O22	0.112600	0.878260	0.878890
O231	O23	0.116060	0.042920	0.776720
O241	O24	0.460870	0.771970	0.048940
Zn41	Zn4	0.465040	0.893880	0.950410
Zn51	Zn5	0.272290	0.882980	0.919370
Zn61	Zn6	0.088590	0.954200	0.911030
