data_HUQHIM_clean_PM
_symmetry_space_group_name_H-M	'P1'
_cell_length_a	21.210000
_cell_length_b	36.410000
_cell_length_c	19.419000
_cell_angle_alpha	90.000000
_cell_angle_beta	94.425000
_cell_angle_gamma	90.000000
_symmetry_Int_Tables_number 1

loop_
_symmetry_equiv_pos_as_xyz
'x,y,z'

loop_
_atom_site_label
_atom_site_type_symbol
_atom_site_fract_x
_atom_site_fract_y
_atom_site_fract_z
C11	C1	0.760200	0.549200	0.723200
H11	H1	0.790600	0.555100	0.758600
C21	C2	0.252000	0.208100	0.007800
H21	H2	0.218600	0.221100	0.024400
C31	C3	0.228700	0.186500	0.149400
C41	C4	0.261900	0.207560	0.938500
H31	H3	0.234700	0.221300	0.908800
C51	C5	0.343900	0.170300	0.026400
H41	H4	0.373700	0.158000	0.055400
C61	C6	0.294200	0.188270	0.051900
C71	C7	0.347900	0.171160	0.957300
H51	H5	0.381200	0.158500	0.939800
C81	C8	0.098600	0.211740	0.480200
C91	C9	0.042200	0.234070	0.489800
C101	C10	0.046500	0.271850	0.500600
H61	H6	0.086000	0.283100	0.502900
C111	C11	0.933800	0.276900	0.505800
C121	C12	0.994100	0.292610	0.507800
H71	H7	0.998400	0.317800	0.514100
C131	C13	0.379600	0.226780	0.547500
C141	C14	0.325000	0.202910	0.552500
C151	C15	0.461300	0.265600	0.601200
H81	H8	0.480700	0.276000	0.641100
C161	C16	0.168600	0.169670	0.319600
H91	H9	0.134700	0.157600	0.337100
C171	C17	0.173200	0.169670	0.249800
H101	H10	0.142300	0.158300	0.220700
C181	C18	0.539900	0.297860	0.534500
C191	C19	0.454000	0.258090	0.479600
H111	H11	0.468100	0.263500	0.436600
C201	C20	0.409800	0.242950	0.606100
H121	H12	0.395000	0.238400	0.649100
C211	C21	0.983300	0.218280	0.484700
H131	H13	0.979100	0.193400	0.474400
C221	C22	0.402500	0.234900	0.483500
H141	H14	0.383100	0.224700	0.443400
C231	C23	0.929100	0.239300	0.495000
H151	H15	0.889900	0.227900	0.494400
C241	C24	0.484600	0.273150	0.537500
C251	C25	0.649600	0.340310	0.529500
C261	C26	0.224000	0.186660	0.222900
C271	C27	0.258400	0.203620	0.337600
H161	H16	0.288000	0.215300	0.368000
C281	C28	0.266100	0.205060	0.268400
H171	H17	0.299300	0.218300	0.252100
C291	C29	0.870600	0.335110	0.490900
H181	H18	0.904600	0.346400	0.471900
C301	C30	0.759800	0.441520	0.634900
H191	H19	0.791700	0.447800	0.668300
C311	C31	0.765000	0.339180	0.527500
C321	C32	0.715800	0.504850	0.642100
C331	C33	0.582700	0.292130	0.483900
H201	H20	0.574300	0.273800	0.451100
C341	C34	0.877100	0.298880	0.513100
C351	C35	0.551800	0.326140	0.577200
H211	H21	0.522500	0.331800	0.608700
C361	C36	0.712400	0.395680	0.557500
C371	C37	0.636900	0.312880	0.481300
H221	H22	0.664600	0.308400	0.447400
C381	C38	0.715900	0.466940	0.613200
C391	C39	0.717500	0.574070	0.702600
C401	C40	0.757700	0.405910	0.607400
H231	H23	0.787900	0.388900	0.623600
C411	C41	0.719400	0.611800	0.734700
C421	C42	0.814800	0.355270	0.495900
H241	H24	0.811100	0.379000	0.478400
C431	C43	0.607000	0.348110	0.576800
H251	H25	0.614100	0.367300	0.607900
C441	C44	0.771000	0.303860	0.552000
H261	H26	0.738000	0.293300	0.574000
C451	C45	0.668100	0.421740	0.534200
H271	H27	0.636800	0.415500	0.500000
C461	C46	0.825000	0.284030	0.544700
H281	H28	0.827400	0.260000	0.560900
C471	C47	0.669900	0.456560	0.560700
H291	H29	0.640200	0.473700	0.543700
C481	C48	0.677900	0.530870	0.620700
H301	H30	0.648600	0.526000	0.583700
C491	C49	0.678300	0.565570	0.649900
H311	H31	0.650100	0.583200	0.631500
C501	C50	0.761200	0.514700	0.694000
H321	H32	0.792400	0.498000	0.709100
N11	N1	0.285200	0.187290	0.123700
H331	H33	0.318300	0.187200	0.152200
N21	N2	0.307150	0.188960	0.911510
N31	N3	0.210220	0.186120	0.363210
N41	N4	0.708590	0.359720	0.530800
O11	O1	0.092090	0.179620	0.455440
O21	O2	0.152390	0.224910	0.494920
O31	O3	0.169700	0.184120	0.106500
O41	O4	0.313520	0.191720	0.609250
O51	O5	0.291870	0.195280	0.496280
O61	O6	0.757310	0.616600	0.786480
O71	O7	0.680730	0.633980	0.709400
Zn11	Zn1	0.202850	0.180270	0.468710
Zn21	Zn2	0.253750	0.153300	0.637540
C511	C51	0.703100	0.290310	0.823200
H341	H34	0.703900	0.268200	0.847300
C521	C52	0.030000	0.275180	0.748000
C531	C53	0.133900	0.230350	0.737500
C541	C54	0.060800	0.258970	0.806100
H351	H35	0.045600	0.263000	0.849200
C551	C55	0.421800	0.213750	0.800100
C561	C56	0.102200	0.244860	0.679400
H361	H36	0.115000	0.238900	0.636000
C571	C57	0.191600	0.205610	0.731200
C581	C58	0.478700	0.236290	0.794600
C591	C59	0.113000	0.237190	0.801500
H371	H37	0.134000	0.227200	0.841000
C601	C60	0.475200	0.274260	0.783900
H381	H38	0.435800	0.285500	0.778300
C611	C61	0.052200	0.267860	0.684400
H391	H39	0.032900	0.278700	0.644800
C621	C62	0.975200	0.299660	0.755100
C631	C63	0.648400	0.301510	0.789700
C641	C64	0.529800	0.295580	0.781500
H401	H40	0.526700	0.320700	0.773500
C651	C65	0.871600	0.343100	0.774900
C661	C66	0.817300	0.399370	0.816600
C671	C67	0.589400	0.278740	0.791100
C681	C68	0.647900	0.333150	0.754600
H411	H41	0.610500	0.341100	0.731100
C691	C69	0.844000	0.570320	0.900200
H421	H42	0.857800	0.590200	0.875300
C701	C70	0.818000	0.577360	0.960000
C711	C71	0.868600	0.457450	0.832800
H431	H43	0.901300	0.473200	0.823600
C721	C72	0.925200	0.300640	0.707800
H441	H44	0.926300	0.286300	0.668300
C731	C73	0.974400	0.322190	0.813700
H451	H45	0.009100	0.322600	0.846000
C741	C74	0.756500	0.342490	0.784400
C751	C75	0.702500	0.354480	0.752600
H461	H46	0.701100	0.376800	0.729300
C761	C76	0.922000	0.343880	0.823500
H471	H47	0.921200	0.358700	0.862400
C771	C77	0.865100	0.423320	0.801900
H481	H48	0.894600	0.416500	0.771300
C781	C78	0.851500	0.536050	0.874000
H491	H49	0.873400	0.532400	0.834900
C791	C79	0.538500	0.220720	0.801500
H501	H50	0.541800	0.195400	0.807800
C801	C80	0.871900	0.322190	0.715300
H511	H51	0.838100	0.322500	0.681900
C811	C81	0.807000	0.615110	0.983900
C821	C82	0.592400	0.240680	0.799700
H521	H52	0.631400	0.229000	0.804100
C831	C83	0.797900	0.548750	0.995000
H531	H53	0.781000	0.553100	0.037000
C841	C84	0.824800	0.506120	0.908500
C851	C85	0.824200	0.468690	0.877200
C861	C86	0.776800	0.444570	0.889400
H541	H54	0.746000	0.451800	0.918200
C871	C87	0.800900	0.512130	0.971700
H551	H55	0.787400	0.492700	0.998000
C881	C88	0.773300	0.409850	0.860400
H561	H56	0.741100	0.393800	0.870500
C891	C89	0.757700	0.310420	0.822800
H571	H57	0.794600	0.302700	0.847700
N51	N5	0.813960	0.364250	0.784200
O81	O8	0.368160	0.227200	0.780710
O91	O9	0.227250	0.201620	0.783110
O101	O10	0.426560	0.181840	0.823510
O111	O11	0.197840	0.191600	0.672070
O121	O12	0.799160	0.621680	0.044690
O131	O13	0.809970	0.641960	0.940750
Zn31	Zn3	0.314760	0.186600	0.808380
C901	C90	0.239800	0.049200	0.776800
H581	H58	0.209400	0.055100	0.741400
C911	C91	0.748000	0.708100	0.492200
H591	H59	0.781400	0.721100	0.475600
C921	C92	0.771300	0.686500	0.350600
C931	C93	0.738100	0.707560	0.561500
H601	H60	0.765300	0.721300	0.591200
C941	C94	0.656100	0.670300	0.473600
H611	H61	0.626300	0.658000	0.444600
C951	C95	0.705800	0.688270	0.448100
C961	C96	0.652100	0.671160	0.542700
H621	H62	0.618800	0.658500	0.560200
C971	C97	0.901400	0.711740	0.019800
C981	C98	0.957800	0.734070	0.010200
C991	C99	0.953500	0.771850	0.999400
H631	H63	0.914000	0.783100	0.997100
C1001	C100	0.066200	0.776900	0.994200
C1011	C101	0.005900	0.792610	0.992200
H641	H64	0.001600	0.817800	0.985900
C1021	C102	0.620400	0.726780	0.952500
C1031	C103	0.675000	0.702910	0.947500
C1041	C104	0.538700	0.765600	0.898800
H651	H65	0.519300	0.776000	0.858900
C1051	C105	0.831400	0.669670	0.180400
H661	H66	0.865300	0.657600	0.162900
C1061	C106	0.826800	0.669670	0.250200
H671	H67	0.857700	0.658300	0.279300
C1071	C107	0.460100	0.797860	0.965500
C1081	C108	0.546000	0.758090	0.020400
H681	H68	0.531900	0.763500	0.063400
C1091	C109	0.590200	0.742950	0.893900
H691	H69	0.605000	0.738400	0.850900
C1101	C110	0.016700	0.718280	0.015300
H701	H70	0.020900	0.693400	0.025600
C1111	C111	0.597500	0.734900	0.016500
H711	H71	0.616900	0.724700	0.056600
C1121	C112	0.070900	0.739300	0.005000
H721	H72	0.110100	0.727900	0.005600
C1131	C113	0.515400	0.773150	0.962500
C1141	C114	0.350400	0.840310	0.970500
C1151	C115	0.776000	0.686660	0.277100
C1161	C116	0.741600	0.703620	0.162400
H731	H73	0.712000	0.715300	0.132000
C1171	C117	0.733900	0.705060	0.231600
H741	H74	0.700700	0.718300	0.247900
C1181	C118	0.129400	0.835110	0.009100
H751	H75	0.095400	0.846400	0.028100
C1191	C119	0.240200	0.941520	0.865100
H761	H76	0.208300	0.947800	0.831700
C1201	C120	0.235000	0.839180	0.972500
C1211	C121	0.284200	0.004850	0.857900
C1221	C122	0.417300	0.792130	0.016100
H771	H77	0.425700	0.773800	0.048900
C1231	C123	0.122900	0.798880	0.986900
C1241	C124	0.448200	0.826140	0.922800
H781	H78	0.477500	0.831800	0.891300
C1251	C125	0.287600	0.895680	0.942500
C1261	C126	0.363100	0.812880	0.018700
H791	H79	0.335400	0.808400	0.052600
C1271	C127	0.284100	0.966940	0.886800
C1281	C128	0.282500	0.074070	0.797400
C1291	C129	0.242300	0.905910	0.892600
H801	H80	0.212100	0.888900	0.876400
C1301	C130	0.280600	0.111800	0.765300
C1311	C131	0.185200	0.855270	0.004100
H811	H81	0.188900	0.879000	0.021600
C1321	C132	0.393000	0.848110	0.923200
H821	H82	0.385900	0.867300	0.892100
C1331	C133	0.229000	0.803860	0.948000
H831	H83	0.262000	0.793300	0.926000
C1341	C134	0.331900	0.921740	0.965800
H841	H84	0.363200	0.915500	0.000000
C1351	C135	0.175000	0.784030	0.955300
H851	H85	0.172600	0.760000	0.939100
C1361	C136	0.330100	0.956560	0.939300
H861	H86	0.359800	0.973700	0.956300
C1371	C137	0.322100	0.030870	0.879300
H871	H87	0.351400	0.026000	0.916300
C1381	C138	0.321700	0.065570	0.850100
H881	H88	0.349900	0.083200	0.868500
C1391	C139	0.238800	0.014700	0.806000
H891	H89	0.207600	0.998000	0.790900
N61	N6	0.714800	0.687290	0.376300
H901	H90	0.681700	0.687200	0.347800
N71	N7	0.692850	0.688960	0.588490
N81	N8	0.789780	0.686120	0.136790
N91	N9	0.291410	0.859720	0.969200
O141	O14	0.907910	0.679620	0.044560
O151	O15	0.847610	0.724910	0.005080
O161	O16	0.830300	0.684120	0.393500
O171	O17	0.686480	0.691720	0.890750
O181	O18	0.708130	0.695280	0.003720
O191	O19	0.242690	0.116600	0.713520
O201	O20	0.319270	0.133980	0.790600
Zn41	Zn4	0.797150	0.680270	0.031290
Zn51	Zn5	0.746250	0.653300	0.862460
C1401	C140	0.296900	0.790310	0.676800
H911	H91	0.296100	0.768200	0.652700
C1411	C141	0.970000	0.775180	0.752000
C1421	C142	0.866100	0.730350	0.762500
C1431	C143	0.939200	0.758970	0.693900
H921	H92	0.954400	0.763000	0.650800
C1441	C144	0.578200	0.713750	0.699900
C1451	C145	0.897800	0.744860	0.820600
H931	H93	0.885000	0.738900	0.864000
C1461	C146	0.808400	0.705610	0.768800
C1471	C147	0.521300	0.736290	0.705400
C1481	C148	0.887000	0.737190	0.698500
H941	H94	0.866000	0.727200	0.659000
C1491	C149	0.524800	0.774260	0.716100
H951	H95	0.564200	0.785500	0.721700
C1501	C150	0.947800	0.767860	0.815600
H961	H96	0.967100	0.778700	0.855200
C1511	C151	0.024800	0.799660	0.744900
C1521	C152	0.351600	0.801510	0.710300
C1531	C153	0.470200	0.795580	0.718500
H971	H97	0.473300	0.820700	0.726500
C1541	C154	0.128400	0.843100	0.725100
C1551	C155	0.182700	0.899370	0.683400
C1561	C156	0.410600	0.778740	0.708900
C1571	C157	0.352100	0.833150	0.745400
H981	H98	0.389500	0.841100	0.768900
C1581	C158	0.156000	0.070320	0.599800
H991	H99	0.142200	0.090200	0.624700
C1591	C159	0.182000	0.077360	0.540000
C1601	C160	0.131400	0.957450	0.667200
H1001	H100	0.098700	0.973200	0.676400
C1611	C161	0.074800	0.800640	0.792200
H1011	H101	0.073700	0.786300	0.831700
C1621	C162	0.025600	0.822190	0.686300
H1021	H102	0.990900	0.822600	0.654000
C1631	C163	0.243500	0.842490	0.715600
C1641	C164	0.297500	0.854480	0.747400
H1031	H103	0.298900	0.876800	0.770700
C1651	C165	0.078000	0.843880	0.676500
H1041	H104	0.078800	0.858700	0.637600
C1661	C166	0.134900	0.923320	0.698100
H1051	H105	0.105400	0.916500	0.728700
C1671	C167	0.148500	0.036050	0.626000
H1061	H106	0.126600	0.032400	0.665100
C1681	C168	0.461500	0.720720	0.698500
H1071	H107	0.458200	0.695400	0.692200
C1691	C169	0.128100	0.822190	0.784700
H1081	H108	0.161900	0.822500	0.818100
C1701	C170	0.193000	0.115110	0.516100
C1711	C171	0.407600	0.740680	0.700300
H1091	H109	0.368600	0.729000	0.695900
C1721	C172	0.202100	0.048750	0.505000
H1101	H110	0.219000	0.053100	0.463000
C1731	C173	0.175200	0.006120	0.591500
C1741	C174	0.175800	0.968690	0.622800
C1751	C175	0.223200	0.944570	0.610600
H1111	H111	0.254000	0.951800	0.581800
C1761	C176	0.199100	0.012130	0.528300
H1121	H112	0.212600	0.992700	0.502000
C1771	C177	0.226700	0.909850	0.639600
H1131	H113	0.258900	0.893800	0.629500
C1781	C178	0.242300	0.810420	0.677200
H1141	H114	0.205400	0.802700	0.652300
N101	N10	0.186040	0.864250	0.715800
O211	O21	0.631840	0.727200	0.719290
O221	O22	0.772750	0.701620	0.716890
O231	O23	0.573440	0.681840	0.676490
O241	O24	0.802160	0.691600	0.827930
O251	O25	0.200840	0.121680	0.455310
O261	O26	0.190030	0.141960	0.559250
Zn61	Zn6	0.685240	0.686600	0.691620
C1791	C179	0.239800	0.450800	0.276800
H1151	H115	0.209400	0.444900	0.241400
C1801	C180	0.748000	0.791900	0.992200
H1161	H116	0.781400	0.778900	0.975600
C1811	C181	0.771300	0.813500	0.850600
C1821	C182	0.738100	0.792440	0.061500
H1171	H117	0.765300	0.778700	0.091200
C1831	C183	0.656100	0.829700	0.973600
H1181	H118	0.626300	0.842000	0.944600
C1841	C184	0.705800	0.811730	0.948100
C1851	C185	0.652100	0.828840	0.042700
H1191	H119	0.618800	0.841500	0.060200
C1861	C186	0.901400	0.788260	0.519800
C1871	C187	0.957800	0.765930	0.510200
C1881	C188	0.953500	0.728150	0.499400
H1201	H120	0.914000	0.716900	0.497100
C1891	C189	0.066200	0.723100	0.494200
C1901	C190	0.005900	0.707390	0.492200
H1211	H121	0.001600	0.682200	0.485900
C1911	C191	0.620400	0.773220	0.452500
C1921	C192	0.675000	0.797090	0.447500
C1931	C193	0.538700	0.734400	0.398800
H1221	H122	0.519300	0.724000	0.358900
C1941	C194	0.831400	0.830330	0.680400
H1231	H123	0.865300	0.842400	0.662900
C1951	C195	0.826800	0.830330	0.750200
H1241	H124	0.857700	0.841700	0.779300
C1961	C196	0.460100	0.702140	0.465500
C1971	C197	0.546000	0.741910	0.520400
H1251	H125	0.531900	0.736500	0.563400
C1981	C198	0.590200	0.757050	0.393900
H1261	H126	0.605000	0.761600	0.350900
C1991	C199	0.016700	0.781720	0.515300
H1271	H127	0.020900	0.806600	0.525600
C2001	C200	0.597500	0.765100	0.516500
H1281	H128	0.616900	0.775300	0.556600
C2011	C201	0.070900	0.760700	0.505000
H1291	H129	0.110100	0.772100	0.505600
C2021	C202	0.515400	0.726850	0.462500
C2031	C203	0.350400	0.659690	0.470500
C2041	C204	0.776000	0.813340	0.777100
C2051	C205	0.741600	0.796380	0.662400
H1301	H130	0.712000	0.784700	0.632000
C2061	C206	0.733900	0.794940	0.731600
H1311	H131	0.700700	0.781700	0.747900
C2071	C207	0.129400	0.664890	0.509100
H1321	H132	0.095400	0.653600	0.528100
C2081	C208	0.240200	0.558480	0.365100
H1331	H133	0.208300	0.552200	0.331700
C2091	C209	0.235000	0.660820	0.472500
C2101	C210	0.284200	0.495150	0.357900
C2111	C211	0.417300	0.707870	0.516100
H1341	H134	0.425700	0.726200	0.548900
C2121	C212	0.122900	0.701120	0.486900
C2131	C213	0.448200	0.673860	0.422800
H1351	H135	0.477500	0.668200	0.391300
C2141	C214	0.287600	0.604320	0.442500
C2151	C215	0.363100	0.687120	0.518700
H1361	H136	0.335400	0.691600	0.552600
C2161	C216	0.284100	0.533060	0.386800
C2171	C217	0.282500	0.425930	0.297400
C2181	C218	0.242300	0.594090	0.392600
H1371	H137	0.212100	0.611100	0.376400
C2191	C219	0.280600	0.388200	0.265300
C2201	C220	0.185200	0.644730	0.504100
H1381	H138	0.188900	0.621000	0.521600
C2211	C221	0.393000	0.651890	0.423200
H1391	H139	0.385900	0.632700	0.392100
C2221	C222	0.229000	0.696140	0.448000
H1401	H140	0.262000	0.706700	0.426000
C2231	C223	0.331900	0.578260	0.465800
H1411	H141	0.363200	0.584500	0.500000
C2241	C224	0.175000	0.715970	0.455300
H1421	H142	0.172600	0.740000	0.439100
C2251	C225	0.330100	0.543440	0.439300
H1431	H143	0.359800	0.526300	0.456300
C2261	C226	0.322100	0.469130	0.379300
H1441	H144	0.351400	0.474000	0.416300
C2271	C227	0.321700	0.434430	0.350100
H1451	H145	0.349900	0.416800	0.368500
C2281	C228	0.238800	0.485300	0.306000
H1461	H146	0.207600	0.502000	0.290900
N111	N11	0.714800	0.812710	0.876300
H1471	H147	0.681700	0.812800	0.847800
N121	N12	0.692850	0.811040	0.088490
N131	N13	0.789780	0.813880	0.636790
N141	N14	0.291410	0.640280	0.469200
O271	O27	0.907910	0.820380	0.544560
O281	O28	0.847610	0.775090	0.505080
O291	O29	0.830300	0.815880	0.893500
O301	O30	0.686480	0.808280	0.390750
O311	O31	0.708130	0.804720	0.503720
O321	O32	0.242690	0.383400	0.213520
O331	O33	0.319270	0.366020	0.290600
Zn71	Zn7	0.797150	0.819730	0.531290
Zn81	Zn8	0.746250	0.846700	0.362460
C2291	C229	0.296900	0.709690	0.176800
H1481	H148	0.296100	0.731800	0.152700
C2301	C230	0.970000	0.724820	0.252000
C2311	C231	0.866100	0.769650	0.262500
C2321	C232	0.939200	0.741030	0.193900
H1491	H149	0.954400	0.737000	0.150800
C2331	C233	0.578200	0.786250	0.199900
C2341	C234	0.897800	0.755140	0.320600
H1501	H150	0.885000	0.761100	0.364000
C2351	C235	0.808400	0.794390	0.268800
C2361	C236	0.521300	0.763710	0.205400
C2371	C237	0.887000	0.762810	0.198500
H1511	H151	0.866000	0.772800	0.159000
C2381	C238	0.524800	0.725740	0.216100
H1521	H152	0.564200	0.714500	0.221700
C2391	C239	0.947800	0.732140	0.315600
H1531	H153	0.967100	0.721300	0.355200
C2401	C240	0.024800	0.700340	0.244900
C2411	C241	0.351600	0.698490	0.210300
C2421	C242	0.470200	0.704420	0.218500
H1541	H154	0.473300	0.679300	0.226500
C2431	C243	0.128400	0.656900	0.225100
C2441	C244	0.182700	0.600630	0.183400
C2451	C245	0.410600	0.721260	0.208900
C2461	C246	0.352100	0.666850	0.245400
H1551	H155	0.389500	0.658900	0.268900
C2471	C247	0.156000	0.429680	0.099800
H1561	H156	0.142200	0.409800	0.124700
C2481	C248	0.182000	0.422640	0.040000
C2491	C249	0.131400	0.542550	0.167200
H1571	H157	0.098700	0.526800	0.176400
C2501	C250	0.074800	0.699360	0.292200
H1581	H158	0.073700	0.713700	0.331700
C2511	C251	0.025600	0.677810	0.186300
H1591	H159	0.990900	0.677400	0.154000
C2521	C252	0.243500	0.657510	0.215600
C2531	C253	0.297500	0.645520	0.247400
H1601	H160	0.298900	0.623200	0.270700
C2541	C254	0.078000	0.656120	0.176500
H1611	H161	0.078800	0.641300	0.137600
C2551	C255	0.134900	0.576680	0.198100
H1621	H162	0.105400	0.583500	0.228700
C2561	C256	0.148500	0.463950	0.126000
H1631	H163	0.126600	0.467600	0.165100
C2571	C257	0.461500	0.779280	0.198500
H1641	H164	0.458200	0.804600	0.192200
C2581	C258	0.128100	0.677810	0.284700
H1651	H165	0.161900	0.677500	0.318100
C2591	C259	0.193000	0.384890	0.016100
C2601	C260	0.407600	0.759320	0.200300
H1661	H166	0.368600	0.771000	0.195900
C2611	C261	0.202100	0.451250	0.005000
H1671	H167	0.219000	0.446900	0.963000
C2621	C262	0.175200	0.493880	0.091500
C2631	C263	0.175800	0.531310	0.122800
C2641	C264	0.223200	0.555430	0.110600
H1681	H168	0.254000	0.548200	0.081800
C2651	C265	0.199100	0.487870	0.028300
H1691	H169	0.212600	0.507300	0.002000
C2661	C266	0.226700	0.590150	0.139600
H1701	H170	0.258900	0.606200	0.129500
C2671	C267	0.242300	0.689580	0.177200
H1711	H171	0.205400	0.697300	0.152300
N151	N15	0.186040	0.635750	0.215800
O341	O34	0.631840	0.772800	0.219290
O351	O35	0.772750	0.798380	0.216890
O361	O36	0.573440	0.818160	0.176490
O371	O37	0.802160	0.808400	0.327930
O381	O38	0.200840	0.378320	0.955310
O391	O39	0.190030	0.358040	0.059250
Zn91	Zn9	0.685240	0.813400	0.191620
C2681	C268	0.760200	0.950800	0.223200
H1721	H172	0.790600	0.944900	0.258600
C2691	C269	0.252000	0.291900	0.507800
H1731	H173	0.218600	0.278900	0.524400
C2701	C270	0.228700	0.313500	0.649400
C2711	C271	0.261900	0.292440	0.438500
H1741	H174	0.234700	0.278700	0.408800
C2721	C272	0.343900	0.329700	0.526400
H1751	H175	0.373700	0.342000	0.555400
C2731	C273	0.294200	0.311730	0.551900
C2741	C274	0.347900	0.328840	0.457300
H1761	H176	0.381200	0.341500	0.439800
C2751	C275	0.098600	0.288260	0.980200
C2761	C276	0.042200	0.265930	0.989800
C2771	C277	0.046500	0.228150	0.000600
H1771	H177	0.086000	0.216900	0.002900
C2781	C278	0.933800	0.223100	0.005800
C2791	C279	0.994100	0.207390	0.007800
H1781	H178	0.998400	0.182200	0.014100
C2801	C280	0.379600	0.273220	0.047500
C2811	C281	0.325000	0.297090	0.052500
C2821	C282	0.461300	0.234400	0.101200
H1791	H179	0.480700	0.224000	0.141100
C2831	C283	0.168600	0.330330	0.819600
H1801	H180	0.134700	0.342400	0.837100
C2841	C284	0.173200	0.330330	0.749800
H1811	H181	0.142300	0.341700	0.720700
C2851	C285	0.539900	0.202140	0.034500
C2861	C286	0.454000	0.241910	0.979600
H1821	H182	0.468100	0.236500	0.936600
C2871	C287	0.409800	0.257050	0.106100
H1831	H183	0.395000	0.261600	0.149100
C2881	C288	0.983300	0.281720	0.984700
H1841	H184	0.979100	0.306600	0.974400
C2891	C289	0.402500	0.265100	0.983500
H1851	H185	0.383100	0.275300	0.943400
C2901	C290	0.929100	0.260700	0.995000
H1861	H186	0.889900	0.272100	0.994400
C2911	C291	0.484600	0.226850	0.037500
C2921	C292	0.649600	0.159690	0.029500
C2931	C293	0.224000	0.313340	0.722900
C2941	C294	0.258400	0.296380	0.837600
H1871	H187	0.288000	0.284700	0.868000
C2951	C295	0.266100	0.294940	0.768400
H1881	H188	0.299300	0.281700	0.752100
C2961	C296	0.870600	0.164890	0.990900
H1891	H189	0.904600	0.153600	0.971900
C2971	C297	0.759800	0.058480	0.134900
H1901	H190	0.791700	0.052200	0.168300
C2981	C298	0.765000	0.160820	0.027500
C2991	C299	0.715800	0.995150	0.142100
C3001	C300	0.582700	0.207870	0.983900
H1911	H191	0.574300	0.226200	0.951100
C3011	C301	0.877100	0.201120	0.013100
C3021	C302	0.551800	0.173860	0.077200
H1921	H192	0.522500	0.168200	0.108700
C3031	C303	0.712400	0.104320	0.057500
C3041	C304	0.636900	0.187120	0.981300
H1931	H193	0.664600	0.191600	0.947400
C3051	C305	0.715900	0.033060	0.113200
C3061	C306	0.717500	0.925930	0.202600
C3071	C307	0.757700	0.094090	0.107400
H1941	H194	0.787900	0.111100	0.123600
C3081	C308	0.719400	0.888200	0.234700
C3091	C309	0.814800	0.144730	0.995900
H1951	H195	0.811100	0.121000	0.978400
C3101	C310	0.607000	0.151890	0.076800
H1961	H196	0.614100	0.132700	0.107900
C3111	C311	0.771000	0.196140	0.052000
H1971	H197	0.738000	0.206700	0.074000
C3121	C312	0.668100	0.078260	0.034200
H1981	H198	0.636800	0.084500	0.000000
C3131	C313	0.825000	0.215970	0.044700
H1991	H199	0.827400	0.240000	0.060900
C3141	C314	0.669900	0.043440	0.060700
H2001	H200	0.640200	0.026300	0.043700
C3151	C315	0.677900	0.969130	0.120700
H2011	H201	0.648600	0.974000	0.083700
C3161	C316	0.678300	0.934430	0.149900
H2021	H202	0.650100	0.916800	0.131500
C3171	C317	0.761200	0.985300	0.194000
H2031	H203	0.792400	0.002000	0.209100
N161	N16	0.285200	0.312710	0.623700
H2041	H204	0.318300	0.312800	0.652200
N171	N17	0.307150	0.311040	0.411510
N181	N18	0.210220	0.313880	0.863210
N191	N19	0.708590	0.140280	0.030800
O401	O40	0.092090	0.320380	0.955440
O411	O41	0.152390	0.275090	0.994920
O421	O42	0.169700	0.315880	0.606500
O431	O43	0.313520	0.308280	0.109250
O441	O44	0.291870	0.304720	0.996280
O451	O45	0.757310	0.883400	0.286480
O461	O46	0.680730	0.866020	0.209400
Zn101	Zn10	0.202850	0.319730	0.968710
Zn111	Zn11	0.253750	0.346700	0.137540
C3181	C318	0.703100	0.209690	0.323200
H2051	H205	0.703900	0.231800	0.347300
C3191	C319	0.030000	0.224820	0.248000
C3201	C320	0.133900	0.269650	0.237500
C3211	C321	0.060800	0.241030	0.306100
H2061	H206	0.045600	0.237000	0.349200
C3221	C322	0.421800	0.286250	0.300100
C3231	C323	0.102200	0.255140	0.179400
H2071	H207	0.115000	0.261100	0.136000
C3241	C324	0.191600	0.294390	0.231200
C3251	C325	0.478700	0.263710	0.294600
C3261	C326	0.113000	0.262810	0.301500
H2081	H208	0.134000	0.272800	0.341000
C3271	C327	0.475200	0.225740	0.283900
H2091	H209	0.435800	0.214500	0.278300
C3281	C328	0.052200	0.232140	0.184400
H2101	H210	0.032900	0.221300	0.144800
C3291	C329	0.975200	0.200340	0.255100
C3301	C330	0.648400	0.198490	0.289700
C3311	C331	0.529800	0.204420	0.281500
H2111	H211	0.526700	0.179300	0.273500
C3321	C332	0.871600	0.156900	0.274900
C3331	C333	0.817300	0.100630	0.316600
C3341	C334	0.589400	0.221260	0.291100
C3351	C335	0.647900	0.166850	0.254600
H2121	H212	0.610500	0.158900	0.231100
C3361	C336	0.844000	0.929680	0.400200
H2131	H213	0.857800	0.909800	0.375300
C3371	C337	0.818000	0.922640	0.460000
C3381	C338	0.868600	0.042550	0.332800
H2141	H214	0.901300	0.026800	0.323600
C3391	C339	0.925200	0.199360	0.207800
H2151	H215	0.926300	0.213700	0.168300
C3401	C340	0.974400	0.177810	0.313700
H2161	H216	0.009100	0.177400	0.346000
C3411	C341	0.756500	0.157510	0.284400
C3421	C342	0.702500	0.145520	0.252600
H2171	H217	0.701100	0.123200	0.229300
C3431	C343	0.922000	0.156120	0.323500
H2181	H218	0.921200	0.141300	0.362400
C3441	C344	0.865100	0.076680	0.301900
H2191	H219	0.894600	0.083500	0.271300
C3451	C345	0.851500	0.963950	0.374000
H2201	H220	0.873400	0.967600	0.334900
C3461	C346	0.538500	0.279280	0.301500
H2211	H221	0.541800	0.304600	0.307800
C3471	C347	0.871900	0.177810	0.215300
H2221	H222	0.838100	0.177500	0.181900
C3481	C348	0.807000	0.884890	0.483900
C3491	C349	0.592400	0.259320	0.299700
H2231	H223	0.631400	0.271000	0.304100
C3501	C350	0.797900	0.951250	0.495000
H2241	H224	0.781000	0.946900	0.537000
C3511	C351	0.824800	0.993880	0.408500
C3521	C352	0.824200	0.031310	0.377200
C3531	C353	0.776800	0.055430	0.389400
H2251	H225	0.746000	0.048200	0.418200
C3541	C354	0.800900	0.987870	0.471700
H2261	H226	0.787400	0.007300	0.498000
C3551	C355	0.773300	0.090150	0.360400
H2271	H227	0.741100	0.106200	0.370500
C3561	C356	0.757700	0.189580	0.322800
H2281	H228	0.794600	0.197300	0.347700
N201	N20	0.813960	0.135750	0.284200
O471	O47	0.368160	0.272800	0.280710
O481	O48	0.227250	0.298380	0.283110
O491	O49	0.426560	0.318160	0.323510
O501	O50	0.197840	0.308400	0.172070
O511	O51	0.799160	0.878320	0.544690
O521	O52	0.809970	0.858040	0.440750
Zn121	Zn12	0.314760	0.313400	0.308380
