data_HUQHUY_clean_PM
_symmetry_space_group_name_H-M	'P1'
_cell_length_a	36.800000
_cell_length_b	21.661000
_cell_length_c	44.650000
_cell_angle_alpha	90.000000
_cell_angle_beta	100.400000
_cell_angle_gamma	90.000000
_symmetry_Int_Tables_number 1

loop_
_symmetry_equiv_pos_as_xyz
'x,y,z'

loop_
_atom_site_label
_atom_site_type_symbol
_atom_site_fract_x
_atom_site_fract_y
_atom_site_fract_z
C11	C1	0.951370	0.014600	0.745700
H11	H1	0.967700	0.990100	0.737300
C21	C2	0.932230	0.055700	0.790150
C31	C3	0.906970	0.087600	0.740320
H21	H2	0.889100	0.111900	0.728400
C41	C4	0.934000	0.050700	0.824210
C51	C5	0.966000	0.032700	0.874420
H31	H3	0.987700	0.022600	0.887700
C61	C6	0.990300	0.836700	0.027600
H41	H4	0.981600	0.856600	0.009300
C71	C7	0.325890	0.517300	0.044800
C81	C8	0.070860	0.358100	0.066820
H51	H5	0.081900	0.323200	0.076700
C91	C9	0.044750	0.689900	0.055600
C101	C10	0.076600	0.466900	0.053500
C111	C11	0.934760	0.044000	0.884700
C121	C12	0.972680	0.189400	0.045960
C131	C13	0.985250	0.859300	0.053600
C141	C14	0.958010	0.003600	0.937850
H61	H6	0.974000	0.979200	0.929100
C151	C15	0.064900	0.678900	0.034290
H71	H7	0.067400	0.709700	0.020300
C161	C16	0.951900	0.132600	0.040800
C171	C17	0.010390	0.186700	0.051450
H81	H8	0.022500	0.148900	0.053800
C181	C18	0.079430	0.579200	0.053600
C191	C19	0.998440	0.833500	0.082000
H91	H9	0.995500	0.852100	0.100100
C201	C20	0.030030	0.241200	0.053370
H101	H10	0.055600	0.238200	0.056200
C211	C21	0.033450	0.356100	0.049700
C221	C22	0.957740	0.997800	0.967910
H111	H11	0.972700	0.968900	0.979600
C231	C23	0.935850	0.043400	0.920390
C241	C24	0.015020	0.299400	0.051450
C251	C25	0.041300	0.462700	0.037900
H121	H12	0.030900	0.497500	0.027500
C261	C26	0.275000	0.551800	0.070400
H131	H13	0.266700	0.571900	0.086300
C271	C27	0.899800	0.060400	0.836620
H141	H14	0.877100	0.068100	0.824300
C281	C28	0.009730	0.780300	0.028710
H151	H15	0.013500	0.761400	0.010800
C291	C29	0.040610	0.642300	0.076360
H161	H16	0.025500	0.648900	0.090600
C301	C30	0.017570	0.773800	0.080620
H171	H17	0.025500	0.751400	0.098400
C311	C31	0.022900	0.753900	0.056060
C321	C32	0.974930	0.302000	0.045770
H181	H18	0.962800	0.339900	0.043900
C331	C33	0.953750	0.008900	0.776960
H191	H19	0.967600	0.978500	0.788500
C341	C34	0.313680	0.548800	0.070400
H201	H20	0.330700	0.566300	0.086100
C351	C35	0.089500	0.413900	0.067930
H211	H21	0.113100	0.415200	0.079600
C361	C36	0.150250	0.473900	0.038100
H221	H22	0.135700	0.440600	0.030100
C371	C37	0.020700	0.411400	0.036600
H231	H23	0.996400	0.413200	0.026200
C381	C38	0.955200	0.247900	0.043270
H241	H24	0.929500	0.249700	0.039700
C391	C39	0.158070	0.568900	0.064600
H251	H25	0.148300	0.602300	0.073500
C401	C40	0.903910	0.057100	0.866240
H261	H26	0.883200	0.064800	0.874900
C411	C41	0.960440	0.920400	0.053200
C421	C42	0.367300	0.517700	0.047600
C431	C43	0.210490	0.523800	0.048350
C441	C44	0.082120	0.623300	0.032420
H271	H27	0.095400	0.615800	0.016900
C451	C45	0.134600	0.521700	0.053100
C461	C46	0.189510	0.476100	0.034900
H281	H28	0.199600	0.445900	0.024000
C471	C47	0.057870	0.587700	0.076100
H291	H29	0.055600	0.557000	0.090100
C481	C48	0.193930	0.569600	0.063600
H301	H30	0.208500	0.601400	0.073300
C491	C49	0.301600	0.493200	0.023400
H311	H31	0.309400	0.473400	0.007200
C501	C50	0.964890	0.036500	0.843200
H321	H32	0.986300	0.028900	0.835500
C511	C51	0.249120	0.525300	0.047100
C521	C52	0.264000	0.496400	0.024100
H331	H33	0.247800	0.478100	0.008200
C531	C53	0.910040	0.090700	0.770500
H341	H34	0.895500	0.119500	0.778300
C541	C54	0.913540	0.081400	0.932940
H351	H35	0.898700	0.110700	0.921400
C551	C55	0.914000	0.074600	0.962900
H361	H36	0.898200	0.099700	0.971600
N11	N1	0.928780	0.050400	0.725840
N21	N2	0.096200	0.523500	0.052650
N31	N3	0.934480	0.036300	0.980900
O11	O1	0.967180	0.081000	0.046240
O21	O2	0.948520	0.941400	0.028250
O31	O3	0.916710	0.134950	0.029180
O41	O4	0.389740	0.520700	0.070080
O51	O5	0.956250	0.936500	0.079430
O61	O6	0.374560	0.511700	0.019610
Zn11	Zn1	0.929030	0.024520	0.026260
C561	C56	0.312600	0.569400	0.647600
C571	C57	0.303000	0.582600	0.674200
H371	H37	0.320900	0.589500	0.691400
C581	C58	0.973200	0.857500	0.677730
H381	H38	0.965000	0.873300	0.694700
C591	C59	0.966470	0.890900	0.650700
C601	C60	0.991300	0.802500	0.680300
H391	H39	0.994100	0.780400	0.698400
C611	C61	0.998700	0.811500	0.628200
H401	H40	0.006400	0.796100	0.610900
C621	C62	0.251200	0.562000	0.622700
H411	H41	0.234600	0.559200	0.604300
C631	C63	0.979200	0.869900	0.626920
H421	H42	0.975700	0.892800	0.609000
C641	C64	0.288700	0.560500	0.623700
H431	H43	0.297100	0.552300	0.605700
C651	C65	0.265100	0.585900	0.675900
H441	H44	0.257700	0.600100	0.693500
C661	C66	0.005760	0.778800	0.655280
C671	C67	0.238700	0.568000	0.650900
C681	C68	0.025290	0.721300	0.656520
C691	C69	0.139500	0.517600	0.638700
H451	H45	0.125000	0.487600	0.627400
C701	C70	0.032300	0.381500	0.659800
C711	C71	0.010300	0.320300	0.658800
C721	C72	0.073700	0.658600	0.644280
H461	H46	0.092900	0.653500	0.633500
C731	C73	0.976300	0.206200	0.655400
C741	C74	0.952300	0.144700	0.655800
C751	C75	0.198900	0.563500	0.653100
C761	C76	0.007600	0.214300	0.674370
H471	H47	0.016700	0.182900	0.687800
C771	C77	0.976770	0.310300	0.638200
H481	H48	0.966100	0.342600	0.625900
C781	C78	0.028000	0.271200	0.674800
H491	H49	0.052100	0.274600	0.685400
C791	C79	0.017700	0.671100	0.675700
H501	H50	0.999300	0.675500	0.687400
C801	C80	0.067300	0.389600	0.676400
H511	H51	0.078600	0.357700	0.688500
C811	C81	0.959300	0.251800	0.636100
H521	H52	0.937500	0.244400	0.622400
C821	C82	0.067900	0.497000	0.661300
C831	C83	0.065800	0.610700	0.661400
C841	C84	0.124300	0.556700	0.659000
C851	C85	0.034000	0.492100	0.644700
H531	H53	0.022800	0.524900	0.633200
C861	C86	0.085100	0.443800	0.675100
H541	H54	0.110000	0.445900	0.683700
C871	C87	0.186100	0.606600	0.673900
H551	H55	0.201300	0.636800	0.684300
C881	C88	0.056200	0.712400	0.641710
H561	H56	0.064000	0.744100	0.630300
C891	C89	0.037200	0.617300	0.677000
H571	H57	0.031000	0.584600	0.688600
C901	C90	0.015300	0.432200	0.645400
H581	H58	0.990800	0.428800	0.635600
C911	C91	0.147400	0.599200	0.677200
H591	H59	0.138000	0.622800	0.691400
C921	C92	0.949220	0.956800	0.650600
C931	C93	0.174300	0.524700	0.636200
H601	H60	0.182900	0.501100	0.621500
C941	C94	0.354100	0.563300	0.645100
N41	N4	0.086460	0.554400	0.661320
O71	O7	0.941640	0.973200	0.677450
O81	O8	0.942490	0.983100	0.626580
O91	O9	0.963980	0.114500	0.677500
O101	O10	0.363880	0.547600	0.623210
O111	O11	0.374760	0.574200	0.671060
O121	O12	0.931540	0.128700	0.629910
Zn21	Zn2	0.926560	0.054060	0.682040
Zn31	Zn3	0.910410	0.048440	0.601230
C951	C95	0.451370	0.514600	0.745700
H611	H61	0.467700	0.490100	0.737300
C961	C96	0.432230	0.555700	0.790150
C971	C97	0.406970	0.587600	0.740320
H621	H62	0.389100	0.611900	0.728400
C981	C98	0.434000	0.550700	0.824210
C991	C99	0.466000	0.532700	0.874420
H631	H63	0.487700	0.522600	0.887700
C1001	C100	0.490300	0.336700	0.027600
H641	H64	0.481600	0.356600	0.009300
C1011	C101	0.825890	0.017300	0.044800
C1021	C102	0.570860	0.858100	0.066820
H651	H65	0.581900	0.823200	0.076700
C1031	C103	0.544750	0.189900	0.055600
C1041	C104	0.576600	0.966900	0.053500
C1051	C105	0.434760	0.544000	0.884700
C1061	C106	0.472680	0.689400	0.045960
C1071	C107	0.485250	0.359300	0.053600
C1081	C108	0.458010	0.503600	0.937850
H661	H66	0.474000	0.479200	0.929100
C1091	C109	0.564900	0.178900	0.034290
H671	H67	0.567400	0.209700	0.020300
C1101	C110	0.451900	0.632600	0.040800
C1111	C111	0.510390	0.686700	0.051450
H681	H68	0.522500	0.648900	0.053800
C1121	C112	0.579430	0.079200	0.053600
C1131	C113	0.498440	0.333500	0.082000
H691	H69	0.495500	0.352100	0.100100
C1141	C114	0.530030	0.741200	0.053370
H701	H70	0.555600	0.738200	0.056200
C1151	C115	0.533450	0.856100	0.049700
C1161	C116	0.457740	0.497800	0.967910
H711	H71	0.472700	0.468900	0.979600
C1171	C117	0.435850	0.543400	0.920390
C1181	C118	0.515020	0.799400	0.051450
C1191	C119	0.541300	0.962700	0.037900
H721	H72	0.530900	0.997500	0.027500
C1201	C120	0.775000	0.051800	0.070400
H731	H73	0.766700	0.071900	0.086300
C1211	C121	0.399800	0.560400	0.836620
H741	H74	0.377100	0.568100	0.824300
C1221	C122	0.509730	0.280300	0.028710
H751	H75	0.513500	0.261400	0.010800
C1231	C123	0.540610	0.142300	0.076360
H761	H76	0.525500	0.148900	0.090600
C1241	C124	0.517570	0.273800	0.080620
H771	H77	0.525500	0.251400	0.098400
C1251	C125	0.522900	0.253900	0.056060
C1261	C126	0.474930	0.802000	0.045770
H781	H78	0.462800	0.839900	0.043900
C1271	C127	0.453750	0.508900	0.776960
H791	H79	0.467600	0.478500	0.788500
C1281	C128	0.813680	0.048800	0.070400
H801	H80	0.830700	0.066300	0.086100
C1291	C129	0.589500	0.913900	0.067930
H811	H81	0.613100	0.915200	0.079600
C1301	C130	0.650250	0.973900	0.038100
H821	H82	0.635700	0.940600	0.030100
C1311	C131	0.520700	0.911400	0.036600
H831	H83	0.496400	0.913200	0.026200
C1321	C132	0.455200	0.747900	0.043270
H841	H84	0.429500	0.749700	0.039700
C1331	C133	0.658070	0.068900	0.064600
H851	H85	0.648300	0.102300	0.073500
C1341	C134	0.403910	0.557100	0.866240
H861	H86	0.383200	0.564800	0.874900
C1351	C135	0.460440	0.420400	0.053200
C1361	C136	0.867300	0.017700	0.047600
C1371	C137	0.710490	0.023800	0.048350
C1381	C138	0.582120	0.123300	0.032420
H871	H87	0.595400	0.115800	0.016900
C1391	C139	0.634600	0.021700	0.053100
C1401	C140	0.689510	0.976100	0.034900
H881	H88	0.699600	0.945900	0.024000
C1411	C141	0.557870	0.087700	0.076100
H891	H89	0.555600	0.057000	0.090100
C1421	C142	0.693930	0.069600	0.063600
H901	H90	0.708500	0.101400	0.073300
C1431	C143	0.801600	0.993200	0.023400
H911	H91	0.809400	0.973400	0.007200
C1441	C144	0.464890	0.536500	0.843200
H921	H92	0.486300	0.528900	0.835500
C1451	C145	0.749120	0.025300	0.047100
C1461	C146	0.764000	0.996400	0.024100
H931	H93	0.747800	0.978100	0.008200
C1471	C147	0.410040	0.590700	0.770500
H941	H94	0.395500	0.619500	0.778300
C1481	C148	0.413540	0.581400	0.932940
H951	H95	0.398700	0.610700	0.921400
C1491	C149	0.414000	0.574600	0.962900
H961	H96	0.398200	0.599700	0.971600
N51	N5	0.428780	0.550400	0.725840
N61	N6	0.596200	0.023500	0.052650
N71	N7	0.434480	0.536300	0.980900
O131	O13	0.467180	0.581000	0.046240
O141	O14	0.448520	0.441400	0.028250
O151	O15	0.416710	0.634950	0.029180
O161	O16	0.889740	0.020700	0.070080
O171	O17	0.456250	0.436500	0.079430
O181	O18	0.874560	0.011700	0.019610
Zn41	Zn4	0.429030	0.524520	0.026260
C1501	C150	0.812600	0.069400	0.647600
C1511	C151	0.803000	0.082600	0.674200
H971	H97	0.820900	0.089500	0.691400
C1521	C152	0.473200	0.357500	0.677730
H981	H98	0.465000	0.373300	0.694700
C1531	C153	0.466470	0.390900	0.650700
C1541	C154	0.491300	0.302500	0.680300
H991	H99	0.494100	0.280400	0.698400
C1551	C155	0.498700	0.311500	0.628200
H1001	H100	0.506400	0.296100	0.610900
C1561	C156	0.751200	0.062000	0.622700
H1011	H101	0.734600	0.059200	0.604300
C1571	C157	0.479200	0.369900	0.626920
H1021	H102	0.475700	0.392800	0.609000
C1581	C158	0.788700	0.060500	0.623700
H1031	H103	0.797100	0.052300	0.605700
C1591	C159	0.765100	0.085900	0.675900
H1041	H104	0.757700	0.100100	0.693500
C1601	C160	0.505760	0.278800	0.655280
C1611	C161	0.738700	0.068000	0.650900
C1621	C162	0.525290	0.221300	0.656520
C1631	C163	0.639500	0.017600	0.638700
H1051	H105	0.625000	0.987600	0.627400
C1641	C164	0.532300	0.881500	0.659800
C1651	C165	0.510300	0.820300	0.658800
C1661	C166	0.573700	0.158600	0.644280
H1061	H106	0.592900	0.153500	0.633500
C1671	C167	0.476300	0.706200	0.655400
C1681	C168	0.452300	0.644700	0.655800
C1691	C169	0.698900	0.063500	0.653100
C1701	C170	0.507600	0.714300	0.674370
H1071	H107	0.516700	0.682900	0.687800
C1711	C171	0.476770	0.810300	0.638200
H1081	H108	0.466100	0.842600	0.625900
C1721	C172	0.528000	0.771200	0.674800
H1091	H109	0.552100	0.774600	0.685400
C1731	C173	0.517700	0.171100	0.675700
H1101	H110	0.499300	0.175500	0.687400
C1741	C174	0.567300	0.889600	0.676400
H1111	H111	0.578600	0.857700	0.688500
C1751	C175	0.459300	0.751800	0.636100
H1121	H112	0.437500	0.744400	0.622400
C1761	C176	0.567900	0.997000	0.661300
C1771	C177	0.565800	0.110700	0.661400
C1781	C178	0.624300	0.056700	0.659000
C1791	C179	0.534000	0.992100	0.644700
H1131	H113	0.522800	0.024900	0.633200
C1801	C180	0.585100	0.943800	0.675100
H1141	H114	0.610000	0.945900	0.683700
C1811	C181	0.686100	0.106600	0.673900
H1151	H115	0.701300	0.136800	0.684300
C1821	C182	0.556200	0.212400	0.641710
H1161	H116	0.564000	0.244100	0.630300
C1831	C183	0.537200	0.117300	0.677000
H1171	H117	0.531000	0.084600	0.688600
C1841	C184	0.515300	0.932200	0.645400
H1181	H118	0.490800	0.928800	0.635600
C1851	C185	0.647400	0.099200	0.677200
H1191	H119	0.638000	0.122800	0.691400
C1861	C186	0.449220	0.456800	0.650600
C1871	C187	0.674300	0.024700	0.636200
H1201	H120	0.682900	0.001100	0.621500
C1881	C188	0.854100	0.063300	0.645100
N81	N8	0.586460	0.054400	0.661320
O191	O19	0.441640	0.473200	0.677450
O201	O20	0.442490	0.483100	0.626580
O211	O21	0.463980	0.614500	0.677500
O221	O22	0.863880	0.047600	0.623210
O231	O23	0.874760	0.074200	0.671060
O241	O24	0.431540	0.628700	0.629910
Zn51	Zn5	0.426560	0.554060	0.682040
Zn61	Zn6	0.410410	0.548440	0.601230
C1891	C189	0.951370	0.985400	0.245700
H1211	H121	0.967700	0.009900	0.237300
C1901	C190	0.932230	0.944300	0.290150
C1911	C191	0.906970	0.912400	0.240320
H1221	H122	0.889100	0.888100	0.228400
C1921	C192	0.934000	0.949300	0.324210
C1931	C193	0.966000	0.967300	0.374420
H1231	H123	0.987700	0.977400	0.387700
C1941	C194	0.990300	0.163300	0.527600
H1241	H124	0.981600	0.143400	0.509300
C1951	C195	0.325890	0.482700	0.544800
C1961	C196	0.070860	0.641900	0.566820
H1251	H125	0.081900	0.676800	0.576700
C1971	C197	0.044750	0.310100	0.555600
C1981	C198	0.076600	0.533100	0.553500
C1991	C199	0.934760	0.956000	0.384700
C2001	C200	0.972680	0.810600	0.545960
C2011	C201	0.985250	0.140700	0.553600
C2021	C202	0.958010	0.996400	0.437850
H1261	H126	0.974000	0.020800	0.429100
C2031	C203	0.064900	0.321100	0.534290
H1271	H127	0.067400	0.290300	0.520300
C2041	C204	0.951900	0.867400	0.540800
C2051	C205	0.010390	0.813300	0.551450
H1281	H128	0.022500	0.851100	0.553800
C2061	C206	0.079430	0.420800	0.553600
C2071	C207	0.998440	0.166500	0.582000
H1291	H129	0.995500	0.147900	0.600100
C2081	C208	0.030030	0.758800	0.553370
H1301	H130	0.055600	0.761800	0.556200
C2091	C209	0.033450	0.643900	0.549700
C2101	C210	0.957740	0.002200	0.467910
H1311	H131	0.972700	0.031100	0.479600
C2111	C211	0.935850	0.956600	0.420390
C2121	C212	0.015020	0.700600	0.551450
C2131	C213	0.041300	0.537300	0.537900
H1321	H132	0.030900	0.502500	0.527500
C2141	C214	0.275000	0.448200	0.570400
H1331	H133	0.266700	0.428100	0.586300
C2151	C215	0.899800	0.939600	0.336620
H1341	H134	0.877100	0.931900	0.324300
C2161	C216	0.009730	0.219700	0.528710
H1351	H135	0.013500	0.238600	0.510800
C2171	C217	0.040610	0.357700	0.576360
H1361	H136	0.025500	0.351100	0.590600
C2181	C218	0.017570	0.226200	0.580620
H1371	H137	0.025500	0.248600	0.598400
C2191	C219	0.022900	0.246100	0.556060
C2201	C220	0.974930	0.698000	0.545770
H1381	H138	0.962800	0.660100	0.543900
C2211	C221	0.953750	0.991100	0.276960
H1391	H139	0.967600	0.021500	0.288500
C2221	C222	0.313680	0.451200	0.570400
H1401	H140	0.330700	0.433700	0.586100
C2231	C223	0.089500	0.586100	0.567930
H1411	H141	0.113100	0.584800	0.579600
C2241	C224	0.150250	0.526100	0.538100
H1421	H142	0.135700	0.559400	0.530100
C2251	C225	0.020700	0.588600	0.536600
H1431	H143	0.996400	0.586800	0.526200
C2261	C226	0.955200	0.752100	0.543270
H1441	H144	0.929500	0.750300	0.539700
C2271	C227	0.158070	0.431100	0.564600
H1451	H145	0.148300	0.397700	0.573500
C2281	C228	0.903910	0.942900	0.366240
H1461	H146	0.883200	0.935200	0.374900
C2291	C229	0.960440	0.079600	0.553200
C2301	C230	0.367300	0.482300	0.547600
C2311	C231	0.210490	0.476200	0.548350
C2321	C232	0.082120	0.376700	0.532420
H1471	H147	0.095400	0.384200	0.516900
C2331	C233	0.134600	0.478300	0.553100
C2341	C234	0.189510	0.523900	0.534900
H1481	H148	0.199600	0.554100	0.524000
C2351	C235	0.057870	0.412300	0.576100
H1491	H149	0.055600	0.443000	0.590100
C2361	C236	0.193930	0.430400	0.563600
H1501	H150	0.208500	0.398600	0.573300
C2371	C237	0.301600	0.506800	0.523400
H1511	H151	0.309400	0.526600	0.507200
C2381	C238	0.964890	0.963500	0.343200
H1521	H152	0.986300	0.971100	0.335500
C2391	C239	0.249120	0.474700	0.547100
C2401	C240	0.264000	0.503600	0.524100
H1531	H153	0.247800	0.521900	0.508200
C2411	C241	0.910040	0.909300	0.270500
H1541	H154	0.895500	0.880500	0.278300
C2421	C242	0.913540	0.918600	0.432940
H1551	H155	0.898700	0.889300	0.421400
C2431	C243	0.914000	0.925400	0.462900
H1561	H156	0.898200	0.900300	0.471600
N91	N9	0.928780	0.949600	0.225840
N101	N10	0.096200	0.476500	0.552650
N111	N11	0.934480	0.963700	0.480900
O251	O25	0.967180	0.919000	0.546240
O261	O26	0.948520	0.058600	0.528250
O271	O27	0.916710	0.865050	0.529180
O281	O28	0.389740	0.479300	0.570080
O291	O29	0.956250	0.063500	0.579430
O301	O30	0.374560	0.488300	0.519610
Zn71	Zn7	0.929030	0.975480	0.526260
C2441	C244	0.312600	0.430600	0.147600
C2451	C245	0.303000	0.417400	0.174200
H1571	H157	0.320900	0.410500	0.191400
C2461	C246	0.973200	0.142500	0.177730
H1581	H158	0.965000	0.126700	0.194700
C2471	C247	0.966470	0.109100	0.150700
C2481	C248	0.991300	0.197500	0.180300
H1591	H159	0.994100	0.219600	0.198400
C2491	C249	0.998700	0.188500	0.128200
H1601	H160	0.006400	0.203900	0.110900
C2501	C250	0.251200	0.438000	0.122700
H1611	H161	0.234600	0.440800	0.104300
C2511	C251	0.979200	0.130100	0.126920
H1621	H162	0.975700	0.107200	0.109000
C2521	C252	0.288700	0.439500	0.123700
H1631	H163	0.297100	0.447700	0.105700
C2531	C253	0.265100	0.414100	0.175900
H1641	H164	0.257700	0.399900	0.193500
C2541	C254	0.005760	0.221200	0.155280
C2551	C255	0.238700	0.432000	0.150900
C2561	C256	0.025290	0.278700	0.156520
C2571	C257	0.139500	0.482400	0.138700
H1651	H165	0.125000	0.512400	0.127400
C2581	C258	0.032300	0.618500	0.159800
C2591	C259	0.010300	0.679700	0.158800
C2601	C260	0.073700	0.341400	0.144280
H1661	H166	0.092900	0.346500	0.133500
C2611	C261	0.976300	0.793800	0.155400
C2621	C262	0.952300	0.855300	0.155800
C2631	C263	0.198900	0.436500	0.153100
C2641	C264	0.007600	0.785700	0.174370
H1671	H167	0.016700	0.817100	0.187800
C2651	C265	0.976770	0.689700	0.138200
H1681	H168	0.966100	0.657400	0.125900
C2661	C266	0.028000	0.728800	0.174800
H1691	H169	0.052100	0.725400	0.185400
C2671	C267	0.017700	0.328900	0.175700
H1701	H170	0.999300	0.324500	0.187400
C2681	C268	0.067300	0.610400	0.176400
H1711	H171	0.078600	0.642300	0.188500
C2691	C269	0.959300	0.748200	0.136100
H1721	H172	0.937500	0.755600	0.122400
C2701	C270	0.067900	0.503000	0.161300
C2711	C271	0.065800	0.389300	0.161400
C2721	C272	0.124300	0.443300	0.159000
C2731	C273	0.034000	0.507900	0.144700
H1731	H173	0.022800	0.475100	0.133200
C2741	C274	0.085100	0.556200	0.175100
H1741	H174	0.110000	0.554100	0.183700
C2751	C275	0.186100	0.393400	0.173900
H1751	H175	0.201300	0.363200	0.184300
C2761	C276	0.056200	0.287600	0.141710
H1761	H176	0.064000	0.255900	0.130300
C2771	C277	0.037200	0.382700	0.177000
H1771	H177	0.031000	0.415400	0.188600
C2781	C278	0.015300	0.567800	0.145400
H1781	H178	0.990800	0.571200	0.135600
C2791	C279	0.147400	0.400800	0.177200
H1791	H179	0.138000	0.377200	0.191400
C2801	C280	0.949220	0.043200	0.150600
C2811	C281	0.174300	0.475300	0.136200
H1801	H180	0.182900	0.498900	0.121500
C2821	C282	0.354100	0.436700	0.145100
N121	N12	0.086460	0.445600	0.161320
O311	O31	0.941640	0.026800	0.177450
O321	O32	0.942490	0.016900	0.126580
O331	O33	0.963980	0.885500	0.177500
O341	O34	0.363880	0.452400	0.123210
O351	O35	0.374760	0.425800	0.171060
O361	O36	0.931540	0.871300	0.129910
Zn81	Zn8	0.926560	0.945940	0.182040
Zn91	Zn9	0.910410	0.951560	0.101230
C2831	C283	0.451370	0.485400	0.245700
H1811	H181	0.467700	0.509900	0.237300
C2841	C284	0.432230	0.444300	0.290150
C2851	C285	0.406970	0.412400	0.240320
H1821	H182	0.389100	0.388100	0.228400
C2861	C286	0.434000	0.449300	0.324210
C2871	C287	0.466000	0.467300	0.374420
H1831	H183	0.487700	0.477400	0.387700
C2881	C288	0.490300	0.663300	0.527600
H1841	H184	0.481600	0.643400	0.509300
C2891	C289	0.825890	0.982700	0.544800
C2901	C290	0.570860	0.141900	0.566820
H1851	H185	0.581900	0.176800	0.576700
C2911	C291	0.544750	0.810100	0.555600
C2921	C292	0.576600	0.033100	0.553500
C2931	C293	0.434760	0.456000	0.384700
C2941	C294	0.472680	0.310600	0.545960
C2951	C295	0.485250	0.640700	0.553600
C2961	C296	0.458010	0.496400	0.437850
H1861	H186	0.474000	0.520800	0.429100
C2971	C297	0.564900	0.821100	0.534290
H1871	H187	0.567400	0.790300	0.520300
C2981	C298	0.451900	0.367400	0.540800
C2991	C299	0.510390	0.313300	0.551450
H1881	H188	0.522500	0.351100	0.553800
C3001	C300	0.579430	0.920800	0.553600
C3011	C301	0.498440	0.666500	0.582000
H1891	H189	0.495500	0.647900	0.600100
C3021	C302	0.530030	0.258800	0.553370
H1901	H190	0.555600	0.261800	0.556200
C3031	C303	0.533450	0.143900	0.549700
C3041	C304	0.457740	0.502200	0.467910
H1911	H191	0.472700	0.531100	0.479600
C3051	C305	0.435850	0.456600	0.420390
C3061	C306	0.515020	0.200600	0.551450
C3071	C307	0.541300	0.037300	0.537900
H1921	H192	0.530900	0.002500	0.527500
C3081	C308	0.775000	0.948200	0.570400
H1931	H193	0.766700	0.928100	0.586300
C3091	C309	0.399800	0.439600	0.336620
H1941	H194	0.377100	0.431900	0.324300
C3101	C310	0.509730	0.719700	0.528710
H1951	H195	0.513500	0.738600	0.510800
C3111	C311	0.540610	0.857700	0.576360
H1961	H196	0.525500	0.851100	0.590600
C3121	C312	0.517570	0.726200	0.580620
H1971	H197	0.525500	0.748600	0.598400
C3131	C313	0.522900	0.746100	0.556060
C3141	C314	0.474930	0.198000	0.545770
H1981	H198	0.462800	0.160100	0.543900
C3151	C315	0.453750	0.491100	0.276960
H1991	H199	0.467600	0.521500	0.288500
C3161	C316	0.813680	0.951200	0.570400
H2001	H200	0.830700	0.933700	0.586100
C3171	C317	0.589500	0.086100	0.567930
H2011	H201	0.613100	0.084800	0.579600
C3181	C318	0.650250	0.026100	0.538100
H2021	H202	0.635700	0.059400	0.530100
C3191	C319	0.520700	0.088600	0.536600
H2031	H203	0.496400	0.086800	0.526200
C3201	C320	0.455200	0.252100	0.543270
H2041	H204	0.429500	0.250300	0.539700
C3211	C321	0.658070	0.931100	0.564600
H2051	H205	0.648300	0.897700	0.573500
C3221	C322	0.403910	0.442900	0.366240
H2061	H206	0.383200	0.435200	0.374900
C3231	C323	0.460440	0.579600	0.553200
C3241	C324	0.867300	0.982300	0.547600
C3251	C325	0.710490	0.976200	0.548350
C3261	C326	0.582120	0.876700	0.532420
H2071	H207	0.595400	0.884200	0.516900
C3271	C327	0.634600	0.978300	0.553100
C3281	C328	0.689510	0.023900	0.534900
H2081	H208	0.699600	0.054100	0.524000
C3291	C329	0.557870	0.912300	0.576100
H2091	H209	0.555600	0.943000	0.590100
C3301	C330	0.693930	0.930400	0.563600
H2101	H210	0.708500	0.898600	0.573300
C3311	C331	0.801600	0.006800	0.523400
H2111	H211	0.809400	0.026600	0.507200
C3321	C332	0.464890	0.463500	0.343200
H2121	H212	0.486300	0.471100	0.335500
C3331	C333	0.749120	0.974700	0.547100
C3341	C334	0.764000	0.003600	0.524100
H2131	H213	0.747800	0.021900	0.508200
C3351	C335	0.410040	0.409300	0.270500
H2141	H214	0.395500	0.380500	0.278300
C3361	C336	0.413540	0.418600	0.432940
H2151	H215	0.398700	0.389300	0.421400
C3371	C337	0.414000	0.425400	0.462900
H2161	H216	0.398200	0.400300	0.471600
N131	N13	0.428780	0.449600	0.225840
N141	N14	0.596200	0.976500	0.552650
N151	N15	0.434480	0.463700	0.480900
O371	O37	0.467180	0.419000	0.546240
O381	O38	0.448520	0.558600	0.528250
O391	O39	0.416710	0.365050	0.529180
O401	O40	0.889740	0.979300	0.570080
O411	O41	0.456250	0.563500	0.579430
O421	O42	0.874560	0.988300	0.519610
Zn101	Zn10	0.429030	0.475480	0.526260
C3381	C338	0.812600	0.930600	0.147600
C3391	C339	0.803000	0.917400	0.174200
H2171	H217	0.820900	0.910500	0.191400
C3401	C340	0.473200	0.642500	0.177730
H2181	H218	0.465000	0.626700	0.194700
C3411	C341	0.466470	0.609100	0.150700
C3421	C342	0.491300	0.697500	0.180300
H2191	H219	0.494100	0.719600	0.198400
C3431	C343	0.498700	0.688500	0.128200
H2201	H220	0.506400	0.703900	0.110900
C3441	C344	0.751200	0.938000	0.122700
H2211	H221	0.734600	0.940800	0.104300
C3451	C345	0.479200	0.630100	0.126920
H2221	H222	0.475700	0.607200	0.109000
C3461	C346	0.788700	0.939500	0.123700
H2231	H223	0.797100	0.947700	0.105700
C3471	C347	0.765100	0.914100	0.175900
H2241	H224	0.757700	0.899900	0.193500
C3481	C348	0.505760	0.721200	0.155280
C3491	C349	0.738700	0.932000	0.150900
C3501	C350	0.525290	0.778700	0.156520
C3511	C351	0.639500	0.982400	0.138700
H2251	H225	0.625000	0.012400	0.127400
C3521	C352	0.532300	0.118500	0.159800
C3531	C353	0.510300	0.179700	0.158800
C3541	C354	0.573700	0.841400	0.144280
H2261	H226	0.592900	0.846500	0.133500
C3551	C355	0.476300	0.293800	0.155400
C3561	C356	0.452300	0.355300	0.155800
C3571	C357	0.698900	0.936500	0.153100
C3581	C358	0.507600	0.285700	0.174370
H2271	H227	0.516700	0.317100	0.187800
C3591	C359	0.476770	0.189700	0.138200
H2281	H228	0.466100	0.157400	0.125900
C3601	C360	0.528000	0.228800	0.174800
H2291	H229	0.552100	0.225400	0.185400
C3611	C361	0.517700	0.828900	0.175700
H2301	H230	0.499300	0.824500	0.187400
C3621	C362	0.567300	0.110400	0.176400
H2311	H231	0.578600	0.142300	0.188500
C3631	C363	0.459300	0.248200	0.136100
H2321	H232	0.437500	0.255600	0.122400
C3641	C364	0.567900	0.003000	0.161300
C3651	C365	0.565800	0.889300	0.161400
C3661	C366	0.624300	0.943300	0.159000
C3671	C367	0.534000	0.007900	0.144700
H2331	H233	0.522800	0.975100	0.133200
C3681	C368	0.585100	0.056200	0.175100
H2341	H234	0.610000	0.054100	0.183700
C3691	C369	0.686100	0.893400	0.173900
H2351	H235	0.701300	0.863200	0.184300
C3701	C370	0.556200	0.787600	0.141710
H2361	H236	0.564000	0.755900	0.130300
C3711	C371	0.537200	0.882700	0.177000
H2371	H237	0.531000	0.915400	0.188600
C3721	C372	0.515300	0.067800	0.145400
H2381	H238	0.490800	0.071200	0.135600
C3731	C373	0.647400	0.900800	0.177200
H2391	H239	0.638000	0.877200	0.191400
C3741	C374	0.449220	0.543200	0.150600
C3751	C375	0.674300	0.975300	0.136200
H2401	H240	0.682900	0.998900	0.121500
C3761	C376	0.854100	0.936700	0.145100
N161	N16	0.586460	0.945600	0.161320
O431	O43	0.441640	0.526800	0.177450
O441	O44	0.442490	0.516900	0.126580
O451	O45	0.463980	0.385500	0.177500
O461	O46	0.863880	0.952400	0.123210
O471	O47	0.874760	0.925800	0.171060
O481	O48	0.431540	0.371300	0.129910
Zn111	Zn11	0.426560	0.445940	0.182040
Zn121	Zn12	0.410410	0.451560	0.101230
C3771	C377	0.048630	0.014600	0.754300
H2411	H241	0.032300	0.990100	0.762700
C3781	C378	0.067770	0.055700	0.709850
C3791	C379	0.093030	0.087600	0.759680
H2421	H242	0.110900	0.111900	0.771600
C3801	C380	0.066000	0.050700	0.675790
C3811	C381	0.034000	0.032700	0.625580
H2431	H243	0.012300	0.022600	0.612300
C3821	C382	0.009700	0.836700	0.472400
H2441	H244	0.018400	0.856600	0.490700
C3831	C383	0.674110	0.517300	0.455200
C3841	C384	0.929140	0.358100	0.433180
H2451	H245	0.918100	0.323200	0.423300
C3851	C385	0.955250	0.689900	0.444400
C3861	C386	0.923400	0.466900	0.446500
C3871	C387	0.065240	0.044000	0.615300
C3881	C388	0.027320	0.189400	0.454040
C3891	C389	0.014750	0.859300	0.446400
C3901	C390	0.041990	0.003600	0.562150
H2461	H246	0.026000	0.979200	0.570900
C3911	C391	0.935100	0.678900	0.465710
H2471	H247	0.932600	0.709700	0.479700
C3921	C392	0.048100	0.132600	0.459200
C3931	C393	0.989610	0.186700	0.448550
H2481	H248	0.977500	0.148900	0.446200
C3941	C394	0.920570	0.579200	0.446400
C3951	C395	0.001560	0.833500	0.418000
H2491	H249	0.004500	0.852100	0.399900
C3961	C396	0.969970	0.241200	0.446630
H2501	H250	0.944400	0.238200	0.443800
C3971	C397	0.966550	0.356100	0.450300
C3981	C398	0.042260	0.997800	0.532090
H2511	H251	0.027300	0.968900	0.520400
C3991	C399	0.064150	0.043400	0.579610
C4001	C400	0.984980	0.299400	0.448550
C4011	C401	0.958700	0.462700	0.462100
H2521	H252	0.969100	0.497500	0.472500
C4021	C402	0.725000	0.551800	0.429600
H2531	H253	0.733300	0.571900	0.413700
C4031	C403	0.100200	0.060400	0.663380
H2541	H254	0.122900	0.068100	0.675700
C4041	C404	0.990270	0.780300	0.471290
H2551	H255	0.986500	0.761400	0.489200
C4051	C405	0.959390	0.642300	0.423640
H2561	H256	0.974500	0.648900	0.409400
C4061	C406	0.982430	0.773800	0.419380
H2571	H257	0.974500	0.751400	0.401600
C4071	C407	0.977100	0.753900	0.443940
C4081	C408	0.025070	0.302000	0.454230
H2581	H258	0.037200	0.339900	0.456100
C4091	C409	0.046250	0.008900	0.723040
H2591	H259	0.032400	0.978500	0.711500
C4101	C410	0.686320	0.548800	0.429600
H2601	H260	0.669300	0.566300	0.413900
C4111	C411	0.910500	0.413900	0.432070
H2611	H261	0.886900	0.415200	0.420400
C4121	C412	0.849750	0.473900	0.461900
H2621	H262	0.864300	0.440600	0.469900
C4131	C413	0.979300	0.411400	0.463400
H2631	H263	0.003600	0.413200	0.473800
C4141	C414	0.044800	0.247900	0.456730
H2641	H264	0.070500	0.249700	0.460300
C4151	C415	0.841930	0.568900	0.435400
H2651	H265	0.851700	0.602300	0.426500
C4161	C416	0.096090	0.057100	0.633760
H2661	H266	0.116800	0.064800	0.625100
C4171	C417	0.039560	0.920400	0.446800
C4181	C418	0.632700	0.517700	0.452400
C4191	C419	0.789510	0.523800	0.451650
C4201	C420	0.917880	0.623300	0.467580
H2671	H267	0.904600	0.615800	0.483100
C4211	C421	0.865400	0.521700	0.446900
C4221	C422	0.810490	0.476100	0.465100
H2681	H268	0.800400	0.445900	0.476000
C4231	C423	0.942130	0.587700	0.423900
H2691	H269	0.944400	0.557000	0.409900
C4241	C424	0.806070	0.569600	0.436400
H2701	H270	0.791500	0.601400	0.426700
C4251	C425	0.698400	0.493200	0.476600
H2711	H271	0.690600	0.473400	0.492800
C4261	C426	0.035110	0.036500	0.656800
H2721	H272	0.013700	0.028900	0.664500
C4271	C427	0.750880	0.525300	0.452900
C4281	C428	0.736000	0.496400	0.475900
H2731	H273	0.752200	0.478100	0.491800
C4291	C429	0.089960	0.090700	0.729500
H2741	H274	0.104500	0.119500	0.721700
C4301	C430	0.086460	0.081400	0.567060
H2751	H275	0.101300	0.110700	0.578600
C4311	C431	0.086000	0.074600	0.537100
H2761	H276	0.101800	0.099700	0.528400
N171	N17	0.071220	0.050400	0.774160
N181	N18	0.903800	0.523500	0.447350
N191	N19	0.065520	0.036300	0.519100
O491	O49	0.032820	0.081000	0.453760
O501	O50	0.051480	0.941400	0.471750
O511	O51	0.083290	0.134950	0.470820
O521	O52	0.610260	0.520700	0.429920
O531	O53	0.043750	0.936500	0.420570
O541	O54	0.625440	0.511700	0.480390
Zn131	Zn13	0.070970	0.024520	0.473740
C4321	C432	0.687400	0.569400	0.852400
C4331	C433	0.697000	0.582600	0.825800
H2771	H277	0.679100	0.589500	0.808600
C4341	C434	0.026800	0.857500	0.822270
H2781	H278	0.035000	0.873300	0.805300
C4351	C435	0.033530	0.890900	0.849300
C4361	C436	0.008700	0.802500	0.819700
H2791	H279	0.005900	0.780400	0.801600
C4371	C437	0.001300	0.811500	0.871800
H2801	H280	0.993600	0.796100	0.889100
C4381	C438	0.748800	0.562000	0.877300
H2811	H281	0.765400	0.559200	0.895700
C4391	C439	0.020800	0.869900	0.873080
H2821	H282	0.024300	0.892800	0.891000
C4401	C440	0.711300	0.560500	0.876300
H2831	H283	0.702900	0.552300	0.894300
C4411	C441	0.734900	0.585900	0.824100
H2841	H284	0.742300	0.600100	0.806500
C4421	C442	0.994240	0.778800	0.844720
C4431	C443	0.761300	0.568000	0.849100
C4441	C444	0.974710	0.721300	0.843480
C4451	C445	0.860500	0.517600	0.861300
H2851	H285	0.875000	0.487600	0.872600
C4461	C446	0.967700	0.381500	0.840200
C4471	C447	0.989700	0.320300	0.841200
C4481	C448	0.926300	0.658600	0.855720
H2861	H286	0.907100	0.653500	0.866500
C4491	C449	0.023700	0.206200	0.844600
C4501	C450	0.047700	0.144700	0.844200
C4511	C451	0.801100	0.563500	0.846900
C4521	C452	0.992400	0.214300	0.825630
H2871	H287	0.983300	0.182900	0.812200
C4531	C453	0.023230	0.310300	0.861800
H2881	H288	0.033900	0.342600	0.874100
C4541	C454	0.972000	0.271200	0.825200
H2891	H289	0.947900	0.274600	0.814600
C4551	C455	0.982300	0.671100	0.824300
H2901	H290	0.000700	0.675500	0.812600
C4561	C456	0.932700	0.389600	0.823600
H2911	H291	0.921400	0.357700	0.811500
C4571	C457	0.040700	0.251800	0.863900
H2921	H292	0.062500	0.244400	0.877600
C4581	C458	0.932100	0.497000	0.838700
C4591	C459	0.934200	0.610700	0.838600
C4601	C460	0.875700	0.556700	0.841000
C4611	C461	0.966000	0.492100	0.855300
H2931	H293	0.977200	0.524900	0.866800
C4621	C462	0.914900	0.443800	0.824900
H2941	H294	0.890000	0.445900	0.816300
C4631	C463	0.813900	0.606600	0.826100
H2951	H295	0.798700	0.636800	0.815700
C4641	C464	0.943800	0.712400	0.858290
H2961	H296	0.936000	0.744100	0.869700
C4651	C465	0.962800	0.617300	0.823000
H2971	H297	0.969000	0.584600	0.811400
C4661	C466	0.984700	0.432200	0.854600
H2981	H298	0.009200	0.428800	0.864400
C4671	C467	0.852600	0.599200	0.822800
H2991	H299	0.862000	0.622800	0.808600
C4681	C468	0.050780	0.956800	0.849400
C4691	C469	0.825700	0.524700	0.863800
H3001	H300	0.817100	0.501100	0.878500
C4701	C470	0.645900	0.563300	0.854900
N201	N20	0.913540	0.554400	0.838680
O551	O55	0.058360	0.973200	0.822550
O561	O56	0.057510	0.983100	0.873420
O571	O57	0.036020	0.114500	0.822500
O581	O58	0.636120	0.547600	0.876790
O591	O59	0.625240	0.574200	0.828940
O601	O60	0.068460	0.128700	0.870090
Zn141	Zn14	0.073440	0.054060	0.817960
Zn151	Zn15	0.089590	0.048440	0.898770
C4711	C471	0.548630	0.514600	0.754300
H3011	H301	0.532300	0.490100	0.762700
C4721	C472	0.567770	0.555700	0.709850
C4731	C473	0.593030	0.587600	0.759680
H3021	H302	0.610900	0.611900	0.771600
C4741	C474	0.566000	0.550700	0.675790
C4751	C475	0.534000	0.532700	0.625580
H3031	H303	0.512300	0.522600	0.612300
C4761	C476	0.509700	0.336700	0.472400
H3041	H304	0.518400	0.356600	0.490700
C4771	C477	0.174110	0.017300	0.455200
C4781	C478	0.429140	0.858100	0.433180
H3051	H305	0.418100	0.823200	0.423300
C4791	C479	0.455250	0.189900	0.444400
C4801	C480	0.423400	0.966900	0.446500
C4811	C481	0.565240	0.544000	0.615300
C4821	C482	0.527320	0.689400	0.454040
C4831	C483	0.514750	0.359300	0.446400
C4841	C484	0.541990	0.503600	0.562150
H3061	H306	0.526000	0.479200	0.570900
C4851	C485	0.435100	0.178900	0.465710
H3071	H307	0.432600	0.209700	0.479700
C4861	C486	0.548100	0.632600	0.459200
C4871	C487	0.489610	0.686700	0.448550
H3081	H308	0.477500	0.648900	0.446200
C4881	C488	0.420570	0.079200	0.446400
C4891	C489	0.501560	0.333500	0.418000
H3091	H309	0.504500	0.352100	0.399900
C4901	C490	0.469970	0.741200	0.446630
H3101	H310	0.444400	0.738200	0.443800
C4911	C491	0.466550	0.856100	0.450300
C4921	C492	0.542260	0.497800	0.532090
H3111	H311	0.527300	0.468900	0.520400
C4931	C493	0.564150	0.543400	0.579610
C4941	C494	0.484980	0.799400	0.448550
C4951	C495	0.458700	0.962700	0.462100
H3121	H312	0.469100	0.997500	0.472500
C4961	C496	0.225000	0.051800	0.429600
H3131	H313	0.233300	0.071900	0.413700
C4971	C497	0.600200	0.560400	0.663380
H3141	H314	0.622900	0.568100	0.675700
C4981	C498	0.490270	0.280300	0.471290
H3151	H315	0.486500	0.261400	0.489200
C4991	C499	0.459390	0.142300	0.423640
H3161	H316	0.474500	0.148900	0.409400
C5001	C500	0.482430	0.273800	0.419380
H3171	H317	0.474500	0.251400	0.401600
C5011	C501	0.477100	0.253900	0.443940
C5021	C502	0.525070	0.802000	0.454230
H3181	H318	0.537200	0.839900	0.456100
C5031	C503	0.546250	0.508900	0.723040
H3191	H319	0.532400	0.478500	0.711500
C5041	C504	0.186320	0.048800	0.429600
H3201	H320	0.169300	0.066300	0.413900
C5051	C505	0.410500	0.913900	0.432070
H3211	H321	0.386900	0.915200	0.420400
C5061	C506	0.349750	0.973900	0.461900
H3221	H322	0.364300	0.940600	0.469900
C5071	C507	0.479300	0.911400	0.463400
H3231	H323	0.503600	0.913200	0.473800
C5081	C508	0.544800	0.747900	0.456730
H3241	H324	0.570500	0.749700	0.460300
C5091	C509	0.341930	0.068900	0.435400
H3251	H325	0.351700	0.102300	0.426500
C5101	C510	0.596090	0.557100	0.633760
H3261	H326	0.616800	0.564800	0.625100
C5111	C511	0.539560	0.420400	0.446800
C5121	C512	0.132700	0.017700	0.452400
C5131	C513	0.289510	0.023800	0.451650
C5141	C514	0.417880	0.123300	0.467580
H3271	H327	0.404600	0.115800	0.483100
C5151	C515	0.365400	0.021700	0.446900
C5161	C516	0.310490	0.976100	0.465100
H3281	H328	0.300400	0.945900	0.476000
C5171	C517	0.442130	0.087700	0.423900
H3291	H329	0.444400	0.057000	0.409900
C5181	C518	0.306070	0.069600	0.436400
H3301	H330	0.291500	0.101400	0.426700
C5191	C519	0.198400	0.993200	0.476600
H3311	H331	0.190600	0.973400	0.492800
C5201	C520	0.535110	0.536500	0.656800
H3321	H332	0.513700	0.528900	0.664500
C5211	C521	0.250880	0.025300	0.452900
C5221	C522	0.236000	0.996400	0.475900
H3331	H333	0.252200	0.978100	0.491800
C5231	C523	0.589960	0.590700	0.729500
H3341	H334	0.604500	0.619500	0.721700
C5241	C524	0.586460	0.581400	0.567060
H3351	H335	0.601300	0.610700	0.578600
C5251	C525	0.586000	0.574600	0.537100
H3361	H336	0.601800	0.599700	0.528400
N211	N21	0.571220	0.550400	0.774160
N221	N22	0.403800	0.023500	0.447350
N231	N23	0.565520	0.536300	0.519100
O611	O61	0.532820	0.581000	0.453760
O621	O62	0.551480	0.441400	0.471750
O631	O63	0.583290	0.634950	0.470820
O641	O64	0.110260	0.020700	0.429920
O651	O65	0.543750	0.436500	0.420570
O661	O66	0.125440	0.011700	0.480390
Zn161	Zn16	0.570970	0.524520	0.473740
C5261	C526	0.187400	0.069400	0.852400
C5271	C527	0.197000	0.082600	0.825800
H3371	H337	0.179100	0.089500	0.808600
C5281	C528	0.526800	0.357500	0.822270
H3381	H338	0.535000	0.373300	0.805300
C5291	C529	0.533530	0.390900	0.849300
C5301	C530	0.508700	0.302500	0.819700
H3391	H339	0.505900	0.280400	0.801600
C5311	C531	0.501300	0.311500	0.871800
H3401	H340	0.493600	0.296100	0.889100
C5321	C532	0.248800	0.062000	0.877300
H3411	H341	0.265400	0.059200	0.895700
C5331	C533	0.520800	0.369900	0.873080
H3421	H342	0.524300	0.392800	0.891000
C5341	C534	0.211300	0.060500	0.876300
H3431	H343	0.202900	0.052300	0.894300
C5351	C535	0.234900	0.085900	0.824100
H3441	H344	0.242300	0.100100	0.806500
C5361	C536	0.494240	0.278800	0.844720
C5371	C537	0.261300	0.068000	0.849100
C5381	C538	0.474710	0.221300	0.843480
C5391	C539	0.360500	0.017600	0.861300
H3451	H345	0.375000	0.987600	0.872600
C5401	C540	0.467700	0.881500	0.840200
C5411	C541	0.489700	0.820300	0.841200
C5421	C542	0.426300	0.158600	0.855720
H3461	H346	0.407100	0.153500	0.866500
C5431	C543	0.523700	0.706200	0.844600
C5441	C544	0.547700	0.644700	0.844200
C5451	C545	0.301100	0.063500	0.846900
C5461	C546	0.492400	0.714300	0.825630
H3471	H347	0.483300	0.682900	0.812200
C5471	C547	0.523230	0.810300	0.861800
H3481	H348	0.533900	0.842600	0.874100
C5481	C548	0.472000	0.771200	0.825200
H3491	H349	0.447900	0.774600	0.814600
C5491	C549	0.482300	0.171100	0.824300
H3501	H350	0.500700	0.175500	0.812600
C5501	C550	0.432700	0.889600	0.823600
H3511	H351	0.421400	0.857700	0.811500
C5511	C551	0.540700	0.751800	0.863900
H3521	H352	0.562500	0.744400	0.877600
C5521	C552	0.432100	0.997000	0.838700
C5531	C553	0.434200	0.110700	0.838600
C5541	C554	0.375700	0.056700	0.841000
C5551	C555	0.466000	0.992100	0.855300
H3531	H353	0.477200	0.024900	0.866800
C5561	C556	0.414900	0.943800	0.824900
H3541	H354	0.390000	0.945900	0.816300
C5571	C557	0.313900	0.106600	0.826100
H3551	H355	0.298700	0.136800	0.815700
C5581	C558	0.443800	0.212400	0.858290
H3561	H356	0.436000	0.244100	0.869700
C5591	C559	0.462800	0.117300	0.823000
H3571	H357	0.469000	0.084600	0.811400
C5601	C560	0.484700	0.932200	0.854600
H3581	H358	0.509200	0.928800	0.864400
C5611	C561	0.352600	0.099200	0.822800
H3591	H359	0.362000	0.122800	0.808600
C5621	C562	0.550780	0.456800	0.849400
C5631	C563	0.325700	0.024700	0.863800
H3601	H360	0.317100	0.001100	0.878500
C5641	C564	0.145900	0.063300	0.854900
N241	N24	0.413540	0.054400	0.838680
O671	O67	0.558360	0.473200	0.822550
O681	O68	0.557510	0.483100	0.873420
O691	O69	0.536020	0.614500	0.822500
O701	O70	0.136120	0.047600	0.876790
O711	O71	0.125240	0.074200	0.828940
O721	O72	0.568460	0.628700	0.870090
Zn171	Zn17	0.573440	0.554060	0.817960
Zn181	Zn18	0.589590	0.548440	0.898770
C5651	C565	0.048630	0.985400	0.254300
H3611	H361	0.032300	0.009900	0.262700
C5661	C566	0.067770	0.944300	0.209850
C5671	C567	0.093030	0.912400	0.259680
H3621	H362	0.110900	0.888100	0.271600
C5681	C568	0.066000	0.949300	0.175790
C5691	C569	0.034000	0.967300	0.125580
H3631	H363	0.012300	0.977400	0.112300
C5701	C570	0.009700	0.163300	0.972400
H3641	H364	0.018400	0.143400	0.990700
C5711	C571	0.674110	0.482700	0.955200
C5721	C572	0.929140	0.641900	0.933180
H3651	H365	0.918100	0.676800	0.923300
C5731	C573	0.955250	0.310100	0.944400
C5741	C574	0.923400	0.533100	0.946500
C5751	C575	0.065240	0.956000	0.115300
C5761	C576	0.027320	0.810600	0.954040
C5771	C577	0.014750	0.140700	0.946400
C5781	C578	0.041990	0.996400	0.062150
H3661	H366	0.026000	0.020800	0.070900
C5791	C579	0.935100	0.321100	0.965710
H3671	H367	0.932600	0.290300	0.979700
C5801	C580	0.048100	0.867400	0.959200
C5811	C581	0.989610	0.813300	0.948550
H3681	H368	0.977500	0.851100	0.946200
C5821	C582	0.920570	0.420800	0.946400
C5831	C583	0.001560	0.166500	0.918000
H3691	H369	0.004500	0.147900	0.899900
C5841	C584	0.969970	0.758800	0.946630
H3701	H370	0.944400	0.761800	0.943800
C5851	C585	0.966550	0.643900	0.950300
C5861	C586	0.042260	0.002200	0.032090
H3711	H371	0.027300	0.031100	0.020400
C5871	C587	0.064150	0.956600	0.079610
C5881	C588	0.984980	0.700600	0.948550
C5891	C589	0.958700	0.537300	0.962100
H3721	H372	0.969100	0.502500	0.972500
C5901	C590	0.725000	0.448200	0.929600
H3731	H373	0.733300	0.428100	0.913700
C5911	C591	0.100200	0.939600	0.163380
H3741	H374	0.122900	0.931900	0.175700
C5921	C592	0.990270	0.219700	0.971290
H3751	H375	0.986500	0.238600	0.989200
C5931	C593	0.959390	0.357700	0.923640
H3761	H376	0.974500	0.351100	0.909400
C5941	C594	0.982430	0.226200	0.919380
H3771	H377	0.974500	0.248600	0.901600
C5951	C595	0.977100	0.246100	0.943940
C5961	C596	0.025070	0.698000	0.954230
H3781	H378	0.037200	0.660100	0.956100
C5971	C597	0.046250	0.991100	0.223040
H3791	H379	0.032400	0.021500	0.211500
C5981	C598	0.686320	0.451200	0.929600
H3801	H380	0.669300	0.433700	0.913900
C5991	C599	0.910500	0.586100	0.932070
H3811	H381	0.886900	0.584800	0.920400
C6001	C600	0.849750	0.526100	0.961900
H3821	H382	0.864300	0.559400	0.969900
C6011	C601	0.979300	0.588600	0.963400
H3831	H383	0.003600	0.586800	0.973800
C6021	C602	0.044800	0.752100	0.956730
H3841	H384	0.070500	0.750300	0.960300
C6031	C603	0.841930	0.431100	0.935400
H3851	H385	0.851700	0.397700	0.926500
C6041	C604	0.096090	0.942900	0.133760
H3861	H386	0.116800	0.935200	0.125100
C6051	C605	0.039560	0.079600	0.946800
C6061	C606	0.632700	0.482300	0.952400
C6071	C607	0.789510	0.476200	0.951650
C6081	C608	0.917880	0.376700	0.967580
H3871	H387	0.904600	0.384200	0.983100
C6091	C609	0.865400	0.478300	0.946900
C6101	C610	0.810490	0.523900	0.965100
H3881	H388	0.800400	0.554100	0.976000
C6111	C611	0.942130	0.412300	0.923900
H3891	H389	0.944400	0.443000	0.909900
C6121	C612	0.806070	0.430400	0.936400
H3901	H390	0.791500	0.398600	0.926700
C6131	C613	0.698400	0.506800	0.976600
H3911	H391	0.690600	0.526600	0.992800
C6141	C614	0.035110	0.963500	0.156800
H3921	H392	0.013700	0.971100	0.164500
C6151	C615	0.750880	0.474700	0.952900
C6161	C616	0.736000	0.503600	0.975900
H3931	H393	0.752200	0.521900	0.991800
C6171	C617	0.089960	0.909300	0.229500
H3941	H394	0.104500	0.880500	0.221700
C6181	C618	0.086460	0.918600	0.067060
H3951	H395	0.101300	0.889300	0.078600
C6191	C619	0.086000	0.925400	0.037100
H3961	H396	0.101800	0.900300	0.028400
N251	N25	0.071220	0.949600	0.274160
N261	N26	0.903800	0.476500	0.947350
N271	N27	0.065520	0.963700	0.019100
O731	O73	0.032820	0.919000	0.953760
O741	O74	0.051480	0.058600	0.971750
O751	O75	0.083290	0.865050	0.970820
O761	O76	0.610260	0.479300	0.929920
O771	O77	0.043750	0.063500	0.920570
O781	O78	0.625440	0.488300	0.980390
Zn191	Zn19	0.070970	0.975480	0.973740
C6201	C620	0.687400	0.430600	0.352400
C6211	C621	0.697000	0.417400	0.325800
H3971	H397	0.679100	0.410500	0.308600
C6221	C622	0.026800	0.142500	0.322270
H3981	H398	0.035000	0.126700	0.305300
C6231	C623	0.033530	0.109100	0.349300
C6241	C624	0.008700	0.197500	0.319700
H3991	H399	0.005900	0.219600	0.301600
C6251	C625	0.001300	0.188500	0.371800
H4001	H400	0.993600	0.203900	0.389100
C6261	C626	0.748800	0.438000	0.377300
H4011	H401	0.765400	0.440800	0.395700
C6271	C627	0.020800	0.130100	0.373080
H4021	H402	0.024300	0.107200	0.391000
C6281	C628	0.711300	0.439500	0.376300
H4031	H403	0.702900	0.447700	0.394300
C6291	C629	0.734900	0.414100	0.324100
H4041	H404	0.742300	0.399900	0.306500
C6301	C630	0.994240	0.221200	0.344720
C6311	C631	0.761300	0.432000	0.349100
C6321	C632	0.974710	0.278700	0.343480
C6331	C633	0.860500	0.482400	0.361300
H4051	H405	0.875000	0.512400	0.372600
C6341	C634	0.967700	0.618500	0.340200
C6351	C635	0.989700	0.679700	0.341200
C6361	C636	0.926300	0.341400	0.355720
H4061	H406	0.907100	0.346500	0.366500
C6371	C637	0.023700	0.793800	0.344600
C6381	C638	0.047700	0.855300	0.344200
C6391	C639	0.801100	0.436500	0.346900
C6401	C640	0.992400	0.785700	0.325630
H4071	H407	0.983300	0.817100	0.312200
C6411	C641	0.023230	0.689700	0.361800
H4081	H408	0.033900	0.657400	0.374100
C6421	C642	0.972000	0.728800	0.325200
H4091	H409	0.947900	0.725400	0.314600
C6431	C643	0.982300	0.328900	0.324300
H4101	H410	0.000700	0.324500	0.312600
C6441	C644	0.932700	0.610400	0.323600
H4111	H411	0.921400	0.642300	0.311500
C6451	C645	0.040700	0.748200	0.363900
H4121	H412	0.062500	0.755600	0.377600
C6461	C646	0.932100	0.503000	0.338700
C6471	C647	0.934200	0.389300	0.338600
C6481	C648	0.875700	0.443300	0.341000
C6491	C649	0.966000	0.507900	0.355300
H4131	H413	0.977200	0.475100	0.366800
C6501	C650	0.914900	0.556200	0.324900
H4141	H414	0.890000	0.554100	0.316300
C6511	C651	0.813900	0.393400	0.326100
H4151	H415	0.798700	0.363200	0.315700
C6521	C652	0.943800	0.287600	0.358290
H4161	H416	0.936000	0.255900	0.369700
C6531	C653	0.962800	0.382700	0.323000
H4171	H417	0.969000	0.415400	0.311400
C6541	C654	0.984700	0.567800	0.354600
H4181	H418	0.009200	0.571200	0.364400
C6551	C655	0.852600	0.400800	0.322800
H4191	H419	0.862000	0.377200	0.308600
C6561	C656	0.050780	0.043200	0.349400
C6571	C657	0.825700	0.475300	0.363800
H4201	H420	0.817100	0.498900	0.378500
C6581	C658	0.645900	0.436700	0.354900
N281	N28	0.913540	0.445600	0.338680
O791	O79	0.058360	0.026800	0.322550
O801	O80	0.057510	0.016900	0.373420
O811	O81	0.036020	0.885500	0.322500
O821	O82	0.636120	0.452400	0.376790
O831	O83	0.625240	0.425800	0.328940
O841	O84	0.068460	0.871300	0.370090
Zn201	Zn20	0.073440	0.945940	0.317960
Zn211	Zn21	0.089590	0.951560	0.398770
C6591	C659	0.548630	0.485400	0.254300
H4211	H421	0.532300	0.509900	0.262700
C6601	C660	0.567770	0.444300	0.209850
C6611	C661	0.593030	0.412400	0.259680
H4221	H422	0.610900	0.388100	0.271600
C6621	C662	0.566000	0.449300	0.175790
C6631	C663	0.534000	0.467300	0.125580
H4231	H423	0.512300	0.477400	0.112300
C6641	C664	0.509700	0.663300	0.972400
H4241	H424	0.518400	0.643400	0.990700
C6651	C665	0.174110	0.982700	0.955200
C6661	C666	0.429140	0.141900	0.933180
H4251	H425	0.418100	0.176800	0.923300
C6671	C667	0.455250	0.810100	0.944400
C6681	C668	0.423400	0.033100	0.946500
C6691	C669	0.565240	0.456000	0.115300
C6701	C670	0.527320	0.310600	0.954040
C6711	C671	0.514750	0.640700	0.946400
C6721	C672	0.541990	0.496400	0.062150
H4261	H426	0.526000	0.520800	0.070900
C6731	C673	0.435100	0.821100	0.965710
H4271	H427	0.432600	0.790300	0.979700
C6741	C674	0.548100	0.367400	0.959200
C6751	C675	0.489610	0.313300	0.948550
H4281	H428	0.477500	0.351100	0.946200
C6761	C676	0.420570	0.920800	0.946400
C6771	C677	0.501560	0.666500	0.918000
H4291	H429	0.504500	0.647900	0.899900
C6781	C678	0.469970	0.258800	0.946630
H4301	H430	0.444400	0.261800	0.943800
C6791	C679	0.466550	0.143900	0.950300
C6801	C680	0.542260	0.502200	0.032090
H4311	H431	0.527300	0.531100	0.020400
C6811	C681	0.564150	0.456600	0.079610
C6821	C682	0.484980	0.200600	0.948550
C6831	C683	0.458700	0.037300	0.962100
H4321	H432	0.469100	0.002500	0.972500
C6841	C684	0.225000	0.948200	0.929600
H4331	H433	0.233300	0.928100	0.913700
C6851	C685	0.600200	0.439600	0.163380
H4341	H434	0.622900	0.431900	0.175700
C6861	C686	0.490270	0.719700	0.971290
H4351	H435	0.486500	0.738600	0.989200
C6871	C687	0.459390	0.857700	0.923640
H4361	H436	0.474500	0.851100	0.909400
C6881	C688	0.482430	0.726200	0.919380
H4371	H437	0.474500	0.748600	0.901600
C6891	C689	0.477100	0.746100	0.943940
C6901	C690	0.525070	0.198000	0.954230
H4381	H438	0.537200	0.160100	0.956100
C6911	C691	0.546250	0.491100	0.223040
H4391	H439	0.532400	0.521500	0.211500
C6921	C692	0.186320	0.951200	0.929600
H4401	H440	0.169300	0.933700	0.913900
C6931	C693	0.410500	0.086100	0.932070
H4411	H441	0.386900	0.084800	0.920400
C6941	C694	0.349750	0.026100	0.961900
H4421	H442	0.364300	0.059400	0.969900
C6951	C695	0.479300	0.088600	0.963400
H4431	H443	0.503600	0.086800	0.973800
C6961	C696	0.544800	0.252100	0.956730
H4441	H444	0.570500	0.250300	0.960300
C6971	C697	0.341930	0.931100	0.935400
H4451	H445	0.351700	0.897700	0.926500
C6981	C698	0.596090	0.442900	0.133760
H4461	H446	0.616800	0.435200	0.125100
C6991	C699	0.539560	0.579600	0.946800
C7001	C700	0.132700	0.982300	0.952400
C7011	C701	0.289510	0.976200	0.951650
C7021	C702	0.417880	0.876700	0.967580
H4471	H447	0.404600	0.884200	0.983100
C7031	C703	0.365400	0.978300	0.946900
C7041	C704	0.310490	0.023900	0.965100
H4481	H448	0.300400	0.054100	0.976000
C7051	C705	0.442130	0.912300	0.923900
H4491	H449	0.444400	0.943000	0.909900
C7061	C706	0.306070	0.930400	0.936400
H4501	H450	0.291500	0.898600	0.926700
C7071	C707	0.198400	0.006800	0.976600
H4511	H451	0.190600	0.026600	0.992800
C7081	C708	0.535110	0.463500	0.156800
H4521	H452	0.513700	0.471100	0.164500
C7091	C709	0.250880	0.974700	0.952900
C7101	C710	0.236000	0.003600	0.975900
H4531	H453	0.252200	0.021900	0.991800
C7111	C711	0.589960	0.409300	0.229500
H4541	H454	0.604500	0.380500	0.221700
C7121	C712	0.586460	0.418600	0.067060
H4551	H455	0.601300	0.389300	0.078600
C7131	C713	0.586000	0.425400	0.037100
H4561	H456	0.601800	0.400300	0.028400
N291	N29	0.571220	0.449600	0.274160
N301	N30	0.403800	0.976500	0.947350
N311	N31	0.565520	0.463700	0.019100
O851	O85	0.532820	0.419000	0.953760
O861	O86	0.551480	0.558600	0.971750
O871	O87	0.583290	0.365050	0.970820
O881	O88	0.110260	0.979300	0.929920
O891	O89	0.543750	0.563500	0.920570
O901	O90	0.125440	0.988300	0.980390
Zn221	Zn22	0.570970	0.475480	0.973740
C7141	C714	0.187400	0.930600	0.352400
C7151	C715	0.197000	0.917400	0.325800
H4571	H457	0.179100	0.910500	0.308600
C7161	C716	0.526800	0.642500	0.322270
H4581	H458	0.535000	0.626700	0.305300
C7171	C717	0.533530	0.609100	0.349300
C7181	C718	0.508700	0.697500	0.319700
H4591	H459	0.505900	0.719600	0.301600
C7191	C719	0.501300	0.688500	0.371800
H4601	H460	0.493600	0.703900	0.389100
C7201	C720	0.248800	0.938000	0.377300
H4611	H461	0.265400	0.940800	0.395700
C7211	C721	0.520800	0.630100	0.373080
H4621	H462	0.524300	0.607200	0.391000
C7221	C722	0.211300	0.939500	0.376300
H4631	H463	0.202900	0.947700	0.394300
C7231	C723	0.234900	0.914100	0.324100
H4641	H464	0.242300	0.899900	0.306500
C7241	C724	0.494240	0.721200	0.344720
C7251	C725	0.261300	0.932000	0.349100
C7261	C726	0.474710	0.778700	0.343480
C7271	C727	0.360500	0.982400	0.361300
H4651	H465	0.375000	0.012400	0.372600
C7281	C728	0.467700	0.118500	0.340200
C7291	C729	0.489700	0.179700	0.341200
C7301	C730	0.426300	0.841400	0.355720
H4661	H466	0.407100	0.846500	0.366500
C7311	C731	0.523700	0.293800	0.344600
C7321	C732	0.547700	0.355300	0.344200
C7331	C733	0.301100	0.936500	0.346900
C7341	C734	0.492400	0.285700	0.325630
H4671	H467	0.483300	0.317100	0.312200
C7351	C735	0.523230	0.189700	0.361800
H4681	H468	0.533900	0.157400	0.374100
C7361	C736	0.472000	0.228800	0.325200
H4691	H469	0.447900	0.225400	0.314600
C7371	C737	0.482300	0.828900	0.324300
H4701	H470	0.500700	0.824500	0.312600
C7381	C738	0.432700	0.110400	0.323600
H4711	H471	0.421400	0.142300	0.311500
C7391	C739	0.540700	0.248200	0.363900
H4721	H472	0.562500	0.255600	0.377600
C7401	C740	0.432100	0.003000	0.338700
C7411	C741	0.434200	0.889300	0.338600
C7421	C742	0.375700	0.943300	0.341000
C7431	C743	0.466000	0.007900	0.355300
H4731	H473	0.477200	0.975100	0.366800
C7441	C744	0.414900	0.056200	0.324900
H4741	H474	0.390000	0.054100	0.316300
C7451	C745	0.313900	0.893400	0.326100
H4751	H475	0.298700	0.863200	0.315700
C7461	C746	0.443800	0.787600	0.358290
H4761	H476	0.436000	0.755900	0.369700
C7471	C747	0.462800	0.882700	0.323000
H4771	H477	0.469000	0.915400	0.311400
C7481	C748	0.484700	0.067800	0.354600
H4781	H478	0.509200	0.071200	0.364400
C7491	C749	0.352600	0.900800	0.322800
H4791	H479	0.362000	0.877200	0.308600
C7501	C750	0.550780	0.543200	0.349400
C7511	C751	0.325700	0.975300	0.363800
H4801	H480	0.317100	0.998900	0.378500
C7521	C752	0.145900	0.936700	0.354900
N321	N32	0.413540	0.945600	0.338680
O911	O91	0.558360	0.526800	0.322550
O921	O92	0.557510	0.516900	0.373420
O931	O93	0.536020	0.385500	0.322500
O941	O94	0.136120	0.952400	0.376790
O951	O95	0.125240	0.925800	0.328940
O961	O96	0.568460	0.371300	0.370090
Zn231	Zn23	0.573440	0.445940	0.317960
Zn241	Zn24	0.589590	0.451560	0.398770
