data_HURFEH_clean_PM
_symmetry_space_group_name_H-M	'P1'
_cell_length_a	15.477500
_cell_length_b	19.131300
_cell_length_c	25.544000
_cell_angle_alpha	90.000000
_cell_angle_beta	90.000000
_cell_angle_gamma	90.000000
_symmetry_Int_Tables_number 1

loop_
_symmetry_equiv_pos_as_xyz
'x,y,z'

loop_
_atom_site_label
_atom_site_type_symbol
_atom_site_fract_x
_atom_site_fract_y
_atom_site_fract_z
Zn11	Zn1	0.443260	0.661280	0.517020
Zn21	Zn2	0.434030	0.837070	0.518010
Zn31	Zn3	0.308360	0.741040	0.441990
Zn41	Zn4	0.041000	0.039390	0.797450
Zn51	Zn5	0.982340	0.969350	0.700180
O11	O1	0.555400	0.105800	0.920300
O21	O2	0.689000	0.088100	0.947900
O31	O3	0.911900	0.036900	0.812300
O41	O4	0.869900	0.004500	0.732200
O51	O5	0.349900	0.872400	0.572900
O61	O6	0.459200	0.940100	0.556800
O71	O7	0.113200	0.954000	0.690800
O81	O8	0.151500	0.028800	0.754000
O91	O9	0.016500	0.125600	0.750700
O101	O10	0.005800	0.069500	0.674500
O111	O11	0.019800	0.386800	0.748800
O121	O12	0.954900	0.437000	0.679800
N11	N1	0.552900	0.717900	0.528100
N21	N2	0.550400	0.790000	0.528300
N31	N3	0.682200	0.756800	0.549300
N41	N4	0.416900	0.865900	0.442700
N51	N5	0.361000	0.827500	0.411700
N61	N6	0.417700	0.910800	0.363100
N71	N7	0.431500	0.626800	0.442800
N81	N8	0.366500	0.656500	0.412900
N91	N9	0.435800	0.579300	0.364800
C11	C1	0.663400	0.626800	0.544100
H11	H1	0.614900	0.595700	0.540800
H21	H2	0.691000	0.619300	0.577200
H31	H3	0.703800	0.617900	0.516400
C21	C2	0.632900	0.700400	0.540800
C31	C3	0.629100	0.811800	0.540800
C41	C4	0.657400	0.885700	0.543600
H41	H4	0.685300	0.898500	0.511400
H51	H5	0.697100	0.891400	0.572100
H61	H6	0.608000	0.915200	0.549100
C51	C5	0.513900	0.967800	0.430300
H71	H7	0.529500	0.957900	0.465900
H81	H8	0.489100	0.013700	0.428200
H91	H9	0.564500	0.965700	0.408700
C61	C6	0.449300	0.914900	0.411700
C71	C7	0.363300	0.856300	0.364600
C81	C8	0.309100	0.831900	0.319600
H101	H10	0.272800	0.794100	0.330900
H111	H11	0.345900	0.816100	0.291800
H121	H12	0.273800	0.869800	0.307400
C91	C9	0.545700	0.537700	0.430400
H131	H13	0.598600	0.561400	0.422000
H141	H14	0.544100	0.493500	0.412600
H151	H15	0.542500	0.530200	0.467500
C101	C10	0.471500	0.581000	0.413400
C111	C11	0.371300	0.626100	0.366500
C121	C12	0.311100	0.640700	0.322600
H161	H16	0.273500	0.678600	0.332000
H171	H17	0.277400	0.599800	0.315300
H181	H18	0.343700	0.653300	0.292000
C131	C13	0.634500	0.085900	0.913100
C141	C14	0.656000	0.062500	0.858200
C151	C15	0.743100	0.053500	0.844900
H191	H19	0.786400	0.060200	0.869600
C161	C16	0.763400	0.034200	0.793800
C171	C17	0.855600	0.024900	0.778300
C181	C18	0.698200	0.025000	0.757500
H201	H20	0.712500	0.012300	0.723400
C191	C19	0.613300	0.034200	0.770300
C201	C20	0.592500	0.053100	0.821300
H211	H21	0.535000	0.059500	0.830500
C211	C21	0.391000	0.927700	0.581700
C221	C22	0.356800	0.977100	0.621300
C231	C23	0.279300	0.962500	0.647500
H221	H22	0.248700	0.921900	0.639900
C241	C24	0.248500	0.009100	0.684700
C251	C25	0.164100	0.995600	0.712200
C261	C26	0.294400	0.070800	0.695700
H231	H23	0.273200	0.101900	0.720600
C271	C27	0.371100	0.085800	0.669700
C281	C28	0.402100	0.038600	0.631900
H241	H24	0.452900	0.048300	0.613900
C291	C29	0.009000	0.124100	0.701300
C301	C30	0.005000	0.191900	0.673300
C311	C31	0.003800	0.255100	0.700900
H251	H25	0.010300	0.255300	0.737100
C321	C32	0.992900	0.317600	0.673900
C331	C33	0.988800	0.385800	0.702900
C341	C34	0.985900	0.317900	0.619500
H261	H26	0.976500	0.359600	0.601800
C351	C35	0.993100	0.255300	0.591800
C361	C36	0.999400	0.191900	0.618700
H271	H27	0.999900	0.149900	0.600300
N101	N10	0.548100	0.022800	0.732900
H281	H28	0.561600	0.010000	0.701700
H291	H29	0.494700	0.028600	0.741300
N111	N11	0.414800	0.146300	0.681300
H301	H30	0.394700	0.174500	0.704500
H311	H31	0.462300	0.155900	0.665400
N121	N12	0.987900	0.256300	0.536600
H321	H32	0.988600	0.217700	0.519300
H331	H33	0.984000	0.295500	0.520200
O131	O13	0.366400	0.744300	0.511070
H341	H34	0.326000	0.754100	0.532500
Zn61	Zn6	0.056740	0.338720	0.017020
Zn71	Zn7	0.065970	0.162930	0.018010
Zn81	Zn8	0.191640	0.258960	0.941990
Zn91	Zn9	0.459000	0.960610	0.297450
Zn101	Zn10	0.517660	0.030650	0.200180
O141	O14	0.944600	0.894200	0.420300
O151	O15	0.811000	0.911900	0.447900
O161	O16	0.588100	0.963100	0.312300
O171	O17	0.630100	0.995500	0.232200
O181	O18	0.150100	0.127600	0.072900
O191	O19	0.040800	0.059900	0.056800
O201	O20	0.386800	0.046000	0.190800
O211	O21	0.348500	0.971200	0.254000
O221	O22	0.483500	0.874400	0.250700
O231	O23	0.494200	0.930500	0.174500
O241	O24	0.480200	0.613200	0.248800
O251	O25	0.545100	0.563000	0.179800
N131	N13	0.947100	0.282100	0.028100
N141	N14	0.949600	0.210000	0.028300
N151	N15	0.817800	0.243200	0.049300
N161	N16	0.083100	0.134100	0.942700
N171	N17	0.139000	0.172500	0.911700
N181	N18	0.082300	0.089200	0.863100
N191	N19	0.068500	0.373200	0.942800
N201	N20	0.133500	0.343500	0.912900
N211	N21	0.064200	0.420700	0.864800
C371	C37	0.836600	0.373200	0.044100
H351	H35	0.885100	0.404300	0.040800
H361	H36	0.809000	0.380700	0.077200
H371	H37	0.796200	0.382100	0.016400
C381	C38	0.867100	0.299600	0.040800
C391	C39	0.870900	0.188200	0.040800
C401	C40	0.842600	0.114300	0.043600
H381	H38	0.814700	0.101500	0.011400
H391	H39	0.802900	0.108600	0.072100
H401	H40	0.892000	0.084800	0.049100
C411	C41	0.986100	0.032200	0.930300
H411	H41	0.970500	0.042100	0.965900
H421	H42	0.010900	0.986300	0.928200
H431	H43	0.935500	0.034300	0.908700
C421	C42	0.050700	0.085100	0.911700
C431	C43	0.136700	0.143700	0.864600
C441	C44	0.190900	0.168100	0.819600
H441	H44	0.227200	0.205900	0.830900
H451	H45	0.154100	0.183900	0.791800
H461	H46	0.226200	0.130200	0.807400
C451	C45	0.954300	0.462300	0.930400
H471	H47	0.901400	0.438600	0.922000
H481	H48	0.955900	0.506500	0.912600
H491	H49	0.957500	0.469800	0.967500
C461	C46	0.028500	0.419000	0.913400
C471	C47	0.128700	0.373900	0.866500
C481	C48	0.188900	0.359300	0.822600
H501	H50	0.226500	0.321400	0.832000
H511	H51	0.222600	0.400200	0.815300
H521	H52	0.156300	0.346700	0.792000
C491	C49	0.865500	0.914100	0.413100
C501	C50	0.844000	0.937500	0.358200
C511	C51	0.756900	0.946500	0.344900
H531	H53	0.713600	0.939800	0.369600
C521	C52	0.736600	0.965800	0.293800
C531	C53	0.644400	0.975100	0.278300
C541	C54	0.801800	0.975000	0.257500
H541	H54	0.787500	0.987700	0.223400
C551	C55	0.886700	0.965800	0.270300
C561	C56	0.907500	0.946900	0.321300
H551	H55	0.965000	0.940500	0.330500
C571	C57	0.109000	0.072300	0.081700
C581	C58	0.143200	0.022900	0.121300
C591	C59	0.220700	0.037500	0.147500
H561	H56	0.251300	0.078100	0.139900
C601	C60	0.251500	0.990900	0.184700
C611	C61	0.335900	0.004400	0.212200
C621	C62	0.205600	0.929200	0.195700
H571	H57	0.226800	0.898100	0.220600
C631	C63	0.128900	0.914200	0.169700
C641	C64	0.097900	0.961400	0.131900
H581	H58	0.047100	0.951700	0.113900
C651	C65	0.491000	0.875900	0.201300
C661	C66	0.495000	0.808100	0.173300
C671	C67	0.496200	0.744900	0.200900
H591	H59	0.489700	0.744700	0.237100
C681	C68	0.507100	0.682400	0.173900
C691	C69	0.511200	0.614200	0.202900
C701	C70	0.514100	0.682100	0.119500
H601	H60	0.523500	0.640400	0.101800
C711	C71	0.506900	0.744700	0.091800
C721	C72	0.500600	0.808100	0.118700
H611	H61	0.500100	0.850100	0.100300
N221	N22	0.951900	0.977200	0.232900
H621	H62	0.938400	0.990000	0.201700
H631	H63	0.005300	0.971400	0.241300
N231	N23	0.085200	0.853700	0.181300
H641	H64	0.105300	0.825500	0.204500
H651	H65	0.037700	0.844100	0.165400
N241	N24	0.512100	0.743700	0.036600
H661	H66	0.511400	0.782300	0.019300
H671	H67	0.516000	0.704500	0.020200
O261	O26	0.133600	0.255700	0.011070
H681	H68	0.174000	0.245900	0.032500
Zn111	Zn11	0.556740	0.161280	0.982980
Zn121	Zn12	0.565970	0.337070	0.981990
Zn131	Zn13	0.691640	0.241040	0.058010
Zn141	Zn14	0.959000	0.539390	0.702550
Zn151	Zn15	0.017660	0.469350	0.799820
O271	O27	0.444600	0.605800	0.579700
O281	O28	0.311000	0.588100	0.552100
O291	O29	0.088100	0.536900	0.687700
O301	O30	0.130100	0.504500	0.767800
O311	O31	0.650100	0.372400	0.927100
O321	O32	0.540800	0.440100	0.943200
O331	O33	0.886800	0.454000	0.809200
O341	O34	0.848500	0.528800	0.746000
O351	O35	0.983500	0.625600	0.749300
O361	O36	0.994200	0.569500	0.825500
O371	O37	0.980200	0.886800	0.751200
O381	O38	0.045100	0.937000	0.820200
N251	N25	0.447100	0.217900	0.971900
N261	N26	0.449600	0.290000	0.971700
N271	N27	0.317800	0.256800	0.950700
N281	N28	0.583100	0.365900	0.057300
N291	N29	0.639000	0.327500	0.088300
N301	N30	0.582300	0.410800	0.136900
N311	N31	0.568500	0.126800	0.057200
N321	N32	0.633500	0.156500	0.087100
N331	N33	0.564200	0.079300	0.135200
C731	C73	0.336600	0.126800	0.955900
H691	H69	0.385100	0.095700	0.959200
H701	H70	0.309000	0.119300	0.922800
H711	H71	0.296200	0.117900	0.983600
C741	C74	0.367100	0.200400	0.959200
C751	C75	0.370900	0.311800	0.959200
C761	C76	0.342600	0.385700	0.956400
H721	H72	0.314700	0.398500	0.988600
H731	H73	0.302900	0.391400	0.927900
H741	H74	0.392000	0.415200	0.950900
C771	C77	0.486100	0.467800	0.069700
H751	H75	0.470500	0.457900	0.034100
H761	H76	0.510900	0.513700	0.071800
H771	H77	0.435500	0.465700	0.091300
C781	C78	0.550700	0.414900	0.088300
C791	C79	0.636700	0.356300	0.135400
C801	C80	0.690900	0.331900	0.180400
H781	H78	0.727200	0.294100	0.169100
H791	H79	0.654100	0.316100	0.208200
H801	H80	0.726200	0.369800	0.192600
C811	C81	0.454300	0.037700	0.069600
H811	H81	0.401400	0.061400	0.078000
H821	H82	0.455900	0.993500	0.087400
H831	H83	0.457500	0.030200	0.032500
C821	C82	0.528500	0.081000	0.086600
C831	C83	0.628700	0.126100	0.133500
C841	C84	0.688900	0.140700	0.177400
H841	H84	0.726500	0.178600	0.168000
H851	H85	0.722600	0.099800	0.184700
H861	H86	0.656300	0.153300	0.208000
C851	C85	0.365500	0.585900	0.586900
C861	C86	0.344000	0.562500	0.641800
C871	C87	0.256900	0.553500	0.655100
H871	H87	0.213600	0.560200	0.630400
C881	C88	0.236600	0.534200	0.706200
C891	C89	0.144400	0.524900	0.721700
C901	C90	0.301800	0.525000	0.742500
H881	H88	0.287500	0.512300	0.776600
C911	C91	0.386700	0.534200	0.729700
C921	C92	0.407500	0.553100	0.678700
H891	H89	0.465000	0.559500	0.669500
C931	C93	0.609000	0.427700	0.918300
C941	C94	0.643200	0.477100	0.878700
C951	C95	0.720700	0.462500	0.852500
H901	H90	0.751300	0.421900	0.860100
C961	C96	0.751500	0.509100	0.815300
C971	C97	0.835900	0.495600	0.787800
C981	C98	0.705600	0.570800	0.804300
H911	H91	0.726800	0.601900	0.779400
C991	C99	0.628900	0.585800	0.830300
C1001	C100	0.597900	0.538600	0.868100
H921	H92	0.547100	0.548300	0.886100
C1011	C101	0.991000	0.624100	0.798700
C1021	C102	0.995000	0.691900	0.826700
C1031	C103	0.996200	0.755100	0.799100
H931	H93	0.989700	0.755300	0.762900
C1041	C104	0.007100	0.817600	0.826100
C1051	C105	0.011200	0.885800	0.797100
C1061	C106	0.014100	0.817900	0.880500
H941	H94	0.023500	0.859600	0.898200
C1071	C107	0.006900	0.755300	0.908200
C1081	C108	0.000600	0.691900	0.881300
H951	H95	0.000100	0.649900	0.899700
N341	N34	0.451900	0.522800	0.767100
H961	H96	0.438400	0.510000	0.798300
H971	H97	0.505300	0.528600	0.758700
N351	N35	0.585200	0.646300	0.818700
H981	H98	0.605300	0.674500	0.795500
H991	H99	0.537700	0.655900	0.834600
N361	N36	0.012100	0.756300	0.963400
H1001	H100	0.011400	0.717700	0.980700
H1011	H101	0.016000	0.795500	0.979800
O391	O39	0.633600	0.244300	0.988930
H1021	H102	0.674000	0.254100	0.967500
Zn161	Zn16	0.943260	0.838720	0.482980
Zn171	Zn17	0.934030	0.662930	0.481990
Zn181	Zn18	0.808360	0.758960	0.558010
Zn191	Zn19	0.541000	0.460610	0.202550
Zn201	Zn20	0.482340	0.530650	0.299820
O401	O40	0.055400	0.394200	0.079700
O411	O41	0.189000	0.411900	0.052100
O421	O42	0.411900	0.463100	0.187700
O431	O43	0.369900	0.495500	0.267800
O441	O44	0.849900	0.627600	0.427100
O451	O45	0.959200	0.559900	0.443200
O461	O46	0.613200	0.546000	0.309200
O471	O47	0.651500	0.471200	0.246000
O481	O48	0.516500	0.374400	0.249300
O491	O49	0.505800	0.430500	0.325500
O501	O50	0.519800	0.113200	0.251200
O511	O51	0.454900	0.063000	0.320200
N371	N37	0.052900	0.782100	0.471900
N381	N38	0.050400	0.710000	0.471700
N391	N39	0.182200	0.743200	0.450700
N401	N40	0.916900	0.634100	0.557300
N411	N41	0.861000	0.672500	0.588300
N421	N42	0.917700	0.589200	0.636900
N431	N43	0.931500	0.873200	0.557200
N441	N44	0.866500	0.843500	0.587100
N451	N45	0.935800	0.920700	0.635200
C1091	C109	0.163400	0.873200	0.455900
H1031	H103	0.114900	0.904300	0.459200
H1041	H104	0.191000	0.880700	0.422800
H1051	H105	0.203800	0.882100	0.483600
C1101	C110	0.132900	0.799600	0.459200
C1111	C111	0.129100	0.688200	0.459200
C1121	C112	0.157400	0.614300	0.456400
H1061	H106	0.185300	0.601500	0.488600
H1071	H107	0.197100	0.608600	0.427900
H1081	H108	0.108000	0.584800	0.450900
C1131	C113	0.013900	0.532200	0.569700
H1091	H109	0.029500	0.542100	0.534100
H1101	H110	0.989100	0.486300	0.571800
H1111	H111	0.064500	0.534300	0.591300
C1141	C114	0.949300	0.585100	0.588300
C1151	C115	0.863300	0.643700	0.635400
C1161	C116	0.809100	0.668100	0.680400
H1121	H112	0.772800	0.705900	0.669100
H1131	H113	0.845900	0.683900	0.708200
H1141	H114	0.773800	0.630200	0.692600
C1171	C117	0.045700	0.962300	0.569600
H1151	H115	0.098600	0.938600	0.578000
H1161	H116	0.044100	0.006500	0.587400
H1171	H117	0.042500	0.969800	0.532500
C1181	C118	0.971500	0.919000	0.586600
C1191	C119	0.871300	0.873900	0.633500
C1201	C120	0.811100	0.859300	0.677400
H1181	H118	0.773500	0.821400	0.668000
H1191	H119	0.777400	0.900200	0.684700
H1201	H120	0.843700	0.846700	0.708000
C1211	C121	0.134500	0.414100	0.086900
C1221	C122	0.156000	0.437500	0.141800
C1231	C123	0.243100	0.446500	0.155100
H1211	H121	0.286400	0.439800	0.130400
C1241	C124	0.263400	0.465800	0.206200
C1251	C125	0.355600	0.475100	0.221700
C1261	C126	0.198200	0.475000	0.242500
H1221	H122	0.212500	0.487700	0.276600
C1271	C127	0.113300	0.465800	0.229700
C1281	C128	0.092500	0.446900	0.178700
H1231	H123	0.035000	0.440500	0.169500
C1291	C129	0.891000	0.572300	0.418300
C1301	C130	0.856800	0.522900	0.378700
C1311	C131	0.779300	0.537500	0.352500
H1241	H124	0.748700	0.578100	0.360100
C1321	C132	0.748500	0.490900	0.315300
C1331	C133	0.664100	0.504400	0.287800
C1341	C134	0.794400	0.429200	0.304300
H1251	H125	0.773200	0.398100	0.279400
C1351	C135	0.871100	0.414200	0.330300
C1361	C136	0.902100	0.461400	0.368100
H1261	H126	0.952900	0.451700	0.386100
C1371	C137	0.509000	0.375900	0.298700
C1381	C138	0.505000	0.308100	0.326700
C1391	C139	0.503800	0.244900	0.299100
H1271	H127	0.510300	0.244700	0.262900
C1401	C140	0.492900	0.182400	0.326100
C1411	C141	0.488800	0.114200	0.297100
C1421	C142	0.485900	0.182100	0.380500
H1281	H128	0.476500	0.140400	0.398200
C1431	C143	0.493100	0.244700	0.408200
C1441	C144	0.499400	0.308100	0.381300
H1291	H129	0.499900	0.350100	0.399700
N461	N46	0.048100	0.477200	0.267100
H1301	H130	0.061600	0.490000	0.298300
H1311	H131	0.994700	0.471400	0.258700
N471	N47	0.914800	0.353700	0.318700
H1321	H132	0.894700	0.325500	0.295500
H1331	H133	0.962300	0.344100	0.334600
N481	N48	0.487900	0.243700	0.463400
H1341	H134	0.488600	0.282300	0.480700
H1351	H135	0.484000	0.204500	0.479800
O521	O52	0.866400	0.755700	0.488930
H1361	H136	0.826000	0.745900	0.467500
