data_HURGUX01_clean_PM
_symmetry_space_group_name_H-M	'P1'
_cell_length_a	11.378000
_cell_length_b	11.625900
_cell_length_c	19.106000
_cell_angle_alpha	90.000000
_cell_angle_beta	90.000000
_cell_angle_gamma	115.753000
_symmetry_Int_Tables_number 1

loop_
_symmetry_equiv_pos_as_xyz
'x,y,z'

loop_
_atom_site_label
_atom_site_type_symbol
_atom_site_fract_x
_atom_site_fract_y
_atom_site_fract_z
Ni11	Ni1	0.174030	0.829330	0.005150
Ni21	Ni2	0.325970	0.670670	0.505150
Ni31	Ni3	0.825970	0.170670	0.994850
Ni41	Ni4	0.674030	0.329330	0.494850
Ni51	Ni5	0.000000	0.500000	0.000000
Ni61	Ni6	0.500000	0.000000	0.500000
H11	H1	0.164200	0.015200	0.065000
H21	H2	0.292100	0.515200	0.947400
H31	H3	0.491400	0.729200	0.110900
H41	H4	0.371200	0.368100	0.890100
H51	H5	0.207500	0.513200	0.815900
H61	H6	0.343400	0.513400	0.728100
H71	H7	0.425400	0.391100	0.647700
H81	H8	0.254400	0.009400	0.653500
H91	H9	0.123000	0.010000	0.744100
H101	H10	0.051700	0.133000	0.827200
H111	H11	0.367200	0.175000	0.065100
H121	H12	0.366900	0.048000	0.092900
H131	H13	0.412600	0.093700	0.016200
H141	H14	0.205800	0.172600	0.987300
H151	H15	0.240500	0.094200	0.931000
H161	H16	0.097000	0.043900	0.958700
H171	H17	0.335800	0.484800	0.565000
H181	H18	0.207900	0.984800	0.447400
H191	H19	0.008600	0.770800	0.610900
H201	H20	0.128800	0.131900	0.390100
H211	H21	0.292500	0.986800	0.315900
H221	H22	0.156600	0.986600	0.228100
H231	H23	0.074600	0.108900	0.147700
H241	H24	0.245600	0.490600	0.153500
H251	H25	0.377000	0.490000	0.244100
H261	H26	0.448300	0.367000	0.327200
H271	H27	0.132800	0.325000	0.565100
H281	H28	0.133100	0.452000	0.592900
H291	H29	0.087400	0.406300	0.516200
H301	H30	0.294200	0.327400	0.487300
H311	H31	0.259500	0.405800	0.431000
H321	H32	0.403000	0.456100	0.458700
H331	H33	0.835800	0.984800	0.935000
H341	H34	0.707900	0.484800	0.052600
H351	H35	0.508600	0.270800	0.889100
H361	H36	0.628800	0.631900	0.109900
H371	H37	0.792500	0.486800	0.184100
H381	H38	0.656600	0.486600	0.271900
H391	H39	0.574600	0.608900	0.352300
H401	H40	0.745600	0.990600	0.346500
H411	H41	0.877000	0.990000	0.255900
H421	H42	0.948300	0.867000	0.172800
H431	H43	0.632800	0.825000	0.934900
H441	H44	0.633100	0.952000	0.907100
H451	H45	0.587400	0.906300	0.983800
H461	H46	0.794200	0.827400	0.012700
H471	H47	0.759500	0.905800	0.069000
H481	H48	0.903000	0.956100	0.041300
H491	H49	0.664200	0.515200	0.435000
H501	H50	0.792100	0.015200	0.552600
H511	H51	0.991400	0.229200	0.389100
H521	H52	0.871200	0.868100	0.609900
H531	H53	0.707500	0.013200	0.684100
H541	H54	0.843400	0.013400	0.771900
H551	H55	0.925400	0.891100	0.852300
H561	H56	0.754400	0.509400	0.846500
H571	H57	0.623000	0.510000	0.755900
H581	H58	0.551700	0.633000	0.672800
H591	H59	0.867200	0.675000	0.434900
H601	H60	0.866900	0.548000	0.407100
H611	H61	0.912600	0.593700	0.483800
H621	H62	0.705800	0.672600	0.512700
H631	H63	0.740500	0.594200	0.569000
H641	H64	0.597000	0.543900	0.541300
C11	C1	0.291800	0.698600	0.028700
C21	C2	0.376500	0.629100	0.029000
C31	C3	0.360600	0.539500	0.979200
C41	C4	0.449500	0.483300	0.976100
C51	C5	0.480000	0.666400	0.077900
C61	C6	0.436900	0.390200	0.923600
C71	C7	0.028900	0.323200	0.890100
C81	C8	0.115900	0.321400	0.830600
C91	C9	0.204100	0.436200	0.800000
C101	C10	0.284600	0.436200	0.747300
C111	C11	0.363000	0.315300	0.666400
C121	C12	0.352300	0.200300	0.641000
C131	C13	0.261500	0.087000	0.670800
C141	C14	0.182100	0.086900	0.724900
C151	C15	0.190300	0.204100	0.751600
C161	C16	0.280000	0.319800	0.721100
C171	C17	0.110100	0.208900	0.806700
C181	C18	0.443000	0.194900	0.584100
C191	C19	0.352900	0.089900	0.052600
C201	C20	0.187600	0.088300	0.971200
C211	C21	0.208200	0.801400	0.528700
C221	C22	0.123500	0.870900	0.529000
C231	C23	0.139400	0.960500	0.479200
C241	C24	0.050500	0.016700	0.476100
C251	C25	0.020000	0.833600	0.577900
C261	C26	0.063100	0.109800	0.423600
C271	C27	0.471100	0.176800	0.390100
C281	C28	0.384100	0.178600	0.330600
C291	C29	0.295900	0.063800	0.300000
C301	C30	0.215400	0.063800	0.247300
C311	C31	0.137000	0.184700	0.166400
C321	C32	0.147700	0.299700	0.141000
C331	C33	0.238500	0.413000	0.170800
C341	C34	0.317900	0.413100	0.224900
C351	C35	0.309700	0.295900	0.251600
C361	C36	0.220000	0.180200	0.221100
C371	C37	0.389900	0.291100	0.306700
C381	C38	0.057000	0.305100	0.084100
C391	C39	0.147100	0.410100	0.552600
C401	C40	0.312400	0.411700	0.471200
C411	C41	0.708200	0.301400	0.971300
C421	C42	0.623500	0.370900	0.971000
C431	C43	0.639400	0.460500	0.020800
C441	C44	0.550500	0.516700	0.023900
C451	C45	0.520000	0.333600	0.922100
C461	C46	0.563100	0.609800	0.076400
C471	C47	0.971100	0.676800	0.109900
C481	C48	0.884100	0.678600	0.169400
C491	C49	0.795900	0.563800	0.200000
C501	C50	0.715400	0.563800	0.252700
C511	C51	0.637000	0.684700	0.333600
C521	C52	0.647700	0.799700	0.359000
C531	C53	0.738500	0.913000	0.329200
C541	C54	0.817900	0.913100	0.275100
C551	C55	0.809700	0.795900	0.248400
C561	C56	0.720000	0.680200	0.278900
C571	C57	0.889900	0.791100	0.193300
C581	C58	0.557000	0.805100	0.415900
C591	C59	0.647100	0.910100	0.947400
C601	C60	0.812400	0.911700	0.028800
C611	C61	0.791800	0.198600	0.471300
C621	C62	0.876500	0.129100	0.471000
C631	C63	0.860600	0.039500	0.520800
C641	C64	0.949500	0.983300	0.523900
C651	C65	0.980000	0.166400	0.422100
C661	C66	0.936900	0.890200	0.576400
C671	C67	0.528900	0.823200	0.609900
C681	C68	0.615900	0.821400	0.669400
C691	C69	0.704100	0.936200	0.700000
C701	C70	0.784600	0.936200	0.752700
C711	C71	0.863000	0.815300	0.833600
C721	C72	0.852300	0.700300	0.859000
C731	C73	0.761500	0.587000	0.829200
C741	C74	0.682100	0.586900	0.775100
C751	C75	0.690300	0.704100	0.748400
C761	C76	0.780000	0.819800	0.778900
C771	C77	0.610100	0.708900	0.693300
C781	C78	0.943000	0.694900	0.915900
C791	C79	0.852900	0.589900	0.447400
C801	C80	0.687600	0.588300	0.528800
N11	N1	0.217400	0.017700	0.027500
N21	N2	0.282600	0.482300	0.527500
N31	N3	0.782600	0.982300	0.972500
N41	N4	0.717400	0.517700	0.472500
O11	O1	0.327900	0.803800	0.059800
O21	O2	0.186100	0.656200	0.992630
O31	O3	0.051300	0.429500	0.914400
O41	O4	0.941200	0.215300	0.909130
O51	O5	0.427300	0.086100	0.567700
O61	O6	0.523600	0.300800	0.559490
O71	O7	0.172100	0.696200	0.559800
O81	O8	0.313900	0.843800	0.492630
O91	O9	0.448700	0.070500	0.414400
O101	O10	0.558800	0.284700	0.409130
O111	O11	0.072700	0.413900	0.067700
O121	O12	0.976400	0.199200	0.059490
O131	O13	0.672100	0.196200	0.940200
O141	O14	0.813900	0.343800	0.007370
O151	O15	0.948700	0.570500	0.085600
O161	O16	0.058800	0.784700	0.090870
O171	O17	0.572700	0.913900	0.432300
O181	O18	0.476400	0.699200	0.440510
O191	O19	0.827900	0.303800	0.440200
O201	O20	0.686100	0.156200	0.507370
O211	O21	0.551300	0.929500	0.585600
O221	O22	0.441200	0.715300	0.590870
O231	O23	0.927300	0.586100	0.932300
O241	O24	0.023600	0.800800	0.940510
