data_HURNOX_clean_PM
_symmetry_space_group_name_H-M	'P1'
_cell_length_a	7.149000
_cell_length_b	10.468000
_cell_length_c	11.295000
_cell_angle_alpha	90.000000
_cell_angle_beta	90.000000
_cell_angle_gamma	90.000000
_symmetry_Int_Tables_number 1

loop_
_symmetry_equiv_pos_as_xyz
'x,y,z'

loop_
_atom_site_label
_atom_site_type_symbol
_atom_site_fract_x
_atom_site_fract_y
_atom_site_fract_z
Co11	Co1	0.106830	0.935860	0.541890
Co21	Co2	0.393170	0.064140	0.041890
Co31	Co3	0.893170	0.435860	0.958110
Co41	Co4	0.606830	0.564140	0.458110
H11	H1	0.195000	0.136900	0.862800
H21	H2	0.325200	0.041300	0.818200
H31	H3	0.352500	0.277300	0.779700
H41	H4	0.491100	0.123700	0.660100
H51	H5	0.625600	0.239100	0.684000
H61	H6	0.649300	0.003800	0.804500
H71	H7	0.784700	0.118800	0.826600
H81	H8	0.305000	0.863100	0.362800
H91	H9	0.174800	0.958700	0.318200
H101	H10	0.147500	0.722700	0.279700
H111	H11	0.008900	0.876300	0.160100
H121	H12	0.874400	0.760900	0.184000
H131	H13	0.850700	0.996200	0.304500
H141	H14	0.715300	0.881200	0.326600
H151	H15	0.805000	0.636900	0.637200
H161	H16	0.674800	0.541300	0.681800
H171	H17	0.647500	0.777300	0.720300
H181	H18	0.508900	0.623700	0.839900
H191	H19	0.374400	0.739100	0.816000
H201	H20	0.350700	0.503800	0.695500
H211	H21	0.215300	0.618800	0.673400
H221	H22	0.695000	0.363100	0.137200
H231	H23	0.825200	0.458700	0.181800
H241	H24	0.852500	0.222700	0.220300
H251	H25	0.991100	0.376300	0.339900
H261	H26	0.125600	0.260900	0.316000
H271	H27	0.149300	0.496200	0.195500
H281	H28	0.284700	0.381200	0.173400
C11	C1	0.542100	0.280500	0.915600
C21	C2	0.843500	0.023800	0.673200
C31	C3	0.435200	0.213600	0.815800
C41	C4	0.564200	0.166500	0.720600
C51	C5	0.711600	0.075200	0.766600
C61	C6	0.957900	0.719500	0.415600
C71	C7	0.656500	0.976200	0.173200
C81	C8	0.064800	0.786400	0.315800
C91	C9	0.935800	0.833500	0.220600
C101	C10	0.788400	0.924800	0.266600
C111	C11	0.457900	0.780500	0.584400
C121	C12	0.156500	0.523800	0.826800
C131	C13	0.564800	0.713600	0.684200
C141	C14	0.435800	0.666500	0.779400
C151	C15	0.288400	0.575200	0.733400
C161	C16	0.042100	0.219500	0.084400
C171	C17	0.343500	0.476200	0.326800
C181	C18	0.935200	0.286400	0.184200
C191	C19	0.064200	0.333500	0.279400
C201	C20	0.211600	0.424800	0.233400
N11	N1	0.315200	0.111200	0.864100
N21	N2	0.184800	0.888800	0.364100
N31	N3	0.684800	0.611200	0.635900
N41	N4	0.815200	0.388800	0.135900
O11	O1	0.990800	0.965200	0.710100
O21	O2	0.814800	0.036400	0.565400
O31	O3	0.529200	0.235700	0.018400
O41	O4	0.642100	0.373600	0.884800
O51	O5	0.509200	0.034800	0.210100
O61	O6	0.685200	0.963600	0.065400
O71	O7	0.970800	0.764300	0.518400
O81	O8	0.857900	0.626400	0.384800
O91	O9	0.009200	0.465200	0.789900
O101	O10	0.185200	0.536400	0.934600
O111	O11	0.470800	0.735700	0.481600
O121	O12	0.357900	0.873600	0.615200
O131	O13	0.490800	0.534800	0.289900
O141	O14	0.314800	0.463600	0.434600
O151	O15	0.029200	0.264300	0.981600
O161	O16	0.142100	0.126400	0.115200
