data_HUTZEB_clean_PM
_symmetry_space_group_name_H-M	'P1'
_cell_length_a	8.758600
_cell_length_b	10.156000
_cell_length_c	19.476000
_cell_angle_alpha	90.000000
_cell_angle_beta	90.000000
_cell_angle_gamma	100.220000
_symmetry_Int_Tables_number 1

loop_
_symmetry_equiv_pos_as_xyz
'x,y,z'

loop_
_atom_site_label
_atom_site_type_symbol
_atom_site_fract_x
_atom_site_fract_y
_atom_site_fract_z
Na11	Na1	0.891240	0.609870	0.469680
Na21	Na2	0.108760	0.890130	0.969680
Na31	Na3	0.108760	0.390130	0.530320
Na41	Na4	0.891240	0.109870	0.030320
Zn11	Zn1	0.637300	0.524950	0.601810
Zn21	Zn2	0.362700	0.975050	0.101810
Zn31	Zn3	0.362700	0.475050	0.398190
Zn41	Zn4	0.637300	0.024950	0.898190
H11	H1	0.750000	0.371000	0.532000
H21	H2	0.633000	0.402000	0.492000
H31	H3	0.915200	0.756900	0.744000
H41	H4	0.083500	0.862800	0.825300
H51	H5	0.439300	0.742000	0.729000
H61	H6	0.270800	0.635800	0.647100
H71	H7	0.376200	0.847700	0.578600
H81	H8	0.727100	0.965400	0.448500
H91	H9	0.250000	0.129000	0.032000
H101	H10	0.367000	0.098000	0.992000
H111	H11	0.084800	0.743100	0.244000
H121	H12	0.916500	0.637200	0.325300
H131	H13	0.560700	0.758000	0.229000
H141	H14	0.729200	0.864200	0.147100
H151	H15	0.623800	0.652300	0.078600
H161	H16	0.272900	0.534600	0.948500
H171	H17	0.250000	0.629000	0.468000
H181	H18	0.367000	0.598000	0.508000
H191	H19	0.084800	0.243100	0.256000
H201	H20	0.916500	0.137200	0.174700
H211	H21	0.560700	0.258000	0.271000
H221	H22	0.729200	0.364200	0.352900
H231	H23	0.623800	0.152300	0.421400
H241	H24	0.272900	0.034600	0.551500
H251	H25	0.750000	0.871000	0.968000
H261	H26	0.633000	0.902000	0.008000
H271	H27	0.915200	0.256900	0.756000
H281	H28	0.083500	0.362800	0.674700
H291	H29	0.439300	0.242000	0.771000
H301	H30	0.270800	0.135800	0.852900
H311	H31	0.376200	0.347700	0.921400
H321	H32	0.727100	0.465400	0.051500
C11	C1	0.962600	0.611300	0.635310
C21	C2	0.074900	0.683300	0.687410
C31	C3	0.020300	0.753000	0.741150
C41	C4	0.120900	0.816000	0.789820
C51	C5	0.278400	0.810500	0.786630
C61	C6	0.333800	0.743900	0.732320
C71	C7	0.232900	0.680600	0.683210
C81	C8	0.383200	0.878700	0.842010
C91	C9	0.633400	0.768000	0.534960
C101	C10	0.562000	0.886700	0.516640
C111	C11	0.426500	0.908900	0.546800
C121	C12	0.635600	0.979000	0.469400
C131	C13	0.037400	0.888700	0.135310
C141	C14	0.925100	0.816700	0.187410
C151	C15	0.979700	0.747000	0.241150
C161	C16	0.879100	0.684000	0.289820
C171	C17	0.721600	0.689500	0.286630
C181	C18	0.666200	0.756100	0.232320
C191	C19	0.767100	0.819400	0.183210
C201	C20	0.616800	0.621300	0.342010
C211	C21	0.366600	0.732000	0.034960
C221	C22	0.438000	0.613300	0.016640
C231	C23	0.573500	0.591100	0.046800
C241	C24	0.364400	0.521000	0.969400
C251	C25	0.037400	0.388700	0.364690
C261	C26	0.925100	0.316700	0.312590
C271	C27	0.979700	0.247000	0.258850
C281	C28	0.879100	0.184000	0.210180
C291	C29	0.721600	0.189500	0.213370
C301	C30	0.666200	0.256100	0.267680
C311	C31	0.767100	0.319400	0.316790
C321	C32	0.616800	0.121300	0.157990
C331	C33	0.366600	0.232000	0.465040
C341	C34	0.438000	0.113300	0.483360
C351	C35	0.573500	0.091100	0.453200
C361	C36	0.364400	0.021000	0.530600
C371	C37	0.962600	0.111300	0.864690
C381	C38	0.074900	0.183300	0.812590
C391	C39	0.020300	0.253000	0.758850
C401	C40	0.120900	0.316000	0.710180
C411	C41	0.278400	0.310500	0.713370
C421	C42	0.333800	0.243900	0.767680
C431	C43	0.232900	0.180600	0.816790
C441	C44	0.383200	0.378700	0.657990
C451	C45	0.633400	0.268000	0.965040
C461	C46	0.562000	0.386700	0.983360
C471	C47	0.426500	0.408900	0.953200
C481	C48	0.635600	0.479000	0.030600
O11	O1	0.010100	0.570000	0.581150
O21	O2	0.821200	0.599200	0.653180
O31	O3	0.527600	0.908500	0.827530
O41	O4	0.329100	0.905400	0.897280
O51	O5	0.770000	0.767400	0.522270
O61	O6	0.542100	0.670100	0.564900
O71	O7	0.698800	0.424700	0.521550
O81	O8	0.989900	0.930000	0.081150
O91	O9	0.178800	0.900800	0.153180
O101	O10	0.472400	0.591500	0.327530
O111	O11	0.670900	0.594600	0.397280
O121	O12	0.230000	0.732600	0.022270
O131	O13	0.457900	0.829900	0.064900
O141	O14	0.301200	0.075300	0.021550
O151	O15	0.989900	0.430000	0.418850
O161	O16	0.178800	0.400800	0.346820
O171	O17	0.472400	0.091500	0.172470
O181	O18	0.670900	0.094600	0.102720
O191	O19	0.230000	0.232600	0.477730
O201	O20	0.457900	0.329900	0.435100
O211	O21	0.301200	0.575300	0.478450
O221	O22	0.010100	0.070000	0.918850
O231	O23	0.821200	0.099200	0.846820
O241	O24	0.527600	0.408500	0.672470
O251	O25	0.329100	0.405400	0.602720
O261	O26	0.770000	0.267400	0.977730
O271	O27	0.542100	0.170100	0.935100
O281	O28	0.698800	0.924700	0.978450
