data_HUVHIR_clean_PM
_symmetry_space_group_name_H-M	'P1'
_cell_length_a	10.137000
_cell_length_b	11.802000
_cell_length_c	13.768000
_cell_angle_alpha	86.899000
_cell_angle_beta	89.523000
_cell_angle_gamma	88.343000
_symmetry_Int_Tables_number 1

loop_
_symmetry_equiv_pos_as_xyz
'x,y,z'

loop_
_atom_site_label
_atom_site_type_symbol
_atom_site_fract_x
_atom_site_fract_y
_atom_site_fract_z
Zn11	Zn1	0.157360	0.515980	0.395540
Zn21	Zn2	0.554670	0.574950	0.378330
Zn31	Zn3	0.622570	0.110090	0.887460
P11	P1	0.375000	0.344000	0.425630
P21	P2	0.670700	0.335200	0.770060
P31	P3	0.844070	0.461550	0.379290
O11	O1	0.229400	0.360400	0.404900
O21	O2	0.444300	0.451700	0.392700
O31	O3	0.400900	0.307000	0.530100
O41	O4	0.407900	0.036400	0.173000
O51	O5	0.193100	0.041800	0.175900
O61	O6	0.782100	0.390100	0.715400
O71	O7	0.715900	0.215800	0.810300
O81	O8	0.544800	0.324900	0.715500
O91	O9	0.440500	0.145100	0.915000
O101	O10	0.243200	0.216200	0.945500
O111	O11	0.730100	0.534300	0.337000
O121	O12	0.967900	0.531500	0.372100
O131	O13	0.818200	0.413100	0.481600
O141	O14	0.103300	0.367300	0.026700
H11	H1	0.146200	0.316400	0.001800
O151	O15	0.985500	0.225000	0.084700
N11	N1	0.416600	0.246200	0.252800
N21	N2	0.839400	0.363000	0.203200
N31	N3	0.551600	0.359100	0.945300
N41	N4	0.483500	0.299800	0.098200
N51	N5	0.629700	0.303100	0.231000
N61	N6	0.701400	0.364600	0.071000
C11	C1	0.514300	0.283100	0.193000
C21	C2	0.581100	0.342100	0.041900
C31	C3	0.719100	0.343200	0.167500
C41	C4	0.439400	0.227500	0.357600
H21	H2	0.533400	0.218000	0.369100
H31	H3	0.397600	0.158100	0.380800
C51	C5	0.294100	0.206800	0.214800
H41	H4	0.269400	0.255500	0.158500
H51	H5	0.225600	0.215300	0.263700
C61	C6	0.297800	0.085300	0.185600
C71	C7	0.640500	0.416500	0.875800
H61	H6	0.723700	0.428800	0.907300
H71	H7	0.602100	0.490100	0.855400
C81	C8	0.412200	0.348600	0.918800
H81	H8	0.400400	0.377500	0.852100
H91	H9	0.358100	0.395700	0.959900
C91	C9	0.363700	0.229300	0.928400
C101	C10	0.868800	0.340300	0.306100
H101	H10	0.959900	0.313600	0.312100
H111	H11	0.813400	0.279800	0.331600
C111	C11	0.941600	0.413200	0.140000
H121	H12	0.005500	0.449300	0.179300
H131	H13	0.901700	0.471000	0.095900
C121	C12	0.011200	0.323400	0.081700
Zn41	Zn4	0.842640	0.484020	0.604460
Zn51	Zn5	0.445330	0.425050	0.621670
Zn61	Zn6	0.377430	0.889910	0.112540
P41	P4	0.625000	0.656000	0.574370
P51	P5	0.329300	0.664800	0.229940
P61	P6	0.155930	0.538450	0.620710
O161	O16	0.770600	0.639600	0.595100
O171	O17	0.555700	0.548300	0.607300
O181	O18	0.599100	0.693000	0.469900
O191	O19	0.592100	0.963600	0.827000
O201	O20	0.806900	0.958200	0.824100
O211	O21	0.217900	0.609900	0.284600
O221	O22	0.284100	0.784200	0.189700
O231	O23	0.455200	0.675100	0.284500
O241	O24	0.559500	0.854900	0.085000
O251	O25	0.756800	0.783800	0.054500
O261	O26	0.269900	0.465700	0.663000
O271	O27	0.032100	0.468500	0.627900
O281	O28	0.181800	0.586900	0.518400
O291	O29	0.896700	0.632700	0.973300
H141	H14	0.853800	0.683600	0.998200
O301	O30	0.014500	0.775000	0.915300
N71	N7	0.583400	0.753800	0.747200
N81	N8	0.160600	0.637000	0.796800
N91	N9	0.448400	0.640900	0.054700
N101	N10	0.516500	0.700200	0.901800
N111	N11	0.370300	0.696900	0.769000
N121	N12	0.298600	0.635400	0.929000
C131	C13	0.485700	0.716900	0.807000
C141	C14	0.418900	0.657900	0.958100
C151	C15	0.280900	0.656800	0.832500
C161	C16	0.560600	0.772500	0.642400
H151	H15	0.466600	0.782000	0.630900
H161	H16	0.602400	0.841900	0.619200
C171	C17	0.705900	0.793200	0.785200
H171	H17	0.730600	0.744500	0.841500
H181	H18	0.774400	0.784700	0.736300
C181	C18	0.702200	0.914700	0.814400
C191	C19	0.359500	0.583500	0.124200
H191	H19	0.276300	0.571200	0.092700
H201	H20	0.397900	0.509900	0.144600
C201	C20	0.587800	0.651400	0.081200
H211	H21	0.599600	0.622500	0.147900
H221	H22	0.641900	0.604300	0.040100
C211	C21	0.636300	0.770700	0.071600
C221	C22	0.131200	0.659700	0.693900
H231	H23	0.040100	0.686400	0.687900
H241	H24	0.186600	0.720200	0.668400
C231	C23	0.058400	0.586800	0.860000
H251	H25	0.994500	0.550700	0.820700
H261	H26	0.098300	0.529000	0.904100
C241	C24	0.988800	0.676600	0.918300
