data_HUWHOY_clean_PM
_symmetry_space_group_name_H-M	'P1'
_cell_length_a	15.081000
_cell_length_b	14.538000
_cell_length_c	17.935000
_cell_angle_alpha	90.000000
_cell_angle_beta	95.951000
_cell_angle_gamma	90.000000
_symmetry_Int_Tables_number 1

loop_
_symmetry_equiv_pos_as_xyz
'x,y,z'

loop_
_atom_site_label
_atom_site_type_symbol
_atom_site_fract_x
_atom_site_fract_y
_atom_site_fract_z
Cd11	Cd1	0.465820	0.104050	0.479980
Cd21	Cd2	0.093430	0.132850	0.835000
O11	O1	0.518800	0.823100	0.525100
C11	C1	0.693500	0.033900	0.596100
O21	O2	0.367700	0.989200	0.437800
C21	C2	0.634700	0.963900	0.571300
H11	H1	0.579400	0.979700	0.546800
O31	O3	0.621300	0.717100	0.561000
O41	O4	0.722700	0.194400	0.606600
C31	C3	0.243600	0.064900	0.366700
H21	H2	0.286700	0.113000	0.357600
N11	N1	0.418000	0.074300	0.592800
C41	C4	0.803600	0.920400	0.631700
O51	O5	0.593000	0.152000	0.546500
C51	C5	0.592500	0.799500	0.553100
O61	O6	0.260000	0.902000	0.383900
C61	C6	0.745300	0.850900	0.614500
H31	H3	0.762200	0.790100	0.623600
N21	N2	0.544100	0.066200	0.383500
O71	O7	0.913400	0.856900	0.725700
N31	N3	0.410500	0.059300	0.714700
O81	O8	0.175500	0.085700	0.952200
C71	C7	0.668800	0.133700	0.582100
N41	N4	0.186500	0.045000	0.297700
C81	C8	0.897500	0.899200	0.665300
C91	C9	0.179600	0.099900	0.419000
H41	H4	0.204900	0.152100	0.447500
H51	H5	0.165700	0.052100	0.453600
C101	C10	0.369200	0.060900	0.842000
H61	H6	0.309500	0.067100	0.823800
C111	C11	0.461400	0.080200	0.659300
H71	H7	0.521100	0.097000	0.667700
C121	C12	0.057900	0.871400	0.120300
O91	O9	0.041200	0.024700	0.919900
C131	C13	0.325300	0.037400	0.678800
H81	H8	0.274600	0.020000	0.700800
C141	C14	0.505400	0.061900	0.315700
H91	H9	0.444000	0.062100	0.303000
C151	C15	0.482200	0.049600	0.947800
C161	C16	0.394200	0.057100	0.917500
H101	H10	0.350100	0.059600	0.949900
C171	C17	0.166400	0.981000	0.172100
C181	C18	0.546100	0.041400	0.897200
H111	H11	0.605500	0.034100	0.915900
C191	C19	0.631600	0.068100	0.377400
H121	H12	0.674500	0.073400	0.418300
O101	O10	0.306900	0.013500	0.237000
N51	N5	0.566500	0.057100	0.265700
C201	C20	0.525000	0.043600	0.821900
H131	H13	0.569500	0.037400	0.790100
C211	C21	0.292700	0.978200	0.397700
C221	C22	0.651300	0.061400	0.305900
H141	H14	0.706900	0.060000	0.287800
O111	O11	0.142700	0.008300	0.758500
O121	O12	0.009100	0.063200	0.732000
C231	C23	0.111400	0.039000	0.963400
C241	C24	0.224500	0.013900	0.236800
N61	N6	0.960400	0.933700	0.624300
C251	C25	0.094600	0.058000	0.307900
H151	H15	0.068300	0.001000	0.323200
H161	H16	0.061500	0.079100	0.261800
C261	C26	0.058700	0.939300	0.655600
H171	H17	0.078500	0.878200	0.673500
C271	C27	0.069900	0.006900	0.721700
C281	C28	0.334300	0.047600	0.605700
H181	H18	0.288400	0.037400	0.567900
C291	C29	0.057100	0.918100	0.050500
H191	H19	0.017100	0.899000	0.010500
C301	C30	0.779400	0.011700	0.624300
H201	H20	0.820600	0.057800	0.638100
C311	C31	0.108500	0.907600	0.181300
H211	H21	0.104300	0.883400	0.228800
C321	C32	0.435800	0.055300	0.791800
C331	C33	0.547900	0.051900	0.186300
C341	C34	0.507100	0.047700	0.031000
C351	C35	0.170900	0.020800	0.101800
H221	H22	0.211800	0.067400	0.095500
C361	C36	0.655000	0.873300	0.581400
C371	C37	0.464800	0.089000	0.153400
H231	H23	0.424500	0.117700	0.181700
C381	C38	0.606000	0.021300	0.141300
H241	H24	0.661800	0.001800	0.162400
O131	O13	0.007700	0.745600	0.189600
C391	C39	0.094000	0.129300	0.368000
H251	H25	0.041000	0.125200	0.394100
H261	H26	0.099200	0.191000	0.348300
C401	C40	0.586100	0.017400	0.063200
H271	H27	0.627800	0.993700	0.033600
C411	C41	0.112600	0.989400	0.040300
C421	C42	0.105200	0.963500	0.591200
H281	H28	0.162700	0.933100	0.594000
H291	H29	0.114500	0.029400	0.589300
C431	C43	0.448900	0.079300	0.077000
H301	H30	0.392700	0.096200	0.055000
C441	C44	0.001300	0.791500	0.131400
O141	O14	0.942300	0.762500	0.081500
C451	C45	0.949400	0.967900	0.550900
H311	H31	0.944600	0.034400	0.549700
H321	H32	0.898200	0.941000	0.521700
C461	C46	0.046000	0.931500	0.522100
H331	H33	0.047500	0.865300	0.515500
H341	H34	0.059900	0.962100	0.476700
Cd31	Cd3	0.534180	0.604050	0.520020
Cd41	Cd4	0.906570	0.632850	0.165000
O151	O15	0.481200	0.323100	0.474900
C471	C47	0.306500	0.533900	0.403900
O161	O16	0.632300	0.489200	0.562200
C481	C48	0.365300	0.463900	0.428700
H351	H35	0.420600	0.479700	0.453200
O171	O17	0.378700	0.217100	0.439000
O181	O18	0.277300	0.694400	0.393400
C491	C49	0.756400	0.564900	0.633300
H361	H36	0.713300	0.613000	0.642400
N71	N7	0.582000	0.574300	0.407200
C501	C50	0.196400	0.420400	0.368300
O191	O19	0.407000	0.652000	0.453500
C511	C51	0.407500	0.299500	0.446900
O201	O20	0.740000	0.402000	0.616100
C521	C52	0.254700	0.350900	0.385500
H371	H37	0.237800	0.290100	0.376400
N81	N8	0.455900	0.566200	0.616500
O211	O21	0.086600	0.356900	0.274300
N91	N9	0.589500	0.559300	0.285300
O221	O22	0.824500	0.585700	0.047800
C531	C53	0.331200	0.633700	0.417900
N101	N10	0.813500	0.545000	0.702300
C541	C54	0.102500	0.399200	0.334700
C551	C55	0.820400	0.599900	0.581000
H381	H38	0.795100	0.652100	0.552500
H391	H39	0.834300	0.552100	0.546400
C561	C56	0.630800	0.560900	0.158000
H401	H40	0.690500	0.567100	0.176200
C571	C57	0.538600	0.580200	0.340700
H411	H41	0.478900	0.597000	0.332300
C581	C58	0.942100	0.371400	0.879700
O231	O23	0.958800	0.524700	0.080100
C591	C59	0.674700	0.537400	0.321200
H421	H42	0.725400	0.520000	0.299200
C601	C60	0.494600	0.561900	0.684300
H431	H43	0.556000	0.562100	0.697000
C611	C61	0.517800	0.549600	0.052200
C621	C62	0.605800	0.557100	0.082500
H441	H44	0.649900	0.559600	0.050100
C631	C63	0.833600	0.481000	0.827900
C641	C64	0.453900	0.541400	0.102800
H451	H45	0.394500	0.534100	0.084100
C651	C65	0.368400	0.568100	0.622600
H461	H46	0.325500	0.573400	0.581700
O241	O24	0.693100	0.513500	0.763000
N111	N11	0.433500	0.557100	0.734300
C661	C66	0.475000	0.543600	0.178100
H471	H47	0.430500	0.537400	0.209900
C671	C67	0.707300	0.478200	0.602300
C681	C68	0.348700	0.561400	0.694100
H481	H48	0.293100	0.560000	0.712200
O251	O25	0.857300	0.508300	0.241500
O261	O26	0.990900	0.563200	0.268000
C691	C69	0.888600	0.539000	0.036600
C701	C70	0.775500	0.513900	0.763200
N121	N12	0.039600	0.433700	0.375700
C711	C71	0.905400	0.558000	0.692100
H491	H49	0.931700	0.501000	0.676800
H501	H50	0.938500	0.579100	0.738200
C721	C72	0.941300	0.439300	0.344400
H511	H51	0.921500	0.378200	0.326500
C731	C73	0.930100	0.506900	0.278300
C741	C74	0.665700	0.547600	0.394300
H521	H52	0.711600	0.537400	0.432100
C751	C75	0.942900	0.418100	0.949500
H531	H53	0.982900	0.399000	0.989500
C761	C76	0.220600	0.511700	0.375700
H541	H54	0.179400	0.557800	0.361900
C771	C77	0.891500	0.407600	0.818700
H551	H55	0.895700	0.383400	0.771200
C781	C78	0.564200	0.555300	0.208200
C791	C79	0.452100	0.551900	0.813700
C801	C80	0.492900	0.547700	0.969000
C811	C81	0.829100	0.520800	0.898200
H561	H56	0.788200	0.567400	0.904500
C821	C82	0.345000	0.373300	0.418600
C831	C83	0.535200	0.589000	0.846600
H571	H57	0.575500	0.617700	0.818300
C841	C84	0.394000	0.521300	0.858700
H581	H58	0.338200	0.501800	0.837600
O271	O27	0.992300	0.245600	0.810400
C851	C85	0.906000	0.629300	0.632000
H591	H59	0.959000	0.625200	0.605900
H601	H60	0.900800	0.691000	0.651700
C861	C86	0.413900	0.517400	0.936800
H611	H61	0.372200	0.493700	0.966400
C871	C87	0.887400	0.489400	0.959700
C881	C88	0.894800	0.463500	0.408800
H621	H62	0.837300	0.433100	0.406000
H631	H63	0.885500	0.529400	0.410700
C891	C89	0.551100	0.579300	0.923000
H641	H64	0.607300	0.596200	0.945000
C901	C90	0.998700	0.291500	0.868600
O281	O28	0.057700	0.262500	0.918500
C911	C91	0.050600	0.467900	0.449100
H651	H65	0.055400	0.534400	0.450300
H661	H66	0.101800	0.441000	0.478300
C921	C92	0.954000	0.431500	0.477900
H671	H67	0.952500	0.365300	0.484500
H681	H68	0.940100	0.462100	0.523300
