data_HUWSUN_clean_PM
_symmetry_space_group_name_H-M	'P1'
_cell_length_a	18.352000
_cell_length_b	18.352000
_cell_length_c	18.352000
_cell_angle_alpha	90.000000
_cell_angle_beta	90.000000
_cell_angle_gamma	90.000000
_symmetry_Int_Tables_number 1

loop_
_symmetry_equiv_pos_as_xyz
'x,y,z'

loop_
_atom_site_label
_atom_site_type_symbol
_atom_site_fract_x
_atom_site_fract_y
_atom_site_fract_z
N11	N1	0.564200	0.507700	0.306200
C11	C1	0.512500	0.457300	0.296600
H11	H1	0.497500	0.429800	0.336400
C21	C2	0.480800	0.444800	0.230500
H21	H2	0.444400	0.409800	0.226300
O11	O1	0.472000	0.474800	0.106600
C31	C3	0.502800	0.484600	0.168100
C41	C4	0.559300	0.537900	0.179400
H31	H3	0.576600	0.565600	0.140700
C51	C5	0.586700	0.547100	0.246600
H41	H4	0.622900	0.582000	0.253100
C61	C6	0.600500	0.518700	0.377300
H51	H5	0.621100	0.567300	0.378900
H61	H6	0.640100	0.484100	0.382100
C71	C7	0.547600	0.509100	0.441800
N21	N2	0.935800	0.492300	0.806200
C81	C8	0.987500	0.542700	0.796600
H71	H7	0.002500	0.570200	0.836400
C91	C9	0.019200	0.555200	0.730500
H81	H8	0.055600	0.590200	0.726300
O21	O2	0.028000	0.525200	0.606600
C101	C10	0.997200	0.515400	0.668100
C111	C11	0.940700	0.462100	0.679400
H91	H9	0.923400	0.434400	0.640700
C121	C12	0.913300	0.452900	0.746600
H101	H10	0.877100	0.418000	0.753100
C131	C13	0.899500	0.481300	0.877300
H111	H11	0.878900	0.432700	0.878900
H121	H12	0.859900	0.515900	0.882100
C141	C14	0.952400	0.490900	0.941800
N31	N3	0.435800	0.007700	0.193800
C151	C15	0.487500	0.957300	0.203400
H131	H13	0.502500	0.929800	0.163600
C161	C16	0.519200	0.944800	0.269500
H141	H14	0.555600	0.909800	0.273700
O31	O3	0.528000	0.974800	0.393400
C171	C17	0.497200	0.984600	0.331900
C181	C18	0.440700	0.037900	0.320600
H151	H15	0.423400	0.065600	0.359300
C191	C19	0.413300	0.047100	0.253400
H161	H16	0.377100	0.082000	0.246900
C201	C20	0.399500	0.018700	0.122700
H171	H17	0.378900	0.067300	0.121100
H181	H18	0.359900	0.984100	0.117900
C211	C21	0.452400	0.009100	0.058200
N41	N4	0.064200	0.992300	0.693800
C221	C22	0.012500	0.042700	0.703400
H191	H19	0.997500	0.070200	0.663600
C231	C23	0.980800	0.055200	0.769500
H201	H20	0.944400	0.090200	0.773700
O41	O4	0.972000	0.025200	0.893400
C241	C24	0.002800	0.015400	0.831900
C251	C25	0.059300	0.962100	0.820600
H211	H21	0.076600	0.934400	0.859300
C261	C26	0.086700	0.952900	0.753400
H221	H22	0.122900	0.918000	0.746900
C271	C27	0.100500	0.981300	0.622700
H231	H23	0.121100	0.932700	0.621100
H241	H24	0.140100	0.015900	0.617900
C281	C28	0.047600	0.990900	0.558200
N51	N5	0.306200	0.564200	0.507700
C291	C29	0.296600	0.512500	0.457300
H251	H25	0.336400	0.497500	0.429800
C301	C30	0.230500	0.480800	0.444800
H261	H26	0.226300	0.444400	0.409800
O51	O5	0.106600	0.472000	0.474800
C311	C31	0.168100	0.502800	0.484600
C321	C32	0.179400	0.559300	0.537900
H271	H27	0.140700	0.576600	0.565600
C331	C33	0.246600	0.586700	0.547100
H281	H28	0.253100	0.622900	0.582000
C341	C34	0.377300	0.600500	0.518700
H291	H29	0.378900	0.621100	0.567300
H301	H30	0.382100	0.640100	0.484100
C351	C35	0.441800	0.547600	0.509100
N61	N6	0.806200	0.935800	0.492300
C361	C36	0.796600	0.987500	0.542700
H311	H31	0.836400	0.002500	0.570200
C371	C37	0.730500	0.019200	0.555200
H321	H32	0.726300	0.055600	0.590200
O61	O6	0.606600	0.028000	0.525200
C381	C38	0.668100	0.997200	0.515400
C391	C39	0.679400	0.940700	0.462100
H331	H33	0.640700	0.923400	0.434400
C401	C40	0.746600	0.913300	0.452900
H341	H34	0.753100	0.877100	0.418000
C411	C41	0.877300	0.899500	0.481300
H351	H35	0.878900	0.878900	0.432700
H361	H36	0.882100	0.859900	0.515900
C421	C42	0.941800	0.952400	0.490900
N71	N7	0.193800	0.435800	0.007700
C431	C43	0.203400	0.487500	0.957300
H371	H37	0.163600	0.502500	0.929800
C441	C44	0.269500	0.519200	0.944800
H381	H38	0.273700	0.555600	0.909800
O71	O7	0.393400	0.528000	0.974800
C451	C45	0.331900	0.497200	0.984600
C461	C46	0.320600	0.440700	0.037900
H391	H39	0.359300	0.423400	0.065600
C471	C47	0.253400	0.413300	0.047100
H401	H40	0.246900	0.377100	0.082000
C481	C48	0.122700	0.399500	0.018700
H411	H41	0.121100	0.378900	0.067300
H421	H42	0.117900	0.359900	0.984100
C491	C49	0.058200	0.452400	0.009100
N81	N8	0.693800	0.064200	0.992300
C501	C50	0.703400	0.012500	0.042700
H431	H43	0.663600	0.997500	0.070200
C511	C51	0.769500	0.980800	0.055200
H441	H44	0.773700	0.944400	0.090200
O81	O8	0.893400	0.972000	0.025200
C521	C52	0.831900	0.002800	0.015400
C531	C53	0.820600	0.059300	0.962100
H451	H45	0.859300	0.076600	0.934400
C541	C54	0.753400	0.086700	0.952900
H461	H46	0.746900	0.122900	0.918000
C551	C55	0.622700	0.100500	0.981300
H471	H47	0.621100	0.121100	0.932700
H481	H48	0.617900	0.140100	0.015900
C561	C56	0.558200	0.047600	0.990900
N91	N9	0.507700	0.306200	0.564200
C571	C57	0.457300	0.296600	0.512500
H491	H49	0.429800	0.336400	0.497500
C581	C58	0.444800	0.230500	0.480800
H501	H50	0.409800	0.226300	0.444400
O91	O9	0.474800	0.106600	0.472000
C591	C59	0.484600	0.168100	0.502800
C601	C60	0.537900	0.179400	0.559300
H511	H51	0.565600	0.140700	0.576600
C611	C61	0.547100	0.246600	0.586700
H521	H52	0.582000	0.253100	0.622900
C621	C62	0.518700	0.377300	0.600500
H531	H53	0.567300	0.378900	0.621100
H541	H54	0.484100	0.382100	0.640100
C631	C63	0.509100	0.441800	0.547600
N101	N10	0.492300	0.806200	0.935800
C641	C64	0.542700	0.796600	0.987500
H551	H55	0.570200	0.836400	0.002500
C651	C65	0.555200	0.730500	0.019200
H561	H56	0.590200	0.726300	0.055600
O101	O10	0.525200	0.606600	0.028000
C661	C66	0.515400	0.668100	0.997200
C671	C67	0.462100	0.679400	0.940700
H571	H57	0.434400	0.640700	0.923400
C681	C68	0.452900	0.746600	0.913300
H581	H58	0.418000	0.753100	0.877100
C691	C69	0.481300	0.877300	0.899500
H591	H59	0.432700	0.878900	0.878900
H601	H60	0.515900	0.882100	0.859900
C701	C70	0.490900	0.941800	0.952400
N111	N11	0.007700	0.193800	0.435800
C711	C71	0.957300	0.203400	0.487500
H611	H61	0.929800	0.163600	0.502500
C721	C72	0.944800	0.269500	0.519200
H621	H62	0.909800	0.273700	0.555600
O111	O11	0.974800	0.393400	0.528000
C731	C73	0.984600	0.331900	0.497200
C741	C74	0.037900	0.320600	0.440700
H631	H63	0.065600	0.359300	0.423400
C751	C75	0.047100	0.253400	0.413300
H641	H64	0.082000	0.246900	0.377100
C761	C76	0.018700	0.122700	0.399500
H651	H65	0.067300	0.121100	0.378900
H661	H66	0.984100	0.117900	0.359900
C771	C77	0.009100	0.058200	0.452400
N121	N12	0.992300	0.693800	0.064200
C781	C78	0.042700	0.703400	0.012500
H671	H67	0.070200	0.663600	0.997500
C791	C79	0.055200	0.769500	0.980800
H681	H68	0.090200	0.773700	0.944400
O121	O12	0.025200	0.893400	0.972000
C801	C80	0.015400	0.831900	0.002800
C811	C81	0.962100	0.820600	0.059300
H691	H69	0.934400	0.859300	0.076600
C821	C82	0.952900	0.753400	0.086700
H701	H70	0.918000	0.746900	0.122900
C831	C83	0.981300	0.622700	0.100500
H711	H71	0.932700	0.621100	0.121100
H721	H72	0.015900	0.617900	0.140100
C841	C84	0.990900	0.558200	0.047600
N131	N13	0.435800	0.492300	0.693800
C851	C85	0.487500	0.542700	0.703400
H731	H73	0.502500	0.570200	0.663600
C861	C86	0.519200	0.555200	0.769500
H741	H74	0.555600	0.590200	0.773700
O131	O13	0.528000	0.525200	0.893400
C871	C87	0.497200	0.515400	0.831900
C881	C88	0.440700	0.462100	0.820600
H751	H75	0.423400	0.434400	0.859300
C891	C89	0.413300	0.452900	0.753400
H761	H76	0.377100	0.418000	0.746900
C901	C90	0.399500	0.481300	0.622700
H771	H77	0.378900	0.432700	0.621100
H781	H78	0.359900	0.515900	0.617900
C911	C91	0.452400	0.490900	0.558200
N141	N14	0.064200	0.507700	0.193800
C921	C92	0.012500	0.457300	0.203400
H791	H79	0.997500	0.429800	0.163600
C931	C93	0.980800	0.444800	0.269500
H801	H80	0.944400	0.409800	0.273700
O141	O14	0.972000	0.474800	0.393400
C941	C94	0.002800	0.484600	0.331900
C951	C95	0.059300	0.537900	0.320600
H811	H81	0.076600	0.565600	0.359300
C961	C96	0.086700	0.547100	0.253400
H821	H82	0.122900	0.582000	0.246900
C971	C97	0.100500	0.518700	0.122700
H831	H83	0.121100	0.567300	0.121100
H841	H84	0.140100	0.484100	0.117900
C981	C98	0.047600	0.509100	0.058200
N151	N15	0.564200	0.992300	0.806200
C991	C99	0.512500	0.042700	0.796600
H851	H85	0.497500	0.070200	0.836400
C1001	C100	0.480800	0.055200	0.730500
H861	H86	0.444400	0.090200	0.726300
O151	O15	0.472000	0.025200	0.606600
C1011	C101	0.502800	0.015400	0.668100
C1021	C102	0.559300	0.962100	0.679400
H871	H87	0.576600	0.934400	0.640700
C1031	C103	0.586700	0.952900	0.746600
H881	H88	0.622900	0.918000	0.753100
C1041	C104	0.600500	0.981300	0.877300
H891	H89	0.621100	0.932700	0.878900
H901	H90	0.640100	0.015900	0.882100
C1051	C105	0.547600	0.990900	0.941800
N161	N16	0.935800	0.007700	0.306200
C1061	C106	0.987500	0.957300	0.296600
H911	H91	0.002500	0.929800	0.336400
C1071	C107	0.019200	0.944800	0.230500
H921	H92	0.055600	0.909800	0.226300
O161	O16	0.028000	0.974800	0.106600
C1081	C108	0.997200	0.984600	0.168100
C1091	C109	0.940700	0.037900	0.179400
H931	H93	0.923400	0.065600	0.140700
C1101	C110	0.913300	0.047100	0.246600
H941	H94	0.877100	0.082000	0.253100
C1111	C111	0.899500	0.018700	0.377300
H951	H95	0.878900	0.067300	0.378900
H961	H96	0.859900	0.984100	0.382100
C1121	C112	0.952400	0.009100	0.441800
N171	N17	0.693800	0.435800	0.492300
C1131	C113	0.703400	0.487500	0.542700
H971	H97	0.663600	0.502500	0.570200
C1141	C114	0.769500	0.519200	0.555200
H981	H98	0.773700	0.555600	0.590200
O171	O17	0.893400	0.528000	0.525200
C1151	C115	0.831900	0.497200	0.515400
C1161	C116	0.820600	0.440700	0.462100
H991	H99	0.859300	0.423400	0.434400
C1171	C117	0.753400	0.413300	0.452900
H1001	H100	0.746900	0.377100	0.418000
C1181	C118	0.622700	0.399500	0.481300
H1011	H101	0.621100	0.378900	0.432700
H1021	H102	0.617900	0.359900	0.515900
C1191	C119	0.558200	0.452400	0.490900
N181	N18	0.193800	0.064200	0.507700
C1201	C120	0.203400	0.012500	0.457300
H1031	H103	0.163600	0.997500	0.429800
C1211	C121	0.269500	0.980800	0.444800
H1041	H104	0.273700	0.944400	0.409800
O181	O18	0.393400	0.972000	0.474800
C1221	C122	0.331900	0.002800	0.484600
C1231	C123	0.320600	0.059300	0.537900
H1051	H105	0.359300	0.076600	0.565600
C1241	C124	0.253400	0.086700	0.547100
H1061	H106	0.246900	0.122900	0.582000
C1251	C125	0.122700	0.100500	0.518700
H1071	H107	0.121100	0.121100	0.567300
H1081	H108	0.117900	0.140100	0.484100
C1261	C126	0.058200	0.047600	0.509100
N191	N19	0.806200	0.564200	0.992300
C1271	C127	0.796600	0.512500	0.042700
H1091	H109	0.836400	0.497500	0.070200
C1281	C128	0.730500	0.480800	0.055200
H1101	H110	0.726300	0.444400	0.090200
O191	O19	0.606600	0.472000	0.025200
C1291	C129	0.668100	0.502800	0.015400
C1301	C130	0.679400	0.559300	0.962100
H1111	H111	0.640700	0.576600	0.934400
C1311	C131	0.746600	0.586700	0.952900
H1121	H112	0.753100	0.622900	0.918000
C1321	C132	0.877300	0.600500	0.981300
H1131	H113	0.878900	0.621100	0.932700
H1141	H114	0.882100	0.640100	0.015900
C1331	C133	0.941800	0.547600	0.990900
N201	N20	0.306200	0.935800	0.007700
C1341	C134	0.296600	0.987500	0.957300
H1151	H115	0.336400	0.002500	0.929800
C1351	C135	0.230500	0.019200	0.944800
H1161	H116	0.226300	0.055600	0.909800
O201	O20	0.106600	0.028000	0.974800
C1361	C136	0.168100	0.997200	0.984600
C1371	C137	0.179400	0.940700	0.037900
H1171	H117	0.140700	0.923400	0.065600
C1381	C138	0.246600	0.913300	0.047100
H1181	H118	0.253100	0.877100	0.082000
C1391	C139	0.377300	0.899500	0.018700
H1191	H119	0.378900	0.878900	0.067300
H1201	H120	0.382100	0.859900	0.984100
C1401	C140	0.441800	0.952400	0.009100
N211	N21	0.492300	0.693800	0.435800
C1411	C141	0.542700	0.703400	0.487500
H1211	H121	0.570200	0.663600	0.502500
C1421	C142	0.555200	0.769500	0.519200
H1221	H122	0.590200	0.773700	0.555600
O211	O21	0.525200	0.893400	0.528000
C1431	C143	0.515400	0.831900	0.497200
C1441	C144	0.462100	0.820600	0.440700
H1231	H123	0.434400	0.859300	0.423400
C1451	C145	0.452900	0.753400	0.413300
H1241	H124	0.418000	0.746900	0.377100
C1461	C146	0.481300	0.622700	0.399500
H1251	H125	0.432700	0.621100	0.378900
H1261	H126	0.515900	0.617900	0.359900
C1471	C147	0.490900	0.558200	0.452400
N221	N22	0.507700	0.193800	0.064200
C1481	C148	0.457300	0.203400	0.012500
H1271	H127	0.429800	0.163600	0.997500
C1491	C149	0.444800	0.269500	0.980800
H1281	H128	0.409800	0.273700	0.944400
O221	O22	0.474800	0.393400	0.972000
C1501	C150	0.484600	0.331900	0.002800
C1511	C151	0.537900	0.320600	0.059300
H1291	H129	0.565600	0.359300	0.076600
C1521	C152	0.547100	0.253400	0.086700
H1301	H130	0.582000	0.246900	0.122900
C1531	C153	0.518700	0.122700	0.100500
H1311	H131	0.567300	0.121100	0.121100
H1321	H132	0.484100	0.117900	0.140100
C1541	C154	0.509100	0.058200	0.047600
N231	N23	0.992300	0.806200	0.564200
C1551	C155	0.042700	0.796600	0.512500
H1331	H133	0.070200	0.836400	0.497500
C1561	C156	0.055200	0.730500	0.480800
H1341	H134	0.090200	0.726300	0.444400
O231	O23	0.025200	0.606600	0.472000
C1571	C157	0.015400	0.668100	0.502800
C1581	C158	0.962100	0.679400	0.559300
H1351	H135	0.934400	0.640700	0.576600
C1591	C159	0.952900	0.746600	0.586700
H1361	H136	0.918000	0.753100	0.622900
C1601	C160	0.981300	0.877300	0.600500
H1371	H137	0.932700	0.878900	0.621100
H1381	H138	0.015900	0.882100	0.640100
C1611	C161	0.990900	0.941800	0.547600
N241	N24	0.007700	0.306200	0.935800
C1621	C162	0.957300	0.296600	0.987500
H1391	H139	0.929800	0.336400	0.002500
C1631	C163	0.944800	0.230500	0.019200
H1401	H140	0.909800	0.226300	0.055600
O241	O24	0.974800	0.106600	0.028000
C1641	C164	0.984600	0.168100	0.997200
C1651	C165	0.037900	0.179400	0.940700
H1411	H141	0.065600	0.140700	0.923400
C1661	C166	0.047100	0.246600	0.913300
H1421	H142	0.082000	0.253100	0.877100
C1671	C167	0.018700	0.377300	0.899500
H1431	H143	0.067300	0.378900	0.878900
H1441	H144	0.984100	0.382100	0.859900
C1681	C168	0.009100	0.441800	0.952400
Co11	Co1	0.500000	0.500000	0.000000
Co21	Co2	0.000000	0.500000	0.500000
Co31	Co3	0.500000	0.000000	0.500000
Co41	Co4	0.000000	0.000000	0.000000
