data_HUYJOA_clean_PM
_symmetry_space_group_name_H-M	'P1'
_cell_length_a	16.311600
_cell_length_b	16.311600
_cell_length_c	30.060000
_cell_angle_alpha	90.000000
_cell_angle_beta	90.000000
_cell_angle_gamma	90.000000
_symmetry_Int_Tables_number 1

loop_
_symmetry_equiv_pos_as_xyz
'x,y,z'

loop_
_atom_site_label
_atom_site_type_symbol
_atom_site_fract_x
_atom_site_fract_y
_atom_site_fract_z
Ni11	Ni1	0.010220	0.263470	0.744110
Ni21	Ni2	0.989780	0.736530	0.244110
Ni31	Ni3	0.736530	0.010220	0.994110
Ni41	Ni4	0.263470	0.989780	0.494110
Ni51	Ni5	0.989780	0.263470	0.255890
Ni61	Ni6	0.010220	0.736530	0.755890
Ni71	Ni7	0.263470	0.010220	0.005890
Ni81	Ni8	0.736530	0.989780	0.505890
Ni91	Ni9	0.526340	0.526340	0.875000
Ni101	Ni10	0.473660	0.473660	0.375000
Ni111	Ni11	0.473660	0.526340	0.125000
Ni121	Ni12	0.526340	0.473660	0.625000
H11	H1	0.738000	0.387600	0.833000
H21	H2	0.860500	0.179700	0.850600
H31	H3	0.658900	0.225000	0.922400
H41	H4	0.703000	0.547000	0.903400
H51	H5	0.782000	0.606000	0.956300
H61	H6	0.726100	0.711200	0.000400
H71	H7	0.587800	0.736000	0.993900
H81	H8	0.508700	0.658700	0.947100
H91	H9	0.138200	0.398700	0.743400
H101	H10	0.226500	0.468900	0.788100
H111	H11	0.228900	0.439200	0.864200
H121	H12	0.141000	0.335800	0.890000
H131	H13	0.056000	0.272300	0.840700
H141	H14	0.175500	0.176700	0.762500
H151	H15	0.223900	0.064000	0.798100
H161	H16	0.138000	0.971600	0.828000
H171	H17	0.997500	0.990100	0.822500
H181	H18	0.949800	0.105000	0.787000
H191	H19	0.972000	0.185800	0.681400
H201	H20	0.262000	0.612400	0.333000
H211	H21	0.139500	0.820300	0.350600
H221	H22	0.341100	0.775000	0.422400
H231	H23	0.297000	0.453000	0.403400
H241	H24	0.218000	0.394000	0.456300
H251	H25	0.273900	0.288800	0.500400
H261	H26	0.412200	0.264000	0.493900
H271	H27	0.491300	0.341300	0.447100
H281	H28	0.861800	0.601300	0.243400
H291	H29	0.773500	0.531100	0.288100
H301	H30	0.771100	0.560800	0.364200
H311	H31	0.859000	0.664200	0.390000
H321	H32	0.944000	0.727700	0.340700
H331	H33	0.824500	0.823300	0.262500
H341	H34	0.776100	0.936000	0.298100
H351	H35	0.862000	0.028400	0.328000
H361	H36	0.002500	0.009900	0.322500
H371	H37	0.050200	0.895000	0.287000
H381	H38	0.028000	0.814200	0.181400
H391	H39	0.612400	0.738000	0.083000
H401	H40	0.820300	0.860500	0.100600
H411	H41	0.775000	0.658900	0.172400
H421	H42	0.453000	0.703000	0.153400
H431	H43	0.394000	0.782000	0.206300
H441	H44	0.288800	0.726100	0.250400
H451	H45	0.264000	0.587800	0.243900
H461	H46	0.341300	0.508700	0.197100
H471	H47	0.601300	0.138200	0.993400
H481	H48	0.531100	0.226500	0.038100
H491	H49	0.560800	0.228900	0.114200
H501	H50	0.664200	0.141000	0.140000
H511	H51	0.727700	0.056000	0.090700
H521	H52	0.823300	0.175500	0.012500
H531	H53	0.936000	0.223900	0.048100
H541	H54	0.028400	0.138000	0.078000
H551	H55	0.009900	0.997500	0.072500
H561	H56	0.895000	0.949800	0.037000
H571	H57	0.814200	0.972000	0.931400
H581	H58	0.387600	0.262000	0.583000
H591	H59	0.179700	0.139500	0.600600
H601	H60	0.225000	0.341100	0.672400
H611	H61	0.547000	0.297000	0.653400
H621	H62	0.606000	0.218000	0.706300
H631	H63	0.711200	0.273900	0.750400
H641	H64	0.736000	0.412200	0.743900
H651	H65	0.658700	0.491300	0.697100
H661	H66	0.398700	0.861800	0.493400
H671	H67	0.468900	0.773500	0.538100
H681	H68	0.439200	0.771100	0.614200
H691	H69	0.335800	0.859000	0.640000
H701	H70	0.272300	0.944000	0.590700
H711	H71	0.176700	0.824500	0.512500
H721	H72	0.064000	0.776100	0.548100
H731	H73	0.971600	0.862000	0.578000
H741	H74	0.990100	0.002500	0.572500
H751	H75	0.105000	0.050200	0.537000
H761	H76	0.185800	0.028000	0.431400
H771	H77	0.262000	0.387600	0.167000
H781	H78	0.139500	0.179700	0.149400
H791	H79	0.341100	0.225000	0.077600
H801	H80	0.297000	0.547000	0.096600
H811	H81	0.218000	0.606000	0.043700
H821	H82	0.273900	0.711200	0.999600
H831	H83	0.412200	0.736000	0.006100
H841	H84	0.491300	0.658700	0.052900
H851	H85	0.861800	0.398700	0.256600
H861	H86	0.773500	0.468900	0.211900
H871	H87	0.771100	0.439200	0.135800
H881	H88	0.859000	0.335800	0.110000
H891	H89	0.944000	0.272300	0.159300
H901	H90	0.824500	0.176700	0.237500
H911	H91	0.776100	0.064000	0.201900
H921	H92	0.862000	0.971600	0.172000
H931	H93	0.002500	0.990100	0.177500
H941	H94	0.050200	0.105000	0.213000
H951	H95	0.028000	0.185800	0.318600
H961	H96	0.738000	0.612400	0.667000
H971	H97	0.860500	0.820300	0.649400
H981	H98	0.658900	0.775000	0.577600
H991	H99	0.703000	0.453000	0.596600
H1001	H100	0.782000	0.394000	0.543700
H1011	H101	0.726100	0.288800	0.499600
H1021	H102	0.587800	0.264000	0.506100
H1031	H103	0.508700	0.341300	0.552900
H1041	H104	0.138200	0.601300	0.756600
H1051	H105	0.226500	0.531100	0.711900
H1061	H106	0.228900	0.560800	0.635800
H1071	H107	0.141000	0.664200	0.610000
H1081	H108	0.056000	0.727700	0.659300
H1091	H109	0.175500	0.823300	0.737500
H1101	H110	0.223900	0.936000	0.701900
H1111	H111	0.138000	0.028400	0.672000
H1121	H112	0.997500	0.009900	0.677500
H1131	H113	0.949800	0.895000	0.713000
H1141	H114	0.972000	0.814200	0.818600
H1151	H115	0.387600	0.738000	0.917000
H1161	H116	0.179700	0.860500	0.899400
H1171	H117	0.225000	0.658900	0.827600
H1181	H118	0.547000	0.703000	0.846600
H1191	H119	0.606000	0.782000	0.793700
H1201	H120	0.711200	0.726100	0.749600
H1211	H121	0.736000	0.587800	0.756100
H1221	H122	0.658700	0.508700	0.802900
H1231	H123	0.398700	0.138200	0.006600
H1241	H124	0.468900	0.226500	0.961900
H1251	H125	0.439200	0.228900	0.885800
H1261	H126	0.335800	0.141000	0.860000
H1271	H127	0.272300	0.056000	0.909300
H1281	H128	0.176700	0.175500	0.987500
H1291	H129	0.064000	0.223900	0.951900
H1301	H130	0.971600	0.138000	0.922000
H1311	H131	0.990100	0.997500	0.927500
H1321	H132	0.105000	0.949800	0.963000
H1331	H133	0.185800	0.972000	0.068600
H1341	H134	0.612400	0.262000	0.417000
H1351	H135	0.820300	0.139500	0.399400
H1361	H136	0.775000	0.341100	0.327600
H1371	H137	0.453000	0.297000	0.346600
H1381	H138	0.394000	0.218000	0.293700
H1391	H139	0.288800	0.273900	0.249600
H1401	H140	0.264000	0.412200	0.256100
H1411	H141	0.341300	0.491300	0.302900
H1421	H142	0.601300	0.861800	0.506600
H1431	H143	0.531100	0.773500	0.461900
H1441	H144	0.560800	0.771100	0.385800
H1451	H145	0.664200	0.859000	0.360000
H1461	H146	0.727700	0.944000	0.409300
H1471	H147	0.823300	0.824500	0.487500
H1481	H148	0.936000	0.776100	0.451900
H1491	H149	0.028400	0.862000	0.422000
H1501	H150	0.009900	0.002500	0.427500
H1511	H151	0.895000	0.050200	0.463000
H1521	H152	0.814200	0.028000	0.568600
C11	C1	0.615600	0.367400	0.891300
C21	C2	0.686600	0.315600	0.879700
C31	C3	0.744200	0.337800	0.847700
C41	C4	0.809800	0.288800	0.837000
C51	C5	0.868600	0.312600	0.800900
C61	C6	0.817300	0.214200	0.858200
C71	C7	0.762800	0.189900	0.890100
C81	C8	0.772800	0.107800	0.913000
C91	C9	0.696400	0.241300	0.900800
C101	C10	0.678200	0.581300	0.924200
C111	C11	0.727000	0.620000	0.953900
C121	C12	0.693800	0.681200	0.980800
C131	C13	0.612100	0.694800	0.977000
C141	C14	0.564700	0.648600	0.948500
C151	C15	0.138400	0.386300	0.773600
C161	C16	0.192200	0.429100	0.800100
C171	C17	0.194000	0.411400	0.844900
C181	C18	0.141700	0.350700	0.860100
C191	C19	0.090800	0.312800	0.830000
C201	C20	0.138600	0.139500	0.774600
C211	C21	0.167600	0.072000	0.795900
C221	C22	0.117000	0.017400	0.813500
C231	C23	0.033800	0.028100	0.810500
C241	C24	0.006200	0.097100	0.788900
C251	C25	0.863600	0.218300	0.683700
C261	C26	0.824800	0.161500	0.649500
C271	C27	0.384400	0.632600	0.391300
C281	C28	0.313400	0.684400	0.379700
C291	C29	0.255800	0.662200	0.347700
C301	C30	0.190200	0.711200	0.337000
C311	C31	0.131400	0.687400	0.300900
C321	C32	0.182700	0.785800	0.358200
C331	C33	0.237200	0.810100	0.390100
C341	C34	0.227200	0.892200	0.413000
C351	C35	0.303600	0.758700	0.400800
C361	C36	0.321800	0.418700	0.424200
C371	C37	0.273000	0.380000	0.453900
C381	C38	0.306200	0.318800	0.480800
C391	C39	0.387900	0.305200	0.477000
C401	C40	0.435300	0.351400	0.448500
C411	C41	0.861600	0.613700	0.273600
C421	C42	0.807800	0.570900	0.300100
C431	C43	0.806000	0.588600	0.344900
C441	C44	0.858300	0.649300	0.360100
C451	C45	0.909200	0.687200	0.330000
C461	C46	0.861400	0.860500	0.274600
C471	C47	0.832400	0.928000	0.295900
C481	C48	0.883000	0.982600	0.313500
C491	C49	0.966200	0.971900	0.310500
C501	C50	0.993800	0.902900	0.288900
C511	C51	0.136400	0.781700	0.183700
C521	C52	0.175200	0.838500	0.149500
C531	C53	0.632600	0.615600	0.141300
C541	C54	0.684400	0.686600	0.129700
C551	C55	0.662200	0.744200	0.097700
C561	C56	0.711200	0.809800	0.087000
C571	C57	0.687400	0.868600	0.050900
C581	C58	0.785800	0.817300	0.108200
C591	C59	0.810100	0.762800	0.140100
C601	C60	0.892200	0.772800	0.163000
C611	C61	0.758700	0.696400	0.150800
C621	C62	0.418700	0.678200	0.174200
C631	C63	0.380000	0.727000	0.203900
C641	C64	0.318800	0.693800	0.230800
C651	C65	0.305200	0.612100	0.227000
C661	C66	0.351400	0.564700	0.198500
C671	C67	0.613700	0.138400	0.023600
C681	C68	0.570900	0.192200	0.050100
C691	C69	0.588600	0.194000	0.094900
C701	C70	0.649300	0.141700	0.110100
C711	C71	0.687200	0.090800	0.080000
C721	C72	0.860500	0.138600	0.024600
C731	C73	0.928000	0.167600	0.045900
C741	C74	0.982600	0.117000	0.063500
C751	C75	0.971900	0.033800	0.060500
C761	C76	0.902900	0.006200	0.038900
C771	C77	0.781700	0.863600	0.933700
C781	C78	0.838500	0.824800	0.899500
C791	C79	0.367400	0.384400	0.641300
C801	C80	0.315600	0.313400	0.629700
C811	C81	0.337800	0.255800	0.597700
C821	C82	0.288800	0.190200	0.587000
C831	C83	0.312600	0.131400	0.550900
C841	C84	0.214200	0.182700	0.608200
C851	C85	0.189900	0.237200	0.640100
C861	C86	0.107800	0.227200	0.663000
C871	C87	0.241300	0.303600	0.650800
C881	C88	0.581300	0.321800	0.674200
C891	C89	0.620000	0.273000	0.703900
C901	C90	0.681200	0.306200	0.730800
C911	C91	0.694800	0.387900	0.727000
C921	C92	0.648600	0.435300	0.698500
C931	C93	0.386300	0.861600	0.523600
C941	C94	0.429100	0.807800	0.550100
C951	C95	0.411400	0.806000	0.594900
C961	C96	0.350700	0.858300	0.610100
C971	C97	0.312800	0.909200	0.580000
C981	C98	0.139500	0.861400	0.524600
C991	C99	0.072000	0.832400	0.545900
C1001	C100	0.017400	0.883000	0.563500
C1011	C101	0.028100	0.966200	0.560500
C1021	C102	0.097100	0.993800	0.538900
C1031	C103	0.218300	0.136400	0.433700
C1041	C104	0.161500	0.175200	0.399500
C1051	C105	0.384400	0.367400	0.108700
C1061	C106	0.313400	0.315600	0.120300
C1071	C107	0.255800	0.337800	0.152300
C1081	C108	0.190200	0.288800	0.163000
C1091	C109	0.131400	0.312600	0.199100
C1101	C110	0.182700	0.214200	0.141800
C1111	C111	0.237200	0.189900	0.109900
C1121	C112	0.227200	0.107800	0.087000
C1131	C113	0.303600	0.241300	0.099200
C1141	C114	0.321800	0.581300	0.075800
C1151	C115	0.273000	0.620000	0.046100
C1161	C116	0.306200	0.681200	0.019200
C1171	C117	0.387900	0.694800	0.023000
C1181	C118	0.435300	0.648600	0.051500
C1191	C119	0.861600	0.386300	0.226400
C1201	C120	0.807800	0.429100	0.199900
C1211	C121	0.806000	0.411400	0.155100
C1221	C122	0.858300	0.350700	0.139900
C1231	C123	0.909200	0.312800	0.170000
C1241	C124	0.861400	0.139500	0.225400
C1251	C125	0.832400	0.072000	0.204100
C1261	C126	0.883000	0.017400	0.186500
C1271	C127	0.966200	0.028100	0.189500
C1281	C128	0.993800	0.097100	0.211100
C1291	C129	0.136400	0.218300	0.316300
C1301	C130	0.175200	0.161500	0.350500
C1311	C131	0.615600	0.632600	0.608700
C1321	C132	0.686600	0.684400	0.620300
C1331	C133	0.744200	0.662200	0.652300
C1341	C134	0.809800	0.711200	0.663000
C1351	C135	0.868600	0.687400	0.699100
C1361	C136	0.817300	0.785800	0.641800
C1371	C137	0.762800	0.810100	0.609900
C1381	C138	0.772800	0.892200	0.587000
C1391	C139	0.696400	0.758700	0.599200
C1401	C140	0.678200	0.418700	0.575800
C1411	C141	0.727000	0.380000	0.546100
C1421	C142	0.693800	0.318800	0.519200
C1431	C143	0.612100	0.305200	0.523000
C1441	C144	0.564700	0.351400	0.551500
C1451	C145	0.138400	0.613700	0.726400
C1461	C146	0.192200	0.570900	0.699900
C1471	C147	0.194000	0.588600	0.655100
C1481	C148	0.141700	0.649300	0.639900
C1491	C149	0.090800	0.687200	0.670000
C1501	C150	0.138600	0.860500	0.725400
C1511	C151	0.167600	0.928000	0.704100
C1521	C152	0.117000	0.982600	0.686500
C1531	C153	0.033800	0.971900	0.689500
C1541	C154	0.006200	0.902900	0.711100
C1551	C155	0.863600	0.781700	0.816300
C1561	C156	0.824800	0.838500	0.850500
C1571	C157	0.367400	0.615600	0.858700
C1581	C158	0.315600	0.686600	0.870300
C1591	C159	0.337800	0.744200	0.902300
C1601	C160	0.288800	0.809800	0.913000
C1611	C161	0.312600	0.868600	0.949100
C1621	C162	0.214200	0.817300	0.891800
C1631	C163	0.189900	0.762800	0.859900
C1641	C164	0.107800	0.772800	0.837000
C1651	C165	0.241300	0.696400	0.849200
C1661	C166	0.581300	0.678200	0.825800
C1671	C167	0.620000	0.727000	0.796100
C1681	C168	0.681200	0.693800	0.769200
C1691	C169	0.694800	0.612100	0.773000
C1701	C170	0.648600	0.564700	0.801500
C1711	C171	0.386300	0.138400	0.976400
C1721	C172	0.429100	0.192200	0.949900
C1731	C173	0.411400	0.194000	0.905100
C1741	C174	0.350700	0.141700	0.889900
C1751	C175	0.312800	0.090800	0.920000
C1761	C176	0.139500	0.138600	0.975400
C1771	C177	0.072000	0.167600	0.954100
C1781	C178	0.017400	0.117000	0.936500
C1791	C179	0.028100	0.033800	0.939500
C1801	C180	0.097100	0.006200	0.961100
C1811	C181	0.218300	0.863600	0.066300
C1821	C182	0.161500	0.824800	0.100500
C1831	C183	0.632600	0.384400	0.358700
C1841	C184	0.684400	0.313400	0.370300
C1851	C185	0.662200	0.255800	0.402300
C1861	C186	0.711200	0.190200	0.413000
C1871	C187	0.687400	0.131400	0.449100
C1881	C188	0.785800	0.182700	0.391800
C1891	C189	0.810100	0.237200	0.359900
C1901	C190	0.892200	0.227200	0.337000
C1911	C191	0.758700	0.303600	0.349200
C1921	C192	0.418700	0.321800	0.325800
C1931	C193	0.380000	0.273000	0.296100
C1941	C194	0.318800	0.306200	0.269200
C1951	C195	0.305200	0.387900	0.273000
C1961	C196	0.351400	0.435300	0.301500
C1971	C197	0.613700	0.861600	0.476400
C1981	C198	0.570900	0.807800	0.449900
C1991	C199	0.588600	0.806000	0.405100
C2001	C200	0.649300	0.858300	0.389900
C2011	C201	0.687200	0.909200	0.420000
C2021	C202	0.860500	0.861400	0.475400
C2031	C203	0.928000	0.832400	0.454100
C2041	C204	0.982600	0.883000	0.436500
C2051	C205	0.971900	0.966200	0.439500
C2061	C206	0.902900	0.993800	0.461100
C2071	C207	0.781700	0.136400	0.566300
C2081	C208	0.838500	0.175200	0.600500
N11	N1	0.596800	0.589100	0.922700
N21	N2	0.087300	0.329300	0.787300
N31	N3	0.055400	0.154100	0.770400
N41	N4	0.403200	0.410900	0.422700
N51	N5	0.912700	0.670700	0.287300
N61	N6	0.944600	0.845900	0.270400
N71	N7	0.410900	0.596800	0.172700
N81	N8	0.670700	0.087300	0.037300
N91	N9	0.845900	0.055400	0.020400
N101	N10	0.589100	0.403200	0.672700
N111	N11	0.329300	0.912700	0.537300
N121	N12	0.154100	0.944600	0.520400
N131	N13	0.403200	0.589100	0.077300
N141	N14	0.912700	0.329300	0.212700
N151	N15	0.944600	0.154100	0.229600
N161	N16	0.596800	0.410900	0.577300
N171	N17	0.087300	0.670700	0.712700
N181	N18	0.055400	0.845900	0.729600
N191	N19	0.589100	0.596800	0.827300
N201	N20	0.329300	0.087300	0.962700
N211	N21	0.154100	0.055400	0.979600
N221	N22	0.410900	0.403200	0.327300
N231	N23	0.670700	0.912700	0.462700
N241	N24	0.845900	0.944600	0.479600
O11	O1	0.612800	0.437500	0.871900
O21	O2	0.562500	0.340800	0.918200
O31	O3	0.862300	0.384800	0.783800
O41	O4	0.920800	0.260400	0.788600
O51	O5	0.731200	0.099400	0.948000
O61	O6	0.824000	0.059500	0.898600
O71	O7	0.937800	0.188900	0.701300
O81	O8	0.387200	0.562500	0.371900
O91	O9	0.437500	0.659200	0.418200
O101	O10	0.137700	0.615200	0.283800
O111	O11	0.079200	0.739600	0.288600
O121	O12	0.268800	0.900600	0.448000
O131	O13	0.176000	0.940500	0.398600
O141	O14	0.062200	0.811100	0.201300
O151	O15	0.562500	0.612800	0.121900
O161	O16	0.659200	0.562500	0.168200
O171	O17	0.615200	0.862300	0.033800
O181	O18	0.739600	0.920800	0.038600
O191	O19	0.900600	0.731200	0.198000
O201	O20	0.940500	0.824000	0.148600
O211	O21	0.811100	0.937800	0.951300
O221	O22	0.437500	0.387200	0.621900
O231	O23	0.340800	0.437500	0.668200
O241	O24	0.384800	0.137700	0.533800
O251	O25	0.260400	0.079200	0.538600
O261	O26	0.099400	0.268800	0.698000
O271	O27	0.059500	0.176000	0.648600
O281	O28	0.188900	0.062200	0.451300
O291	O29	0.387200	0.437500	0.128100
O301	O30	0.437500	0.340800	0.081800
O311	O31	0.137700	0.384800	0.216200
O321	O32	0.079200	0.260400	0.211400
O331	O33	0.268800	0.099400	0.052000
O341	O34	0.176000	0.059500	0.101400
O351	O35	0.062200	0.188900	0.298700
O361	O36	0.612800	0.562500	0.628100
O371	O37	0.562500	0.659200	0.581800
O381	O38	0.862300	0.615200	0.716200
O391	O39	0.920800	0.739600	0.711400
O401	O40	0.731200	0.900600	0.552000
O411	O41	0.824000	0.940500	0.601400
O421	O42	0.937800	0.811100	0.798700
O431	O43	0.437500	0.612800	0.878100
O441	O44	0.340800	0.562500	0.831800
O451	O45	0.384800	0.862300	0.966200
O461	O46	0.260400	0.920800	0.961400
O471	O47	0.099400	0.731200	0.802000
O481	O48	0.059500	0.824000	0.851400
O491	O49	0.188900	0.937800	0.048700
O501	O50	0.562500	0.387200	0.378100
O511	O51	0.659200	0.437500	0.331800
O521	O52	0.615200	0.137700	0.466200
O531	O53	0.739600	0.079200	0.461400
O541	O54	0.900600	0.268800	0.302000
O551	O55	0.940500	0.176000	0.351400
O561	O56	0.811100	0.062200	0.548700
