data_HUYJUG_clean_PM
_symmetry_space_group_name_H-M	'P1'
_cell_length_a	22.589200
_cell_length_b	22.589200
_cell_length_c	22.589200
_cell_angle_alpha	60.000000
_cell_angle_beta	60.000000
_cell_angle_gamma	60.000000
_symmetry_Int_Tables_number 1

loop_
_symmetry_equiv_pos_as_xyz
'x,y,z'

loop_
_atom_site_label
_atom_site_type_symbol
_atom_site_fract_x
_atom_site_fract_y
_atom_site_fract_z
Ni11	Ni1	0.125000	0.625000	0.396800
Ni21	Ni2	0.625000	0.125000	0.853200
Ni31	Ni3	0.396800	0.853200	0.125000
Ni41	Ni4	0.853200	0.396800	0.625000
Ni51	Ni5	0.125000	0.396800	0.853200
Ni61	Ni6	0.625000	0.853200	0.396800
Ni71	Ni7	0.396800	0.125000	0.625000
Ni81	Ni8	0.853200	0.625000	0.125000
Ni91	Ni9	0.125000	0.853200	0.625000
Ni101	Ni10	0.625000	0.396800	0.125000
Ni111	Ni11	0.396800	0.625000	0.853200
Ni121	Ni12	0.853200	0.125000	0.396800
H11	H1	0.349700	0.504700	0.311100
H21	H2	0.265900	0.646900	0.275700
H31	H3	0.309000	0.701000	0.153400
H41	H4	0.204000	0.808200	0.037000
H51	H5	0.278500	0.745100	0.033900
H61	H6	0.265200	0.813800	0.046200
H71	H7	0.111200	0.776600	0.146200
H81	H8	0.074100	0.718900	0.267700
H91	H9	0.504700	0.349700	0.834500
H101	H10	0.646900	0.265900	0.811500
H111	H11	0.701000	0.309000	0.836600
H121	H12	0.808200	0.204000	0.950800
H131	H13	0.745100	0.278500	0.942500
H141	H14	0.813800	0.265200	0.874800
H151	H15	0.776600	0.111200	0.966000
H161	H16	0.718900	0.074100	0.939300
H171	H17	0.311100	0.834500	0.349700
H181	H18	0.275700	0.811500	0.265900
H191	H19	0.153400	0.836600	0.309000
H201	H20	0.037000	0.950800	0.204000
H211	H21	0.033900	0.942500	0.278500
H221	H22	0.046200	0.874800	0.265200
H231	H23	0.146200	0.966000	0.111200
H241	H24	0.267700	0.939300	0.074100
H251	H25	0.834500	0.311100	0.504700
H261	H26	0.811500	0.275700	0.646900
H271	H27	0.836600	0.153400	0.701000
H281	H28	0.950800	0.037000	0.808200
H291	H29	0.942500	0.033900	0.745100
H301	H30	0.874800	0.046200	0.813800
H311	H31	0.966000	0.146200	0.776600
H321	H32	0.939300	0.267700	0.718900
H331	H33	0.349700	0.311100	0.834500
H341	H34	0.265900	0.275700	0.811500
H351	H35	0.309000	0.153400	0.836600
H361	H36	0.204000	0.037000	0.950800
H371	H37	0.278500	0.033900	0.942500
H381	H38	0.265200	0.046200	0.874800
H391	H39	0.111200	0.146200	0.966000
H401	H40	0.074100	0.267700	0.939300
H411	H41	0.504700	0.834500	0.311100
H421	H42	0.646900	0.811500	0.275700
H431	H43	0.701000	0.836600	0.153400
H441	H44	0.808200	0.950800	0.037000
H451	H45	0.745100	0.942500	0.033900
H461	H46	0.813800	0.874800	0.046200
H471	H47	0.776600	0.966000	0.146200
H481	H48	0.718900	0.939300	0.267700
H491	H49	0.311100	0.349700	0.504700
H501	H50	0.275700	0.265900	0.646900
H511	H51	0.153400	0.309000	0.701000
H521	H52	0.037000	0.204000	0.808200
H531	H53	0.033900	0.278500	0.745100
H541	H54	0.046200	0.265200	0.813800
H551	H55	0.146200	0.111200	0.776600
H561	H56	0.267700	0.074100	0.718900
H571	H57	0.834500	0.504700	0.349700
H581	H58	0.811500	0.646900	0.265900
H591	H59	0.836600	0.701000	0.309000
H601	H60	0.950800	0.808200	0.204000
H611	H61	0.942500	0.745100	0.278500
H621	H62	0.874800	0.813800	0.265200
H631	H63	0.966000	0.776600	0.111200
H641	H64	0.939300	0.718900	0.074100
H651	H65	0.349700	0.834500	0.504700
H661	H66	0.265900	0.811500	0.646900
H671	H67	0.309000	0.836600	0.701000
H681	H68	0.204000	0.950800	0.808200
H691	H69	0.278500	0.942500	0.745100
H701	H70	0.265200	0.874800	0.813800
H711	H71	0.111200	0.966000	0.776600
H721	H72	0.074100	0.939300	0.718900
H731	H73	0.504700	0.311100	0.349700
H741	H74	0.646900	0.275700	0.265900
H751	H75	0.701000	0.153400	0.309000
H761	H76	0.808200	0.037000	0.204000
H771	H77	0.745100	0.033900	0.278500
H781	H78	0.813800	0.046200	0.265200
H791	H79	0.776600	0.146200	0.111200
H801	H80	0.718900	0.267700	0.074100
H811	H81	0.311100	0.504700	0.834500
H821	H82	0.275700	0.646900	0.811500
H831	H83	0.153400	0.701000	0.836600
H841	H84	0.037000	0.808200	0.950800
H851	H85	0.033900	0.745100	0.942500
H861	H86	0.046200	0.813800	0.874800
H871	H87	0.146200	0.776600	0.966000
H881	H88	0.267700	0.718900	0.939300
H891	H89	0.834500	0.349700	0.311100
H901	H90	0.811500	0.265900	0.275700
H911	H91	0.836600	0.309000	0.153400
H921	H92	0.950800	0.204000	0.037000
H931	H93	0.942500	0.278500	0.033900
H941	H94	0.874800	0.265200	0.046200
H951	H95	0.966000	0.111200	0.146200
H961	H96	0.939300	0.074100	0.267700
H971	H97	0.745300	0.900300	0.938900
H981	H98	0.603100	0.984100	0.974300
H991	H99	0.549000	0.941000	0.096600
H1001	H100	0.441800	0.046000	0.213000
H1011	H101	0.504900	0.971500	0.216100
H1021	H102	0.436200	0.984800	0.203800
H1031	H103	0.473400	0.138800	0.103800
H1041	H104	0.531100	0.175900	0.982300
H1051	H105	0.900300	0.745300	0.415500
H1061	H106	0.984100	0.603100	0.438500
H1071	H107	0.941000	0.549000	0.413400
H1081	H108	0.046000	0.441800	0.299200
H1091	H109	0.971500	0.504900	0.307500
H1101	H110	0.984800	0.436200	0.375200
H1111	H111	0.138800	0.473400	0.284000
H1121	H112	0.175900	0.531100	0.310700
H1131	H113	0.415500	0.938900	0.900300
H1141	H114	0.438500	0.974300	0.984100
H1151	H115	0.413400	0.096600	0.941000
H1161	H116	0.299200	0.213000	0.046000
H1171	H117	0.307500	0.216100	0.971500
H1181	H118	0.375200	0.203800	0.984800
H1191	H119	0.284000	0.103800	0.138800
H1201	H120	0.310700	0.982300	0.175900
H1211	H121	0.938900	0.415500	0.745300
H1221	H122	0.974300	0.438500	0.603100
H1231	H123	0.096600	0.413400	0.549000
H1241	H124	0.213000	0.299200	0.441800
H1251	H125	0.216100	0.307500	0.504900
H1261	H126	0.203800	0.375200	0.436200
H1271	H127	0.103800	0.284000	0.473400
H1281	H128	0.982300	0.310700	0.531100
H1291	H129	0.938900	0.900300	0.415500
H1301	H130	0.974300	0.984100	0.438500
H1311	H131	0.096600	0.941000	0.413400
H1321	H132	0.213000	0.046000	0.299200
H1331	H133	0.216100	0.971500	0.307500
H1341	H134	0.203800	0.984800	0.375200
H1351	H135	0.103800	0.138800	0.284000
H1361	H136	0.982300	0.175900	0.310700
H1371	H137	0.415500	0.745300	0.938900
H1381	H138	0.438500	0.603100	0.974300
H1391	H139	0.413400	0.549000	0.096600
H1401	H140	0.299200	0.441800	0.213000
H1411	H141	0.307500	0.504900	0.216100
H1421	H142	0.375200	0.436200	0.203800
H1431	H143	0.284000	0.473400	0.103800
H1441	H144	0.310700	0.531100	0.982300
H1451	H145	0.900300	0.938900	0.745300
H1461	H146	0.984100	0.974300	0.603100
H1471	H147	0.941000	0.096600	0.549000
H1481	H148	0.046000	0.213000	0.441800
H1491	H149	0.971500	0.216100	0.504900
H1501	H150	0.984800	0.203800	0.436200
H1511	H151	0.138800	0.103800	0.473400
H1521	H152	0.175900	0.982300	0.531100
H1531	H153	0.745300	0.415500	0.900300
H1541	H154	0.603100	0.438500	0.984100
H1551	H155	0.549000	0.413400	0.941000
H1561	H156	0.441800	0.299200	0.046000
H1571	H157	0.504900	0.307500	0.971500
H1581	H158	0.436200	0.375200	0.984800
H1591	H159	0.473400	0.284000	0.138800
H1601	H160	0.531100	0.310700	0.175900
H1611	H161	0.415500	0.900300	0.745300
H1621	H162	0.438500	0.984100	0.603100
H1631	H163	0.413400	0.941000	0.549000
H1641	H164	0.299200	0.046000	0.441800
H1651	H165	0.307500	0.971500	0.504900
H1661	H166	0.375200	0.984800	0.436200
H1671	H167	0.284000	0.138800	0.473400
H1681	H168	0.310700	0.175900	0.531100
H1691	H169	0.938900	0.745300	0.900300
H1701	H170	0.974300	0.603100	0.984100
H1711	H171	0.096600	0.549000	0.941000
H1721	H172	0.213000	0.441800	0.046000
H1731	H173	0.216100	0.504900	0.971500
H1741	H174	0.203800	0.436200	0.984800
H1751	H175	0.103800	0.473400	0.138800
H1761	H176	0.982300	0.531100	0.175900
H1771	H177	0.745300	0.938900	0.415500
H1781	H178	0.603100	0.974300	0.438500
H1791	H179	0.549000	0.096600	0.413400
H1801	H180	0.441800	0.213000	0.299200
H1811	H181	0.504900	0.216100	0.307500
H1821	H182	0.436200	0.203800	0.375200
H1831	H183	0.473400	0.103800	0.284000
H1841	H184	0.531100	0.982300	0.310700
H1851	H185	0.900300	0.415500	0.938900
H1861	H186	0.984100	0.438500	0.974300
H1871	H187	0.941000	0.413400	0.096600
H1881	H188	0.046000	0.299200	0.213000
H1891	H189	0.971500	0.307500	0.216100
H1901	H190	0.984800	0.375200	0.203800
H1911	H191	0.138800	0.284000	0.103800
H1921	H192	0.175900	0.310700	0.982300
C11	C1	0.242800	0.485600	0.437200
C21	C2	0.318200	0.435200	0.411600
C31	C3	0.365100	0.457900	0.342100
C41	C4	0.233800	0.673200	0.249800
C51	C5	0.260100	0.705700	0.176500
C61	C6	0.214100	0.745500	0.137300
C71	C7	0.243200	0.781400	0.056200
C81	C8	0.144000	0.750400	0.171400
C91	C9	0.122700	0.715500	0.244500
C101	C10	0.485600	0.242800	0.834400
C111	C11	0.435200	0.318200	0.835000
C121	C12	0.457900	0.365100	0.834900
C131	C13	0.673200	0.233800	0.843200
C141	C14	0.705700	0.260100	0.857700
C151	C15	0.745500	0.214100	0.903100
C161	C16	0.781400	0.243200	0.919200
C171	C17	0.750400	0.144000	0.934200
C181	C18	0.715500	0.122700	0.917300
C191	C19	0.437200	0.834400	0.242800
C201	C20	0.411600	0.835000	0.318200
C211	C21	0.342100	0.834900	0.365100
C221	C22	0.249800	0.843200	0.233800
C231	C23	0.176500	0.857700	0.260100
C241	C24	0.137300	0.903100	0.214100
C251	C25	0.056200	0.919200	0.243200
C261	C26	0.171400	0.934200	0.144000
C271	C27	0.244500	0.917300	0.122700
C281	C28	0.834400	0.437200	0.485600
C291	C29	0.835000	0.411600	0.435200
C301	C30	0.834900	0.342100	0.457900
C311	C31	0.843200	0.249800	0.673200
C321	C32	0.857700	0.176500	0.705700
C331	C33	0.903100	0.137300	0.745500
C341	C34	0.919200	0.056200	0.781400
C351	C35	0.934200	0.171400	0.750400
C361	C36	0.917300	0.244500	0.715500
C371	C37	0.242800	0.437200	0.834400
C381	C38	0.318200	0.411600	0.835000
C391	C39	0.365100	0.342100	0.834900
C401	C40	0.233800	0.249800	0.843200
C411	C41	0.260100	0.176500	0.857700
C421	C42	0.214100	0.137300	0.903100
C431	C43	0.243200	0.056200	0.919200
C441	C44	0.144000	0.171400	0.934200
C451	C45	0.122700	0.244500	0.917300
C461	C46	0.485600	0.834400	0.437200
C471	C47	0.435200	0.835000	0.411600
C481	C48	0.457900	0.834900	0.342100
C491	C49	0.673200	0.843200	0.249800
C501	C50	0.705700	0.857700	0.176500
C511	C51	0.745500	0.903100	0.137300
C521	C52	0.781400	0.919200	0.056200
C531	C53	0.750400	0.934200	0.171400
C541	C54	0.715500	0.917300	0.244500
C551	C55	0.437200	0.242800	0.485600
C561	C56	0.411600	0.318200	0.435200
C571	C57	0.342100	0.365100	0.457900
C581	C58	0.249800	0.233800	0.673200
C591	C59	0.176500	0.260100	0.705700
C601	C60	0.137300	0.214100	0.745500
C611	C61	0.056200	0.243200	0.781400
C621	C62	0.171400	0.144000	0.750400
C631	C63	0.244500	0.122700	0.715500
C641	C64	0.834400	0.485600	0.242800
C651	C65	0.835000	0.435200	0.318200
C661	C66	0.834900	0.457900	0.365100
C671	C67	0.843200	0.673200	0.233800
C681	C68	0.857700	0.705700	0.260100
C691	C69	0.903100	0.745500	0.214100
C701	C70	0.919200	0.781400	0.243200
C711	C71	0.934200	0.750400	0.144000
C721	C72	0.917300	0.715500	0.122700
C731	C73	0.242800	0.834400	0.485600
C741	C74	0.318200	0.835000	0.435200
C751	C75	0.365100	0.834900	0.457900
C761	C76	0.233800	0.843200	0.673200
C771	C77	0.260100	0.857700	0.705700
C781	C78	0.214100	0.903100	0.745500
C791	C79	0.243200	0.919200	0.781400
C801	C80	0.144000	0.934200	0.750400
C811	C81	0.122700	0.917300	0.715500
C821	C82	0.485600	0.437200	0.242800
C831	C83	0.435200	0.411600	0.318200
C841	C84	0.457900	0.342100	0.365100
C851	C85	0.673200	0.249800	0.233800
C861	C86	0.705700	0.176500	0.260100
C871	C87	0.745500	0.137300	0.214100
C881	C88	0.781400	0.056200	0.243200
C891	C89	0.750400	0.171400	0.144000
C901	C90	0.715500	0.244500	0.122700
C911	C91	0.437200	0.485600	0.834400
C921	C92	0.411600	0.435200	0.835000
C931	C93	0.342100	0.457900	0.834900
C941	C94	0.249800	0.673200	0.843200
C951	C95	0.176500	0.705700	0.857700
C961	C96	0.137300	0.745500	0.903100
C971	C97	0.056200	0.781400	0.919200
C981	C98	0.171400	0.750400	0.934200
C991	C99	0.244500	0.715500	0.917300
C1001	C100	0.834400	0.242800	0.437200
C1011	C101	0.835000	0.318200	0.411600
C1021	C102	0.834900	0.365100	0.342100
C1031	C103	0.843200	0.233800	0.249800
C1041	C104	0.857700	0.260100	0.176500
C1051	C105	0.903100	0.214100	0.137300
C1061	C106	0.919200	0.243200	0.056200
C1071	C107	0.934200	0.144000	0.171400
C1081	C108	0.917300	0.122700	0.244500
C1091	C109	0.764400	0.007200	0.812800
C1101	C110	0.814800	0.931800	0.838400
C1111	C111	0.792100	0.884900	0.907900
C1121	C112	0.576800	0.016200	0.000200
C1131	C113	0.544300	0.989900	0.073500
C1141	C114	0.504500	0.035900	0.112700
C1151	C115	0.468600	0.006800	0.193800
C1161	C116	0.499600	0.106000	0.078600
C1171	C117	0.534500	0.127300	0.005500
C1181	C118	0.007200	0.764400	0.415600
C1191	C119	0.931800	0.814800	0.415000
C1201	C120	0.884900	0.792100	0.415100
C1211	C121	0.016200	0.576800	0.406800
C1221	C122	0.989900	0.544300	0.392300
C1231	C123	0.035900	0.504500	0.346900
C1241	C124	0.006800	0.468600	0.330800
C1251	C125	0.106000	0.499600	0.315800
C1261	C126	0.127300	0.534500	0.332700
C1271	C127	0.415600	0.812800	0.007200
C1281	C128	0.415000	0.838400	0.931800
C1291	C129	0.415100	0.907900	0.884900
C1301	C130	0.406800	0.000200	0.016200
C1311	C131	0.392300	0.073500	0.989900
C1321	C132	0.346900	0.112700	0.035900
C1331	C133	0.330800	0.193800	0.006800
C1341	C134	0.315800	0.078600	0.106000
C1351	C135	0.332700	0.005500	0.127300
C1361	C136	0.812800	0.415600	0.764400
C1371	C137	0.838400	0.415000	0.814800
C1381	C138	0.907900	0.415100	0.792100
C1391	C139	0.000200	0.406800	0.576800
C1401	C140	0.073500	0.392300	0.544300
C1411	C141	0.112700	0.346900	0.504500
C1421	C142	0.193800	0.330800	0.468600
C1431	C143	0.078600	0.315800	0.499600
C1441	C144	0.005500	0.332700	0.534500
C1451	C145	0.812800	0.007200	0.415600
C1461	C146	0.838400	0.931800	0.415000
C1471	C147	0.907900	0.884900	0.415100
C1481	C148	0.000200	0.016200	0.406800
C1491	C149	0.073500	0.989900	0.392300
C1501	C150	0.112700	0.035900	0.346900
C1511	C151	0.193800	0.006800	0.330800
C1521	C152	0.078600	0.106000	0.315800
C1531	C153	0.005500	0.127300	0.332700
C1541	C154	0.415600	0.764400	0.812800
C1551	C155	0.415000	0.814800	0.838400
C1561	C156	0.415100	0.792100	0.907900
C1571	C157	0.406800	0.576800	0.000200
C1581	C158	0.392300	0.544300	0.073500
C1591	C159	0.346900	0.504500	0.112700
C1601	C160	0.330800	0.468600	0.193800
C1611	C161	0.315800	0.499600	0.078600
C1621	C162	0.332700	0.534500	0.005500
C1631	C163	0.007200	0.812800	0.764400
C1641	C164	0.931800	0.838400	0.814800
C1651	C165	0.884900	0.907900	0.792100
C1661	C166	0.016200	0.000200	0.576800
C1671	C167	0.989900	0.073500	0.544300
C1681	C168	0.035900	0.112700	0.504500
C1691	C169	0.006800	0.193800	0.468600
C1701	C170	0.106000	0.078600	0.499600
C1711	C171	0.127300	0.005500	0.534500
C1721	C172	0.764400	0.415600	0.007200
C1731	C173	0.814800	0.415000	0.931800
C1741	C174	0.792100	0.415100	0.884900
C1751	C175	0.576800	0.406800	0.016200
C1761	C176	0.544300	0.392300	0.989900
C1771	C177	0.504500	0.346900	0.035900
C1781	C178	0.468600	0.330800	0.006800
C1791	C179	0.499600	0.315800	0.106000
C1801	C180	0.534500	0.332700	0.127300
C1811	C181	0.415600	0.007200	0.764400
C1821	C182	0.415000	0.931800	0.814800
C1831	C183	0.415100	0.884900	0.792100
C1841	C184	0.406800	0.016200	0.576800
C1851	C185	0.392300	0.989900	0.544300
C1861	C186	0.346900	0.035900	0.504500
C1871	C187	0.330800	0.006800	0.468600
C1881	C188	0.315800	0.106000	0.499600
C1891	C189	0.332700	0.127300	0.534500
C1901	C190	0.812800	0.764400	0.007200
C1911	C191	0.838400	0.814800	0.931800
C1921	C192	0.907900	0.792100	0.884900
C1931	C193	0.000200	0.576800	0.016200
C1941	C194	0.073500	0.544300	0.989900
C1951	C195	0.112700	0.504500	0.035900
C1961	C196	0.193800	0.468600	0.006800
C1971	C197	0.078600	0.499600	0.106000
C1981	C198	0.005500	0.534500	0.127300
C1991	C199	0.764400	0.812800	0.415600
C2001	C200	0.814800	0.838400	0.415000
C2011	C201	0.792100	0.907900	0.415100
C2021	C202	0.576800	0.000200	0.406800
C2031	C203	0.544300	0.073500	0.392300
C2041	C204	0.504500	0.112700	0.346900
C2051	C205	0.468600	0.193800	0.330800
C2061	C206	0.499600	0.078600	0.315800
C2071	C207	0.534500	0.005500	0.332700
C2081	C208	0.007200	0.415600	0.812800
C2091	C209	0.931800	0.415000	0.838400
C2101	C210	0.884900	0.415100	0.907900
C2111	C211	0.016200	0.406800	0.000200
C2121	C212	0.989900	0.392300	0.073500
C2131	C213	0.035900	0.346900	0.112700
C2141	C214	0.006800	0.330800	0.193800
C2151	C215	0.106000	0.315800	0.078600
C2161	C216	0.127300	0.332700	0.005500
N11	N1	0.163900	0.677300	0.286100
N21	N2	0.677300	0.163900	0.872700
N31	N3	0.286100	0.872700	0.163900
N41	N4	0.872700	0.286100	0.677300
N51	N5	0.163900	0.286100	0.872700
N61	N6	0.677300	0.872700	0.286100
N71	N7	0.286100	0.163900	0.677300
N81	N8	0.872700	0.677300	0.163900
N91	N9	0.163900	0.872700	0.677300
N101	N10	0.677300	0.286100	0.163900
N111	N11	0.286100	0.677300	0.872700
N121	N12	0.872700	0.163900	0.286100
N131	N13	0.572700	0.086100	0.963900
N141	N14	0.086100	0.572700	0.377300
N151	N15	0.377300	0.963900	0.086100
N161	N16	0.963900	0.377300	0.572700
N171	N17	0.963900	0.086100	0.377300
N181	N18	0.377300	0.572700	0.963900
N191	N19	0.086100	0.963900	0.572700
N201	N20	0.572700	0.377300	0.086100
N211	N21	0.377300	0.086100	0.572700
N221	N22	0.963900	0.572700	0.086100
N231	N23	0.572700	0.963900	0.377300
N241	N24	0.086100	0.377300	0.963900
O11	O1	0.221900	0.543700	0.388700
O21	O2	0.205900	0.467500	0.502500
O31	O3	0.543700	0.221900	0.845700
O41	O4	0.467500	0.205900	0.824100
O51	O5	0.388700	0.845700	0.221900
O61	O6	0.502500	0.824100	0.205900
O71	O7	0.845700	0.388700	0.543700
O81	O8	0.824100	0.502500	0.467500
O91	O9	0.221900	0.388700	0.845700
O101	O10	0.205900	0.502500	0.824100
O111	O11	0.543700	0.845700	0.388700
O121	O12	0.467500	0.824100	0.502500
O131	O13	0.388700	0.221900	0.543700
O141	O14	0.502500	0.205900	0.467500
O151	O15	0.845700	0.543700	0.221900
O161	O16	0.824100	0.467500	0.205900
O171	O17	0.221900	0.845700	0.543700
O181	O18	0.205900	0.824100	0.467500
O191	O19	0.543700	0.388700	0.221900
O201	O20	0.467500	0.502500	0.205900
O211	O21	0.388700	0.543700	0.845700
O221	O22	0.502500	0.467500	0.824100
O231	O23	0.845700	0.221900	0.388700
O241	O24	0.824100	0.205900	0.502500
O251	O25	0.706300	0.028100	0.861300
O261	O26	0.782500	0.044100	0.747500
O271	O27	0.028100	0.706300	0.404300
O281	O28	0.044100	0.782500	0.425900
O291	O29	0.404300	0.861300	0.028100
O301	O30	0.425900	0.747500	0.044100
O311	O31	0.861300	0.404300	0.706300
O321	O32	0.747500	0.425900	0.782500
O331	O33	0.861300	0.028100	0.404300
O341	O34	0.747500	0.044100	0.425900
O351	O35	0.404300	0.706300	0.861300
O361	O36	0.425900	0.782500	0.747500
O371	O37	0.028100	0.861300	0.706300
O381	O38	0.044100	0.747500	0.782500
O391	O39	0.706300	0.404300	0.028100
O401	O40	0.782500	0.425900	0.044100
O411	O41	0.404300	0.028100	0.706300
O421	O42	0.425900	0.044100	0.782500
O431	O43	0.861300	0.706300	0.028100
O441	O44	0.747500	0.782500	0.044100
O451	O45	0.706300	0.861300	0.404300
O461	O46	0.782500	0.747500	0.425900
O471	O47	0.028100	0.404300	0.861300
O481	O48	0.044100	0.425900	0.747500
