data_HUYKOB_clean_PM
_symmetry_space_group_name_H-M	'P1'
_cell_length_a	28.803700
_cell_length_b	28.803700
_cell_length_c	28.803700
_cell_angle_alpha	90.000000
_cell_angle_beta	90.000000
_cell_angle_gamma	90.000000
_symmetry_Int_Tables_number 1

loop_
_symmetry_equiv_pos_as_xyz
'x,y,z'

loop_
_atom_site_label
_atom_site_type_symbol
_atom_site_fract_x
_atom_site_fract_y
_atom_site_fract_z
C11	C1	0.965000	0.573500	0.901500
C21	C2	0.006200	0.558900	0.929500
C31	C3	0.019600	0.583900	0.967800
H11	H1	0.002600	0.609800	0.976700
C41	C4	0.839300	0.583400	0.847200
H21	H2	0.816900	0.604100	0.832000
C51	C5	0.834900	0.535400	0.825100
C61	C6	0.838900	0.532000	0.771700
C71	C7	0.877000	0.532000	0.735200
C81	C8	0.924500	0.694000	0.966300
H31	H3	0.921100	0.662900	0.974300
C91	C9	0.934200	0.726400	0.003000
H41	H4	0.936100	0.717100	0.033800
C101	C10	0.940400	0.770500	0.990500
H51	H5	0.948000	0.792400	0.012900
C111	C11	0.936000	0.783200	0.947900
H61	H6	0.939400	0.814400	0.940100
C121	C12	0.925600	0.748800	0.911300
H71	H7	0.923000	0.758300	0.880600
N11	N1	0.920100	0.705300	0.921700
O11	O1	0.948360	0.612400	0.911440
O21	O2	0.949510	0.547100	0.869900
O31	O3	0.883500	0.597210	0.834400
H81	H8	0.902600	0.579800	0.846300
C131	C13	0.535000	0.426500	0.401500
C141	C14	0.493800	0.441100	0.429500
C151	C15	0.480400	0.416100	0.467800
H91	H9	0.497400	0.390200	0.476700
C161	C16	0.660700	0.416600	0.347200
H101	H10	0.683100	0.395900	0.332000
C171	C17	0.665100	0.464600	0.325100
C181	C18	0.661100	0.468000	0.271700
C191	C19	0.623000	0.468000	0.235200
C201	C20	0.575500	0.306000	0.466300
H111	H11	0.578900	0.337100	0.474300
C211	C21	0.565800	0.273600	0.503000
H121	H12	0.563900	0.282900	0.533800
C221	C22	0.559600	0.229500	0.490500
H131	H13	0.552000	0.207600	0.512900
C231	C23	0.564000	0.216800	0.447900
H141	H14	0.560600	0.185600	0.440100
C241	C24	0.574400	0.251200	0.411300
H151	H15	0.577000	0.241700	0.380600
N21	N2	0.579900	0.294700	0.421700
O41	O4	0.551640	0.387600	0.411440
O51	O5	0.550490	0.452900	0.369900
O61	O6	0.616500	0.402790	0.334400
H161	H16	0.597400	0.420200	0.346300
C251	C25	0.035000	0.073500	0.598500
C261	C26	0.993800	0.058900	0.570500
C271	C27	0.980400	0.083900	0.532200
H171	H17	0.997400	0.109800	0.523300
C281	C28	0.160700	0.083400	0.652800
H181	H18	0.183100	0.104100	0.668000
C291	C29	0.165100	0.035400	0.674900
C301	C30	0.161100	0.032000	0.728300
C311	C31	0.123000	0.032000	0.764800
C321	C32	0.075500	0.194000	0.533700
H191	H19	0.078900	0.162900	0.525700
C331	C33	0.065800	0.226400	0.497000
H201	H20	0.063900	0.217100	0.466200
C341	C34	0.059600	0.270500	0.509500
H211	H21	0.052000	0.292400	0.487100
C351	C35	0.064000	0.283200	0.552100
H221	H22	0.060600	0.314400	0.559900
C361	C36	0.074400	0.248800	0.588700
H231	H23	0.077000	0.258300	0.619400
N31	N3	0.079900	0.205300	0.578300
O71	O7	0.051640	0.112400	0.588560
O81	O8	0.050490	0.047100	0.630100
O91	O9	0.116500	0.097210	0.665600
H241	H24	0.097400	0.079800	0.653700
C371	C37	0.465000	0.926500	0.098500
C381	C38	0.506200	0.941100	0.070500
C391	C39	0.519600	0.916100	0.032200
H251	H25	0.502600	0.890200	0.023300
C401	C40	0.339300	0.916600	0.152800
H261	H26	0.316900	0.895900	0.168000
C411	C41	0.334900	0.964600	0.174900
C421	C42	0.338900	0.968000	0.228300
C431	C43	0.377000	0.968000	0.264800
C441	C44	0.424500	0.806000	0.033700
H271	H27	0.421100	0.837100	0.025700
C451	C45	0.434200	0.773600	0.997000
H281	H28	0.436100	0.782900	0.966200
C461	C46	0.440400	0.729500	0.009500
H291	H29	0.448000	0.707600	0.987100
C471	C47	0.436000	0.716800	0.052100
H301	H30	0.439400	0.685600	0.059900
C481	C48	0.425600	0.751200	0.088700
H311	H31	0.423000	0.741700	0.119400
N41	N4	0.420100	0.794700	0.078300
O101	O10	0.448360	0.887600	0.088560
O111	O11	0.449510	0.952900	0.130100
O121	O12	0.383500	0.902790	0.165600
H321	H32	0.402600	0.920200	0.153700
C491	C49	0.901500	0.965000	0.573500
C501	C50	0.929500	0.006200	0.558900
C511	C51	0.967800	0.019600	0.583900
H331	H33	0.976700	0.002600	0.609800
C521	C52	0.847200	0.839300	0.583400
H341	H34	0.832000	0.816900	0.604100
C531	C53	0.825100	0.834900	0.535400
C541	C54	0.771700	0.838900	0.532000
C551	C55	0.735200	0.877000	0.532000
C561	C56	0.966300	0.924500	0.694000
H351	H35	0.974300	0.921100	0.662900
C571	C57	0.003000	0.934200	0.726400
H361	H36	0.033800	0.936100	0.717100
C581	C58	0.990500	0.940400	0.770500
H371	H37	0.012900	0.948000	0.792400
C591	C59	0.947900	0.936000	0.783200
H381	H38	0.940100	0.939400	0.814400
C601	C60	0.911300	0.925600	0.748800
H391	H39	0.880600	0.923000	0.758300
N51	N5	0.921700	0.920100	0.705300
O131	O13	0.911440	0.948360	0.612400
O141	O14	0.869900	0.949510	0.547100
O151	O15	0.834400	0.883500	0.597210
H401	H40	0.846300	0.902600	0.579800
C611	C61	0.401500	0.535000	0.426500
C621	C62	0.429500	0.493800	0.441100
C631	C63	0.467800	0.480400	0.416100
H411	H41	0.476700	0.497400	0.390200
C641	C64	0.347200	0.660700	0.416600
H421	H42	0.332000	0.683100	0.395900
C651	C65	0.325100	0.665100	0.464600
C661	C66	0.271700	0.661100	0.468000
C671	C67	0.235200	0.623000	0.468000
C681	C68	0.466300	0.575500	0.306000
H431	H43	0.474300	0.578900	0.337100
C691	C69	0.503000	0.565800	0.273600
H441	H44	0.533800	0.563900	0.282900
C701	C70	0.490500	0.559600	0.229500
H451	H45	0.512900	0.552000	0.207600
C711	C71	0.447900	0.564000	0.216800
H461	H46	0.440100	0.560600	0.185600
C721	C72	0.411300	0.574400	0.251200
H471	H47	0.380600	0.577000	0.241700
N61	N6	0.421700	0.579900	0.294700
O161	O16	0.411440	0.551640	0.387600
O171	O17	0.369900	0.550490	0.452900
O181	O18	0.334400	0.616500	0.402790
H481	H48	0.346300	0.597400	0.420200
C731	C73	0.598500	0.035000	0.073500
C741	C74	0.570500	0.993800	0.058900
C751	C75	0.532200	0.980400	0.083900
H491	H49	0.523300	0.997400	0.109800
C761	C76	0.652800	0.160700	0.083400
H501	H50	0.668000	0.183100	0.104100
C771	C77	0.674900	0.165100	0.035400
C781	C78	0.728300	0.161100	0.032000
C791	C79	0.764800	0.123000	0.032000
C801	C80	0.533700	0.075500	0.194000
H511	H51	0.525700	0.078900	0.162900
C811	C81	0.497000	0.065800	0.226400
H521	H52	0.466200	0.063900	0.217100
C821	C82	0.509500	0.059600	0.270500
H531	H53	0.487100	0.052000	0.292400
C831	C83	0.552100	0.064000	0.283200
H541	H54	0.559900	0.060600	0.314400
C841	C84	0.588700	0.074400	0.248800
H551	H55	0.619400	0.077000	0.258300
N71	N7	0.578300	0.079900	0.205300
O191	O19	0.588560	0.051640	0.112400
O201	O20	0.630100	0.050490	0.047100
O211	O21	0.665600	0.116500	0.097210
H561	H56	0.653700	0.097400	0.079800
C851	C85	0.098500	0.465000	0.926500
C861	C86	0.070500	0.506200	0.941100
C871	C87	0.032200	0.519600	0.916100
H571	H57	0.023300	0.502600	0.890200
C881	C88	0.152800	0.339300	0.916600
H581	H58	0.168000	0.316900	0.895900
C891	C89	0.174900	0.334900	0.964600
C901	C90	0.228300	0.338900	0.968000
C911	C91	0.264800	0.377000	0.968000
C921	C92	0.033700	0.424500	0.806000
H591	H59	0.025700	0.421100	0.837100
C931	C93	0.997000	0.434200	0.773600
H601	H60	0.966200	0.436100	0.782900
C941	C94	0.009500	0.440400	0.729500
H611	H61	0.987100	0.448000	0.707600
C951	C95	0.052100	0.436000	0.716800
H621	H62	0.059900	0.439400	0.685600
C961	C96	0.088700	0.425600	0.751200
H631	H63	0.119400	0.423000	0.741700
N81	N8	0.078300	0.420100	0.794700
O221	O22	0.088560	0.448360	0.887600
O231	O23	0.130100	0.449510	0.952900
O241	O24	0.165600	0.383500	0.902790
H641	H64	0.153700	0.402600	0.920200
C971	C97	0.573500	0.901500	0.965000
C981	C98	0.558900	0.929500	0.006200
C991	C99	0.583900	0.967800	0.019600
H651	H65	0.609800	0.976700	0.002600
C1001	C100	0.583400	0.847200	0.839300
H661	H66	0.604100	0.832000	0.816900
C1011	C101	0.535400	0.825100	0.834900
C1021	C102	0.532000	0.771700	0.838900
C1031	C103	0.532000	0.735200	0.877000
C1041	C104	0.694000	0.966300	0.924500
H671	H67	0.662900	0.974300	0.921100
C1051	C105	0.726400	0.003000	0.934200
H681	H68	0.717100	0.033800	0.936100
C1061	C106	0.770500	0.990500	0.940400
H691	H69	0.792400	0.012900	0.948000
C1071	C107	0.783200	0.947900	0.936000
H701	H70	0.814400	0.940100	0.939400
C1081	C108	0.748800	0.911300	0.925600
H711	H71	0.758300	0.880600	0.923000
N91	N9	0.705300	0.921700	0.920100
O251	O25	0.612400	0.911440	0.948360
O261	O26	0.547100	0.869900	0.949510
O271	O27	0.597210	0.834400	0.883500
H721	H72	0.579800	0.846300	0.902600
C1091	C109	0.426500	0.401500	0.535000
C1101	C110	0.441100	0.429500	0.493800
C1111	C111	0.416100	0.467800	0.480400
H731	H73	0.390200	0.476700	0.497400
C1121	C112	0.416600	0.347200	0.660700
H741	H74	0.395900	0.332000	0.683100
C1131	C113	0.464600	0.325100	0.665100
C1141	C114	0.468000	0.271700	0.661100
C1151	C115	0.468000	0.235200	0.623000
C1161	C116	0.306000	0.466300	0.575500
H751	H75	0.337100	0.474300	0.578900
C1171	C117	0.273600	0.503000	0.565800
H761	H76	0.282900	0.533800	0.563900
C1181	C118	0.229500	0.490500	0.559600
H771	H77	0.207600	0.512900	0.552000
C1191	C119	0.216800	0.447900	0.564000
H781	H78	0.185600	0.440100	0.560600
C1201	C120	0.251200	0.411300	0.574400
H791	H79	0.241700	0.380600	0.577000
N101	N10	0.294700	0.421700	0.579900
O281	O28	0.387600	0.411440	0.551640
O291	O29	0.452900	0.369900	0.550490
O301	O30	0.402790	0.334400	0.616500
H801	H80	0.420200	0.346300	0.597400
C1211	C121	0.073500	0.598500	0.035000
C1221	C122	0.058900	0.570500	0.993800
C1231	C123	0.083900	0.532200	0.980400
H811	H81	0.109800	0.523300	0.997400
C1241	C124	0.083400	0.652800	0.160700
H821	H82	0.104100	0.668000	0.183100
C1251	C125	0.035400	0.674900	0.165100
C1261	C126	0.032000	0.728300	0.161100
C1271	C127	0.032000	0.764800	0.123000
C1281	C128	0.194000	0.533700	0.075500
H831	H83	0.162900	0.525700	0.078900
C1291	C129	0.226400	0.497000	0.065800
H841	H84	0.217100	0.466200	0.063900
C1301	C130	0.270500	0.509500	0.059600
H851	H85	0.292400	0.487100	0.052000
C1311	C131	0.283200	0.552100	0.064000
H861	H86	0.314400	0.559900	0.060600
C1321	C132	0.248800	0.588700	0.074400
H871	H87	0.258300	0.619400	0.077000
N111	N11	0.205300	0.578300	0.079900
O311	O31	0.112400	0.588560	0.051640
O321	O32	0.047100	0.630100	0.050490
O331	O33	0.097210	0.665600	0.116500
H881	H88	0.079800	0.653700	0.097400
C1331	C133	0.926500	0.098500	0.465000
C1341	C134	0.941100	0.070500	0.506200
C1351	C135	0.916100	0.032200	0.519600
H891	H89	0.890200	0.023300	0.502600
C1361	C136	0.916600	0.152800	0.339300
H901	H90	0.895900	0.168000	0.316900
C1371	C137	0.964600	0.174900	0.334900
C1381	C138	0.968000	0.228300	0.338900
C1391	C139	0.968000	0.264800	0.377000
C1401	C140	0.806000	0.033700	0.424500
H911	H91	0.837100	0.025700	0.421100
C1411	C141	0.773600	0.997000	0.434200
H921	H92	0.782900	0.966200	0.436100
C1421	C142	0.729500	0.009500	0.440400
H931	H93	0.707600	0.987100	0.448000
C1431	C143	0.716800	0.052100	0.436000
H941	H94	0.685600	0.059900	0.439400
C1441	C144	0.751200	0.088700	0.425600
H951	H95	0.741700	0.119400	0.423000
N121	N12	0.794700	0.078300	0.420100
O341	O34	0.887600	0.088560	0.448360
O351	O35	0.952900	0.130100	0.449510
O361	O36	0.902790	0.165600	0.383500
H961	H96	0.920200	0.153700	0.402600
C1451	C145	0.823500	0.715000	0.848500
C1461	C146	0.808900	0.756200	0.820500
C1471	C147	0.833900	0.769600	0.782200
H971	H97	0.859800	0.752600	0.773300
C1481	C148	0.833400	0.589300	0.902800
H981	H98	0.854100	0.566900	0.918000
C1491	C149	0.785400	0.584900	0.924900
C1501	C150	0.782000	0.588900	0.978300
C1511	C151	0.782000	0.627000	0.014800
C1521	C152	0.944000	0.674500	0.783700
H991	H99	0.912900	0.671100	0.775700
C1531	C153	0.976400	0.684200	0.747000
H1001	H100	0.967100	0.686100	0.716200
C1541	C154	0.020500	0.690400	0.759500
H1011	H101	0.042400	0.698000	0.737100
C1551	C155	0.033200	0.686000	0.802100
H1021	H102	0.064400	0.689400	0.809900
C1561	C156	0.998800	0.675600	0.838700
H1031	H103	0.008300	0.673000	0.869400
N131	N13	0.955300	0.670100	0.828300
O371	O37	0.862400	0.698360	0.838560
O381	O38	0.797100	0.699510	0.880100
O391	O39	0.847210	0.633500	0.915600
H1041	H104	0.829800	0.652600	0.903700
C1571	C157	0.676500	0.285000	0.348500
C1581	C158	0.691100	0.243800	0.320500
C1591	C159	0.666100	0.230400	0.282200
H1051	H105	0.640200	0.247400	0.273300
C1601	C160	0.666600	0.410700	0.402800
H1061	H106	0.645900	0.433100	0.418000
C1611	C161	0.714600	0.415100	0.424900
C1621	C162	0.718000	0.411100	0.478300
C1631	C163	0.718000	0.373000	0.514800
C1641	C164	0.556000	0.325500	0.283700
H1071	H107	0.587100	0.328900	0.275700
C1651	C165	0.523600	0.315800	0.247000
H1081	H108	0.532900	0.313900	0.216200
C1661	C166	0.479500	0.309600	0.259500
H1091	H109	0.457600	0.302000	0.237100
C1671	C167	0.466800	0.314000	0.302100
H1101	H110	0.435600	0.310600	0.309900
C1681	C168	0.501200	0.324400	0.338700
H1111	H111	0.491700	0.327000	0.369400
N141	N14	0.544700	0.329900	0.328300
O401	O40	0.637600	0.301640	0.338560
O411	O41	0.702900	0.300490	0.380100
O421	O42	0.652790	0.366500	0.415600
H1121	H112	0.670200	0.347400	0.403700
C1691	C169	0.323500	0.785000	0.151500
C1701	C170	0.308900	0.743800	0.179500
C1711	C171	0.333900	0.730400	0.217800
H1131	H113	0.359800	0.747400	0.226700
C1721	C172	0.333400	0.910700	0.097200
H1141	H114	0.354100	0.933100	0.082000
C1731	C173	0.285400	0.915100	0.075100
C1741	C174	0.282000	0.911100	0.021700
C1751	C175	0.282000	0.873000	0.985200
C1761	C176	0.444000	0.825500	0.216300
H1151	H115	0.412900	0.828900	0.224300
C1771	C177	0.476400	0.815800	0.253000
H1161	H116	0.467100	0.813900	0.283800
C1781	C178	0.520500	0.809600	0.240500
H1171	H117	0.542400	0.802000	0.262900
C1791	C179	0.533200	0.814000	0.197900
H1181	H118	0.564400	0.810600	0.190100
C1801	C180	0.498800	0.824400	0.161300
H1191	H119	0.508300	0.827000	0.130600
N151	N15	0.455300	0.829900	0.171700
O431	O43	0.362400	0.801640	0.161440
O441	O44	0.297100	0.800490	0.119900
O451	O45	0.347210	0.866500	0.084400
H1201	H120	0.329800	0.847400	0.096300
C1811	C181	0.176500	0.215000	0.651500
C1821	C182	0.191100	0.256200	0.679500
C1831	C183	0.166100	0.269600	0.717800
H1211	H121	0.140200	0.252600	0.726700
C1841	C184	0.166600	0.089300	0.597200
H1221	H122	0.145900	0.066900	0.582000
C1851	C185	0.214600	0.084900	0.575100
C1861	C186	0.218000	0.088900	0.521700
C1871	C187	0.218000	0.127000	0.485200
C1881	C188	0.056000	0.174500	0.716300
H1231	H123	0.087100	0.171100	0.724300
C1891	C189	0.023600	0.184200	0.753000
H1241	H124	0.032900	0.186100	0.783800
C1901	C190	0.979500	0.190400	0.740500
H1251	H125	0.957600	0.198000	0.762900
C1911	C191	0.966800	0.186000	0.697900
H1261	H126	0.935600	0.189400	0.690100
C1921	C192	0.001200	0.175600	0.661300
H1271	H127	0.991700	0.173000	0.630600
N161	N16	0.044700	0.170100	0.671700
O461	O46	0.137600	0.198360	0.661440
O471	O47	0.202900	0.199510	0.619900
O481	O48	0.152790	0.133500	0.584400
H1281	H128	0.170200	0.152600	0.596300
C1931	C193	0.215000	0.651500	0.176500
C1941	C194	0.256200	0.679500	0.191100
C1951	C195	0.269600	0.717800	0.166100
H1291	H129	0.252600	0.726700	0.140200
C1961	C196	0.089300	0.597200	0.166600
H1301	H130	0.066900	0.582000	0.145900
C1971	C197	0.084900	0.575100	0.214600
C1981	C198	0.088900	0.521700	0.218000
C1991	C199	0.127000	0.485200	0.218000
C2001	C200	0.174500	0.716300	0.056000
H1311	H131	0.171100	0.724300	0.087100
C2011	C201	0.184200	0.753000	0.023600
H1321	H132	0.186100	0.783800	0.032900
C2021	C202	0.190400	0.740500	0.979500
H1331	H133	0.198000	0.762900	0.957600
C2031	C203	0.186000	0.697900	0.966800
H1341	H134	0.189400	0.690100	0.935600
C2041	C204	0.175600	0.661300	0.001200
H1351	H135	0.173000	0.630600	0.991700
N171	N17	0.170100	0.671700	0.044700
O491	O49	0.198360	0.661440	0.137600
O501	O50	0.199510	0.619900	0.202900
O511	O51	0.133500	0.584400	0.152790
H1361	H136	0.152600	0.596300	0.170200
C2051	C205	0.785000	0.151500	0.323500
C2061	C206	0.743800	0.179500	0.308900
C2071	C207	0.730400	0.217800	0.333900
H1371	H137	0.747400	0.226700	0.359800
C2081	C208	0.910700	0.097200	0.333400
H1381	H138	0.933100	0.082000	0.354100
C2091	C209	0.915100	0.075100	0.285400
C2101	C210	0.911100	0.021700	0.282000
C2111	C211	0.873000	0.985200	0.282000
C2121	C212	0.825500	0.216300	0.444000
H1391	H139	0.828900	0.224300	0.412900
C2131	C213	0.815800	0.253000	0.476400
H1401	H140	0.813900	0.283800	0.467100
C2141	C214	0.809600	0.240500	0.520500
H1411	H141	0.802000	0.262900	0.542400
C2151	C215	0.814000	0.197900	0.533200
H1421	H142	0.810600	0.190100	0.564400
C2161	C216	0.824400	0.161300	0.498800
H1431	H143	0.827000	0.130600	0.508300
N181	N18	0.829900	0.171700	0.455300
O521	O52	0.801640	0.161440	0.362400
O531	O53	0.800490	0.119900	0.297100
O541	O54	0.866500	0.084400	0.347210
H1441	H144	0.847400	0.096300	0.329800
C2171	C217	0.285000	0.348500	0.676500
C2181	C218	0.243800	0.320500	0.691100
C2191	C219	0.230400	0.282200	0.666100
H1451	H145	0.247400	0.273300	0.640200
C2201	C220	0.410700	0.402800	0.666600
H1461	H146	0.433100	0.418000	0.645900
C2211	C221	0.415100	0.424900	0.714600
C2221	C222	0.411100	0.478300	0.718000
C2231	C223	0.373000	0.514800	0.718000
C2241	C224	0.325500	0.283700	0.556000
H1471	H147	0.328900	0.275700	0.587100
C2251	C225	0.315800	0.247000	0.523600
H1481	H148	0.313900	0.216200	0.532900
C2261	C226	0.309600	0.259500	0.479500
H1491	H149	0.302000	0.237100	0.457600
C2271	C227	0.314000	0.302100	0.466800
H1501	H150	0.310600	0.309900	0.435600
C2281	C228	0.324400	0.338700	0.501200
H1511	H151	0.327000	0.369400	0.491700
N191	N19	0.329900	0.328300	0.544700
O551	O55	0.301640	0.338560	0.637600
O561	O56	0.300490	0.380100	0.702900
O571	O57	0.366500	0.415600	0.652790
H1521	H152	0.347400	0.403700	0.670200
C2291	C229	0.715000	0.848500	0.823500
C2301	C230	0.756200	0.820500	0.808900
C2311	C231	0.769600	0.782200	0.833900
H1531	H153	0.752600	0.773300	0.859800
C2321	C232	0.589300	0.902800	0.833400
H1541	H154	0.566900	0.918000	0.854100
C2331	C233	0.584900	0.924900	0.785400
C2341	C234	0.588900	0.978300	0.782000
C2351	C235	0.627000	0.014800	0.782000
C2361	C236	0.674500	0.783700	0.944000
H1551	H155	0.671100	0.775700	0.912900
C2371	C237	0.684200	0.747000	0.976400
H1561	H156	0.686100	0.716200	0.967100
C2381	C238	0.690400	0.759500	0.020500
H1571	H157	0.698000	0.737100	0.042400
C2391	C239	0.686000	0.802100	0.033200
H1581	H158	0.689400	0.809900	0.064400
C2401	C240	0.675600	0.838700	0.998800
H1591	H159	0.673000	0.869400	0.008300
N201	N20	0.670100	0.828300	0.955300
O581	O58	0.698360	0.838560	0.862400
O591	O59	0.699510	0.880100	0.797100
O601	O60	0.633500	0.915600	0.847210
H1601	H160	0.652600	0.903700	0.829800
C2411	C241	0.151500	0.323500	0.785000
C2421	C242	0.179500	0.308900	0.743800
C2431	C243	0.217800	0.333900	0.730400
H1611	H161	0.226700	0.359800	0.747400
C2441	C244	0.097200	0.333400	0.910700
H1621	H162	0.082000	0.354100	0.933100
C2451	C245	0.075100	0.285400	0.915100
C2461	C246	0.021700	0.282000	0.911100
C2471	C247	0.985200	0.282000	0.873000
C2481	C248	0.216300	0.444000	0.825500
H1631	H163	0.224300	0.412900	0.828900
C2491	C249	0.253000	0.476400	0.815800
H1641	H164	0.283800	0.467100	0.813900
C2501	C250	0.240500	0.520500	0.809600
H1651	H165	0.262900	0.542400	0.802000
C2511	C251	0.197900	0.533200	0.814000
H1661	H166	0.190100	0.564400	0.810600
C2521	C252	0.161300	0.498800	0.824400
H1671	H167	0.130600	0.508300	0.827000
N211	N21	0.171700	0.455300	0.829900
O611	O61	0.161440	0.362400	0.801640
O621	O62	0.119900	0.297100	0.800490
O631	O63	0.084400	0.347210	0.866500
H1681	H168	0.096300	0.329800	0.847400
C2531	C253	0.651500	0.176500	0.215000
C2541	C254	0.679500	0.191100	0.256200
C2551	C255	0.717800	0.166100	0.269600
H1691	H169	0.726700	0.140200	0.252600
C2561	C256	0.597200	0.166600	0.089300
H1701	H170	0.582000	0.145900	0.066900
C2571	C257	0.575100	0.214600	0.084900
C2581	C258	0.521700	0.218000	0.088900
C2591	C259	0.485200	0.218000	0.127000
C2601	C260	0.716300	0.056000	0.174500
H1711	H171	0.724300	0.087100	0.171100
C2611	C261	0.753000	0.023600	0.184200
H1721	H172	0.783800	0.032900	0.186100
C2621	C262	0.740500	0.979500	0.190400
H1731	H173	0.762900	0.957600	0.198000
C2631	C263	0.697900	0.966800	0.186000
H1741	H174	0.690100	0.935600	0.189400
C2641	C264	0.661300	0.001200	0.175600
H1751	H175	0.630600	0.991700	0.173000
N221	N22	0.671700	0.044700	0.170100
O641	O64	0.661440	0.137600	0.198360
O651	O65	0.619900	0.202900	0.199510
O661	O66	0.584400	0.152790	0.133500
H1761	H176	0.596300	0.170200	0.152600
C2651	C265	0.848500	0.823500	0.715000
C2661	C266	0.820500	0.808900	0.756200
C2671	C267	0.782200	0.833900	0.769600
H1771	H177	0.773300	0.859800	0.752600
C2681	C268	0.902800	0.833400	0.589300
H1781	H178	0.918000	0.854100	0.566900
C2691	C269	0.924900	0.785400	0.584900
C2701	C270	0.978300	0.782000	0.588900
C2711	C271	0.014800	0.782000	0.627000
C2721	C272	0.783700	0.944000	0.674500
H1791	H179	0.775700	0.912900	0.671100
C2731	C273	0.747000	0.976400	0.684200
H1801	H180	0.716200	0.967100	0.686100
C2741	C274	0.759500	0.020500	0.690400
H1811	H181	0.737100	0.042400	0.698000
C2751	C275	0.802100	0.033200	0.686000
H1821	H182	0.809900	0.064400	0.689400
C2761	C276	0.838700	0.998800	0.675600
H1831	H183	0.869400	0.008300	0.673000
N231	N23	0.828300	0.955300	0.670100
O671	O67	0.838560	0.862400	0.698360
O681	O68	0.880100	0.797100	0.699510
O691	O69	0.915600	0.847210	0.633500
H1841	H184	0.903700	0.829800	0.652600
C2771	C277	0.348500	0.676500	0.285000
C2781	C278	0.320500	0.691100	0.243800
C2791	C279	0.282200	0.666100	0.230400
H1851	H185	0.273300	0.640200	0.247400
C2801	C280	0.402800	0.666600	0.410700
H1861	H186	0.418000	0.645900	0.433100
C2811	C281	0.424900	0.714600	0.415100
C2821	C282	0.478300	0.718000	0.411100
C2831	C283	0.514800	0.718000	0.373000
C2841	C284	0.283700	0.556000	0.325500
H1871	H187	0.275700	0.587100	0.328900
C2851	C285	0.247000	0.523600	0.315800
H1881	H188	0.216200	0.532900	0.313900
C2861	C286	0.259500	0.479500	0.309600
H1891	H189	0.237100	0.457600	0.302000
C2871	C287	0.302100	0.466800	0.314000
H1901	H190	0.309900	0.435600	0.310600
C2881	C288	0.338700	0.501200	0.324400
H1911	H191	0.369400	0.491700	0.327000
N241	N24	0.328300	0.544700	0.329900
O701	O70	0.338560	0.637600	0.301640
O711	O71	0.380100	0.702900	0.300490
O721	O72	0.415600	0.652790	0.366500
H1921	H192	0.403700	0.670200	0.347400
Ni11	Ni1	0.904070	0.654070	0.875000
Ni21	Ni2	0.595930	0.345930	0.375000
Ni31	Ni3	0.095930	0.154070	0.625000
Ni41	Ni4	0.404070	0.845930	0.125000
Ni51	Ni5	0.875000	0.904070	0.654070
Ni61	Ni6	0.375000	0.595930	0.345930
Ni71	Ni7	0.625000	0.095930	0.154070
Ni81	Ni8	0.125000	0.404070	0.845930
Ni91	Ni9	0.654070	0.875000	0.904070
Ni101	Ni10	0.345930	0.375000	0.595930
Ni111	Ni11	0.154070	0.625000	0.095930
Ni121	Ni12	0.845930	0.125000	0.404070
C2891	C289	0.465000	0.073500	0.401500
C2901	C290	0.506200	0.058900	0.429500
C2911	C291	0.519600	0.083900	0.467800
H1931	H193	0.502600	0.109800	0.476700
C2921	C292	0.339300	0.083400	0.347200
H1941	H194	0.316900	0.104100	0.332000
C2931	C293	0.334900	0.035400	0.325100
C2941	C294	0.338900	0.032000	0.271700
C2951	C295	0.377000	0.032000	0.235200
C2961	C296	0.424500	0.194000	0.466300
H1951	H195	0.421100	0.162900	0.474300
C2971	C297	0.434200	0.226400	0.503000
H1961	H196	0.436100	0.217100	0.533800
C2981	C298	0.440400	0.270500	0.490500
H1971	H197	0.448000	0.292400	0.512900
C2991	C299	0.436000	0.283200	0.447900
H1981	H198	0.439400	0.314400	0.440100
C3001	C300	0.425600	0.248800	0.411300
H1991	H199	0.423000	0.258300	0.380600
N251	N25	0.420100	0.205300	0.421700
O731	O73	0.448360	0.112400	0.411440
O741	O74	0.449510	0.047100	0.369900
O751	O75	0.383500	0.097210	0.334400
H2001	H200	0.402600	0.079800	0.346300
C3011	C301	0.035000	0.926500	0.901500
C3021	C302	0.993800	0.941100	0.929500
C3031	C303	0.980400	0.916100	0.967800
H2011	H201	0.997400	0.890200	0.976700
C3041	C304	0.160700	0.916600	0.847200
H2021	H202	0.183100	0.895900	0.832000
C3051	C305	0.165100	0.964600	0.825100
C3061	C306	0.161100	0.968000	0.771700
C3071	C307	0.123000	0.968000	0.735200
C3081	C308	0.075500	0.806000	0.966300
H2031	H203	0.078900	0.837100	0.974300
C3091	C309	0.065800	0.773600	0.003000
H2041	H204	0.063900	0.782900	0.033800
C3101	C310	0.059600	0.729500	0.990500
H2051	H205	0.052000	0.707600	0.012900
C3111	C311	0.064000	0.716800	0.947900
H2061	H206	0.060600	0.685600	0.940100
C3121	C312	0.074400	0.751200	0.911300
H2071	H207	0.077000	0.741700	0.880600
N261	N26	0.079900	0.794700	0.921700
O761	O76	0.051640	0.887600	0.911440
O771	O77	0.050490	0.952900	0.869900
O781	O78	0.116500	0.902790	0.834400
H2081	H208	0.097400	0.920200	0.846300
C3131	C313	0.535000	0.573500	0.098500
C3141	C314	0.493800	0.558900	0.070500
C3151	C315	0.480400	0.583900	0.032200
H2091	H209	0.497400	0.609800	0.023300
C3161	C316	0.660700	0.583400	0.152800
H2101	H210	0.683100	0.604100	0.168000
C3171	C317	0.665100	0.535400	0.174900
C3181	C318	0.661100	0.532000	0.228300
C3191	C319	0.623000	0.532000	0.264800
C3201	C320	0.575500	0.694000	0.033700
H2111	H211	0.578900	0.662900	0.025700
C3211	C321	0.565800	0.726400	0.997000
H2121	H212	0.563900	0.717100	0.966200
C3221	C322	0.559600	0.770500	0.009500
H2131	H213	0.552000	0.792400	0.987100
C3231	C323	0.564000	0.783200	0.052100
H2141	H214	0.560600	0.814400	0.059900
C3241	C324	0.574400	0.748800	0.088700
H2151	H215	0.577000	0.758300	0.119400
N271	N27	0.579900	0.705300	0.078300
O791	O79	0.551640	0.612400	0.088560
O801	O80	0.550490	0.547100	0.130100
O811	O81	0.616500	0.597210	0.165600
H2161	H216	0.597400	0.579800	0.153700
C3251	C325	0.965000	0.426500	0.598500
C3261	C326	0.006200	0.441100	0.570500
C3271	C327	0.019600	0.416100	0.532200
H2171	H217	0.002600	0.390200	0.523300
C3281	C328	0.839300	0.416600	0.652800
H2181	H218	0.816900	0.395900	0.668000
C3291	C329	0.834900	0.464600	0.674900
C3301	C330	0.838900	0.468000	0.728300
C3311	C331	0.877000	0.468000	0.764800
C3321	C332	0.924500	0.306000	0.533700
H2191	H219	0.921100	0.337100	0.525700
C3331	C333	0.934200	0.273600	0.497000
H2201	H220	0.936100	0.282900	0.466200
C3341	C334	0.940400	0.229500	0.509500
H2211	H221	0.948000	0.207600	0.487100
C3351	C335	0.936000	0.216800	0.552100
H2221	H222	0.939400	0.185600	0.559900
C3361	C336	0.925600	0.251200	0.588700
H2231	H223	0.923000	0.241700	0.619400
N281	N28	0.920100	0.294700	0.578300
O821	O82	0.948360	0.387600	0.588560
O831	O83	0.949510	0.452900	0.630100
O841	O84	0.883500	0.402790	0.665600
H2241	H224	0.902600	0.420200	0.653700
C3371	C337	0.401500	0.465000	0.073500
C3381	C338	0.429500	0.506200	0.058900
C3391	C339	0.467800	0.519600	0.083900
H2251	H225	0.476700	0.502600	0.109800
C3401	C340	0.347200	0.339300	0.083400
H2261	H226	0.332000	0.316900	0.104100
C3411	C341	0.325100	0.334900	0.035400
C3421	C342	0.271700	0.338900	0.032000
C3431	C343	0.235200	0.377000	0.032000
C3441	C344	0.466300	0.424500	0.194000
H2271	H227	0.474300	0.421100	0.162900
C3451	C345	0.503000	0.434200	0.226400
H2281	H228	0.533800	0.436100	0.217100
C3461	C346	0.490500	0.440400	0.270500
H2291	H229	0.512900	0.448000	0.292400
C3471	C347	0.447900	0.436000	0.283200
H2301	H230	0.440100	0.439400	0.314400
C3481	C348	0.411300	0.425600	0.248800
H2311	H231	0.380600	0.423000	0.258300
N291	N29	0.421700	0.420100	0.205300
O851	O85	0.411440	0.448360	0.112400
O861	O86	0.369900	0.449510	0.047100
O871	O87	0.334400	0.383500	0.097210
H2321	H232	0.346300	0.402600	0.079800
C3491	C349	0.901500	0.035000	0.926500
C3501	C350	0.929500	0.993800	0.941100
C3511	C351	0.967800	0.980400	0.916100
H2331	H233	0.976700	0.997400	0.890200
C3521	C352	0.847200	0.160700	0.916600
H2341	H234	0.832000	0.183100	0.895900
C3531	C353	0.825100	0.165100	0.964600
C3541	C354	0.771700	0.161100	0.968000
C3551	C355	0.735200	0.123000	0.968000
C3561	C356	0.966300	0.075500	0.806000
H2351	H235	0.974300	0.078900	0.837100
C3571	C357	0.003000	0.065800	0.773600
H2361	H236	0.033800	0.063900	0.782900
C3581	C358	0.990500	0.059600	0.729500
H2371	H237	0.012900	0.052000	0.707600
C3591	C359	0.947900	0.064000	0.716800
H2381	H238	0.940100	0.060600	0.685600
C3601	C360	0.911300	0.074400	0.751200
H2391	H239	0.880600	0.077000	0.741700
N301	N30	0.921700	0.079900	0.794700
O881	O88	0.911440	0.051640	0.887600
O891	O89	0.869900	0.050490	0.952900
O901	O90	0.834400	0.116500	0.902790
H2401	H240	0.846300	0.097400	0.920200
C3611	C361	0.098500	0.535000	0.573500
C3621	C362	0.070500	0.493800	0.558900
C3631	C363	0.032200	0.480400	0.583900
H2411	H241	0.023300	0.497400	0.609800
C3641	C364	0.152800	0.660700	0.583400
H2421	H242	0.168000	0.683100	0.604100
C3651	C365	0.174900	0.665100	0.535400
C3661	C366	0.228300	0.661100	0.532000
C3671	C367	0.264800	0.623000	0.532000
C3681	C368	0.033700	0.575500	0.694000
H2431	H243	0.025700	0.578900	0.662900
C3691	C369	0.997000	0.565800	0.726400
H2441	H244	0.966200	0.563900	0.717100
C3701	C370	0.009500	0.559600	0.770500
H2451	H245	0.987100	0.552000	0.792400
C3711	C371	0.052100	0.564000	0.783200
H2461	H246	0.059900	0.560600	0.814400
C3721	C372	0.088700	0.574400	0.748800
H2471	H247	0.119400	0.577000	0.758300
N311	N31	0.078300	0.579900	0.705300
O911	O91	0.088560	0.551640	0.612400
O921	O92	0.130100	0.550490	0.547100
O931	O93	0.165600	0.616500	0.597210
H2481	H248	0.153700	0.597400	0.579800
C3731	C373	0.598500	0.965000	0.426500
C3741	C374	0.570500	0.006200	0.441100
C3751	C375	0.532200	0.019600	0.416100
H2491	H249	0.523300	0.002600	0.390200
C3761	C376	0.652800	0.839300	0.416600
H2501	H250	0.668000	0.816900	0.395900
C3771	C377	0.674900	0.834900	0.464600
C3781	C378	0.728300	0.838900	0.468000
C3791	C379	0.764800	0.877000	0.468000
C3801	C380	0.533700	0.924500	0.306000
H2511	H251	0.525700	0.921100	0.337100
C3811	C381	0.497000	0.934200	0.273600
H2521	H252	0.466200	0.936100	0.282900
C3821	C382	0.509500	0.940400	0.229500
H2531	H253	0.487100	0.948000	0.207600
C3831	C383	0.552100	0.936000	0.216800
H2541	H254	0.559900	0.939400	0.185600
C3841	C384	0.588700	0.925600	0.251200
H2551	H255	0.619400	0.923000	0.241700
N321	N32	0.578300	0.920100	0.294700
O941	O94	0.588560	0.948360	0.387600
O951	O95	0.630100	0.949510	0.452900
O961	O96	0.665600	0.883500	0.402790
H2561	H256	0.653700	0.902600	0.420200
C3851	C385	0.073500	0.401500	0.465000
C3861	C386	0.058900	0.429500	0.506200
C3871	C387	0.083900	0.467800	0.519600
H2571	H257	0.109800	0.476700	0.502600
C3881	C388	0.083400	0.347200	0.339300
H2581	H258	0.104100	0.332000	0.316900
C3891	C389	0.035400	0.325100	0.334900
C3901	C390	0.032000	0.271700	0.338900
C3911	C391	0.032000	0.235200	0.377000
C3921	C392	0.194000	0.466300	0.424500
H2591	H259	0.162900	0.474300	0.421100
C3931	C393	0.226400	0.503000	0.434200
H2601	H260	0.217100	0.533800	0.436100
C3941	C394	0.270500	0.490500	0.440400
H2611	H261	0.292400	0.512900	0.448000
C3951	C395	0.283200	0.447900	0.436000
H2621	H262	0.314400	0.440100	0.439400
C3961	C396	0.248800	0.411300	0.425600
H2631	H263	0.258300	0.380600	0.423000
N331	N33	0.205300	0.421700	0.420100
O971	O97	0.112400	0.411440	0.448360
O981	O98	0.047100	0.369900	0.449510
O991	O99	0.097210	0.334400	0.383500
H2641	H264	0.079800	0.346300	0.402600
C3971	C397	0.926500	0.901500	0.035000
C3981	C398	0.941100	0.929500	0.993800
C3991	C399	0.916100	0.967800	0.980400
H2651	H265	0.890200	0.976700	0.997400
C4001	C400	0.916600	0.847200	0.160700
H2661	H266	0.895900	0.832000	0.183100
C4011	C401	0.964600	0.825100	0.165100
C4021	C402	0.968000	0.771700	0.161100
C4031	C403	0.968000	0.735200	0.123000
C4041	C404	0.806000	0.966300	0.075500
H2671	H267	0.837100	0.974300	0.078900
C4051	C405	0.773600	0.003000	0.065800
H2681	H268	0.782900	0.033800	0.063900
C4061	C406	0.729500	0.990500	0.059600
H2691	H269	0.707600	0.012900	0.052000
C4071	C407	0.716800	0.947900	0.064000
H2701	H270	0.685600	0.940100	0.060600
C4081	C408	0.751200	0.911300	0.074400
H2711	H271	0.741700	0.880600	0.077000
N341	N34	0.794700	0.921700	0.079900
O1001	O100	0.887600	0.911440	0.051640
O1011	O101	0.952900	0.869900	0.050490
O1021	O102	0.902790	0.834400	0.116500
H2721	H272	0.920200	0.846300	0.097400
C4091	C409	0.573500	0.098500	0.535000
C4101	C410	0.558900	0.070500	0.493800
C4111	C411	0.583900	0.032200	0.480400
H2731	H273	0.609800	0.023300	0.497400
C4121	C412	0.583400	0.152800	0.660700
H2741	H274	0.604100	0.168000	0.683100
C4131	C413	0.535400	0.174900	0.665100
C4141	C414	0.532000	0.228300	0.661100
C4151	C415	0.532000	0.264800	0.623000
C4161	C416	0.694000	0.033700	0.575500
H2751	H275	0.662900	0.025700	0.578900
C4171	C417	0.726400	0.997000	0.565800
H2761	H276	0.717100	0.966200	0.563900
C4181	C418	0.770500	0.009500	0.559600
H2771	H277	0.792400	0.987100	0.552000
C4191	C419	0.783200	0.052100	0.564000
H2781	H278	0.814400	0.059900	0.560600
C4201	C420	0.748800	0.088700	0.574400
H2791	H279	0.758300	0.119400	0.577000
N351	N35	0.705300	0.078300	0.579900
O1031	O103	0.612400	0.088560	0.551640
O1041	O104	0.547100	0.130100	0.550490
O1051	O105	0.597210	0.165600	0.616500
H2801	H280	0.579800	0.153700	0.597400
C4211	C421	0.426500	0.598500	0.965000
C4221	C422	0.441100	0.570500	0.006200
C4231	C423	0.416100	0.532200	0.019600
H2811	H281	0.390200	0.523300	0.002600
C4241	C424	0.416600	0.652800	0.839300
H2821	H282	0.395900	0.668000	0.816900
C4251	C425	0.464600	0.674900	0.834900
C4261	C426	0.468000	0.728300	0.838900
C4271	C427	0.468000	0.764800	0.877000
C4281	C428	0.306000	0.533700	0.924500
H2831	H283	0.337100	0.525700	0.921100
C4291	C429	0.273600	0.497000	0.934200
H2841	H284	0.282900	0.466200	0.936100
C4301	C430	0.229500	0.509500	0.940400
H2851	H285	0.207600	0.487100	0.948000
C4311	C431	0.216800	0.552100	0.936000
H2861	H286	0.185600	0.559900	0.939400
C4321	C432	0.251200	0.588700	0.925600
H2871	H287	0.241700	0.619400	0.923000
N361	N36	0.294700	0.578300	0.920100
O1061	O106	0.387600	0.588560	0.948360
O1071	O107	0.452900	0.630100	0.949510
O1081	O108	0.402790	0.665600	0.883500
H2881	H288	0.420200	0.653700	0.902600
C4331	C433	0.323500	0.215000	0.348500
C4341	C434	0.308900	0.256200	0.320500
C4351	C435	0.333900	0.269600	0.282200
H2891	H289	0.359800	0.252600	0.273300
C4361	C436	0.333400	0.089300	0.402800
H2901	H290	0.354100	0.066900	0.418000
C4371	C437	0.285400	0.084900	0.424900
C4381	C438	0.282000	0.088900	0.478300
C4391	C439	0.282000	0.127000	0.514800
C4401	C440	0.444000	0.174500	0.283700
H2911	H291	0.412900	0.171100	0.275700
C4411	C441	0.476400	0.184200	0.247000
H2921	H292	0.467100	0.186100	0.216200
C4421	C442	0.520500	0.190400	0.259500
H2931	H293	0.542400	0.198000	0.237100
C4431	C443	0.533200	0.186000	0.302100
H2941	H294	0.564400	0.189400	0.309900
C4441	C444	0.498800	0.175600	0.338700
H2951	H295	0.508300	0.173000	0.369400
N371	N37	0.455300	0.170100	0.328300
O1091	O109	0.362400	0.198360	0.338560
O1101	O110	0.297100	0.199510	0.380100
O1111	O111	0.347210	0.133500	0.415600
H2961	H296	0.329800	0.152600	0.403700
C4451	C445	0.176500	0.785000	0.848500
C4461	C446	0.191100	0.743800	0.820500
C4471	C447	0.166100	0.730400	0.782200
H2971	H297	0.140200	0.747400	0.773300
C4481	C448	0.166600	0.910700	0.902800
H2981	H298	0.145900	0.933100	0.918000
C4491	C449	0.214600	0.915100	0.924900
C4501	C450	0.218000	0.911100	0.978300
C4511	C451	0.218000	0.873000	0.014800
C4521	C452	0.056000	0.825500	0.783700
H2991	H299	0.087100	0.828900	0.775700
C4531	C453	0.023600	0.815800	0.747000
H3001	H300	0.032900	0.813900	0.716200
C4541	C454	0.979500	0.809600	0.759500
H3011	H301	0.957600	0.802000	0.737100
C4551	C455	0.966800	0.814000	0.802100
H3021	H302	0.935600	0.810600	0.809900
C4561	C456	0.001200	0.824400	0.838700
H3031	H303	0.991700	0.827000	0.869400
N381	N38	0.044700	0.829900	0.828300
O1121	O112	0.137600	0.801640	0.838560
O1131	O113	0.202900	0.800490	0.880100
O1141	O114	0.152790	0.866500	0.915600
H3041	H304	0.170200	0.847400	0.903700
C4571	C457	0.823500	0.285000	0.651500
C4581	C458	0.808900	0.243800	0.679500
C4591	C459	0.833900	0.230400	0.717800
H3051	H305	0.859800	0.247400	0.726700
C4601	C460	0.833400	0.410700	0.597200
H3061	H306	0.854100	0.433100	0.582000
C4611	C461	0.785400	0.415100	0.575100
C4621	C462	0.782000	0.411100	0.521700
C4631	C463	0.782000	0.373000	0.485200
C4641	C464	0.944000	0.325500	0.716300
H3071	H307	0.912900	0.328900	0.724300
C4651	C465	0.976400	0.315800	0.753000
H3081	H308	0.967100	0.313900	0.783800
C4661	C466	0.020500	0.309600	0.740500
H3091	H309	0.042400	0.302000	0.762900
C4671	C467	0.033200	0.314000	0.697900
H3101	H310	0.064400	0.310600	0.690100
C4681	C468	0.998800	0.324400	0.661300
H3111	H311	0.008300	0.327000	0.630600
N391	N39	0.955300	0.329900	0.671700
O1151	O115	0.862400	0.301640	0.661440
O1161	O116	0.797100	0.300490	0.619900
O1171	O117	0.847210	0.366500	0.584400
H3121	H312	0.829800	0.347400	0.596300
C4691	C469	0.676500	0.715000	0.151500
C4701	C470	0.691100	0.756200	0.179500
C4711	C471	0.666100	0.769600	0.217800
H3131	H313	0.640200	0.752600	0.226700
C4721	C472	0.666600	0.589300	0.097200
H3141	H314	0.645900	0.566900	0.082000
C4731	C473	0.714600	0.584900	0.075100
C4741	C474	0.718000	0.588900	0.021700
C4751	C475	0.718000	0.627000	0.985200
C4761	C476	0.556000	0.674500	0.216300
H3151	H315	0.587100	0.671100	0.224300
C4771	C477	0.523600	0.684200	0.253000
H3161	H316	0.532900	0.686100	0.283800
C4781	C478	0.479500	0.690400	0.240500
H3171	H317	0.457600	0.698000	0.262900
C4791	C479	0.466800	0.686000	0.197900
H3181	H318	0.435600	0.689400	0.190100
C4801	C480	0.501200	0.675600	0.161300
H3191	H319	0.491700	0.673000	0.130600
N401	N40	0.544700	0.670100	0.171700
O1181	O118	0.637600	0.698360	0.161440
O1191	O119	0.702900	0.699510	0.119900
O1201	O120	0.652790	0.633500	0.084400
H3201	H320	0.670200	0.652600	0.096300
C4811	C481	0.715000	0.151500	0.676500
C4821	C482	0.756200	0.179500	0.691100
C4831	C483	0.769600	0.217800	0.666100
H3211	H321	0.752600	0.226700	0.640200
C4841	C484	0.589300	0.097200	0.666600
H3221	H322	0.566900	0.082000	0.645900
C4851	C485	0.584900	0.075100	0.714600
C4861	C486	0.588900	0.021700	0.718000
C4871	C487	0.627000	0.985200	0.718000
C4881	C488	0.674500	0.216300	0.556000
H3231	H323	0.671100	0.224300	0.587100
C4891	C489	0.684200	0.253000	0.523600
H3241	H324	0.686100	0.283800	0.532900
C4901	C490	0.690400	0.240500	0.479500
H3251	H325	0.698000	0.262900	0.457600
C4911	C491	0.686000	0.197900	0.466800
H3261	H326	0.689400	0.190100	0.435600
C4921	C492	0.675600	0.161300	0.501200
H3271	H327	0.673000	0.130600	0.491700
N411	N41	0.670100	0.171700	0.544700
O1211	O121	0.698360	0.161440	0.637600
O1221	O122	0.699510	0.119900	0.702900
O1231	O123	0.633500	0.084400	0.652790
H3281	H328	0.652600	0.096300	0.670200
C4931	C493	0.285000	0.651500	0.823500
C4941	C494	0.243800	0.679500	0.808900
C4951	C495	0.230400	0.717800	0.833900
H3291	H329	0.247400	0.726700	0.859800
C4961	C496	0.410700	0.597200	0.833400
H3301	H330	0.433100	0.582000	0.854100
C4971	C497	0.415100	0.575100	0.785400
C4981	C498	0.411100	0.521700	0.782000
C4991	C499	0.373000	0.485200	0.782000
C5001	C500	0.325500	0.716300	0.944000
H3311	H331	0.328900	0.724300	0.912900
C5011	C501	0.315800	0.753000	0.976400
H3321	H332	0.313900	0.783800	0.967100
C5021	C502	0.309600	0.740500	0.020500
H3331	H333	0.302000	0.762900	0.042400
C5031	C503	0.314000	0.697900	0.033200
H3341	H334	0.310600	0.690100	0.064400
C5041	C504	0.324400	0.661300	0.998800
H3351	H335	0.327000	0.630600	0.008300
N421	N42	0.329900	0.671700	0.955300
O1241	O124	0.301640	0.661440	0.862400
O1251	O125	0.300490	0.619900	0.797100
O1261	O126	0.366500	0.584400	0.847210
H3361	H336	0.347400	0.596300	0.829800
C5051	C505	0.785000	0.848500	0.176500
C5061	C506	0.743800	0.820500	0.191100
C5071	C507	0.730400	0.782200	0.166100
H3371	H337	0.747400	0.773300	0.140200
C5081	C508	0.910700	0.902800	0.166600
H3381	H338	0.933100	0.918000	0.145900
C5091	C509	0.915100	0.924900	0.214600
C5101	C510	0.911100	0.978300	0.218000
C5111	C511	0.873000	0.014800	0.218000
C5121	C512	0.825500	0.783700	0.056000
H3391	H339	0.828900	0.775700	0.087100
C5131	C513	0.815800	0.747000	0.023600
H3401	H340	0.813900	0.716200	0.032900
C5141	C514	0.809600	0.759500	0.979500
H3411	H341	0.802000	0.737100	0.957600
C5151	C515	0.814000	0.802100	0.966800
H3421	H342	0.810600	0.809900	0.935600
C5161	C516	0.824400	0.838700	0.001200
H3431	H343	0.827000	0.869400	0.991700
N431	N43	0.829900	0.828300	0.044700
O1271	O127	0.801640	0.838560	0.137600
O1281	O128	0.800490	0.880100	0.202900
O1291	O129	0.866500	0.915600	0.152790
H3441	H344	0.847400	0.903700	0.170200
C5171	C517	0.215000	0.348500	0.323500
C5181	C518	0.256200	0.320500	0.308900
C5191	C519	0.269600	0.282200	0.333900
H3451	H345	0.252600	0.273300	0.359800
C5201	C520	0.089300	0.402800	0.333400
H3461	H346	0.066900	0.418000	0.354100
C5211	C521	0.084900	0.424900	0.285400
C5221	C522	0.088900	0.478300	0.282000
C5231	C523	0.127000	0.514800	0.282000
C5241	C524	0.174500	0.283700	0.444000
H3471	H347	0.171100	0.275700	0.412900
C5251	C525	0.184200	0.247000	0.476400
H3481	H348	0.186100	0.216200	0.467100
C5261	C526	0.190400	0.259500	0.520500
H3491	H349	0.198000	0.237100	0.542400
C5271	C527	0.186000	0.302100	0.533200
H3501	H350	0.189400	0.309900	0.564400
C5281	C528	0.175600	0.338700	0.498800
H3511	H351	0.173000	0.369400	0.508300
N441	N44	0.170100	0.328300	0.455300
O1301	O130	0.198360	0.338560	0.362400
O1311	O131	0.199510	0.380100	0.297100
O1321	O132	0.133500	0.415600	0.347210
H3521	H352	0.152600	0.403700	0.329800
C5291	C529	0.651500	0.823500	0.285000
C5301	C530	0.679500	0.808900	0.243800
C5311	C531	0.717800	0.833900	0.230400
H3531	H353	0.726700	0.859800	0.247400
C5321	C532	0.597200	0.833400	0.410700
H3541	H354	0.582000	0.854100	0.433100
C5331	C533	0.575100	0.785400	0.415100
C5341	C534	0.521700	0.782000	0.411100
C5351	C535	0.485200	0.782000	0.373000
C5361	C536	0.716300	0.944000	0.325500
H3551	H355	0.724300	0.912900	0.328900
C5371	C537	0.753000	0.976400	0.315800
H3561	H356	0.783800	0.967100	0.313900
C5381	C538	0.740500	0.020500	0.309600
H3571	H357	0.762900	0.042400	0.302000
C5391	C539	0.697900	0.033200	0.314000
H3581	H358	0.690100	0.064400	0.310600
C5401	C540	0.661300	0.998800	0.324400
H3591	H359	0.630600	0.008300	0.327000
N451	N45	0.671700	0.955300	0.329900
O1331	O133	0.661440	0.862400	0.301640
O1341	O134	0.619900	0.797100	0.300490
O1351	O135	0.584400	0.847210	0.366500
H3601	H360	0.596300	0.829800	0.347400
C5411	C541	0.151500	0.676500	0.715000
C5421	C542	0.179500	0.691100	0.756200
C5431	C543	0.217800	0.666100	0.769600
H3611	H361	0.226700	0.640200	0.752600
C5441	C544	0.097200	0.666600	0.589300
H3621	H362	0.082000	0.645900	0.566900
C5451	C545	0.075100	0.714600	0.584900
C5461	C546	0.021700	0.718000	0.588900
C5471	C547	0.985200	0.718000	0.627000
C5481	C548	0.216300	0.556000	0.674500
H3631	H363	0.224300	0.587100	0.671100
C5491	C549	0.253000	0.523600	0.684200
H3641	H364	0.283800	0.532900	0.686100
C5501	C550	0.240500	0.479500	0.690400
H3651	H365	0.262900	0.457600	0.698000
C5511	C551	0.197900	0.466800	0.686000
H3661	H366	0.190100	0.435600	0.689400
C5521	C552	0.161300	0.501200	0.675600
H3671	H367	0.130600	0.491700	0.673000
N461	N46	0.171700	0.544700	0.670100
O1361	O136	0.161440	0.637600	0.698360
O1371	O137	0.119900	0.702900	0.699510
O1381	O138	0.084400	0.652790	0.633500
H3681	H368	0.096300	0.670200	0.652600
C5531	C553	0.348500	0.323500	0.215000
C5541	C554	0.320500	0.308900	0.256200
C5551	C555	0.282200	0.333900	0.269600
H3691	H369	0.273300	0.359800	0.252600
C5561	C556	0.402800	0.333400	0.089300
H3701	H370	0.418000	0.354100	0.066900
C5571	C557	0.424900	0.285400	0.084900
C5581	C558	0.478300	0.282000	0.088900
C5591	C559	0.514800	0.282000	0.127000
C5601	C560	0.283700	0.444000	0.174500
H3711	H371	0.275700	0.412900	0.171100
C5611	C561	0.247000	0.476400	0.184200
H3721	H372	0.216200	0.467100	0.186100
C5621	C562	0.259500	0.520500	0.190400
H3731	H373	0.237100	0.542400	0.198000
C5631	C563	0.302100	0.533200	0.186000
H3741	H374	0.309900	0.564400	0.189400
C5641	C564	0.338700	0.498800	0.175600
H3751	H375	0.369400	0.508300	0.173000
N471	N47	0.328300	0.455300	0.170100
O1391	O139	0.338560	0.362400	0.198360
O1401	O140	0.380100	0.297100	0.199510
O1411	O141	0.415600	0.347210	0.133500
H3761	H376	0.403700	0.329800	0.152600
C5651	C565	0.848500	0.176500	0.785000
C5661	C566	0.820500	0.191100	0.743800
C5671	C567	0.782200	0.166100	0.730400
H3771	H377	0.773300	0.140200	0.747400
C5681	C568	0.902800	0.166600	0.910700
H3781	H378	0.918000	0.145900	0.933100
C5691	C569	0.924900	0.214600	0.915100
C5701	C570	0.978300	0.218000	0.911100
C5711	C571	0.014800	0.218000	0.873000
C5721	C572	0.783700	0.056000	0.825500
H3791	H379	0.775700	0.087100	0.828900
C5731	C573	0.747000	0.023600	0.815800
H3801	H380	0.716200	0.032900	0.813900
C5741	C574	0.759500	0.979500	0.809600
H3811	H381	0.737100	0.957600	0.802000
C5751	C575	0.802100	0.966800	0.814000
H3821	H382	0.809900	0.935600	0.810600
C5761	C576	0.838700	0.001200	0.824400
H3831	H383	0.869400	0.991700	0.827000
N481	N48	0.828300	0.044700	0.829900
O1421	O142	0.838560	0.137600	0.801640
O1431	O143	0.880100	0.202900	0.800490
O1441	O144	0.915600	0.152790	0.866500
H3841	H384	0.903700	0.170200	0.847400
Ni131	Ni13	0.404070	0.154070	0.375000
Ni141	Ni14	0.095930	0.845930	0.875000
Ni151	Ni15	0.904070	0.345930	0.625000
Ni161	Ni16	0.595930	0.654070	0.125000
Ni171	Ni17	0.654070	0.125000	0.595930
Ni181	Ni18	0.345930	0.625000	0.904070
Ni191	Ni19	0.845930	0.875000	0.095930
Ni201	Ni20	0.154070	0.375000	0.404070
Ni211	Ni21	0.625000	0.904070	0.345930
Ni221	Ni22	0.125000	0.595930	0.654070
Ni231	Ni23	0.375000	0.404070	0.154070
Ni241	Ni24	0.875000	0.095930	0.845930
