data_HUYKAN_clean_PM
_symmetry_space_group_name_H-M	'P1'
_cell_length_a	22.787400
_cell_length_b	22.787400
_cell_length_c	22.787400
_cell_angle_alpha	60.000000
_cell_angle_beta	60.000000
_cell_angle_gamma	60.000000
_symmetry_Int_Tables_number 1

loop_
_symmetry_equiv_pos_as_xyz
'x,y,z'

loop_
_atom_site_label
_atom_site_type_symbol
_atom_site_fract_x
_atom_site_fract_y
_atom_site_fract_z
Ni11	Ni1	0.125000	0.625000	0.866200
Ni21	Ni2	0.625000	0.125000	0.383800
Ni31	Ni3	0.866200	0.383800	0.125000
Ni41	Ni4	0.383800	0.866200	0.625000
Ni51	Ni5	0.125000	0.866200	0.383800
Ni61	Ni6	0.625000	0.383800	0.866200
Ni71	Ni7	0.866200	0.125000	0.625000
Ni81	Ni8	0.383800	0.625000	0.125000
Ni91	Ni9	0.125000	0.383800	0.625000
Ni101	Ni10	0.625000	0.866200	0.125000
Ni111	Ni11	0.866200	0.625000	0.383800
Ni121	Ni12	0.383800	0.125000	0.866200
H11	H1	0.899000	0.751200	0.946400
H21	H2	0.986700	0.601700	0.987900
H31	H3	0.946400	0.541000	0.107200
H41	H4	0.057400	0.425800	0.219000
H51	H5	0.998600	0.418600	0.208400
H61	H6	0.980500	0.484100	0.227900
H71	H7	0.146800	0.464400	0.108800
H81	H8	0.179700	0.533500	0.989900
H91	H9	0.751200	0.899000	0.403400
H101	H10	0.601700	0.986700	0.423700
H111	H11	0.541000	0.946400	0.405400
H121	H12	0.425800	0.057400	0.297800
H131	H13	0.418600	0.998600	0.374400
H141	H14	0.484100	0.980500	0.307500
H151	H15	0.464400	0.146800	0.280000
H161	H16	0.533500	0.179700	0.296900
H171	H17	0.946400	0.403400	0.899000
H181	H18	0.987900	0.423700	0.986700
H191	H19	0.107200	0.405400	0.946400
H201	H20	0.219000	0.297800	0.057400
H211	H21	0.208400	0.374400	0.998600
H221	H22	0.227900	0.307500	0.980500
H231	H23	0.108800	0.280000	0.146800
H241	H24	0.989900	0.296900	0.179700
H251	H25	0.403400	0.946400	0.751200
H261	H26	0.423700	0.987900	0.601700
H271	H27	0.405400	0.107200	0.541000
H281	H28	0.297800	0.219000	0.425800
H291	H29	0.374400	0.208400	0.418600
H301	H30	0.307500	0.227900	0.484100
H311	H31	0.280000	0.108800	0.464400
H321	H32	0.296900	0.989900	0.533500
H331	H33	0.899000	0.946400	0.403400
H341	H34	0.986700	0.987900	0.423700
H351	H35	0.946400	0.107200	0.405400
H361	H36	0.057400	0.219000	0.297800
H371	H37	0.998600	0.208400	0.374400
H381	H38	0.980500	0.227900	0.307500
H391	H39	0.146800	0.108800	0.280000
H401	H40	0.179700	0.989900	0.296900
H411	H41	0.751200	0.403400	0.946400
H421	H42	0.601700	0.423700	0.987900
H431	H43	0.541000	0.405400	0.107200
H441	H44	0.425800	0.297800	0.219000
H451	H45	0.418600	0.374400	0.208400
H461	H46	0.484100	0.307500	0.227900
H471	H47	0.464400	0.280000	0.108800
H481	H48	0.533500	0.296900	0.989900
H491	H49	0.946400	0.899000	0.751200
H501	H50	0.987900	0.986700	0.601700
H511	H51	0.107200	0.946400	0.541000
H521	H52	0.219000	0.057400	0.425800
H531	H53	0.208400	0.998600	0.418600
H541	H54	0.227900	0.980500	0.484100
H551	H55	0.108800	0.146800	0.464400
H561	H56	0.989900	0.179700	0.533500
H571	H57	0.403400	0.751200	0.899000
H581	H58	0.423700	0.601700	0.986700
H591	H59	0.405400	0.541000	0.946400
H601	H60	0.297800	0.425800	0.057400
H611	H61	0.374400	0.418600	0.998600
H621	H62	0.307500	0.484100	0.980500
H631	H63	0.280000	0.464400	0.146800
H641	H64	0.296900	0.533500	0.179700
H651	H65	0.899000	0.403400	0.751200
H661	H66	0.986700	0.423700	0.601700
H671	H67	0.946400	0.405400	0.541000
H681	H68	0.057400	0.297800	0.425800
H691	H69	0.998600	0.374400	0.418600
H701	H70	0.980500	0.307500	0.484100
H711	H71	0.146800	0.280000	0.464400
H721	H72	0.179700	0.296900	0.533500
H731	H73	0.751200	0.946400	0.899000
H741	H74	0.601700	0.987900	0.986700
H751	H75	0.541000	0.107200	0.946400
H761	H76	0.425800	0.219000	0.057400
H771	H77	0.418600	0.208400	0.998600
H781	H78	0.484100	0.227900	0.980500
H791	H79	0.464400	0.108800	0.146800
H801	H80	0.533500	0.989900	0.179700
H811	H81	0.946400	0.751200	0.403400
H821	H82	0.987900	0.601700	0.423700
H831	H83	0.107200	0.541000	0.405400
H841	H84	0.219000	0.425800	0.297800
H851	H85	0.208400	0.418600	0.374400
H861	H86	0.227900	0.484100	0.307500
H871	H87	0.108800	0.464400	0.280000
H881	H88	0.989900	0.533500	0.296900
H891	H89	0.403400	0.899000	0.946400
H901	H90	0.423700	0.986700	0.987900
H911	H91	0.405400	0.946400	0.107200
H921	H92	0.297800	0.057400	0.219000
H931	H93	0.374400	0.998600	0.208400
H941	H94	0.307500	0.980500	0.227900
H951	H95	0.280000	0.146800	0.108800
H961	H96	0.296900	0.179700	0.989900
H971	H97	0.498800	0.351000	0.303600
H981	H98	0.648300	0.263300	0.262100
H991	H99	0.709000	0.303600	0.142800
H1001	H100	0.824200	0.192600	0.031000
H1011	H101	0.831400	0.251400	0.041600
H1021	H102	0.765900	0.269500	0.022100
H1031	H103	0.785600	0.103200	0.141200
H1041	H104	0.716500	0.070300	0.260100
H1051	H105	0.351000	0.498800	0.846600
H1061	H106	0.263300	0.648300	0.826300
H1071	H107	0.303600	0.709000	0.844600
H1081	H108	0.192600	0.824200	0.952200
H1091	H109	0.251400	0.831400	0.875600
H1101	H110	0.269500	0.765900	0.942500
H1111	H111	0.103200	0.785600	0.970000
H1121	H112	0.070300	0.716500	0.953100
H1131	H113	0.846600	0.303600	0.351000
H1141	H114	0.826300	0.262100	0.263300
H1151	H115	0.844600	0.142800	0.303600
H1161	H116	0.952200	0.031000	0.192600
H1171	H117	0.875600	0.041600	0.251400
H1181	H118	0.942500	0.022100	0.269500
H1191	H119	0.970000	0.141200	0.103200
H1201	H120	0.953100	0.260100	0.070300
H1211	H121	0.303600	0.846600	0.498800
H1221	H122	0.262100	0.826300	0.648300
H1231	H123	0.142800	0.844600	0.709000
H1241	H124	0.031000	0.952200	0.824200
H1251	H125	0.041600	0.875600	0.831400
H1261	H126	0.022100	0.942500	0.765900
H1271	H127	0.141200	0.970000	0.785600
H1281	H128	0.260100	0.953100	0.716500
H1291	H129	0.303600	0.351000	0.846600
H1301	H130	0.262100	0.263300	0.826300
H1311	H131	0.142800	0.303600	0.844600
H1321	H132	0.031000	0.192600	0.952200
H1331	H133	0.041600	0.251400	0.875600
H1341	H134	0.022100	0.269500	0.942500
H1351	H135	0.141200	0.103200	0.970000
H1361	H136	0.260100	0.070300	0.953100
H1371	H137	0.846600	0.498800	0.303600
H1381	H138	0.826300	0.648300	0.262100
H1391	H139	0.844600	0.709000	0.142800
H1401	H140	0.952200	0.824200	0.031000
H1411	H141	0.875600	0.831400	0.041600
H1421	H142	0.942500	0.765900	0.022100
H1431	H143	0.970000	0.785600	0.141200
H1441	H144	0.953100	0.716500	0.260100
H1451	H145	0.351000	0.303600	0.498800
H1461	H146	0.263300	0.262100	0.648300
H1471	H147	0.303600	0.142800	0.709000
H1481	H148	0.192600	0.031000	0.824200
H1491	H149	0.251400	0.041600	0.831400
H1501	H150	0.269500	0.022100	0.765900
H1511	H151	0.103200	0.141200	0.785600
H1521	H152	0.070300	0.260100	0.716500
H1531	H153	0.498800	0.846600	0.351000
H1541	H154	0.648300	0.826300	0.263300
H1551	H155	0.709000	0.844600	0.303600
H1561	H156	0.824200	0.952200	0.192600
H1571	H157	0.831400	0.875600	0.251400
H1581	H158	0.765900	0.942500	0.269500
H1591	H159	0.785600	0.970000	0.103200
H1601	H160	0.716500	0.953100	0.070300
H1611	H161	0.846600	0.351000	0.498800
H1621	H162	0.826300	0.263300	0.648300
H1631	H163	0.844600	0.303600	0.709000
H1641	H164	0.952200	0.192600	0.824200
H1651	H165	0.875600	0.251400	0.831400
H1661	H166	0.942500	0.269500	0.765900
H1671	H167	0.970000	0.103200	0.785600
H1681	H168	0.953100	0.070300	0.716500
H1691	H169	0.303600	0.498800	0.351000
H1701	H170	0.262100	0.648300	0.263300
H1711	H171	0.142800	0.709000	0.303600
H1721	H172	0.031000	0.824200	0.192600
H1731	H173	0.041600	0.831400	0.251400
H1741	H174	0.022100	0.765900	0.269500
H1751	H175	0.141200	0.785600	0.103200
H1761	H176	0.260100	0.716500	0.070300
H1771	H177	0.498800	0.303600	0.846600
H1781	H178	0.648300	0.262100	0.826300
H1791	H179	0.709000	0.142800	0.844600
H1801	H180	0.824200	0.031000	0.952200
H1811	H181	0.831400	0.041600	0.875600
H1821	H182	0.765900	0.022100	0.942500
H1831	H183	0.785600	0.141200	0.970000
H1841	H184	0.716500	0.260100	0.953100
H1851	H185	0.351000	0.846600	0.303600
H1861	H186	0.263300	0.826300	0.262100
H1871	H187	0.303600	0.844600	0.142800
H1881	H188	0.192600	0.952200	0.031000
H1891	H189	0.251400	0.875600	0.041600
H1901	H190	0.269500	0.942500	0.022100
H1911	H191	0.103200	0.970000	0.141200
H1921	H192	0.070300	0.953100	0.260100
C11	C1	0.009610	0.765050	0.824450
C21	C2	0.934120	0.816940	0.845240
C31	C3	0.885520	0.797000	0.913900
C41	C4	0.019450	0.573830	0.012630
C51	C5	0.994800	0.536960	0.084520
C61	C6	0.041700	0.493640	0.123680
C71	C7	0.017390	0.451790	0.201610
C81	C8	0.112730	0.492550	0.085650
C91	C9	0.132640	0.533220	0.013440
C101	C10	0.765050	0.009610	0.400890
C111	C11	0.816940	0.934120	0.403700
C121	C12	0.797000	0.885520	0.403580
C131	C13	0.573830	0.019450	0.394090
C141	C14	0.536960	0.994800	0.383720
C151	C15	0.493640	0.041700	0.340980
C161	C16	0.451790	0.017390	0.329210
C171	C17	0.492550	0.112730	0.309070
C181	C18	0.533220	0.132640	0.320700
C191	C19	0.824450	0.400890	0.009610
C201	C20	0.845240	0.403700	0.934120
C211	C21	0.913900	0.403580	0.885520
C221	C22	0.012630	0.394090	0.019450
C231	C23	0.084520	0.383720	0.994800
C241	C24	0.123680	0.340980	0.041700
C251	C25	0.201610	0.329210	0.017390
C261	C26	0.085650	0.309070	0.112730
C271	C27	0.013440	0.320700	0.132640
C281	C28	0.400890	0.824450	0.765050
C291	C29	0.403700	0.845240	0.816940
C301	C30	0.403580	0.913900	0.797000
C311	C31	0.394090	0.012630	0.573830
C321	C32	0.383720	0.084520	0.536960
C331	C33	0.340980	0.123680	0.493640
C341	C34	0.329210	0.201610	0.451790
C351	C35	0.309070	0.085650	0.492550
C361	C36	0.320700	0.013440	0.533220
C371	C37	0.009610	0.824450	0.400890
C381	C38	0.934120	0.845240	0.403700
C391	C39	0.885520	0.913900	0.403580
C401	C40	0.019450	0.012630	0.394090
C411	C41	0.994800	0.084520	0.383720
C421	C42	0.041700	0.123680	0.340980
C431	C43	0.017390	0.201610	0.329210
C441	C44	0.112730	0.085650	0.309070
C451	C45	0.132640	0.013440	0.320700
C461	C46	0.765050	0.400890	0.824450
C471	C47	0.816940	0.403700	0.845240
C481	C48	0.797000	0.403580	0.913900
C491	C49	0.573830	0.394090	0.012630
C501	C50	0.536960	0.383720	0.084520
C511	C51	0.493640	0.340980	0.123680
C521	C52	0.451790	0.329210	0.201610
C531	C53	0.492550	0.309070	0.085650
C541	C54	0.533220	0.320700	0.013440
C551	C55	0.824450	0.009610	0.765050
C561	C56	0.845240	0.934120	0.816940
C571	C57	0.913900	0.885520	0.797000
C581	C58	0.012630	0.019450	0.573830
C591	C59	0.084520	0.994800	0.536960
C601	C60	0.123680	0.041700	0.493640
C611	C61	0.201610	0.017390	0.451790
C621	C62	0.085650	0.112730	0.492550
C631	C63	0.013440	0.132640	0.533220
C641	C64	0.400890	0.765050	0.009610
C651	C65	0.403700	0.816940	0.934120
C661	C66	0.403580	0.797000	0.885520
C671	C67	0.394090	0.573830	0.019450
C681	C68	0.383720	0.536960	0.994800
C691	C69	0.340980	0.493640	0.041700
C701	C70	0.329210	0.451790	0.017390
C711	C71	0.309070	0.492550	0.112730
C721	C72	0.320700	0.533220	0.132640
C731	C73	0.009610	0.400890	0.765050
C741	C74	0.934120	0.403700	0.816940
C751	C75	0.885520	0.403580	0.797000
C761	C76	0.019450	0.394090	0.573830
C771	C77	0.994800	0.383720	0.536960
C781	C78	0.041700	0.340980	0.493640
C791	C79	0.017390	0.329210	0.451790
C801	C80	0.112730	0.309070	0.492550
C811	C81	0.132640	0.320700	0.533220
C821	C82	0.765050	0.824450	0.009610
C831	C83	0.816940	0.845240	0.934120
C841	C84	0.797000	0.913900	0.885520
C851	C85	0.573830	0.012630	0.019450
C861	C86	0.536960	0.084520	0.994800
C871	C87	0.493640	0.123680	0.041700
C881	C88	0.451790	0.201610	0.017390
C891	C89	0.492550	0.085650	0.112730
C901	C90	0.533220	0.013440	0.132640
C911	C91	0.824450	0.765050	0.400890
C921	C92	0.845240	0.816940	0.403700
C931	C93	0.913900	0.797000	0.403580
C941	C94	0.012630	0.573830	0.394090
C951	C95	0.084520	0.536960	0.383720
C961	C96	0.123680	0.493640	0.340980
C971	C97	0.201610	0.451790	0.329210
C981	C98	0.085650	0.492550	0.309070
C991	C99	0.013440	0.533220	0.320700
C1001	C100	0.400890	0.009610	0.824450
C1011	C101	0.403700	0.934120	0.845240
C1021	C102	0.403580	0.885520	0.913900
C1031	C103	0.394090	0.019450	0.012630
C1041	C104	0.383720	0.994800	0.084520
C1051	C105	0.340980	0.041700	0.123680
C1061	C106	0.329210	0.017390	0.201610
C1071	C107	0.309070	0.112730	0.085650
C1081	C108	0.320700	0.132640	0.013440
C1091	C109	0.484950	0.240390	0.425550
C1101	C110	0.433060	0.315880	0.404760
C1111	C111	0.453000	0.364480	0.336100
C1121	C112	0.676170	0.230550	0.237370
C1131	C113	0.713040	0.255200	0.165480
C1141	C114	0.756360	0.208300	0.126320
C1151	C115	0.798210	0.232610	0.048390
C1161	C116	0.757450	0.137270	0.164350
C1171	C117	0.716780	0.117360	0.236560
C1181	C118	0.240390	0.484950	0.849110
C1191	C119	0.315880	0.433060	0.846300
C1201	C120	0.364480	0.453000	0.846420
C1211	C121	0.230550	0.676170	0.855910
C1221	C122	0.255200	0.713040	0.866280
C1231	C123	0.208300	0.756360	0.909020
C1241	C124	0.232610	0.798210	0.920790
C1251	C125	0.137270	0.757450	0.940930
C1261	C126	0.117360	0.716780	0.929300
C1271	C127	0.849110	0.425550	0.240390
C1281	C128	0.846300	0.404760	0.315880
C1291	C129	0.846420	0.336100	0.364480
C1301	C130	0.855910	0.237370	0.230550
C1311	C131	0.866280	0.165480	0.255200
C1321	C132	0.909020	0.126320	0.208300
C1331	C133	0.920790	0.048390	0.232610
C1341	C134	0.940930	0.164350	0.137270
C1351	C135	0.929300	0.236560	0.117360
C1361	C136	0.425550	0.849110	0.484950
C1371	C137	0.404760	0.846300	0.433060
C1381	C138	0.336100	0.846420	0.453000
C1391	C139	0.237370	0.855910	0.676170
C1401	C140	0.165480	0.866280	0.713040
C1411	C141	0.126320	0.909020	0.756360
C1421	C142	0.048390	0.920790	0.798210
C1431	C143	0.164350	0.940930	0.757450
C1441	C144	0.236560	0.929300	0.716780
C1451	C145	0.425550	0.240390	0.849110
C1461	C146	0.404760	0.315880	0.846300
C1471	C147	0.336100	0.364480	0.846420
C1481	C148	0.237370	0.230550	0.855910
C1491	C149	0.165480	0.255200	0.866280
C1501	C150	0.126320	0.208300	0.909020
C1511	C151	0.048390	0.232610	0.920790
C1521	C152	0.164350	0.137270	0.940930
C1531	C153	0.236560	0.117360	0.929300
C1541	C154	0.849110	0.484950	0.425550
C1551	C155	0.846300	0.433060	0.404760
C1561	C156	0.846420	0.453000	0.336100
C1571	C157	0.855910	0.676170	0.237370
C1581	C158	0.866280	0.713040	0.165480
C1591	C159	0.909020	0.756360	0.126320
C1601	C160	0.920790	0.798210	0.048390
C1611	C161	0.940930	0.757450	0.164350
C1621	C162	0.929300	0.716780	0.236560
C1631	C163	0.240390	0.425550	0.484950
C1641	C164	0.315880	0.404760	0.433060
C1651	C165	0.364480	0.336100	0.453000
C1661	C166	0.230550	0.237370	0.676170
C1671	C167	0.255200	0.165480	0.713040
C1681	C168	0.208300	0.126320	0.756360
C1691	C169	0.232610	0.048390	0.798210
C1701	C170	0.137270	0.164350	0.757450
C1711	C171	0.117360	0.236560	0.716780
C1721	C172	0.484950	0.849110	0.240390
C1731	C173	0.433060	0.846300	0.315880
C1741	C174	0.453000	0.846420	0.364480
C1751	C175	0.676170	0.855910	0.230550
C1761	C176	0.713040	0.866280	0.255200
C1771	C177	0.756360	0.909020	0.208300
C1781	C178	0.798210	0.920790	0.232610
C1791	C179	0.757450	0.940930	0.137270
C1801	C180	0.716780	0.929300	0.117360
C1811	C181	0.849110	0.240390	0.484950
C1821	C182	0.846300	0.315880	0.433060
C1831	C183	0.846420	0.364480	0.453000
C1841	C184	0.855910	0.230550	0.676170
C1851	C185	0.866280	0.255200	0.713040
C1861	C186	0.909020	0.208300	0.756360
C1871	C187	0.920790	0.232610	0.798210
C1881	C188	0.940930	0.137270	0.757450
C1891	C189	0.929300	0.117360	0.716780
C1901	C190	0.425550	0.484950	0.240390
C1911	C191	0.404760	0.433060	0.315880
C1921	C192	0.336100	0.453000	0.364480
C1931	C193	0.237370	0.676170	0.230550
C1941	C194	0.165480	0.713040	0.255200
C1951	C195	0.126320	0.756360	0.208300
C1961	C196	0.048390	0.798210	0.232610
C1971	C197	0.164350	0.757450	0.137270
C1981	C198	0.236560	0.716780	0.117360
C1991	C199	0.484950	0.425550	0.849110
C2001	C200	0.433060	0.404760	0.846300
C2011	C201	0.453000	0.336100	0.846420
C2021	C202	0.676170	0.237370	0.855910
C2031	C203	0.713040	0.165480	0.866280
C2041	C204	0.756360	0.126320	0.909020
C2051	C205	0.798210	0.048390	0.920790
C2061	C206	0.757450	0.164350	0.940930
C2071	C207	0.716780	0.236560	0.929300
C2081	C208	0.240390	0.849110	0.425550
C2091	C209	0.315880	0.846300	0.404760
C2101	C210	0.364480	0.846420	0.336100
C2111	C211	0.230550	0.855910	0.237370
C2121	C212	0.255200	0.866280	0.165480
C2131	C213	0.208300	0.909020	0.126320
C2141	C214	0.232610	0.920790	0.048390
C2151	C215	0.137270	0.940930	0.164350
C2161	C216	0.117360	0.929300	0.236560
N11	N1	0.087630	0.572130	0.975890
N21	N2	0.572130	0.087630	0.364350
N31	N3	0.975890	0.364350	0.087630
N41	N4	0.364350	0.975890	0.572130
N51	N5	0.087630	0.975890	0.364350
N61	N6	0.572130	0.364350	0.975890
N71	N7	0.975890	0.087630	0.572130
N81	N8	0.364350	0.572130	0.087630
N91	N9	0.087630	0.364350	0.572130
N101	N10	0.572130	0.975890	0.087630
N111	N11	0.975890	0.572130	0.364350
N121	N12	0.364350	0.087630	0.975890
N131	N13	0.677870	0.162370	0.274110
N141	N14	0.162370	0.677870	0.885650
N151	N15	0.885650	0.274110	0.162370
N161	N16	0.274110	0.885650	0.677870
N171	N17	0.274110	0.162370	0.885650
N181	N18	0.885650	0.677870	0.274110
N191	N19	0.162370	0.274110	0.677870
N201	N20	0.677870	0.885650	0.162370
N211	N21	0.885650	0.162370	0.677870
N221	N22	0.274110	0.677870	0.162370
N231	N23	0.677870	0.274110	0.885650
N241	N24	0.162370	0.885650	0.274110
O11	O1	0.027180	0.707340	0.872800
O21	O2	0.050170	0.783850	0.760690
O31	O3	0.707340	0.027180	0.392680
O41	O4	0.783850	0.050170	0.405290
O51	O5	0.872800	0.392680	0.027180
O61	O6	0.760690	0.405290	0.050170
O71	O7	0.392680	0.872800	0.707340
O81	O8	0.405290	0.760690	0.783850
O91	O9	0.027180	0.872800	0.392680
O101	O10	0.050170	0.760690	0.405290
O111	O11	0.707340	0.392680	0.872800
O121	O12	0.783850	0.405290	0.760690
O131	O13	0.872800	0.027180	0.707340
O141	O14	0.760690	0.050170	0.783850
O151	O15	0.392680	0.707340	0.027180
O161	O16	0.405290	0.783850	0.050170
O171	O17	0.027180	0.392680	0.707340
O181	O18	0.050170	0.405290	0.783850
O191	O19	0.707340	0.872800	0.027180
O201	O20	0.783850	0.760690	0.050170
O211	O21	0.872800	0.707340	0.392680
O221	O22	0.760690	0.783850	0.405290
O231	O23	0.392680	0.027180	0.872800
O241	O24	0.405290	0.050170	0.760690
O251	O25	0.542660	0.222820	0.377200
O261	O26	0.466150	0.199830	0.489310
O271	O27	0.222820	0.542660	0.857320
O281	O28	0.199830	0.466150	0.844710
O291	O29	0.857320	0.377200	0.222820
O301	O30	0.844710	0.489310	0.199830
O311	O31	0.377200	0.857320	0.542660
O321	O32	0.489310	0.844710	0.466150
O331	O33	0.377200	0.222820	0.857320
O341	O34	0.489310	0.199830	0.844710
O351	O35	0.857320	0.542660	0.377200
O361	O36	0.844710	0.466150	0.489310
O371	O37	0.222820	0.377200	0.542660
O381	O38	0.199830	0.489310	0.466150
O391	O39	0.542660	0.857320	0.222820
O401	O40	0.466150	0.844710	0.199830
O411	O41	0.857320	0.222820	0.542660
O421	O42	0.844710	0.199830	0.466150
O431	O43	0.377200	0.542660	0.222820
O441	O44	0.489310	0.466150	0.199830
O451	O45	0.542660	0.377200	0.857320
O461	O46	0.466150	0.489310	0.844710
O471	O47	0.222820	0.857320	0.377200
O481	O48	0.199830	0.844710	0.489310
