data_HUYKER_clean_PM
_symmetry_space_group_name_H-M	'P1'
_cell_length_a	28.400000
_cell_length_b	28.400000
_cell_length_c	28.400000
_cell_angle_alpha	90.000000
_cell_angle_beta	90.000000
_cell_angle_gamma	90.000000
_symmetry_Int_Tables_number 1

loop_
_symmetry_equiv_pos_as_xyz
'x,y,z'

loop_
_atom_site_label
_atom_site_type_symbol
_atom_site_fract_x
_atom_site_fract_y
_atom_site_fract_z
C11	C1	0.462500	0.930600	0.098900
C21	C2	0.504300	0.944500	0.069500
C31	C3	0.516780	0.917890	0.030780
H11	H1	0.498800	0.891000	0.022400
C41	C4	0.333500	0.924500	0.152200
C51	C5	0.296600	0.906000	0.180400
H21	H2	0.290900	0.873100	0.171700
H31	H3	0.267900	0.924400	0.175300
H41	H4	0.305600	0.907700	0.213600
C61	C6	0.326500	0.968000	0.177600
H51	H5	0.349300	0.991500	0.166700
H61	H6	0.330900	0.962500	0.211300
H71	H7	0.294500	0.979600	0.171900
C71	C7	0.422000	0.753100	0.089400
H81	H8	0.417800	0.744500	0.121500
C81	C8	0.433800	0.719800	0.057800
H91	H9	0.438500	0.688600	0.068900
C91	C9	0.439100	0.727500	0.014800
H101	H10	0.446500	0.702900	0.993300
C101	C10	0.433600	0.773500	0.000100
H111	H11	0.437800	0.781100	0.967700
C111	C11	0.422100	0.808700	0.031500
H121	H12	0.418600	0.840300	0.020900
N11	N1	0.416130	0.798130	0.076500
O11	O1	0.443380	0.891960	0.088020
O21	O2	0.448440	0.957510	0.130870
O31	O3	0.378470	0.908760	0.166640
H131	H13	0.399200	0.920600	0.149100
C121	C12	0.037500	0.069400	0.598900
C131	C13	0.995700	0.055500	0.569500
C141	C14	0.983220	0.082110	0.530780
H141	H14	0.001200	0.109000	0.522400
C151	C15	0.166500	0.075500	0.652200
C161	C16	0.203400	0.094000	0.680400
H151	H15	0.209100	0.126900	0.671700
H161	H16	0.232100	0.075600	0.675300
H171	H17	0.194400	0.092300	0.713600
C171	C17	0.173500	0.032000	0.677600
H181	H18	0.150700	0.008500	0.666700
H191	H19	0.169100	0.037500	0.711300
H201	H20	0.205500	0.020400	0.671900
C181	C18	0.078000	0.246900	0.589400
H211	H21	0.082200	0.255500	0.621500
C191	C19	0.066200	0.280200	0.557800
H221	H22	0.061500	0.311400	0.568900
C201	C20	0.060900	0.272500	0.514800
H231	H23	0.053500	0.297100	0.493300
C211	C21	0.066400	0.226500	0.500100
H241	H24	0.062200	0.218900	0.467700
C221	C22	0.077900	0.191300	0.531500
H251	H25	0.081400	0.159700	0.520900
N21	N2	0.083870	0.201870	0.576500
O41	O4	0.056620	0.108040	0.588020
O51	O5	0.051560	0.042490	0.630870
O61	O6	0.121530	0.091240	0.666640
H261	H26	0.100800	0.079400	0.649100
C231	C23	0.537500	0.430600	0.401100
C241	C24	0.495700	0.444500	0.430500
C251	C25	0.483220	0.417890	0.469220
H271	H27	0.501200	0.391000	0.477600
C261	C26	0.666500	0.424500	0.347800
C271	C27	0.703400	0.406000	0.319600
H281	H28	0.709100	0.373100	0.328300
H291	H29	0.732100	0.424400	0.324700
H301	H30	0.694400	0.407700	0.286400
C281	C28	0.673500	0.468000	0.322400
H311	H31	0.650700	0.491500	0.333300
H321	H32	0.669100	0.462500	0.288700
H331	H33	0.705500	0.479600	0.328100
C291	C29	0.578000	0.253100	0.410600
H341	H34	0.582200	0.244500	0.378500
C301	C30	0.566200	0.219800	0.442200
H351	H35	0.561500	0.188600	0.431100
C311	C31	0.560900	0.227500	0.485200
H361	H36	0.553500	0.202900	0.506700
C321	C32	0.566400	0.273500	0.499900
H371	H37	0.562200	0.281100	0.532300
C331	C33	0.577900	0.308700	0.468500
H381	H38	0.581400	0.340300	0.479100
N31	N3	0.583870	0.298130	0.423500
O71	O7	0.556620	0.391960	0.411980
O81	O8	0.551560	0.457510	0.369130
O91	O9	0.621530	0.408760	0.333360
H391	H39	0.600800	0.420600	0.350900
C341	C34	0.962500	0.569400	0.901100
C351	C35	0.004300	0.555500	0.930500
C361	C36	0.016780	0.582110	0.969220
H401	H40	0.998800	0.609000	0.977600
C371	C37	0.833500	0.575500	0.847800
C381	C38	0.796600	0.594000	0.819600
H411	H41	0.790900	0.626900	0.828300
H421	H42	0.767900	0.575600	0.824700
H431	H43	0.805600	0.592300	0.786400
C391	C39	0.826500	0.532000	0.822400
H441	H44	0.849300	0.508500	0.833300
H451	H45	0.830900	0.537500	0.788700
H461	H46	0.794500	0.520400	0.828100
C401	C40	0.922000	0.746900	0.910600
H471	H47	0.917800	0.755500	0.878500
C411	C41	0.933800	0.780200	0.942200
H481	H48	0.938500	0.811400	0.931100
C421	C42	0.939100	0.772500	0.985200
H491	H49	0.946500	0.797100	0.006700
C431	C43	0.933600	0.726500	0.999900
H501	H50	0.937800	0.718900	0.032300
C441	C44	0.922100	0.691300	0.968500
H511	H51	0.918600	0.659700	0.979100
N41	N4	0.916130	0.701870	0.923500
O101	O10	0.943380	0.608040	0.911980
O111	O11	0.948440	0.542490	0.869130
O121	O12	0.878470	0.591240	0.833360
H521	H52	0.899200	0.579400	0.850900
C451	C45	0.098900	0.462500	0.930600
C461	C46	0.069500	0.504300	0.944500
C471	C47	0.030780	0.516780	0.917890
H531	H53	0.022400	0.498800	0.891000
C481	C48	0.152200	0.333500	0.924500
C491	C49	0.180400	0.296600	0.906000
H541	H54	0.171700	0.290900	0.873100
H551	H55	0.175300	0.267900	0.924400
H561	H56	0.213600	0.305600	0.907700
C501	C50	0.177600	0.326500	0.968000
H571	H57	0.166700	0.349300	0.991500
H581	H58	0.211300	0.330900	0.962500
H591	H59	0.171900	0.294500	0.979600
C511	C51	0.089400	0.422000	0.753100
H601	H60	0.121500	0.417800	0.744500
C521	C52	0.057800	0.433800	0.719800
H611	H61	0.068900	0.438500	0.688600
C531	C53	0.014800	0.439100	0.727500
H621	H62	0.993300	0.446500	0.702900
C541	C54	0.000100	0.433600	0.773500
H631	H63	0.967700	0.437800	0.781100
C551	C55	0.031500	0.422100	0.808700
H641	H64	0.020900	0.418600	0.840300
N51	N5	0.076500	0.416130	0.798130
O131	O13	0.088020	0.443380	0.891960
O141	O14	0.130870	0.448440	0.957510
O151	O15	0.166640	0.378470	0.908760
H651	H65	0.149100	0.399200	0.920600
C561	C56	0.598900	0.037500	0.069400
C571	C57	0.569500	0.995700	0.055500
C581	C58	0.530780	0.983220	0.082110
H661	H66	0.522400	0.001200	0.109000
C591	C59	0.652200	0.166500	0.075500
C601	C60	0.680400	0.203400	0.094000
H671	H67	0.671700	0.209100	0.126900
H681	H68	0.675300	0.232100	0.075600
H691	H69	0.713600	0.194400	0.092300
C611	C61	0.677600	0.173500	0.032000
H701	H70	0.666700	0.150700	0.008500
H711	H71	0.711300	0.169100	0.037500
H721	H72	0.671900	0.205500	0.020400
C621	C62	0.589400	0.078000	0.246900
H731	H73	0.621500	0.082200	0.255500
C631	C63	0.557800	0.066200	0.280200
H741	H74	0.568900	0.061500	0.311400
C641	C64	0.514800	0.060900	0.272500
H751	H75	0.493300	0.053500	0.297100
C651	C65	0.500100	0.066400	0.226500
H761	H76	0.467700	0.062200	0.218900
C661	C66	0.531500	0.077900	0.191300
H771	H77	0.520900	0.081400	0.159700
N61	N6	0.576500	0.083870	0.201870
O161	O16	0.588020	0.056620	0.108040
O171	O17	0.630870	0.051560	0.042490
O181	O18	0.666640	0.121530	0.091240
H781	H78	0.649100	0.100800	0.079400
C671	C67	0.401100	0.537500	0.430600
C681	C68	0.430500	0.495700	0.444500
C691	C69	0.469220	0.483220	0.417890
H791	H79	0.477600	0.501200	0.391000
C701	C70	0.347800	0.666500	0.424500
C711	C71	0.319600	0.703400	0.406000
H801	H80	0.328300	0.709100	0.373100
H811	H81	0.324700	0.732100	0.424400
H821	H82	0.286400	0.694400	0.407700
C721	C72	0.322400	0.673500	0.468000
H831	H83	0.333300	0.650700	0.491500
H841	H84	0.288700	0.669100	0.462500
H851	H85	0.328100	0.705500	0.479600
C731	C73	0.410600	0.578000	0.253100
H861	H86	0.378500	0.582200	0.244500
C741	C74	0.442200	0.566200	0.219800
H871	H87	0.431100	0.561500	0.188600
C751	C75	0.485200	0.560900	0.227500
H881	H88	0.506700	0.553500	0.202900
C761	C76	0.499900	0.566400	0.273500
H891	H89	0.532300	0.562200	0.281100
C771	C77	0.468500	0.577900	0.308700
H901	H90	0.479100	0.581400	0.340300
N71	N7	0.423500	0.583870	0.298130
O191	O19	0.411980	0.556620	0.391960
O201	O20	0.369130	0.551560	0.457510
O211	O21	0.333360	0.621530	0.408760
H911	H91	0.350900	0.600800	0.420600
C781	C78	0.901100	0.962500	0.569400
C791	C79	0.930500	0.004300	0.555500
C801	C80	0.969220	0.016780	0.582110
H921	H92	0.977600	0.998800	0.609000
C811	C81	0.847800	0.833500	0.575500
C821	C82	0.819600	0.796600	0.594000
H931	H93	0.828300	0.790900	0.626900
H941	H94	0.824700	0.767900	0.575600
H951	H95	0.786400	0.805600	0.592300
C831	C83	0.822400	0.826500	0.532000
H961	H96	0.833300	0.849300	0.508500
H971	H97	0.788700	0.830900	0.537500
H981	H98	0.828100	0.794500	0.520400
C841	C84	0.910600	0.922000	0.746900
H991	H99	0.878500	0.917800	0.755500
C851	C85	0.942200	0.933800	0.780200
H1001	H100	0.931100	0.938500	0.811400
C861	C86	0.985200	0.939100	0.772500
H1011	H101	0.006700	0.946500	0.797100
C871	C87	0.999900	0.933600	0.726500
H1021	H102	0.032300	0.937800	0.718900
C881	C88	0.968500	0.922100	0.691300
H1031	H103	0.979100	0.918600	0.659700
N81	N8	0.923500	0.916130	0.701870
O221	O22	0.911980	0.943380	0.608040
O231	O23	0.869130	0.948440	0.542490
O241	O24	0.833360	0.878470	0.591240
H1041	H104	0.850900	0.899200	0.579400
C891	C89	0.930600	0.098900	0.462500
C901	C90	0.944500	0.069500	0.504300
C911	C91	0.917890	0.030780	0.516780
H1051	H105	0.891000	0.022400	0.498800
C921	C92	0.924500	0.152200	0.333500
C931	C93	0.906000	0.180400	0.296600
H1061	H106	0.873100	0.171700	0.290900
H1071	H107	0.924400	0.175300	0.267900
H1081	H108	0.907700	0.213600	0.305600
C941	C94	0.968000	0.177600	0.326500
H1091	H109	0.991500	0.166700	0.349300
H1101	H110	0.962500	0.211300	0.330900
H1111	H111	0.979600	0.171900	0.294500
C951	C95	0.753100	0.089400	0.422000
H1121	H112	0.744500	0.121500	0.417800
C961	C96	0.719800	0.057800	0.433800
H1131	H113	0.688600	0.068900	0.438500
C971	C97	0.727500	0.014800	0.439100
H1141	H114	0.702900	0.993300	0.446500
C981	C98	0.773500	0.000100	0.433600
H1151	H115	0.781100	0.967700	0.437800
C991	C99	0.808700	0.031500	0.422100
H1161	H116	0.840300	0.020900	0.418600
N91	N9	0.798130	0.076500	0.416130
O251	O25	0.891960	0.088020	0.443380
O261	O26	0.957510	0.130870	0.448440
O271	O27	0.908760	0.166640	0.378470
H1171	H117	0.920600	0.149100	0.399200
C1001	C100	0.069400	0.598900	0.037500
C1011	C101	0.055500	0.569500	0.995700
C1021	C102	0.082110	0.530780	0.983220
H1181	H118	0.109000	0.522400	0.001200
C1031	C103	0.075500	0.652200	0.166500
C1041	C104	0.094000	0.680400	0.203400
H1191	H119	0.126900	0.671700	0.209100
H1201	H120	0.075600	0.675300	0.232100
H1211	H121	0.092300	0.713600	0.194400
C1051	C105	0.032000	0.677600	0.173500
H1221	H122	0.008500	0.666700	0.150700
H1231	H123	0.037500	0.711300	0.169100
H1241	H124	0.020400	0.671900	0.205500
C1061	C106	0.246900	0.589400	0.078000
H1251	H125	0.255500	0.621500	0.082200
C1071	C107	0.280200	0.557800	0.066200
H1261	H126	0.311400	0.568900	0.061500
C1081	C108	0.272500	0.514800	0.060900
H1271	H127	0.297100	0.493300	0.053500
C1091	C109	0.226500	0.500100	0.066400
H1281	H128	0.218900	0.467700	0.062200
C1101	C110	0.191300	0.531500	0.077900
H1291	H129	0.159700	0.520900	0.081400
N101	N10	0.201870	0.576500	0.083870
O281	O28	0.108040	0.588020	0.056620
O291	O29	0.042490	0.630870	0.051560
O301	O30	0.091240	0.666640	0.121530
H1301	H130	0.079400	0.649100	0.100800
C1111	C111	0.430600	0.401100	0.537500
C1121	C112	0.444500	0.430500	0.495700
C1131	C113	0.417890	0.469220	0.483220
H1311	H131	0.391000	0.477600	0.501200
C1141	C114	0.424500	0.347800	0.666500
C1151	C115	0.406000	0.319600	0.703400
H1321	H132	0.373100	0.328300	0.709100
H1331	H133	0.424400	0.324700	0.732100
H1341	H134	0.407700	0.286400	0.694400
C1161	C116	0.468000	0.322400	0.673500
H1351	H135	0.491500	0.333300	0.650700
H1361	H136	0.462500	0.288700	0.669100
H1371	H137	0.479600	0.328100	0.705500
C1171	C117	0.253100	0.410600	0.578000
H1381	H138	0.244500	0.378500	0.582200
C1181	C118	0.219800	0.442200	0.566200
H1391	H139	0.188600	0.431100	0.561500
C1191	C119	0.227500	0.485200	0.560900
H1401	H140	0.202900	0.506700	0.553500
C1201	C120	0.273500	0.499900	0.566400
H1411	H141	0.281100	0.532300	0.562200
C1211	C121	0.308700	0.468500	0.577900
H1421	H142	0.340300	0.479100	0.581400
N111	N11	0.298130	0.423500	0.583870
O311	O31	0.391960	0.411980	0.556620
O321	O32	0.457510	0.369130	0.551560
O331	O33	0.408760	0.333360	0.621530
H1431	H143	0.420600	0.350900	0.600800
C1221	C122	0.569400	0.901100	0.962500
C1231	C123	0.555500	0.930500	0.004300
C1241	C124	0.582110	0.969220	0.016780
H1441	H144	0.609000	0.977600	0.998800
C1251	C125	0.575500	0.847800	0.833500
C1261	C126	0.594000	0.819600	0.796600
H1451	H145	0.626900	0.828300	0.790900
H1461	H146	0.575600	0.824700	0.767900
H1471	H147	0.592300	0.786400	0.805600
C1271	C127	0.532000	0.822400	0.826500
H1481	H148	0.508500	0.833300	0.849300
H1491	H149	0.537500	0.788700	0.830900
H1501	H150	0.520400	0.828100	0.794500
C1281	C128	0.746900	0.910600	0.922000
H1511	H151	0.755500	0.878500	0.917800
C1291	C129	0.780200	0.942200	0.933800
H1521	H152	0.811400	0.931100	0.938500
C1301	C130	0.772500	0.985200	0.939100
H1531	H153	0.797100	0.006700	0.946500
C1311	C131	0.726500	0.999900	0.933600
H1541	H154	0.718900	0.032300	0.937800
C1321	C132	0.691300	0.968500	0.922100
H1551	H155	0.659700	0.979100	0.918600
N121	N12	0.701870	0.923500	0.916130
O341	O34	0.608040	0.911980	0.943380
O351	O35	0.542490	0.869130	0.948440
O361	O36	0.591240	0.833360	0.878470
H1561	H156	0.579400	0.850900	0.899200
C1331	C133	0.180600	0.212500	0.651100
C1341	C134	0.194500	0.254300	0.680500
C1351	C135	0.167890	0.266780	0.719220
H1571	H157	0.141000	0.248800	0.727600
C1361	C136	0.174500	0.083500	0.597800
C1371	C137	0.156000	0.046600	0.569600
H1581	H158	0.123100	0.040900	0.578300
H1591	H159	0.174400	0.017900	0.574700
H1601	H160	0.157700	0.055600	0.536400
C1381	C138	0.218000	0.076500	0.572400
H1611	H161	0.241500	0.099300	0.583300
H1621	H162	0.212500	0.080900	0.538700
H1631	H163	0.229600	0.044500	0.578100
C1391	C139	0.003100	0.172000	0.660600
H1641	H164	0.994500	0.167800	0.628500
C1401	C140	0.969800	0.183800	0.692200
H1651	H165	0.938600	0.188500	0.681100
C1411	C141	0.977500	0.189100	0.735200
H1661	H166	0.952900	0.196500	0.756700
C1421	C142	0.023500	0.183600	0.749900
H1671	H167	0.031100	0.187800	0.782300
C1431	C143	0.058700	0.172100	0.718500
H1681	H168	0.090300	0.168600	0.729100
N131	N13	0.048130	0.166130	0.673500
O371	O37	0.141960	0.193380	0.661980
O381	O38	0.207510	0.198440	0.619130
O391	O39	0.158760	0.128470	0.583360
H1691	H169	0.170600	0.149200	0.600900
C1441	C144	0.319400	0.787500	0.151100
C1451	C145	0.305500	0.745700	0.180500
C1461	C146	0.332110	0.733220	0.219220
H1701	H170	0.359000	0.751200	0.227600
C1471	C147	0.325500	0.916500	0.097800
C1481	C148	0.344000	0.953400	0.069600
H1711	H171	0.376900	0.959100	0.078300
H1721	H172	0.325600	0.982100	0.074700
H1731	H173	0.342300	0.944400	0.036400
C1491	C149	0.282000	0.923500	0.072400
H1741	H174	0.258500	0.900700	0.083300
H1751	H175	0.287500	0.919100	0.038700
H1761	H176	0.270400	0.955500	0.078100
C1501	C150	0.496900	0.828000	0.160600
H1771	H177	0.505500	0.832200	0.128500
C1511	C151	0.530200	0.816200	0.192200
H1781	H178	0.561400	0.811500	0.181100
C1521	C152	0.522500	0.810900	0.235200
H1791	H179	0.547100	0.803500	0.256700
C1531	C153	0.476500	0.816400	0.249900
H1801	H180	0.468900	0.812200	0.282300
C1541	C154	0.441300	0.827900	0.218500
H1811	H181	0.409700	0.831400	0.229100
N141	N14	0.451870	0.833870	0.173500
O401	O40	0.358040	0.806620	0.161980
O411	O41	0.292490	0.801560	0.119130
O421	O42	0.341240	0.871530	0.083360
H1821	H182	0.329400	0.850800	0.100900
C1551	C155	0.680600	0.287500	0.348900
C1561	C156	0.694500	0.245700	0.319500
C1571	C157	0.667890	0.233220	0.280780
H1831	H183	0.641000	0.251200	0.272400
C1581	C158	0.674500	0.416500	0.402200
C1591	C159	0.656000	0.453400	0.430400
H1841	H184	0.623100	0.459100	0.421700
H1851	H185	0.674400	0.482100	0.425300
H1861	H186	0.657700	0.444400	0.463600
C1601	C160	0.718000	0.423500	0.427600
H1871	H187	0.741500	0.400700	0.416700
H1881	H188	0.712500	0.419100	0.461300
H1891	H189	0.729600	0.455500	0.421900
C1611	C161	0.503100	0.328000	0.339400
H1901	H190	0.494500	0.332200	0.371500
C1621	C162	0.469800	0.316200	0.307800
H1911	H191	0.438600	0.311500	0.318900
C1631	C163	0.477500	0.310900	0.264800
H1921	H192	0.452900	0.303500	0.243300
C1641	C164	0.523500	0.316400	0.250100
H1931	H193	0.531100	0.312200	0.217700
C1651	C165	0.558700	0.327900	0.281500
H1941	H194	0.590300	0.331400	0.270900
N151	N15	0.548130	0.333870	0.326500
O431	O43	0.641960	0.306620	0.338020
O441	O44	0.707510	0.301560	0.380870
O451	O45	0.658760	0.371530	0.416640
H1951	H195	0.670600	0.350800	0.399100
C1661	C166	0.819400	0.712500	0.848900
C1671	C167	0.805500	0.754300	0.819500
C1681	C168	0.832110	0.766780	0.780780
H1961	H196	0.859000	0.748800	0.772400
C1691	C169	0.825500	0.583500	0.902200
C1701	C170	0.844000	0.546600	0.930400
H1971	H197	0.876900	0.540900	0.921700
H1981	H198	0.825600	0.517900	0.925300
H1991	H199	0.842300	0.555600	0.963600
C1711	C171	0.782000	0.576500	0.927600
H2001	H200	0.758500	0.599300	0.916700
H2011	H201	0.787500	0.580900	0.961300
H2021	H202	0.770400	0.544500	0.921900
C1721	C172	0.996900	0.672000	0.839400
H2031	H203	0.005500	0.667800	0.871500
C1731	C173	0.030200	0.683800	0.807800
H2041	H204	0.061400	0.688500	0.818900
C1741	C174	0.022500	0.689100	0.764800
H2051	H205	0.047100	0.696500	0.743300
C1751	C175	0.976500	0.683600	0.750100
H2061	H206	0.968900	0.687800	0.717700
C1761	C176	0.941300	0.672100	0.781500
H2071	H207	0.909700	0.668600	0.770900
N161	N16	0.951870	0.666130	0.826500
O461	O46	0.858040	0.693380	0.838020
O471	O47	0.792490	0.698440	0.880870
O481	O48	0.841240	0.628470	0.916640
H2081	H208	0.829400	0.649200	0.899100
C1771	C177	0.712500	0.848900	0.819400
C1781	C178	0.754300	0.819500	0.805500
C1791	C179	0.766780	0.780780	0.832110
H2091	H209	0.748800	0.772400	0.859000
C1801	C180	0.583500	0.902200	0.825500
C1811	C181	0.546600	0.930400	0.844000
H2101	H210	0.540900	0.921700	0.876900
H2111	H211	0.517900	0.925300	0.825600
H2121	H212	0.555600	0.963600	0.842300
C1821	C182	0.576500	0.927600	0.782000
H2131	H213	0.599300	0.916700	0.758500
H2141	H214	0.580900	0.961300	0.787500
H2151	H215	0.544500	0.921900	0.770400
C1831	C183	0.672000	0.839400	0.996900
H2161	H216	0.667800	0.871500	0.005500
C1841	C184	0.683800	0.807800	0.030200
H2171	H217	0.688500	0.818900	0.061400
C1851	C185	0.689100	0.764800	0.022500
H2181	H218	0.696500	0.743300	0.047100
C1861	C186	0.683600	0.750100	0.976500
H2191	H219	0.687800	0.717700	0.968900
C1871	C187	0.672100	0.781500	0.941300
H2201	H220	0.668600	0.770900	0.909700
N171	N17	0.666130	0.826500	0.951870
O491	O49	0.693380	0.838020	0.858040
O501	O50	0.698440	0.880870	0.792490
O511	O51	0.628470	0.916640	0.841240
H2211	H221	0.649200	0.899100	0.829400
C1881	C188	0.287500	0.348900	0.680600
C1891	C189	0.245700	0.319500	0.694500
C1901	C190	0.233220	0.280780	0.667890
H2221	H222	0.251200	0.272400	0.641000
C1911	C191	0.416500	0.402200	0.674500
C1921	C192	0.453400	0.430400	0.656000
H2231	H223	0.459100	0.421700	0.623100
H2241	H224	0.482100	0.425300	0.674400
H2251	H225	0.444400	0.463600	0.657700
C1931	C193	0.423500	0.427600	0.718000
H2261	H226	0.400700	0.416700	0.741500
H2271	H227	0.419100	0.461300	0.712500
H2281	H228	0.455500	0.421900	0.729600
C1941	C194	0.328000	0.339400	0.503100
H2291	H229	0.332200	0.371500	0.494500
C1951	C195	0.316200	0.307800	0.469800
H2301	H230	0.311500	0.318900	0.438600
C1961	C196	0.310900	0.264800	0.477500
H2311	H231	0.303500	0.243300	0.452900
C1971	C197	0.316400	0.250100	0.523500
H2321	H232	0.312200	0.217700	0.531100
C1981	C198	0.327900	0.281500	0.558700
H2331	H233	0.331400	0.270900	0.590300
N181	N18	0.333870	0.326500	0.548130
O521	O52	0.306620	0.338020	0.641960
O531	O53	0.301560	0.380870	0.707510
O541	O54	0.371530	0.416640	0.658760
H2341	H234	0.350800	0.399100	0.670600
C1991	C199	0.787500	0.151100	0.319400
C2001	C200	0.745700	0.180500	0.305500
C2011	C201	0.733220	0.219220	0.332110
H2351	H235	0.751200	0.227600	0.359000
C2021	C202	0.916500	0.097800	0.325500
C2031	C203	0.953400	0.069600	0.344000
H2361	H236	0.959100	0.078300	0.376900
H2371	H237	0.982100	0.074700	0.325600
H2381	H238	0.944400	0.036400	0.342300
C2041	C204	0.923500	0.072400	0.282000
H2391	H239	0.900700	0.083300	0.258500
H2401	H240	0.919100	0.038700	0.287500
H2411	H241	0.955500	0.078100	0.270400
C2051	C205	0.828000	0.160600	0.496900
H2421	H242	0.832200	0.128500	0.505500
C2061	C206	0.816200	0.192200	0.530200
H2431	H243	0.811500	0.181100	0.561400
C2071	C207	0.810900	0.235200	0.522500
H2441	H244	0.803500	0.256700	0.547100
C2081	C208	0.816400	0.249900	0.476500
H2451	H245	0.812200	0.282300	0.468900
C2091	C209	0.827900	0.218500	0.441300
H2461	H246	0.831400	0.229100	0.409700
N191	N19	0.833870	0.173500	0.451870
O551	O55	0.806620	0.161980	0.358040
O561	O56	0.801560	0.119130	0.292490
O571	O57	0.871530	0.083360	0.341240
H2471	H247	0.850800	0.100900	0.329400
C2101	C210	0.212500	0.651100	0.180600
C2111	C211	0.254300	0.680500	0.194500
C2121	C212	0.266780	0.719220	0.167890
H2481	H248	0.248800	0.727600	0.141000
C2131	C213	0.083500	0.597800	0.174500
C2141	C214	0.046600	0.569600	0.156000
H2491	H249	0.040900	0.578300	0.123100
H2501	H250	0.017900	0.574700	0.174400
H2511	H251	0.055600	0.536400	0.157700
C2151	C215	0.076500	0.572400	0.218000
H2521	H252	0.099300	0.583300	0.241500
H2531	H253	0.080900	0.538700	0.212500
H2541	H254	0.044500	0.578100	0.229600
C2161	C216	0.172000	0.660600	0.003100
H2551	H255	0.167800	0.628500	0.994500
C2171	C217	0.183800	0.692200	0.969800
H2561	H256	0.188500	0.681100	0.938600
C2181	C218	0.189100	0.735200	0.977500
H2571	H257	0.196500	0.756700	0.952900
C2191	C219	0.183600	0.749900	0.023500
H2581	H258	0.187800	0.782300	0.031100
C2201	C220	0.172100	0.718500	0.058700
H2591	H259	0.168600	0.729100	0.090300
N201	N20	0.166130	0.673500	0.048130
O581	O58	0.193380	0.661980	0.141960
O591	O59	0.198440	0.619130	0.207510
O601	O60	0.128470	0.583360	0.158760
H2601	H260	0.149200	0.600900	0.170600
C2211	C221	0.348900	0.680600	0.287500
C2221	C222	0.319500	0.694500	0.245700
C2231	C223	0.280780	0.667890	0.233220
H2611	H261	0.272400	0.641000	0.251200
C2241	C224	0.402200	0.674500	0.416500
C2251	C225	0.430400	0.656000	0.453400
H2621	H262	0.421700	0.623100	0.459100
H2631	H263	0.425300	0.674400	0.482100
H2641	H264	0.463600	0.657700	0.444400
C2261	C226	0.427600	0.718000	0.423500
H2651	H265	0.416700	0.741500	0.400700
H2661	H266	0.461300	0.712500	0.419100
H2671	H267	0.421900	0.729600	0.455500
C2271	C227	0.339400	0.503100	0.328000
H2681	H268	0.371500	0.494500	0.332200
C2281	C228	0.307800	0.469800	0.316200
H2691	H269	0.318900	0.438600	0.311500
C2291	C229	0.264800	0.477500	0.310900
H2701	H270	0.243300	0.452900	0.303500
C2301	C230	0.250100	0.523500	0.316400
H2711	H271	0.217700	0.531100	0.312200
C2311	C231	0.281500	0.558700	0.327900
H2721	H272	0.270900	0.590300	0.331400
N211	N21	0.326500	0.548130	0.333870
O611	O61	0.338020	0.641960	0.306620
O621	O62	0.380870	0.707510	0.301560
O631	O63	0.416640	0.658760	0.371530
H2731	H273	0.399100	0.670600	0.350800
C2321	C232	0.848900	0.819400	0.712500
C2331	C233	0.819500	0.805500	0.754300
C2341	C234	0.780780	0.832110	0.766780
H2741	H274	0.772400	0.859000	0.748800
C2351	C235	0.902200	0.825500	0.583500
C2361	C236	0.930400	0.844000	0.546600
H2751	H275	0.921700	0.876900	0.540900
H2761	H276	0.925300	0.825600	0.517900
H2771	H277	0.963600	0.842300	0.555600
C2371	C237	0.927600	0.782000	0.576500
H2781	H278	0.916700	0.758500	0.599300
H2791	H279	0.961300	0.787500	0.580900
H2801	H280	0.921900	0.770400	0.544500
C2381	C238	0.839400	0.996900	0.672000
H2811	H281	0.871500	0.005500	0.667800
C2391	C239	0.807800	0.030200	0.683800
H2821	H282	0.818900	0.061400	0.688500
C2401	C240	0.764800	0.022500	0.689100
H2831	H283	0.743300	0.047100	0.696500
C2411	C241	0.750100	0.976500	0.683600
H2841	H284	0.717700	0.968900	0.687800
C2421	C242	0.781500	0.941300	0.672100
H2851	H285	0.770900	0.909700	0.668600
N221	N22	0.826500	0.951870	0.666130
O641	O64	0.838020	0.858040	0.693380
O651	O65	0.880870	0.792490	0.698440
O661	O66	0.916640	0.841240	0.628470
H2861	H286	0.899100	0.829400	0.649200
C2431	C243	0.651100	0.180600	0.212500
C2441	C244	0.680500	0.194500	0.254300
C2451	C245	0.719220	0.167890	0.266780
H2871	H287	0.727600	0.141000	0.248800
C2461	C246	0.597800	0.174500	0.083500
C2471	C247	0.569600	0.156000	0.046600
H2881	H288	0.578300	0.123100	0.040900
H2891	H289	0.574700	0.174400	0.017900
H2901	H290	0.536400	0.157700	0.055600
C2481	C248	0.572400	0.218000	0.076500
H2911	H291	0.583300	0.241500	0.099300
H2921	H292	0.538700	0.212500	0.080900
H2931	H293	0.578100	0.229600	0.044500
C2491	C249	0.660600	0.003100	0.172000
H2941	H294	0.628500	0.994500	0.167800
C2501	C250	0.692200	0.969800	0.183800
H2951	H295	0.681100	0.938600	0.188500
C2511	C251	0.735200	0.977500	0.189100
H2961	H296	0.756700	0.952900	0.196500
C2521	C252	0.749900	0.023500	0.183600
H2971	H297	0.782300	0.031100	0.187800
C2531	C253	0.718500	0.058700	0.172100
H2981	H298	0.729100	0.090300	0.168600
N231	N23	0.673500	0.048130	0.166130
O671	O67	0.661980	0.141960	0.193380
O681	O68	0.619130	0.207510	0.198440
O691	O69	0.583360	0.158760	0.128470
H2991	H299	0.600900	0.170600	0.149200
C2541	C254	0.151100	0.319400	0.787500
C2551	C255	0.180500	0.305500	0.745700
C2561	C256	0.219220	0.332110	0.733220
H3001	H300	0.227600	0.359000	0.751200
C2571	C257	0.097800	0.325500	0.916500
C2581	C258	0.069600	0.344000	0.953400
H3011	H301	0.078300	0.376900	0.959100
H3021	H302	0.074700	0.325600	0.982100
H3031	H303	0.036400	0.342300	0.944400
C2591	C259	0.072400	0.282000	0.923500
H3041	H304	0.083300	0.258500	0.900700
H3051	H305	0.038700	0.287500	0.919100
H3061	H306	0.078100	0.270400	0.955500
C2601	C260	0.160600	0.496900	0.828000
H3071	H307	0.128500	0.505500	0.832200
C2611	C261	0.192200	0.530200	0.816200
H3081	H308	0.181100	0.561400	0.811500
C2621	C262	0.235200	0.522500	0.810900
H3091	H309	0.256700	0.547100	0.803500
C2631	C263	0.249900	0.476500	0.816400
H3101	H310	0.282300	0.468900	0.812200
C2641	C264	0.218500	0.441300	0.827900
H3111	H311	0.229100	0.409700	0.831400
N241	N24	0.173500	0.451870	0.833870
O701	O70	0.161980	0.358040	0.806620
O711	O71	0.119130	0.292490	0.801560
O721	O72	0.083360	0.341240	0.871530
H3121	H312	0.100900	0.329400	0.850800
Ni11	Ni1	0.399000	0.851000	0.125000
Ni21	Ni2	0.101000	0.149000	0.625000
Ni31	Ni3	0.601000	0.351000	0.375000
Ni41	Ni4	0.899000	0.649000	0.875000
Ni51	Ni5	0.125000	0.399000	0.851000
Ni61	Ni6	0.625000	0.101000	0.149000
Ni71	Ni7	0.375000	0.601000	0.351000
Ni81	Ni8	0.875000	0.899000	0.649000
Ni91	Ni9	0.851000	0.125000	0.399000
Ni101	Ni10	0.149000	0.625000	0.101000
Ni111	Ni11	0.351000	0.375000	0.601000
Ni121	Ni12	0.649000	0.875000	0.899000
C2651	C265	0.962500	0.430600	0.598900
C2661	C266	0.004300	0.444500	0.569500
C2671	C267	0.016780	0.417890	0.530780
H3131	H313	0.998800	0.391000	0.522400
C2681	C268	0.833500	0.424500	0.652200
C2691	C269	0.796600	0.406000	0.680400
H3141	H314	0.790900	0.373100	0.671700
H3151	H315	0.767900	0.424400	0.675300
H3161	H316	0.805600	0.407700	0.713600
C2701	C270	0.826500	0.468000	0.677600
H3171	H317	0.849300	0.491500	0.666700
H3181	H318	0.830900	0.462500	0.711300
H3191	H319	0.794500	0.479600	0.671900
C2711	C271	0.922000	0.253100	0.589400
H3201	H320	0.917800	0.244500	0.621500
C2721	C272	0.933800	0.219800	0.557800
H3211	H321	0.938500	0.188600	0.568900
C2731	C273	0.939100	0.227500	0.514800
H3221	H322	0.946500	0.202900	0.493300
C2741	C274	0.933600	0.273500	0.500100
H3231	H323	0.937800	0.281100	0.467700
C2751	C275	0.922100	0.308700	0.531500
H3241	H324	0.918600	0.340300	0.520900
N251	N25	0.916130	0.298130	0.576500
O731	O73	0.943380	0.391960	0.588020
O741	O74	0.948440	0.457510	0.630870
O751	O75	0.878470	0.408760	0.666640
H3251	H325	0.899200	0.420600	0.649100
C2761	C276	0.537500	0.569400	0.098900
C2771	C277	0.495700	0.555500	0.069500
C2781	C278	0.483220	0.582110	0.030780
H3261	H326	0.501200	0.609000	0.022400
C2791	C279	0.666500	0.575500	0.152200
C2801	C280	0.703400	0.594000	0.180400
H3271	H327	0.709100	0.626900	0.171700
H3281	H328	0.732100	0.575600	0.175300
H3291	H329	0.694400	0.592300	0.213600
C2811	C281	0.673500	0.532000	0.177600
H3301	H330	0.650700	0.508500	0.166700
H3311	H331	0.669100	0.537500	0.211300
H3321	H332	0.705500	0.520400	0.171900
C2821	C282	0.578000	0.746900	0.089400
H3331	H333	0.582200	0.755500	0.121500
C2831	C283	0.566200	0.780200	0.057800
H3341	H334	0.561500	0.811400	0.068900
C2841	C284	0.560900	0.772500	0.014800
H3351	H335	0.553500	0.797100	0.993300
C2851	C285	0.566400	0.726500	0.000100
H3361	H336	0.562200	0.718900	0.967700
C2861	C286	0.577900	0.691300	0.031500
H3371	H337	0.581400	0.659700	0.020900
N261	N26	0.583870	0.701870	0.076500
O761	O76	0.556620	0.608040	0.088020
O771	O77	0.551560	0.542490	0.130870
O781	O78	0.621530	0.591240	0.166640
H3381	H338	0.600800	0.579400	0.149100
C2871	C287	0.037500	0.930600	0.901100
C2881	C288	0.995700	0.944500	0.930500
C2891	C289	0.983220	0.917890	0.969220
H3391	H339	0.001200	0.891000	0.977600
C2901	C290	0.166500	0.924500	0.847800
C2911	C291	0.203400	0.906000	0.819600
H3401	H340	0.209100	0.873100	0.828300
H3411	H341	0.232100	0.924400	0.824700
H3421	H342	0.194400	0.907700	0.786400
C2921	C292	0.173500	0.968000	0.822400
H3431	H343	0.150700	0.991500	0.833300
H3441	H344	0.169100	0.962500	0.788700
H3451	H345	0.205500	0.979600	0.828100
C2931	C293	0.078000	0.753100	0.910600
H3461	H346	0.082200	0.744500	0.878500
C2941	C294	0.066200	0.719800	0.942200
H3471	H347	0.061500	0.688600	0.931100
C2951	C295	0.060900	0.727500	0.985200
H3481	H348	0.053500	0.702900	0.006700
C2961	C296	0.066400	0.773500	0.999900
H3491	H349	0.062200	0.781100	0.032300
C2971	C297	0.077900	0.808700	0.968500
H3501	H350	0.081400	0.840300	0.979100
N271	N27	0.083870	0.798130	0.923500
O791	O79	0.056620	0.891960	0.911980
O801	O80	0.051560	0.957510	0.869130
O811	O81	0.121530	0.908760	0.833360
H3511	H351	0.100800	0.920600	0.850900
C2981	C298	0.462500	0.069400	0.401100
C2991	C299	0.504300	0.055500	0.430500
C3001	C300	0.516780	0.082110	0.469220
H3521	H352	0.498800	0.109000	0.477600
C3011	C301	0.333500	0.075500	0.347800
C3021	C302	0.296600	0.094000	0.319600
H3531	H353	0.290900	0.126900	0.328300
H3541	H354	0.267900	0.075600	0.324700
H3551	H355	0.305600	0.092300	0.286400
C3031	C303	0.326500	0.032000	0.322400
H3561	H356	0.349300	0.008500	0.333300
H3571	H357	0.330900	0.037500	0.288700
H3581	H358	0.294500	0.020400	0.328100
C3041	C304	0.422000	0.246900	0.410600
H3591	H359	0.417800	0.255500	0.378500
C3051	C305	0.433800	0.280200	0.442200
H3601	H360	0.438500	0.311400	0.431100
C3061	C306	0.439100	0.272500	0.485200
H3611	H361	0.446500	0.297100	0.506700
C3071	C307	0.433600	0.226500	0.499900
H3621	H362	0.437800	0.218900	0.532300
C3081	C308	0.422100	0.191300	0.468500
H3631	H363	0.418600	0.159700	0.479100
N281	N28	0.416130	0.201870	0.423500
O821	O82	0.443380	0.108040	0.411980
O831	O83	0.448440	0.042490	0.369130
O841	O84	0.378470	0.091240	0.333360
H3641	H364	0.399200	0.079400	0.350900
C3091	C309	0.598900	0.962500	0.430600
C3101	C310	0.569500	0.004300	0.444500
C3111	C311	0.530780	0.016780	0.417890
H3651	H365	0.522400	0.998800	0.391000
C3121	C312	0.652200	0.833500	0.424500
C3131	C313	0.680400	0.796600	0.406000
H3661	H366	0.671700	0.790900	0.373100
H3671	H367	0.675300	0.767900	0.424400
H3681	H368	0.713600	0.805600	0.407700
C3141	C314	0.677600	0.826500	0.468000
H3691	H369	0.666700	0.849300	0.491500
H3701	H370	0.711300	0.830900	0.462500
H3711	H371	0.671900	0.794500	0.479600
C3151	C315	0.589400	0.922000	0.253100
H3721	H372	0.621500	0.917800	0.244500
C3161	C316	0.557800	0.933800	0.219800
H3731	H373	0.568900	0.938500	0.188600
C3171	C317	0.514800	0.939100	0.227500
H3741	H374	0.493300	0.946500	0.202900
C3181	C318	0.500100	0.933600	0.273500
H3751	H375	0.467700	0.937800	0.281100
C3191	C319	0.531500	0.922100	0.308700
H3761	H376	0.520900	0.918600	0.340300
N291	N29	0.576500	0.916130	0.298130
O851	O85	0.588020	0.943380	0.391960
O861	O86	0.630870	0.948440	0.457510
O871	O87	0.666640	0.878470	0.408760
H3771	H377	0.649100	0.899200	0.420600
C3201	C320	0.098900	0.537500	0.569400
C3211	C321	0.069500	0.495700	0.555500
C3221	C322	0.030780	0.483220	0.582110
H3781	H378	0.022400	0.501200	0.609000
C3231	C323	0.152200	0.666500	0.575500
C3241	C324	0.180400	0.703400	0.594000
H3791	H379	0.171700	0.709100	0.626900
H3801	H380	0.175300	0.732100	0.575600
H3811	H381	0.213600	0.694400	0.592300
C3251	C325	0.177600	0.673500	0.532000
H3821	H382	0.166700	0.650700	0.508500
H3831	H383	0.211300	0.669100	0.537500
H3841	H384	0.171900	0.705500	0.520400
C3261	C326	0.089400	0.578000	0.746900
H3851	H385	0.121500	0.582200	0.755500
C3271	C327	0.057800	0.566200	0.780200
H3861	H386	0.068900	0.561500	0.811400
C3281	C328	0.014800	0.560900	0.772500
H3871	H387	0.993300	0.553500	0.797100
C3291	C329	0.000100	0.566400	0.726500
H3881	H388	0.967700	0.562200	0.718900
C3301	C330	0.031500	0.577900	0.691300
H3891	H389	0.020900	0.581400	0.659700
N301	N30	0.076500	0.583870	0.701870
O881	O88	0.088020	0.556620	0.608040
O891	O89	0.130870	0.551560	0.542490
O901	O90	0.166640	0.621530	0.591240
H3901	H390	0.149100	0.600800	0.579400
C3311	C331	0.901100	0.037500	0.930600
C3321	C332	0.930500	0.995700	0.944500
C3331	C333	0.969220	0.983220	0.917890
H3911	H391	0.977600	0.001200	0.891000
C3341	C334	0.847800	0.166500	0.924500
C3351	C335	0.819600	0.203400	0.906000
H3921	H392	0.828300	0.209100	0.873100
H3931	H393	0.824700	0.232100	0.924400
H3941	H394	0.786400	0.194400	0.907700
C3361	C336	0.822400	0.173500	0.968000
H3951	H395	0.833300	0.150700	0.991500
H3961	H396	0.788700	0.169100	0.962500
H3971	H397	0.828100	0.205500	0.979600
C3371	C337	0.910600	0.078000	0.753100
H3981	H398	0.878500	0.082200	0.744500
C3381	C338	0.942200	0.066200	0.719800
H3991	H399	0.931100	0.061500	0.688600
C3391	C339	0.985200	0.060900	0.727500
H4001	H400	0.006700	0.053500	0.702900
C3401	C340	0.999900	0.066400	0.773500
H4011	H401	0.032300	0.062200	0.781100
C3411	C341	0.968500	0.077900	0.808700
H4021	H402	0.979100	0.081400	0.840300
N311	N31	0.923500	0.083870	0.798130
O911	O91	0.911980	0.056620	0.891960
O921	O92	0.869130	0.051560	0.957510
O931	O93	0.833360	0.121530	0.908760
H4031	H403	0.850900	0.100800	0.920600
C3421	C342	0.401100	0.462500	0.069400
C3431	C343	0.430500	0.504300	0.055500
C3441	C344	0.469220	0.516780	0.082110
H4041	H404	0.477600	0.498800	0.109000
C3451	C345	0.347800	0.333500	0.075500
C3461	C346	0.319600	0.296600	0.094000
H4051	H405	0.328300	0.290900	0.126900
H4061	H406	0.324700	0.267900	0.075600
H4071	H407	0.286400	0.305600	0.092300
C3471	C347	0.322400	0.326500	0.032000
H4081	H408	0.333300	0.349300	0.008500
H4091	H409	0.288700	0.330900	0.037500
H4101	H410	0.328100	0.294500	0.020400
C3481	C348	0.410600	0.422000	0.246900
H4111	H411	0.378500	0.417800	0.255500
C3491	C349	0.442200	0.433800	0.280200
H4121	H412	0.431100	0.438500	0.311400
C3501	C350	0.485200	0.439100	0.272500
H4131	H413	0.506700	0.446500	0.297100
C3511	C351	0.499900	0.433600	0.226500
H4141	H414	0.532300	0.437800	0.218900
C3521	C352	0.468500	0.422100	0.191300
H4151	H415	0.479100	0.418600	0.159700
N321	N32	0.423500	0.416130	0.201870
O941	O94	0.411980	0.443380	0.108040
O951	O95	0.369130	0.448440	0.042490
O961	O96	0.333360	0.378470	0.091240
H4161	H416	0.350900	0.399200	0.079400
C3531	C353	0.430600	0.598900	0.962500
C3541	C354	0.444500	0.569500	0.004300
C3551	C355	0.417890	0.530780	0.016780
H4171	H417	0.391000	0.522400	0.998800
C3561	C356	0.424500	0.652200	0.833500
C3571	C357	0.406000	0.680400	0.796600
H4181	H418	0.373100	0.671700	0.790900
H4191	H419	0.424400	0.675300	0.767900
H4201	H420	0.407700	0.713600	0.805600
C3581	C358	0.468000	0.677600	0.826500
H4211	H421	0.491500	0.666700	0.849300
H4221	H422	0.462500	0.711300	0.830900
H4231	H423	0.479600	0.671900	0.794500
C3591	C359	0.253100	0.589400	0.922000
H4241	H424	0.244500	0.621500	0.917800
C3601	C360	0.219800	0.557800	0.933800
H4251	H425	0.188600	0.568900	0.938500
C3611	C361	0.227500	0.514800	0.939100
H4261	H426	0.202900	0.493300	0.946500
C3621	C362	0.273500	0.500100	0.933600
H4271	H427	0.281100	0.467700	0.937800
C3631	C363	0.308700	0.531500	0.922100
H4281	H428	0.340300	0.520900	0.918600
N331	N33	0.298130	0.576500	0.916130
O971	O97	0.391960	0.588020	0.943380
O981	O98	0.457510	0.630870	0.948440
O991	O99	0.408760	0.666640	0.878470
H4291	H429	0.420600	0.649100	0.899200
C3641	C364	0.569400	0.098900	0.537500
C3651	C365	0.555500	0.069500	0.495700
C3661	C366	0.582110	0.030780	0.483220
H4301	H430	0.609000	0.022400	0.501200
C3671	C367	0.575500	0.152200	0.666500
C3681	C368	0.594000	0.180400	0.703400
H4311	H431	0.626900	0.171700	0.709100
H4321	H432	0.575600	0.175300	0.732100
H4331	H433	0.592300	0.213600	0.694400
C3691	C369	0.532000	0.177600	0.673500
H4341	H434	0.508500	0.166700	0.650700
H4351	H435	0.537500	0.211300	0.669100
H4361	H436	0.520400	0.171900	0.705500
C3701	C370	0.746900	0.089400	0.578000
H4371	H437	0.755500	0.121500	0.582200
C3711	C371	0.780200	0.057800	0.566200
H4381	H438	0.811400	0.068900	0.561500
C3721	C372	0.772500	0.014800	0.560900
H4391	H439	0.797100	0.993300	0.553500
C3731	C373	0.726500	0.000100	0.566400
H4401	H440	0.718900	0.967700	0.562200
C3741	C374	0.691300	0.031500	0.577900
H4411	H441	0.659700	0.020900	0.581400
N341	N34	0.701870	0.076500	0.583870
O1001	O100	0.608040	0.088020	0.556620
O1011	O101	0.542490	0.130870	0.551560
O1021	O102	0.591240	0.166640	0.621530
H4421	H442	0.579400	0.149100	0.600800
C3751	C375	0.930600	0.901100	0.037500
C3761	C376	0.944500	0.930500	0.995700
C3771	C377	0.917890	0.969220	0.983220
H4431	H443	0.891000	0.977600	0.001200
C3781	C378	0.924500	0.847800	0.166500
C3791	C379	0.906000	0.819600	0.203400
H4441	H444	0.873100	0.828300	0.209100
H4451	H445	0.924400	0.824700	0.232100
H4461	H446	0.907700	0.786400	0.194400
C3801	C380	0.968000	0.822400	0.173500
H4471	H447	0.991500	0.833300	0.150700
H4481	H448	0.962500	0.788700	0.169100
H4491	H449	0.979600	0.828100	0.205500
C3811	C381	0.753100	0.910600	0.078000
H4501	H450	0.744500	0.878500	0.082200
C3821	C382	0.719800	0.942200	0.066200
H4511	H451	0.688600	0.931100	0.061500
C3831	C383	0.727500	0.985200	0.060900
H4521	H452	0.702900	0.006700	0.053500
C3841	C384	0.773500	0.999900	0.066400
H4531	H453	0.781100	0.032300	0.062200
C3851	C385	0.808700	0.968500	0.077900
H4541	H454	0.840300	0.979100	0.081400
N351	N35	0.798130	0.923500	0.083870
O1031	O103	0.891960	0.911980	0.056620
O1041	O104	0.957510	0.869130	0.051560
O1051	O105	0.908760	0.833360	0.121530
H4551	H455	0.920600	0.850900	0.100800
C3861	C386	0.069400	0.401100	0.462500
C3871	C387	0.055500	0.430500	0.504300
C3881	C388	0.082110	0.469220	0.516780
H4561	H456	0.109000	0.477600	0.498800
C3891	C389	0.075500	0.347800	0.333500
C3901	C390	0.094000	0.319600	0.296600
H4571	H457	0.126900	0.328300	0.290900
H4581	H458	0.075600	0.324700	0.267900
H4591	H459	0.092300	0.286400	0.305600
C3911	C391	0.032000	0.322400	0.326500
H4601	H460	0.008500	0.333300	0.349300
H4611	H461	0.037500	0.288700	0.330900
H4621	H462	0.020400	0.328100	0.294500
C3921	C392	0.246900	0.410600	0.422000
H4631	H463	0.255500	0.378500	0.417800
C3931	C393	0.280200	0.442200	0.433800
H4641	H464	0.311400	0.431100	0.438500
C3941	C394	0.272500	0.485200	0.439100
H4651	H465	0.297100	0.506700	0.446500
C3951	C395	0.226500	0.499900	0.433600
H4661	H466	0.218900	0.532300	0.437800
C3961	C396	0.191300	0.468500	0.422100
H4671	H467	0.159700	0.479100	0.418600
N361	N36	0.201870	0.423500	0.416130
O1061	O106	0.108040	0.411980	0.443380
O1071	O107	0.042490	0.369130	0.448440
O1081	O108	0.091240	0.333360	0.378470
H4681	H468	0.079400	0.350900	0.399200
C3971	C397	0.680600	0.712500	0.151100
C3981	C398	0.694500	0.754300	0.180500
C3991	C399	0.667890	0.766780	0.219220
H4691	H469	0.641000	0.748800	0.227600
C4001	C400	0.674500	0.583500	0.097800
C4011	C401	0.656000	0.546600	0.069600
H4701	H470	0.623100	0.540900	0.078300
H4711	H471	0.674400	0.517900	0.074700
H4721	H472	0.657700	0.555600	0.036400
C4021	C402	0.718000	0.576500	0.072400
H4731	H473	0.741500	0.599300	0.083300
H4741	H474	0.712500	0.580900	0.038700
H4751	H475	0.729600	0.544500	0.078100
C4031	C403	0.503100	0.672000	0.160600
H4761	H476	0.494500	0.667800	0.128500
C4041	C404	0.469800	0.683800	0.192200
H4771	H477	0.438600	0.688500	0.181100
C4051	C405	0.477500	0.689100	0.235200
H4781	H478	0.452900	0.696500	0.256700
C4061	C406	0.523500	0.683600	0.249900
H4791	H479	0.531100	0.687800	0.282300
C4071	C407	0.558700	0.672100	0.218500
H4801	H480	0.590300	0.668600	0.229100
N371	N37	0.548130	0.666130	0.173500
O1091	O109	0.641960	0.693380	0.161980
O1101	O110	0.707510	0.698440	0.119130
O1111	O111	0.658760	0.628470	0.083360
H4811	H481	0.670600	0.649200	0.100900
C4081	C408	0.819400	0.287500	0.651100
C4091	C409	0.805500	0.245700	0.680500
C4101	C410	0.832110	0.233220	0.719220
H4821	H482	0.859000	0.251200	0.727600
C4111	C411	0.825500	0.416500	0.597800
C4121	C412	0.844000	0.453400	0.569600
H4831	H483	0.876900	0.459100	0.578300
H4841	H484	0.825600	0.482100	0.574700
H4851	H485	0.842300	0.444400	0.536400
C4131	C413	0.782000	0.423500	0.572400
H4861	H486	0.758500	0.400700	0.583300
H4871	H487	0.787500	0.419100	0.538700
H4881	H488	0.770400	0.455500	0.578100
C4141	C414	0.996900	0.328000	0.660600
H4891	H489	0.005500	0.332200	0.628500
C4151	C415	0.030200	0.316200	0.692200
H4901	H490	0.061400	0.311500	0.681100
C4161	C416	0.022500	0.310900	0.735200
H4911	H491	0.047100	0.303500	0.756700
C4171	C417	0.976500	0.316400	0.749900
H4921	H492	0.968900	0.312200	0.782300
C4181	C418	0.941300	0.327900	0.718500
H4931	H493	0.909700	0.331400	0.729100
N381	N38	0.951870	0.333870	0.673500
O1121	O112	0.858040	0.306620	0.661980
O1131	O113	0.792490	0.301560	0.619130
O1141	O114	0.841240	0.371530	0.583360
H4941	H494	0.829400	0.350800	0.600900
C4191	C419	0.180600	0.787500	0.848900
C4201	C420	0.194500	0.745700	0.819500
C4211	C421	0.167890	0.733220	0.780780
H4951	H495	0.141000	0.751200	0.772400
C4221	C422	0.174500	0.916500	0.902200
C4231	C423	0.156000	0.953400	0.930400
H4961	H496	0.123100	0.959100	0.921700
H4971	H497	0.174400	0.982100	0.925300
H4981	H498	0.157700	0.944400	0.963600
C4241	C424	0.218000	0.923500	0.927600
H4991	H499	0.241500	0.900700	0.916700
H5001	H500	0.212500	0.919100	0.961300
H5011	H501	0.229600	0.955500	0.921900
C4251	C425	0.003100	0.828000	0.839400
H5021	H502	0.994500	0.832200	0.871500
C4261	C426	0.969800	0.816200	0.807800
H5031	H503	0.938600	0.811500	0.818900
C4271	C427	0.977500	0.810900	0.764800
H5041	H504	0.952900	0.803500	0.743300
C4281	C428	0.023500	0.816400	0.750100
H5051	H505	0.031100	0.812200	0.717700
C4291	C429	0.058700	0.827900	0.781500
H5061	H506	0.090300	0.831400	0.770900
N391	N39	0.048130	0.833870	0.826500
O1151	O115	0.141960	0.806620	0.838020
O1161	O116	0.207510	0.801560	0.880870
O1171	O117	0.158760	0.871530	0.916640
H5071	H507	0.170600	0.850800	0.899100
C4301	C430	0.319400	0.212500	0.348900
C4311	C431	0.305500	0.254300	0.319500
C4321	C432	0.332110	0.266780	0.280780
H5081	H508	0.359000	0.248800	0.272400
C4331	C433	0.325500	0.083500	0.402200
C4341	C434	0.344000	0.046600	0.430400
H5091	H509	0.376900	0.040900	0.421700
H5101	H510	0.325600	0.017900	0.425300
H5111	H511	0.342300	0.055600	0.463600
C4351	C435	0.282000	0.076500	0.427600
H5121	H512	0.258500	0.099300	0.416700
H5131	H513	0.287500	0.080900	0.461300
H5141	H514	0.270400	0.044500	0.421900
C4361	C436	0.496900	0.172000	0.339400
H5151	H515	0.505500	0.167800	0.371500
C4371	C437	0.530200	0.183800	0.307800
H5161	H516	0.561400	0.188500	0.318900
C4381	C438	0.522500	0.189100	0.264800
H5171	H517	0.547100	0.196500	0.243300
C4391	C439	0.476500	0.183600	0.250100
H5181	H518	0.468900	0.187800	0.217700
C4401	C440	0.441300	0.172100	0.281500
H5191	H519	0.409700	0.168600	0.270900
N401	N40	0.451870	0.166130	0.326500
O1181	O118	0.358040	0.193380	0.338020
O1191	O119	0.292490	0.198440	0.380870
O1201	O120	0.341240	0.128470	0.416640
H5201	H520	0.329400	0.149200	0.399100
C4411	C441	0.212500	0.348900	0.319400
C4421	C442	0.254300	0.319500	0.305500
C4431	C443	0.266780	0.280780	0.332110
H5211	H521	0.248800	0.272400	0.359000
C4441	C444	0.083500	0.402200	0.325500
C4451	C445	0.046600	0.430400	0.344000
H5221	H522	0.040900	0.421700	0.376900
H5231	H523	0.017900	0.425300	0.325600
H5241	H524	0.055600	0.463600	0.342300
C4461	C446	0.076500	0.427600	0.282000
H5251	H525	0.099300	0.416700	0.258500
H5261	H526	0.080900	0.461300	0.287500
H5271	H527	0.044500	0.421900	0.270400
C4471	C447	0.172000	0.339400	0.496900
H5281	H528	0.167800	0.371500	0.505500
C4481	C448	0.183800	0.307800	0.530200
H5291	H529	0.188500	0.318900	0.561400
C4491	C449	0.189100	0.264800	0.522500
H5301	H530	0.196500	0.243300	0.547100
C4501	C450	0.183600	0.250100	0.476500
H5311	H531	0.187800	0.217700	0.468900
C4511	C451	0.172100	0.281500	0.441300
H5321	H532	0.168600	0.270900	0.409700
N411	N41	0.166130	0.326500	0.451870
O1211	O121	0.193380	0.338020	0.358040
O1221	O122	0.198440	0.380870	0.292490
O1231	O123	0.128470	0.416640	0.341240
H5331	H533	0.149200	0.399100	0.329400
C4521	C452	0.787500	0.848900	0.180600
C4531	C453	0.745700	0.819500	0.194500
C4541	C454	0.733220	0.780780	0.167890
H5341	H534	0.751200	0.772400	0.141000
C4551	C455	0.916500	0.902200	0.174500
C4561	C456	0.953400	0.930400	0.156000
H5351	H535	0.959100	0.921700	0.123100
H5361	H536	0.982100	0.925300	0.174400
H5371	H537	0.944400	0.963600	0.157700
C4571	C457	0.923500	0.927600	0.218000
H5381	H538	0.900700	0.916700	0.241500
H5391	H539	0.919100	0.961300	0.212500
H5401	H540	0.955500	0.921900	0.229600
C4581	C458	0.828000	0.839400	0.003100
H5411	H541	0.832200	0.871500	0.994500
C4591	C459	0.816200	0.807800	0.969800
H5421	H542	0.811500	0.818900	0.938600
C4601	C460	0.810900	0.764800	0.977500
H5431	H543	0.803500	0.743300	0.952900
C4611	C461	0.816400	0.750100	0.023500
H5441	H544	0.812200	0.717700	0.031100
C4621	C462	0.827900	0.781500	0.058700
H5451	H545	0.831400	0.770900	0.090300
N421	N42	0.833870	0.826500	0.048130
O1241	O124	0.806620	0.838020	0.141960
O1251	O125	0.801560	0.880870	0.207510
O1261	O126	0.871530	0.916640	0.158760
H5461	H546	0.850800	0.899100	0.170600
C4631	C463	0.287500	0.651100	0.819400
C4641	C464	0.245700	0.680500	0.805500
C4651	C465	0.233220	0.719220	0.832110
H5471	H547	0.251200	0.727600	0.859000
C4661	C466	0.416500	0.597800	0.825500
C4671	C467	0.453400	0.569600	0.844000
H5481	H548	0.459100	0.578300	0.876900
H5491	H549	0.482100	0.574700	0.825600
H5501	H550	0.444400	0.536400	0.842300
C4681	C468	0.423500	0.572400	0.782000
H5511	H551	0.400700	0.583300	0.758500
H5521	H552	0.419100	0.538700	0.787500
H5531	H553	0.455500	0.578100	0.770400
C4691	C469	0.328000	0.660600	0.996900
H5541	H554	0.332200	0.628500	0.005500
C4701	C470	0.316200	0.692200	0.030200
H5551	H555	0.311500	0.681100	0.061400
C4711	C471	0.310900	0.735200	0.022500
H5561	H556	0.303500	0.756700	0.047100
C4721	C472	0.316400	0.749900	0.976500
H5571	H557	0.312200	0.782300	0.968900
C4731	C473	0.327900	0.718500	0.941300
H5581	H558	0.331400	0.729100	0.909700
N431	N43	0.333870	0.673500	0.951870
O1271	O127	0.306620	0.661980	0.858040
O1281	O128	0.301560	0.619130	0.792490
O1291	O129	0.371530	0.583360	0.841240
H5591	H559	0.350800	0.600900	0.829400
C4741	C474	0.712500	0.151100	0.680600
C4751	C475	0.754300	0.180500	0.694500
C4761	C476	0.766780	0.219220	0.667890
H5601	H560	0.748800	0.227600	0.641000
C4771	C477	0.583500	0.097800	0.674500
C4781	C478	0.546600	0.069600	0.656000
H5611	H561	0.540900	0.078300	0.623100
H5621	H562	0.517900	0.074700	0.674400
H5631	H563	0.555600	0.036400	0.657700
C4791	C479	0.576500	0.072400	0.718000
H5641	H564	0.599300	0.083300	0.741500
H5651	H565	0.580900	0.038700	0.712500
H5661	H566	0.544500	0.078100	0.729600
C4801	C480	0.672000	0.160600	0.503100
H5671	H567	0.667800	0.128500	0.494500
C4811	C481	0.683800	0.192200	0.469800
H5681	H568	0.688500	0.181100	0.438600
C4821	C482	0.689100	0.235200	0.477500
H5691	H569	0.696500	0.256700	0.452900
C4831	C483	0.683600	0.249900	0.523500
H5701	H570	0.687800	0.282300	0.531100
C4841	C484	0.672100	0.218500	0.558700
H5711	H571	0.668600	0.229100	0.590300
N441	N44	0.666130	0.173500	0.548130
O1301	O130	0.693380	0.161980	0.641960
O1311	O131	0.698440	0.119130	0.707510
O1321	O132	0.628470	0.083360	0.658760
H5721	H572	0.649200	0.100900	0.670600
C4851	C485	0.848900	0.180600	0.787500
C4861	C486	0.819500	0.194500	0.745700
C4871	C487	0.780780	0.167890	0.733220
H5731	H573	0.772400	0.141000	0.751200
C4881	C488	0.902200	0.174500	0.916500
C4891	C489	0.930400	0.156000	0.953400
H5741	H574	0.921700	0.123100	0.959100
H5751	H575	0.925300	0.174400	0.982100
H5761	H576	0.963600	0.157700	0.944400
C4901	C490	0.927600	0.218000	0.923500
H5771	H577	0.916700	0.241500	0.900700
H5781	H578	0.961300	0.212500	0.919100
H5791	H579	0.921900	0.229600	0.955500
C4911	C491	0.839400	0.003100	0.828000
H5801	H580	0.871500	0.994500	0.832200
C4921	C492	0.807800	0.969800	0.816200
H5811	H581	0.818900	0.938600	0.811500
C4931	C493	0.764800	0.977500	0.810900
H5821	H582	0.743300	0.952900	0.803500
C4941	C494	0.750100	0.023500	0.816400
H5831	H583	0.717700	0.031100	0.812200
C4951	C495	0.781500	0.058700	0.827900
H5841	H584	0.770900	0.090300	0.831400
N451	N45	0.826500	0.048130	0.833870
O1331	O133	0.838020	0.141960	0.806620
O1341	O134	0.880870	0.207510	0.801560
O1351	O135	0.916640	0.158760	0.871530
H5851	H585	0.899100	0.170600	0.850800
C4961	C496	0.348900	0.319400	0.212500
C4971	C497	0.319500	0.305500	0.254300
C4981	C498	0.280780	0.332110	0.266780
H5861	H586	0.272400	0.359000	0.248800
C4991	C499	0.402200	0.325500	0.083500
C5001	C500	0.430400	0.344000	0.046600
H5871	H587	0.421700	0.376900	0.040900
H5881	H588	0.425300	0.325600	0.017900
H5891	H589	0.463600	0.342300	0.055600
C5011	C501	0.427600	0.282000	0.076500
H5901	H590	0.416700	0.258500	0.099300
H5911	H591	0.461300	0.287500	0.080900
H5921	H592	0.421900	0.270400	0.044500
C5021	C502	0.339400	0.496900	0.172000
H5931	H593	0.371500	0.505500	0.167800
C5031	C503	0.307800	0.530200	0.183800
H5941	H594	0.318900	0.561400	0.188500
C5041	C504	0.264800	0.522500	0.189100
H5951	H595	0.243300	0.547100	0.196500
C5051	C505	0.250100	0.476500	0.183600
H5961	H596	0.217700	0.468900	0.187800
C5061	C506	0.281500	0.441300	0.172100
H5971	H597	0.270900	0.409700	0.168600
N461	N46	0.326500	0.451870	0.166130
O1361	O136	0.338020	0.358040	0.193380
O1371	O137	0.380870	0.292490	0.198440
O1381	O138	0.416640	0.341240	0.128470
H5981	H598	0.399100	0.329400	0.149200
C5071	C507	0.151100	0.680600	0.712500
C5081	C508	0.180500	0.694500	0.754300
C5091	C509	0.219220	0.667890	0.766780
H5991	H599	0.227600	0.641000	0.748800
C5101	C510	0.097800	0.674500	0.583500
C5111	C511	0.069600	0.656000	0.546600
H6001	H600	0.078300	0.623100	0.540900
H6011	H601	0.074700	0.674400	0.517900
H6021	H602	0.036400	0.657700	0.555600
C5121	C512	0.072400	0.718000	0.576500
H6031	H603	0.083300	0.741500	0.599300
H6041	H604	0.038700	0.712500	0.580900
H6051	H605	0.078100	0.729600	0.544500
C5131	C513	0.160600	0.503100	0.672000
H6061	H606	0.128500	0.494500	0.667800
C5141	C514	0.192200	0.469800	0.683800
H6071	H607	0.181100	0.438600	0.688500
C5151	C515	0.235200	0.477500	0.689100
H6081	H608	0.256700	0.452900	0.696500
C5161	C516	0.249900	0.523500	0.683600
H6091	H609	0.282300	0.531100	0.687800
C5171	C517	0.218500	0.558700	0.672100
H6101	H610	0.229100	0.590300	0.668600
N471	N47	0.173500	0.548130	0.666130
O1391	O139	0.161980	0.641960	0.693380
O1401	O140	0.119130	0.707510	0.698440
O1411	O141	0.083360	0.658760	0.628470
H6111	H611	0.100900	0.670600	0.649200
C5181	C518	0.651100	0.819400	0.287500
C5191	C519	0.680500	0.805500	0.245700
C5201	C520	0.719220	0.832110	0.233220
H6121	H612	0.727600	0.859000	0.251200
C5211	C521	0.597800	0.825500	0.416500
C5221	C522	0.569600	0.844000	0.453400
H6131	H613	0.578300	0.876900	0.459100
H6141	H614	0.574700	0.825600	0.482100
H6151	H615	0.536400	0.842300	0.444400
C5231	C523	0.572400	0.782000	0.423500
H6161	H616	0.583300	0.758500	0.400700
H6171	H617	0.538700	0.787500	0.419100
H6181	H618	0.578100	0.770400	0.455500
C5241	C524	0.660600	0.996900	0.328000
H6191	H619	0.628500	0.005500	0.332200
C5251	C525	0.692200	0.030200	0.316200
H6201	H620	0.681100	0.061400	0.311500
C5261	C526	0.735200	0.022500	0.310900
H6211	H621	0.756700	0.047100	0.303500
C5271	C527	0.749900	0.976500	0.316400
H6221	H622	0.782300	0.968900	0.312200
C5281	C528	0.718500	0.941300	0.327900
H6231	H623	0.729100	0.909700	0.331400
N481	N48	0.673500	0.951870	0.333870
O1421	O142	0.661980	0.858040	0.306620
O1431	O143	0.619130	0.792490	0.301560
O1441	O144	0.583360	0.841240	0.371530
H6241	H624	0.600900	0.829400	0.350800
Ni131	Ni13	0.601000	0.649000	0.125000
Ni141	Ni14	0.899000	0.351000	0.625000
Ni151	Ni15	0.101000	0.851000	0.875000
Ni161	Ni16	0.399000	0.149000	0.375000
Ni171	Ni17	0.149000	0.375000	0.399000
Ni181	Ni18	0.851000	0.875000	0.101000
Ni191	Ni19	0.351000	0.625000	0.899000
Ni201	Ni20	0.649000	0.125000	0.601000
Ni211	Ni21	0.875000	0.101000	0.851000
Ni221	Ni22	0.375000	0.399000	0.149000
Ni231	Ni23	0.125000	0.601000	0.649000
Ni241	Ni24	0.625000	0.899000	0.351000
