data_HUYXUV_clean_PM
_symmetry_space_group_name_H-M	'P1'
_cell_length_a	17.884000
_cell_length_b	11.797000
_cell_length_c	20.243000
_cell_angle_alpha	90.000000
_cell_angle_beta	111.770000
_cell_angle_gamma	90.000000
_symmetry_Int_Tables_number 1

loop_
_symmetry_equiv_pos_as_xyz
'x,y,z'

loop_
_atom_site_label
_atom_site_type_symbol
_atom_site_fract_x
_atom_site_fract_y
_atom_site_fract_z
C11	C1	0.509700	0.368200	0.401200
H11	H1	0.509300	0.289800	0.405600
C21	C2	0.516000	0.319200	0.102300
H21	H2	0.518500	0.397400	0.108300
C31	C3	0.505400	0.578600	0.232400
H31	H3	0.481000	0.574100	0.265700
C41	C4	0.681200	0.107600	0.078100
H41	H4	0.668800	0.133300	0.031900
C51	C5	0.670200	0.051900	0.174500
H51	H5	0.648300	0.032500	0.208100
C61	C6	0.748800	0.047400	0.184800
H61	H6	0.790500	0.023500	0.225800
C71	C7	0.828300	0.091100	0.108500
C81	C8	0.890200	0.017100	0.140400
H71	H7	0.885400	0.962100	0.171600
C91	C9	0.959900	0.024400	0.126100
H81	H8	0.001600	0.973600	0.147900
C101	C10	0.969600	0.105200	0.080300
C111	C11	0.906100	0.179400	0.049800
H91	H9	0.910500	0.234800	0.018800
C121	C12	0.836500	0.173800	0.063900
H101	H10	0.795300	0.225900	0.043400
C131	C13	0.331200	0.102000	0.055100
H111	H11	0.345600	0.062300	0.097800
C141	C14	0.336700	0.185400	0.963700
H121	H12	0.356300	0.214600	0.930600
C151	C15	0.260500	0.194000	0.959700
H131	H13	0.218300	0.229600	0.923800
C161	C16	0.185500	0.131100	0.035700
C171	C17	0.123600	0.205800	0.006900
H141	H14	0.128100	0.263400	0.977200
C181	C18	0.055000	0.196700	0.021300
H151	H15	0.013700	0.248700	0.001000
C191	C19	0.044900	0.113200	0.065000
C201	C20	0.108800	0.039200	0.094200
H161	H16	0.105000	0.982300	0.124700
C211	C21	0.178200	0.047600	0.079400
H171	H17	0.219900	0.996200	0.099300
C221	C22	0.331800	0.304100	0.228100
H181	H18	0.344800	0.260900	0.269200
C231	C23	0.341000	0.400900	0.141900
H191	H19	0.362700	0.437900	0.112500
C241	C24	0.262500	0.395700	0.130600
H201	H20	0.220500	0.427200	0.092600
C251	C25	0.183400	0.315100	0.200400
C261	C26	0.117000	0.382100	0.166700
H211	H21	0.118200	0.435700	0.133400
C271	C27	0.048700	0.369600	0.182300
H221	H22	0.004200	0.415200	0.159200
C281	C28	0.044500	0.290400	0.232000
C291	C29	0.111900	0.222500	0.263600
H231	H23	0.110700	0.167700	0.296200
C301	C30	0.180500	0.233700	0.248200
H241	H24	0.224600	0.186600	0.269900
C311	C31	0.691800	0.319000	0.268800
H251	H25	0.680900	0.360800	0.227300
C321	C32	0.679300	0.234300	0.357100
H261	H26	0.657100	0.205700	0.388500
C331	C33	0.756400	0.221200	0.364000
H271	H27	0.796300	0.182900	0.400400
C341	C34	0.835200	0.279000	0.288800
C351	C35	0.836100	0.346600	0.233800
H281	H28	0.791900	0.391800	0.209300
C361	C36	0.902500	0.347000	0.215400
H291	H29	0.901400	0.391100	0.177000
C371	C37	0.971800	0.284400	0.251700
C381	C38	0.969000	0.218200	0.307500
H301	H30	0.013700	0.174600	0.333300
C391	C39	0.902200	0.215200	0.326000
H311	H31	0.902400	0.169900	0.363600
Co11	Co1	0.512160	0.327280	0.250970
Co21	Co2	0.504350	0.107950	0.053480
N11	N1	0.627500	0.089500	0.107100
N21	N2	0.755800	0.084700	0.123400
N31	N3	0.381200	0.127200	0.023600
N41	N4	0.256400	0.140600	0.018200
N51	N5	0.384900	0.343900	0.203000
N61	N6	0.255800	0.334400	0.186300
N71	N7	0.637800	0.296000	0.297100
N81	N8	0.765100	0.274900	0.307200
O11	O1	0.507100	0.428600	0.452310
O21	O2	0.512600	0.408500	0.346230
O31	O3	0.516100	0.280100	0.045080
O41	O4	0.512800	0.259700	0.151900
O51	O5	0.530500	0.488600	0.216520
O61	O6	0.509600	0.673700	0.208340
C401	C40	0.490300	0.868200	0.098800
H321	H32	0.490700	0.789800	0.094400
C411	C41	0.484000	0.819200	0.397700
H331	H33	0.481500	0.897400	0.391700
C421	C42	0.494600	0.078600	0.267600
H341	H34	0.519000	0.074100	0.234300
C431	C43	0.318800	0.607600	0.421900
H351	H35	0.331200	0.633300	0.468100
C441	C44	0.329800	0.551900	0.325500
H361	H36	0.351700	0.532500	0.291900
C451	C45	0.251200	0.547400	0.315200
H371	H37	0.209500	0.523500	0.274200
C461	C46	0.171700	0.591100	0.391500
C471	C47	0.109800	0.517100	0.359600
H381	H38	0.114600	0.462100	0.328400
C481	C48	0.040100	0.524400	0.373900
H391	H39	0.998400	0.473600	0.352100
C491	C49	0.030400	0.605200	0.419700
C501	C50	0.093900	0.679400	0.450200
H401	H40	0.089500	0.734800	0.481200
C511	C51	0.163500	0.673800	0.436100
H411	H41	0.204700	0.725900	0.456600
C521	C52	0.668800	0.602000	0.444900
H421	H42	0.654400	0.562300	0.402200
C531	C53	0.663300	0.685400	0.536300
H431	H43	0.643700	0.714600	0.569400
C541	C54	0.739500	0.694000	0.540300
H441	H44	0.781700	0.729600	0.576200
C551	C55	0.814500	0.631100	0.464300
C561	C56	0.876400	0.705800	0.493100
H451	H45	0.871900	0.763400	0.522800
C571	C57	0.945000	0.696700	0.478700
H461	H46	0.986300	0.748700	0.499000
C581	C58	0.955100	0.613200	0.435000
C591	C59	0.891200	0.539200	0.405800
H471	H47	0.895000	0.482300	0.375300
C601	C60	0.821800	0.547600	0.420600
H481	H48	0.780100	0.496200	0.400700
C611	C61	0.668200	0.804100	0.271900
H491	H49	0.655200	0.760900	0.230800
C621	C62	0.659000	0.900900	0.358100
H501	H50	0.637300	0.937900	0.387500
C631	C63	0.737500	0.895700	0.369400
H511	H51	0.779500	0.927200	0.407400
C641	C64	0.816600	0.815100	0.299600
C651	C65	0.883000	0.882100	0.333300
H521	H52	0.881800	0.935700	0.366600
C661	C66	0.951300	0.869600	0.317700
H531	H53	0.995800	0.915200	0.340800
C671	C67	0.955500	0.790400	0.268000
C681	C68	0.888100	0.722500	0.236400
H541	H54	0.889300	0.667700	0.203800
C691	C69	0.819500	0.733700	0.251800
H551	H55	0.775400	0.686600	0.230100
C701	C70	0.308200	0.819000	0.231200
H561	H56	0.319100	0.860800	0.272700
C711	C71	0.320700	0.734300	0.142900
H571	H57	0.342900	0.705700	0.111500
C721	C72	0.243600	0.721200	0.136000
H581	H58	0.203700	0.682900	0.099600
C731	C73	0.164800	0.779000	0.211200
C741	C74	0.163900	0.846600	0.266200
H591	H59	0.208100	0.891800	0.290700
C751	C75	0.097500	0.847000	0.284600
H601	H60	0.098600	0.891100	0.323000
C761	C76	0.028200	0.784400	0.248300
C771	C77	0.031000	0.718200	0.192500
H611	H61	0.986300	0.674600	0.166700
C781	C78	0.097800	0.715200	0.174000
H621	H62	0.097600	0.669900	0.136400
Co31	Co3	0.487840	0.827280	0.249030
Co41	Co4	0.495650	0.607950	0.446520
N91	N9	0.372500	0.589500	0.392900
N101	N10	0.244200	0.584700	0.376600
N111	N11	0.618800	0.627200	0.476400
N121	N12	0.743600	0.640600	0.481800
N131	N13	0.615100	0.843900	0.297000
N141	N14	0.744200	0.834400	0.313700
N151	N15	0.362200	0.796000	0.202900
N161	N16	0.234900	0.774900	0.192800
O71	O7	0.492900	0.928600	0.047690
O81	O8	0.487400	0.908500	0.153770
O91	O9	0.483900	0.780100	0.454920
O101	O10	0.487200	0.759700	0.348100
O111	O11	0.469500	0.988600	0.283480
O121	O12	0.490400	0.173700	0.291660
C791	C79	0.490300	0.631800	0.598800
H631	H63	0.490700	0.710200	0.594400
C801	C80	0.484000	0.680800	0.897700
H641	H64	0.481500	0.602600	0.891700
C811	C81	0.494600	0.421400	0.767600
H651	H65	0.519000	0.425900	0.734300
C821	C82	0.318800	0.892400	0.921900
H661	H66	0.331200	0.866700	0.968100
C831	C83	0.329800	0.948100	0.825500
H671	H67	0.351700	0.967500	0.791900
C841	C84	0.251200	0.952600	0.815200
H681	H68	0.209500	0.976500	0.774200
C851	C85	0.171700	0.908900	0.891500
C861	C86	0.109800	0.982900	0.859600
H691	H69	0.114600	0.037900	0.828400
C871	C87	0.040100	0.975600	0.873900
H701	H70	0.998400	0.026400	0.852100
C881	C88	0.030400	0.894800	0.919700
C891	C89	0.093900	0.820600	0.950200
H711	H71	0.089500	0.765200	0.981200
C901	C90	0.163500	0.826200	0.936100
H721	H72	0.204700	0.774100	0.956600
C911	C91	0.668800	0.898000	0.944900
H731	H73	0.654400	0.937700	0.902200
C921	C92	0.663300	0.814600	0.036300
H741	H74	0.643700	0.785400	0.069400
C931	C93	0.739500	0.806000	0.040300
H751	H75	0.781700	0.770400	0.076200
C941	C94	0.814500	0.868900	0.964300
C951	C95	0.876400	0.794200	0.993100
H761	H76	0.871900	0.736600	0.022800
C961	C96	0.945000	0.803300	0.978700
H771	H77	0.986300	0.751300	0.999000
C971	C97	0.955100	0.886800	0.935000
C981	C98	0.891200	0.960800	0.905800
H781	H78	0.895000	0.017700	0.875300
C991	C99	0.821800	0.952400	0.920600
H791	H79	0.780100	0.003800	0.900700
C1001	C100	0.668200	0.695900	0.771900
H801	H80	0.655200	0.739100	0.730800
C1011	C101	0.659000	0.599100	0.858100
H811	H81	0.637300	0.562100	0.887500
C1021	C102	0.737500	0.604300	0.869400
H821	H82	0.779500	0.572800	0.907400
C1031	C103	0.816600	0.684900	0.799600
C1041	C104	0.883000	0.617900	0.833300
H831	H83	0.881800	0.564300	0.866600
C1051	C105	0.951300	0.630400	0.817700
H841	H84	0.995800	0.584800	0.840800
C1061	C106	0.955500	0.709600	0.768000
C1071	C107	0.888100	0.777500	0.736400
H851	H85	0.889300	0.832300	0.703800
C1081	C108	0.819500	0.766300	0.751800
H861	H86	0.775400	0.813400	0.730100
C1091	C109	0.308200	0.681000	0.731200
H871	H87	0.319100	0.639200	0.772700
C1101	C110	0.320700	0.765700	0.642900
H881	H88	0.342900	0.794300	0.611500
C1111	C111	0.243600	0.778800	0.636000
H891	H89	0.203700	0.817100	0.599600
C1121	C112	0.164800	0.721000	0.711200
C1131	C113	0.163900	0.653400	0.766200
H901	H90	0.208100	0.608200	0.790700
C1141	C114	0.097500	0.653000	0.784600
H911	H91	0.098600	0.608900	0.823000
C1151	C115	0.028200	0.715600	0.748300
C1161	C116	0.031000	0.781800	0.692500
H921	H92	0.986300	0.825400	0.666700
C1171	C117	0.097800	0.784800	0.674000
H931	H93	0.097600	0.830100	0.636400
Co51	Co5	0.487840	0.672720	0.749030
Co61	Co6	0.495650	0.892050	0.946520
N171	N17	0.372500	0.910500	0.892900
N181	N18	0.244200	0.915300	0.876600
N191	N19	0.618800	0.872800	0.976400
N201	N20	0.743600	0.859400	0.981800
N211	N21	0.615100	0.656100	0.797000
N221	N22	0.744200	0.665600	0.813700
N231	N23	0.362200	0.704000	0.702900
N241	N24	0.234900	0.725100	0.692800
O131	O13	0.492900	0.571400	0.547690
O141	O14	0.487400	0.591500	0.653770
O151	O15	0.483900	0.719900	0.954920
O161	O16	0.487200	0.740300	0.848100
O171	O17	0.469500	0.511400	0.783480
O181	O18	0.490400	0.326300	0.791660
C1181	C118	0.509700	0.131800	0.901200
H941	H94	0.509300	0.210200	0.905600
C1191	C119	0.516000	0.180800	0.602300
H951	H95	0.518500	0.102600	0.608300
C1201	C120	0.505400	0.921400	0.732400
H961	H96	0.481000	0.925900	0.765700
C1211	C121	0.681200	0.392400	0.578100
H971	H97	0.668800	0.366700	0.531900
C1221	C122	0.670200	0.448100	0.674500
H981	H98	0.648300	0.467500	0.708100
C1231	C123	0.748800	0.452600	0.684800
H991	H99	0.790500	0.476500	0.725800
C1241	C124	0.828300	0.408900	0.608500
C1251	C125	0.890200	0.482900	0.640400
H1001	H100	0.885400	0.537900	0.671600
C1261	C126	0.959900	0.475600	0.626100
H1011	H101	0.001600	0.526400	0.647900
C1271	C127	0.969600	0.394800	0.580300
C1281	C128	0.906100	0.320600	0.549800
H1021	H102	0.910500	0.265200	0.518800
C1291	C129	0.836500	0.326200	0.563900
H1031	H103	0.795300	0.274100	0.543400
C1301	C130	0.331200	0.398000	0.555100
H1041	H104	0.345600	0.437700	0.597800
C1311	C131	0.336700	0.314600	0.463700
H1051	H105	0.356300	0.285400	0.430600
C1321	C132	0.260500	0.306000	0.459700
H1061	H106	0.218300	0.270400	0.423800
C1331	C133	0.185500	0.368900	0.535700
C1341	C134	0.123600	0.294200	0.506900
H1071	H107	0.128100	0.236600	0.477200
C1351	C135	0.055000	0.303300	0.521300
H1081	H108	0.013700	0.251300	0.501000
C1361	C136	0.044900	0.386800	0.565000
C1371	C137	0.108800	0.460800	0.594200
H1091	H109	0.105000	0.517700	0.624700
C1381	C138	0.178200	0.452400	0.579400
H1101	H110	0.219900	0.503800	0.599300
C1391	C139	0.331800	0.195900	0.728100
H1111	H111	0.344800	0.239100	0.769200
C1401	C140	0.341000	0.099100	0.641900
H1121	H112	0.362700	0.062100	0.612500
C1411	C141	0.262500	0.104300	0.630600
H1131	H113	0.220500	0.072800	0.592600
C1421	C142	0.183400	0.184900	0.700400
C1431	C143	0.117000	0.117900	0.666700
H1141	H114	0.118200	0.064300	0.633400
C1441	C144	0.048700	0.130400	0.682300
H1151	H115	0.004200	0.084800	0.659200
C1451	C145	0.044500	0.209600	0.732000
C1461	C146	0.111900	0.277500	0.763600
H1161	H116	0.110700	0.332300	0.796200
C1471	C147	0.180500	0.266300	0.748200
H1171	H117	0.224600	0.313400	0.769900
C1481	C148	0.691800	0.181000	0.768800
H1181	H118	0.680900	0.139200	0.727300
C1491	C149	0.679300	0.265700	0.857100
H1191	H119	0.657100	0.294300	0.888500
C1501	C150	0.756400	0.278800	0.864000
H1201	H120	0.796300	0.317100	0.900400
C1511	C151	0.835200	0.221000	0.788800
C1521	C152	0.836100	0.153400	0.733800
H1211	H121	0.791900	0.108200	0.709300
C1531	C153	0.902500	0.153000	0.715400
H1221	H122	0.901400	0.108900	0.677000
C1541	C154	0.971800	0.215600	0.751700
C1551	C155	0.969000	0.281800	0.807500
H1231	H123	0.013700	0.325400	0.833300
C1561	C156	0.902200	0.284800	0.826000
H1241	H124	0.902400	0.330100	0.863600
Co71	Co7	0.512160	0.172720	0.750970
Co81	Co8	0.504350	0.392050	0.553480
N251	N25	0.627500	0.410500	0.607100
N261	N26	0.755800	0.415300	0.623400
N271	N27	0.381200	0.372800	0.523600
N281	N28	0.256400	0.359400	0.518200
N291	N29	0.384900	0.156100	0.703000
N301	N30	0.255800	0.165600	0.686300
N311	N31	0.637800	0.204000	0.797100
N321	N32	0.765100	0.225100	0.807200
O191	O19	0.507100	0.071400	0.952310
O201	O20	0.512600	0.091500	0.846230
O211	O21	0.516100	0.219900	0.545080
O221	O22	0.512800	0.240300	0.651900
O231	O23	0.530500	0.011400	0.716520
O241	O24	0.509600	0.826300	0.708340
