data_HUYXOP_clean_PM
_symmetry_space_group_name_H-M	'P1'
_cell_length_a	17.980000
_cell_length_b	11.711000
_cell_length_c	19.921000
_cell_angle_alpha	90.000000
_cell_angle_beta	110.970000
_cell_angle_gamma	90.000000
_symmetry_Int_Tables_number 1

loop_
_symmetry_equiv_pos_as_xyz
'x,y,z'

loop_
_atom_site_label
_atom_site_type_symbol
_atom_site_fract_x
_atom_site_fract_y
_atom_site_fract_z
C11	C1	0.027400	0.219300	0.248700
C21	C2	0.032300	0.288000	0.192100
H11	H1	0.989000	0.333700	0.166800
C31	C3	0.954900	0.384400	0.436600
C41	C4	0.942600	0.299400	0.480100
H21	H2	0.982900	0.246500	0.500600
O11	O1	0.483600	0.219200	0.457200
O21	O2	0.508400	0.333300	0.205900
C51	C5	0.490600	0.130300	0.099900
H31	H3	0.493300	0.208900	0.094300
C61	C6	0.483600	0.187200	0.400300
H41	H4	0.480200	0.109000	0.391400
C71	C7	0.504000	0.422900	0.230600
H51	H5	0.479200	0.426100	0.264200
C81	C8	0.320600	0.388800	0.424400
H61	H6	0.331600	0.360100	0.470500
C91	C9	0.335400	0.450300	0.328500
H71	H7	0.358900	0.471400	0.295600
C101	C10	0.255400	0.456000	0.316900
H81	H8	0.215200	0.482100	0.275700
C111	C11	0.173500	0.408700	0.393700
C121	C12	0.163800	0.323400	0.437300
H91	H9	0.203900	0.269900	0.457000
C131	C13	0.092800	0.317200	0.452200
H101	H10	0.087500	0.261100	0.483200
C141	C14	0.030300	0.393800	0.421000
C151	C15	0.041600	0.476700	0.376400
H111	H11	0.001100	0.529200	0.355300
C161	C16	0.112800	0.484500	0.361700
H121	H12	0.118400	0.540300	0.330600
C171	C17	0.891600	0.462000	0.408300
H131	H13	0.896400	0.520200	0.378400
C181	C18	0.667900	0.395200	0.449200
H141	H14	0.654300	0.435600	0.406300
C191	C19	0.660500	0.307700	0.541200
H151	H15	0.640400	0.275700	0.573900
C201	C20	0.737000	0.302200	0.545500
H161	H16	0.778900	0.267500	0.581800
C211	C21	0.813300	0.367600	0.467100
C221	C22	0.873200	0.289800	0.494400
H171	H17	0.867100	0.230100	0.522700
C231	C23	0.822100	0.454700	0.423300
H181	H18	0.781700	0.507900	0.404100
C241	C24	0.310300	0.187300	0.233300
H191	H19	0.321200	0.146500	0.275800
C251	C25	0.324300	0.273400	0.142300
H201	H20	0.347000	0.302400	0.110700
C261	C26	0.246500	0.284700	0.135000
H211	H21	0.207200	0.322500	0.098000
C271	C27	0.166400	0.224200	0.210900
C281	C28	0.099300	0.289800	0.172900
H221	H22	0.099600	0.334800	0.134500
C291	C29	0.163100	0.156400	0.267000
H231	H23	0.206900	0.112300	0.293300
C301	C30	0.665100	0.205800	0.270500
H241	H24	0.654000	0.250400	0.229500
C311	C31	0.652700	0.107200	0.357500
H251	H25	0.630200	0.072100	0.387500
C321	C32	0.731000	0.107800	0.368600
H261	H26	0.771200	0.072200	0.405800
C331	C33	0.812500	0.189600	0.298900
C341	C34	0.818100	0.274500	0.251300
H271	H27	0.775500	0.323400	0.229500
C351	C35	0.888200	0.284900	0.236900
H281	H28	0.891400	0.341500	0.205300
C361	C36	0.953900	0.213800	0.268100
C371	C37	0.946700	0.131500	0.316300
H291	H29	0.989500	0.083200	0.338600
C381	C38	0.877700	0.119300	0.332100
H301	H30	0.875200	0.064100	0.364800
C391	C39	0.094900	0.154400	0.283700
H311	H31	0.094100	0.106700	0.320700
N11	N1	0.375100	0.408300	0.396300
N21	N2	0.246500	0.415300	0.378700
N31	N3	0.616700	0.368900	0.480200
N41	N4	0.741600	0.357800	0.485700
N51	N5	0.364300	0.212200	0.203900
N61	N6	0.236500	0.229500	0.192900
N71	N7	0.609800	0.166300	0.294800
N81	N8	0.739800	0.172800	0.313000
Ni11	Ni1	0.486920	0.184000	0.249030
Ni21	Ni2	0.496150	0.390630	0.447260
O31	O3	0.492200	0.068900	0.048800
O41	O4	0.485900	0.096200	0.156900
O51	O5	0.531900	0.520800	0.214300
O61	O6	0.488400	0.257000	0.348100
C401	C40	0.972600	0.719300	0.251300
C411	C41	0.967700	0.788000	0.307900
H321	H32	0.011000	0.833700	0.333200
C421	C42	0.045100	0.884400	0.063400
C431	C43	0.057400	0.799400	0.019900
H331	H33	0.017100	0.746500	0.999400
O71	O7	0.516400	0.719200	0.042800
O81	O8	0.491600	0.833300	0.294100
C441	C44	0.509400	0.630300	0.400100
H341	H34	0.506700	0.708900	0.405700
C451	C45	0.516400	0.687200	0.099700
H351	H35	0.519800	0.609000	0.108600
C461	C46	0.496000	0.922900	0.269400
H361	H36	0.520800	0.926100	0.235800
C471	C47	0.679400	0.888800	0.075600
H371	H37	0.668400	0.860100	0.029500
C481	C48	0.664600	0.950300	0.171500
H381	H38	0.641100	0.971400	0.204400
C491	C49	0.744600	0.956000	0.183100
H391	H39	0.784800	0.982100	0.224300
C501	C50	0.826500	0.908700	0.106300
C511	C51	0.836200	0.823400	0.062700
H401	H40	0.796100	0.769900	0.043000
C521	C52	0.907200	0.817200	0.047800
H411	H41	0.912500	0.761100	0.016800
C531	C53	0.969700	0.893800	0.079000
C541	C54	0.958400	0.976700	0.123600
H421	H42	0.998900	0.029200	0.144700
C551	C55	0.887200	0.984500	0.138300
H431	H43	0.881600	0.040300	0.169400
C561	C56	0.108400	0.962000	0.091700
H441	H44	0.103600	0.020200	0.121600
C571	C57	0.332100	0.895200	0.050800
H451	H45	0.345700	0.935600	0.093700
C581	C58	0.339500	0.807700	0.958800
H461	H46	0.359600	0.775700	0.926100
C591	C59	0.263000	0.802200	0.954500
H471	H47	0.221100	0.767500	0.918200
C601	C60	0.186700	0.867600	0.032900
C611	C61	0.126800	0.789800	0.005600
H481	H48	0.132900	0.730100	0.977300
C621	C62	0.177900	0.954700	0.076700
H491	H49	0.218300	0.007900	0.095900
C631	C63	0.689700	0.687300	0.266700
H501	H50	0.678800	0.646500	0.224200
C641	C64	0.675700	0.773400	0.357700
H511	H51	0.653000	0.802400	0.389300
C651	C65	0.753500	0.784700	0.365000
H521	H52	0.792800	0.822500	0.402000
C661	C66	0.833600	0.724200	0.289100
C671	C67	0.900700	0.789800	0.327100
H531	H53	0.900400	0.834800	0.365500
C681	C68	0.836900	0.656400	0.233000
H541	H54	0.793100	0.612300	0.206700
C691	C69	0.334900	0.705800	0.229500
H551	H55	0.346000	0.750400	0.270500
C701	C70	0.347300	0.607200	0.142500
H561	H56	0.369800	0.572100	0.112500
C711	C71	0.269000	0.607800	0.131400
H571	H57	0.228800	0.572200	0.094200
C721	C72	0.187500	0.689600	0.201100
C731	C73	0.181900	0.774500	0.248700
H581	H58	0.224500	0.823400	0.270500
C741	C74	0.111800	0.784900	0.263100
H591	H59	0.108600	0.841500	0.294700
C751	C75	0.046100	0.713800	0.231900
C761	C76	0.053300	0.631500	0.183700
H601	H60	0.010500	0.583200	0.161400
C771	C77	0.122300	0.619300	0.167900
H611	H61	0.124800	0.564100	0.135200
C781	C78	0.905100	0.654400	0.216300
H621	H62	0.905900	0.606700	0.179300
N91	N9	0.624900	0.908300	0.103700
N101	N10	0.753500	0.915300	0.121300
N111	N11	0.383300	0.868900	0.019800
N121	N12	0.258400	0.857800	0.014300
N131	N13	0.635700	0.712200	0.296100
N141	N14	0.763500	0.729500	0.307100
N151	N15	0.390200	0.666300	0.205200
N161	N16	0.260200	0.672800	0.187000
Ni31	Ni3	0.513080	0.684000	0.250970
Ni41	Ni4	0.503850	0.890630	0.052740
O91	O9	0.507800	0.568900	0.451200
O101	O10	0.514100	0.596200	0.343100
O111	O11	0.468100	0.020800	0.285700
O121	O12	0.511600	0.757000	0.151900
C791	C79	0.972600	0.780700	0.751300
C801	C80	0.967700	0.712000	0.807900
H631	H63	0.011000	0.666300	0.833200
C811	C81	0.045100	0.615600	0.563400
C821	C82	0.057400	0.700600	0.519900
H641	H64	0.017100	0.753500	0.499400
O131	O13	0.516400	0.780800	0.542800
O141	O14	0.491600	0.666700	0.794100
C831	C83	0.509400	0.869700	0.900100
H651	H65	0.506700	0.791100	0.905700
C841	C84	0.516400	0.812800	0.599700
H661	H66	0.519800	0.891000	0.608600
C851	C85	0.496000	0.577100	0.769400
H671	H67	0.520800	0.573900	0.735800
C861	C86	0.679400	0.611200	0.575600
H681	H68	0.668400	0.639900	0.529500
C871	C87	0.664600	0.549700	0.671500
H691	H69	0.641100	0.528600	0.704400
C881	C88	0.744600	0.544000	0.683100
H701	H70	0.784800	0.517900	0.724300
C891	C89	0.826500	0.591300	0.606300
C901	C90	0.836200	0.676600	0.562700
H711	H71	0.796100	0.730100	0.543000
C911	C91	0.907200	0.682800	0.547800
H721	H72	0.912500	0.738900	0.516800
C921	C92	0.969700	0.606200	0.579000
C931	C93	0.958400	0.523300	0.623600
H731	H73	0.998900	0.470800	0.644700
C941	C94	0.887200	0.515500	0.638300
H741	H74	0.881600	0.459700	0.669400
C951	C95	0.108400	0.538000	0.591700
H751	H75	0.103600	0.479800	0.621600
C961	C96	0.332100	0.604800	0.550800
H761	H76	0.345700	0.564400	0.593700
C971	C97	0.339500	0.692300	0.458800
H771	H77	0.359600	0.724300	0.426100
C981	C98	0.263000	0.697800	0.454500
H781	H78	0.221100	0.732500	0.418200
C991	C99	0.186700	0.632400	0.532900
C1001	C100	0.126800	0.710200	0.505600
H791	H79	0.132900	0.769900	0.477300
C1011	C101	0.177900	0.545300	0.576700
H801	H80	0.218300	0.492100	0.595900
C1021	C102	0.689700	0.812700	0.766700
H811	H81	0.678800	0.853500	0.724200
C1031	C103	0.675700	0.726600	0.857700
H821	H82	0.653000	0.697600	0.889300
C1041	C104	0.753500	0.715300	0.865000
H831	H83	0.792800	0.677500	0.902000
C1051	C105	0.833600	0.775800	0.789100
C1061	C106	0.900700	0.710200	0.827100
H841	H84	0.900400	0.665200	0.865500
C1071	C107	0.836900	0.843600	0.733000
H851	H85	0.793100	0.887700	0.706700
C1081	C108	0.334900	0.794200	0.729500
H861	H86	0.346000	0.749600	0.770500
C1091	C109	0.347300	0.892800	0.642500
H871	H87	0.369800	0.927900	0.612500
C1101	C110	0.269000	0.892200	0.631400
H881	H88	0.228800	0.927800	0.594200
C1111	C111	0.187500	0.810400	0.701100
C1121	C112	0.181900	0.725500	0.748700
H891	H89	0.224500	0.676600	0.770500
C1131	C113	0.111800	0.715100	0.763100
H901	H90	0.108600	0.658500	0.794700
C1141	C114	0.046100	0.786200	0.731900
C1151	C115	0.053300	0.868500	0.683700
H911	H91	0.010500	0.916800	0.661400
C1161	C116	0.122300	0.880700	0.667900
H921	H92	0.124800	0.935900	0.635200
C1171	C117	0.905100	0.845600	0.716300
H931	H93	0.905900	0.893300	0.679300
N171	N17	0.624900	0.591700	0.603700
N181	N18	0.753500	0.584700	0.621300
N191	N19	0.383300	0.631100	0.519800
N201	N20	0.258400	0.642200	0.514300
N211	N21	0.635700	0.787800	0.796100
N221	N22	0.763500	0.770500	0.807100
N231	N23	0.390200	0.833700	0.705200
N241	N24	0.260200	0.827200	0.687000
Ni51	Ni5	0.513080	0.816000	0.750970
Ni61	Ni6	0.503850	0.609370	0.552740
O151	O15	0.507800	0.931100	0.951200
O161	O16	0.514100	0.903800	0.843100
O171	O17	0.468100	0.479200	0.785700
O181	O18	0.511600	0.743000	0.651900
C1181	C118	0.027400	0.280700	0.748700
C1191	C119	0.032300	0.212000	0.692100
H941	H94	0.989000	0.166300	0.666800
C1201	C120	0.954900	0.115600	0.936600
C1211	C121	0.942600	0.200600	0.980100
H951	H95	0.982900	0.253500	0.000600
O191	O19	0.483600	0.280800	0.957200
O201	O20	0.508400	0.166700	0.705900
C1221	C122	0.490600	0.369700	0.599900
H961	H96	0.493300	0.291100	0.594300
C1231	C123	0.483600	0.312800	0.900300
H971	H97	0.480200	0.391000	0.891400
C1241	C124	0.504000	0.077100	0.730600
H981	H98	0.479200	0.073900	0.764200
C1251	C125	0.320600	0.111200	0.924400
H991	H99	0.331600	0.139900	0.970500
C1261	C126	0.335400	0.049700	0.828500
H1001	H100	0.358900	0.028600	0.795600
C1271	C127	0.255400	0.044000	0.816900
H1011	H101	0.215200	0.017900	0.775700
C1281	C128	0.173500	0.091300	0.893700
C1291	C129	0.163800	0.176600	0.937300
H1021	H102	0.203900	0.230100	0.957000
C1301	C130	0.092800	0.182800	0.952200
H1031	H103	0.087500	0.238900	0.983200
C1311	C131	0.030300	0.106200	0.921000
C1321	C132	0.041600	0.023300	0.876400
H1041	H104	0.001100	0.970800	0.855300
C1331	C133	0.112800	0.015500	0.861700
H1051	H105	0.118400	0.959700	0.830600
C1341	C134	0.891600	0.038000	0.908300
H1061	H106	0.896400	0.979800	0.878400
C1351	C135	0.667900	0.104800	0.949200
H1071	H107	0.654300	0.064400	0.906300
C1361	C136	0.660500	0.192300	0.041200
H1081	H108	0.640400	0.224300	0.073900
C1371	C137	0.737000	0.197800	0.045500
H1091	H109	0.778900	0.232500	0.081800
C1381	C138	0.813300	0.132400	0.967100
C1391	C139	0.873200	0.210200	0.994400
H1101	H110	0.867100	0.269900	0.022700
C1401	C140	0.822100	0.045300	0.923300
H1111	H111	0.781700	0.992100	0.904100
C1411	C141	0.310300	0.312700	0.733300
H1121	H112	0.321200	0.353500	0.775800
C1421	C142	0.324300	0.226600	0.642300
H1131	H113	0.347000	0.197600	0.610700
C1431	C143	0.246500	0.215300	0.635000
H1141	H114	0.207200	0.177500	0.598000
C1441	C144	0.166400	0.275800	0.710900
C1451	C145	0.099300	0.210200	0.672900
H1151	H115	0.099600	0.165200	0.634500
C1461	C146	0.163100	0.343600	0.767000
H1161	H116	0.206900	0.387700	0.793300
C1471	C147	0.665100	0.294200	0.770500
H1171	H117	0.654000	0.249600	0.729500
C1481	C148	0.652700	0.392800	0.857500
H1181	H118	0.630200	0.427900	0.887500
C1491	C149	0.731000	0.392200	0.868600
H1191	H119	0.771200	0.427800	0.905800
C1501	C150	0.812500	0.310400	0.798900
C1511	C151	0.818100	0.225500	0.751300
H1201	H120	0.775500	0.176600	0.729500
C1521	C152	0.888200	0.215100	0.736900
H1211	H121	0.891400	0.158500	0.705300
C1531	C153	0.953900	0.286200	0.768100
C1541	C154	0.946700	0.368500	0.816300
H1221	H122	0.989500	0.416800	0.838600
C1551	C155	0.877700	0.380700	0.832100
H1231	H123	0.875200	0.435900	0.864800
C1561	C156	0.094900	0.345600	0.783700
H1241	H124	0.094100	0.393300	0.820700
N251	N25	0.375100	0.091700	0.896300
N261	N26	0.246500	0.084700	0.878700
N271	N27	0.616700	0.131100	0.980200
N281	N28	0.741600	0.142200	0.985700
N291	N29	0.364300	0.287800	0.703900
N301	N30	0.236500	0.270500	0.692900
N311	N31	0.609800	0.333700	0.794800
N321	N32	0.739800	0.327200	0.813000
Ni71	Ni7	0.486920	0.316000	0.749030
Ni81	Ni8	0.496150	0.109370	0.947260
O211	O21	0.492200	0.431100	0.548800
O221	O22	0.485900	0.403800	0.656900
O231	O23	0.531900	0.979200	0.714300
O241	O24	0.488400	0.243000	0.848100
