data_HUZFIS_charged_PM
_symmetry_space_group_name_H-M	'P1'
_cell_length_a	13.031500
_cell_length_b	13.031500
_cell_length_c	25.094200
_cell_angle_alpha	82.116700
_cell_angle_beta	80.102500
_cell_angle_gamma	113.884000
_symmetry_Int_Tables_number 1

loop_
_symmetry_equiv_pos_as_xyz
'x,y,z'

loop_
_atom_site_label
_atom_site_type_symbol
_atom_site_fract_x
_atom_site_fract_y
_atom_site_fract_z
Cd11	Cd1	0.579600	0.829600	0.250000
Cd21	Cd2	0.420400	0.170400	0.750000
H11	H1	0.171900	0.674400	0.167900
H21	H2	0.616800	0.618300	0.194900
H31	H3	0.734800	0.122500	0.234300
H41	H4	0.347900	0.779700	0.185600
H51	H5	0.992500	0.893400	0.083700
H61	H6	0.827100	0.316300	0.191000
H71	H7	0.595300	0.858800	0.107500
H81	H8	0.951600	0.381100	0.103500
H91	H9	0.648800	0.947900	0.014300
H101	H10	0.634900	0.499200	0.120700
H111	H11	0.322600	0.305300	0.226700
H121	H12	0.478100	0.037300	0.244800
H131	H13	0.907800	0.120300	0.999300
H141	H14	0.586300	0.213200	0.049300
H151	H15	0.793000	0.846200	0.141800
H161	H16	0.346000	0.139600	0.219200
H171	H17	0.987500	0.253900	0.055400
H181	H18	0.243400	0.402000	0.160600
H191	H19	0.642900	0.121200	0.985100
H201	H20	0.118700	0.488400	0.157100
H211	H21	0.663600	0.335700	0.116300
H221	H22	0.342300	0.339800	0.332100
H231	H23	0.313200	0.811700	0.305100
H241	H24	0.856800	0.969100	0.265700
H251	H25	0.465300	0.533500	0.314400
H261	H26	0.477100	0.076200	0.416300
H271	H27	0.007300	0.018100	0.309000
H281	H28	0.466300	0.702800	0.392500
H291	H29	0.984600	0.055100	0.396500
H301	H30	0.462200	0.663100	0.485700
H311	H31	0.119900	0.755600	0.379300
H321	H32	0.032000	0.549300	0.273300
H331	H33	0.782100	0.722900	0.255200
H341	H34	0.619600	0.907100	0.500700
H351	H35	0.762500	0.635600	0.450700
H361	H36	0.488000	0.934800	0.358200
H371	H37	0.858800	0.565200	0.280800
H381	H38	0.809300	0.042900	0.444600
H391	H39	0.062600	0.404000	0.339400
H401	H40	0.606300	0.628000	0.514900
H411	H41	0.145500	0.275800	0.342900
H421	H42	0.952000	0.779900	0.383700
H431	H43	0.828100	0.325600	0.832100
H441	H44	0.383200	0.381700	0.805100
H451	H45	0.265200	0.877500	0.765700
H461	H46	0.652100	0.220300	0.814400
H471	H47	0.007500	0.106600	0.916300
H481	H48	0.172900	0.683700	0.809000
H491	H49	0.404700	0.141200	0.892500
H501	H50	0.048400	0.618900	0.896500
H511	H51	0.351200	0.052100	0.985700
H521	H52	0.365100	0.500800	0.879300
H531	H53	0.677400	0.694700	0.773300
H541	H54	0.521900	0.962700	0.755200
H551	H55	0.092200	0.879700	0.000700
H561	H56	0.413700	0.786800	0.950700
H571	H57	0.207000	0.153800	0.858200
H581	H58	0.654000	0.860400	0.780800
H591	H59	0.012500	0.746100	0.944600
H601	H60	0.756600	0.598000	0.839400
H611	H61	0.357100	0.878800	0.014900
H621	H62	0.881300	0.511600	0.842900
H631	H63	0.336400	0.664300	0.883700
H641	H64	0.657700	0.660200	0.667900
H651	H65	0.686800	0.188300	0.694900
H661	H66	0.143200	0.030900	0.734300
H671	H67	0.534700	0.466500	0.685600
H681	H68	0.522900	0.923800	0.583700
H691	H69	0.992700	0.981900	0.691000
H701	H70	0.533700	0.297200	0.607500
H711	H71	0.015400	0.944900	0.603500
H721	H72	0.537800	0.336900	0.514300
H731	H73	0.880100	0.244400	0.620700
H741	H74	0.968000	0.450700	0.726700
H751	H75	0.217900	0.277100	0.744800
H761	H76	0.380400	0.092900	0.499300
H771	H77	0.237500	0.364400	0.549300
H781	H78	0.512000	0.065200	0.641800
H791	H79	0.141200	0.434800	0.719200
H801	H80	0.190700	0.957100	0.555400
H811	H81	0.937400	0.596000	0.660600
H821	H82	0.393700	0.372000	0.485100
H831	H83	0.854500	0.724200	0.657100
H841	H84	0.048000	0.220100	0.616300
C11	C1	0.476590	0.416500	0.174310
C21	C2	0.222870	0.641690	0.170440
C31	C3	0.545500	0.613070	0.190430
C41	C4	0.784110	0.148130	0.198760
C51	C5	0.327560	0.704930	0.180910
C61	C6	0.995740	0.935910	0.049950
C71	C7	0.402620	0.653620	0.184360
C81	C8	0.839730	0.263230	0.172840
C91	C9	0.594780	0.929560	0.096260
C101	C10	0.915080	0.302450	0.119670
C111	C11	0.804130	0.070840	0.169830
C121	C12	0.369780	0.541410	0.176410
C131	C13	0.878610	0.111400	0.116590
C141	C14	0.625420	0.982830	0.040750
C151	C15	0.578270	0.427040	0.140890
C161	C16	0.389960	0.310510	0.204130
C171	C17	0.504330	0.036690	0.207980
C181	C18	0.562820	0.985590	0.134990
C191	C19	0.944700	0.072280	0.999420
C201	C20	0.941190	0.007740	0.049070
C211	C21	0.507000	0.222380	0.167420
C221	C22	0.589430	0.143830	0.060740
C231	C23	0.561330	0.090800	0.116670
C241	C24	0.807270	0.921790	0.142740
C251	C25	0.404310	0.211900	0.200190
C261	C26	0.936770	0.227730	0.090500
C271	C27	0.263950	0.476410	0.165840
C281	C28	0.622430	0.088220	0.022950
C291	C29	0.190960	0.528950	0.163490
C301	C30	0.594810	0.329760	0.137830
C311	C31	0.090810	0.650900	0.325690
C321	C32	0.312130	0.393310	0.329560
C331	C33	0.303500	0.735930	0.309570
C341	C34	0.846890	0.982870	0.301240
C351	C35	0.385840	0.508470	0.319090
C361	C36	0.485860	0.045690	0.450050
C371	C37	0.337980	0.586980	0.315640
C381	C38	0.936070	0.012570	0.327160
C391	C39	0.525820	0.691040	0.403740
C401	C40	0.922120	0.034750	0.380330
C411	C41	0.740670	0.973960	0.330170
C421	C42	0.217820	0.546190	0.323590
C431	C43	0.727990	0.995200	0.383410
C441	C44	0.523580	0.666170	0.459250
C451	C45	0.067930	0.719160	0.359110
C461	C46	0.014640	0.594090	0.295870
C471	C47	0.744670	0.712310	0.292020
C481	C48	0.620580	0.697810	0.365010
C491	C49	0.571700	0.944120	0.500580
C501	C50	0.556810	0.990260	0.450930
C511	C51	0.889800	0.674420	0.332580
C521	C52	0.704570	0.650170	0.439260
C531	C53	0.707470	0.678000	0.383330
C541	C54	0.564530	0.950010	0.357260
C551	C55	0.912090	0.604500	0.299810
C561	C56	0.818230	0.027270	0.409500
C571	C57	0.142250	0.429790	0.334160
C581	C58	0.611170	0.645380	0.477050
C591	C59	0.192440	0.354450	0.336510
C601	C60	0.967590	0.732640	0.362170
C611	C61	0.523410	0.583500	0.825690
C621	C62	0.777130	0.358310	0.829560
C631	C63	0.454500	0.386930	0.809570
C641	C64	0.215890	0.851870	0.801240
C651	C65	0.672440	0.295070	0.819090
C661	C66	0.004260	0.064090	0.950050
C671	C67	0.597380	0.346380	0.815640
C681	C68	0.160270	0.736770	0.827160
C691	C69	0.405220	0.070440	0.903740
C701	C70	0.084920	0.697550	0.880330
C711	C71	0.195870	0.929160	0.830170
C721	C72	0.630220	0.458590	0.823590
C731	C73	0.121390	0.888600	0.883410
C741	C74	0.374580	0.017170	0.959250
C751	C75	0.421730	0.572960	0.859110
C761	C76	0.610040	0.689490	0.795870
C771	C77	0.495670	0.963310	0.792020
C781	C78	0.437180	0.014410	0.865010
C791	C79	0.055300	0.927720	0.000580
C801	C80	0.058810	0.992260	0.950930
C811	C81	0.493000	0.777620	0.832580
C821	C82	0.410570	0.856170	0.939260
C831	C83	0.438670	0.909200	0.883330
C841	C84	0.192730	0.078210	0.857260
C851	C85	0.595690	0.788100	0.799810
C861	C86	0.063230	0.772270	0.909500
C871	C87	0.736050	0.523590	0.834160
C881	C88	0.377570	0.911780	0.977050
C891	C89	0.809040	0.471050	0.836510
C901	C90	0.405190	0.670240	0.862170
C911	C91	0.909190	0.349100	0.674310
C921	C92	0.687870	0.606690	0.670440
C931	C93	0.696500	0.264070	0.690430
C941	C94	0.153110	0.017130	0.698760
C951	C95	0.614160	0.491530	0.680910
C961	C96	0.514140	0.954310	0.549950
C971	C97	0.662020	0.413020	0.684360
C981	C98	0.063930	0.987430	0.672840
C991	C99	0.474180	0.308960	0.596260
C1001	C100	0.077880	0.965250	0.619670
C1011	C101	0.259330	0.026040	0.669830
C1021	C102	0.782180	0.453810	0.676410
C1031	C103	0.272010	0.004800	0.616590
C1041	C104	0.476420	0.333830	0.540750
C1051	C105	0.932070	0.280840	0.640890
C1061	C106	0.985360	0.405910	0.704130
C1071	C107	0.255330	0.287690	0.707980
C1081	C108	0.379420	0.302190	0.634990
C1091	C109	0.428300	0.055880	0.499420
C1101	C110	0.443190	0.009740	0.549070
C1111	C111	0.110200	0.325580	0.667420
C1121	C112	0.295430	0.349830	0.560740
C1131	C113	0.292530	0.322000	0.616670
C1141	C114	0.435470	0.049990	0.642740
C1151	C115	0.087910	0.395500	0.700190
C1161	C116	0.181770	0.972730	0.590500
C1171	C117	0.857750	0.570210	0.665840
C1181	C118	0.388830	0.354620	0.522950
C1191	C119	0.807560	0.645550	0.663490
C1201	C120	0.032410	0.267360	0.637830
N11	N1	0.526690	0.953090	0.193200
N21	N2	0.759810	0.950090	0.185320
N31	N3	0.514230	0.696650	0.193760
N41	N4	0.464670	0.519080	0.179890
N51	N5	0.878710	0.012960	0.100390
N61	N6	0.523090	0.121420	0.164490
N71	N7	0.646290	0.719890	0.306800
N81	N8	0.635410	0.945130	0.314680
N91	N9	0.390410	0.707990	0.306240
N101	N10	0.198970	0.644560	0.320110
N111	N11	0.613350	0.979100	0.399610
N121	N12	0.785910	0.687580	0.335510
N131	N13	0.473310	0.046910	0.806800
N141	N14	0.240190	0.049910	0.814680
N151	N15	0.485770	0.303350	0.806240
N161	N16	0.535330	0.480920	0.820110
N171	N17	0.121290	0.987040	0.899610
N181	N18	0.476910	0.878580	0.835510
N191	N19	0.353710	0.280110	0.693200
N201	N20	0.364590	0.054870	0.685320
N211	N21	0.609590	0.292010	0.693760
N221	N22	0.801030	0.355440	0.679890
N231	N23	0.386650	0.020900	0.600390
N241	N24	0.214090	0.312420	0.664490
Cl11	Cl1	0.086870	0.371260	0.861550
O11	O1	0.080750	0.457380	0.822070
O21	O2	0.165210	0.330140	0.835850
O31	O3	0.974160	0.279100	0.884140
O41	O4	0.129300	0.423200	0.904500
Cl21	Cl2	0.732810	0.948420	0.638450
O51	O5	0.779450	0.902820	0.677930
O61	O6	0.665990	0.001060	0.664150
O71	O7	0.663240	0.858300	0.615860
O81	O8	0.827700	0.033800	0.595500
Cl31	Cl3	0.913130	0.628740	0.138450
O91	O9	0.919250	0.542620	0.177930
O101	O10	0.834790	0.669860	0.164150
O111	O11	0.025840	0.720900	0.115860
O121	O12	0.870700	0.576800	0.095500
Cl41	Cl4	0.267190	0.051580	0.361550
O131	O13	0.220550	0.097180	0.322070
O141	O14	0.334010	0.998940	0.335850
O151	O15	0.336760	0.141700	0.384140
O161	O16	0.172300	0.966200	0.404500
