data_HUZXIL_clean_PM
_symmetry_space_group_name_H-M	'P1'
_cell_length_a	38.829800
_cell_length_b	27.733900
_cell_length_c	27.045500
_cell_angle_alpha	90.000000
_cell_angle_beta	133.545000
_cell_angle_gamma	90.000000
_symmetry_Int_Tables_number 1

loop_
_symmetry_equiv_pos_as_xyz
'x,y,z'

loop_
_atom_site_label
_atom_site_type_symbol
_atom_site_fract_x
_atom_site_fract_y
_atom_site_fract_z
C11	C1	0.104430	0.828480	0.800100
C21	C2	0.106440	0.872950	0.835200
C31	C3	0.065020	0.897850	0.805500
H11	H1	0.036300	0.889000	0.762800
C41	C4	0.067100	0.936170	0.840500
H21	H2	0.039400	0.952900	0.820700
C51	C5	0.108800	0.949940	0.903300
C61	C6	0.149800	0.925900	0.930900
H31	H3	0.178600	0.935100	0.973400
C71	C7	0.148530	0.888630	0.896600
H41	H4	0.176700	0.873700	0.915200
C81	C8	0.081500	0.067900	0.943400
C91	C9	0.083100	0.030000	0.909900
H51	H5	0.066000	0.033100	0.863700
C101	C10	0.107700	0.991100	0.941800
C111	C11	0.133300	0.983500	0.011700
C121	C12	0.137800	0.019600	0.050700
H61	H6	0.157300	0.015200	0.097400
C131	C13	0.111900	0.065000	0.018700
C141	C14	0.067000	0.152600	0.066000
H71	H7	0.038200	0.164900	0.048400
C151	C15	0.067800	0.121500	0.027400
H81	H8	0.039800	0.114100	0.983100
C161	C16	0.109900	0.101200	0.053900
C171	C17	0.151300	0.117100	0.116300
H91	H9	0.180700	0.107000	0.133800
C181	C18	0.148000	0.147800	0.151600
H101	H10	0.176100	0.157300	0.194700
C191	C19	0.107190	0.165510	0.128700
C201	C20	0.106550	0.199760	0.171800
C211	C21	0.029200	0.115800	0.829900
H111	H11	0.009400	0.088600	0.801000
H121	H12	0.049800	0.124900	0.823100
C221	C22	0.998900	0.160700	0.821700
H131	H13	0.004200	0.163000	0.862300
H141	H14	0.965300	0.154800	0.783200
C231	C23	0.093250	0.672730	0.686700
C241	C24	0.090520	0.629390	0.650500
C251	C25	0.047140	0.607000	0.597000
H151	H15	0.019400	0.617400	0.585100
C261	C26	0.045600	0.569120	0.561900
H161	H16	0.016200	0.556300	0.524200
C271	C27	0.085400	0.550230	0.580800
C281	C28	0.129600	0.572000	0.636800
H171	H17	0.157600	0.559400	0.651600
C291	C29	0.131360	0.611600	0.669600
H181	H18	0.160400	0.626400	0.704800
C301	C30	0.085700	0.510900	0.547300
C311	C31	0.051900	0.507800	0.475600
C321	C32	0.119100	0.435500	0.545600
C331	C33	0.087210	0.434110	0.476200
C341	C34	0.053000	0.470400	0.438800
H191	H19	0.031400	0.470700	0.391500
C351	C35	0.118200	0.471500	0.583100
H201	H20	0.138600	0.469000	0.630200
C361	C36	0.136070	0.357080	0.421200
H211	H21	0.165100	0.351600	0.434300
C371	C37	0.132900	0.389430	0.458300
H221	H22	0.160300	0.404700	0.496500
C381	C38	0.090300	0.398860	0.439100
C391	C39	0.049990	0.375120	0.381600
H231	H23	0.020900	0.381100	0.368000
C401	C40	0.051590	0.342930	0.343900
C411	C41	0.095790	0.333750	0.365400
C421	C42	0.097940	0.300810	0.322900
C431	C43	0.971600	0.529900	0.357800
H241	H24	0.954500	0.500500	0.348500
H251	H25	0.979700	0.531500	0.331000
C441	C44	0.175100	0.391600	0.660000
H261	H26	0.198700	0.416400	0.689600
H271	H27	0.150400	0.394400	0.660500
C451	C45	0.199600	0.339300	0.688200
H281	H28	0.179700	0.316400	0.651000
H291	H29	0.229800	0.340600	0.700800
C461	C46	0.207500	0.322000	0.741600
H301	H30	0.222100	0.290800	0.753800
H311	H31	0.177900	0.319300	0.729600
H321	H32	0.228200	0.343500	0.779600
C471	C47	0.251600	0.257400	0.436700
H331	H33	0.235600	0.255700	0.450900
C481	C48	0.296000	0.259800	0.482500
H341	H34	0.310300	0.264800	0.527200
C491	C49	0.324600	0.255400	0.470100
C501	C50	0.298900	0.253400	0.400000
H351	H35	0.314700	0.251100	0.385500
C511	C51	0.248800	0.254900	0.352200
H361	H36	0.232000	0.254300	0.306000
C521	C52	0.450640	0.281500	0.629700
H371	H37	0.467000	0.298000	0.670500
C531	C53	0.402070	0.281840	0.582600
H381	H38	0.386100	0.297800	0.592100
C541	C54	0.377050	0.258810	0.521700
C551	C55	0.402990	0.237100	0.510600
H391	H39	0.387500	0.222200	0.469000
C561	C56	0.450700	0.237200	0.559800
H401	H40	0.467300	0.221400	0.551300
N11	N1	0.225020	0.257060	0.369830
N21	N2	0.475410	0.258520	0.619610
O11	O1	0.142160	0.807010	0.829590
O21	O2	0.064000	0.815380	0.746130
O31	O3	0.057600	0.107000	0.908900
O41	O4	0.162000	0.942200	0.047900
O51	O5	0.144820	0.211500	0.229380
O61	O6	0.066340	0.212460	0.147340
O71	O7	0.133210	0.688930	0.735860
O81	O8	0.054390	0.689910	0.662120
O91	O9	0.014700	0.540100	0.436000
O101	O10	0.152300	0.399600	0.583300
O111	O11	0.138390	0.293150	0.345180
O121	O12	0.060030	0.283530	0.269350
Zn11	Zn1	0.152340	0.253260	0.297360
Zn21	Zn2	0.048000	0.246700	0.193420
C571	C57	0.604430	0.328480	0.800100
C581	C58	0.606440	0.372950	0.835200
C591	C59	0.565020	0.397850	0.805500
H411	H41	0.536300	0.389000	0.762800
C601	C60	0.567100	0.436170	0.840500
H421	H42	0.539400	0.452900	0.820700
C611	C61	0.608800	0.449940	0.903300
C621	C62	0.649800	0.425900	0.930900
H431	H43	0.678600	0.435100	0.973400
C631	C63	0.648530	0.388630	0.896600
H441	H44	0.676700	0.373700	0.915200
C641	C64	0.581500	0.567900	0.943400
C651	C65	0.583100	0.530000	0.909900
H451	H45	0.566000	0.533100	0.863700
C661	C66	0.607700	0.491100	0.941800
C671	C67	0.633300	0.483500	0.011700
C681	C68	0.637800	0.519600	0.050700
H461	H46	0.657300	0.515200	0.097400
C691	C69	0.611900	0.565000	0.018700
C701	C70	0.567000	0.652600	0.066000
H471	H47	0.538200	0.664900	0.048400
C711	C71	0.567800	0.621500	0.027400
H481	H48	0.539800	0.614100	0.983100
C721	C72	0.609900	0.601200	0.053900
C731	C73	0.651300	0.617100	0.116300
H491	H49	0.680700	0.607000	0.133800
C741	C74	0.648000	0.647800	0.151600
H501	H50	0.676100	0.657300	0.194700
C751	C75	0.607190	0.665510	0.128700
C761	C76	0.606550	0.699760	0.171800
C771	C77	0.529200	0.615800	0.829900
H511	H51	0.509400	0.588600	0.801000
H521	H52	0.549800	0.624900	0.823100
C781	C78	0.498900	0.660700	0.821700
H531	H53	0.504200	0.663000	0.862300
H541	H54	0.465300	0.654800	0.783200
C791	C79	0.593250	0.172730	0.686700
C801	C80	0.590520	0.129390	0.650500
C811	C81	0.547140	0.107000	0.597000
H551	H55	0.519400	0.117400	0.585100
C821	C82	0.545600	0.069120	0.561900
H561	H56	0.516200	0.056300	0.524200
C831	C83	0.585400	0.050230	0.580800
C841	C84	0.629600	0.072000	0.636800
H571	H57	0.657600	0.059400	0.651600
C851	C85	0.631360	0.111600	0.669600
H581	H58	0.660400	0.126400	0.704800
C861	C86	0.585700	0.010900	0.547300
C871	C87	0.551900	0.007800	0.475600
C881	C88	0.619100	0.935500	0.545600
C891	C89	0.587210	0.934110	0.476200
C901	C90	0.553000	0.970400	0.438800
H591	H59	0.531400	0.970700	0.391500
C911	C91	0.618200	0.971500	0.583100
H601	H60	0.638600	0.969000	0.630200
C921	C92	0.636070	0.857080	0.421200
H611	H61	0.665100	0.851600	0.434300
C931	C93	0.632900	0.889430	0.458300
H621	H62	0.660300	0.904700	0.496500
C941	C94	0.590300	0.898860	0.439100
C951	C95	0.549990	0.875120	0.381600
H631	H63	0.520900	0.881100	0.368000
C961	C96	0.551590	0.842930	0.343900
C971	C97	0.595790	0.833750	0.365400
C981	C98	0.597940	0.800810	0.322900
C991	C99	0.471600	0.029900	0.357800
H641	H64	0.454500	0.000500	0.348500
H651	H65	0.479700	0.031500	0.331000
C1001	C100	0.675100	0.891600	0.660000
H661	H66	0.698700	0.916400	0.689600
H671	H67	0.650400	0.894400	0.660500
C1011	C101	0.699600	0.839300	0.688200
H681	H68	0.679700	0.816400	0.651000
H691	H69	0.729800	0.840600	0.700800
C1021	C102	0.707500	0.822000	0.741600
H701	H70	0.722100	0.790800	0.753800
H711	H71	0.677900	0.819300	0.729600
H721	H72	0.728200	0.843500	0.779600
C1031	C103	0.751600	0.757400	0.436700
H731	H73	0.735600	0.755700	0.450900
C1041	C104	0.796000	0.759800	0.482500
H741	H74	0.810300	0.764800	0.527200
C1051	C105	0.824600	0.755400	0.470100
C1061	C106	0.798900	0.753400	0.400000
H751	H75	0.814700	0.751100	0.385500
C1071	C107	0.748800	0.754900	0.352200
H761	H76	0.732000	0.754300	0.306000
C1081	C108	0.950640	0.781500	0.629700
H771	H77	0.967000	0.798000	0.670500
C1091	C109	0.902070	0.781840	0.582600
H781	H78	0.886100	0.797800	0.592100
C1101	C110	0.877050	0.758810	0.521700
C1111	C111	0.902990	0.737100	0.510600
H791	H79	0.887500	0.722200	0.469000
C1121	C112	0.950700	0.737200	0.559800
H801	H80	0.967300	0.721400	0.551300
N31	N3	0.725020	0.757060	0.369830
N41	N4	0.975410	0.758520	0.619610
O131	O13	0.642160	0.307010	0.829590
O141	O14	0.564000	0.315380	0.746130
O151	O15	0.557600	0.607000	0.908900
O161	O16	0.662000	0.442200	0.047900
O171	O17	0.644820	0.711500	0.229380
O181	O18	0.566340	0.712460	0.147340
O191	O19	0.633210	0.188930	0.735860
O201	O20	0.554390	0.189910	0.662120
O211	O21	0.514700	0.040100	0.436000
O221	O22	0.652300	0.899600	0.583300
O231	O23	0.638390	0.793150	0.345180
O241	O24	0.560030	0.783530	0.269350
Zn31	Zn3	0.652340	0.753260	0.297360
Zn41	Zn4	0.548000	0.746700	0.193420
C1131	C113	0.104430	0.171520	0.300100
C1141	C114	0.106440	0.127050	0.335200
C1151	C115	0.065020	0.102150	0.305500
H811	H81	0.036300	0.111000	0.262800
C1161	C116	0.067100	0.063830	0.340500
H821	H82	0.039400	0.047100	0.320700
C1171	C117	0.108800	0.050060	0.403300
C1181	C118	0.149800	0.074100	0.430900
H831	H83	0.178600	0.064900	0.473400
C1191	C119	0.148530	0.111370	0.396600
H841	H84	0.176700	0.126300	0.415200
C1201	C120	0.081500	0.932100	0.443400
C1211	C121	0.083100	0.970000	0.409900
H851	H85	0.066000	0.966900	0.363700
C1221	C122	0.107700	0.008900	0.441800
C1231	C123	0.133300	0.016500	0.511700
C1241	C124	0.137800	0.980400	0.550700
H861	H86	0.157300	0.984800	0.597400
C1251	C125	0.111900	0.935000	0.518700
C1261	C126	0.067000	0.847400	0.566000
H871	H87	0.038200	0.835100	0.548400
C1271	C127	0.067800	0.878500	0.527400
H881	H88	0.039800	0.885900	0.483100
C1281	C128	0.109900	0.898800	0.553900
C1291	C129	0.151300	0.882900	0.616300
H891	H89	0.180700	0.893000	0.633800
C1301	C130	0.148000	0.852200	0.651600
H901	H90	0.176100	0.842700	0.694700
C1311	C131	0.107190	0.834490	0.628700
C1321	C132	0.106550	0.800240	0.671800
C1331	C133	0.029200	0.884200	0.329900
H911	H91	0.009400	0.911400	0.301000
H921	H92	0.049800	0.875100	0.323100
C1341	C134	0.998900	0.839300	0.321700
H931	H93	0.004200	0.837000	0.362300
H941	H94	0.965300	0.845200	0.283200
C1351	C135	0.093250	0.327270	0.186700
C1361	C136	0.090520	0.370610	0.150500
C1371	C137	0.047140	0.393000	0.097000
H951	H95	0.019400	0.382600	0.085100
C1381	C138	0.045600	0.430880	0.061900
H961	H96	0.016200	0.443700	0.024200
C1391	C139	0.085400	0.449770	0.080800
C1401	C140	0.129600	0.428000	0.136800
H971	H97	0.157600	0.440600	0.151600
C1411	C141	0.131360	0.388400	0.169600
H981	H98	0.160400	0.373600	0.204800
C1421	C142	0.085700	0.489100	0.047300
C1431	C143	0.051900	0.492200	0.975600
C1441	C144	0.119100	0.564500	0.045600
C1451	C145	0.087210	0.565890	0.976200
C1461	C146	0.053000	0.529600	0.938800
H991	H99	0.031400	0.529300	0.891500
C1471	C147	0.118200	0.528500	0.083100
H1001	H100	0.138600	0.531000	0.130200
C1481	C148	0.136070	0.642920	0.921200
H1011	H101	0.165100	0.648400	0.934300
C1491	C149	0.132900	0.610570	0.958300
H1021	H102	0.160300	0.595300	0.996500
C1501	C150	0.090300	0.601140	0.939100
C1511	C151	0.049990	0.624880	0.881600
H1031	H103	0.020900	0.618900	0.868000
C1521	C152	0.051590	0.657070	0.843900
C1531	C153	0.095790	0.666250	0.865400
C1541	C154	0.097940	0.699190	0.822900
C1551	C155	0.971600	0.470100	0.857800
H1041	H104	0.954500	0.499500	0.848500
H1051	H105	0.979700	0.468500	0.831000
C1561	C156	0.175100	0.608400	0.160000
H1061	H106	0.198700	0.583600	0.189600
H1071	H107	0.150400	0.605600	0.160500
C1571	C157	0.199600	0.660700	0.188200
H1081	H108	0.179700	0.683600	0.151000
H1091	H109	0.229800	0.659400	0.200800
C1581	C158	0.207500	0.678000	0.241600
H1101	H110	0.222100	0.709200	0.253800
H1111	H111	0.177900	0.680700	0.229600
H1121	H112	0.228200	0.656500	0.279600
C1591	C159	0.251600	0.742600	0.936700
H1131	H113	0.235600	0.744300	0.950900
C1601	C160	0.296000	0.740200	0.982500
H1141	H114	0.310300	0.735200	0.027200
C1611	C161	0.324600	0.744600	0.970100
C1621	C162	0.298900	0.746600	0.900000
H1151	H115	0.314700	0.748900	0.885500
C1631	C163	0.248800	0.745100	0.852200
H1161	H116	0.232000	0.745700	0.806000
C1641	C164	0.450640	0.718500	0.129700
H1171	H117	0.467000	0.702000	0.170500
C1651	C165	0.402070	0.718160	0.082600
H1181	H118	0.386100	0.702200	0.092100
C1661	C166	0.377050	0.741190	0.021700
C1671	C167	0.402990	0.762900	0.010600
H1191	H119	0.387500	0.777800	0.969000
C1681	C168	0.450700	0.762800	0.059800
H1201	H120	0.467300	0.778600	0.051300
N51	N5	0.225020	0.742940	0.869830
N61	N6	0.475410	0.741480	0.119610
O251	O25	0.142160	0.192990	0.329590
O261	O26	0.064000	0.184620	0.246130
O271	O27	0.057600	0.893000	0.408900
O281	O28	0.162000	0.057800	0.547900
O291	O29	0.144820	0.788500	0.729380
O301	O30	0.066340	0.787540	0.647340
O311	O31	0.133210	0.311070	0.235860
O321	O32	0.054390	0.310090	0.162120
O331	O33	0.014700	0.459900	0.936000
O341	O34	0.152300	0.600400	0.083300
O351	O35	0.138390	0.706850	0.845180
O361	O36	0.060030	0.716470	0.769350
Zn51	Zn5	0.152340	0.746740	0.797360
Zn61	Zn6	0.048000	0.753300	0.693420
C1691	C169	0.604430	0.671520	0.300100
C1701	C170	0.606440	0.627050	0.335200
C1711	C171	0.565020	0.602150	0.305500
H1211	H121	0.536300	0.611000	0.262800
C1721	C172	0.567100	0.563830	0.340500
H1221	H122	0.539400	0.547100	0.320700
C1731	C173	0.608800	0.550060	0.403300
C1741	C174	0.649800	0.574100	0.430900
H1231	H123	0.678600	0.564900	0.473400
C1751	C175	0.648530	0.611370	0.396600
H1241	H124	0.676700	0.626300	0.415200
C1761	C176	0.581500	0.432100	0.443400
C1771	C177	0.583100	0.470000	0.409900
H1251	H125	0.566000	0.466900	0.363700
C1781	C178	0.607700	0.508900	0.441800
C1791	C179	0.633300	0.516500	0.511700
C1801	C180	0.637800	0.480400	0.550700
H1261	H126	0.657300	0.484800	0.597400
C1811	C181	0.611900	0.435000	0.518700
C1821	C182	0.567000	0.347400	0.566000
H1271	H127	0.538200	0.335100	0.548400
C1831	C183	0.567800	0.378500	0.527400
H1281	H128	0.539800	0.385900	0.483100
C1841	C184	0.609900	0.398800	0.553900
C1851	C185	0.651300	0.382900	0.616300
H1291	H129	0.680700	0.393000	0.633800
C1861	C186	0.648000	0.352200	0.651600
H1301	H130	0.676100	0.342700	0.694700
C1871	C187	0.607190	0.334490	0.628700
C1881	C188	0.606550	0.300240	0.671800
C1891	C189	0.529200	0.384200	0.329900
H1311	H131	0.509400	0.411400	0.301000
H1321	H132	0.549800	0.375100	0.323100
C1901	C190	0.498900	0.339300	0.321700
H1331	H133	0.504200	0.337000	0.362300
H1341	H134	0.465300	0.345200	0.283200
C1911	C191	0.593250	0.827270	0.186700
C1921	C192	0.590520	0.870610	0.150500
C1931	C193	0.547140	0.893000	0.097000
H1351	H135	0.519400	0.882600	0.085100
C1941	C194	0.545600	0.930880	0.061900
H1361	H136	0.516200	0.943700	0.024200
C1951	C195	0.585400	0.949770	0.080800
C1961	C196	0.629600	0.928000	0.136800
H1371	H137	0.657600	0.940600	0.151600
C1971	C197	0.631360	0.888400	0.169600
H1381	H138	0.660400	0.873600	0.204800
C1981	C198	0.585700	0.989100	0.047300
C1991	C199	0.551900	0.992200	0.975600
C2001	C200	0.619100	0.064500	0.045600
C2011	C201	0.587210	0.065890	0.976200
C2021	C202	0.553000	0.029600	0.938800
H1391	H139	0.531400	0.029300	0.891500
C2031	C203	0.618200	0.028500	0.083100
H1401	H140	0.638600	0.031000	0.130200
C2041	C204	0.636070	0.142920	0.921200
H1411	H141	0.665100	0.148400	0.934300
C2051	C205	0.632900	0.110570	0.958300
H1421	H142	0.660300	0.095300	0.996500
C2061	C206	0.590300	0.101140	0.939100
C2071	C207	0.549990	0.124880	0.881600
H1431	H143	0.520900	0.118900	0.868000
C2081	C208	0.551590	0.157070	0.843900
C2091	C209	0.595790	0.166250	0.865400
C2101	C210	0.597940	0.199190	0.822900
C2111	C211	0.471600	0.970100	0.857800
H1441	H144	0.454500	0.999500	0.848500
H1451	H145	0.479700	0.968500	0.831000
C2121	C212	0.675100	0.108400	0.160000
H1461	H146	0.698700	0.083600	0.189600
H1471	H147	0.650400	0.105600	0.160500
C2131	C213	0.699600	0.160700	0.188200
H1481	H148	0.679700	0.183600	0.151000
H1491	H149	0.729800	0.159400	0.200800
C2141	C214	0.707500	0.178000	0.241600
H1501	H150	0.722100	0.209200	0.253800
H1511	H151	0.677900	0.180700	0.229600
H1521	H152	0.728200	0.156500	0.279600
C2151	C215	0.751600	0.242600	0.936700
H1531	H153	0.735600	0.244300	0.950900
C2161	C216	0.796000	0.240200	0.982500
H1541	H154	0.810300	0.235200	0.027200
C2171	C217	0.824600	0.244600	0.970100
C2181	C218	0.798900	0.246600	0.900000
H1551	H155	0.814700	0.248900	0.885500
C2191	C219	0.748800	0.245100	0.852200
H1561	H156	0.732000	0.245700	0.806000
C2201	C220	0.950640	0.218500	0.129700
H1571	H157	0.967000	0.202000	0.170500
C2211	C221	0.902070	0.218160	0.082600
H1581	H158	0.886100	0.202200	0.092100
C2221	C222	0.877050	0.241190	0.021700
C2231	C223	0.902990	0.262900	0.010600
H1591	H159	0.887500	0.277800	0.969000
C2241	C224	0.950700	0.262800	0.059800
H1601	H160	0.967300	0.278600	0.051300
N71	N7	0.725020	0.242940	0.869830
N81	N8	0.975410	0.241480	0.119610
O371	O37	0.642160	0.692990	0.329590
O381	O38	0.564000	0.684620	0.246130
O391	O39	0.557600	0.393000	0.408900
O401	O40	0.662000	0.557800	0.547900
O411	O41	0.644820	0.288500	0.729380
O421	O42	0.566340	0.287540	0.647340
O431	O43	0.633210	0.811070	0.235860
O441	O44	0.554390	0.810090	0.162120
O451	O45	0.514700	0.959900	0.936000
O461	O46	0.652300	0.100400	0.083300
O471	O47	0.638390	0.206850	0.845180
O481	O48	0.560030	0.216470	0.769350
Zn71	Zn7	0.652340	0.246740	0.797360
Zn81	Zn8	0.548000	0.253300	0.693420
C2251	C225	0.895570	0.828480	0.699900
C2261	C226	0.893560	0.872950	0.664800
C2271	C227	0.934980	0.897850	0.694500
H1611	H161	0.963700	0.889000	0.737200
C2281	C228	0.932900	0.936170	0.659500
H1621	H162	0.960600	0.952900	0.679300
C2291	C229	0.891200	0.949940	0.596700
C2301	C230	0.850200	0.925900	0.569100
H1631	H163	0.821400	0.935100	0.526600
C2311	C231	0.851470	0.888630	0.603400
H1641	H164	0.823300	0.873700	0.584800
C2321	C232	0.918500	0.067900	0.556600
C2331	C233	0.916900	0.030000	0.590100
H1651	H165	0.934000	0.033100	0.636300
C2341	C234	0.892300	0.991100	0.558200
C2351	C235	0.866700	0.983500	0.488300
C2361	C236	0.862200	0.019600	0.449300
H1661	H166	0.842700	0.015200	0.402600
C2371	C237	0.888100	0.065000	0.481300
C2381	C238	0.933000	0.152600	0.434000
H1671	H167	0.961800	0.164900	0.451600
C2391	C239	0.932200	0.121500	0.472600
H1681	H168	0.960200	0.114100	0.516900
C2401	C240	0.890100	0.101200	0.446100
C2411	C241	0.848700	0.117100	0.383700
H1691	H169	0.819300	0.107000	0.366200
C2421	C242	0.852000	0.147800	0.348400
H1701	H170	0.823900	0.157300	0.305300
C2431	C243	0.892810	0.165510	0.371300
C2441	C244	0.893450	0.199760	0.328200
C2451	C245	0.970800	0.115800	0.670100
H1711	H171	0.990600	0.088600	0.699000
H1721	H172	0.950200	0.124900	0.676900
C2461	C246	0.001100	0.160700	0.678300
H1731	H173	0.995800	0.163000	0.637700
H1741	H174	0.034700	0.154800	0.716800
C2471	C247	0.906750	0.672730	0.813300
C2481	C248	0.909480	0.629390	0.849500
C2491	C249	0.952860	0.607000	0.903000
H1751	H175	0.980600	0.617400	0.914900
C2501	C250	0.954400	0.569120	0.938100
H1761	H176	0.983800	0.556300	0.975800
C2511	C251	0.914600	0.550230	0.919200
C2521	C252	0.870400	0.572000	0.863200
H1771	H177	0.842400	0.559400	0.848400
C2531	C253	0.868640	0.611600	0.830400
H1781	H178	0.839600	0.626400	0.795200
C2541	C254	0.914300	0.510900	0.952700
C2551	C255	0.948100	0.507800	0.024400
C2561	C256	0.880900	0.435500	0.954400
C2571	C257	0.912790	0.434110	0.023800
C2581	C258	0.947000	0.470400	0.061200
H1791	H179	0.968600	0.470700	0.108500
C2591	C259	0.881800	0.471500	0.916900
H1801	H180	0.861400	0.469000	0.869800
C2601	C260	0.863930	0.357080	0.078800
H1811	H181	0.834900	0.351600	0.065700
C2611	C261	0.867100	0.389430	0.041700
H1821	H182	0.839700	0.404700	0.003500
C2621	C262	0.909700	0.398860	0.060900
C2631	C263	0.950010	0.375120	0.118400
H1831	H183	0.979100	0.381100	0.132000
C2641	C264	0.948410	0.342930	0.156100
C2651	C265	0.904210	0.333750	0.134600
C2661	C266	0.902060	0.300810	0.177100
C2671	C267	0.028400	0.529900	0.142200
H1841	H184	0.045500	0.500500	0.151500
H1851	H185	0.020300	0.531500	0.169000
C2681	C268	0.824900	0.391600	0.840000
H1861	H186	0.801300	0.416400	0.810400
H1871	H187	0.849600	0.394400	0.839500
C2691	C269	0.800400	0.339300	0.811800
H1881	H188	0.820300	0.316400	0.849000
H1891	H189	0.770200	0.340600	0.799200
C2701	C270	0.792500	0.322000	0.758400
H1901	H190	0.777900	0.290800	0.746200
H1911	H191	0.822100	0.319300	0.770400
H1921	H192	0.771800	0.343500	0.720400
C2711	C271	0.748400	0.257400	0.063300
H1931	H193	0.764400	0.255700	0.049100
C2721	C272	0.704000	0.259800	0.017500
H1941	H194	0.689700	0.264800	0.972800
C2731	C273	0.675400	0.255400	0.029900
C2741	C274	0.701100	0.253400	0.100000
H1951	H195	0.685300	0.251100	0.114500
C2751	C275	0.751200	0.254900	0.147800
H1961	H196	0.768000	0.254300	0.194000
C2761	C276	0.549360	0.281500	0.870300
H1971	H197	0.533000	0.298000	0.829500
C2771	C277	0.597930	0.281840	0.917400
H1981	H198	0.613900	0.297800	0.907900
C2781	C278	0.622950	0.258810	0.978300
C2791	C279	0.597010	0.237100	0.989400
H1991	H199	0.612500	0.222200	0.031000
C2801	C280	0.549300	0.237200	0.940200
H2001	H200	0.532700	0.221400	0.948700
N91	N9	0.774980	0.257060	0.130170
N101	N10	0.524590	0.258520	0.880390
O491	O49	0.857840	0.807010	0.670410
O501	O50	0.936000	0.815380	0.753870
O511	O51	0.942400	0.107000	0.591100
O521	O52	0.838000	0.942200	0.452100
O531	O53	0.855180	0.211500	0.270620
O541	O54	0.933660	0.212460	0.352660
O551	O55	0.866790	0.688930	0.764140
O561	O56	0.945610	0.689910	0.837880
O571	O57	0.985300	0.540100	0.064000
O581	O58	0.847700	0.399600	0.916700
O591	O59	0.861610	0.293150	0.154820
O601	O60	0.939970	0.283530	0.230650
Zn91	Zn9	0.847660	0.253260	0.202640
Zn101	Zn10	0.952000	0.246700	0.306580
C2811	C281	0.395570	0.328480	0.699900
C2821	C282	0.393560	0.372950	0.664800
C2831	C283	0.434980	0.397850	0.694500
H2011	H201	0.463700	0.389000	0.737200
C2841	C284	0.432900	0.436170	0.659500
H2021	H202	0.460600	0.452900	0.679300
C2851	C285	0.391200	0.449940	0.596700
C2861	C286	0.350200	0.425900	0.569100
H2031	H203	0.321400	0.435100	0.526600
C2871	C287	0.351470	0.388630	0.603400
H2041	H204	0.323300	0.373700	0.584800
C2881	C288	0.418500	0.567900	0.556600
C2891	C289	0.416900	0.530000	0.590100
H2051	H205	0.434000	0.533100	0.636300
C2901	C290	0.392300	0.491100	0.558200
C2911	C291	0.366700	0.483500	0.488300
C2921	C292	0.362200	0.519600	0.449300
H2061	H206	0.342700	0.515200	0.402600
C2931	C293	0.388100	0.565000	0.481300
C2941	C294	0.433000	0.652600	0.434000
H2071	H207	0.461800	0.664900	0.451600
C2951	C295	0.432200	0.621500	0.472600
H2081	H208	0.460200	0.614100	0.516900
C2961	C296	0.390100	0.601200	0.446100
C2971	C297	0.348700	0.617100	0.383700
H2091	H209	0.319300	0.607000	0.366200
C2981	C298	0.352000	0.647800	0.348400
H2101	H210	0.323900	0.657300	0.305300
C2991	C299	0.392810	0.665510	0.371300
C3001	C300	0.393450	0.699760	0.328200
C3011	C301	0.470800	0.615800	0.670100
H2111	H211	0.490600	0.588600	0.699000
H2121	H212	0.450200	0.624900	0.676900
C3021	C302	0.501100	0.660700	0.678300
H2131	H213	0.495800	0.663000	0.637700
H2141	H214	0.534700	0.654800	0.716800
C3031	C303	0.406750	0.172730	0.813300
C3041	C304	0.409480	0.129390	0.849500
C3051	C305	0.452860	0.107000	0.903000
H2151	H215	0.480600	0.117400	0.914900
C3061	C306	0.454400	0.069120	0.938100
H2161	H216	0.483800	0.056300	0.975800
C3071	C307	0.414600	0.050230	0.919200
C3081	C308	0.370400	0.072000	0.863200
H2171	H217	0.342400	0.059400	0.848400
C3091	C309	0.368640	0.111600	0.830400
H2181	H218	0.339600	0.126400	0.795200
C3101	C310	0.414300	0.010900	0.952700
C3111	C311	0.448100	0.007800	0.024400
C3121	C312	0.380900	0.935500	0.954400
C3131	C313	0.412790	0.934110	0.023800
C3141	C314	0.447000	0.970400	0.061200
H2191	H219	0.468600	0.970700	0.108500
C3151	C315	0.381800	0.971500	0.916900
H2201	H220	0.361400	0.969000	0.869800
C3161	C316	0.363930	0.857080	0.078800
H2211	H221	0.334900	0.851600	0.065700
C3171	C317	0.367100	0.889430	0.041700
H2221	H222	0.339700	0.904700	0.003500
C3181	C318	0.409700	0.898860	0.060900
C3191	C319	0.450010	0.875120	0.118400
H2231	H223	0.479100	0.881100	0.132000
C3201	C320	0.448410	0.842930	0.156100
C3211	C321	0.404210	0.833750	0.134600
C3221	C322	0.402060	0.800810	0.177100
C3231	C323	0.528400	0.029900	0.142200
H2241	H224	0.545500	0.000500	0.151500
H2251	H225	0.520300	0.031500	0.169000
C3241	C324	0.324900	0.891600	0.840000
H2261	H226	0.301300	0.916400	0.810400
H2271	H227	0.349600	0.894400	0.839500
C3251	C325	0.300400	0.839300	0.811800
H2281	H228	0.320300	0.816400	0.849000
H2291	H229	0.270200	0.840600	0.799200
C3261	C326	0.292500	0.822000	0.758400
H2301	H230	0.277900	0.790800	0.746200
H2311	H231	0.322100	0.819300	0.770400
H2321	H232	0.271800	0.843500	0.720400
C3271	C327	0.248400	0.757400	0.063300
H2331	H233	0.264400	0.755700	0.049100
C3281	C328	0.204000	0.759800	0.017500
H2341	H234	0.189700	0.764800	0.972800
C3291	C329	0.175400	0.755400	0.029900
C3301	C330	0.201100	0.753400	0.100000
H2351	H235	0.185300	0.751100	0.114500
C3311	C331	0.251200	0.754900	0.147800
H2361	H236	0.268000	0.754300	0.194000
C3321	C332	0.049360	0.781500	0.870300
H2371	H237	0.033000	0.798000	0.829500
C3331	C333	0.097930	0.781840	0.917400
H2381	H238	0.113900	0.797800	0.907900
C3341	C334	0.122950	0.758810	0.978300
C3351	C335	0.097010	0.737100	0.989400
H2391	H239	0.112500	0.722200	0.031000
C3361	C336	0.049300	0.737200	0.940200
H2401	H240	0.032700	0.721400	0.948700
N111	N11	0.274980	0.757060	0.130170
N121	N12	0.024590	0.758520	0.880390
O611	O61	0.357840	0.307010	0.670410
O621	O62	0.436000	0.315380	0.753870
O631	O63	0.442400	0.607000	0.591100
O641	O64	0.338000	0.442200	0.452100
O651	O65	0.355180	0.711500	0.270620
O661	O66	0.433660	0.712460	0.352660
O671	O67	0.366790	0.188930	0.764140
O681	O68	0.445610	0.189910	0.837880
O691	O69	0.485300	0.040100	0.064000
O701	O70	0.347700	0.899600	0.916700
O711	O71	0.361610	0.793150	0.154820
O721	O72	0.439970	0.783530	0.230650
Zn111	Zn11	0.347660	0.753260	0.202640
Zn121	Zn12	0.452000	0.746700	0.306580
C3371	C337	0.895570	0.171520	0.199900
C3381	C338	0.893560	0.127050	0.164800
C3391	C339	0.934980	0.102150	0.194500
H2411	H241	0.963700	0.111000	0.237200
C3401	C340	0.932900	0.063830	0.159500
H2421	H242	0.960600	0.047100	0.179300
C3411	C341	0.891200	0.050060	0.096700
C3421	C342	0.850200	0.074100	0.069100
H2431	H243	0.821400	0.064900	0.026600
C3431	C343	0.851470	0.111370	0.103400
H2441	H244	0.823300	0.126300	0.084800
C3441	C344	0.918500	0.932100	0.056600
C3451	C345	0.916900	0.970000	0.090100
H2451	H245	0.934000	0.966900	0.136300
C3461	C346	0.892300	0.008900	0.058200
C3471	C347	0.866700	0.016500	0.988300
C3481	C348	0.862200	0.980400	0.949300
H2461	H246	0.842700	0.984800	0.902600
C3491	C349	0.888100	0.935000	0.981300
C3501	C350	0.933000	0.847400	0.934000
H2471	H247	0.961800	0.835100	0.951600
C3511	C351	0.932200	0.878500	0.972600
H2481	H248	0.960200	0.885900	0.016900
C3521	C352	0.890100	0.898800	0.946100
C3531	C353	0.848700	0.882900	0.883700
H2491	H249	0.819300	0.893000	0.866200
C3541	C354	0.852000	0.852200	0.848400
H2501	H250	0.823900	0.842700	0.805300
C3551	C355	0.892810	0.834490	0.871300
C3561	C356	0.893450	0.800240	0.828200
C3571	C357	0.970800	0.884200	0.170100
H2511	H251	0.990600	0.911400	0.199000
H2521	H252	0.950200	0.875100	0.176900
C3581	C358	0.001100	0.839300	0.178300
H2531	H253	0.995800	0.837000	0.137700
H2541	H254	0.034700	0.845200	0.216800
C3591	C359	0.906750	0.327270	0.313300
C3601	C360	0.909480	0.370610	0.349500
C3611	C361	0.952860	0.393000	0.403000
H2551	H255	0.980600	0.382600	0.414900
C3621	C362	0.954400	0.430880	0.438100
H2561	H256	0.983800	0.443700	0.475800
C3631	C363	0.914600	0.449770	0.419200
C3641	C364	0.870400	0.428000	0.363200
H2571	H257	0.842400	0.440600	0.348400
C3651	C365	0.868640	0.388400	0.330400
H2581	H258	0.839600	0.373600	0.295200
C3661	C366	0.914300	0.489100	0.452700
C3671	C367	0.948100	0.492200	0.524400
C3681	C368	0.880900	0.564500	0.454400
C3691	C369	0.912790	0.565890	0.523800
C3701	C370	0.947000	0.529600	0.561200
H2591	H259	0.968600	0.529300	0.608500
C3711	C371	0.881800	0.528500	0.416900
H2601	H260	0.861400	0.531000	0.369800
C3721	C372	0.863930	0.642920	0.578800
H2611	H261	0.834900	0.648400	0.565700
C3731	C373	0.867100	0.610570	0.541700
H2621	H262	0.839700	0.595300	0.503500
C3741	C374	0.909700	0.601140	0.560900
C3751	C375	0.950010	0.624880	0.618400
H2631	H263	0.979100	0.618900	0.632000
C3761	C376	0.948410	0.657070	0.656100
C3771	C377	0.904210	0.666250	0.634600
C3781	C378	0.902060	0.699190	0.677100
C3791	C379	0.028400	0.470100	0.642200
H2641	H264	0.045500	0.499500	0.651500
H2651	H265	0.020300	0.468500	0.669000
C3801	C380	0.824900	0.608400	0.340000
H2661	H266	0.801300	0.583600	0.310400
H2671	H267	0.849600	0.605600	0.339500
C3811	C381	0.800400	0.660700	0.311800
H2681	H268	0.820300	0.683600	0.349000
H2691	H269	0.770200	0.659400	0.299200
C3821	C382	0.792500	0.678000	0.258400
H2701	H270	0.777900	0.709200	0.246200
H2711	H271	0.822100	0.680700	0.270400
H2721	H272	0.771800	0.656500	0.220400
C3831	C383	0.748400	0.742600	0.563300
H2731	H273	0.764400	0.744300	0.549100
C3841	C384	0.704000	0.740200	0.517500
H2741	H274	0.689700	0.735200	0.472800
C3851	C385	0.675400	0.744600	0.529900
C3861	C386	0.701100	0.746600	0.600000
H2751	H275	0.685300	0.748900	0.614500
C3871	C387	0.751200	0.745100	0.647800
H2761	H276	0.768000	0.745700	0.694000
C3881	C388	0.549360	0.718500	0.370300
H2771	H277	0.533000	0.702000	0.329500
C3891	C389	0.597930	0.718160	0.417400
H2781	H278	0.613900	0.702200	0.407900
C3901	C390	0.622950	0.741190	0.478300
C3911	C391	0.597010	0.762900	0.489400
H2791	H279	0.612500	0.777800	0.531000
C3921	C392	0.549300	0.762800	0.440200
H2801	H280	0.532700	0.778600	0.448700
N131	N13	0.774980	0.742940	0.630170
N141	N14	0.524590	0.741480	0.380390
O731	O73	0.857840	0.192990	0.170410
O741	O74	0.936000	0.184620	0.253870
O751	O75	0.942400	0.893000	0.091100
O761	O76	0.838000	0.057800	0.952100
O771	O77	0.855180	0.788500	0.770620
O781	O78	0.933660	0.787540	0.852660
O791	O79	0.866790	0.311070	0.264140
O801	O80	0.945610	0.310090	0.337880
O811	O81	0.985300	0.459900	0.564000
O821	O82	0.847700	0.600400	0.416700
O831	O83	0.861610	0.706850	0.654820
O841	O84	0.939970	0.716470	0.730650
Zn131	Zn13	0.847660	0.746740	0.702640
Zn141	Zn14	0.952000	0.753300	0.806580
C3931	C393	0.395570	0.671520	0.199900
C3941	C394	0.393560	0.627050	0.164800
C3951	C395	0.434980	0.602150	0.194500
H2811	H281	0.463700	0.611000	0.237200
C3961	C396	0.432900	0.563830	0.159500
H2821	H282	0.460600	0.547100	0.179300
C3971	C397	0.391200	0.550060	0.096700
C3981	C398	0.350200	0.574100	0.069100
H2831	H283	0.321400	0.564900	0.026600
C3991	C399	0.351470	0.611370	0.103400
H2841	H284	0.323300	0.626300	0.084800
C4001	C400	0.418500	0.432100	0.056600
C4011	C401	0.416900	0.470000	0.090100
H2851	H285	0.434000	0.466900	0.136300
C4021	C402	0.392300	0.508900	0.058200
C4031	C403	0.366700	0.516500	0.988300
C4041	C404	0.362200	0.480400	0.949300
H2861	H286	0.342700	0.484800	0.902600
C4051	C405	0.388100	0.435000	0.981300
C4061	C406	0.433000	0.347400	0.934000
H2871	H287	0.461800	0.335100	0.951600
C4071	C407	0.432200	0.378500	0.972600
H2881	H288	0.460200	0.385900	0.016900
C4081	C408	0.390100	0.398800	0.946100
C4091	C409	0.348700	0.382900	0.883700
H2891	H289	0.319300	0.393000	0.866200
C4101	C410	0.352000	0.352200	0.848400
H2901	H290	0.323900	0.342700	0.805300
C4111	C411	0.392810	0.334490	0.871300
C4121	C412	0.393450	0.300240	0.828200
C4131	C413	0.470800	0.384200	0.170100
H2911	H291	0.490600	0.411400	0.199000
H2921	H292	0.450200	0.375100	0.176900
C4141	C414	0.501100	0.339300	0.178300
H2931	H293	0.495800	0.337000	0.137700
H2941	H294	0.534700	0.345200	0.216800
C4151	C415	0.406750	0.827270	0.313300
C4161	C416	0.409480	0.870610	0.349500
C4171	C417	0.452860	0.893000	0.403000
H2951	H295	0.480600	0.882600	0.414900
C4181	C418	0.454400	0.930880	0.438100
H2961	H296	0.483800	0.943700	0.475800
C4191	C419	0.414600	0.949770	0.419200
C4201	C420	0.370400	0.928000	0.363200
H2971	H297	0.342400	0.940600	0.348400
C4211	C421	0.368640	0.888400	0.330400
H2981	H298	0.339600	0.873600	0.295200
C4221	C422	0.414300	0.989100	0.452700
C4231	C423	0.448100	0.992200	0.524400
C4241	C424	0.380900	0.064500	0.454400
C4251	C425	0.412790	0.065890	0.523800
C4261	C426	0.447000	0.029600	0.561200
H2991	H299	0.468600	0.029300	0.608500
C4271	C427	0.381800	0.028500	0.416900
H3001	H300	0.361400	0.031000	0.369800
C4281	C428	0.363930	0.142920	0.578800
H3011	H301	0.334900	0.148400	0.565700
C4291	C429	0.367100	0.110570	0.541700
H3021	H302	0.339700	0.095300	0.503500
C4301	C430	0.409700	0.101140	0.560900
C4311	C431	0.450010	0.124880	0.618400
H3031	H303	0.479100	0.118900	0.632000
C4321	C432	0.448410	0.157070	0.656100
C4331	C433	0.404210	0.166250	0.634600
C4341	C434	0.402060	0.199190	0.677100
C4351	C435	0.528400	0.970100	0.642200
H3041	H304	0.545500	0.999500	0.651500
H3051	H305	0.520300	0.968500	0.669000
C4361	C436	0.324900	0.108400	0.340000
H3061	H306	0.301300	0.083600	0.310400
H3071	H307	0.349600	0.105600	0.339500
C4371	C437	0.300400	0.160700	0.311800
H3081	H308	0.320300	0.183600	0.349000
H3091	H309	0.270200	0.159400	0.299200
C4381	C438	0.292500	0.178000	0.258400
H3101	H310	0.277900	0.209200	0.246200
H3111	H311	0.322100	0.180700	0.270400
H3121	H312	0.271800	0.156500	0.220400
C4391	C439	0.248400	0.242600	0.563300
H3131	H313	0.264400	0.244300	0.549100
C4401	C440	0.204000	0.240200	0.517500
H3141	H314	0.189700	0.235200	0.472800
C4411	C441	0.175400	0.244600	0.529900
C4421	C442	0.201100	0.246600	0.600000
H3151	H315	0.185300	0.248900	0.614500
C4431	C443	0.251200	0.245100	0.647800
H3161	H316	0.268000	0.245700	0.694000
C4441	C444	0.049360	0.218500	0.370300
H3171	H317	0.033000	0.202000	0.329500
C4451	C445	0.097930	0.218160	0.417400
H3181	H318	0.113900	0.202200	0.407900
C4461	C446	0.122950	0.241190	0.478300
C4471	C447	0.097010	0.262900	0.489400
H3191	H319	0.112500	0.277800	0.531000
C4481	C448	0.049300	0.262800	0.440200
H3201	H320	0.032700	0.278600	0.448700
N151	N15	0.274980	0.242940	0.630170
N161	N16	0.024590	0.241480	0.380390
O851	O85	0.357840	0.692990	0.170410
O861	O86	0.436000	0.684620	0.253870
O871	O87	0.442400	0.393000	0.091100
O881	O88	0.338000	0.557800	0.952100
O891	O89	0.355180	0.288500	0.770620
O901	O90	0.433660	0.287540	0.852660
O911	O91	0.366790	0.811070	0.264140
O921	O92	0.445610	0.810090	0.337880
O931	O93	0.485300	0.959900	0.564000
O941	O94	0.347700	0.100400	0.416700
O951	O95	0.361610	0.206850	0.654820
O961	O96	0.439970	0.216470	0.730650
Zn151	Zn15	0.347660	0.246740	0.702640
Zn161	Zn16	0.452000	0.253300	0.806580
