data_HUZXOR_clean_PM
_symmetry_space_group_name_H-M	'P1'
_cell_length_a	38.978000
_cell_length_b	27.433000
_cell_length_c	27.377000
_cell_angle_alpha	90.000000
_cell_angle_beta	133.806000
_cell_angle_gamma	90.000000
_symmetry_Int_Tables_number 1

loop_
_symmetry_equiv_pos_as_xyz
'x,y,z'

loop_
_atom_site_label
_atom_site_type_symbol
_atom_site_fract_x
_atom_site_fract_y
_atom_site_fract_z
Zn11	Zn1	0.048560	0.253130	0.695400
N11	N1	0.976710	0.258640	0.621400
O11	O1	0.064150	0.316130	0.747640
O21	O2	0.055170	0.188720	0.665200
O31	O3	0.067450	0.287750	0.650980
O41	O4	0.060050	0.215990	0.770100
C11	C1	0.951210	0.282100	0.631300
C21	C2	0.951300	0.237200	0.561700
C31	C3	0.104000	0.329470	0.800600
C41	C4	0.093500	0.171460	0.688400
H11	H1	0.967600	0.297700	0.672500
C51	C5	0.902590	0.283800	0.583500
C61	C6	0.902600	0.237600	0.511900
H21	H2	0.967600	0.220900	0.553000
C71	C7	0.105900	0.374400	0.834200
O51	O5	0.142890	0.308460	0.830300
C81	C8	0.092100	0.128100	0.654600
O61	O6	0.134480	0.188470	0.739200
O71	O7	0.145660	0.289010	0.731500
O81	O8	0.138980	0.207340	0.847340
H31	H3	0.886500	0.300900	0.591900
C91	C9	0.877640	0.260000	0.522600
H41	H4	0.886900	0.222500	0.470700
C101	C10	0.065500	0.398800	0.807000
C111	C11	0.148500	0.390400	0.896100
Zn21	Zn2	0.152910	0.246800	0.799230
C121	C12	0.048700	0.104700	0.601700
C131	C13	0.133200	0.110300	0.674700
C141	C14	0.824600	0.259000	0.470800
H51	H5	0.036700	0.389900	0.764600
C151	C15	0.066700	0.437000	0.841800
C161	C16	0.150100	0.428000	0.932000
H61	H6	0.176700	0.375700	0.914100
N21	N2	0.225470	0.242420	0.871800
H71	H7	0.021000	0.114700	0.589900
C171	C17	0.047400	0.067100	0.567500
C181	C18	0.131100	0.070300	0.639700
H81	H8	0.162400	0.124500	0.711000
C191	C19	0.799300	0.269900	0.482800
C201	C20	0.798900	0.250200	0.405200
H91	H9	0.038700	0.453000	0.822300
C211	C21	0.109000	0.451300	0.904900
H101	H10	0.178900	0.437200	0.974100
H111	H11	0.018200	0.053300	0.530700
C221	C22	0.089400	0.048600	0.587000
H121	H12	0.159100	0.058800	0.653200
C231	C23	0.749500	0.268800	0.431500
H131	H13	0.814100	0.278700	0.526400
H141	H14	0.814600	0.243000	0.391700
C241	C24	0.749800	0.251500	0.357000
C251	C25	0.111000	0.492200	0.942400
C261	C26	0.086000	0.009200	0.548400
H151	H15	0.733100	0.277400	0.443600
H161	H16	0.733800	0.247700	0.311700
C271	C27	0.131200	0.481400	0.007700
C281	C28	0.079200	0.528900	0.904500
C291	C29	0.114100	0.970800	0.581800
C301	C30	0.049600	0.004900	0.477500
C311	C31	0.140000	0.520000	0.045500
O91	O9	0.169900	0.450400	0.041300
C321	C32	0.085100	0.565900	0.954000
H171	H17	0.057800	0.531700	0.857600
C331	C33	0.104600	0.928700	0.531500
H181	H18	0.136800	0.968200	0.628800
C341	C34	0.052900	0.973500	0.442500
O101	O10	0.015200	0.038500	0.438200
H191	H19	0.166200	0.518200	0.091900
C351	C35	0.111600	0.563600	0.019200
C361	C36	0.208300	0.449000	0.120000
O111	O11	0.048200	0.609500	0.903000
C371	C37	0.089100	0.935600	0.476500
O121	O12	0.137400	0.908000	0.573100
H201	H20	0.031400	0.976300	0.395700
C381	C38	0.109800	0.601100	0.055300
H211	H21	0.200000	0.469400	0.139400
H221	H22	0.214700	0.416100	0.137400
C391	C39	0.249200	0.470000	0.130900
C401	C40	0.013300	0.611600	0.830300
C411	C41	0.092000	0.898600	0.441200
C421	C42	0.068000	0.618900	0.031300
C431	C43	0.151700	0.618400	0.116500
H231	H23	0.272300	0.476700	0.179100
H241	H24	0.236700	0.501800	0.109700
C441	C44	0.281900	0.458600	0.118900
H251	H25	0.024900	0.599600	0.810600
H261	H26	0.983500	0.596100	0.809500
C451	C45	0.011400	0.669800	0.831500
C461	C46	0.050900	0.875700	0.381800
C471	C47	0.134500	0.887200	0.461000
C481	C48	0.066100	0.650300	0.070000
H271	H27	0.039900	0.610100	0.988000
H281	H28	0.180700	0.609100	0.131800
C491	C49	0.150600	0.650100	0.155700
H291	H29	0.274900	0.482800	0.087200
H301	H30	0.314300	0.464500	0.161500
C501	C50	0.281800	0.420400	0.099200
H311	H31	0.984900	0.677100	0.783900
H321	H32	0.999000	0.674700	0.851900
C511	C51	0.051900	0.843300	0.344600
H331	H33	0.021700	0.882900	0.367300
H341	H34	0.162600	0.900600	0.500500
C521	C52	0.136100	0.855700	0.422700
H351	H35	0.036900	0.660400	0.053600
C531	C53	0.107900	0.666100	0.132600
H361	H36	0.178900	0.660400	0.197700
H371	H37	0.304400	0.420700	0.095100
H381	H38	0.250600	0.413900	0.055800
H391	H39	0.290300	0.395500	0.130600
C541	C54	0.096490	0.834240	0.366400
H401	H40	0.024400	0.828000	0.306600
H411	H41	0.165100	0.849400	0.436300
C551	C55	0.106900	0.698700	0.174600
C561	C56	0.098640	0.801020	0.324200
Zn31	Zn3	0.548560	0.753130	0.695400
N31	N3	0.476710	0.758640	0.621400
O131	O13	0.564150	0.816130	0.747640
O141	O14	0.555170	0.688720	0.665200
O151	O15	0.567450	0.787750	0.650980
O161	O16	0.560050	0.715990	0.770100
C571	C57	0.451210	0.782100	0.631300
C581	C58	0.451300	0.737200	0.561700
C591	C59	0.604000	0.829470	0.800600
C601	C60	0.593500	0.671460	0.688400
H421	H42	0.467600	0.797700	0.672500
C611	C61	0.402590	0.783800	0.583500
C621	C62	0.402600	0.737600	0.511900
H431	H43	0.467600	0.720900	0.553000
C631	C63	0.605900	0.874400	0.834200
O171	O17	0.642890	0.808460	0.830300
C641	C64	0.592100	0.628100	0.654600
O181	O18	0.634480	0.688470	0.739200
O191	O19	0.645660	0.789010	0.731500
O201	O20	0.638980	0.707340	0.847340
H441	H44	0.386500	0.800900	0.591900
C651	C65	0.377640	0.760000	0.522600
H451	H45	0.386900	0.722500	0.470700
C661	C66	0.565500	0.898800	0.807000
C671	C67	0.648500	0.890400	0.896100
Zn41	Zn4	0.652910	0.746800	0.799230
C681	C68	0.548700	0.604700	0.601700
C691	C69	0.633200	0.610300	0.674700
C701	C70	0.324600	0.759000	0.470800
H461	H46	0.536700	0.889900	0.764600
C711	C71	0.566700	0.937000	0.841800
C721	C72	0.650100	0.928000	0.932000
H471	H47	0.676700	0.875700	0.914100
N41	N4	0.725470	0.742420	0.871800
H481	H48	0.521000	0.614700	0.589900
C731	C73	0.547400	0.567100	0.567500
C741	C74	0.631100	0.570300	0.639700
H491	H49	0.662400	0.624500	0.711000
C751	C75	0.299300	0.769900	0.482800
C761	C76	0.298900	0.750200	0.405200
H501	H50	0.538700	0.953000	0.822300
C771	C77	0.609000	0.951300	0.904900
H511	H51	0.678900	0.937200	0.974100
H521	H52	0.518200	0.553300	0.530700
C781	C78	0.589400	0.548600	0.587000
H531	H53	0.659100	0.558800	0.653200
C791	C79	0.249500	0.768800	0.431500
H541	H54	0.314100	0.778700	0.526400
H551	H55	0.314600	0.743000	0.391700
C801	C80	0.249800	0.751500	0.357000
C811	C81	0.611000	0.992200	0.942400
C821	C82	0.586000	0.509200	0.548400
H561	H56	0.233100	0.777400	0.443600
H571	H57	0.233800	0.747700	0.311700
C831	C83	0.631200	0.981400	0.007700
C841	C84	0.579200	0.028900	0.904500
C851	C85	0.614100	0.470800	0.581800
C861	C86	0.549600	0.504900	0.477500
C871	C87	0.640000	0.020000	0.045500
O211	O21	0.669900	0.950400	0.041300
C881	C88	0.585100	0.065900	0.954000
H581	H58	0.557800	0.031700	0.857600
C891	C89	0.604600	0.428700	0.531500
H591	H59	0.636800	0.468200	0.628800
C901	C90	0.552900	0.473500	0.442500
O221	O22	0.515200	0.538500	0.438200
H601	H60	0.666200	0.018200	0.091900
C911	C91	0.611600	0.063600	0.019200
C921	C92	0.708300	0.949000	0.120000
O231	O23	0.548200	0.109500	0.903000
C931	C93	0.589100	0.435600	0.476500
O241	O24	0.637400	0.408000	0.573100
H611	H61	0.531400	0.476300	0.395700
C941	C94	0.609800	0.101100	0.055300
H621	H62	0.700000	0.969400	0.139400
H631	H63	0.714700	0.916100	0.137400
C951	C95	0.749200	0.970000	0.130900
C961	C96	0.513300	0.111600	0.830300
C971	C97	0.592000	0.398600	0.441200
C981	C98	0.568000	0.118900	0.031300
C991	C99	0.651700	0.118400	0.116500
H641	H64	0.772300	0.976700	0.179100
H651	H65	0.736700	0.001800	0.109700
C1001	C100	0.781900	0.958600	0.118900
H661	H66	0.524900	0.099600	0.810600
H671	H67	0.483500	0.096100	0.809500
C1011	C101	0.511400	0.169800	0.831500
C1021	C102	0.550900	0.375700	0.381800
C1031	C103	0.634500	0.387200	0.461000
C1041	C104	0.566100	0.150300	0.070000
H681	H68	0.539900	0.110100	0.988000
H691	H69	0.680700	0.109100	0.131800
C1051	C105	0.650600	0.150100	0.155700
H701	H70	0.774900	0.982800	0.087200
H711	H71	0.814300	0.964500	0.161500
C1061	C106	0.781800	0.920400	0.099200
H721	H72	0.484900	0.177100	0.783900
H731	H73	0.499000	0.174700	0.851900
C1071	C107	0.551900	0.343300	0.344600
H741	H74	0.521700	0.382900	0.367300
H751	H75	0.662600	0.400600	0.500500
C1081	C108	0.636100	0.355700	0.422700
H761	H76	0.536900	0.160400	0.053600
C1091	C109	0.607900	0.166100	0.132600
H771	H77	0.678900	0.160400	0.197700
H781	H78	0.804400	0.920700	0.095100
H791	H79	0.750600	0.913900	0.055800
H801	H80	0.790300	0.895500	0.130600
C1101	C110	0.596490	0.334240	0.366400
H811	H81	0.524400	0.328000	0.306600
H821	H82	0.665100	0.349400	0.436300
C1111	C111	0.606900	0.198700	0.174600
C1121	C112	0.598640	0.301020	0.324200
Zn51	Zn5	0.048560	0.746870	0.195400
N51	N5	0.976710	0.741360	0.121400
O251	O25	0.064150	0.683870	0.247640
O261	O26	0.055170	0.811280	0.165200
O271	O27	0.067450	0.712250	0.150980
O281	O28	0.060050	0.784010	0.270100
C1131	C113	0.951210	0.717900	0.131300
C1141	C114	0.951300	0.762800	0.061700
C1151	C115	0.104000	0.670530	0.300600
C1161	C116	0.093500	0.828540	0.188400
H831	H83	0.967600	0.702300	0.172500
C1171	C117	0.902590	0.716200	0.083500
C1181	C118	0.902600	0.762400	0.011900
H841	H84	0.967600	0.779100	0.053000
C1191	C119	0.105900	0.625600	0.334200
O291	O29	0.142890	0.691540	0.330300
C1201	C120	0.092100	0.871900	0.154600
O301	O30	0.134480	0.811530	0.239200
O311	O31	0.145660	0.710990	0.231500
O321	O32	0.138980	0.792660	0.347340
H851	H85	0.886500	0.699100	0.091900
C1211	C121	0.877640	0.740000	0.022600
H861	H86	0.886900	0.777500	0.970700
C1221	C122	0.065500	0.601200	0.307000
C1231	C123	0.148500	0.609600	0.396100
Zn61	Zn6	0.152910	0.753200	0.299230
C1241	C124	0.048700	0.895300	0.101700
C1251	C125	0.133200	0.889700	0.174700
C1261	C126	0.824600	0.741000	0.970800
H871	H87	0.036700	0.610100	0.264600
C1271	C127	0.066700	0.563000	0.341800
C1281	C128	0.150100	0.572000	0.432000
H881	H88	0.176700	0.624300	0.414100
N61	N6	0.225470	0.757580	0.371800
H891	H89	0.021000	0.885300	0.089900
C1291	C129	0.047400	0.932900	0.067500
C1301	C130	0.131100	0.929700	0.139700
H901	H90	0.162400	0.875500	0.211000
C1311	C131	0.799300	0.730100	0.982800
C1321	C132	0.798900	0.749800	0.905200
H911	H91	0.038700	0.547000	0.322300
C1331	C133	0.109000	0.548700	0.404900
H921	H92	0.178900	0.562800	0.474100
H931	H93	0.018200	0.946700	0.030700
C1341	C134	0.089400	0.951400	0.087000
H941	H94	0.159100	0.941200	0.153200
C1351	C135	0.749500	0.731200	0.931500
H951	H95	0.814100	0.721300	0.026400
H961	H96	0.814600	0.757000	0.891700
C1361	C136	0.749800	0.748500	0.857000
C1371	C137	0.111000	0.507800	0.442400
C1381	C138	0.086000	0.990800	0.048400
H971	H97	0.733100	0.722600	0.943600
H981	H98	0.733800	0.752300	0.811700
C1391	C139	0.131200	0.518600	0.507700
C1401	C140	0.079200	0.471100	0.404500
C1411	C141	0.114100	0.029200	0.081800
C1421	C142	0.049600	0.995100	0.977500
C1431	C143	0.140000	0.480000	0.545500
O331	O33	0.169900	0.549600	0.541300
C1441	C144	0.085100	0.434100	0.454000
H991	H99	0.057800	0.468300	0.357600
C1451	C145	0.104600	0.071300	0.031500
H1001	H100	0.136800	0.031800	0.128800
C1461	C146	0.052900	0.026500	0.942500
O341	O34	0.015200	0.961500	0.938200
H1011	H101	0.166200	0.481800	0.591900
C1471	C147	0.111600	0.436400	0.519200
C1481	C148	0.208300	0.551000	0.620000
O351	O35	0.048200	0.390500	0.403000
C1491	C149	0.089100	0.064400	0.976500
O361	O36	0.137400	0.092000	0.073100
H1021	H102	0.031400	0.023700	0.895700
C1501	C150	0.109800	0.398900	0.555300
H1031	H103	0.200000	0.530600	0.639400
H1041	H104	0.214700	0.583900	0.637400
C1511	C151	0.249200	0.530000	0.630900
C1521	C152	0.013300	0.388400	0.330300
C1531	C153	0.092000	0.101400	0.941200
C1541	C154	0.068000	0.381100	0.531300
C1551	C155	0.151700	0.381600	0.616500
H1051	H105	0.272300	0.523300	0.679100
H1061	H106	0.236700	0.498200	0.609700
C1561	C156	0.281900	0.541400	0.618900
H1071	H107	0.024900	0.400400	0.310600
H1081	H108	0.983500	0.403900	0.309500
C1571	C157	0.011400	0.330200	0.331500
C1581	C158	0.050900	0.124300	0.881800
C1591	C159	0.134500	0.112800	0.961000
C1601	C160	0.066100	0.349700	0.570000
H1091	H109	0.039900	0.389900	0.488000
H1101	H110	0.180700	0.390900	0.631800
C1611	C161	0.150600	0.349900	0.655700
H1111	H111	0.274900	0.517200	0.587200
H1121	H112	0.314300	0.535500	0.661500
C1621	C162	0.281800	0.579600	0.599200
H1131	H113	0.984900	0.322900	0.283900
H1141	H114	0.999000	0.325300	0.351900
C1631	C163	0.051900	0.156700	0.844600
H1151	H115	0.021700	0.117100	0.867300
H1161	H116	0.162600	0.099400	0.000500
C1641	C164	0.136100	0.144300	0.922700
H1171	H117	0.036900	0.339600	0.553600
C1651	C165	0.107900	0.333900	0.632600
H1181	H118	0.178900	0.339600	0.697700
H1191	H119	0.304400	0.579300	0.595100
H1201	H120	0.250600	0.586100	0.555800
H1211	H121	0.290300	0.604500	0.630600
C1661	C166	0.096490	0.165760	0.866400
H1221	H122	0.024400	0.172000	0.806600
H1231	H123	0.165100	0.150600	0.936300
C1671	C167	0.106900	0.301300	0.674600
C1681	C168	0.098640	0.198980	0.824200
Zn71	Zn7	0.548560	0.246870	0.195400
N71	N7	0.476710	0.241360	0.121400
O371	O37	0.564150	0.183870	0.247640
O381	O38	0.555170	0.311280	0.165200
O391	O39	0.567450	0.212250	0.150980
O401	O40	0.560050	0.284010	0.270100
C1691	C169	0.451210	0.217900	0.131300
C1701	C170	0.451300	0.262800	0.061700
C1711	C171	0.604000	0.170530	0.300600
C1721	C172	0.593500	0.328540	0.188400
H1241	H124	0.467600	0.202300	0.172500
C1731	C173	0.402590	0.216200	0.083500
C1741	C174	0.402600	0.262400	0.011900
H1251	H125	0.467600	0.279100	0.053000
C1751	C175	0.605900	0.125600	0.334200
O411	O41	0.642890	0.191540	0.330300
C1761	C176	0.592100	0.371900	0.154600
O421	O42	0.634480	0.311530	0.239200
O431	O43	0.645660	0.210990	0.231500
O441	O44	0.638980	0.292660	0.347340
H1261	H126	0.386500	0.199100	0.091900
C1771	C177	0.377640	0.240000	0.022600
H1271	H127	0.386900	0.277500	0.970700
C1781	C178	0.565500	0.101200	0.307000
C1791	C179	0.648500	0.109600	0.396100
Zn81	Zn8	0.652910	0.253200	0.299230
C1801	C180	0.548700	0.395300	0.101700
C1811	C181	0.633200	0.389700	0.174700
C1821	C182	0.324600	0.241000	0.970800
H1281	H128	0.536700	0.110100	0.264600
C1831	C183	0.566700	0.063000	0.341800
C1841	C184	0.650100	0.072000	0.432000
H1291	H129	0.676700	0.124300	0.414100
N81	N8	0.725470	0.257580	0.371800
H1301	H130	0.521000	0.385300	0.089900
C1851	C185	0.547400	0.432900	0.067500
C1861	C186	0.631100	0.429700	0.139700
H1311	H131	0.662400	0.375500	0.211000
C1871	C187	0.299300	0.230100	0.982800
C1881	C188	0.298900	0.249800	0.905200
H1321	H132	0.538700	0.047000	0.322300
C1891	C189	0.609000	0.048700	0.404900
H1331	H133	0.678900	0.062800	0.474100
H1341	H134	0.518200	0.446700	0.030700
C1901	C190	0.589400	0.451400	0.087000
H1351	H135	0.659100	0.441200	0.153200
C1911	C191	0.249500	0.231200	0.931500
H1361	H136	0.314100	0.221300	0.026400
H1371	H137	0.314600	0.257000	0.891700
C1921	C192	0.249800	0.248500	0.857000
C1931	C193	0.611000	0.007800	0.442400
C1941	C194	0.586000	0.490800	0.048400
H1381	H138	0.233100	0.222600	0.943600
H1391	H139	0.233800	0.252300	0.811700
C1951	C195	0.631200	0.018600	0.507700
C1961	C196	0.579200	0.971100	0.404500
C1971	C197	0.614100	0.529200	0.081800
C1981	C198	0.549600	0.495100	0.977500
C1991	C199	0.640000	0.980000	0.545500
O451	O45	0.669900	0.049600	0.541300
C2001	C200	0.585100	0.934100	0.454000
H1401	H140	0.557800	0.968300	0.357600
C2011	C201	0.604600	0.571300	0.031500
H1411	H141	0.636800	0.531800	0.128800
C2021	C202	0.552900	0.526500	0.942500
O461	O46	0.515200	0.461500	0.938200
H1421	H142	0.666200	0.981800	0.591900
C2031	C203	0.611600	0.936400	0.519200
C2041	C204	0.708300	0.051000	0.620000
O471	O47	0.548200	0.890500	0.403000
C2051	C205	0.589100	0.564400	0.976500
O481	O48	0.637400	0.592000	0.073100
H1431	H143	0.531400	0.523700	0.895700
C2061	C206	0.609800	0.898900	0.555300
H1441	H144	0.700000	0.030600	0.639400
H1451	H145	0.714700	0.083900	0.637400
C2071	C207	0.749200	0.030000	0.630900
C2081	C208	0.513300	0.888400	0.330300
C2091	C209	0.592000	0.601400	0.941200
C2101	C210	0.568000	0.881100	0.531300
C2111	C211	0.651700	0.881600	0.616500
H1461	H146	0.772300	0.023300	0.679100
H1471	H147	0.736700	0.998200	0.609700
C2121	C212	0.781900	0.041400	0.618900
H1481	H148	0.524900	0.900400	0.310600
H1491	H149	0.483500	0.903900	0.309500
C2131	C213	0.511400	0.830200	0.331500
C2141	C214	0.550900	0.624300	0.881800
C2151	C215	0.634500	0.612800	0.961000
C2161	C216	0.566100	0.849700	0.570000
H1501	H150	0.539900	0.889900	0.488000
H1511	H151	0.680700	0.890900	0.631800
C2171	C217	0.650600	0.849900	0.655700
H1521	H152	0.774900	0.017200	0.587200
H1531	H153	0.814300	0.035500	0.661500
C2181	C218	0.781800	0.079600	0.599200
H1541	H154	0.484900	0.822900	0.283900
H1551	H155	0.499000	0.825300	0.351900
C2191	C219	0.551900	0.656700	0.844600
H1561	H156	0.521700	0.617100	0.867300
H1571	H157	0.662600	0.599400	0.000500
C2201	C220	0.636100	0.644300	0.922700
H1581	H158	0.536900	0.839600	0.553600
C2211	C221	0.607900	0.833900	0.632600
H1591	H159	0.678900	0.839600	0.697700
H1601	H160	0.804400	0.079300	0.595100
H1611	H161	0.750600	0.086100	0.555800
H1621	H162	0.790300	0.104500	0.630600
C2221	C222	0.596490	0.665760	0.866400
H1631	H163	0.524400	0.672000	0.806600
H1641	H164	0.665100	0.650600	0.936300
C2231	C223	0.606900	0.801300	0.674600
C2241	C224	0.598640	0.698980	0.824200
Zn91	Zn9	0.951440	0.253130	0.804600
N91	N9	0.023290	0.258640	0.878600
O491	O49	0.935850	0.316130	0.752360
O501	O50	0.944830	0.188720	0.834800
O511	O51	0.932550	0.287750	0.849020
O521	O52	0.939950	0.215990	0.729900
C2251	C225	0.048790	0.282100	0.868700
C2261	C226	0.048700	0.237200	0.938300
C2271	C227	0.896000	0.329470	0.699400
C2281	C228	0.906500	0.171460	0.811600
H1651	H165	0.032400	0.297700	0.827500
C2291	C229	0.097410	0.283800	0.916500
C2301	C230	0.097400	0.237600	0.988100
H1661	H166	0.032400	0.220900	0.947000
C2311	C231	0.894100	0.374400	0.665800
O531	O53	0.857110	0.308460	0.669700
C2321	C232	0.907900	0.128100	0.845400
O541	O54	0.865520	0.188470	0.760800
O551	O55	0.854340	0.289010	0.768500
O561	O56	0.861020	0.207340	0.652660
H1671	H167	0.113500	0.300900	0.908100
C2331	C233	0.122360	0.260000	0.977400
H1681	H168	0.113100	0.222500	0.029300
C2341	C234	0.934500	0.398800	0.693000
C2351	C235	0.851500	0.390400	0.603900
Zn101	Zn10	0.847090	0.246800	0.700770
C2361	C236	0.951300	0.104700	0.898300
C2371	C237	0.866800	0.110300	0.825300
C2381	C238	0.175400	0.259000	0.029200
H1691	H169	0.963300	0.389900	0.735400
C2391	C239	0.933300	0.437000	0.658200
C2401	C240	0.849900	0.428000	0.568000
H1701	H170	0.823300	0.375700	0.585900
N101	N10	0.774530	0.242420	0.628200
H1711	H171	0.979000	0.114700	0.910100
C2411	C241	0.952600	0.067100	0.932500
C2421	C242	0.868900	0.070300	0.860300
H1721	H172	0.837600	0.124500	0.789000
C2431	C243	0.200700	0.269900	0.017200
C2441	C244	0.201100	0.250200	0.094800
H1731	H173	0.961300	0.453000	0.677700
C2451	C245	0.891000	0.451300	0.595100
H1741	H174	0.821100	0.437200	0.525900
H1751	H175	0.981800	0.053300	0.969300
C2461	C246	0.910600	0.048600	0.913000
H1761	H176	0.840900	0.058800	0.846800
C2471	C247	0.250500	0.268800	0.068500
H1771	H177	0.185900	0.278700	0.973600
H1781	H178	0.185400	0.243000	0.108300
C2481	C248	0.250200	0.251500	0.143000
C2491	C249	0.889000	0.492200	0.557600
C2501	C250	0.914000	0.009200	0.951600
H1791	H179	0.266900	0.277400	0.056400
H1801	H180	0.266200	0.247700	0.188300
C2511	C251	0.868800	0.481400	0.492300
C2521	C252	0.920800	0.528900	0.595500
C2531	C253	0.885900	0.970800	0.918200
C2541	C254	0.950400	0.004900	0.022500
C2551	C255	0.860000	0.520000	0.454500
O571	O57	0.830100	0.450400	0.458700
C2561	C256	0.914900	0.565900	0.546000
H1811	H181	0.942200	0.531700	0.642400
C2571	C257	0.895400	0.928700	0.968500
H1821	H182	0.863200	0.968200	0.871200
C2581	C258	0.947100	0.973500	0.057500
O581	O58	0.984800	0.038500	0.061800
H1831	H183	0.833800	0.518200	0.408100
C2591	C259	0.888400	0.563600	0.480800
C2601	C260	0.791700	0.449000	0.380000
O591	O59	0.951800	0.609500	0.597000
C2611	C261	0.910900	0.935600	0.023500
O601	O60	0.862600	0.908000	0.926900
H1841	H184	0.968600	0.976300	0.104300
C2621	C262	0.890200	0.601100	0.444700
H1851	H185	0.800000	0.469400	0.360600
H1861	H186	0.785300	0.416100	0.362600
C2631	C263	0.750800	0.470000	0.369100
C2641	C264	0.986700	0.611600	0.669700
C2651	C265	0.908000	0.898600	0.058800
C2661	C266	0.932000	0.618900	0.468700
C2671	C267	0.848300	0.618400	0.383500
H1871	H187	0.727700	0.476700	0.320900
H1881	H188	0.763300	0.501800	0.390300
C2681	C268	0.718100	0.458600	0.381100
H1891	H189	0.975100	0.599600	0.689400
H1901	H190	0.016500	0.596100	0.690500
C2691	C269	0.988600	0.669800	0.668500
C2701	C270	0.949100	0.875700	0.118200
C2711	C271	0.865500	0.887200	0.039000
C2721	C272	0.933900	0.650300	0.430000
H1911	H191	0.960100	0.610100	0.512000
H1921	H192	0.819300	0.609100	0.368200
C2731	C273	0.849400	0.650100	0.344300
H1931	H193	0.725100	0.482800	0.412800
H1941	H194	0.685700	0.464500	0.338500
C2741	C274	0.718200	0.420400	0.400800
H1951	H195	0.015100	0.677100	0.716100
H1961	H196	0.001000	0.674700	0.648100
C2751	C275	0.948100	0.843300	0.155400
H1971	H197	0.978300	0.882900	0.132700
H1981	H198	0.837400	0.900600	0.999500
C2761	C276	0.863900	0.855700	0.077300
H1991	H199	0.963100	0.660400	0.446400
C2771	C277	0.892100	0.666100	0.367400
H2001	H200	0.821100	0.660400	0.302300
H2011	H201	0.695600	0.420700	0.404900
H2021	H202	0.749400	0.413900	0.444200
H2031	H203	0.709700	0.395500	0.369400
C2781	C278	0.903510	0.834240	0.133600
H2041	H204	0.975600	0.828000	0.193400
H2051	H205	0.834900	0.849400	0.063700
C2791	C279	0.893100	0.698700	0.325400
C2801	C280	0.901360	0.801020	0.175800
Zn111	Zn11	0.451440	0.753130	0.804600
N111	N11	0.523290	0.758640	0.878600
O611	O61	0.435850	0.816130	0.752360
O621	O62	0.444830	0.688720	0.834800
O631	O63	0.432550	0.787750	0.849020
O641	O64	0.439950	0.715990	0.729900
C2811	C281	0.548790	0.782100	0.868700
C2821	C282	0.548700	0.737200	0.938300
C2831	C283	0.396000	0.829470	0.699400
C2841	C284	0.406500	0.671460	0.811600
H2061	H206	0.532400	0.797700	0.827500
C2851	C285	0.597410	0.783800	0.916500
C2861	C286	0.597400	0.737600	0.988100
H2071	H207	0.532400	0.720900	0.947000
C2871	C287	0.394100	0.874400	0.665800
O651	O65	0.357110	0.808460	0.669700
C2881	C288	0.407900	0.628100	0.845400
O661	O66	0.365520	0.688470	0.760800
O671	O67	0.354340	0.789010	0.768500
O681	O68	0.361020	0.707340	0.652660
H2081	H208	0.613500	0.800900	0.908100
C2891	C289	0.622360	0.760000	0.977400
H2091	H209	0.613100	0.722500	0.029300
C2901	C290	0.434500	0.898800	0.693000
C2911	C291	0.351500	0.890400	0.603900
Zn121	Zn12	0.347090	0.746800	0.700770
C2921	C292	0.451300	0.604700	0.898300
C2931	C293	0.366800	0.610300	0.825300
C2941	C294	0.675400	0.759000	0.029200
H2101	H210	0.463300	0.889900	0.735400
C2951	C295	0.433300	0.937000	0.658200
C2961	C296	0.349900	0.928000	0.568000
H2111	H211	0.323300	0.875700	0.585900
N121	N12	0.274530	0.742420	0.628200
H2121	H212	0.479000	0.614700	0.910100
C2971	C297	0.452600	0.567100	0.932500
C2981	C298	0.368900	0.570300	0.860300
H2131	H213	0.337600	0.624500	0.789000
C2991	C299	0.700700	0.769900	0.017200
C3001	C300	0.701100	0.750200	0.094800
H2141	H214	0.461300	0.953000	0.677700
C3011	C301	0.391000	0.951300	0.595100
H2151	H215	0.321100	0.937200	0.525900
H2161	H216	0.481800	0.553300	0.969300
C3021	C302	0.410600	0.548600	0.913000
H2171	H217	0.340900	0.558800	0.846800
C3031	C303	0.750500	0.768800	0.068500
H2181	H218	0.685900	0.778700	0.973600
H2191	H219	0.685400	0.743000	0.108300
C3041	C304	0.750200	0.751500	0.143000
C3051	C305	0.389000	0.992200	0.557600
C3061	C306	0.414000	0.509200	0.951600
H2201	H220	0.766900	0.777400	0.056400
H2211	H221	0.766200	0.747700	0.188300
C3071	C307	0.368800	0.981400	0.492300
C3081	C308	0.420800	0.028900	0.595500
C3091	C309	0.385900	0.470800	0.918200
C3101	C310	0.450400	0.504900	0.022500
C3111	C311	0.360000	0.020000	0.454500
O691	O69	0.330100	0.950400	0.458700
C3121	C312	0.414900	0.065900	0.546000
H2221	H222	0.442200	0.031700	0.642400
C3131	C313	0.395400	0.428700	0.968500
H2231	H223	0.363200	0.468200	0.871200
C3141	C314	0.447100	0.473500	0.057500
O701	O70	0.484800	0.538500	0.061800
H2241	H224	0.333800	0.018200	0.408100
C3151	C315	0.388400	0.063600	0.480800
C3161	C316	0.291700	0.949000	0.380000
O711	O71	0.451800	0.109500	0.597000
C3171	C317	0.410900	0.435600	0.023500
O721	O72	0.362600	0.408000	0.926900
H2251	H225	0.468600	0.476300	0.104300
C3181	C318	0.390200	0.101100	0.444700
H2261	H226	0.300000	0.969400	0.360600
H2271	H227	0.285300	0.916100	0.362600
C3191	C319	0.250800	0.970000	0.369100
C3201	C320	0.486700	0.111600	0.669700
C3211	C321	0.408000	0.398600	0.058800
C3221	C322	0.432000	0.118900	0.468700
C3231	C323	0.348300	0.118400	0.383500
H2281	H228	0.227700	0.976700	0.320900
H2291	H229	0.263300	0.001800	0.390300
C3241	C324	0.218100	0.958600	0.381100
H2301	H230	0.475100	0.099600	0.689400
H2311	H231	0.516500	0.096100	0.690500
C3251	C325	0.488600	0.169800	0.668500
C3261	C326	0.449100	0.375700	0.118200
C3271	C327	0.365500	0.387200	0.039000
C3281	C328	0.433900	0.150300	0.430000
H2321	H232	0.460100	0.110100	0.512000
H2331	H233	0.319300	0.109100	0.368200
C3291	C329	0.349400	0.150100	0.344300
H2341	H234	0.225100	0.982800	0.412800
H2351	H235	0.185700	0.964500	0.338500
C3301	C330	0.218200	0.920400	0.400800
H2361	H236	0.515100	0.177100	0.716100
H2371	H237	0.501000	0.174700	0.648100
C3311	C331	0.448100	0.343300	0.155400
H2381	H238	0.478300	0.382900	0.132700
H2391	H239	0.337400	0.400600	0.999500
C3321	C332	0.363900	0.355700	0.077300
H2401	H240	0.463100	0.160400	0.446400
C3331	C333	0.392100	0.166100	0.367400
H2411	H241	0.321100	0.160400	0.302300
H2421	H242	0.195600	0.920700	0.404900
H2431	H243	0.249400	0.913900	0.444200
H2441	H244	0.209700	0.895500	0.369400
C3341	C334	0.403510	0.334240	0.133600
H2451	H245	0.475600	0.328000	0.193400
H2461	H246	0.334900	0.349400	0.063700
C3351	C335	0.393100	0.198700	0.325400
C3361	C336	0.401360	0.301020	0.175800
Zn131	Zn13	0.951440	0.746870	0.304600
N131	N13	0.023290	0.741360	0.378600
O731	O73	0.935850	0.683870	0.252360
O741	O74	0.944830	0.811280	0.334800
O751	O75	0.932550	0.712250	0.349020
O761	O76	0.939950	0.784010	0.229900
C3371	C337	0.048790	0.717900	0.368700
C3381	C338	0.048700	0.762800	0.438300
C3391	C339	0.896000	0.670530	0.199400
C3401	C340	0.906500	0.828540	0.311600
H2471	H247	0.032400	0.702300	0.327500
C3411	C341	0.097410	0.716200	0.416500
C3421	C342	0.097400	0.762400	0.488100
H2481	H248	0.032400	0.779100	0.447000
C3431	C343	0.894100	0.625600	0.165800
O771	O77	0.857110	0.691540	0.169700
C3441	C344	0.907900	0.871900	0.345400
O781	O78	0.865520	0.811530	0.260800
O791	O79	0.854340	0.710990	0.268500
O801	O80	0.861020	0.792660	0.152660
H2491	H249	0.113500	0.699100	0.408100
C3451	C345	0.122360	0.740000	0.477400
H2501	H250	0.113100	0.777500	0.529300
C3461	C346	0.934500	0.601200	0.193000
C3471	C347	0.851500	0.609600	0.103900
Zn141	Zn14	0.847090	0.753200	0.200770
C3481	C348	0.951300	0.895300	0.398300
C3491	C349	0.866800	0.889700	0.325300
C3501	C350	0.175400	0.741000	0.529200
H2511	H251	0.963300	0.610100	0.235400
C3511	C351	0.933300	0.563000	0.158200
C3521	C352	0.849900	0.572000	0.068000
H2521	H252	0.823300	0.624300	0.085900
N141	N14	0.774530	0.757580	0.128200
H2531	H253	0.979000	0.885300	0.410100
C3531	C353	0.952600	0.932900	0.432500
C3541	C354	0.868900	0.929700	0.360300
H2541	H254	0.837600	0.875500	0.289000
C3551	C355	0.200700	0.730100	0.517200
C3561	C356	0.201100	0.749800	0.594800
H2551	H255	0.961300	0.547000	0.177700
C3571	C357	0.891000	0.548700	0.095100
H2561	H256	0.821100	0.562800	0.025900
H2571	H257	0.981800	0.946700	0.469300
C3581	C358	0.910600	0.951400	0.413000
H2581	H258	0.840900	0.941200	0.346800
C3591	C359	0.250500	0.731200	0.568500
H2591	H259	0.185900	0.721300	0.473600
H2601	H260	0.185400	0.757000	0.608300
C3601	C360	0.250200	0.748500	0.643000
C3611	C361	0.889000	0.507800	0.057600
C3621	C362	0.914000	0.990800	0.451600
H2611	H261	0.266900	0.722600	0.556400
H2621	H262	0.266200	0.752300	0.688300
C3631	C363	0.868800	0.518600	0.992300
C3641	C364	0.920800	0.471100	0.095500
C3651	C365	0.885900	0.029200	0.418200
C3661	C366	0.950400	0.995100	0.522500
C3671	C367	0.860000	0.480000	0.954500
O811	O81	0.830100	0.549600	0.958700
C3681	C368	0.914900	0.434100	0.046000
H2631	H263	0.942200	0.468300	0.142400
C3691	C369	0.895400	0.071300	0.468500
H2641	H264	0.863200	0.031800	0.371200
C3701	C370	0.947100	0.026500	0.557500
O821	O82	0.984800	0.961500	0.561800
H2651	H265	0.833800	0.481800	0.908100
C3711	C371	0.888400	0.436400	0.980800
C3721	C372	0.791700	0.551000	0.880000
O831	O83	0.951800	0.390500	0.097000
C3731	C373	0.910900	0.064400	0.523500
O841	O84	0.862600	0.092000	0.426900
H2661	H266	0.968600	0.023700	0.604300
C3741	C374	0.890200	0.398900	0.944700
H2671	H267	0.800000	0.530600	0.860600
H2681	H268	0.785300	0.583900	0.862600
C3751	C375	0.750800	0.530000	0.869100
C3761	C376	0.986700	0.388400	0.169700
C3771	C377	0.908000	0.101400	0.558800
C3781	C378	0.932000	0.381100	0.968700
C3791	C379	0.848300	0.381600	0.883500
H2691	H269	0.727700	0.523300	0.820900
H2701	H270	0.763300	0.498200	0.890300
C3801	C380	0.718100	0.541400	0.881100
H2711	H271	0.975100	0.400400	0.189400
H2721	H272	0.016500	0.403900	0.190500
C3811	C381	0.988600	0.330200	0.168500
C3821	C382	0.949100	0.124300	0.618200
C3831	C383	0.865500	0.112800	0.539000
C3841	C384	0.933900	0.349700	0.930000
H2731	H273	0.960100	0.389900	0.012000
H2741	H274	0.819300	0.390900	0.868200
C3851	C385	0.849400	0.349900	0.844300
H2751	H275	0.725100	0.517200	0.912800
H2761	H276	0.685700	0.535500	0.838500
C3861	C386	0.718200	0.579600	0.900800
H2771	H277	0.015100	0.322900	0.216100
H2781	H278	0.001000	0.325300	0.148100
C3871	C387	0.948100	0.156700	0.655400
H2791	H279	0.978300	0.117100	0.632700
H2801	H280	0.837400	0.099400	0.499500
C3881	C388	0.863900	0.144300	0.577300
H2811	H281	0.963100	0.339600	0.946400
C3891	C389	0.892100	0.333900	0.867400
H2821	H282	0.821100	0.339600	0.802300
H2831	H283	0.695600	0.579300	0.904900
H2841	H284	0.749400	0.586100	0.944200
H2851	H285	0.709700	0.604500	0.869400
C3901	C390	0.903510	0.165760	0.633600
H2861	H286	0.975600	0.172000	0.693400
H2871	H287	0.834900	0.150600	0.563700
C3911	C391	0.893100	0.301300	0.825400
C3921	C392	0.901360	0.198980	0.675800
Zn151	Zn15	0.451440	0.246870	0.304600
N151	N15	0.523290	0.241360	0.378600
O851	O85	0.435850	0.183870	0.252360
O861	O86	0.444830	0.311280	0.334800
O871	O87	0.432550	0.212250	0.349020
O881	O88	0.439950	0.284010	0.229900
C3931	C393	0.548790	0.217900	0.368700
C3941	C394	0.548700	0.262800	0.438300
C3951	C395	0.396000	0.170530	0.199400
C3961	C396	0.406500	0.328540	0.311600
H2881	H288	0.532400	0.202300	0.327500
C3971	C397	0.597410	0.216200	0.416500
C3981	C398	0.597400	0.262400	0.488100
H2891	H289	0.532400	0.279100	0.447000
C3991	C399	0.394100	0.125600	0.165800
O891	O89	0.357110	0.191540	0.169700
C4001	C400	0.407900	0.371900	0.345400
O901	O90	0.365520	0.311530	0.260800
O911	O91	0.354340	0.210990	0.268500
O921	O92	0.361020	0.292660	0.152660
H2901	H290	0.613500	0.199100	0.408100
C4011	C401	0.622360	0.240000	0.477400
H2911	H291	0.613100	0.277500	0.529300
C4021	C402	0.434500	0.101200	0.193000
C4031	C403	0.351500	0.109600	0.103900
Zn161	Zn16	0.347090	0.253200	0.200770
C4041	C404	0.451300	0.395300	0.398300
C4051	C405	0.366800	0.389700	0.325300
C4061	C406	0.675400	0.241000	0.529200
H2921	H292	0.463300	0.110100	0.235400
C4071	C407	0.433300	0.063000	0.158200
C4081	C408	0.349900	0.072000	0.068000
H2931	H293	0.323300	0.124300	0.085900
N161	N16	0.274530	0.257580	0.128200
H2941	H294	0.479000	0.385300	0.410100
C4091	C409	0.452600	0.432900	0.432500
C4101	C410	0.368900	0.429700	0.360300
H2951	H295	0.337600	0.375500	0.289000
C4111	C411	0.700700	0.230100	0.517200
C4121	C412	0.701100	0.249800	0.594800
H2961	H296	0.461300	0.047000	0.177700
C4131	C413	0.391000	0.048700	0.095100
H2971	H297	0.321100	0.062800	0.025900
H2981	H298	0.481800	0.446700	0.469300
C4141	C414	0.410600	0.451400	0.413000
H2991	H299	0.340900	0.441200	0.346800
C4151	C415	0.750500	0.231200	0.568500
H3001	H300	0.685900	0.221300	0.473600
H3011	H301	0.685400	0.257000	0.608300
C4161	C416	0.750200	0.248500	0.643000
C4171	C417	0.389000	0.007800	0.057600
C4181	C418	0.414000	0.490800	0.451600
H3021	H302	0.766900	0.222600	0.556400
H3031	H303	0.766200	0.252300	0.688300
C4191	C419	0.368800	0.018600	0.992300
C4201	C420	0.420800	0.971100	0.095500
C4211	C421	0.385900	0.529200	0.418200
C4221	C422	0.450400	0.495100	0.522500
C4231	C423	0.360000	0.980000	0.954500
O931	O93	0.330100	0.049600	0.958700
C4241	C424	0.414900	0.934100	0.046000
H3041	H304	0.442200	0.968300	0.142400
C4251	C425	0.395400	0.571300	0.468500
H3051	H305	0.363200	0.531800	0.371200
C4261	C426	0.447100	0.526500	0.557500
O941	O94	0.484800	0.461500	0.561800
H3061	H306	0.333800	0.981800	0.908100
C4271	C427	0.388400	0.936400	0.980800
C4281	C428	0.291700	0.051000	0.880000
O951	O95	0.451800	0.890500	0.097000
C4291	C429	0.410900	0.564400	0.523500
O961	O96	0.362600	0.592000	0.426900
H3071	H307	0.468600	0.523700	0.604300
C4301	C430	0.390200	0.898900	0.944700
H3081	H308	0.300000	0.030600	0.860600
H3091	H309	0.285300	0.083900	0.862600
C4311	C431	0.250800	0.030000	0.869100
C4321	C432	0.486700	0.888400	0.169700
C4331	C433	0.408000	0.601400	0.558800
C4341	C434	0.432000	0.881100	0.968700
C4351	C435	0.348300	0.881600	0.883500
H3101	H310	0.227700	0.023300	0.820900
H3111	H311	0.263300	0.998200	0.890300
C4361	C436	0.218100	0.041400	0.881100
H3121	H312	0.475100	0.900400	0.189400
H3131	H313	0.516500	0.903900	0.190500
C4371	C437	0.488600	0.830200	0.168500
C4381	C438	0.449100	0.624300	0.618200
C4391	C439	0.365500	0.612800	0.539000
C4401	C440	0.433900	0.849700	0.930000
H3141	H314	0.460100	0.889900	0.012000
H3151	H315	0.319300	0.890900	0.868200
C4411	C441	0.349400	0.849900	0.844300
H3161	H316	0.225100	0.017200	0.912800
H3171	H317	0.185700	0.035500	0.838500
C4421	C442	0.218200	0.079600	0.900800
H3181	H318	0.515100	0.822900	0.216100
H3191	H319	0.501000	0.825300	0.148100
C4431	C443	0.448100	0.656700	0.655400
H3201	H320	0.478300	0.617100	0.632700
H3211	H321	0.337400	0.599400	0.499500
C4441	C444	0.363900	0.644300	0.577300
H3221	H322	0.463100	0.839600	0.946400
C4451	C445	0.392100	0.833900	0.867400
H3231	H323	0.321100	0.839600	0.802300
H3241	H324	0.195600	0.079300	0.904900
H3251	H325	0.249400	0.086100	0.944200
H3261	H326	0.209700	0.104500	0.869400
C4461	C446	0.403510	0.665760	0.633600
H3271	H327	0.475600	0.672000	0.693400
H3281	H328	0.334900	0.650600	0.563700
C4471	C447	0.393100	0.801300	0.825400
C4481	C448	0.401360	0.698980	0.675800
