data_HUZXUX_clean_PM
_symmetry_space_group_name_H-M	'P1'
_cell_length_a	39.049000
_cell_length_b	27.573000
_cell_length_c	27.218000
_cell_angle_alpha	90.000000
_cell_angle_beta	133.883000
_cell_angle_gamma	90.000000
_symmetry_Int_Tables_number 1

loop_
_symmetry_equiv_pos_as_xyz
'x,y,z'

loop_
_atom_site_label
_atom_site_type_symbol
_atom_site_fract_x
_atom_site_fract_y
_atom_site_fract_z
C11	C1	0.098700	0.198640	0.372200
C21	C2	0.096740	0.166190	0.326300
C31	C3	0.053490	0.156040	0.260200
H11	H1	0.025800	0.170500	0.244200
C41	C4	0.051500	0.125130	0.219000
H21	H2	0.022600	0.120200	0.174400
C51	C5	0.092500	0.100400	0.242900
C61	C6	0.135900	0.112800	0.308300
H31	H3	0.163900	0.099600	0.324000
C71	C7	0.137700	0.144300	0.349900
H41	H4	0.166600	0.150700	0.393900
C81	C8	0.091000	0.065500	0.199300
C91	C9	0.054500	0.029300	0.168400
H51	H5	0.033300	0.030200	0.173600
C101	C10	0.051800	0.992000	0.129600
C111	C11	0.090200	0.991200	0.130900
C121	C12	0.108000	0.031600	0.139700
H61	H6	0.118900	0.038200	0.118900
C131	C13	0.112300	0.069200	0.182300
C141	C14	0.132500	0.888700	0.090900
H71	H7	0.161300	0.874000	0.112100
C151	C15	0.132100	0.927500	0.123500
H81	H8	0.160100	0.936900	0.166900
C161	C16	0.091100	0.951700	0.092100
C171	C17	0.049200	0.934800	0.029600
H91	H9	0.020300	0.949600	0.008200
C181	C18	0.051100	0.894900	0.999100
H101	H10	0.023200	0.884100	0.956700
C191	C19	0.092450	0.871620	0.029700
C201	C20	0.093210	0.828420	0.996400
C211	C21	0.187800	0.102500	0.211700
H111	H11	0.207700	0.074300	0.236900
H121	H12	0.176200	0.102300	0.166600
C221	C22	0.213300	0.148300	0.248800
H131	H13	0.190100	0.168100	0.242900
H141	H14	0.236800	0.139300	0.296600
C231	C23	0.235900	0.178900	0.241300
H151	H15	0.268200	0.166800	0.273700
H161	H16	0.236900	0.208700	0.261300
C241	C24	0.229800	0.197200	0.182100
H171	H17	0.199000	0.186700	0.139600
H181	H18	0.253700	0.181800	0.185600
C251	C25	0.233500	0.252800	0.178600
H191	H19	0.229200	0.260500	0.140300
H201	H20	0.264200	0.263700	0.219800
H211	H21	0.209300	0.268600	0.173600
C261	C26	0.974900	0.959400	0.088100
H221	H22	0.959100	0.990200	0.066600
H231	H23	0.983400	0.957400	0.131000
C271	C27	0.943700	0.919000	0.043500
H241	H24	0.912900	0.934800	0.011400
H251	H25	0.942900	0.900300	0.072900
C281	C28	0.938000	0.876700	0.996400
H261	H26	0.906900	0.879900	0.950500
H271	H27	0.961400	0.882400	0.994100
C291	C29	0.943200	0.827700	0.018500
H281	H28	0.914500	0.809700	0.982400
H291	H29	0.947200	0.827800	0.057900
C301	C30	0.105650	0.300850	0.537500
C311	C31	0.105950	0.332990	0.582100
C321	C32	0.148700	0.352000	0.642700
H301	H30	0.177400	0.343300	0.656800
C331	C33	0.148200	0.383200	0.681100
H311	H31	0.177200	0.393500	0.722600
C341	C34	0.108200	0.399900	0.662400
C351	C35	0.066900	0.382400	0.603700
H321	H32	0.038500	0.392700	0.589200
C361	C36	0.066000	0.348500	0.563400
H331	H33	0.036900	0.337000	0.523200
C371	C37	0.107700	0.437600	0.701100
C381	C38	0.133500	0.478600	0.719900
H341	H34	0.149900	0.482400	0.706800
C391	C39	0.136600	0.515800	0.758400
C401	C40	0.111000	0.509200	0.777700
C411	C41	0.085600	0.468200	0.757500
H351	H35	0.068400	0.464300	0.769300
C421	C42	0.083100	0.432600	0.721700
C431	C43	0.064960	0.601890	0.823500
H361	H36	0.036200	0.611100	0.809000
C441	C44	0.066300	0.563900	0.791500
H371	H37	0.038200	0.548300	0.755000
C451	C45	0.108000	0.549050	0.812600
C461	C46	0.148600	0.572600	0.865400
H381	H38	0.177200	0.563400	0.879700
C471	C47	0.147900	0.610730	0.898700
H391	H39	0.176200	0.625600	0.936100
C481	C48	0.105990	0.626000	0.876600
C491	C49	0.104290	0.671240	0.906600
C501	C50	0.060300	0.368900	0.760800
H401	H40	0.030200	0.357500	0.743800
H411	H41	0.073800	0.392400	0.796800
C511	C51	0.191000	0.560600	0.759500
H421	H42	0.177500	0.542900	0.718600
H431	H43	0.195000	0.594100	0.753400
C521	C52	0.231700	0.542600	0.810400
H441	H44	0.250500	0.536900	0.799700
H451	H45	0.228700	0.512600	0.825800
C531	C53	0.248300	0.256900	0.634000
H461	H46	0.232400	0.269200	0.645400
C541	C54	0.298400	0.255500	0.686200
H471	H47	0.312900	0.265600	0.729600
C551	C55	0.323880	0.242070	0.678100
C561	C56	0.299100	0.227700	0.615700
H481	H48	0.314500	0.215800	0.603200
C571	C57	0.250300	0.230200	0.568400
H491	H49	0.234500	0.220500	0.524300
C581	C58	0.451410	0.218700	0.772200
H501	H50	0.468300	0.202900	0.764400
C591	C59	0.402870	0.216700	0.722600
H511	H51	0.387400	0.199100	0.682800
C601	C60	0.377110	0.241030	0.732400
C611	C61	0.401780	0.264900	0.792600
H521	H52	0.385600	0.281200	0.801300
C621	C62	0.450500	0.264700	0.840200
H531	H53	0.466500	0.281300	0.880900
N11	N1	0.224940	0.243940	0.577800
N21	N2	0.475980	0.242390	0.831600
O11	O1	0.138740	0.207960	0.429670
O21	O2	0.060520	0.215770	0.350160
O31	O3	0.133560	0.810800	0.027180
O41	O4	0.055610	0.811850	0.945920
O51	O5	0.146700	0.105400	0.208400
O61	O6	0.017000	0.955100	0.099300
O71	O7	0.144440	0.289080	0.557690
O81	O8	0.065750	0.287420	0.483100
O91	O9	0.142680	0.691900	0.953280
O101	O10	0.064030	0.684730	0.880810
O111	O11	0.054100	0.391100	0.702400
O121	O12	0.157100	0.558500	0.768700
Zn11	Zn1	0.152500	0.247170	0.505010
Zn21	Zn2	0.048130	0.252650	0.401710
C631	C63	0.598700	0.698640	0.372200
C641	C64	0.596740	0.666190	0.326300
C651	C65	0.553490	0.656040	0.260200
H541	H54	0.525800	0.670500	0.244200
C661	C66	0.551500	0.625130	0.219000
H551	H55	0.522600	0.620200	0.174400
C671	C67	0.592500	0.600400	0.242900
C681	C68	0.635900	0.612800	0.308300
H561	H56	0.663900	0.599600	0.324000
C691	C69	0.637700	0.644300	0.349900
H571	H57	0.666600	0.650700	0.393900
C701	C70	0.591000	0.565500	0.199300
C711	C71	0.554500	0.529300	0.168400
H581	H58	0.533300	0.530200	0.173600
C721	C72	0.551800	0.492000	0.129600
C731	C73	0.590200	0.491200	0.130900
C741	C74	0.608000	0.531600	0.139700
H591	H59	0.618900	0.538200	0.118900
C751	C75	0.612300	0.569200	0.182300
C761	C76	0.632500	0.388700	0.090900
H601	H60	0.661300	0.374000	0.112100
C771	C77	0.632100	0.427500	0.123500
H611	H61	0.660100	0.436900	0.166900
C781	C78	0.591100	0.451700	0.092100
C791	C79	0.549200	0.434800	0.029600
H621	H62	0.520300	0.449600	0.008200
C801	C80	0.551100	0.394900	0.999100
H631	H63	0.523200	0.384100	0.956700
C811	C81	0.592450	0.371620	0.029700
C821	C82	0.593210	0.328420	0.996400
C831	C83	0.687800	0.602500	0.211700
H641	H64	0.707700	0.574300	0.236900
H651	H65	0.676200	0.602300	0.166600
C841	C84	0.713300	0.648300	0.248800
H661	H66	0.690100	0.668100	0.242900
H671	H67	0.736800	0.639300	0.296600
C851	C85	0.735900	0.678900	0.241300
H681	H68	0.768200	0.666800	0.273700
H691	H69	0.736900	0.708700	0.261300
C861	C86	0.729800	0.697200	0.182100
H701	H70	0.699000	0.686700	0.139600
H711	H71	0.753700	0.681800	0.185600
C871	C87	0.733500	0.752800	0.178600
H721	H72	0.729200	0.760500	0.140300
H731	H73	0.764200	0.763700	0.219800
H741	H74	0.709300	0.768600	0.173600
C881	C88	0.474900	0.459400	0.088100
H751	H75	0.459100	0.490200	0.066600
H761	H76	0.483400	0.457400	0.131000
C891	C89	0.443700	0.419000	0.043500
H771	H77	0.412900	0.434800	0.011400
H781	H78	0.442900	0.400300	0.072900
C901	C90	0.438000	0.376700	0.996400
H791	H79	0.406900	0.379900	0.950500
H801	H80	0.461400	0.382400	0.994100
C911	C91	0.443200	0.327700	0.018500
H811	H81	0.414500	0.309700	0.982400
H821	H82	0.447200	0.327800	0.057900
C921	C92	0.605650	0.800850	0.537500
C931	C93	0.605950	0.832990	0.582100
C941	C94	0.648700	0.852000	0.642700
H831	H83	0.677400	0.843300	0.656800
C951	C95	0.648200	0.883200	0.681100
H841	H84	0.677200	0.893500	0.722600
C961	C96	0.608200	0.899900	0.662400
C971	C97	0.566900	0.882400	0.603700
H851	H85	0.538500	0.892700	0.589200
C981	C98	0.566000	0.848500	0.563400
H861	H86	0.536900	0.837000	0.523200
C991	C99	0.607700	0.937600	0.701100
C1001	C100	0.633500	0.978600	0.719900
H871	H87	0.649900	0.982400	0.706800
C1011	C101	0.636600	0.015800	0.758400
C1021	C102	0.611000	0.009200	0.777700
C1031	C103	0.585600	0.968200	0.757500
H881	H88	0.568400	0.964300	0.769300
C1041	C104	0.583100	0.932600	0.721700
C1051	C105	0.564960	0.101890	0.823500
H891	H89	0.536200	0.111100	0.809000
C1061	C106	0.566300	0.063900	0.791500
H901	H90	0.538200	0.048300	0.755000
C1071	C107	0.608000	0.049050	0.812600
C1081	C108	0.648600	0.072600	0.865400
H911	H91	0.677200	0.063400	0.879700
C1091	C109	0.647900	0.110730	0.898700
H921	H92	0.676200	0.125600	0.936100
C1101	C110	0.605990	0.126000	0.876600
C1111	C111	0.604290	0.171240	0.906600
C1121	C112	0.560300	0.868900	0.760800
H931	H93	0.530200	0.857500	0.743800
H941	H94	0.573800	0.892400	0.796800
C1131	C113	0.691000	0.060600	0.759500
H951	H95	0.677500	0.042900	0.718600
H961	H96	0.695000	0.094100	0.753400
C1141	C114	0.731700	0.042600	0.810400
H971	H97	0.750500	0.036900	0.799700
H981	H98	0.728700	0.012600	0.825800
C1151	C115	0.748300	0.756900	0.634000
H991	H99	0.732400	0.769200	0.645400
C1161	C116	0.798400	0.755500	0.686200
H1001	H100	0.812900	0.765600	0.729600
C1171	C117	0.823880	0.742070	0.678100
C1181	C118	0.799100	0.727700	0.615700
H1011	H101	0.814500	0.715800	0.603200
C1191	C119	0.750300	0.730200	0.568400
H1021	H102	0.734500	0.720500	0.524300
C1201	C120	0.951410	0.718700	0.772200
H1031	H103	0.968300	0.702900	0.764400
C1211	C121	0.902870	0.716700	0.722600
H1041	H104	0.887400	0.699100	0.682800
C1221	C122	0.877110	0.741030	0.732400
C1231	C123	0.901780	0.764900	0.792600
H1051	H105	0.885600	0.781200	0.801300
C1241	C124	0.950500	0.764700	0.840200
H1061	H106	0.966500	0.781300	0.880900
N31	N3	0.724940	0.743940	0.577800
N41	N4	0.975980	0.742390	0.831600
O131	O13	0.638740	0.707960	0.429670
O141	O14	0.560520	0.715770	0.350160
O151	O15	0.633560	0.310800	0.027180
O161	O16	0.555610	0.311850	0.945920
O171	O17	0.646700	0.605400	0.208400
O181	O18	0.517000	0.455100	0.099300
O191	O19	0.644440	0.789080	0.557690
O201	O20	0.565750	0.787420	0.483100
O211	O21	0.642680	0.191900	0.953280
O221	O22	0.564030	0.184730	0.880810
O231	O23	0.554100	0.891100	0.702400
O241	O24	0.657100	0.058500	0.768700
Zn31	Zn3	0.652500	0.747170	0.505010
Zn41	Zn4	0.548130	0.752650	0.401710
C1251	C125	0.098700	0.801360	0.872200
C1261	C126	0.096740	0.833810	0.826300
C1271	C127	0.053490	0.843960	0.760200
H1071	H107	0.025800	0.829500	0.744200
C1281	C128	0.051500	0.874870	0.719000
H1081	H108	0.022600	0.879800	0.674400
C1291	C129	0.092500	0.899600	0.742900
C1301	C130	0.135900	0.887200	0.808300
H1091	H109	0.163900	0.900400	0.824000
C1311	C131	0.137700	0.855700	0.849900
H1101	H110	0.166600	0.849300	0.893900
C1321	C132	0.091000	0.934500	0.699300
C1331	C133	0.054500	0.970700	0.668400
H1111	H111	0.033300	0.969800	0.673600
C1341	C134	0.051800	0.008000	0.629600
C1351	C135	0.090200	0.008800	0.630900
C1361	C136	0.108000	0.968400	0.639700
H1121	H112	0.118900	0.961800	0.618900
C1371	C137	0.112300	0.930800	0.682300
C1381	C138	0.132500	0.111300	0.590900
H1131	H113	0.161300	0.126000	0.612100
C1391	C139	0.132100	0.072500	0.623500
H1141	H114	0.160100	0.063100	0.666900
C1401	C140	0.091100	0.048300	0.592100
C1411	C141	0.049200	0.065200	0.529600
H1151	H115	0.020300	0.050400	0.508200
C1421	C142	0.051100	0.105100	0.499100
H1161	H116	0.023200	0.115900	0.456700
C1431	C143	0.092450	0.128380	0.529700
C1441	C144	0.093210	0.171580	0.496400
C1451	C145	0.187800	0.897500	0.711700
H1171	H117	0.207700	0.925700	0.736900
H1181	H118	0.176200	0.897700	0.666600
C1461	C146	0.213300	0.851700	0.748800
H1191	H119	0.190100	0.831900	0.742900
H1201	H120	0.236800	0.860700	0.796600
C1471	C147	0.235900	0.821100	0.741300
H1211	H121	0.268200	0.833200	0.773700
H1221	H122	0.236900	0.791300	0.761300
C1481	C148	0.229800	0.802800	0.682100
H1231	H123	0.199000	0.813300	0.639600
H1241	H124	0.253700	0.818200	0.685600
C1491	C149	0.233500	0.747200	0.678600
H1251	H125	0.229200	0.739500	0.640300
H1261	H126	0.264200	0.736300	0.719800
H1271	H127	0.209300	0.731400	0.673600
C1501	C150	0.974900	0.040600	0.588100
H1281	H128	0.959100	0.009800	0.566600
H1291	H129	0.983400	0.042600	0.631000
C1511	C151	0.943700	0.081000	0.543500
H1301	H130	0.912900	0.065200	0.511400
H1311	H131	0.942900	0.099700	0.572900
C1521	C152	0.938000	0.123300	0.496400
H1321	H132	0.906900	0.120100	0.450500
H1331	H133	0.961400	0.117600	0.494100
C1531	C153	0.943200	0.172300	0.518500
H1341	H134	0.914500	0.190300	0.482400
H1351	H135	0.947200	0.172200	0.557900
C1541	C154	0.105650	0.699150	0.037500
C1551	C155	0.105950	0.667010	0.082100
C1561	C156	0.148700	0.648000	0.142700
H1361	H136	0.177400	0.656700	0.156800
C1571	C157	0.148200	0.616800	0.181100
H1371	H137	0.177200	0.606500	0.222600
C1581	C158	0.108200	0.600100	0.162400
C1591	C159	0.066900	0.617600	0.103700
H1381	H138	0.038500	0.607300	0.089200
C1601	C160	0.066000	0.651500	0.063400
H1391	H139	0.036900	0.663000	0.023200
C1611	C161	0.107700	0.562400	0.201100
C1621	C162	0.133500	0.521400	0.219900
H1401	H140	0.149900	0.517600	0.206800
C1631	C163	0.136600	0.484200	0.258400
C1641	C164	0.111000	0.490800	0.277700
C1651	C165	0.085600	0.531800	0.257500
H1411	H141	0.068400	0.535700	0.269300
C1661	C166	0.083100	0.567400	0.221700
C1671	C167	0.064960	0.398110	0.323500
H1421	H142	0.036200	0.388900	0.309000
C1681	C168	0.066300	0.436100	0.291500
H1431	H143	0.038200	0.451700	0.255000
C1691	C169	0.108000	0.450950	0.312600
C1701	C170	0.148600	0.427400	0.365400
H1441	H144	0.177200	0.436600	0.379700
C1711	C171	0.147900	0.389270	0.398700
H1451	H145	0.176200	0.374400	0.436100
C1721	C172	0.105990	0.374000	0.376600
C1731	C173	0.104290	0.328760	0.406600
C1741	C174	0.060300	0.631100	0.260800
H1461	H146	0.030200	0.642500	0.243800
H1471	H147	0.073800	0.607600	0.296800
C1751	C175	0.191000	0.439400	0.259500
H1481	H148	0.177500	0.457100	0.218600
H1491	H149	0.195000	0.405900	0.253400
C1761	C176	0.231700	0.457400	0.310400
H1501	H150	0.250500	0.463100	0.299700
H1511	H151	0.228700	0.487400	0.325800
C1771	C177	0.248300	0.743100	0.134000
H1521	H152	0.232400	0.730800	0.145400
C1781	C178	0.298400	0.744500	0.186200
H1531	H153	0.312900	0.734400	0.229600
C1791	C179	0.323880	0.757930	0.178100
C1801	C180	0.299100	0.772300	0.115700
H1541	H154	0.314500	0.784200	0.103200
C1811	C181	0.250300	0.769800	0.068400
H1551	H155	0.234500	0.779500	0.024300
C1821	C182	0.451410	0.781300	0.272200
H1561	H156	0.468300	0.797100	0.264400
C1831	C183	0.402870	0.783300	0.222600
H1571	H157	0.387400	0.800900	0.182800
C1841	C184	0.377110	0.758970	0.232400
C1851	C185	0.401780	0.735100	0.292600
H1581	H158	0.385600	0.718800	0.301300
C1861	C186	0.450500	0.735300	0.340200
H1591	H159	0.466500	0.718700	0.380900
N51	N5	0.224940	0.756060	0.077800
N61	N6	0.475980	0.757610	0.331600
O251	O25	0.138740	0.792040	0.929670
O261	O26	0.060520	0.784230	0.850160
O271	O27	0.133560	0.189200	0.527180
O281	O28	0.055610	0.188150	0.445920
O291	O29	0.146700	0.894600	0.708400
O301	O30	0.017000	0.044900	0.599300
O311	O31	0.144440	0.710920	0.057690
O321	O32	0.065750	0.712580	0.983100
O331	O33	0.142680	0.308100	0.453280
O341	O34	0.064030	0.315270	0.380810
O351	O35	0.054100	0.608900	0.202400
O361	O36	0.157100	0.441500	0.268700
Zn51	Zn5	0.152500	0.752830	0.005010
Zn61	Zn6	0.048130	0.747350	0.901710
C1871	C187	0.598700	0.301360	0.872200
C1881	C188	0.596740	0.333810	0.826300
C1891	C189	0.553490	0.343960	0.760200
H1601	H160	0.525800	0.329500	0.744200
C1901	C190	0.551500	0.374870	0.719000
H1611	H161	0.522600	0.379800	0.674400
C1911	C191	0.592500	0.399600	0.742900
C1921	C192	0.635900	0.387200	0.808300
H1621	H162	0.663900	0.400400	0.824000
C1931	C193	0.637700	0.355700	0.849900
H1631	H163	0.666600	0.349300	0.893900
C1941	C194	0.591000	0.434500	0.699300
C1951	C195	0.554500	0.470700	0.668400
H1641	H164	0.533300	0.469800	0.673600
C1961	C196	0.551800	0.508000	0.629600
C1971	C197	0.590200	0.508800	0.630900
C1981	C198	0.608000	0.468400	0.639700
H1651	H165	0.618900	0.461800	0.618900
C1991	C199	0.612300	0.430800	0.682300
C2001	C200	0.632500	0.611300	0.590900
H1661	H166	0.661300	0.626000	0.612100
C2011	C201	0.632100	0.572500	0.623500
H1671	H167	0.660100	0.563100	0.666900
C2021	C202	0.591100	0.548300	0.592100
C2031	C203	0.549200	0.565200	0.529600
H1681	H168	0.520300	0.550400	0.508200
C2041	C204	0.551100	0.605100	0.499100
H1691	H169	0.523200	0.615900	0.456700
C2051	C205	0.592450	0.628380	0.529700
C2061	C206	0.593210	0.671580	0.496400
C2071	C207	0.687800	0.397500	0.711700
H1701	H170	0.707700	0.425700	0.736900
H1711	H171	0.676200	0.397700	0.666600
C2081	C208	0.713300	0.351700	0.748800
H1721	H172	0.690100	0.331900	0.742900
H1731	H173	0.736800	0.360700	0.796600
C2091	C209	0.735900	0.321100	0.741300
H1741	H174	0.768200	0.333200	0.773700
H1751	H175	0.736900	0.291300	0.761300
C2101	C210	0.729800	0.302800	0.682100
H1761	H176	0.699000	0.313300	0.639600
H1771	H177	0.753700	0.318200	0.685600
C2111	C211	0.733500	0.247200	0.678600
H1781	H178	0.729200	0.239500	0.640300
H1791	H179	0.764200	0.236300	0.719800
H1801	H180	0.709300	0.231400	0.673600
C2121	C212	0.474900	0.540600	0.588100
H1811	H181	0.459100	0.509800	0.566600
H1821	H182	0.483400	0.542600	0.631000
C2131	C213	0.443700	0.581000	0.543500
H1831	H183	0.412900	0.565200	0.511400
H1841	H184	0.442900	0.599700	0.572900
C2141	C214	0.438000	0.623300	0.496400
H1851	H185	0.406900	0.620100	0.450500
H1861	H186	0.461400	0.617600	0.494100
C2151	C215	0.443200	0.672300	0.518500
H1871	H187	0.414500	0.690300	0.482400
H1881	H188	0.447200	0.672200	0.557900
C2161	C216	0.605650	0.199150	0.037500
C2171	C217	0.605950	0.167010	0.082100
C2181	C218	0.648700	0.148000	0.142700
H1891	H189	0.677400	0.156700	0.156800
C2191	C219	0.648200	0.116800	0.181100
H1901	H190	0.677200	0.106500	0.222600
C2201	C220	0.608200	0.100100	0.162400
C2211	C221	0.566900	0.117600	0.103700
H1911	H191	0.538500	0.107300	0.089200
C2221	C222	0.566000	0.151500	0.063400
H1921	H192	0.536900	0.163000	0.023200
C2231	C223	0.607700	0.062400	0.201100
C2241	C224	0.633500	0.021400	0.219900
H1931	H193	0.649900	0.017600	0.206800
C2251	C225	0.636600	0.984200	0.258400
C2261	C226	0.611000	0.990800	0.277700
C2271	C227	0.585600	0.031800	0.257500
H1941	H194	0.568400	0.035700	0.269300
C2281	C228	0.583100	0.067400	0.221700
C2291	C229	0.564960	0.898110	0.323500
H1951	H195	0.536200	0.888900	0.309000
C2301	C230	0.566300	0.936100	0.291500
H1961	H196	0.538200	0.951700	0.255000
C2311	C231	0.608000	0.950950	0.312600
C2321	C232	0.648600	0.927400	0.365400
H1971	H197	0.677200	0.936600	0.379700
C2331	C233	0.647900	0.889270	0.398700
H1981	H198	0.676200	0.874400	0.436100
C2341	C234	0.605990	0.874000	0.376600
C2351	C235	0.604290	0.828760	0.406600
C2361	C236	0.560300	0.131100	0.260800
H1991	H199	0.530200	0.142500	0.243800
H2001	H200	0.573800	0.107600	0.296800
C2371	C237	0.691000	0.939400	0.259500
H2011	H201	0.677500	0.957100	0.218600
H2021	H202	0.695000	0.905900	0.253400
C2381	C238	0.731700	0.957400	0.310400
H2031	H203	0.750500	0.963100	0.299700
H2041	H204	0.728700	0.987400	0.325800
C2391	C239	0.748300	0.243100	0.134000
H2051	H205	0.732400	0.230800	0.145400
C2401	C240	0.798400	0.244500	0.186200
H2061	H206	0.812900	0.234400	0.229600
C2411	C241	0.823880	0.257930	0.178100
C2421	C242	0.799100	0.272300	0.115700
H2071	H207	0.814500	0.284200	0.103200
C2431	C243	0.750300	0.269800	0.068400
H2081	H208	0.734500	0.279500	0.024300
C2441	C244	0.951410	0.281300	0.272200
H2091	H209	0.968300	0.297100	0.264400
C2451	C245	0.902870	0.283300	0.222600
H2101	H210	0.887400	0.300900	0.182800
C2461	C246	0.877110	0.258970	0.232400
C2471	C247	0.901780	0.235100	0.292600
H2111	H211	0.885600	0.218800	0.301300
C2481	C248	0.950500	0.235300	0.340200
H2121	H212	0.966500	0.218700	0.380900
N71	N7	0.724940	0.256060	0.077800
N81	N8	0.975980	0.257610	0.331600
O371	O37	0.638740	0.292040	0.929670
O381	O38	0.560520	0.284230	0.850160
O391	O39	0.633560	0.689200	0.527180
O401	O40	0.555610	0.688150	0.445920
O411	O41	0.646700	0.394600	0.708400
O421	O42	0.517000	0.544900	0.599300
O431	O43	0.644440	0.210920	0.057690
O441	O44	0.565750	0.212580	0.983100
O451	O45	0.642680	0.808100	0.453280
O461	O46	0.564030	0.815270	0.380810
O471	O47	0.554100	0.108900	0.202400
O481	O48	0.657100	0.941500	0.268700
Zn71	Zn7	0.652500	0.252830	0.005010
Zn81	Zn8	0.548130	0.247350	0.901710
C2491	C249	0.901300	0.198640	0.127800
C2501	C250	0.903260	0.166190	0.173700
C2511	C251	0.946510	0.156040	0.239800
H2131	H213	0.974200	0.170500	0.255800
C2521	C252	0.948500	0.125130	0.281000
H2141	H214	0.977400	0.120200	0.325600
C2531	C253	0.907500	0.100400	0.257100
C2541	C254	0.864100	0.112800	0.191700
H2151	H215	0.836100	0.099600	0.176000
C2551	C255	0.862300	0.144300	0.150100
H2161	H216	0.833400	0.150700	0.106100
C2561	C256	0.909000	0.065500	0.300700
C2571	C257	0.945500	0.029300	0.331600
H2171	H217	0.966700	0.030200	0.326400
C2581	C258	0.948200	0.992000	0.370400
C2591	C259	0.909800	0.991200	0.369100
C2601	C260	0.892000	0.031600	0.360300
H2181	H218	0.881100	0.038200	0.381100
C2611	C261	0.887700	0.069200	0.317700
C2621	C262	0.867500	0.888700	0.409100
H2191	H219	0.838700	0.874000	0.387900
C2631	C263	0.867900	0.927500	0.376500
H2201	H220	0.839900	0.936900	0.333100
C2641	C264	0.908900	0.951700	0.407900
C2651	C265	0.950800	0.934800	0.470400
H2211	H221	0.979700	0.949600	0.491800
C2661	C266	0.948900	0.894900	0.500900
H2221	H222	0.976800	0.884100	0.543300
C2671	C267	0.907550	0.871620	0.470300
C2681	C268	0.906790	0.828420	0.503600
C2691	C269	0.812200	0.102500	0.288300
H2231	H223	0.792300	0.074300	0.263100
H2241	H224	0.823800	0.102300	0.333400
C2701	C270	0.786700	0.148300	0.251200
H2251	H225	0.809900	0.168100	0.257100
H2261	H226	0.763200	0.139300	0.203400
C2711	C271	0.764100	0.178900	0.258700
H2271	H227	0.731800	0.166800	0.226300
H2281	H228	0.763100	0.208700	0.238700
C2721	C272	0.770200	0.197200	0.317900
H2291	H229	0.801000	0.186700	0.360400
H2301	H230	0.746300	0.181800	0.314400
C2731	C273	0.766500	0.252800	0.321400
H2311	H231	0.770800	0.260500	0.359700
H2321	H232	0.735800	0.263700	0.280200
H2331	H233	0.790700	0.268600	0.326400
C2741	C274	0.025100	0.959400	0.411900
H2341	H234	0.040900	0.990200	0.433400
H2351	H235	0.016600	0.957400	0.369000
C2751	C275	0.056300	0.919000	0.456500
H2361	H236	0.087100	0.934800	0.488600
H2371	H237	0.057100	0.900300	0.427100
C2761	C276	0.062000	0.876700	0.503600
H2381	H238	0.093100	0.879900	0.549500
H2391	H239	0.038600	0.882400	0.505900
C2771	C277	0.056800	0.827700	0.481500
H2401	H240	0.085500	0.809700	0.517600
H2411	H241	0.052800	0.827800	0.442100
C2781	C278	0.894350	0.300850	0.962500
C2791	C279	0.894050	0.332990	0.917900
C2801	C280	0.851300	0.352000	0.857300
H2421	H242	0.822600	0.343300	0.843200
C2811	C281	0.851800	0.383200	0.818900
H2431	H243	0.822800	0.393500	0.777400
C2821	C282	0.891800	0.399900	0.837600
C2831	C283	0.933100	0.382400	0.896300
H2441	H244	0.961500	0.392700	0.910800
C2841	C284	0.934000	0.348500	0.936600
H2451	H245	0.963100	0.337000	0.976800
C2851	C285	0.892300	0.437600	0.798900
C2861	C286	0.866500	0.478600	0.780100
H2461	H246	0.850100	0.482400	0.793200
C2871	C287	0.863400	0.515800	0.741600
C2881	C288	0.889000	0.509200	0.722300
C2891	C289	0.914400	0.468200	0.742500
H2471	H247	0.931600	0.464300	0.730700
C2901	C290	0.916900	0.432600	0.778300
C2911	C291	0.935040	0.601890	0.676500
H2481	H248	0.963800	0.611100	0.691000
C2921	C292	0.933700	0.563900	0.708500
H2491	H249	0.961800	0.548300	0.745000
C2931	C293	0.892000	0.549050	0.687400
C2941	C294	0.851400	0.572600	0.634600
H2501	H250	0.822800	0.563400	0.620300
C2951	C295	0.852100	0.610730	0.601300
H2511	H251	0.823800	0.625600	0.563900
C2961	C296	0.894010	0.626000	0.623400
C2971	C297	0.895710	0.671240	0.593400
C2981	C298	0.939700	0.368900	0.739200
H2521	H252	0.969800	0.357500	0.756200
H2531	H253	0.926200	0.392400	0.703200
C2991	C299	0.809000	0.560600	0.740500
H2541	H254	0.822500	0.542900	0.781400
H2551	H255	0.805000	0.594100	0.746600
C3001	C300	0.768300	0.542600	0.689600
H2561	H256	0.749500	0.536900	0.700300
H2571	H257	0.771300	0.512600	0.674200
C3011	C301	0.751700	0.256900	0.866000
H2581	H258	0.767600	0.269200	0.854600
C3021	C302	0.701600	0.255500	0.813800
H2591	H259	0.687100	0.265600	0.770400
C3031	C303	0.676120	0.242070	0.821900
C3041	C304	0.700900	0.227700	0.884300
H2601	H260	0.685500	0.215800	0.896800
C3051	C305	0.749700	0.230200	0.931600
H2611	H261	0.765500	0.220500	0.975700
C3061	C306	0.548590	0.218700	0.727800
H2621	H262	0.531700	0.202900	0.735600
C3071	C307	0.597130	0.216700	0.777400
H2631	H263	0.612600	0.199100	0.817200
C3081	C308	0.622890	0.241030	0.767600
C3091	C309	0.598220	0.264900	0.707400
H2641	H264	0.614400	0.281200	0.698700
C3101	C310	0.549500	0.264700	0.659800
H2651	H265	0.533500	0.281300	0.619100
N91	N9	0.775060	0.243940	0.922200
N101	N10	0.524020	0.242390	0.668400
O491	O49	0.861260	0.207960	0.070330
O501	O50	0.939480	0.215770	0.149840
O511	O51	0.866440	0.810800	0.472820
O521	O52	0.944390	0.811850	0.554080
O531	O53	0.853300	0.105400	0.291600
O541	O54	0.983000	0.955100	0.400700
O551	O55	0.855560	0.289080	0.942310
O561	O56	0.934250	0.287420	0.016900
O571	O57	0.857320	0.691900	0.546720
O581	O58	0.935970	0.684730	0.619190
O591	O59	0.945900	0.391100	0.797600
O601	O60	0.842900	0.558500	0.731300
Zn91	Zn9	0.847500	0.247170	0.994990
Zn101	Zn10	0.951870	0.252650	0.098290
C3111	C311	0.401300	0.698640	0.127800
C3121	C312	0.403260	0.666190	0.173700
C3131	C313	0.446510	0.656040	0.239800
H2661	H266	0.474200	0.670500	0.255800
C3141	C314	0.448500	0.625130	0.281000
H2671	H267	0.477400	0.620200	0.325600
C3151	C315	0.407500	0.600400	0.257100
C3161	C316	0.364100	0.612800	0.191700
H2681	H268	0.336100	0.599600	0.176000
C3171	C317	0.362300	0.644300	0.150100
H2691	H269	0.333400	0.650700	0.106100
C3181	C318	0.409000	0.565500	0.300700
C3191	C319	0.445500	0.529300	0.331600
H2701	H270	0.466700	0.530200	0.326400
C3201	C320	0.448200	0.492000	0.370400
C3211	C321	0.409800	0.491200	0.369100
C3221	C322	0.392000	0.531600	0.360300
H2711	H271	0.381100	0.538200	0.381100
C3231	C323	0.387700	0.569200	0.317700
C3241	C324	0.367500	0.388700	0.409100
H2721	H272	0.338700	0.374000	0.387900
C3251	C325	0.367900	0.427500	0.376500
H2731	H273	0.339900	0.436900	0.333100
C3261	C326	0.408900	0.451700	0.407900
C3271	C327	0.450800	0.434800	0.470400
H2741	H274	0.479700	0.449600	0.491800
C3281	C328	0.448900	0.394900	0.500900
H2751	H275	0.476800	0.384100	0.543300
C3291	C329	0.407550	0.371620	0.470300
C3301	C330	0.406790	0.328420	0.503600
C3311	C331	0.312200	0.602500	0.288300
H2761	H276	0.292300	0.574300	0.263100
H2771	H277	0.323800	0.602300	0.333400
C3321	C332	0.286700	0.648300	0.251200
H2781	H278	0.309900	0.668100	0.257100
H2791	H279	0.263200	0.639300	0.203400
C3331	C333	0.264100	0.678900	0.258700
H2801	H280	0.231800	0.666800	0.226300
H2811	H281	0.263100	0.708700	0.238700
C3341	C334	0.270200	0.697200	0.317900
H2821	H282	0.301000	0.686700	0.360400
H2831	H283	0.246300	0.681800	0.314400
C3351	C335	0.266500	0.752800	0.321400
H2841	H284	0.270800	0.760500	0.359700
H2851	H285	0.235800	0.763700	0.280200
H2861	H286	0.290700	0.768600	0.326400
C3361	C336	0.525100	0.459400	0.411900
H2871	H287	0.540900	0.490200	0.433400
H2881	H288	0.516600	0.457400	0.369000
C3371	C337	0.556300	0.419000	0.456500
H2891	H289	0.587100	0.434800	0.488600
H2901	H290	0.557100	0.400300	0.427100
C3381	C338	0.562000	0.376700	0.503600
H2911	H291	0.593100	0.379900	0.549500
H2921	H292	0.538600	0.382400	0.505900
C3391	C339	0.556800	0.327700	0.481500
H2931	H293	0.585500	0.309700	0.517600
H2941	H294	0.552800	0.327800	0.442100
C3401	C340	0.394350	0.800850	0.962500
C3411	C341	0.394050	0.832990	0.917900
C3421	C342	0.351300	0.852000	0.857300
H2951	H295	0.322600	0.843300	0.843200
C3431	C343	0.351800	0.883200	0.818900
H2961	H296	0.322800	0.893500	0.777400
C3441	C344	0.391800	0.899900	0.837600
C3451	C345	0.433100	0.882400	0.896300
H2971	H297	0.461500	0.892700	0.910800
C3461	C346	0.434000	0.848500	0.936600
H2981	H298	0.463100	0.837000	0.976800
C3471	C347	0.392300	0.937600	0.798900
C3481	C348	0.366500	0.978600	0.780100
H2991	H299	0.350100	0.982400	0.793200
C3491	C349	0.363400	0.015800	0.741600
C3501	C350	0.389000	0.009200	0.722300
C3511	C351	0.414400	0.968200	0.742500
H3001	H300	0.431600	0.964300	0.730700
C3521	C352	0.416900	0.932600	0.778300
C3531	C353	0.435040	0.101890	0.676500
H3011	H301	0.463800	0.111100	0.691000
C3541	C354	0.433700	0.063900	0.708500
H3021	H302	0.461800	0.048300	0.745000
C3551	C355	0.392000	0.049050	0.687400
C3561	C356	0.351400	0.072600	0.634600
H3031	H303	0.322800	0.063400	0.620300
C3571	C357	0.352100	0.110730	0.601300
H3041	H304	0.323800	0.125600	0.563900
C3581	C358	0.394010	0.126000	0.623400
C3591	C359	0.395710	0.171240	0.593400
C3601	C360	0.439700	0.868900	0.739200
H3051	H305	0.469800	0.857500	0.756200
H3061	H306	0.426200	0.892400	0.703200
C3611	C361	0.309000	0.060600	0.740500
H3071	H307	0.322500	0.042900	0.781400
H3081	H308	0.305000	0.094100	0.746600
C3621	C362	0.268300	0.042600	0.689600
H3091	H309	0.249500	0.036900	0.700300
H3101	H310	0.271300	0.012600	0.674200
C3631	C363	0.251700	0.756900	0.866000
H3111	H311	0.267600	0.769200	0.854600
C3641	C364	0.201600	0.755500	0.813800
H3121	H312	0.187100	0.765600	0.770400
C3651	C365	0.176120	0.742070	0.821900
C3661	C366	0.200900	0.727700	0.884300
H3131	H313	0.185500	0.715800	0.896800
C3671	C367	0.249700	0.730200	0.931600
H3141	H314	0.265500	0.720500	0.975700
C3681	C368	0.048590	0.718700	0.727800
H3151	H315	0.031700	0.702900	0.735600
C3691	C369	0.097130	0.716700	0.777400
H3161	H316	0.112600	0.699100	0.817200
C3701	C370	0.122890	0.741030	0.767600
C3711	C371	0.098220	0.764900	0.707400
H3171	H317	0.114400	0.781200	0.698700
C3721	C372	0.049500	0.764700	0.659800
H3181	H318	0.033500	0.781300	0.619100
N111	N11	0.275060	0.743940	0.922200
N121	N12	0.024020	0.742390	0.668400
O611	O61	0.361260	0.707960	0.070330
O621	O62	0.439480	0.715770	0.149840
O631	O63	0.366440	0.310800	0.472820
O641	O64	0.444390	0.311850	0.554080
O651	O65	0.353300	0.605400	0.291600
O661	O66	0.483000	0.455100	0.400700
O671	O67	0.355560	0.789080	0.942310
O681	O68	0.434250	0.787420	0.016900
O691	O69	0.357320	0.191900	0.546720
O701	O70	0.435970	0.184730	0.619190
O711	O71	0.445900	0.891100	0.797600
O721	O72	0.342900	0.058500	0.731300
Zn111	Zn11	0.347500	0.747170	0.994990
Zn121	Zn12	0.451870	0.752650	0.098290
C3731	C373	0.901300	0.801360	0.627800
C3741	C374	0.903260	0.833810	0.673700
C3751	C375	0.946510	0.843960	0.739800
H3191	H319	0.974200	0.829500	0.755800
C3761	C376	0.948500	0.874870	0.781000
H3201	H320	0.977400	0.879800	0.825600
C3771	C377	0.907500	0.899600	0.757100
C3781	C378	0.864100	0.887200	0.691700
H3211	H321	0.836100	0.900400	0.676000
C3791	C379	0.862300	0.855700	0.650100
H3221	H322	0.833400	0.849300	0.606100
C3801	C380	0.909000	0.934500	0.800700
C3811	C381	0.945500	0.970700	0.831600
H3231	H323	0.966700	0.969800	0.826400
C3821	C382	0.948200	0.008000	0.870400
C3831	C383	0.909800	0.008800	0.869100
C3841	C384	0.892000	0.968400	0.860300
H3241	H324	0.881100	0.961800	0.881100
C3851	C385	0.887700	0.930800	0.817700
C3861	C386	0.867500	0.111300	0.909100
H3251	H325	0.838700	0.126000	0.887900
C3871	C387	0.867900	0.072500	0.876500
H3261	H326	0.839900	0.063100	0.833100
C3881	C388	0.908900	0.048300	0.907900
C3891	C389	0.950800	0.065200	0.970400
H3271	H327	0.979700	0.050400	0.991800
C3901	C390	0.948900	0.105100	0.000900
H3281	H328	0.976800	0.115900	0.043300
C3911	C391	0.907550	0.128380	0.970300
C3921	C392	0.906790	0.171580	0.003600
C3931	C393	0.812200	0.897500	0.788300
H3291	H329	0.792300	0.925700	0.763100
H3301	H330	0.823800	0.897700	0.833400
C3941	C394	0.786700	0.851700	0.751200
H3311	H331	0.809900	0.831900	0.757100
H3321	H332	0.763200	0.860700	0.703400
C3951	C395	0.764100	0.821100	0.758700
H3331	H333	0.731800	0.833200	0.726300
H3341	H334	0.763100	0.791300	0.738700
C3961	C396	0.770200	0.802800	0.817900
H3351	H335	0.801000	0.813300	0.860400
H3361	H336	0.746300	0.818200	0.814400
C3971	C397	0.766500	0.747200	0.821400
H3371	H337	0.770800	0.739500	0.859700
H3381	H338	0.735800	0.736300	0.780200
H3391	H339	0.790700	0.731400	0.826400
C3981	C398	0.025100	0.040600	0.911900
H3401	H340	0.040900	0.009800	0.933400
H3411	H341	0.016600	0.042600	0.869000
C3991	C399	0.056300	0.081000	0.956500
H3421	H342	0.087100	0.065200	0.988600
H3431	H343	0.057100	0.099700	0.927100
C4001	C400	0.062000	0.123300	0.003600
H3441	H344	0.093100	0.120100	0.049500
H3451	H345	0.038600	0.117600	0.005900
C4011	C401	0.056800	0.172300	0.981500
H3461	H346	0.085500	0.190300	0.017600
H3471	H347	0.052800	0.172200	0.942100
C4021	C402	0.894350	0.699150	0.462500
C4031	C403	0.894050	0.667010	0.417900
C4041	C404	0.851300	0.648000	0.357300
H3481	H348	0.822600	0.656700	0.343200
C4051	C405	0.851800	0.616800	0.318900
H3491	H349	0.822800	0.606500	0.277400
C4061	C406	0.891800	0.600100	0.337600
C4071	C407	0.933100	0.617600	0.396300
H3501	H350	0.961500	0.607300	0.410800
C4081	C408	0.934000	0.651500	0.436600
H3511	H351	0.963100	0.663000	0.476800
C4091	C409	0.892300	0.562400	0.298900
C4101	C410	0.866500	0.521400	0.280100
H3521	H352	0.850100	0.517600	0.293200
C4111	C411	0.863400	0.484200	0.241600
C4121	C412	0.889000	0.490800	0.222300
C4131	C413	0.914400	0.531800	0.242500
H3531	H353	0.931600	0.535700	0.230700
C4141	C414	0.916900	0.567400	0.278300
C4151	C415	0.935040	0.398110	0.176500
H3541	H354	0.963800	0.388900	0.191000
C4161	C416	0.933700	0.436100	0.208500
H3551	H355	0.961800	0.451700	0.245000
C4171	C417	0.892000	0.450950	0.187400
C4181	C418	0.851400	0.427400	0.134600
H3561	H356	0.822800	0.436600	0.120300
C4191	C419	0.852100	0.389270	0.101300
H3571	H357	0.823800	0.374400	0.063900
C4201	C420	0.894010	0.374000	0.123400
C4211	C421	0.895710	0.328760	0.093400
C4221	C422	0.939700	0.631100	0.239200
H3581	H358	0.969800	0.642500	0.256200
H3591	H359	0.926200	0.607600	0.203200
C4231	C423	0.809000	0.439400	0.240500
H3601	H360	0.822500	0.457100	0.281400
H3611	H361	0.805000	0.405900	0.246600
C4241	C424	0.768300	0.457400	0.189600
H3621	H362	0.749500	0.463100	0.200300
H3631	H363	0.771300	0.487400	0.174200
C4251	C425	0.751700	0.743100	0.366000
H3641	H364	0.767600	0.730800	0.354600
C4261	C426	0.701600	0.744500	0.313800
H3651	H365	0.687100	0.734400	0.270400
C4271	C427	0.676120	0.757930	0.321900
C4281	C428	0.700900	0.772300	0.384300
H3661	H366	0.685500	0.784200	0.396800
C4291	C429	0.749700	0.769800	0.431600
H3671	H367	0.765500	0.779500	0.475700
C4301	C430	0.548590	0.781300	0.227800
H3681	H368	0.531700	0.797100	0.235600
C4311	C431	0.597130	0.783300	0.277400
H3691	H369	0.612600	0.800900	0.317200
C4321	C432	0.622890	0.758970	0.267600
C4331	C433	0.598220	0.735100	0.207400
H3701	H370	0.614400	0.718800	0.198700
C4341	C434	0.549500	0.735300	0.159800
H3711	H371	0.533500	0.718700	0.119100
N131	N13	0.775060	0.756060	0.422200
N141	N14	0.524020	0.757610	0.168400
O731	O73	0.861260	0.792040	0.570330
O741	O74	0.939480	0.784230	0.649840
O751	O75	0.866440	0.189200	0.972820
O761	O76	0.944390	0.188150	0.054080
O771	O77	0.853300	0.894600	0.791600
O781	O78	0.983000	0.044900	0.900700
O791	O79	0.855560	0.710920	0.442310
O801	O80	0.934250	0.712580	0.516900
O811	O81	0.857320	0.308100	0.046720
O821	O82	0.935970	0.315270	0.119190
O831	O83	0.945900	0.608900	0.297600
O841	O84	0.842900	0.441500	0.231300
Zn131	Zn13	0.847500	0.752830	0.494990
Zn141	Zn14	0.951870	0.747350	0.598290
C4351	C435	0.401300	0.301360	0.627800
C4361	C436	0.403260	0.333810	0.673700
C4371	C437	0.446510	0.343960	0.739800
H3721	H372	0.474200	0.329500	0.755800
C4381	C438	0.448500	0.374870	0.781000
H3731	H373	0.477400	0.379800	0.825600
C4391	C439	0.407500	0.399600	0.757100
C4401	C440	0.364100	0.387200	0.691700
H3741	H374	0.336100	0.400400	0.676000
C4411	C441	0.362300	0.355700	0.650100
H3751	H375	0.333400	0.349300	0.606100
C4421	C442	0.409000	0.434500	0.800700
C4431	C443	0.445500	0.470700	0.831600
H3761	H376	0.466700	0.469800	0.826400
C4441	C444	0.448200	0.508000	0.870400
C4451	C445	0.409800	0.508800	0.869100
C4461	C446	0.392000	0.468400	0.860300
H3771	H377	0.381100	0.461800	0.881100
C4471	C447	0.387700	0.430800	0.817700
C4481	C448	0.367500	0.611300	0.909100
H3781	H378	0.338700	0.626000	0.887900
C4491	C449	0.367900	0.572500	0.876500
H3791	H379	0.339900	0.563100	0.833100
C4501	C450	0.408900	0.548300	0.907900
C4511	C451	0.450800	0.565200	0.970400
H3801	H380	0.479700	0.550400	0.991800
C4521	C452	0.448900	0.605100	0.000900
H3811	H381	0.476800	0.615900	0.043300
C4531	C453	0.407550	0.628380	0.970300
C4541	C454	0.406790	0.671580	0.003600
C4551	C455	0.312200	0.397500	0.788300
H3821	H382	0.292300	0.425700	0.763100
H3831	H383	0.323800	0.397700	0.833400
C4561	C456	0.286700	0.351700	0.751200
H3841	H384	0.309900	0.331900	0.757100
H3851	H385	0.263200	0.360700	0.703400
C4571	C457	0.264100	0.321100	0.758700
H3861	H386	0.231800	0.333200	0.726300
H3871	H387	0.263100	0.291300	0.738700
C4581	C458	0.270200	0.302800	0.817900
H3881	H388	0.301000	0.313300	0.860400
H3891	H389	0.246300	0.318200	0.814400
C4591	C459	0.266500	0.247200	0.821400
H3901	H390	0.270800	0.239500	0.859700
H3911	H391	0.235800	0.236300	0.780200
H3921	H392	0.290700	0.231400	0.826400
C4601	C460	0.525100	0.540600	0.911900
H3931	H393	0.540900	0.509800	0.933400
H3941	H394	0.516600	0.542600	0.869000
C4611	C461	0.556300	0.581000	0.956500
H3951	H395	0.587100	0.565200	0.988600
H3961	H396	0.557100	0.599700	0.927100
C4621	C462	0.562000	0.623300	0.003600
H3971	H397	0.593100	0.620100	0.049500
H3981	H398	0.538600	0.617600	0.005900
C4631	C463	0.556800	0.672300	0.981500
H3991	H399	0.585500	0.690300	0.017600
H4001	H400	0.552800	0.672200	0.942100
C4641	C464	0.394350	0.199150	0.462500
C4651	C465	0.394050	0.167010	0.417900
C4661	C466	0.351300	0.148000	0.357300
H4011	H401	0.322600	0.156700	0.343200
C4671	C467	0.351800	0.116800	0.318900
H4021	H402	0.322800	0.106500	0.277400
C4681	C468	0.391800	0.100100	0.337600
C4691	C469	0.433100	0.117600	0.396300
H4031	H403	0.461500	0.107300	0.410800
C4701	C470	0.434000	0.151500	0.436600
H4041	H404	0.463100	0.163000	0.476800
C4711	C471	0.392300	0.062400	0.298900
C4721	C472	0.366500	0.021400	0.280100
H4051	H405	0.350100	0.017600	0.293200
C4731	C473	0.363400	0.984200	0.241600
C4741	C474	0.389000	0.990800	0.222300
C4751	C475	0.414400	0.031800	0.242500
H4061	H406	0.431600	0.035700	0.230700
C4761	C476	0.416900	0.067400	0.278300
C4771	C477	0.435040	0.898110	0.176500
H4071	H407	0.463800	0.888900	0.191000
C4781	C478	0.433700	0.936100	0.208500
H4081	H408	0.461800	0.951700	0.245000
C4791	C479	0.392000	0.950950	0.187400
C4801	C480	0.351400	0.927400	0.134600
H4091	H409	0.322800	0.936600	0.120300
C4811	C481	0.352100	0.889270	0.101300
H4101	H410	0.323800	0.874400	0.063900
C4821	C482	0.394010	0.874000	0.123400
C4831	C483	0.395710	0.828760	0.093400
C4841	C484	0.439700	0.131100	0.239200
H4111	H411	0.469800	0.142500	0.256200
H4121	H412	0.426200	0.107600	0.203200
C4851	C485	0.309000	0.939400	0.240500
H4131	H413	0.322500	0.957100	0.281400
H4141	H414	0.305000	0.905900	0.246600
C4861	C486	0.268300	0.957400	0.189600
H4151	H415	0.249500	0.963100	0.200300
H4161	H416	0.271300	0.987400	0.174200
C4871	C487	0.251700	0.243100	0.366000
H4171	H417	0.267600	0.230800	0.354600
C4881	C488	0.201600	0.244500	0.313800
H4181	H418	0.187100	0.234400	0.270400
C4891	C489	0.176120	0.257930	0.321900
C4901	C490	0.200900	0.272300	0.384300
H4191	H419	0.185500	0.284200	0.396800
C4911	C491	0.249700	0.269800	0.431600
H4201	H420	0.265500	0.279500	0.475700
C4921	C492	0.048590	0.281300	0.227800
H4211	H421	0.031700	0.297100	0.235600
C4931	C493	0.097130	0.283300	0.277400
H4221	H422	0.112600	0.300900	0.317200
C4941	C494	0.122890	0.258970	0.267600
C4951	C495	0.098220	0.235100	0.207400
H4231	H423	0.114400	0.218800	0.198700
C4961	C496	0.049500	0.235300	0.159800
H4241	H424	0.033500	0.218700	0.119100
N151	N15	0.275060	0.256060	0.422200
N161	N16	0.024020	0.257610	0.168400
O851	O85	0.361260	0.292040	0.570330
O861	O86	0.439480	0.284230	0.649840
O871	O87	0.366440	0.689200	0.972820
O881	O88	0.444390	0.688150	0.054080
O891	O89	0.353300	0.394600	0.791600
O901	O90	0.483000	0.544900	0.900700
O911	O91	0.355560	0.210920	0.442310
O921	O92	0.434250	0.212580	0.516900
O931	O93	0.357320	0.808100	0.046720
O941	O94	0.435970	0.815270	0.119190
O951	O95	0.445900	0.108900	0.297600
O961	O96	0.342900	0.941500	0.231300
Zn151	Zn15	0.347500	0.252830	0.494990
Zn161	Zn16	0.451870	0.247350	0.598290
