data_HUZYAE_clean_PM
_symmetry_space_group_name_H-M	'P1'
_cell_length_a	39.133200
_cell_length_b	27.450300
_cell_length_c	27.349700
_cell_angle_alpha	90.000000
_cell_angle_beta	134.022000
_cell_angle_gamma	90.000000
_symmetry_Int_Tables_number 1

loop_
_symmetry_equiv_pos_as_xyz
'x,y,z'

loop_
_atom_site_label
_atom_site_type_symbol
_atom_site_fract_x
_atom_site_fract_y
_atom_site_fract_z
C11	C1	0.104200	0.829810	0.905600
C21	C2	0.104930	0.873440	0.874700
C31	C3	0.065350	0.897700	0.822800
H11	H1	0.036800	0.888300	0.808800
C41	C4	0.064600	0.936500	0.788500
H21	H2	0.036300	0.952200	0.752700
C51	C5	0.107600	0.950940	0.809800
C61	C6	0.148400	0.927500	0.863600
H31	H3	0.176900	0.937300	0.877900
C71	C7	0.149180	0.889630	0.897900
H41	H4	0.177700	0.875000	0.935200
C81	C8	0.109300	0.991000	0.774600
C91	C9	0.080400	0.031000	0.752500
H51	H5	0.059800	0.033400	0.758500
C101	C10	0.083700	0.067900	0.720500
C111	C11	0.110300	0.062600	0.702500
C121	C12	0.133700	0.019900	0.718400
H61	H6	0.151700	0.015300	0.708200
C131	C13	0.130500	0.981900	0.751100
C141	C14	0.107100	0.098900	0.659400
C151	C15	0.065000	0.118500	0.600600
H71	H7	0.036500	0.109700	0.587000
C161	C16	0.064700	0.151600	0.561100
H81	H8	0.036000	0.164100	0.521500
C171	C17	0.105340	0.165400	0.579500
C181	C18	0.148700	0.149000	0.642400
H91	H9	0.177100	0.161500	0.658700
C191	C19	0.149800	0.115000	0.680000
H101	H10	0.178700	0.102400	0.719300
C201	C20	0.105530	0.199110	0.536500
C211	C21	0.184700	0.932900	0.749800
H111	H11	0.164500	0.937100	0.701300
H121	H12	0.211200	0.955400	0.773800
C221	C22	0.201800	0.882800	0.769800
H131	H13	0.176000	0.861300	0.753300
H141	H14	0.226500	0.880300	0.819000
C231	C23	0.221900	0.867700	0.738900
H151	H15	0.195800	0.864400	0.690000
H161	H16	0.242700	0.893300	0.747600
C241	C24	0.249500	0.819900	0.768300
H171	H17	0.236200	0.800200	0.781200
H181	H18	0.282100	0.827200	0.809500
C251	C25	0.250000	0.788800	0.721300
H191	H19	0.257900	0.809800	0.701900
H201	H20	0.274900	0.764500	0.748800
C261	C26	0.215000	0.769600	0.678200
H211	H21	0.218100	0.751200	0.651600
H221	H22	0.190300	0.793400	0.649900
H231	H23	0.207200	0.748000	0.696900
C271	C27	0.020100	0.119400	0.708900
H241	H24	0.032200	0.108900	0.752400
H251	H25	0.008500	0.152600	0.698900
C281	C28	0.992100	0.091100	0.662900
H261	H26	0.973000	0.076200	0.669300
H271	H27	0.009200	0.065500	0.662900
C291	C29	0.957600	0.120200	0.590000
H281	H28	0.950200	0.150400	0.599500
H291	H29	0.979000	0.129400	0.585000
C301	C30	0.919300	0.109800	0.530000
H301	H30	0.893500	0.130300	0.515900
H311	H31	0.910800	0.076000	0.527100
C311	C31	0.099060	0.697740	0.872200
C321	C32	0.097930	0.665070	0.827900
C331	C33	0.054640	0.655060	0.762000
H321	H32	0.027000	0.670300	0.745200
C341	C34	0.052800	0.622100	0.721100
H331	H33	0.023700	0.615600	0.677400
C351	C35	0.092400	0.599600	0.743900
C361	C36	0.137500	0.612200	0.810400
H341	H34	0.165500	0.599200	0.825800
C371	C37	0.138600	0.644300	0.851800
H351	H35	0.167300	0.651300	0.895700
C381	C38	0.091900	0.563400	0.703600
C391	C39	0.081800	0.572100	0.647300
H361	H36	0.074100	0.604000	0.631400
C401	C40	0.081600	0.537400	0.608500
C411	C41	0.093700	0.492100	0.631900
C421	C42	0.124600	0.480400	0.708000
H371	H37	0.141600	0.451700	0.729300
C431	C43	0.123400	0.520600	0.742100
C441	C44	0.052900	0.396100	0.499400
H381	H38	0.024600	0.385600	0.457300
C451	C45	0.052900	0.436500	0.531100
H391	H39	0.024500	0.452900	0.508600
C461	C46	0.092100	0.452100	0.591900
C471	C47	0.134800	0.427200	0.624200
H401	H40	0.162800	0.437700	0.666600
C481	C48	0.136100	0.387100	0.594000
H411	H41	0.164500	0.370800	0.616100
C491	C49	0.094160	0.372440	0.530400
C501	C50	0.094360	0.328510	0.497800
C511	C51	0.950550	0.733800	0.838600
H421	H42	0.966700	0.716500	0.878700
C521	C52	0.902150	0.733600	0.792200
H431	H43	0.886200	0.717000	0.801000
C531	C53	0.877570	0.758080	0.732500
C541	C54	0.903450	0.782100	0.723000
H441	H44	0.887800	0.799500	0.683000
C551	C55	0.952200	0.780700	0.771900
H451	H45	0.969100	0.796600	0.764200
C561	C56	0.749100	0.742400	0.637400
H461	H46	0.733100	0.730000	0.648400
C571	C57	0.798800	0.745100	0.688600
H471	H47	0.813800	0.737900	0.733000
C581	C58	0.824230	0.756600	0.678200
C591	C59	0.798900	0.776200	0.616900
H481	H48	0.814500	0.790200	0.606000
C601	C60	0.749900	0.776100	0.569200
N11	N1	0.976140	0.756730	0.831200
N21	N2	0.725110	0.755780	0.577000
O11	O1	0.142420	0.808170	0.951350
O21	O2	0.063690	0.815510	0.880300
O31	O3	0.144120	0.209320	0.555690
O41	O4	0.065800	0.212610	0.482130
O51	O5	0.156800	0.941600	0.768600
O61	O6	0.055200	0.110200	0.700800
O71	O7	0.060820	0.715640	0.849990
O81	O8	0.139420	0.706470	0.930610
O91	O9	0.055630	0.312130	0.445800
O101	O10	0.134790	0.310470	0.528650
O111	O11	0.077500	0.547800	0.559600
O121	O12	0.138100	0.505400	0.801700
Zn11	Zn1	0.048520	0.752300	0.901350
Zn21	Zn2	0.152760	0.747520	0.004490
C611	C61	0.604200	0.329810	0.905600
C621	C62	0.604930	0.373440	0.874700
C631	C63	0.565350	0.397700	0.822800
H491	H49	0.536800	0.388300	0.808800
C641	C64	0.564600	0.436500	0.788500
H501	H50	0.536300	0.452200	0.752700
C651	C65	0.607600	0.450940	0.809800
C661	C66	0.648400	0.427500	0.863600
H511	H51	0.676900	0.437300	0.877900
C671	C67	0.649180	0.389630	0.897900
H521	H52	0.677700	0.375000	0.935200
C681	C68	0.609300	0.491000	0.774600
C691	C69	0.580400	0.531000	0.752500
H531	H53	0.559800	0.533400	0.758500
C701	C70	0.583700	0.567900	0.720500
C711	C71	0.610300	0.562600	0.702500
C721	C72	0.633700	0.519900	0.718400
H541	H54	0.651700	0.515300	0.708200
C731	C73	0.630500	0.481900	0.751100
C741	C74	0.607100	0.598900	0.659400
C751	C75	0.565000	0.618500	0.600600
H551	H55	0.536500	0.609700	0.587000
C761	C76	0.564700	0.651600	0.561100
H561	H56	0.536000	0.664100	0.521500
C771	C77	0.605340	0.665400	0.579500
C781	C78	0.648700	0.649000	0.642400
H571	H57	0.677100	0.661500	0.658700
C791	C79	0.649800	0.615000	0.680000
H581	H58	0.678700	0.602400	0.719300
C801	C80	0.605530	0.699110	0.536500
C811	C81	0.684700	0.432900	0.749800
H591	H59	0.664500	0.437100	0.701300
H601	H60	0.711200	0.455400	0.773800
C821	C82	0.701800	0.382800	0.769800
H611	H61	0.676000	0.361300	0.753300
H621	H62	0.726500	0.380300	0.819000
C831	C83	0.721900	0.367700	0.738900
H631	H63	0.695800	0.364400	0.690000
H641	H64	0.742700	0.393300	0.747600
C841	C84	0.749500	0.319900	0.768300
H651	H65	0.736200	0.300200	0.781200
H661	H66	0.782100	0.327200	0.809500
C851	C85	0.750000	0.288800	0.721300
H671	H67	0.757900	0.309800	0.701900
H681	H68	0.774900	0.264500	0.748800
C861	C86	0.715000	0.269600	0.678200
H691	H69	0.718100	0.251200	0.651600
H701	H70	0.690300	0.293400	0.649900
H711	H71	0.707200	0.248000	0.696900
C871	C87	0.520100	0.619400	0.708900
H721	H72	0.532200	0.608900	0.752400
H731	H73	0.508500	0.652600	0.698900
C881	C88	0.492100	0.591100	0.662900
H741	H74	0.473000	0.576200	0.669300
H751	H75	0.509200	0.565500	0.662900
C891	C89	0.457600	0.620200	0.590000
H761	H76	0.450200	0.650400	0.599500
H771	H77	0.479000	0.629400	0.585000
C901	C90	0.419300	0.609800	0.530000
H781	H78	0.393500	0.630300	0.515900
H791	H79	0.410800	0.576000	0.527100
C911	C91	0.599060	0.197740	0.872200
C921	C92	0.597930	0.165070	0.827900
C931	C93	0.554640	0.155060	0.762000
H801	H80	0.527000	0.170300	0.745200
C941	C94	0.552800	0.122100	0.721100
H811	H81	0.523700	0.115600	0.677400
C951	C95	0.592400	0.099600	0.743900
C961	C96	0.637500	0.112200	0.810400
H821	H82	0.665500	0.099200	0.825800
C971	C97	0.638600	0.144300	0.851800
H831	H83	0.667300	0.151300	0.895700
C981	C98	0.591900	0.063400	0.703600
C991	C99	0.581800	0.072100	0.647300
H841	H84	0.574100	0.104000	0.631400
C1001	C100	0.581600	0.037400	0.608500
C1011	C101	0.593700	0.992100	0.631900
C1021	C102	0.624600	0.980400	0.708000
H851	H85	0.641600	0.951700	0.729300
C1031	C103	0.623400	0.020600	0.742100
C1041	C104	0.552900	0.896100	0.499400
H861	H86	0.524600	0.885600	0.457300
C1051	C105	0.552900	0.936500	0.531100
H871	H87	0.524500	0.952900	0.508600
C1061	C106	0.592100	0.952100	0.591900
C1071	C107	0.634800	0.927200	0.624200
H881	H88	0.662800	0.937700	0.666600
C1081	C108	0.636100	0.887100	0.594000
H891	H89	0.664500	0.870800	0.616100
C1091	C109	0.594160	0.872440	0.530400
C1101	C110	0.594360	0.828510	0.497800
C1111	C111	0.450550	0.233800	0.838600
H901	H90	0.466700	0.216500	0.878700
C1121	C112	0.402150	0.233600	0.792200
H911	H91	0.386200	0.217000	0.801000
C1131	C113	0.377570	0.258080	0.732500
C1141	C114	0.403450	0.282100	0.723000
H921	H92	0.387800	0.299500	0.683000
C1151	C115	0.452200	0.280700	0.771900
H931	H93	0.469100	0.296600	0.764200
C1161	C116	0.249100	0.242400	0.637400
H941	H94	0.233100	0.230000	0.648400
C1171	C117	0.298800	0.245100	0.688600
H951	H95	0.313800	0.237900	0.733000
C1181	C118	0.324230	0.256600	0.678200
C1191	C119	0.298900	0.276200	0.616900
H961	H96	0.314500	0.290200	0.606000
C1201	C120	0.249900	0.276100	0.569200
N31	N3	0.476140	0.256730	0.831200
N41	N4	0.225110	0.255780	0.577000
O131	O13	0.642420	0.308170	0.951350
O141	O14	0.563690	0.315510	0.880300
O151	O15	0.644120	0.709320	0.555690
O161	O16	0.565800	0.712610	0.482130
O171	O17	0.656800	0.441600	0.768600
O181	O18	0.555200	0.610200	0.700800
O191	O19	0.560820	0.215640	0.849990
O201	O20	0.639420	0.206470	0.930610
O211	O21	0.555630	0.812130	0.445800
O221	O22	0.634790	0.810470	0.528650
O231	O23	0.577500	0.047800	0.559600
O241	O24	0.638100	0.005400	0.801700
Zn31	Zn3	0.548520	0.252300	0.901350
Zn41	Zn4	0.652760	0.247520	0.004490
C1211	C121	0.104200	0.170190	0.405600
C1221	C122	0.104930	0.126560	0.374700
C1231	C123	0.065350	0.102300	0.322800
H971	H97	0.036800	0.111700	0.308800
C1241	C124	0.064600	0.063500	0.288500
H981	H98	0.036300	0.047800	0.252700
C1251	C125	0.107600	0.049060	0.309800
C1261	C126	0.148400	0.072500	0.363600
H991	H99	0.176900	0.062700	0.377900
C1271	C127	0.149180	0.110370	0.397900
H1001	H100	0.177700	0.125000	0.435200
C1281	C128	0.109300	0.009000	0.274600
C1291	C129	0.080400	0.969000	0.252500
H1011	H101	0.059800	0.966600	0.258500
C1301	C130	0.083700	0.932100	0.220500
C1311	C131	0.110300	0.937400	0.202500
C1321	C132	0.133700	0.980100	0.218400
H1021	H102	0.151700	0.984700	0.208200
C1331	C133	0.130500	0.018100	0.251100
C1341	C134	0.107100	0.901100	0.159400
C1351	C135	0.065000	0.881500	0.100600
H1031	H103	0.036500	0.890300	0.087000
C1361	C136	0.064700	0.848400	0.061100
H1041	H104	0.036000	0.835900	0.021500
C1371	C137	0.105340	0.834600	0.079500
C1381	C138	0.148700	0.851000	0.142400
H1051	H105	0.177100	0.838500	0.158700
C1391	C139	0.149800	0.885000	0.180000
H1061	H106	0.178700	0.897600	0.219300
C1401	C140	0.105530	0.800890	0.036500
C1411	C141	0.184700	0.067100	0.249800
H1071	H107	0.164500	0.062900	0.201300
H1081	H108	0.211200	0.044600	0.273800
C1421	C142	0.201800	0.117200	0.269800
H1091	H109	0.176000	0.138700	0.253300
H1101	H110	0.226500	0.119700	0.319000
C1431	C143	0.221900	0.132300	0.238900
H1111	H111	0.195800	0.135600	0.190000
H1121	H112	0.242700	0.106700	0.247600
C1441	C144	0.249500	0.180100	0.268300
H1131	H113	0.236200	0.199800	0.281200
H1141	H114	0.282100	0.172800	0.309500
C1451	C145	0.250000	0.211200	0.221300
H1151	H115	0.257900	0.190200	0.201900
H1161	H116	0.274900	0.235500	0.248800
C1461	C146	0.215000	0.230400	0.178200
H1171	H117	0.218100	0.248800	0.151600
H1181	H118	0.190300	0.206600	0.149900
H1191	H119	0.207200	0.252000	0.196900
C1471	C147	0.020100	0.880600	0.208900
H1201	H120	0.032200	0.891100	0.252400
H1211	H121	0.008500	0.847400	0.198900
C1481	C148	0.992100	0.908900	0.162900
H1221	H122	0.973000	0.923800	0.169300
H1231	H123	0.009200	0.934500	0.162900
C1491	C149	0.957600	0.879800	0.090000
H1241	H124	0.950200	0.849600	0.099500
H1251	H125	0.979000	0.870600	0.085000
C1501	C150	0.919300	0.890200	0.030000
H1261	H126	0.893500	0.869700	0.015900
H1271	H127	0.910800	0.924000	0.027100
C1511	C151	0.099060	0.302260	0.372200
C1521	C152	0.097930	0.334930	0.327900
C1531	C153	0.054640	0.344940	0.262000
H1281	H128	0.027000	0.329700	0.245200
C1541	C154	0.052800	0.377900	0.221100
H1291	H129	0.023700	0.384400	0.177400
C1551	C155	0.092400	0.400400	0.243900
C1561	C156	0.137500	0.387800	0.310400
H1301	H130	0.165500	0.400800	0.325800
C1571	C157	0.138600	0.355700	0.351800
H1311	H131	0.167300	0.348700	0.395700
C1581	C158	0.091900	0.436600	0.203600
C1591	C159	0.081800	0.427900	0.147300
H1321	H132	0.074100	0.396000	0.131400
C1601	C160	0.081600	0.462600	0.108500
C1611	C161	0.093700	0.507900	0.131900
C1621	C162	0.124600	0.519600	0.208000
H1331	H133	0.141600	0.548300	0.229300
C1631	C163	0.123400	0.479400	0.242100
C1641	C164	0.052900	0.603900	0.999400
H1341	H134	0.024600	0.614400	0.957300
C1651	C165	0.052900	0.563500	0.031100
H1351	H135	0.024500	0.547100	0.008600
C1661	C166	0.092100	0.547900	0.091900
C1671	C167	0.134800	0.572800	0.124200
H1361	H136	0.162800	0.562300	0.166600
C1681	C168	0.136100	0.612900	0.094000
H1371	H137	0.164500	0.629200	0.116100
C1691	C169	0.094160	0.627560	0.030400
C1701	C170	0.094360	0.671490	0.997800
C1711	C171	0.950550	0.266200	0.338600
H1381	H138	0.966700	0.283500	0.378700
C1721	C172	0.902150	0.266400	0.292200
H1391	H139	0.886200	0.283000	0.301000
C1731	C173	0.877570	0.241920	0.232500
C1741	C174	0.903450	0.217900	0.223000
H1401	H140	0.887800	0.200500	0.183000
C1751	C175	0.952200	0.219300	0.271900
H1411	H141	0.969100	0.203400	0.264200
C1761	C176	0.749100	0.257600	0.137400
H1421	H142	0.733100	0.270000	0.148400
C1771	C177	0.798800	0.254900	0.188600
H1431	H143	0.813800	0.262100	0.233000
C1781	C178	0.824230	0.243400	0.178200
C1791	C179	0.798900	0.223800	0.116900
H1441	H144	0.814500	0.209800	0.106000
C1801	C180	0.749900	0.223900	0.069200
N51	N5	0.976140	0.243270	0.331200
N61	N6	0.725110	0.244220	0.077000
O251	O25	0.142420	0.191830	0.451350
O261	O26	0.063690	0.184490	0.380300
O271	O27	0.144120	0.790680	0.055690
O281	O28	0.065800	0.787390	0.982130
O291	O29	0.156800	0.058400	0.268600
O301	O30	0.055200	0.889800	0.200800
O311	O31	0.060820	0.284360	0.349990
O321	O32	0.139420	0.293530	0.430610
O331	O33	0.055630	0.687870	0.945800
O341	O34	0.134790	0.689530	0.028650
O351	O35	0.077500	0.452200	0.059600
O361	O36	0.138100	0.494600	0.301700
Zn51	Zn5	0.048520	0.247700	0.401350
Zn61	Zn6	0.152760	0.252480	0.504490
C1811	C181	0.604200	0.670190	0.405600
C1821	C182	0.604930	0.626560	0.374700
C1831	C183	0.565350	0.602300	0.322800
H1451	H145	0.536800	0.611700	0.308800
C1841	C184	0.564600	0.563500	0.288500
H1461	H146	0.536300	0.547800	0.252700
C1851	C185	0.607600	0.549060	0.309800
C1861	C186	0.648400	0.572500	0.363600
H1471	H147	0.676900	0.562700	0.377900
C1871	C187	0.649180	0.610370	0.397900
H1481	H148	0.677700	0.625000	0.435200
C1881	C188	0.609300	0.509000	0.274600
C1891	C189	0.580400	0.469000	0.252500
H1491	H149	0.559800	0.466600	0.258500
C1901	C190	0.583700	0.432100	0.220500
C1911	C191	0.610300	0.437400	0.202500
C1921	C192	0.633700	0.480100	0.218400
H1501	H150	0.651700	0.484700	0.208200
C1931	C193	0.630500	0.518100	0.251100
C1941	C194	0.607100	0.401100	0.159400
C1951	C195	0.565000	0.381500	0.100600
H1511	H151	0.536500	0.390300	0.087000
C1961	C196	0.564700	0.348400	0.061100
H1521	H152	0.536000	0.335900	0.021500
C1971	C197	0.605340	0.334600	0.079500
C1981	C198	0.648700	0.351000	0.142400
H1531	H153	0.677100	0.338500	0.158700
C1991	C199	0.649800	0.385000	0.180000
H1541	H154	0.678700	0.397600	0.219300
C2001	C200	0.605530	0.300890	0.036500
C2011	C201	0.684700	0.567100	0.249800
H1551	H155	0.664500	0.562900	0.201300
H1561	H156	0.711200	0.544600	0.273800
C2021	C202	0.701800	0.617200	0.269800
H1571	H157	0.676000	0.638700	0.253300
H1581	H158	0.726500	0.619700	0.319000
C2031	C203	0.721900	0.632300	0.238900
H1591	H159	0.695800	0.635600	0.190000
H1601	H160	0.742700	0.606700	0.247600
C2041	C204	0.749500	0.680100	0.268300
H1611	H161	0.736200	0.699800	0.281200
H1621	H162	0.782100	0.672800	0.309500
C2051	C205	0.750000	0.711200	0.221300
H1631	H163	0.757900	0.690200	0.201900
H1641	H164	0.774900	0.735500	0.248800
C2061	C206	0.715000	0.730400	0.178200
H1651	H165	0.718100	0.748800	0.151600
H1661	H166	0.690300	0.706600	0.149900
H1671	H167	0.707200	0.752000	0.196900
C2071	C207	0.520100	0.380600	0.208900
H1681	H168	0.532200	0.391100	0.252400
H1691	H169	0.508500	0.347400	0.198900
C2081	C208	0.492100	0.408900	0.162900
H1701	H170	0.473000	0.423800	0.169300
H1711	H171	0.509200	0.434500	0.162900
C2091	C209	0.457600	0.379800	0.090000
H1721	H172	0.450200	0.349600	0.099500
H1731	H173	0.479000	0.370600	0.085000
C2101	C210	0.419300	0.390200	0.030000
H1741	H174	0.393500	0.369700	0.015900
H1751	H175	0.410800	0.424000	0.027100
C2111	C211	0.599060	0.802260	0.372200
C2121	C212	0.597930	0.834930	0.327900
C2131	C213	0.554640	0.844940	0.262000
H1761	H176	0.527000	0.829700	0.245200
C2141	C214	0.552800	0.877900	0.221100
H1771	H177	0.523700	0.884400	0.177400
C2151	C215	0.592400	0.900400	0.243900
C2161	C216	0.637500	0.887800	0.310400
H1781	H178	0.665500	0.900800	0.325800
C2171	C217	0.638600	0.855700	0.351800
H1791	H179	0.667300	0.848700	0.395700
C2181	C218	0.591900	0.936600	0.203600
C2191	C219	0.581800	0.927900	0.147300
H1801	H180	0.574100	0.896000	0.131400
C2201	C220	0.581600	0.962600	0.108500
C2211	C221	0.593700	0.007900	0.131900
C2221	C222	0.624600	0.019600	0.208000
H1811	H181	0.641600	0.048300	0.229300
C2231	C223	0.623400	0.979400	0.242100
C2241	C224	0.552900	0.103900	0.999400
H1821	H182	0.524600	0.114400	0.957300
C2251	C225	0.552900	0.063500	0.031100
H1831	H183	0.524500	0.047100	0.008600
C2261	C226	0.592100	0.047900	0.091900
C2271	C227	0.634800	0.072800	0.124200
H1841	H184	0.662800	0.062300	0.166600
C2281	C228	0.636100	0.112900	0.094000
H1851	H185	0.664500	0.129200	0.116100
C2291	C229	0.594160	0.127560	0.030400
C2301	C230	0.594360	0.171490	0.997800
C2311	C231	0.450550	0.766200	0.338600
H1861	H186	0.466700	0.783500	0.378700
C2321	C232	0.402150	0.766400	0.292200
H1871	H187	0.386200	0.783000	0.301000
C2331	C233	0.377570	0.741920	0.232500
C2341	C234	0.403450	0.717900	0.223000
H1881	H188	0.387800	0.700500	0.183000
C2351	C235	0.452200	0.719300	0.271900
H1891	H189	0.469100	0.703400	0.264200
C2361	C236	0.249100	0.757600	0.137400
H1901	H190	0.233100	0.770000	0.148400
C2371	C237	0.298800	0.754900	0.188600
H1911	H191	0.313800	0.762100	0.233000
C2381	C238	0.324230	0.743400	0.178200
C2391	C239	0.298900	0.723800	0.116900
H1921	H192	0.314500	0.709800	0.106000
C2401	C240	0.249900	0.723900	0.069200
N71	N7	0.476140	0.743270	0.331200
N81	N8	0.225110	0.744220	0.077000
O371	O37	0.642420	0.691830	0.451350
O381	O38	0.563690	0.684490	0.380300
O391	O39	0.644120	0.290680	0.055690
O401	O40	0.565800	0.287390	0.982130
O411	O41	0.656800	0.558400	0.268600
O421	O42	0.555200	0.389800	0.200800
O431	O43	0.560820	0.784360	0.349990
O441	O44	0.639420	0.793530	0.430610
O451	O45	0.555630	0.187870	0.945800
O461	O46	0.634790	0.189530	0.028650
O471	O47	0.577500	0.952200	0.059600
O481	O48	0.638100	0.994600	0.301700
Zn71	Zn7	0.548520	0.747700	0.401350
Zn81	Zn8	0.652760	0.752480	0.504490
C2411	C241	0.895800	0.829810	0.594400
C2421	C242	0.895070	0.873440	0.625300
C2431	C243	0.934650	0.897700	0.677200
H1931	H193	0.963200	0.888300	0.691200
C2441	C244	0.935400	0.936500	0.711500
H1941	H194	0.963700	0.952200	0.747300
C2451	C245	0.892400	0.950940	0.690200
C2461	C246	0.851600	0.927500	0.636400
H1951	H195	0.823100	0.937300	0.622100
C2471	C247	0.850820	0.889630	0.602100
H1961	H196	0.822300	0.875000	0.564800
C2481	C248	0.890700	0.991000	0.725400
C2491	C249	0.919600	0.031000	0.747500
H1971	H197	0.940200	0.033400	0.741500
C2501	C250	0.916300	0.067900	0.779500
C2511	C251	0.889700	0.062600	0.797500
C2521	C252	0.866300	0.019900	0.781600
H1981	H198	0.848300	0.015300	0.791800
C2531	C253	0.869500	0.981900	0.748900
C2541	C254	0.892900	0.098900	0.840600
C2551	C255	0.935000	0.118500	0.899400
H1991	H199	0.963500	0.109700	0.913000
C2561	C256	0.935300	0.151600	0.938900
H2001	H200	0.964000	0.164100	0.978500
C2571	C257	0.894660	0.165400	0.920500
C2581	C258	0.851300	0.149000	0.857600
H2011	H201	0.822900	0.161500	0.841300
C2591	C259	0.850200	0.115000	0.820000
H2021	H202	0.821300	0.102400	0.780700
C2601	C260	0.894470	0.199110	0.963500
C2611	C261	0.815300	0.932900	0.750200
H2031	H203	0.835500	0.937100	0.798700
H2041	H204	0.788800	0.955400	0.726200
C2621	C262	0.798200	0.882800	0.730200
H2051	H205	0.824000	0.861300	0.746700
H2061	H206	0.773500	0.880300	0.681000
C2631	C263	0.778100	0.867700	0.761100
H2071	H207	0.804200	0.864400	0.810000
H2081	H208	0.757300	0.893300	0.752400
C2641	C264	0.750500	0.819900	0.731700
H2091	H209	0.763800	0.800200	0.718800
H2101	H210	0.717900	0.827200	0.690500
C2651	C265	0.750000	0.788800	0.778700
H2111	H211	0.742100	0.809800	0.798100
H2121	H212	0.725100	0.764500	0.751200
C2661	C266	0.785000	0.769600	0.821800
H2131	H213	0.781900	0.751200	0.848400
H2141	H214	0.809700	0.793400	0.850100
H2151	H215	0.792800	0.748000	0.803100
C2671	C267	0.979900	0.119400	0.791100
H2161	H216	0.967800	0.108900	0.747600
H2171	H217	0.991500	0.152600	0.801100
C2681	C268	0.007900	0.091100	0.837100
H2181	H218	0.027000	0.076200	0.830700
H2191	H219	0.990800	0.065500	0.837100
C2691	C269	0.042400	0.120200	0.910000
H2201	H220	0.049800	0.150400	0.900500
H2211	H221	0.021000	0.129400	0.915000
C2701	C270	0.080700	0.109800	0.970000
H2221	H222	0.106500	0.130300	0.984100
H2231	H223	0.089200	0.076000	0.972900
C2711	C271	0.900940	0.697740	0.627800
C2721	C272	0.902070	0.665070	0.672100
C2731	C273	0.945360	0.655060	0.738000
H2241	H224	0.973000	0.670300	0.754800
C2741	C274	0.947200	0.622100	0.778900
H2251	H225	0.976300	0.615600	0.822600
C2751	C275	0.907600	0.599600	0.756100
C2761	C276	0.862500	0.612200	0.689600
H2261	H226	0.834500	0.599200	0.674200
C2771	C277	0.861400	0.644300	0.648200
H2271	H227	0.832700	0.651300	0.604300
C2781	C278	0.908100	0.563400	0.796400
C2791	C279	0.918200	0.572100	0.852700
H2281	H228	0.925900	0.604000	0.868600
C2801	C280	0.918400	0.537400	0.891500
C2811	C281	0.906300	0.492100	0.868100
C2821	C282	0.875400	0.480400	0.792000
H2291	H229	0.858400	0.451700	0.770700
C2831	C283	0.876600	0.520600	0.757900
C2841	C284	0.947100	0.396100	0.000600
H2301	H230	0.975400	0.385600	0.042700
C2851	C285	0.947100	0.436500	0.968900
H2311	H231	0.975500	0.452900	0.991400
C2861	C286	0.907900	0.452100	0.908100
C2871	C287	0.865200	0.427200	0.875800
H2321	H232	0.837200	0.437700	0.833400
C2881	C288	0.863900	0.387100	0.906000
H2331	H233	0.835500	0.370800	0.883900
C2891	C289	0.905840	0.372440	0.969600
C2901	C290	0.905640	0.328510	0.002200
C2911	C291	0.049450	0.733800	0.661400
H2341	H234	0.033300	0.716500	0.621300
C2921	C292	0.097850	0.733600	0.707800
H2351	H235	0.113800	0.717000	0.699000
C2931	C293	0.122430	0.758080	0.767500
C2941	C294	0.096550	0.782100	0.777000
H2361	H236	0.112200	0.799500	0.817000
C2951	C295	0.047800	0.780700	0.728100
H2371	H237	0.030900	0.796600	0.735800
C2961	C296	0.250900	0.742400	0.862600
H2381	H238	0.266900	0.730000	0.851600
C2971	C297	0.201200	0.745100	0.811400
H2391	H239	0.186200	0.737900	0.767000
C2981	C298	0.175770	0.756600	0.821800
C2991	C299	0.201100	0.776200	0.883100
H2401	H240	0.185500	0.790200	0.894000
C3001	C300	0.250100	0.776100	0.930800
N91	N9	0.023860	0.756730	0.668800
N101	N10	0.274890	0.755780	0.923000
O491	O49	0.857580	0.808170	0.548650
O501	O50	0.936310	0.815510	0.619700
O511	O51	0.855880	0.209320	0.944310
O521	O52	0.934200	0.212610	0.017870
O531	O53	0.843200	0.941600	0.731400
O541	O54	0.944800	0.110200	0.799200
O551	O55	0.939180	0.715640	0.650010
O561	O56	0.860580	0.706470	0.569390
O571	O57	0.944370	0.312130	0.054200
O581	O58	0.865210	0.310470	0.971350
O591	O59	0.922500	0.547800	0.940400
O601	O60	0.861900	0.505400	0.698300
Zn91	Zn9	0.951480	0.752300	0.598650
Zn101	Zn10	0.847240	0.747520	0.495510
C3011	C301	0.395800	0.329810	0.594400
C3021	C302	0.395070	0.373440	0.625300
C3031	C303	0.434650	0.397700	0.677200
H2411	H241	0.463200	0.388300	0.691200
C3041	C304	0.435400	0.436500	0.711500
H2421	H242	0.463700	0.452200	0.747300
C3051	C305	0.392400	0.450940	0.690200
C3061	C306	0.351600	0.427500	0.636400
H2431	H243	0.323100	0.437300	0.622100
C3071	C307	0.350820	0.389630	0.602100
H2441	H244	0.322300	0.375000	0.564800
C3081	C308	0.390700	0.491000	0.725400
C3091	C309	0.419600	0.531000	0.747500
H2451	H245	0.440200	0.533400	0.741500
C3101	C310	0.416300	0.567900	0.779500
C3111	C311	0.389700	0.562600	0.797500
C3121	C312	0.366300	0.519900	0.781600
H2461	H246	0.348300	0.515300	0.791800
C3131	C313	0.369500	0.481900	0.748900
C3141	C314	0.392900	0.598900	0.840600
C3151	C315	0.435000	0.618500	0.899400
H2471	H247	0.463500	0.609700	0.913000
C3161	C316	0.435300	0.651600	0.938900
H2481	H248	0.464000	0.664100	0.978500
C3171	C317	0.394660	0.665400	0.920500
C3181	C318	0.351300	0.649000	0.857600
H2491	H249	0.322900	0.661500	0.841300
C3191	C319	0.350200	0.615000	0.820000
H2501	H250	0.321300	0.602400	0.780700
C3201	C320	0.394470	0.699110	0.963500
C3211	C321	0.315300	0.432900	0.750200
H2511	H251	0.335500	0.437100	0.798700
H2521	H252	0.288800	0.455400	0.726200
C3221	C322	0.298200	0.382800	0.730200
H2531	H253	0.324000	0.361300	0.746700
H2541	H254	0.273500	0.380300	0.681000
C3231	C323	0.278100	0.367700	0.761100
H2551	H255	0.304200	0.364400	0.810000
H2561	H256	0.257300	0.393300	0.752400
C3241	C324	0.250500	0.319900	0.731700
H2571	H257	0.263800	0.300200	0.718800
H2581	H258	0.217900	0.327200	0.690500
C3251	C325	0.250000	0.288800	0.778700
H2591	H259	0.242100	0.309800	0.798100
H2601	H260	0.225100	0.264500	0.751200
C3261	C326	0.285000	0.269600	0.821800
H2611	H261	0.281900	0.251200	0.848400
H2621	H262	0.309700	0.293400	0.850100
H2631	H263	0.292800	0.248000	0.803100
C3271	C327	0.479900	0.619400	0.791100
H2641	H264	0.467800	0.608900	0.747600
H2651	H265	0.491500	0.652600	0.801100
C3281	C328	0.507900	0.591100	0.837100
H2661	H266	0.527000	0.576200	0.830700
H2671	H267	0.490800	0.565500	0.837100
C3291	C329	0.542400	0.620200	0.910000
H2681	H268	0.549800	0.650400	0.900500
H2691	H269	0.521000	0.629400	0.915000
C3301	C330	0.580700	0.609800	0.970000
H2701	H270	0.606500	0.630300	0.984100
H2711	H271	0.589200	0.576000	0.972900
C3311	C331	0.400940	0.197740	0.627800
C3321	C332	0.402070	0.165070	0.672100
C3331	C333	0.445360	0.155060	0.738000
H2721	H272	0.473000	0.170300	0.754800
C3341	C334	0.447200	0.122100	0.778900
H2731	H273	0.476300	0.115600	0.822600
C3351	C335	0.407600	0.099600	0.756100
C3361	C336	0.362500	0.112200	0.689600
H2741	H274	0.334500	0.099200	0.674200
C3371	C337	0.361400	0.144300	0.648200
H2751	H275	0.332700	0.151300	0.604300
C3381	C338	0.408100	0.063400	0.796400
C3391	C339	0.418200	0.072100	0.852700
H2761	H276	0.425900	0.104000	0.868600
C3401	C340	0.418400	0.037400	0.891500
C3411	C341	0.406300	0.992100	0.868100
C3421	C342	0.375400	0.980400	0.792000
H2771	H277	0.358400	0.951700	0.770700
C3431	C343	0.376600	0.020600	0.757900
C3441	C344	0.447100	0.896100	0.000600
H2781	H278	0.475400	0.885600	0.042700
C3451	C345	0.447100	0.936500	0.968900
H2791	H279	0.475500	0.952900	0.991400
C3461	C346	0.407900	0.952100	0.908100
C3471	C347	0.365200	0.927200	0.875800
H2801	H280	0.337200	0.937700	0.833400
C3481	C348	0.363900	0.887100	0.906000
H2811	H281	0.335500	0.870800	0.883900
C3491	C349	0.405840	0.872440	0.969600
C3501	C350	0.405640	0.828510	0.002200
C3511	C351	0.549450	0.233800	0.661400
H2821	H282	0.533300	0.216500	0.621300
C3521	C352	0.597850	0.233600	0.707800
H2831	H283	0.613800	0.217000	0.699000
C3531	C353	0.622430	0.258080	0.767500
C3541	C354	0.596550	0.282100	0.777000
H2841	H284	0.612200	0.299500	0.817000
C3551	C355	0.547800	0.280700	0.728100
H2851	H285	0.530900	0.296600	0.735800
C3561	C356	0.750900	0.242400	0.862600
H2861	H286	0.766900	0.230000	0.851600
C3571	C357	0.701200	0.245100	0.811400
H2871	H287	0.686200	0.237900	0.767000
C3581	C358	0.675770	0.256600	0.821800
C3591	C359	0.701100	0.276200	0.883100
H2881	H288	0.685500	0.290200	0.894000
C3601	C360	0.750100	0.276100	0.930800
N111	N11	0.523860	0.256730	0.668800
N121	N12	0.774890	0.255780	0.923000
O611	O61	0.357580	0.308170	0.548650
O621	O62	0.436310	0.315510	0.619700
O631	O63	0.355880	0.709320	0.944310
O641	O64	0.434200	0.712610	0.017870
O651	O65	0.343200	0.441600	0.731400
O661	O66	0.444800	0.610200	0.799200
O671	O67	0.439180	0.215640	0.650010
O681	O68	0.360580	0.206470	0.569390
O691	O69	0.444370	0.812130	0.054200
O701	O70	0.365210	0.810470	0.971350
O711	O71	0.422500	0.047800	0.940400
O721	O72	0.361900	0.005400	0.698300
Zn111	Zn11	0.451480	0.252300	0.598650
Zn121	Zn12	0.347240	0.247520	0.495510
C3611	C361	0.895800	0.170190	0.094400
C3621	C362	0.895070	0.126560	0.125300
C3631	C363	0.934650	0.102300	0.177200
H2891	H289	0.963200	0.111700	0.191200
C3641	C364	0.935400	0.063500	0.211500
H2901	H290	0.963700	0.047800	0.247300
C3651	C365	0.892400	0.049060	0.190200
C3661	C366	0.851600	0.072500	0.136400
H2911	H291	0.823100	0.062700	0.122100
C3671	C367	0.850820	0.110370	0.102100
H2921	H292	0.822300	0.125000	0.064800
C3681	C368	0.890700	0.009000	0.225400
C3691	C369	0.919600	0.969000	0.247500
H2931	H293	0.940200	0.966600	0.241500
C3701	C370	0.916300	0.932100	0.279500
C3711	C371	0.889700	0.937400	0.297500
C3721	C372	0.866300	0.980100	0.281600
H2941	H294	0.848300	0.984700	0.291800
C3731	C373	0.869500	0.018100	0.248900
C3741	C374	0.892900	0.901100	0.340600
C3751	C375	0.935000	0.881500	0.399400
H2951	H295	0.963500	0.890300	0.413000
C3761	C376	0.935300	0.848400	0.438900
H2961	H296	0.964000	0.835900	0.478500
C3771	C377	0.894660	0.834600	0.420500
C3781	C378	0.851300	0.851000	0.357600
H2971	H297	0.822900	0.838500	0.341300
C3791	C379	0.850200	0.885000	0.320000
H2981	H298	0.821300	0.897600	0.280700
C3801	C380	0.894470	0.800890	0.463500
C3811	C381	0.815300	0.067100	0.250200
H2991	H299	0.835500	0.062900	0.298700
H3001	H300	0.788800	0.044600	0.226200
C3821	C382	0.798200	0.117200	0.230200
H3011	H301	0.824000	0.138700	0.246700
H3021	H302	0.773500	0.119700	0.181000
C3831	C383	0.778100	0.132300	0.261100
H3031	H303	0.804200	0.135600	0.310000
H3041	H304	0.757300	0.106700	0.252400
C3841	C384	0.750500	0.180100	0.231700
H3051	H305	0.763800	0.199800	0.218800
H3061	H306	0.717900	0.172800	0.190500
C3851	C385	0.750000	0.211200	0.278700
H3071	H307	0.742100	0.190200	0.298100
H3081	H308	0.725100	0.235500	0.251200
C3861	C386	0.785000	0.230400	0.321800
H3091	H309	0.781900	0.248800	0.348400
H3101	H310	0.809700	0.206600	0.350100
H3111	H311	0.792800	0.252000	0.303100
C3871	C387	0.979900	0.880600	0.291100
H3121	H312	0.967800	0.891100	0.247600
H3131	H313	0.991500	0.847400	0.301100
C3881	C388	0.007900	0.908900	0.337100
H3141	H314	0.027000	0.923800	0.330700
H3151	H315	0.990800	0.934500	0.337100
C3891	C389	0.042400	0.879800	0.410000
H3161	H316	0.049800	0.849600	0.400500
H3171	H317	0.021000	0.870600	0.415000
C3901	C390	0.080700	0.890200	0.470000
H3181	H318	0.106500	0.869700	0.484100
H3191	H319	0.089200	0.924000	0.472900
C3911	C391	0.900940	0.302260	0.127800
C3921	C392	0.902070	0.334930	0.172100
C3931	C393	0.945360	0.344940	0.238000
H3201	H320	0.973000	0.329700	0.254800
C3941	C394	0.947200	0.377900	0.278900
H3211	H321	0.976300	0.384400	0.322600
C3951	C395	0.907600	0.400400	0.256100
C3961	C396	0.862500	0.387800	0.189600
H3221	H322	0.834500	0.400800	0.174200
C3971	C397	0.861400	0.355700	0.148200
H3231	H323	0.832700	0.348700	0.104300
C3981	C398	0.908100	0.436600	0.296400
C3991	C399	0.918200	0.427900	0.352700
H3241	H324	0.925900	0.396000	0.368600
C4001	C400	0.918400	0.462600	0.391500
C4011	C401	0.906300	0.507900	0.368100
C4021	C402	0.875400	0.519600	0.292000
H3251	H325	0.858400	0.548300	0.270700
C4031	C403	0.876600	0.479400	0.257900
C4041	C404	0.947100	0.603900	0.500600
H3261	H326	0.975400	0.614400	0.542700
C4051	C405	0.947100	0.563500	0.468900
H3271	H327	0.975500	0.547100	0.491400
C4061	C406	0.907900	0.547900	0.408100
C4071	C407	0.865200	0.572800	0.375800
H3281	H328	0.837200	0.562300	0.333400
C4081	C408	0.863900	0.612900	0.406000
H3291	H329	0.835500	0.629200	0.383900
C4091	C409	0.905840	0.627560	0.469600
C4101	C410	0.905640	0.671490	0.502200
C4111	C411	0.049450	0.266200	0.161400
H3301	H330	0.033300	0.283500	0.121300
C4121	C412	0.097850	0.266400	0.207800
H3311	H331	0.113800	0.283000	0.199000
C4131	C413	0.122430	0.241920	0.267500
C4141	C414	0.096550	0.217900	0.277000
H3321	H332	0.112200	0.200500	0.317000
C4151	C415	0.047800	0.219300	0.228100
H3331	H333	0.030900	0.203400	0.235800
C4161	C416	0.250900	0.257600	0.362600
H3341	H334	0.266900	0.270000	0.351600
C4171	C417	0.201200	0.254900	0.311400
H3351	H335	0.186200	0.262100	0.267000
C4181	C418	0.175770	0.243400	0.321800
C4191	C419	0.201100	0.223800	0.383100
H3361	H336	0.185500	0.209800	0.394000
C4201	C420	0.250100	0.223900	0.430800
N131	N13	0.023860	0.243270	0.168800
N141	N14	0.274890	0.244220	0.423000
O731	O73	0.857580	0.191830	0.048650
O741	O74	0.936310	0.184490	0.119700
O751	O75	0.855880	0.790680	0.444310
O761	O76	0.934200	0.787390	0.517870
O771	O77	0.843200	0.058400	0.231400
O781	O78	0.944800	0.889800	0.299200
O791	O79	0.939180	0.284360	0.150010
O801	O80	0.860580	0.293530	0.069390
O811	O81	0.944370	0.687870	0.554200
O821	O82	0.865210	0.689530	0.471350
O831	O83	0.922500	0.452200	0.440400
O841	O84	0.861900	0.494600	0.198300
Zn131	Zn13	0.951480	0.247700	0.098650
Zn141	Zn14	0.847240	0.252480	0.995510
C4211	C421	0.395800	0.670190	0.094400
C4221	C422	0.395070	0.626560	0.125300
C4231	C423	0.434650	0.602300	0.177200
H3371	H337	0.463200	0.611700	0.191200
C4241	C424	0.435400	0.563500	0.211500
H3381	H338	0.463700	0.547800	0.247300
C4251	C425	0.392400	0.549060	0.190200
C4261	C426	0.351600	0.572500	0.136400
H3391	H339	0.323100	0.562700	0.122100
C4271	C427	0.350820	0.610370	0.102100
H3401	H340	0.322300	0.625000	0.064800
C4281	C428	0.390700	0.509000	0.225400
C4291	C429	0.419600	0.469000	0.247500
H3411	H341	0.440200	0.466600	0.241500
C4301	C430	0.416300	0.432100	0.279500
C4311	C431	0.389700	0.437400	0.297500
C4321	C432	0.366300	0.480100	0.281600
H3421	H342	0.348300	0.484700	0.291800
C4331	C433	0.369500	0.518100	0.248900
C4341	C434	0.392900	0.401100	0.340600
C4351	C435	0.435000	0.381500	0.399400
H3431	H343	0.463500	0.390300	0.413000
C4361	C436	0.435300	0.348400	0.438900
H3441	H344	0.464000	0.335900	0.478500
C4371	C437	0.394660	0.334600	0.420500
C4381	C438	0.351300	0.351000	0.357600
H3451	H345	0.322900	0.338500	0.341300
C4391	C439	0.350200	0.385000	0.320000
H3461	H346	0.321300	0.397600	0.280700
C4401	C440	0.394470	0.300890	0.463500
C4411	C441	0.315300	0.567100	0.250200
H3471	H347	0.335500	0.562900	0.298700
H3481	H348	0.288800	0.544600	0.226200
C4421	C442	0.298200	0.617200	0.230200
H3491	H349	0.324000	0.638700	0.246700
H3501	H350	0.273500	0.619700	0.181000
C4431	C443	0.278100	0.632300	0.261100
H3511	H351	0.304200	0.635600	0.310000
H3521	H352	0.257300	0.606700	0.252400
C4441	C444	0.250500	0.680100	0.231700
H3531	H353	0.263800	0.699800	0.218800
H3541	H354	0.217900	0.672800	0.190500
C4451	C445	0.250000	0.711200	0.278700
H3551	H355	0.242100	0.690200	0.298100
H3561	H356	0.225100	0.735500	0.251200
C4461	C446	0.285000	0.730400	0.321800
H3571	H357	0.281900	0.748800	0.348400
H3581	H358	0.309700	0.706600	0.350100
H3591	H359	0.292800	0.752000	0.303100
C4471	C447	0.479900	0.380600	0.291100
H3601	H360	0.467800	0.391100	0.247600
H3611	H361	0.491500	0.347400	0.301100
C4481	C448	0.507900	0.408900	0.337100
H3621	H362	0.527000	0.423800	0.330700
H3631	H363	0.490800	0.434500	0.337100
C4491	C449	0.542400	0.379800	0.410000
H3641	H364	0.549800	0.349600	0.400500
H3651	H365	0.521000	0.370600	0.415000
C4501	C450	0.580700	0.390200	0.470000
H3661	H366	0.606500	0.369700	0.484100
H3671	H367	0.589200	0.424000	0.472900
C4511	C451	0.400940	0.802260	0.127800
C4521	C452	0.402070	0.834930	0.172100
C4531	C453	0.445360	0.844940	0.238000
H3681	H368	0.473000	0.829700	0.254800
C4541	C454	0.447200	0.877900	0.278900
H3691	H369	0.476300	0.884400	0.322600
C4551	C455	0.407600	0.900400	0.256100
C4561	C456	0.362500	0.887800	0.189600
H3701	H370	0.334500	0.900800	0.174200
C4571	C457	0.361400	0.855700	0.148200
H3711	H371	0.332700	0.848700	0.104300
C4581	C458	0.408100	0.936600	0.296400
C4591	C459	0.418200	0.927900	0.352700
H3721	H372	0.425900	0.896000	0.368600
C4601	C460	0.418400	0.962600	0.391500
C4611	C461	0.406300	0.007900	0.368100
C4621	C462	0.375400	0.019600	0.292000
H3731	H373	0.358400	0.048300	0.270700
C4631	C463	0.376600	0.979400	0.257900
C4641	C464	0.447100	0.103900	0.500600
H3741	H374	0.475400	0.114400	0.542700
C4651	C465	0.447100	0.063500	0.468900
H3751	H375	0.475500	0.047100	0.491400
C4661	C466	0.407900	0.047900	0.408100
C4671	C467	0.365200	0.072800	0.375800
H3761	H376	0.337200	0.062300	0.333400
C4681	C468	0.363900	0.112900	0.406000
H3771	H377	0.335500	0.129200	0.383900
C4691	C469	0.405840	0.127560	0.469600
C4701	C470	0.405640	0.171490	0.502200
C4711	C471	0.549450	0.766200	0.161400
H3781	H378	0.533300	0.783500	0.121300
C4721	C472	0.597850	0.766400	0.207800
H3791	H379	0.613800	0.783000	0.199000
C4731	C473	0.622430	0.741920	0.267500
C4741	C474	0.596550	0.717900	0.277000
H3801	H380	0.612200	0.700500	0.317000
C4751	C475	0.547800	0.719300	0.228100
H3811	H381	0.530900	0.703400	0.235800
C4761	C476	0.750900	0.757600	0.362600
H3821	H382	0.766900	0.770000	0.351600
C4771	C477	0.701200	0.754900	0.311400
H3831	H383	0.686200	0.762100	0.267000
C4781	C478	0.675770	0.743400	0.321800
C4791	C479	0.701100	0.723800	0.383100
H3841	H384	0.685500	0.709800	0.394000
C4801	C480	0.750100	0.723900	0.430800
N151	N15	0.523860	0.743270	0.168800
N161	N16	0.774890	0.744220	0.423000
O851	O85	0.357580	0.691830	0.048650
O861	O86	0.436310	0.684490	0.119700
O871	O87	0.355880	0.290680	0.444310
O881	O88	0.434200	0.287390	0.517870
O891	O89	0.343200	0.558400	0.231400
O901	O90	0.444800	0.389800	0.299200
O911	O91	0.439180	0.784360	0.150010
O921	O92	0.360580	0.793530	0.069390
O931	O93	0.444370	0.187870	0.554200
O941	O94	0.365210	0.189530	0.471350
O951	O95	0.422500	0.952200	0.440400
O961	O96	0.361900	0.994600	0.198300
Zn151	Zn15	0.451480	0.747700	0.098650
Zn161	Zn16	0.347240	0.752480	0.995510
