data_IBABUL_clean_PM
_symmetry_space_group_name_H-M	'P1'
_cell_length_a	18.072000
_cell_length_b	21.785000
_cell_length_c	12.673200
_cell_angle_alpha	90.000000
_cell_angle_beta	90.000000
_cell_angle_gamma	90.000000
_symmetry_Int_Tables_number 1

loop_
_symmetry_equiv_pos_as_xyz
'x,y,z'

loop_
_atom_site_label
_atom_site_type_symbol
_atom_site_fract_x
_atom_site_fract_y
_atom_site_fract_z
Co11	Co1	0.338380	0.728680	0.032950
Co21	Co2	0.174690	0.722110	0.026500
S11	S1	0.245300	0.606350	0.393400
S21	S2	0.208620	0.839970	0.676600
N11	N1	0.443800	0.758100	0.052900
N21	N2	0.562900	0.790200	0.041800
N31	N3	0.460400	0.798400	0.135700
N41	N4	0.514500	0.728100	0.904500
H11	H1	0.477900	0.708400	0.877300
H21	H2	0.556300	0.729300	0.872300
N51	N5	0.565300	0.851400	0.196900
H31	H3	0.541700	0.866400	0.249900
H41	H4	0.611300	0.860200	0.187800
O11	O1	0.210600	0.309300	0.502800
O21	O2	0.178900	0.140900	0.574200
O31	O3	0.344900	0.704100	0.876800
O41	O4	0.319300	0.752000	0.193700
O51	O5	0.222700	0.695000	0.893700
O61	O6	0.195200	0.746700	0.175100
O71	O7	0.331700	0.310500	0.472200
O81	O8	0.302600	0.132100	0.579600
O91	O9	0.171800	0.621200	0.359800
O101	O10	0.306200	0.626300	0.331300
O111	O11	0.133400	0.826500	0.708800
O121	O12	0.269400	0.819900	0.740300
C11	C1	0.280800	0.692600	0.841200
C21	C2	0.273400	0.674700	0.728000
C31	C3	0.203900	0.660700	0.688800
H51	H5	0.162600	0.664300	0.732000
C41	C4	0.195700	0.641300	0.584900
H61	H6	0.149200	0.632200	0.557900
C51	C5	0.256400	0.635900	0.524300
C61	C6	0.325600	0.649900	0.558100
H71	H7	0.366100	0.646700	0.513100
C71	C7	0.334300	0.669700	0.663600
H81	H8	0.381100	0.679200	0.689300
C81	C8	0.252400	0.524400	0.410400
C91	C9	0.190600	0.493600	0.438500
H91	H9	0.145700	0.514100	0.445200
C101	C10	0.195300	0.431600	0.456800
H101	H10	0.153100	0.409400	0.474500
C111	C11	0.262900	0.402100	0.449100
C121	C12	0.325100	0.435800	0.419000
H111	H11	0.370400	0.416200	0.411300
C131	C13	0.319900	0.497700	0.400600
H121	H12	0.361300	0.520600	0.382000
C141	C14	0.269200	0.335900	0.476000
C151	C15	0.253400	0.755700	0.227600
C161	C16	0.241200	0.775500	0.341900
C171	C17	0.301100	0.791800	0.403400
H131	H13	0.348400	0.791400	0.374500
C181	C18	0.291800	0.808500	0.505900
H141	H14	0.332500	0.817800	0.547800
C191	C19	0.221100	0.811600	0.547000
C201	C20	0.160300	0.795500	0.485200
H151	H15	0.112700	0.798200	0.512700
C211	C21	0.170900	0.775400	0.383000
H161	H16	0.131100	0.762100	0.342500
C221	C22	0.216000	0.920400	0.656600
C231	C23	0.284300	0.948100	0.668000
H171	H17	0.325200	0.925300	0.689300
C241	C24	0.290900	0.010300	0.647100
H181	H18	0.336500	0.029500	0.655100
C251	C25	0.231100	0.043700	0.615000
C261	C26	0.162100	0.016100	0.606700
H191	H19	0.120500	0.038700	0.588000
C271	C27	0.157300	0.952900	0.627500
H201	H20	0.111800	0.933300	0.620700
C281	C28	0.237700	0.111800	0.588900
C291	C29	0.506100	0.757400	0.998000
C301	C30	0.530800	0.814700	0.129000
Co31	Co3	0.661620	0.271320	0.532950
Co41	Co4	0.825310	0.277890	0.526500
S31	S3	0.754700	0.393650	0.893400
S41	S4	0.791380	0.160030	0.176600
N61	N6	0.556200	0.241900	0.552900
N71	N7	0.437100	0.209800	0.541800
N81	N8	0.539600	0.201600	0.635700
N91	N9	0.485500	0.271900	0.404500
H211	H21	0.522100	0.291600	0.377300
H221	H22	0.443700	0.270700	0.372300
N101	N10	0.434700	0.148600	0.696900
H231	H23	0.458300	0.133600	0.749900
H241	H24	0.388700	0.139800	0.687800
O131	O13	0.789400	0.690700	0.002800
O141	O14	0.821100	0.859100	0.074200
O151	O15	0.655100	0.295900	0.376800
O161	O16	0.680700	0.248000	0.693700
O171	O17	0.777300	0.305000	0.393700
O181	O18	0.804800	0.253300	0.675100
O191	O19	0.668300	0.689500	0.972200
O201	O20	0.697400	0.867900	0.079600
O211	O21	0.828200	0.378800	0.859800
O221	O22	0.693800	0.373700	0.831300
O231	O23	0.866600	0.173500	0.208800
O241	O24	0.730600	0.180100	0.240300
C311	C31	0.719200	0.307400	0.341200
C321	C32	0.726600	0.325300	0.228000
C331	C33	0.796100	0.339300	0.188800
H251	H25	0.837400	0.335700	0.232000
C341	C34	0.804300	0.358700	0.084900
H261	H26	0.850800	0.367800	0.057900
C351	C35	0.743600	0.364100	0.024300
C361	C36	0.674400	0.350100	0.058100
H271	H27	0.633900	0.353300	0.013100
C371	C37	0.665700	0.330300	0.163600
H281	H28	0.618900	0.320800	0.189300
C381	C38	0.747600	0.475600	0.910400
C391	C39	0.809400	0.506400	0.938500
H291	H29	0.854300	0.485900	0.945200
C401	C40	0.804700	0.568400	0.956800
H301	H30	0.846900	0.590600	0.974500
C411	C41	0.737100	0.597900	0.949100
C421	C42	0.674900	0.564200	0.919000
H311	H31	0.629600	0.583800	0.911300
C431	C43	0.680100	0.502300	0.900600
H321	H32	0.638700	0.479400	0.882000
C441	C44	0.730800	0.664100	0.976000
C451	C45	0.746600	0.244300	0.727600
C461	C46	0.758800	0.224500	0.841900
C471	C47	0.698900	0.208200	0.903400
H331	H33	0.651600	0.208600	0.874500
C481	C48	0.708200	0.191500	0.005900
H341	H34	0.667500	0.182200	0.047800
C491	C49	0.778900	0.188400	0.047000
C501	C50	0.839700	0.204500	0.985200
H351	H35	0.887300	0.201800	0.012700
C511	C51	0.829100	0.224600	0.883000
H361	H36	0.868900	0.237900	0.842500
C521	C52	0.784000	0.079600	0.156600
C531	C53	0.715700	0.051900	0.168000
H371	H37	0.674800	0.074700	0.189300
C541	C54	0.709100	0.989700	0.147100
H381	H38	0.663500	0.970500	0.155100
C551	C55	0.768900	0.956300	0.115000
C561	C56	0.837900	0.983900	0.106700
H391	H39	0.879500	0.961300	0.088000
C571	C57	0.842700	0.047100	0.127500
H401	H40	0.888200	0.066700	0.120700
C581	C58	0.762300	0.888200	0.088900
C591	C59	0.493900	0.242600	0.498000
C601	C60	0.469200	0.185300	0.629000
Co51	Co5	0.838380	0.771320	0.032950
Co61	Co6	0.674690	0.777890	0.026500
S51	S5	0.745300	0.893650	0.393400
S61	S6	0.708620	0.660030	0.676600
N111	N11	0.943800	0.741900	0.052900
N121	N12	0.062900	0.709800	0.041800
N131	N13	0.960400	0.701600	0.135700
N141	N14	0.014500	0.771900	0.904500
H411	H41	0.977900	0.791600	0.877300
H421	H42	0.056300	0.770700	0.872300
N151	N15	0.065300	0.648600	0.196900
H431	H43	0.041700	0.633600	0.249900
H441	H44	0.111300	0.639800	0.187800
O251	O25	0.710600	0.190700	0.502800
O261	O26	0.678900	0.359100	0.574200
O271	O27	0.844900	0.795900	0.876800
O281	O28	0.819300	0.748000	0.193700
O291	O29	0.722700	0.805000	0.893700
O301	O30	0.695200	0.753300	0.175100
O311	O31	0.831700	0.189500	0.472200
O321	O32	0.802600	0.367900	0.579600
O331	O33	0.671800	0.878800	0.359800
O341	O34	0.806200	0.873700	0.331300
O351	O35	0.633400	0.673500	0.708800
O361	O36	0.769400	0.680100	0.740300
C611	C61	0.780800	0.807400	0.841200
C621	C62	0.773400	0.825300	0.728000
C631	C63	0.703900	0.839300	0.688800
H451	H45	0.662600	0.835700	0.732000
C641	C64	0.695700	0.858700	0.584900
H461	H46	0.649200	0.867800	0.557900
C651	C65	0.756400	0.864100	0.524300
C661	C66	0.825600	0.850100	0.558100
H471	H47	0.866100	0.853300	0.513100
C671	C67	0.834300	0.830300	0.663600
H481	H48	0.881100	0.820800	0.689300
C681	C68	0.752400	0.975600	0.410400
C691	C69	0.690600	0.006400	0.438500
H491	H49	0.645700	0.985900	0.445200
C701	C70	0.695300	0.068400	0.456800
H501	H50	0.653100	0.090600	0.474500
C711	C71	0.762900	0.097900	0.449100
C721	C72	0.825100	0.064200	0.419000
H511	H51	0.870400	0.083800	0.411300
C731	C73	0.819900	0.002300	0.400600
H521	H52	0.861300	0.979400	0.382000
C741	C74	0.769200	0.164100	0.476000
C751	C75	0.753400	0.744300	0.227600
C761	C76	0.741200	0.724500	0.341900
C771	C77	0.801100	0.708200	0.403400
H531	H53	0.848400	0.708600	0.374500
C781	C78	0.791800	0.691500	0.505900
H541	H54	0.832500	0.682200	0.547800
C791	C79	0.721100	0.688400	0.547000
C801	C80	0.660300	0.704500	0.485200
H551	H55	0.612700	0.701800	0.512700
C811	C81	0.670900	0.724600	0.383000
H561	H56	0.631100	0.737900	0.342500
C821	C82	0.716000	0.579600	0.656600
C831	C83	0.784300	0.551900	0.668000
H571	H57	0.825200	0.574700	0.689300
C841	C84	0.790900	0.489700	0.647100
H581	H58	0.836500	0.470500	0.655100
C851	C85	0.731100	0.456300	0.615000
C861	C86	0.662100	0.483900	0.606700
H591	H59	0.620500	0.461300	0.588000
C871	C87	0.657300	0.547100	0.627500
H601	H60	0.611800	0.566700	0.620700
C881	C88	0.737700	0.388200	0.588900
C891	C89	0.006100	0.742600	0.998000
C901	C90	0.030800	0.685300	0.129000
Co71	Co7	0.161620	0.228680	0.532950
Co81	Co8	0.325310	0.222110	0.526500
S71	S7	0.254700	0.106350	0.893400
S81	S8	0.291380	0.339970	0.176600
N161	N16	0.056200	0.258100	0.552900
N171	N17	0.937100	0.290200	0.541800
N181	N18	0.039600	0.298400	0.635700
N191	N19	0.985500	0.228100	0.404500
H611	H61	0.022100	0.208400	0.377300
H621	H62	0.943700	0.229300	0.372300
N201	N20	0.934700	0.351400	0.696900
H631	H63	0.958300	0.366400	0.749900
H641	H64	0.888700	0.360200	0.687800
O371	O37	0.289400	0.809300	0.002800
O381	O38	0.321100	0.640900	0.074200
O391	O39	0.155100	0.204100	0.376800
O401	O40	0.180700	0.252000	0.693700
O411	O41	0.277300	0.195000	0.393700
O421	O42	0.304800	0.246700	0.675100
O431	O43	0.168300	0.810500	0.972200
O441	O44	0.197400	0.632100	0.079600
O451	O45	0.328200	0.121200	0.859800
O461	O46	0.193800	0.126300	0.831300
O471	O47	0.366600	0.326500	0.208800
O481	O48	0.230600	0.319900	0.240300
C911	C91	0.219200	0.192600	0.341200
C921	C92	0.226600	0.174700	0.228000
C931	C93	0.296100	0.160700	0.188800
H651	H65	0.337400	0.164300	0.232000
C941	C94	0.304300	0.141300	0.084900
H661	H66	0.350800	0.132200	0.057900
C951	C95	0.243600	0.135900	0.024300
C961	C96	0.174400	0.149900	0.058100
H671	H67	0.133900	0.146700	0.013100
C971	C97	0.165700	0.169700	0.163600
H681	H68	0.118900	0.179200	0.189300
C981	C98	0.247600	0.024400	0.910400
C991	C99	0.309400	0.993600	0.938500
H691	H69	0.354300	0.014100	0.945200
C1001	C100	0.304700	0.931600	0.956800
H701	H70	0.346900	0.909400	0.974500
C1011	C101	0.237100	0.902100	0.949100
C1021	C102	0.174900	0.935800	0.919000
H711	H71	0.129600	0.916200	0.911300
C1031	C103	0.180100	0.997700	0.900600
H721	H72	0.138700	0.020600	0.882000
C1041	C104	0.230800	0.835900	0.976000
C1051	C105	0.246600	0.255700	0.727600
C1061	C106	0.258800	0.275500	0.841900
C1071	C107	0.198900	0.291800	0.903400
H731	H73	0.151600	0.291400	0.874500
C1081	C108	0.208200	0.308500	0.005900
H741	H74	0.167500	0.317800	0.047800
C1091	C109	0.278900	0.311600	0.047000
C1101	C110	0.339700	0.295500	0.985200
H751	H75	0.387300	0.298200	0.012700
C1111	C111	0.329100	0.275400	0.883000
H761	H76	0.368900	0.262100	0.842500
C1121	C112	0.284000	0.420400	0.156600
C1131	C113	0.215700	0.448100	0.168000
H771	H77	0.174800	0.425300	0.189300
C1141	C114	0.209100	0.510300	0.147100
H781	H78	0.163500	0.529500	0.155100
C1151	C115	0.268900	0.543700	0.115000
C1161	C116	0.337900	0.516100	0.106700
H791	H79	0.379500	0.538700	0.088000
C1171	C117	0.342700	0.452900	0.127500
H801	H80	0.388200	0.433300	0.120700
C1181	C118	0.262300	0.611800	0.088900
C1191	C119	0.993900	0.257400	0.498000
C1201	C120	0.969200	0.314700	0.629000
