data_IBAPEJ_clean_PM
_symmetry_space_group_name_H-M	'P1'
_cell_length_a	6.863600
_cell_length_b	11.979000
_cell_length_c	13.651000
_cell_angle_alpha	90.000000
_cell_angle_beta	99.650000
_cell_angle_gamma	90.000000
_symmetry_Int_Tables_number 1

loop_
_symmetry_equiv_pos_as_xyz
'x,y,z'

loop_
_atom_site_label
_atom_site_type_symbol
_atom_site_fract_x
_atom_site_fract_y
_atom_site_fract_z
La11	La1	0.940720	0.830390	0.242160
C11	C1	0.464600	0.876000	0.105600
C21	C2	0.315000	0.900400	0.027100
H11	H1	0.198400	0.933900	0.038100
C31	C3	0.343400	0.873400	0.931500
C41	C4	0.520000	0.823500	0.917600
H21	H2	0.539000	0.800800	0.854800
C51	C5	0.667100	0.808500	0.999700
C61	C6	0.872200	0.763100	0.993300
C71	C7	0.448000	0.897100	0.212800
C81	C8	0.185800	0.898800	0.842600
N11	N1	0.640500	0.834300	0.092100
O11	O1	0.607100	0.901900	0.273900
O21	O2	0.278900	0.909200	0.234000
O31	O3	0.988600	0.752400	0.074400
O41	O4	0.911800	0.741600	0.909700
O51	O5	0.170700	0.831100	0.771600
O61	O6	0.083300	0.984800	0.847000
La21	La2	0.059280	0.330390	0.257840
C91	C9	0.535400	0.376000	0.394400
C101	C10	0.685000	0.400400	0.472900
H31	H3	0.801600	0.433900	0.461900
C111	C11	0.656600	0.373400	0.568500
C121	C12	0.480000	0.323500	0.582400
H41	H4	0.461000	0.300800	0.645200
C131	C13	0.332900	0.308500	0.500300
C141	C14	0.127800	0.263100	0.506700
C151	C15	0.552000	0.397100	0.287200
C161	C16	0.814200	0.398800	0.657400
N21	N2	0.359500	0.334300	0.407900
O71	O7	0.392900	0.401900	0.226100
O81	O8	0.721100	0.409200	0.266000
O91	O9	0.011400	0.252400	0.425600
O101	O10	0.088200	0.241600	0.590300
O111	O11	0.829300	0.331100	0.728400
O121	O12	0.916700	0.484800	0.653000
La31	La3	0.059280	0.169610	0.757840
C171	C17	0.535400	0.124000	0.894400
C181	C18	0.685000	0.099600	0.972900
H51	H5	0.801600	0.066100	0.961900
C191	C19	0.656600	0.126600	0.068500
C201	C20	0.480000	0.176500	0.082400
H61	H6	0.461000	0.199200	0.145200
C211	C21	0.332900	0.191500	0.000300
C221	C22	0.127800	0.236900	0.006700
C231	C23	0.552000	0.102900	0.787200
C241	C24	0.814200	0.101200	0.157400
N31	N3	0.359500	0.165700	0.907900
O131	O13	0.392900	0.098100	0.726100
O141	O14	0.721100	0.090800	0.766000
O151	O15	0.011400	0.247600	0.925600
O161	O16	0.088200	0.258400	0.090300
O171	O17	0.829300	0.168900	0.228400
O181	O18	0.916700	0.015200	0.153000
La41	La4	0.940720	0.669610	0.742160
C251	C25	0.464600	0.624000	0.605600
C261	C26	0.315000	0.599600	0.527100
H71	H7	0.198400	0.566100	0.538100
C271	C27	0.343400	0.626600	0.431500
C281	C28	0.520000	0.676500	0.417600
H81	H8	0.539000	0.699200	0.354800
C291	C29	0.667100	0.691500	0.499700
C301	C30	0.872200	0.736900	0.493300
C311	C31	0.448000	0.602900	0.712800
C321	C32	0.185800	0.601200	0.342600
N41	N4	0.640500	0.665700	0.592100
O191	O19	0.607100	0.598100	0.773900
O201	O20	0.278900	0.590800	0.734000
O211	O21	0.988600	0.747600	0.574400
O221	O22	0.911800	0.758400	0.409700
O231	O23	0.170700	0.668900	0.271600
O241	O24	0.083300	0.515200	0.347000
