data_IBICED_clean_PM
_symmetry_space_group_name_H-M	'P1'
_cell_length_a	10.479600
_cell_length_b	17.768000
_cell_length_c	17.768000
_cell_angle_alpha	120.000000
_cell_angle_beta	90.000000
_cell_angle_gamma	90.000000
_symmetry_Int_Tables_number 1

loop_
_symmetry_equiv_pos_as_xyz
'x,y,z'

loop_
_atom_site_label
_atom_site_type_symbol
_atom_site_fract_x
_atom_site_fract_y
_atom_site_fract_z
Zn11	Zn1	0.737150	0.472210	0.542930
Zn21	Zn2	0.403820	0.070720	0.527790
Zn31	Zn3	0.070480	0.457070	0.929280
Zn41	Zn4	0.237150	0.527790	0.457070
Zn51	Zn5	0.903820	0.929280	0.472210
Zn61	Zn6	0.570480	0.542930	0.070720
H11	H1	0.829200	0.554900	0.475300
H21	H2	0.623300	0.624800	0.470900
H31	H3	0.598200	0.520800	0.325000
H41	H4	0.757200	0.408500	0.260500
H51	H5	0.647600	0.393300	0.311600
H61	H6	0.782100	0.425000	0.354600
H71	H7	0.857900	0.568200	0.351500
H81	H8	0.750500	0.635700	0.366400
H91	H9	0.773000	0.555600	0.273400
H101	H10	0.701800	0.897300	0.573200
H111	H11	0.021700	0.776800	0.472400
H121	H12	0.645800	0.793800	0.612100
H131	H13	0.981100	0.677800	0.516300
H141	H14	0.694900	0.669400	0.620200
H151	H15	0.840100	0.649700	0.622400
H161	H16	0.495870	0.920400	0.445100
H171	H17	0.289970	0.846100	0.375200
H181	H18	0.264870	0.804200	0.479200
H191	H19	0.423870	0.852000	0.591500
H201	H20	0.314270	0.918300	0.606700
H211	H21	0.448770	0.929600	0.575000
H221	H22	0.524570	0.783300	0.431800
H231	H23	0.417170	0.730700	0.364300
H241	H24	0.439670	0.717800	0.444400
H251	H25	0.368470	0.675900	0.102700
H261	H26	0.688370	0.695600	0.223200
H271	H27	0.312470	0.818300	0.206200
H281	H28	0.647770	0.838500	0.322200
H291	H29	0.361570	0.950800	0.330600
H301	H30	0.506770	0.972700	0.350300
H311	H31	0.162530	0.524700	0.079600
H321	H32	0.956630	0.529100	0.153900
H331	H33	0.931530	0.675000	0.195800
H341	H34	0.090530	0.739500	0.148000
H351	H35	0.980930	0.688400	0.081700
H361	H36	0.115430	0.645400	0.070400
H371	H37	0.191230	0.648500	0.216700
H381	H38	0.083830	0.633600	0.269300
H391	H39	0.106330	0.726600	0.282200
H401	H40	0.035130	0.426800	0.324100
H411	H41	0.355030	0.527600	0.304400
H421	H42	0.979130	0.387900	0.181700
H431	H43	0.314430	0.483700	0.161500
H441	H44	0.028230	0.379800	0.049200
H451	H45	0.173430	0.377600	0.027300
H461	H46	0.329200	0.445100	0.524700
H471	H47	0.123300	0.375200	0.529100
H481	H48	0.098200	0.479200	0.675000
H491	H49	0.257200	0.591500	0.739500
H501	H50	0.147600	0.606700	0.688400
H511	H51	0.282100	0.575000	0.645400
H521	H52	0.357900	0.431800	0.648500
H531	H53	0.250500	0.364300	0.633600
H541	H54	0.273000	0.444400	0.726600
H551	H55	0.201800	0.102700	0.426800
H561	H56	0.521700	0.223200	0.527600
H571	H57	0.145800	0.206200	0.387900
H581	H58	0.481100	0.322200	0.483700
H591	H59	0.194900	0.330600	0.379800
H601	H60	0.340100	0.350300	0.377600
H611	H61	0.995870	0.079600	0.554900
H621	H62	0.789970	0.153900	0.624800
H631	H63	0.764870	0.195800	0.520800
H641	H64	0.923870	0.148000	0.408500
H651	H65	0.814270	0.081700	0.393300
H661	H66	0.948770	0.070400	0.425000
H671	H67	0.024570	0.216700	0.568200
H681	H68	0.917170	0.269300	0.635700
H691	H69	0.939670	0.282200	0.555600
H701	H70	0.868470	0.324100	0.897300
H711	H71	0.188370	0.304400	0.776800
H721	H72	0.812470	0.181700	0.793800
H731	H73	0.147770	0.161500	0.677800
H741	H74	0.861570	0.049200	0.669400
H751	H75	0.006770	0.027300	0.649700
H761	H76	0.662530	0.475300	0.920400
H771	H77	0.456630	0.470900	0.846100
H781	H78	0.431530	0.325000	0.804200
H791	H79	0.590530	0.260500	0.852000
H801	H80	0.480930	0.311600	0.918300
H811	H81	0.615430	0.354600	0.929600
H821	H82	0.691230	0.351500	0.783300
H831	H83	0.583830	0.366400	0.730700
H841	H84	0.606330	0.273400	0.717800
H851	H85	0.535130	0.573200	0.675900
H861	H86	0.855030	0.472400	0.695600
H871	H87	0.479130	0.612100	0.818300
H881	H88	0.814430	0.516300	0.838500
H891	H89	0.528230	0.620200	0.950800
H901	H90	0.673430	0.622400	0.972700
C11	C1	0.531000	0.521000	0.467800
C21	C2	0.647100	0.564400	0.451100
C31	C3	0.678000	0.522000	0.354400
C41	C4	0.720000	0.428700	0.316800
C51	C5	0.773900	0.575400	0.334600
C61	C6	0.756800	0.851200	0.559900
C71	C7	0.946200	0.780800	0.501700
C81	C8	0.723300	0.789700	0.584700
C91	C9	0.806800	0.723800	0.567700
C101	C10	0.921400	0.720700	0.526700
C111	C11	0.773400	0.653800	0.586800
C121	C12	0.197670	0.946800	0.479000
C131	C13	0.313770	0.886700	0.435600
C141	C14	0.344670	0.832400	0.478000
C151	C15	0.386670	0.888100	0.571300
C161	C16	0.440570	0.759200	0.424600
C171	C17	0.423470	0.708700	0.148800
C181	C18	0.612870	0.720900	0.219200
C191	C19	0.389970	0.795000	0.210300
C201	C20	0.473470	0.843900	0.276200
C211	C21	0.588070	0.806000	0.279300
C221	C22	0.440070	0.933000	0.346200
C231	C23	0.864330	0.532200	0.053200
C241	C24	0.980430	0.548900	0.113300
C251	C25	0.011330	0.645600	0.167600
C261	C26	0.053330	0.683200	0.111900
C271	C27	0.107230	0.665400	0.240800
C281	C28	0.090130	0.440100	0.291300
C291	C29	0.279530	0.498300	0.279100
C301	C30	0.056630	0.415300	0.205000
C311	C31	0.140130	0.432300	0.156100
C321	C32	0.254730	0.473300	0.194000
C331	C33	0.106730	0.413200	0.067000
C341	C34	0.031000	0.479000	0.532200
C351	C35	0.147100	0.435600	0.548900
C361	C36	0.178000	0.478000	0.645600
C371	C37	0.220000	0.571300	0.683200
C381	C38	0.273900	0.424600	0.665400
C391	C39	0.256800	0.148800	0.440100
C401	C40	0.446200	0.219200	0.498300
C411	C41	0.223300	0.210300	0.415300
C421	C42	0.306800	0.276200	0.432300
C431	C43	0.421400	0.279300	0.473300
C441	C44	0.273400	0.346200	0.413200
C451	C45	0.697670	0.053200	0.521000
C461	C46	0.813770	0.113300	0.564400
C471	C47	0.844670	0.167600	0.522000
C481	C48	0.886670	0.111900	0.428700
C491	C49	0.940570	0.240800	0.575400
C501	C50	0.923470	0.291300	0.851200
C511	C51	0.112870	0.279100	0.780800
C521	C52	0.889970	0.205000	0.789700
C531	C53	0.973470	0.156100	0.723800
C541	C54	0.088070	0.194000	0.720700
C551	C55	0.940070	0.067000	0.653800
C561	C56	0.364330	0.467800	0.946800
C571	C57	0.480430	0.451100	0.886700
C581	C58	0.511330	0.354400	0.832400
C591	C59	0.553330	0.316800	0.888100
C601	C60	0.607230	0.334600	0.759200
C611	C61	0.590130	0.559900	0.708700
C621	C62	0.779530	0.501700	0.720900
C631	C63	0.556630	0.584700	0.795000
C641	C64	0.640130	0.567700	0.843900
C651	C65	0.754730	0.526700	0.806000
C661	C66	0.606730	0.586800	0.933000
Br11	Br1	0.748390	0.320320	0.451830
Br21	Br2	0.415060	0.131510	0.679680
Br31	Br3	0.081720	0.548170	0.868490
Br41	Br4	0.248390	0.679680	0.548170
Br51	Br5	0.915060	0.868490	0.320320
Br61	Br6	0.581720	0.451830	0.131510
N11	N1	0.756500	0.566900	0.507400
N21	N2	0.863900	0.845200	0.518500
N31	N3	0.423170	0.940500	0.433100
N41	N4	0.530570	0.673300	0.154800
N51	N5	0.089830	0.492600	0.059500
N61	N6	0.197230	0.481500	0.326700
N71	N7	0.256500	0.433100	0.492600
N81	N8	0.363900	0.154800	0.481500
N91	N9	0.923170	0.059500	0.566900
N101	N10	0.030570	0.326700	0.845200
N111	N11	0.589830	0.507400	0.940500
N121	N12	0.697230	0.518500	0.673300
O11	O1	0.541100	0.488300	0.515600
O21	O2	0.432300	0.520700	0.428000
O31	O3	0.207770	0.027300	0.511700
O41	O4	0.098970	0.907300	0.479300
O51	O5	0.874430	0.484400	0.972700
O61	O6	0.765630	0.572000	0.092700
O71	O7	0.041100	0.511700	0.484400
O81	O8	0.932300	0.479300	0.572000
O91	O9	0.707770	0.972700	0.488300
O101	O10	0.598970	0.092700	0.520700
O111	O11	0.374430	0.515600	0.027300
O121	O12	0.265630	0.428000	0.907300
