data_IBICON_clean_PM
_symmetry_space_group_name_H-M	'P1'
_cell_length_a	10.486800
_cell_length_b	17.778600
_cell_length_c	17.778600
_cell_angle_alpha	120.000000
_cell_angle_beta	90.000000
_cell_angle_gamma	90.000000
_symmetry_Int_Tables_number 1

loop_
_symmetry_equiv_pos_as_xyz
'x,y,z'

loop_
_atom_site_label
_atom_site_type_symbol
_atom_site_fract_x
_atom_site_fract_y
_atom_site_fract_z
Zn11	Zn1	0.922760	0.929570	0.472190
Zn21	Zn2	0.256090	0.542620	0.070430
Zn31	Zn3	0.589430	0.527810	0.457380
Zn41	Zn4	0.422760	0.070430	0.527810
Zn51	Zn5	0.756090	0.457380	0.929570
Zn61	Zn6	0.089430	0.472190	0.542620
H11	H1	0.831000	0.079600	0.553700
H21	H2	0.636300	0.302000	0.778900
H31	H3	0.957300	0.323600	0.896600
H41	H4	0.012200	0.182000	0.794600
H51	H5	0.679900	0.163600	0.677300
H61	H6	0.962700	0.048000	0.668800
H71	H7	0.817500	0.026900	0.648600
H81	H8	0.035400	0.153300	0.625600
H91	H9	0.062300	0.196300	0.521700
H101	H10	0.864900	0.080400	0.426700
H111	H11	0.007700	0.070100	0.397000
H121	H12	0.925400	0.146600	0.403100
H131	H13	0.873500	0.274000	0.547100
H141	H14	0.921800	0.278000	0.632500
H151	H15	0.808800	0.216200	0.579900
H161	H16	0.164330	0.474100	0.920400
H171	H17	0.969630	0.476900	0.698000
H181	H18	0.290630	0.573000	0.676400
H191	H19	0.345530	0.612600	0.818000
H201	H20	0.013230	0.513700	0.836400
H211	H21	0.296030	0.620800	0.952000
H221	H22	0.150830	0.621700	0.973100
H231	H23	0.368730	0.472300	0.846700
H241	H24	0.395630	0.325400	0.803700
H251	H25	0.198230	0.346300	0.919600
H261	H26	0.341030	0.326900	0.929900
H271	H27	0.258730	0.256500	0.853400
H281	H28	0.206830	0.273100	0.726000
H291	H29	0.255130	0.354500	0.722000
H301	H30	0.142130	0.363700	0.783800
H311	H31	0.497670	0.446300	0.525900
H321	H32	0.302970	0.221100	0.523100
H331	H33	0.623970	0.103400	0.427000
H341	H34	0.678870	0.205400	0.387400
H351	H35	0.346570	0.322700	0.486300
H361	H36	0.629370	0.331200	0.379200
H371	H37	0.484170	0.351400	0.378300
H381	H38	0.702070	0.374400	0.527700
H391	H39	0.728970	0.478300	0.674600
H401	H40	0.531570	0.573300	0.653700
H411	H41	0.674370	0.603000	0.673100
H421	H42	0.592070	0.596900	0.743500
H431	H43	0.540170	0.452900	0.726900
H441	H44	0.588470	0.367500	0.645500
H451	H45	0.475470	0.420100	0.636300
H461	H46	0.331000	0.920400	0.446300
H471	H47	0.136300	0.698000	0.221100
H481	H48	0.457300	0.676400	0.103400
H491	H49	0.512200	0.818000	0.205400
H501	H50	0.179900	0.836400	0.322700
H511	H51	0.462700	0.952000	0.331200
H521	H52	0.317500	0.973100	0.351400
H531	H53	0.535400	0.846700	0.374400
H541	H54	0.562300	0.803700	0.478300
H551	H55	0.364900	0.919600	0.573300
H561	H56	0.507700	0.929900	0.603000
H571	H57	0.425400	0.853400	0.596900
H581	H58	0.373500	0.726000	0.452900
H591	H59	0.421800	0.722000	0.367500
H601	H60	0.308800	0.783800	0.420100
H611	H61	0.664330	0.525900	0.079600
H621	H62	0.469630	0.523100	0.302000
H631	H63	0.790630	0.427000	0.323600
H641	H64	0.845530	0.387400	0.182000
H651	H65	0.513230	0.486300	0.163600
H661	H66	0.796030	0.379200	0.048000
H671	H67	0.650830	0.378300	0.026900
H681	H68	0.868730	0.527700	0.153300
H691	H69	0.895630	0.674600	0.196300
H701	H70	0.698230	0.653700	0.080400
H711	H71	0.841030	0.673100	0.070100
H721	H72	0.758730	0.743500	0.146600
H731	H73	0.706830	0.726900	0.274000
H741	H74	0.755130	0.645500	0.278000
H751	H75	0.642130	0.636300	0.216200
H761	H76	0.997670	0.553700	0.474100
H771	H77	0.802970	0.778900	0.476900
H781	H78	0.123970	0.896600	0.573000
H791	H79	0.178870	0.794600	0.612600
H801	H80	0.846570	0.677300	0.513700
H811	H81	0.129370	0.668800	0.620800
H821	H82	0.984170	0.648600	0.621700
H831	H83	0.202070	0.625600	0.472300
H841	H84	0.228970	0.521700	0.325400
H851	H85	0.031570	0.426700	0.346300
H861	H86	0.174370	0.397000	0.326900
H871	H87	0.092070	0.403100	0.256500
H881	H88	0.040170	0.547100	0.273100
H891	H89	0.088470	0.632500	0.354500
H901	H90	0.975470	0.579900	0.363700
C11	C1	0.713800	0.277900	0.781500
C21	C2	0.902000	0.291200	0.850700
C31	C3	0.935100	0.205400	0.790100
C41	C4	0.851600	0.156700	0.724100
C51	C5	0.738800	0.195100	0.721100
C61	C6	0.884900	0.066300	0.653100
C71	C7	0.128800	0.052700	0.521800
C81	C8	0.012400	0.113000	0.564900
C91	C9	0.982300	0.168300	0.522700
C101	C10	0.941300	0.111100	0.428700
C111	C11	0.887900	0.240800	0.575400
C121	C12	0.047130	0.503600	0.722100
C131	C13	0.235330	0.559500	0.708800
C141	C14	0.268430	0.584700	0.794600
C151	C15	0.184930	0.567400	0.843300
C161	C16	0.072130	0.526000	0.804900
C171	C17	0.218230	0.586800	0.933700
C181	C18	0.462130	0.469100	0.947300
C191	C19	0.345730	0.451900	0.887000
C201	C20	0.315630	0.354400	0.831700
C211	C21	0.274630	0.317600	0.888900
C221	C22	0.221230	0.334600	0.759200
C231	C23	0.380470	0.218500	0.496400
C241	C24	0.568670	0.149300	0.440500
C251	C25	0.601770	0.209900	0.415300
C261	C26	0.518270	0.275900	0.432600
C271	C27	0.405470	0.278900	0.474000
C281	C28	0.551570	0.346900	0.413200
C291	C29	0.795470	0.478200	0.530900
C301	C30	0.679070	0.435100	0.548100
C311	C31	0.648970	0.477300	0.645600
C321	C32	0.607970	0.571300	0.682400
C331	C33	0.554570	0.424600	0.665400
C341	C34	0.213800	0.722100	0.218500
C351	C35	0.402000	0.708800	0.149300
C361	C36	0.435100	0.794600	0.209900
C371	C37	0.351600	0.843300	0.275900
C381	C38	0.238800	0.804900	0.278900
C391	C39	0.384900	0.933700	0.346900
C401	C40	0.628800	0.947300	0.478200
C411	C41	0.512400	0.887000	0.435100
C421	C42	0.482300	0.831700	0.477300
C431	C43	0.441300	0.888900	0.571300
C441	C44	0.387900	0.759200	0.424600
C451	C45	0.547130	0.496400	0.277900
C461	C46	0.735330	0.440500	0.291200
C471	C47	0.768430	0.415300	0.205400
C481	C48	0.684930	0.432600	0.156700
C491	C49	0.572130	0.474000	0.195100
C501	C50	0.718230	0.413200	0.066300
C511	C51	0.962130	0.530900	0.052700
C521	C52	0.845730	0.548100	0.113000
C531	C53	0.815630	0.645600	0.168300
C541	C54	0.774630	0.682400	0.111100
C551	C55	0.721230	0.665400	0.240800
C561	C56	0.880470	0.781500	0.503600
C571	C57	0.068670	0.850700	0.559500
C581	C58	0.101770	0.790100	0.584700
C591	C59	0.018270	0.724100	0.567400
C601	C60	0.905470	0.721100	0.526000
C611	C61	0.051570	0.653100	0.586800
C621	C62	0.295470	0.521800	0.469100
C631	C63	0.179070	0.564900	0.451900
C641	C64	0.148970	0.522700	0.354400
C651	C65	0.107970	0.428700	0.317600
C661	C66	0.054570	0.575400	0.334600
Br11	Br1	0.912310	0.868740	0.320530
Br21	Br2	0.245640	0.451790	0.131260
Br31	Br3	0.578980	0.679470	0.548210
Br41	Br4	0.412310	0.131260	0.679470
Br51	Br5	0.745640	0.548210	0.868740
Br61	Br6	0.078980	0.320530	0.451790
N11	N1	0.796200	0.327500	0.845300
N21	N2	0.903100	0.059400	0.566000
N31	N3	0.129530	0.517800	0.672500
N41	N4	0.236430	0.506600	0.940600
N51	N5	0.462870	0.154700	0.482200
N61	N6	0.569770	0.434000	0.493400
N71	N7	0.296200	0.672500	0.154700
N81	N8	0.403100	0.940600	0.434000
N91	N9	0.629530	0.482200	0.327500
N101	N10	0.736430	0.493400	0.059400
N111	N11	0.962870	0.845300	0.517800
N121	N12	0.069770	0.566000	0.506600
O11	O1	0.118000	0.973700	0.488800
O21	O2	0.228000	0.092100	0.522000
O31	O3	0.451330	0.515100	0.026300
O41	O4	0.561330	0.429900	0.907900
O51	O5	0.784670	0.511200	0.484900
O61	O6	0.894670	0.478000	0.570100
O71	O7	0.618000	0.026300	0.511200
O81	O8	0.728000	0.907900	0.478000
O91	O9	0.951330	0.484900	0.973700
O101	O10	0.061330	0.570100	0.092100
O111	O11	0.284670	0.488800	0.515100
O121	O12	0.394670	0.522000	0.429900
