data_IBOTAU_clean_PM
_symmetry_space_group_name_H-M	'P1'
_cell_length_a	13.608600
_cell_length_b	13.608600
_cell_length_c	15.277700
_cell_angle_alpha	90.000000
_cell_angle_beta	90.000000
_cell_angle_gamma	120.000000
_symmetry_Int_Tables_number 1

loop_
_symmetry_equiv_pos_as_xyz
'x,y,z'

loop_
_atom_site_label
_atom_site_type_symbol
_atom_site_fract_x
_atom_site_fract_y
_atom_site_fract_z
Zn11	Zn1	0.971960	0.215470	0.089910
P11	P1	0.773250	0.979870	0.106480
O11	O1	0.705300	0.615600	0.149000
O21	O2	0.117800	0.256700	0.136400
O31	O3	0.975700	0.273300	0.971900
O41	O4	0.900200	0.047200	0.079000
Zn21	Zn2	0.638630	0.548800	0.423240
P21	P2	0.439920	0.313200	0.439810
O51	O5	0.371970	0.948930	0.482330
O61	O6	0.784470	0.590030	0.469730
O71	O7	0.642370	0.606630	0.305230
O81	O8	0.566870	0.380530	0.412330
Zn31	Zn3	0.305290	0.882140	0.756580
P31	P3	0.106580	0.646540	0.773150
O91	O9	0.038630	0.282270	0.815670
O101	O10	0.451130	0.923370	0.803070
O111	O11	0.309030	0.939970	0.638570
O121	O12	0.233530	0.713870	0.745670
Zn41	Zn4	0.784530	0.756490	0.089910
P41	P4	0.020130	0.793380	0.106480
O131	O13	0.384400	0.089700	0.149000
O141	O14	0.743300	0.861100	0.136400
O151	O15	0.726700	0.702400	0.971900
O161	O16	0.952800	0.853000	0.079000
Zn51	Zn5	0.451200	0.089820	0.423240
P51	P5	0.686800	0.126710	0.439810
O171	O17	0.051070	0.423030	0.482330
O181	O18	0.409970	0.194430	0.469730
O191	O19	0.393370	0.035730	0.305230
O201	O20	0.619470	0.186330	0.412330
Zn61	Zn6	0.117860	0.423160	0.756580
P61	P6	0.353460	0.460050	0.773150
O211	O21	0.717730	0.756370	0.815670
O221	O22	0.076630	0.527770	0.803070
O231	O23	0.060030	0.369070	0.638570
O241	O24	0.286130	0.519670	0.745670
Zn71	Zn7	0.243510	0.028040	0.089910
P71	P7	0.206620	0.226750	0.106480
O251	O25	0.910300	0.294700	0.149000
O261	O26	0.138900	0.882200	0.136400
O271	O27	0.297600	0.024300	0.971900
O281	O28	0.147000	0.099800	0.079000
Zn81	Zn8	0.910180	0.361370	0.423240
P81	P8	0.873290	0.560080	0.439810
O291	O29	0.576970	0.628030	0.482330
O301	O30	0.805570	0.215530	0.469730
O311	O31	0.964270	0.357630	0.305230
O321	O32	0.813670	0.433130	0.412330
Zn91	Zn9	0.576840	0.694710	0.756580
P91	P9	0.539950	0.893420	0.773150
O331	O33	0.243630	0.961370	0.815670
O341	O34	0.472230	0.548870	0.803070
O351	O35	0.630930	0.690970	0.638570
O361	O36	0.480330	0.766470	0.745670
Zn101	Zn10	0.028040	0.784530	0.910090
P101	P10	0.226750	0.020130	0.893520
O371	O37	0.294700	0.384400	0.851000
O381	O38	0.882200	0.743300	0.863600
O391	O39	0.024300	0.726700	0.028100
O401	O40	0.099800	0.952800	0.921000
Zn111	Zn11	0.694710	0.117860	0.243420
P111	P11	0.893420	0.353460	0.226850
O411	O41	0.961370	0.717730	0.184330
O421	O42	0.548870	0.076630	0.196930
O431	O43	0.690970	0.060030	0.361430
O441	O44	0.766470	0.286130	0.254330
Zn121	Zn12	0.361370	0.451200	0.576760
P121	P12	0.560080	0.686800	0.560190
O451	O45	0.628030	0.051070	0.517670
O461	O46	0.215530	0.409970	0.530270
O471	O47	0.357630	0.393370	0.694770
O481	O48	0.433130	0.619470	0.587670
Zn131	Zn13	0.215470	0.243510	0.910090
P131	P13	0.979870	0.206620	0.893520
O491	O49	0.615600	0.910300	0.851000
O501	O50	0.256700	0.138900	0.863600
O511	O51	0.273300	0.297600	0.028100
O521	O52	0.047200	0.147000	0.921000
Zn141	Zn14	0.882140	0.576840	0.243420
P141	P14	0.646540	0.539950	0.226850
O531	O53	0.282270	0.243630	0.184330
O541	O54	0.923370	0.472230	0.196930
O551	O55	0.939970	0.630930	0.361430
O561	O56	0.713870	0.480330	0.254330
Zn151	Zn15	0.548800	0.910180	0.576760
P151	P15	0.313200	0.873290	0.560190
O571	O57	0.948930	0.576970	0.517670
O581	O58	0.590030	0.805570	0.530270
O591	O59	0.606630	0.964270	0.694770
O601	O60	0.380530	0.813670	0.587670
Zn161	Zn16	0.756490	0.971960	0.910090
P161	P16	0.793380	0.773250	0.893520
O611	O61	0.089700	0.705300	0.851000
O621	O62	0.861100	0.117800	0.863600
O631	O63	0.702400	0.975700	0.028100
O641	O64	0.853000	0.900200	0.921000
Zn171	Zn17	0.423160	0.305290	0.243420
P171	P17	0.460050	0.106580	0.226850
O651	O65	0.756370	0.038630	0.184330
O661	O66	0.527770	0.451130	0.196930
O671	O67	0.369070	0.309030	0.361430
O681	O68	0.519670	0.233530	0.254330
Zn181	Zn18	0.089820	0.638630	0.576760
P181	P18	0.126710	0.439920	0.560190
O691	O69	0.423030	0.371970	0.517670
O701	O70	0.194430	0.784470	0.530270
O711	O71	0.035730	0.642370	0.694770
O721	O72	0.186330	0.566870	0.587670
Zn191	Zn19	0.000000	0.000000	0.000000
Zn201	Zn20	0.666670	0.333330	0.333330
Zn211	Zn21	0.333330	0.666670	0.666670
