data_IBOTEY_clean_PM
_symmetry_space_group_name_H-M	'P1'
_cell_length_a	25.997000
_cell_length_b	25.997000
_cell_length_c	26.784700
_cell_angle_alpha	90.000000
_cell_angle_beta	90.000000
_cell_angle_gamma	90.000000
_symmetry_Int_Tables_number 1

loop_
_symmetry_equiv_pos_as_xyz
'x,y,z'

loop_
_atom_site_label
_atom_site_type_symbol
_atom_site_fract_x
_atom_site_fract_y
_atom_site_fract_z
La11	La1	0.751060	0.740730	0.082730
O11	O1	0.789400	0.307800	0.190400
O21	O2	0.718000	0.168700	0.202700
O31	O3	0.828000	0.203400	0.198800
O41	O4	0.685400	0.276200	0.203500
O51	O5	0.827800	0.779200	0.045500
O61	O6	0.779400	0.806500	0.140600
O71	O7	0.688800	0.712700	0.018900
O81	O8	0.792300	0.671900	0.027600
O91	O9	0.326000	0.230100	0.128300
O101	O10	0.720900	0.814400	0.035600
O111	O11	0.184000	0.296800	0.141100
O121	O12	0.707900	0.661200	0.118300
N11	N1	0.774800	0.356690	0.187920
C11	C1	0.738350	0.367520	0.154780
H11	H1	0.721400	0.340300	0.137700
C21	C2	0.724810	0.417770	0.144990
H21	H2	0.698700	0.424800	0.121100
C31	C3	0.748380	0.457800	0.169150
C41	C4	0.786100	0.444880	0.203100
H31	H3	0.803700	0.471400	0.220500
C51	C5	0.798900	0.394290	0.212330
H41	H4	0.824800	0.386300	0.236100
N21	N2	0.725200	0.117400	0.198900
C61	C6	0.693400	0.082050	0.217300
H51	H5	0.666500	0.091900	0.239300
C71	C7	0.699600	0.031000	0.204300
H61	H6	0.674600	0.006600	0.214700
C81	C8	0.741300	0.014800	0.176800
C91	C9	0.774600	0.052750	0.161800
H71	H7	0.806600	0.043400	0.147200
C101	C10	0.762800	0.104360	0.167300
H81	H8	0.781100	0.129900	0.149200
N31	N3	0.875510	0.214170	0.189300
C111	C11	0.886930	0.254800	0.161000
H91	H9	0.860300	0.276200	0.148200
C121	C12	0.937830	0.265600	0.150300
H101	H10	0.945800	0.290300	0.125300
C131	C13	0.977300	0.241100	0.175100
C141	C14	0.963850	0.200000	0.204700
H111	H11	0.989800	0.180900	0.221400
C151	C15	0.912780	0.186300	0.210100
H121	H12	0.904100	0.156600	0.229000
N41	N4	0.635400	0.266800	0.188500
C161	C16	0.601560	0.300400	0.206800
H131	H13	0.612700	0.328100	0.227300
C171	C17	0.549930	0.294400	0.195600
H141	H14	0.525400	0.316900	0.210300
C181	C18	0.533500	0.256600	0.163500
C191	C19	0.569970	0.222600	0.147300
H151	H15	0.559500	0.193300	0.128700
C201	C20	0.621400	0.229800	0.157100
H161	H16	0.646600	0.208700	0.141600
N51	N5	0.875380	0.771500	0.027600
C211	C21	0.889390	0.732200	0.998800
H171	H17	0.865100	0.706800	0.989000
C221	C22	0.940260	0.729200	0.983300
H181	H18	0.949000	0.707600	0.956000
C231	C23	0.978300	0.756900	0.007100
C241	C24	0.961870	0.794500	0.039800
H191	H19	0.986400	0.817000	0.054500
C251	C25	0.910440	0.800100	0.051300
H201	H20	0.900000	0.824100	0.076100
N61	N6	0.767180	0.856700	0.149800
C261	C26	0.801200	0.890790	0.132800
H211	H21	0.831500	0.879200	0.116300
C271	C27	0.792800	0.942900	0.139000
H221	H22	0.815500	0.966700	0.123500
C281	C28	0.752400	0.961000	0.167200
C291	C29	0.716100	0.924430	0.179600
H231	H23	0.682900	0.935100	0.190100
C301	C30	0.727200	0.872500	0.177000
H241	H24	0.706500	0.848300	0.194500
N71	N7	0.638600	0.724870	0.010400
C311	C31	0.625720	0.766300	0.983900
H251	H25	0.651500	0.787700	0.969800
C321	C32	0.574090	0.777700	0.977100
H261	H26	0.564700	0.805100	0.955500
C331	C33	0.536200	0.750200	0.000900
C341	C34	0.552030	0.710000	0.030400
H271	H27	0.527600	0.692300	0.050500
C351	C35	0.603070	0.695000	0.031500
H281	H28	0.612700	0.663600	0.047000
N81	N8	0.780800	0.621300	0.024100
C361	C36	0.741400	0.607700	0.995200
H291	H29	0.721000	0.633400	0.979600
C371	C37	0.730000	0.556350	0.987700
H301	H30	0.699800	0.547200	0.969800
C381	C38	0.482000	0.761900	0.994200
C391	C39	0.465500	0.802900	0.965900
H311	H31	0.489900	0.827700	0.955000
C401	C40	0.809000	0.585600	0.046900
H321	H32	0.833100	0.595200	0.071900
N91	N9	0.377300	0.235040	0.130500
C411	C41	0.390430	0.276700	0.156300
H331	H33	0.365100	0.300400	0.167300
C421	C42	0.441810	0.284600	0.166500
H341	H34	0.451900	0.315900	0.182000
C431	C43	0.479000	0.248900	0.155100
C441	C44	0.462600	0.206800	0.129000
H351	H35	0.487300	0.183400	0.115900
C451	C45	0.410900	0.197300	0.121400
H361	H36	0.399400	0.164700	0.109800
N101	N10	0.731010	0.864400	0.027100
C461	C46	0.776100	0.877640	0.006800
H371	H37	0.801800	0.852500	0.000400
C471	C47	0.784500	0.928780	0.995300
H381	H38	0.814800	0.938100	0.977600
C481	C48	0.033200	0.750100	0.991100
C491	C49	0.049500	0.703800	0.972000
H391	H39	0.024900	0.677900	0.964500
C501	C50	0.694300	0.898900	0.036500
H401	H40	0.661900	0.888100	0.049000
N111	N11	0.133300	0.281600	0.148700
C511	C51	0.122080	0.244800	0.181700
H411	H41	0.148900	0.227400	0.198800
C521	C52	0.071480	0.231900	0.190800
H421	H42	0.063900	0.205600	0.214300
C531	C53	0.031800	0.256400	0.166400
C541	C54	0.045270	0.295000	0.133700
H431	H43	0.019100	0.315000	0.118200
C551	C55	0.096300	0.305000	0.122900
H441	H44	0.105000	0.328600	0.097100
N121	N12	0.717610	0.614800	0.132600
C561	C56	0.759300	0.603100	0.159300
H451	H45	0.784700	0.628600	0.165700
C571	C57	0.765700	0.554000	0.177600
H461	H46	0.790200	0.547900	0.203200
C581	C58	0.737000	0.513700	0.159600
C591	C59	0.694200	0.527430	0.132400
H471	H47	0.671000	0.501500	0.121800
C601	C60	0.684400	0.578000	0.120200
H481	H48	0.653700	0.586600	0.102900
La21	La2	0.248940	0.259270	0.082730
O131	O13	0.210600	0.692200	0.190400
O141	O14	0.282000	0.831300	0.202700
O151	O15	0.172000	0.796600	0.198800
O161	O16	0.314600	0.723800	0.203500
O171	O17	0.172200	0.220800	0.045500
O181	O18	0.220600	0.193500	0.140600
O191	O19	0.311200	0.287300	0.018900
O201	O20	0.207700	0.328100	0.027600
O211	O21	0.674000	0.769900	0.128300
O221	O22	0.279100	0.185600	0.035600
O231	O23	0.816000	0.703200	0.141100
O241	O24	0.292100	0.338800	0.118300
N131	N13	0.225200	0.643310	0.187920
C611	C61	0.261650	0.632480	0.154780
H491	H49	0.278600	0.659700	0.137700
C621	C62	0.275190	0.582230	0.144990
H501	H50	0.301300	0.575200	0.121100
C631	C63	0.251620	0.542200	0.169150
C641	C64	0.213900	0.555120	0.203100
H511	H51	0.196300	0.528600	0.220500
C651	C65	0.201100	0.605710	0.212330
H521	H52	0.175200	0.613700	0.236100
N141	N14	0.274800	0.882600	0.198900
C661	C66	0.306600	0.917950	0.217300
H531	H53	0.333500	0.908100	0.239300
C671	C67	0.300400	0.969000	0.204300
H541	H54	0.325400	0.993400	0.214700
C681	C68	0.258700	0.985200	0.176800
C691	C69	0.225400	0.947250	0.161800
H551	H55	0.193400	0.956600	0.147200
C701	C70	0.237200	0.895640	0.167300
H561	H56	0.218900	0.870100	0.149200
N151	N15	0.124490	0.785830	0.189300
C711	C71	0.113070	0.745200	0.161000
H571	H57	0.139700	0.723800	0.148200
C721	C72	0.062170	0.734400	0.150300
H581	H58	0.054200	0.709700	0.125300
C731	C73	0.022700	0.758900	0.175100
C741	C74	0.036150	0.800000	0.204700
H591	H59	0.010200	0.819100	0.221400
C751	C75	0.087220	0.813700	0.210100
H601	H60	0.095900	0.843400	0.229000
N161	N16	0.364600	0.733200	0.188500
C761	C76	0.398440	0.699600	0.206800
H611	H61	0.387300	0.671900	0.227300
C771	C77	0.450070	0.705600	0.195600
H621	H62	0.474600	0.683100	0.210300
C781	C78	0.466500	0.743400	0.163500
C791	C79	0.430030	0.777400	0.147300
H631	H63	0.440500	0.806700	0.128700
C801	C80	0.378600	0.770200	0.157100
H641	H64	0.353400	0.791300	0.141600
N171	N17	0.124620	0.228500	0.027600
C811	C81	0.110610	0.267800	0.998800
H651	H65	0.134900	0.293200	0.989000
C821	C82	0.059740	0.270800	0.983300
H661	H66	0.051000	0.292400	0.956000
C831	C83	0.021700	0.243100	0.007100
C841	C84	0.038130	0.205500	0.039800
H671	H67	0.013600	0.183000	0.054500
C851	C85	0.089560	0.199900	0.051300
H681	H68	0.100000	0.175900	0.076100
N181	N18	0.232820	0.143300	0.149800
C861	C86	0.198800	0.109210	0.132800
H691	H69	0.168500	0.120800	0.116300
C871	C87	0.207200	0.057100	0.139000
H701	H70	0.184500	0.033300	0.123500
C881	C88	0.247600	0.039000	0.167200
C891	C89	0.283900	0.075570	0.179600
H711	H71	0.317100	0.064900	0.190100
C901	C90	0.272800	0.127500	0.177000
H721	H72	0.293500	0.151700	0.194500
N191	N19	0.361400	0.275130	0.010400
C911	C91	0.374280	0.233700	0.983900
H731	H73	0.348500	0.212300	0.969800
C921	C92	0.425910	0.222300	0.977100
H741	H74	0.435300	0.194900	0.955500
C931	C93	0.463800	0.249800	0.000900
C941	C94	0.447970	0.290000	0.030400
H751	H75	0.472400	0.307700	0.050500
C951	C95	0.396930	0.305000	0.031500
H761	H76	0.387300	0.336400	0.047000
N201	N20	0.219200	0.378700	0.024100
C961	C96	0.258600	0.392300	0.995200
H771	H77	0.279000	0.366600	0.979600
C971	C97	0.270000	0.443650	0.987700
H781	H78	0.300200	0.452800	0.969800
C981	C98	0.518000	0.238100	0.994200
C991	C99	0.534500	0.197100	0.965900
H791	H79	0.510100	0.172300	0.955000
C1001	C100	0.191000	0.414400	0.046900
H801	H80	0.166900	0.404800	0.071900
N211	N21	0.622700	0.764960	0.130500
C1011	C101	0.609570	0.723300	0.156300
H811	H81	0.634900	0.699600	0.167300
C1021	C102	0.558190	0.715400	0.166500
H821	H82	0.548100	0.684100	0.182000
C1031	C103	0.521000	0.751100	0.155100
C1041	C104	0.537400	0.793200	0.129000
H831	H83	0.512700	0.816600	0.115900
C1051	C105	0.589100	0.802700	0.121400
H841	H84	0.600600	0.835300	0.109800
N221	N22	0.268990	0.135600	0.027100
C1061	C106	0.223900	0.122360	0.006800
H851	H85	0.198200	0.147500	0.000400
C1071	C107	0.215500	0.071220	0.995300
H861	H86	0.185200	0.061900	0.977600
C1081	C108	0.966800	0.249900	0.991100
C1091	C109	0.950500	0.296200	0.972000
H871	H87	0.975100	0.322100	0.964500
C1101	C110	0.305700	0.101100	0.036500
H881	H88	0.338100	0.111900	0.049000
N231	N23	0.866700	0.718400	0.148700
C1111	C111	0.877920	0.755200	0.181700
H891	H89	0.851100	0.772600	0.198800
C1121	C112	0.928520	0.768100	0.190800
H901	H90	0.936100	0.794400	0.214300
C1131	C113	0.968200	0.743600	0.166400
C1141	C114	0.954730	0.705000	0.133700
H911	H91	0.980900	0.685000	0.118200
C1151	C115	0.903700	0.695000	0.122900
H921	H92	0.895000	0.671400	0.097100
N241	N24	0.282390	0.385200	0.132600
C1161	C116	0.240700	0.396900	0.159300
H931	H93	0.215300	0.371400	0.165700
C1171	C117	0.234300	0.446000	0.177600
H941	H94	0.209800	0.452100	0.203200
C1181	C118	0.263000	0.486300	0.159600
C1191	C119	0.305800	0.472570	0.132400
H951	H95	0.329000	0.498500	0.121800
C1201	C120	0.315600	0.422000	0.120200
H961	H96	0.346300	0.413400	0.102900
La31	La3	0.740730	0.248940	0.917270
O251	O25	0.307800	0.210600	0.809600
O261	O26	0.168700	0.282000	0.797300
O271	O27	0.203400	0.172000	0.801200
O281	O28	0.276200	0.314600	0.796500
O291	O29	0.779200	0.172200	0.954500
O301	O30	0.806500	0.220600	0.859400
O311	O31	0.712700	0.311200	0.981100
O321	O32	0.671900	0.207700	0.972400
O331	O33	0.230100	0.674000	0.871700
O341	O34	0.814400	0.279100	0.964400
O351	O35	0.296800	0.816000	0.858900
O361	O36	0.661200	0.292100	0.881700
N251	N25	0.356690	0.225200	0.812080
C1211	C121	0.367520	0.261650	0.845220
H971	H97	0.340300	0.278600	0.862300
C1221	C122	0.417770	0.275190	0.855010
H981	H98	0.424800	0.301300	0.878900
C1231	C123	0.457800	0.251620	0.830850
C1241	C124	0.444880	0.213900	0.796900
H991	H99	0.471400	0.196300	0.779500
C1251	C125	0.394290	0.201100	0.787670
H1001	H100	0.386300	0.175200	0.763900
N261	N26	0.117400	0.274800	0.801100
C1261	C126	0.082050	0.306600	0.782700
H1011	H101	0.091900	0.333500	0.760700
C1271	C127	0.031000	0.300400	0.795700
H1021	H102	0.006600	0.325400	0.785300
C1281	C128	0.014800	0.258700	0.823200
C1291	C129	0.052750	0.225400	0.838200
H1031	H103	0.043400	0.193400	0.852800
C1301	C130	0.104360	0.237200	0.832700
H1041	H104	0.129900	0.218900	0.850800
N271	N27	0.214170	0.124490	0.810700
C1311	C131	0.254800	0.113070	0.839000
H1051	H105	0.276200	0.139700	0.851800
C1321	C132	0.265600	0.062170	0.849700
H1061	H106	0.290300	0.054200	0.874700
C1331	C133	0.241100	0.022700	0.824900
C1341	C134	0.200000	0.036150	0.795300
H1071	H107	0.180900	0.010200	0.778600
C1351	C135	0.186300	0.087220	0.789900
H1081	H108	0.156600	0.095900	0.771000
N281	N28	0.266800	0.364600	0.811500
C1361	C136	0.300400	0.398440	0.793200
H1091	H109	0.328100	0.387300	0.772700
C1371	C137	0.294400	0.450070	0.804400
H1101	H110	0.316900	0.474600	0.789700
C1381	C138	0.256600	0.466500	0.836500
C1391	C139	0.222600	0.430030	0.852700
H1111	H111	0.193300	0.440500	0.871300
C1401	C140	0.229800	0.378600	0.842900
H1121	H112	0.208700	0.353400	0.858400
N291	N29	0.771500	0.124620	0.972400
C1411	C141	0.732200	0.110610	0.001200
H1131	H113	0.706800	0.134900	0.011000
C1421	C142	0.729200	0.059740	0.016700
H1141	H114	0.707600	0.051000	0.044000
C1431	C143	0.756900	0.021700	0.992900
C1441	C144	0.794500	0.038130	0.960200
H1151	H115	0.817000	0.013600	0.945500
C1451	C145	0.800100	0.089560	0.948700
H1161	H116	0.824100	0.100000	0.923900
N301	N30	0.856700	0.232820	0.850200
C1461	C146	0.890790	0.198800	0.867200
H1171	H117	0.879200	0.168500	0.883700
C1471	C147	0.942900	0.207200	0.861000
H1181	H118	0.966700	0.184500	0.876500
C1481	C148	0.961000	0.247600	0.832800
C1491	C149	0.924430	0.283900	0.820400
H1191	H119	0.935100	0.317100	0.809900
C1501	C150	0.872500	0.272800	0.823000
H1201	H120	0.848300	0.293500	0.805500
N311	N31	0.724870	0.361400	0.989600
C1511	C151	0.766300	0.374280	0.016100
H1211	H121	0.787700	0.348500	0.030200
C1521	C152	0.777700	0.425910	0.022900
H1221	H122	0.805100	0.435300	0.044500
C1531	C153	0.750200	0.463800	0.999100
C1541	C154	0.710000	0.447970	0.969600
H1231	H123	0.692300	0.472400	0.949500
C1551	C155	0.695000	0.396930	0.968500
H1241	H124	0.663600	0.387300	0.953000
N321	N32	0.621300	0.219200	0.975900
C1561	C156	0.607700	0.258600	0.004800
H1251	H125	0.633400	0.279000	0.020400
C1571	C157	0.556350	0.270000	0.012300
H1261	H126	0.547200	0.300200	0.030200
C1581	C158	0.761900	0.518000	0.005800
C1591	C159	0.802900	0.534500	0.034100
H1271	H127	0.827700	0.510100	0.045000
C1601	C160	0.585600	0.191000	0.953100
H1281	H128	0.595200	0.166900	0.928100
N331	N33	0.235040	0.622700	0.869500
C1611	C161	0.276700	0.609570	0.843700
H1291	H129	0.300400	0.634900	0.832700
C1621	C162	0.284600	0.558190	0.833500
H1301	H130	0.315900	0.548100	0.818000
C1631	C163	0.248900	0.521000	0.844900
C1641	C164	0.206800	0.537400	0.871000
H1311	H131	0.183400	0.512700	0.884100
C1651	C165	0.197300	0.589100	0.878600
H1321	H132	0.164700	0.600600	0.890200
N341	N34	0.864400	0.268990	0.972900
C1661	C166	0.877640	0.223900	0.993200
H1331	H133	0.852500	0.198200	0.999600
C1671	C167	0.928780	0.215500	0.004700
H1341	H134	0.938100	0.185200	0.022400
C1681	C168	0.750100	0.966800	0.008900
C1691	C169	0.703800	0.950500	0.028000
H1351	H135	0.677900	0.975100	0.035500
C1701	C170	0.898900	0.305700	0.963500
H1361	H136	0.888100	0.338100	0.951000
N351	N35	0.281600	0.866700	0.851300
C1711	C171	0.244800	0.877920	0.818300
H1371	H137	0.227400	0.851100	0.801200
C1721	C172	0.231900	0.928520	0.809200
H1381	H138	0.205600	0.936100	0.785700
C1731	C173	0.256400	0.968200	0.833600
C1741	C174	0.295000	0.954730	0.866300
H1391	H139	0.315000	0.980900	0.881800
C1751	C175	0.305000	0.903700	0.877100
H1401	H140	0.328600	0.895000	0.902900
N361	N36	0.614800	0.282390	0.867400
C1761	C176	0.603100	0.240700	0.840700
H1411	H141	0.628600	0.215300	0.834300
C1771	C177	0.554000	0.234300	0.822400
H1421	H142	0.547900	0.209800	0.796800
C1781	C178	0.513700	0.263000	0.840400
C1791	C179	0.527430	0.305800	0.867600
H1431	H143	0.501500	0.329000	0.878200
C1801	C180	0.578000	0.315600	0.879800
H1441	H144	0.586600	0.346300	0.897100
La41	La4	0.259270	0.751060	0.917270
O371	O37	0.692200	0.789400	0.809600
O381	O38	0.831300	0.718000	0.797300
O391	O39	0.796600	0.828000	0.801200
O401	O40	0.723800	0.685400	0.796500
O411	O41	0.220800	0.827800	0.954500
O421	O42	0.193500	0.779400	0.859400
O431	O43	0.287300	0.688800	0.981100
O441	O44	0.328100	0.792300	0.972400
O451	O45	0.769900	0.326000	0.871700
O461	O46	0.185600	0.720900	0.964400
O471	O47	0.703200	0.184000	0.858900
O481	O48	0.338800	0.707900	0.881700
N371	N37	0.643310	0.774800	0.812080
C1811	C181	0.632480	0.738350	0.845220
H1451	H145	0.659700	0.721400	0.862300
C1821	C182	0.582230	0.724810	0.855010
H1461	H146	0.575200	0.698700	0.878900
C1831	C183	0.542200	0.748380	0.830850
C1841	C184	0.555120	0.786100	0.796900
H1471	H147	0.528600	0.803700	0.779500
C1851	C185	0.605710	0.798900	0.787670
H1481	H148	0.613700	0.824800	0.763900
N381	N38	0.882600	0.725200	0.801100
C1861	C186	0.917950	0.693400	0.782700
H1491	H149	0.908100	0.666500	0.760700
C1871	C187	0.969000	0.699600	0.795700
H1501	H150	0.993400	0.674600	0.785300
C1881	C188	0.985200	0.741300	0.823200
C1891	C189	0.947250	0.774600	0.838200
H1511	H151	0.956600	0.806600	0.852800
C1901	C190	0.895640	0.762800	0.832700
H1521	H152	0.870100	0.781100	0.850800
N391	N39	0.785830	0.875510	0.810700
C1911	C191	0.745200	0.886930	0.839000
H1531	H153	0.723800	0.860300	0.851800
C1921	C192	0.734400	0.937830	0.849700
H1541	H154	0.709700	0.945800	0.874700
C1931	C193	0.758900	0.977300	0.824900
C1941	C194	0.800000	0.963850	0.795300
H1551	H155	0.819100	0.989800	0.778600
C1951	C195	0.813700	0.912780	0.789900
H1561	H156	0.843400	0.904100	0.771000
N401	N40	0.733200	0.635400	0.811500
C1961	C196	0.699600	0.601560	0.793200
H1571	H157	0.671900	0.612700	0.772700
C1971	C197	0.705600	0.549930	0.804400
H1581	H158	0.683100	0.525400	0.789700
C1981	C198	0.743400	0.533500	0.836500
C1991	C199	0.777400	0.569970	0.852700
H1591	H159	0.806700	0.559500	0.871300
C2001	C200	0.770200	0.621400	0.842900
H1601	H160	0.791300	0.646600	0.858400
N411	N41	0.228500	0.875380	0.972400
C2011	C201	0.267800	0.889390	0.001200
H1611	H161	0.293200	0.865100	0.011000
C2021	C202	0.270800	0.940260	0.016700
H1621	H162	0.292400	0.949000	0.044000
C2031	C203	0.243100	0.978300	0.992900
C2041	C204	0.205500	0.961870	0.960200
H1631	H163	0.183000	0.986400	0.945500
C2051	C205	0.199900	0.910440	0.948700
H1641	H164	0.175900	0.900000	0.923900
N421	N42	0.143300	0.767180	0.850200
C2061	C206	0.109210	0.801200	0.867200
H1651	H165	0.120800	0.831500	0.883700
C2071	C207	0.057100	0.792800	0.861000
H1661	H166	0.033300	0.815500	0.876500
C2081	C208	0.039000	0.752400	0.832800
C2091	C209	0.075570	0.716100	0.820400
H1671	H167	0.064900	0.682900	0.809900
C2101	C210	0.127500	0.727200	0.823000
H1681	H168	0.151700	0.706500	0.805500
N431	N43	0.275130	0.638600	0.989600
C2111	C211	0.233700	0.625720	0.016100
H1691	H169	0.212300	0.651500	0.030200
C2121	C212	0.222300	0.574090	0.022900
H1701	H170	0.194900	0.564700	0.044500
C2131	C213	0.249800	0.536200	0.999100
C2141	C214	0.290000	0.552030	0.969600
H1711	H171	0.307700	0.527600	0.949500
C2151	C215	0.305000	0.603070	0.968500
H1721	H172	0.336400	0.612700	0.953000
N441	N44	0.378700	0.780800	0.975900
C2161	C216	0.392300	0.741400	0.004800
H1731	H173	0.366600	0.721000	0.020400
C2171	C217	0.443650	0.730000	0.012300
H1741	H174	0.452800	0.699800	0.030200
C2181	C218	0.238100	0.482000	0.005800
C2191	C219	0.197100	0.465500	0.034100
H1751	H175	0.172300	0.489900	0.045000
C2201	C220	0.414400	0.809000	0.953100
H1761	H176	0.404800	0.833100	0.928100
N451	N45	0.764960	0.377300	0.869500
C2211	C221	0.723300	0.390430	0.843700
H1771	H177	0.699600	0.365100	0.832700
C2221	C222	0.715400	0.441810	0.833500
H1781	H178	0.684100	0.451900	0.818000
C2231	C223	0.751100	0.479000	0.844900
C2241	C224	0.793200	0.462600	0.871000
H1791	H179	0.816600	0.487300	0.884100
C2251	C225	0.802700	0.410900	0.878600
H1801	H180	0.835300	0.399400	0.890200
N461	N46	0.135600	0.731010	0.972900
C2261	C226	0.122360	0.776100	0.993200
H1811	H181	0.147500	0.801800	0.999600
C2271	C227	0.071220	0.784500	0.004700
H1821	H182	0.061900	0.814800	0.022400
C2281	C228	0.249900	0.033200	0.008900
C2291	C229	0.296200	0.049500	0.028000
H1831	H183	0.322100	0.024900	0.035500
C2301	C230	0.101100	0.694300	0.963500
H1841	H184	0.111900	0.661900	0.951000
N471	N47	0.718400	0.133300	0.851300
C2311	C231	0.755200	0.122080	0.818300
H1851	H185	0.772600	0.148900	0.801200
C2321	C232	0.768100	0.071480	0.809200
H1861	H186	0.794400	0.063900	0.785700
C2331	C233	0.743600	0.031800	0.833600
C2341	C234	0.705000	0.045270	0.866300
H1871	H187	0.685000	0.019100	0.881800
C2351	C235	0.695000	0.096300	0.877100
H1881	H188	0.671400	0.105000	0.902900
N481	N48	0.385200	0.717610	0.867400
C2361	C236	0.396900	0.759300	0.840700
H1891	H189	0.371400	0.784700	0.834300
C2371	C237	0.446000	0.765700	0.822400
H1901	H190	0.452100	0.790200	0.796800
C2381	C238	0.486300	0.737000	0.840400
C2391	C239	0.472570	0.694200	0.867600
H1911	H191	0.498500	0.671000	0.878200
C2401	C240	0.422000	0.684400	0.879800
H1921	H192	0.413400	0.653700	0.897100
La51	La5	0.751060	0.259270	0.582730
O491	O49	0.789400	0.692200	0.690400
O501	O50	0.718000	0.831300	0.702700
O511	O51	0.828000	0.796600	0.698800
O521	O52	0.685400	0.723800	0.703500
O531	O53	0.827800	0.220800	0.545500
O541	O54	0.779400	0.193500	0.640600
O551	O55	0.688800	0.287300	0.518900
O561	O56	0.792300	0.328100	0.527600
O571	O57	0.326000	0.769900	0.628300
O581	O58	0.720900	0.185600	0.535600
O591	O59	0.184000	0.703200	0.641100
O601	O60	0.707900	0.338800	0.618300
N491	N49	0.774800	0.643310	0.687920
C2411	C241	0.738350	0.632480	0.654780
H1931	H193	0.721400	0.659700	0.637700
C2421	C242	0.724810	0.582230	0.644990
H1941	H194	0.698700	0.575200	0.621100
C2431	C243	0.748380	0.542200	0.669150
C2441	C244	0.786100	0.555120	0.703100
H1951	H195	0.803700	0.528600	0.720500
C2451	C245	0.798900	0.605710	0.712330
H1961	H196	0.824800	0.613700	0.736100
N501	N50	0.725200	0.882600	0.698900
C2461	C246	0.693400	0.917950	0.717300
H1971	H197	0.666500	0.908100	0.739300
C2471	C247	0.699600	0.969000	0.704300
H1981	H198	0.674600	0.993400	0.714700
C2481	C248	0.741300	0.985200	0.676800
C2491	C249	0.774600	0.947250	0.661800
H1991	H199	0.806600	0.956600	0.647200
C2501	C250	0.762800	0.895640	0.667300
H2001	H200	0.781100	0.870100	0.649200
N511	N51	0.875510	0.785830	0.689300
C2511	C251	0.886930	0.745200	0.661000
H2011	H201	0.860300	0.723800	0.648200
C2521	C252	0.937830	0.734400	0.650300
H2021	H202	0.945800	0.709700	0.625300
C2531	C253	0.977300	0.758900	0.675100
C2541	C254	0.963850	0.800000	0.704700
H2031	H203	0.989800	0.819100	0.721400
C2551	C255	0.912780	0.813700	0.710100
H2041	H204	0.904100	0.843400	0.729000
N521	N52	0.635400	0.733200	0.688500
C2561	C256	0.601560	0.699600	0.706800
H2051	H205	0.612700	0.671900	0.727300
C2571	C257	0.549930	0.705600	0.695600
H2061	H206	0.525400	0.683100	0.710300
C2581	C258	0.533500	0.743400	0.663500
C2591	C259	0.569970	0.777400	0.647300
H2071	H207	0.559500	0.806700	0.628700
C2601	C260	0.621400	0.770200	0.657100
H2081	H208	0.646600	0.791300	0.641600
N531	N53	0.875380	0.228500	0.527600
C2611	C261	0.889390	0.267800	0.498800
H2091	H209	0.865100	0.293200	0.489000
C2621	C262	0.940260	0.270800	0.483300
H2101	H210	0.949000	0.292400	0.456000
C2631	C263	0.978300	0.243100	0.507100
C2641	C264	0.961870	0.205500	0.539800
H2111	H211	0.986400	0.183000	0.554500
C2651	C265	0.910440	0.199900	0.551300
H2121	H212	0.900000	0.175900	0.576100
N541	N54	0.767180	0.143300	0.649800
C2661	C266	0.801200	0.109210	0.632800
H2131	H213	0.831500	0.120800	0.616300
C2671	C267	0.792800	0.057100	0.639000
H2141	H214	0.815500	0.033300	0.623500
C2681	C268	0.752400	0.039000	0.667200
C2691	C269	0.716100	0.075570	0.679600
H2151	H215	0.682900	0.064900	0.690100
C2701	C270	0.727200	0.127500	0.677000
H2161	H216	0.706500	0.151700	0.694500
N551	N55	0.638600	0.275130	0.510400
C2711	C271	0.625720	0.233700	0.483900
H2171	H217	0.651500	0.212300	0.469800
C2721	C272	0.574090	0.222300	0.477100
H2181	H218	0.564700	0.194900	0.455500
C2731	C273	0.536200	0.249800	0.500900
C2741	C274	0.552030	0.290000	0.530400
H2191	H219	0.527600	0.307700	0.550500
C2751	C275	0.603070	0.305000	0.531500
H2201	H220	0.612700	0.336400	0.547000
N561	N56	0.780800	0.378700	0.524100
C2761	C276	0.741400	0.392300	0.495200
H2211	H221	0.721000	0.366600	0.479600
C2771	C277	0.730000	0.443650	0.487700
H2221	H222	0.699800	0.452800	0.469800
C2781	C278	0.482000	0.238100	0.494200
C2791	C279	0.465500	0.197100	0.465900
H2231	H223	0.489900	0.172300	0.455000
C2801	C280	0.809000	0.414400	0.546900
H2241	H224	0.833100	0.404800	0.571900
N571	N57	0.377300	0.764960	0.630500
C2811	C281	0.390430	0.723300	0.656300
H2251	H225	0.365100	0.699600	0.667300
C2821	C282	0.441810	0.715400	0.666500
H2261	H226	0.451900	0.684100	0.682000
C2831	C283	0.479000	0.751100	0.655100
C2841	C284	0.462600	0.793200	0.629000
H2271	H227	0.487300	0.816600	0.615900
C2851	C285	0.410900	0.802700	0.621400
H2281	H228	0.399400	0.835300	0.609800
N581	N58	0.731010	0.135600	0.527100
C2861	C286	0.776100	0.122360	0.506800
H2291	H229	0.801800	0.147500	0.500400
C2871	C287	0.784500	0.071220	0.495300
H2301	H230	0.814800	0.061900	0.477600
C2881	C288	0.033200	0.249900	0.491100
C2891	C289	0.049500	0.296200	0.472000
H2311	H231	0.024900	0.322100	0.464500
C2901	C290	0.694300	0.101100	0.536500
H2321	H232	0.661900	0.111900	0.549000
N591	N59	0.133300	0.718400	0.648700
C2911	C291	0.122080	0.755200	0.681700
H2331	H233	0.148900	0.772600	0.698800
C2921	C292	0.071480	0.768100	0.690800
H2341	H234	0.063900	0.794400	0.714300
C2931	C293	0.031800	0.743600	0.666400
C2941	C294	0.045270	0.705000	0.633700
H2351	H235	0.019100	0.685000	0.618200
C2951	C295	0.096300	0.695000	0.622900
H2361	H236	0.105000	0.671400	0.597100
N601	N60	0.717610	0.385200	0.632600
C2961	C296	0.759300	0.396900	0.659300
H2371	H237	0.784700	0.371400	0.665700
C2971	C297	0.765700	0.446000	0.677600
H2381	H238	0.790200	0.452100	0.703200
C2981	C298	0.737000	0.486300	0.659600
C2991	C299	0.694200	0.472570	0.632400
H2391	H239	0.671000	0.498500	0.621800
C3001	C300	0.684400	0.422000	0.620200
H2401	H240	0.653700	0.413400	0.602900
La61	La6	0.248940	0.740730	0.582730
O611	O61	0.210600	0.307800	0.690400
O621	O62	0.282000	0.168700	0.702700
O631	O63	0.172000	0.203400	0.698800
O641	O64	0.314600	0.276200	0.703500
O651	O65	0.172200	0.779200	0.545500
O661	O66	0.220600	0.806500	0.640600
O671	O67	0.311200	0.712700	0.518900
O681	O68	0.207700	0.671900	0.527600
O691	O69	0.674000	0.230100	0.628300
O701	O70	0.279100	0.814400	0.535600
O711	O71	0.816000	0.296800	0.641100
O721	O72	0.292100	0.661200	0.618300
N611	N61	0.225200	0.356690	0.687920
C3011	C301	0.261650	0.367520	0.654780
H2411	H241	0.278600	0.340300	0.637700
C3021	C302	0.275190	0.417770	0.644990
H2421	H242	0.301300	0.424800	0.621100
C3031	C303	0.251620	0.457800	0.669150
C3041	C304	0.213900	0.444880	0.703100
H2431	H243	0.196300	0.471400	0.720500
C3051	C305	0.201100	0.394290	0.712330
H2441	H244	0.175200	0.386300	0.736100
N621	N62	0.274800	0.117400	0.698900
C3061	C306	0.306600	0.082050	0.717300
H2451	H245	0.333500	0.091900	0.739300
C3071	C307	0.300400	0.031000	0.704300
H2461	H246	0.325400	0.006600	0.714700
C3081	C308	0.258700	0.014800	0.676800
C3091	C309	0.225400	0.052750	0.661800
H2471	H247	0.193400	0.043400	0.647200
C3101	C310	0.237200	0.104360	0.667300
H2481	H248	0.218900	0.129900	0.649200
N631	N63	0.124490	0.214170	0.689300
C3111	C311	0.113070	0.254800	0.661000
H2491	H249	0.139700	0.276200	0.648200
C3121	C312	0.062170	0.265600	0.650300
H2501	H250	0.054200	0.290300	0.625300
C3131	C313	0.022700	0.241100	0.675100
C3141	C314	0.036150	0.200000	0.704700
H2511	H251	0.010200	0.180900	0.721400
C3151	C315	0.087220	0.186300	0.710100
H2521	H252	0.095900	0.156600	0.729000
N641	N64	0.364600	0.266800	0.688500
C3161	C316	0.398440	0.300400	0.706800
H2531	H253	0.387300	0.328100	0.727300
C3171	C317	0.450070	0.294400	0.695600
H2541	H254	0.474600	0.316900	0.710300
C3181	C318	0.466500	0.256600	0.663500
C3191	C319	0.430030	0.222600	0.647300
H2551	H255	0.440500	0.193300	0.628700
C3201	C320	0.378600	0.229800	0.657100
H2561	H256	0.353400	0.208700	0.641600
N651	N65	0.124620	0.771500	0.527600
C3211	C321	0.110610	0.732200	0.498800
H2571	H257	0.134900	0.706800	0.489000
C3221	C322	0.059740	0.729200	0.483300
H2581	H258	0.051000	0.707600	0.456000
C3231	C323	0.021700	0.756900	0.507100
C3241	C324	0.038130	0.794500	0.539800
H2591	H259	0.013600	0.817000	0.554500
C3251	C325	0.089560	0.800100	0.551300
H2601	H260	0.100000	0.824100	0.576100
N661	N66	0.232820	0.856700	0.649800
C3261	C326	0.198800	0.890790	0.632800
H2611	H261	0.168500	0.879200	0.616300
C3271	C327	0.207200	0.942900	0.639000
H2621	H262	0.184500	0.966700	0.623500
C3281	C328	0.247600	0.961000	0.667200
C3291	C329	0.283900	0.924430	0.679600
H2631	H263	0.317100	0.935100	0.690100
C3301	C330	0.272800	0.872500	0.677000
H2641	H264	0.293500	0.848300	0.694500
N671	N67	0.361400	0.724870	0.510400
C3311	C331	0.374280	0.766300	0.483900
H2651	H265	0.348500	0.787700	0.469800
C3321	C332	0.425910	0.777700	0.477100
H2661	H266	0.435300	0.805100	0.455500
C3331	C333	0.463800	0.750200	0.500900
C3341	C334	0.447970	0.710000	0.530400
H2671	H267	0.472400	0.692300	0.550500
C3351	C335	0.396930	0.695000	0.531500
H2681	H268	0.387300	0.663600	0.547000
N681	N68	0.219200	0.621300	0.524100
C3361	C336	0.258600	0.607700	0.495200
H2691	H269	0.279000	0.633400	0.479600
C3371	C337	0.270000	0.556350	0.487700
H2701	H270	0.300200	0.547200	0.469800
C3381	C338	0.518000	0.761900	0.494200
C3391	C339	0.534500	0.802900	0.465900
H2711	H271	0.510100	0.827700	0.455000
C3401	C340	0.191000	0.585600	0.546900
H2721	H272	0.166900	0.595200	0.571900
N691	N69	0.622700	0.235040	0.630500
C3411	C341	0.609570	0.276700	0.656300
H2731	H273	0.634900	0.300400	0.667300
C3421	C342	0.558190	0.284600	0.666500
H2741	H274	0.548100	0.315900	0.682000
C3431	C343	0.521000	0.248900	0.655100
C3441	C344	0.537400	0.206800	0.629000
H2751	H275	0.512700	0.183400	0.615900
C3451	C345	0.589100	0.197300	0.621400
H2761	H276	0.600600	0.164700	0.609800
N701	N70	0.268990	0.864400	0.527100
C3461	C346	0.223900	0.877640	0.506800
H2771	H277	0.198200	0.852500	0.500400
C3471	C347	0.215500	0.928780	0.495300
H2781	H278	0.185200	0.938100	0.477600
C3481	C348	0.966800	0.750100	0.491100
C3491	C349	0.950500	0.703800	0.472000
H2791	H279	0.975100	0.677900	0.464500
C3501	C350	0.305700	0.898900	0.536500
H2801	H280	0.338100	0.888100	0.549000
N711	N71	0.866700	0.281600	0.648700
C3511	C351	0.877920	0.244800	0.681700
H2811	H281	0.851100	0.227400	0.698800
C3521	C352	0.928520	0.231900	0.690800
H2821	H282	0.936100	0.205600	0.714300
C3531	C353	0.968200	0.256400	0.666400
C3541	C354	0.954730	0.295000	0.633700
H2831	H283	0.980900	0.315000	0.618200
C3551	C355	0.903700	0.305000	0.622900
H2841	H284	0.895000	0.328600	0.597100
N721	N72	0.282390	0.614800	0.632600
C3561	C356	0.240700	0.603100	0.659300
H2851	H285	0.215300	0.628600	0.665700
C3571	C357	0.234300	0.554000	0.677600
H2861	H286	0.209800	0.547900	0.703200
C3581	C358	0.263000	0.513700	0.659600
C3591	C359	0.305800	0.527430	0.632400
H2871	H287	0.329000	0.501500	0.621800
C3601	C360	0.315600	0.578000	0.620200
H2881	H288	0.346300	0.586600	0.602900
La71	La7	0.740730	0.751060	0.417270
O731	O73	0.307800	0.789400	0.309600
O741	O74	0.168700	0.718000	0.297300
O751	O75	0.203400	0.828000	0.301200
O761	O76	0.276200	0.685400	0.296500
O771	O77	0.779200	0.827800	0.454500
O781	O78	0.806500	0.779400	0.359400
O791	O79	0.712700	0.688800	0.481100
O801	O80	0.671900	0.792300	0.472400
O811	O81	0.230100	0.326000	0.371700
O821	O82	0.814400	0.720900	0.464400
O831	O83	0.296800	0.184000	0.358900
O841	O84	0.661200	0.707900	0.381700
N731	N73	0.356690	0.774800	0.312080
C3611	C361	0.367520	0.738350	0.345220
H2891	H289	0.340300	0.721400	0.362300
C3621	C362	0.417770	0.724810	0.355010
H2901	H290	0.424800	0.698700	0.378900
C3631	C363	0.457800	0.748380	0.330850
C3641	C364	0.444880	0.786100	0.296900
H2911	H291	0.471400	0.803700	0.279500
C3651	C365	0.394290	0.798900	0.287670
H2921	H292	0.386300	0.824800	0.263900
N741	N74	0.117400	0.725200	0.301100
C3661	C366	0.082050	0.693400	0.282700
H2931	H293	0.091900	0.666500	0.260700
C3671	C367	0.031000	0.699600	0.295700
H2941	H294	0.006600	0.674600	0.285300
C3681	C368	0.014800	0.741300	0.323200
C3691	C369	0.052750	0.774600	0.338200
H2951	H295	0.043400	0.806600	0.352800
C3701	C370	0.104360	0.762800	0.332700
H2961	H296	0.129900	0.781100	0.350800
N751	N75	0.214170	0.875510	0.310700
C3711	C371	0.254800	0.886930	0.339000
H2971	H297	0.276200	0.860300	0.351800
C3721	C372	0.265600	0.937830	0.349700
H2981	H298	0.290300	0.945800	0.374700
C3731	C373	0.241100	0.977300	0.324900
C3741	C374	0.200000	0.963850	0.295300
H2991	H299	0.180900	0.989800	0.278600
C3751	C375	0.186300	0.912780	0.289900
H3001	H300	0.156600	0.904100	0.271000
N761	N76	0.266800	0.635400	0.311500
C3761	C376	0.300400	0.601560	0.293200
H3011	H301	0.328100	0.612700	0.272700
C3771	C377	0.294400	0.549930	0.304400
H3021	H302	0.316900	0.525400	0.289700
C3781	C378	0.256600	0.533500	0.336500
C3791	C379	0.222600	0.569970	0.352700
H3031	H303	0.193300	0.559500	0.371300
C3801	C380	0.229800	0.621400	0.342900
H3041	H304	0.208700	0.646600	0.358400
N771	N77	0.771500	0.875380	0.472400
C3811	C381	0.732200	0.889390	0.501200
H3051	H305	0.706800	0.865100	0.511000
C3821	C382	0.729200	0.940260	0.516700
H3061	H306	0.707600	0.949000	0.544000
C3831	C383	0.756900	0.978300	0.492900
C3841	C384	0.794500	0.961870	0.460200
H3071	H307	0.817000	0.986400	0.445500
C3851	C385	0.800100	0.910440	0.448700
H3081	H308	0.824100	0.900000	0.423900
N781	N78	0.856700	0.767180	0.350200
C3861	C386	0.890790	0.801200	0.367200
H3091	H309	0.879200	0.831500	0.383700
C3871	C387	0.942900	0.792800	0.361000
H3101	H310	0.966700	0.815500	0.376500
C3881	C388	0.961000	0.752400	0.332800
C3891	C389	0.924430	0.716100	0.320400
H3111	H311	0.935100	0.682900	0.309900
C3901	C390	0.872500	0.727200	0.323000
H3121	H312	0.848300	0.706500	0.305500
N791	N79	0.724870	0.638600	0.489600
C3911	C391	0.766300	0.625720	0.516100
H3131	H313	0.787700	0.651500	0.530200
C3921	C392	0.777700	0.574090	0.522900
H3141	H314	0.805100	0.564700	0.544500
C3931	C393	0.750200	0.536200	0.499100
C3941	C394	0.710000	0.552030	0.469600
H3151	H315	0.692300	0.527600	0.449500
C3951	C395	0.695000	0.603070	0.468500
H3161	H316	0.663600	0.612700	0.453000
N801	N80	0.621300	0.780800	0.475900
C3961	C396	0.607700	0.741400	0.504800
H3171	H317	0.633400	0.721000	0.520400
C3971	C397	0.556350	0.730000	0.512300
H3181	H318	0.547200	0.699800	0.530200
C3981	C398	0.761900	0.482000	0.505800
C3991	C399	0.802900	0.465500	0.534100
H3191	H319	0.827700	0.489900	0.545000
C4001	C400	0.585600	0.809000	0.453100
H3201	H320	0.595200	0.833100	0.428100
N811	N81	0.235040	0.377300	0.369500
C4011	C401	0.276700	0.390430	0.343700
H3211	H321	0.300400	0.365100	0.332700
C4021	C402	0.284600	0.441810	0.333500
H3221	H322	0.315900	0.451900	0.318000
C4031	C403	0.248900	0.479000	0.344900
C4041	C404	0.206800	0.462600	0.371000
H3231	H323	0.183400	0.487300	0.384100
C4051	C405	0.197300	0.410900	0.378600
H3241	H324	0.164700	0.399400	0.390200
N821	N82	0.864400	0.731010	0.472900
C4061	C406	0.877640	0.776100	0.493200
H3251	H325	0.852500	0.801800	0.499600
C4071	C407	0.928780	0.784500	0.504700
H3261	H326	0.938100	0.814800	0.522400
C4081	C408	0.750100	0.033200	0.508900
C4091	C409	0.703800	0.049500	0.528000
H3271	H327	0.677900	0.024900	0.535500
C4101	C410	0.898900	0.694300	0.463500
H3281	H328	0.888100	0.661900	0.451000
N831	N83	0.281600	0.133300	0.351300
C4111	C411	0.244800	0.122080	0.318300
H3291	H329	0.227400	0.148900	0.301200
C4121	C412	0.231900	0.071480	0.309200
H3301	H330	0.205600	0.063900	0.285700
C4131	C413	0.256400	0.031800	0.333600
C4141	C414	0.295000	0.045270	0.366300
H3311	H331	0.315000	0.019100	0.381800
C4151	C415	0.305000	0.096300	0.377100
H3321	H332	0.328600	0.105000	0.402900
N841	N84	0.614800	0.717610	0.367400
C4161	C416	0.603100	0.759300	0.340700
H3331	H333	0.628600	0.784700	0.334300
C4171	C417	0.554000	0.765700	0.322400
H3341	H334	0.547900	0.790200	0.296800
C4181	C418	0.513700	0.737000	0.340400
C4191	C419	0.527430	0.694200	0.367600
H3351	H335	0.501500	0.671000	0.378200
C4201	C420	0.578000	0.684400	0.379800
H3361	H336	0.586600	0.653700	0.397100
La81	La8	0.259270	0.248940	0.417270
O851	O85	0.692200	0.210600	0.309600
O861	O86	0.831300	0.282000	0.297300
O871	O87	0.796600	0.172000	0.301200
O881	O88	0.723800	0.314600	0.296500
O891	O89	0.220800	0.172200	0.454500
O901	O90	0.193500	0.220600	0.359400
O911	O91	0.287300	0.311200	0.481100
O921	O92	0.328100	0.207700	0.472400
O931	O93	0.769900	0.674000	0.371700
O941	O94	0.185600	0.279100	0.464400
O951	O95	0.703200	0.816000	0.358900
O961	O96	0.338800	0.292100	0.381700
N851	N85	0.643310	0.225200	0.312080
C4211	C421	0.632480	0.261650	0.345220
H3371	H337	0.659700	0.278600	0.362300
C4221	C422	0.582230	0.275190	0.355010
H3381	H338	0.575200	0.301300	0.378900
C4231	C423	0.542200	0.251620	0.330850
C4241	C424	0.555120	0.213900	0.296900
H3391	H339	0.528600	0.196300	0.279500
C4251	C425	0.605710	0.201100	0.287670
H3401	H340	0.613700	0.175200	0.263900
N861	N86	0.882600	0.274800	0.301100
C4261	C426	0.917950	0.306600	0.282700
H3411	H341	0.908100	0.333500	0.260700
C4271	C427	0.969000	0.300400	0.295700
H3421	H342	0.993400	0.325400	0.285300
C4281	C428	0.985200	0.258700	0.323200
C4291	C429	0.947250	0.225400	0.338200
H3431	H343	0.956600	0.193400	0.352800
C4301	C430	0.895640	0.237200	0.332700
H3441	H344	0.870100	0.218900	0.350800
N871	N87	0.785830	0.124490	0.310700
C4311	C431	0.745200	0.113070	0.339000
H3451	H345	0.723800	0.139700	0.351800
C4321	C432	0.734400	0.062170	0.349700
H3461	H346	0.709700	0.054200	0.374700
C4331	C433	0.758900	0.022700	0.324900
C4341	C434	0.800000	0.036150	0.295300
H3471	H347	0.819100	0.010200	0.278600
C4351	C435	0.813700	0.087220	0.289900
H3481	H348	0.843400	0.095900	0.271000
N881	N88	0.733200	0.364600	0.311500
C4361	C436	0.699600	0.398440	0.293200
H3491	H349	0.671900	0.387300	0.272700
C4371	C437	0.705600	0.450070	0.304400
H3501	H350	0.683100	0.474600	0.289700
C4381	C438	0.743400	0.466500	0.336500
C4391	C439	0.777400	0.430030	0.352700
H3511	H351	0.806700	0.440500	0.371300
C4401	C440	0.770200	0.378600	0.342900
H3521	H352	0.791300	0.353400	0.358400
N891	N89	0.228500	0.124620	0.472400
C4411	C441	0.267800	0.110610	0.501200
H3531	H353	0.293200	0.134900	0.511000
C4421	C442	0.270800	0.059740	0.516700
H3541	H354	0.292400	0.051000	0.544000
C4431	C443	0.243100	0.021700	0.492900
C4441	C444	0.205500	0.038130	0.460200
H3551	H355	0.183000	0.013600	0.445500
C4451	C445	0.199900	0.089560	0.448700
H3561	H356	0.175900	0.100000	0.423900
N901	N90	0.143300	0.232820	0.350200
C4461	C446	0.109210	0.198800	0.367200
H3571	H357	0.120800	0.168500	0.383700
C4471	C447	0.057100	0.207200	0.361000
H3581	H358	0.033300	0.184500	0.376500
C4481	C448	0.039000	0.247600	0.332800
C4491	C449	0.075570	0.283900	0.320400
H3591	H359	0.064900	0.317100	0.309900
C4501	C450	0.127500	0.272800	0.323000
H3601	H360	0.151700	0.293500	0.305500
N911	N91	0.275130	0.361400	0.489600
C4511	C451	0.233700	0.374280	0.516100
H3611	H361	0.212300	0.348500	0.530200
C4521	C452	0.222300	0.425910	0.522900
H3621	H362	0.194900	0.435300	0.544500
C4531	C453	0.249800	0.463800	0.499100
C4541	C454	0.290000	0.447970	0.469600
H3631	H363	0.307700	0.472400	0.449500
C4551	C455	0.305000	0.396930	0.468500
H3641	H364	0.336400	0.387300	0.453000
N921	N92	0.378700	0.219200	0.475900
C4561	C456	0.392300	0.258600	0.504800
H3651	H365	0.366600	0.279000	0.520400
C4571	C457	0.443650	0.270000	0.512300
H3661	H366	0.452800	0.300200	0.530200
C4581	C458	0.238100	0.518000	0.505800
C4591	C459	0.197100	0.534500	0.534100
H3671	H367	0.172300	0.510100	0.545000
C4601	C460	0.414400	0.191000	0.453100
H3681	H368	0.404800	0.166900	0.428100
N931	N93	0.764960	0.622700	0.369500
C4611	C461	0.723300	0.609570	0.343700
H3691	H369	0.699600	0.634900	0.332700
C4621	C462	0.715400	0.558190	0.333500
H3701	H370	0.684100	0.548100	0.318000
C4631	C463	0.751100	0.521000	0.344900
C4641	C464	0.793200	0.537400	0.371000
H3711	H371	0.816600	0.512700	0.384100
C4651	C465	0.802700	0.589100	0.378600
H3721	H372	0.835300	0.600600	0.390200
N941	N94	0.135600	0.268990	0.472900
C4661	C466	0.122360	0.223900	0.493200
H3731	H373	0.147500	0.198200	0.499600
C4671	C467	0.071220	0.215500	0.504700
H3741	H374	0.061900	0.185200	0.522400
C4681	C468	0.249900	0.966800	0.508900
C4691	C469	0.296200	0.950500	0.528000
H3751	H375	0.322100	0.975100	0.535500
C4701	C470	0.101100	0.305700	0.463500
H3761	H376	0.111900	0.338100	0.451000
N951	N95	0.718400	0.866700	0.351300
C4711	C471	0.755200	0.877920	0.318300
H3771	H377	0.772600	0.851100	0.301200
C4721	C472	0.768100	0.928520	0.309200
H3781	H378	0.794400	0.936100	0.285700
C4731	C473	0.743600	0.968200	0.333600
C4741	C474	0.705000	0.954730	0.366300
H3791	H379	0.685000	0.980900	0.381800
C4751	C475	0.695000	0.903700	0.377100
H3801	H380	0.671400	0.895000	0.402900
N961	N96	0.385200	0.282390	0.367400
C4761	C476	0.396900	0.240700	0.340700
H3811	H381	0.371400	0.215300	0.334300
C4771	C477	0.446000	0.234300	0.322400
H3821	H382	0.452100	0.209800	0.296800
C4781	C478	0.486300	0.263000	0.340400
C4791	C479	0.472570	0.305800	0.367600
H3831	H383	0.498500	0.329000	0.378200
C4801	C480	0.422000	0.315600	0.379800
H3841	H384	0.413400	0.346300	0.397100
La91	La9	0.758630	0.241370	0.250000
La101	La10	0.241370	0.758630	0.250000
La111	La11	0.241370	0.241370	0.750000
La121	La12	0.758630	0.758630	0.750000
