data_IBUBAL_clean_PM
_symmetry_space_group_name_H-M	'P1'
_cell_length_a	37.941000
_cell_length_b	19.902600
_cell_length_c	14.353300
_cell_angle_alpha	90.000000
_cell_angle_beta	90.000000
_cell_angle_gamma	90.000000
_symmetry_Int_Tables_number 1

loop_
_symmetry_equiv_pos_as_xyz
'x,y,z'

loop_
_atom_site_label
_atom_site_type_symbol
_atom_site_fract_x
_atom_site_fract_y
_atom_site_fract_z
Cd11	Cd1	0.615760	0.239330	0.501530
Cd21	Cd2	0.247730	0.183040	0.751220
Cd31	Cd3	0.323940	0.290050	0.410370
Cd41	Cd4	0.319850	0.170150	0.588170
C11	C1	0.360900	0.278900	0.203200
C21	C2	0.222300	0.102300	0.367300
H11	H1	0.209600	0.141000	0.354000
C31	C3	0.450600	0.264400	0.445000
H21	H2	0.438400	0.294200	0.407000
C41	C4	0.277000	0.048300	0.396700
H31	H3	0.301200	0.050500	0.406700
C51	C5	0.260500	0.986900	0.395800
H41	H4	0.273800	0.947800	0.401300
C61	C6	0.234300	0.484700	0.629700
C71	C7	0.216500	0.552300	0.625200
C81	C8	0.315200	0.195400	0.882100
H51	H5	0.301300	0.201800	0.934700
C91	C9	0.285400	0.296100	0.604100
C101	C10	0.359000	0.191700	0.794600
C111	C11	0.224300	0.982900	0.386800
C121	C12	0.267700	0.361700	0.618500
C131	C13	0.545600	0.228100	0.507000
C141	C14	0.451300	0.176900	0.556400
H61	H6	0.439400	0.146100	0.593600
C151	C15	0.206200	0.916600	0.393700
C161	C16	0.487900	0.179800	0.559000
H71	H7	0.500300	0.150600	0.597600
C171	C17	0.271100	0.481200	0.629500
H81	H8	0.284400	0.520200	0.635100
C181	C18	0.505800	0.224500	0.506000
C191	C19	0.205500	0.040600	0.371300
H91	H9	0.181200	0.038300	0.363400
C201	C20	0.231400	0.365800	0.624700
H101	H10	0.218100	0.326500	0.626100
C211	C21	0.432500	0.219200	0.499200
C221	C22	0.393400	0.218000	0.497900
C231	C23	0.287300	0.420600	0.621000
H111	H11	0.311700	0.418600	0.616700
C241	C24	0.319200	0.307200	0.111100
C251	C25	0.258200	0.106200	0.383000
C261	C26	0.275200	0.173300	0.384900
C271	C27	0.487100	0.265500	0.447000
H121	H12	0.499100	0.294500	0.407500
C281	C28	0.214700	0.426700	0.628900
H131	H13	0.190200	0.428800	0.631100
O11	O1	0.173600	0.914000	0.406100
O21	O2	0.262400	0.220600	0.341100
O31	O3	0.223990	0.863500	0.387200
O41	O4	0.303730	0.180500	0.432000
O51	O5	0.235300	0.604600	0.639600
O61	O6	0.560800	0.261300	0.444400
O71	O7	0.185160	0.556300	0.599300
O81	O8	0.561200	0.196600	0.567300
O91	O9	0.377390	0.179900	0.553100
O101	O10	0.316300	0.294300	0.570900
O111	O11	0.378870	0.257200	0.440700
O121	O12	0.268920	0.242900	0.620900
N11	N1	0.334030	0.291000	0.257200
N21	N2	0.306990	0.310700	0.197500
N31	N3	0.353740	0.286800	0.112400
N41	N4	0.301900	0.326300	0.039300
H141	H14	0.281000	0.342700	0.045600
H151	H15	0.311100	0.322800	0.984800
N51	N5	0.392800	0.190500	0.762500
H161	H16	0.396900	0.182700	0.704600
H171	H17	0.410000	0.197500	0.800200
N61	N6	0.330660	0.181500	0.742600
N71	N7	0.301770	0.182300	0.802900
N81	N8	0.350600	0.199500	0.885700
N91	N9	0.391800	0.269100	0.232900
H181	H18	0.396000	0.270200	0.291800
H191	H19	0.408700	0.261200	0.194400
Cd51	Cd5	0.884240	0.260670	0.001530
Cd61	Cd6	0.252270	0.316960	0.251220
Cd71	Cd7	0.176060	0.209950	0.910370
Cd81	Cd8	0.180150	0.329850	0.088170
C291	C29	0.139100	0.221100	0.703200
C301	C30	0.277700	0.397700	0.867300
H201	H20	0.290400	0.359000	0.854000
C311	C31	0.049400	0.235600	0.945000
H211	H21	0.061600	0.205800	0.907000
C321	C32	0.223000	0.451700	0.896700
H221	H22	0.198800	0.449500	0.906700
C331	C33	0.239500	0.513100	0.895800
H231	H23	0.226200	0.552200	0.901300
C341	C34	0.265700	0.015300	0.129700
C351	C35	0.283500	0.947700	0.125200
C361	C36	0.184800	0.304600	0.382100
H241	H24	0.198700	0.298200	0.434700
C371	C37	0.214600	0.203900	0.104100
C381	C38	0.141000	0.308300	0.294600
C391	C39	0.275700	0.517100	0.886800
C401	C40	0.232300	0.138300	0.118500
C411	C41	0.954400	0.271900	0.007000
C421	C42	0.048700	0.323100	0.056400
H251	H25	0.060600	0.353900	0.093600
C431	C43	0.293800	0.583400	0.893700
C441	C44	0.012100	0.320200	0.059000
H261	H26	0.999700	0.349400	0.097600
C451	C45	0.228900	0.018800	0.129500
H271	H27	0.215600	0.979800	0.135100
C461	C46	0.994200	0.275500	0.006000
C471	C47	0.294500	0.459400	0.871300
H281	H28	0.318800	0.461700	0.863400
C481	C48	0.268600	0.134200	0.124700
H291	H29	0.281900	0.173500	0.126100
C491	C49	0.067500	0.280800	0.999200
C501	C50	0.106600	0.282000	0.997900
C511	C51	0.212700	0.079400	0.121000
H301	H30	0.188300	0.081400	0.116700
C521	C52	0.180800	0.192800	0.611100
C531	C53	0.241800	0.393800	0.883000
C541	C54	0.224800	0.326700	0.884900
C551	C55	0.012900	0.234500	0.947000
H311	H31	0.000900	0.205500	0.907500
C561	C56	0.285300	0.073300	0.128900
H321	H32	0.309800	0.071200	0.131100
O131	O13	0.326400	0.586000	0.906100
O141	O14	0.237600	0.279400	0.841100
O151	O15	0.276010	0.636500	0.887200
O161	O16	0.196270	0.319500	0.932000
O171	O17	0.264700	0.895400	0.139600
O181	O18	0.939200	0.238700	0.944400
O191	O19	0.314840	0.943700	0.099300
O201	O20	0.938800	0.303400	0.067300
O211	O21	0.122610	0.320100	0.053100
O221	O22	0.183700	0.205700	0.070900
O231	O23	0.121130	0.242800	0.940700
O241	O24	0.231080	0.257100	0.120900
N101	N10	0.165970	0.209000	0.757200
N111	N11	0.193010	0.189300	0.697500
N121	N12	0.146260	0.213200	0.612400
N131	N13	0.198100	0.173700	0.539300
H331	H33	0.219000	0.157300	0.545600
H341	H34	0.188900	0.177200	0.484800
N141	N14	0.107200	0.309500	0.262500
H351	H35	0.103100	0.317300	0.204600
H361	H36	0.090000	0.302500	0.300200
N151	N15	0.169340	0.318500	0.242600
N161	N16	0.198230	0.317700	0.302900
N171	N17	0.149400	0.300500	0.385700
N181	N18	0.108200	0.230900	0.732900
H371	H37	0.104000	0.229800	0.791800
H381	H38	0.091300	0.238800	0.694400
Cd91	Cd9	0.384240	0.239330	0.998470
Cd101	Cd10	0.752270	0.183040	0.748780
Cd111	Cd11	0.676060	0.290050	0.089630
Cd121	Cd12	0.680150	0.170150	0.911830
C571	C57	0.639100	0.278900	0.296800
C581	C58	0.777700	0.102300	0.132700
H391	H39	0.790400	0.141000	0.146000
C591	C59	0.549400	0.264400	0.055000
H401	H40	0.561600	0.294200	0.093000
C601	C60	0.723000	0.048300	0.103300
H411	H41	0.698800	0.050500	0.093300
C611	C61	0.739500	0.986900	0.104200
H421	H42	0.726200	0.947800	0.098700
C621	C62	0.765700	0.484700	0.870300
C631	C63	0.783500	0.552300	0.874800
C641	C64	0.684800	0.195400	0.617900
H431	H43	0.698700	0.201800	0.565300
C651	C65	0.714600	0.296100	0.895900
C661	C66	0.641000	0.191700	0.705400
C671	C67	0.775700	0.982900	0.113200
C681	C68	0.732300	0.361700	0.881500
C691	C69	0.454400	0.228100	0.993000
C701	C70	0.548700	0.176900	0.943600
H441	H44	0.560600	0.146100	0.906400
C711	C71	0.793800	0.916600	0.106300
C721	C72	0.512100	0.179800	0.941000
H451	H45	0.499700	0.150600	0.902400
C731	C73	0.728900	0.481200	0.870500
H461	H46	0.715600	0.520200	0.864900
C741	C74	0.494200	0.224500	0.994000
C751	C75	0.794500	0.040600	0.128700
H471	H47	0.818800	0.038300	0.136600
C761	C76	0.768600	0.365800	0.875300
H481	H48	0.781900	0.326500	0.873900
C771	C77	0.567500	0.219200	0.000800
C781	C78	0.606600	0.218000	0.002100
C791	C79	0.712700	0.420600	0.879000
H491	H49	0.688300	0.418600	0.883300
C801	C80	0.680800	0.307200	0.388900
C811	C81	0.741800	0.106200	0.117000
C821	C82	0.724800	0.173300	0.115100
C831	C83	0.512900	0.265500	0.053000
H501	H50	0.500900	0.294500	0.092500
C841	C84	0.785300	0.426700	0.871100
H511	H51	0.809800	0.428800	0.868900
O251	O25	0.826400	0.914000	0.093900
O261	O26	0.737600	0.220600	0.158900
O271	O27	0.776010	0.863500	0.112800
O281	O28	0.696270	0.180500	0.068000
O291	O29	0.764700	0.604600	0.860400
O301	O30	0.439200	0.261300	0.055600
O311	O31	0.814840	0.556300	0.900700
O321	O32	0.438800	0.196600	0.932700
O331	O33	0.622610	0.179900	0.946900
O341	O34	0.683700	0.294300	0.929100
O351	O35	0.621130	0.257200	0.059300
O361	O36	0.731080	0.242900	0.879100
N191	N19	0.665970	0.291000	0.242800
N201	N20	0.693010	0.310700	0.302500
N211	N21	0.646260	0.286800	0.387600
N221	N22	0.698100	0.326300	0.460700
H521	H52	0.719000	0.342700	0.454400
H531	H53	0.688900	0.322800	0.515200
N231	N23	0.607200	0.190500	0.737500
H541	H54	0.603100	0.182700	0.795400
H551	H55	0.590000	0.197500	0.699800
N241	N24	0.669340	0.181500	0.757400
N251	N25	0.698230	0.182300	0.697100
N261	N26	0.649400	0.199500	0.614300
N271	N27	0.608200	0.269100	0.267100
H561	H56	0.604000	0.270200	0.208200
H571	H57	0.591300	0.261200	0.305600
Cd131	Cd13	0.115760	0.260670	0.498470
Cd141	Cd14	0.747730	0.316960	0.248780
Cd151	Cd15	0.823940	0.209950	0.589630
Cd161	Cd16	0.819850	0.329850	0.411830
C851	C85	0.860900	0.221100	0.796800
C861	C86	0.722300	0.397700	0.632700
H581	H58	0.709600	0.359000	0.646000
C871	C87	0.950600	0.235600	0.555000
H591	H59	0.938400	0.205800	0.593000
C881	C88	0.777000	0.451700	0.603300
H601	H60	0.801200	0.449500	0.593300
C891	C89	0.760500	0.513100	0.604200
H611	H61	0.773800	0.552200	0.598700
C901	C90	0.734300	0.015300	0.370300
C911	C91	0.716500	0.947700	0.374800
C921	C92	0.815200	0.304600	0.117900
H621	H62	0.801300	0.298200	0.065300
C931	C93	0.785400	0.203900	0.395900
C941	C94	0.859000	0.308300	0.205400
C951	C95	0.724300	0.517100	0.613200
C961	C96	0.767700	0.138300	0.381500
C971	C97	0.045600	0.271900	0.493000
C981	C98	0.951300	0.323100	0.443600
H631	H63	0.939400	0.353900	0.406400
C991	C99	0.706200	0.583400	0.606300
C1001	C100	0.987900	0.320200	0.441000
H641	H64	0.000300	0.349400	0.402400
C1011	C101	0.771100	0.018800	0.370500
H651	H65	0.784400	0.979800	0.364900
C1021	C102	0.005800	0.275500	0.494000
C1031	C103	0.705500	0.459400	0.628700
H661	H66	0.681200	0.461700	0.636600
C1041	C104	0.731400	0.134200	0.375300
H671	H67	0.718100	0.173500	0.373900
C1051	C105	0.932500	0.280800	0.500800
C1061	C106	0.893400	0.282000	0.502100
C1071	C107	0.787300	0.079400	0.379000
H681	H68	0.811700	0.081400	0.383300
C1081	C108	0.819200	0.192800	0.888900
C1091	C109	0.758200	0.393800	0.617000
C1101	C110	0.775200	0.326700	0.615100
C1111	C111	0.987100	0.234500	0.553000
H691	H69	0.999100	0.205500	0.592500
C1121	C112	0.714700	0.073300	0.371100
H701	H70	0.690200	0.071200	0.368900
O371	O37	0.673600	0.586000	0.593900
O381	O38	0.762400	0.279400	0.658900
O391	O39	0.723990	0.636500	0.612800
O401	O40	0.803730	0.319500	0.568000
O411	O41	0.735300	0.895400	0.360400
O421	O42	0.060800	0.238700	0.555600
O431	O43	0.685160	0.943700	0.400700
O441	O44	0.061200	0.303400	0.432700
O451	O45	0.877390	0.320100	0.446900
O461	O46	0.816300	0.205700	0.429100
O471	O47	0.878870	0.242800	0.559300
O481	O48	0.768920	0.257100	0.379100
N281	N28	0.834030	0.209000	0.742800
N291	N29	0.806990	0.189300	0.802500
N301	N30	0.853740	0.213200	0.887600
N311	N31	0.801900	0.173700	0.960700
H711	H71	0.781000	0.157300	0.954400
H721	H72	0.811100	0.177200	0.015200
N321	N32	0.892800	0.309500	0.237500
H731	H73	0.896900	0.317300	0.295400
H741	H74	0.910000	0.302500	0.199800
N331	N33	0.830660	0.318500	0.257400
N341	N34	0.801770	0.317700	0.197100
N351	N35	0.850600	0.300500	0.114300
N361	N36	0.891800	0.230900	0.767100
H751	H75	0.896000	0.229800	0.708200
H761	H76	0.908700	0.238800	0.805600
Cd171	Cd17	0.384240	0.760670	0.498470
Cd181	Cd18	0.752270	0.816960	0.248780
Cd191	Cd19	0.676060	0.709950	0.589630
Cd201	Cd20	0.680150	0.829850	0.411830
C1131	C113	0.639100	0.721100	0.796800
C1141	C114	0.777700	0.897700	0.632700
H771	H77	0.790400	0.859000	0.646000
C1151	C115	0.549400	0.735600	0.555000
H781	H78	0.561600	0.705800	0.593000
C1161	C116	0.723000	0.951700	0.603300
H791	H79	0.698800	0.949500	0.593300
C1171	C117	0.739500	0.013100	0.604200
H801	H80	0.726200	0.052200	0.598700
C1181	C118	0.765700	0.515300	0.370300
C1191	C119	0.783500	0.447700	0.374800
C1201	C120	0.684800	0.804600	0.117900
H811	H81	0.698700	0.798200	0.065300
C1211	C121	0.714600	0.703900	0.395900
C1221	C122	0.641000	0.808300	0.205400
C1231	C123	0.775700	0.017100	0.613200
C1241	C124	0.732300	0.638300	0.381500
C1251	C125	0.454400	0.771900	0.493000
C1261	C126	0.548700	0.823100	0.443600
H821	H82	0.560600	0.853900	0.406400
C1271	C127	0.793800	0.083400	0.606300
C1281	C128	0.512100	0.820200	0.441000
H831	H83	0.499700	0.849400	0.402400
C1291	C129	0.728900	0.518800	0.370500
H841	H84	0.715600	0.479800	0.364900
C1301	C130	0.494200	0.775500	0.494000
C1311	C131	0.794500	0.959400	0.628700
H851	H85	0.818800	0.961700	0.636600
C1321	C132	0.768600	0.634200	0.375300
H861	H86	0.781900	0.673500	0.373900
C1331	C133	0.567500	0.780800	0.500800
C1341	C134	0.606600	0.782000	0.502100
C1351	C135	0.712700	0.579400	0.379000
H871	H87	0.688300	0.581400	0.383300
C1361	C136	0.680800	0.692800	0.888900
C1371	C137	0.741800	0.893800	0.617000
C1381	C138	0.724800	0.826700	0.615100
C1391	C139	0.512900	0.734500	0.553000
H881	H88	0.500900	0.705500	0.592500
C1401	C140	0.785300	0.573300	0.371100
H891	H89	0.809800	0.571200	0.368900
O491	O49	0.826400	0.086000	0.593900
O501	O50	0.737600	0.779400	0.658900
O511	O51	0.776010	0.136500	0.612800
O521	O52	0.696270	0.819500	0.568000
O531	O53	0.764700	0.395400	0.360400
O541	O54	0.439200	0.738700	0.555600
O551	O55	0.814840	0.443700	0.400700
O561	O56	0.438800	0.803400	0.432700
O571	O57	0.622610	0.820100	0.446900
O581	O58	0.683700	0.705700	0.429100
O591	O59	0.621130	0.742800	0.559300
O601	O60	0.731080	0.757100	0.379100
N371	N37	0.665970	0.709000	0.742800
N381	N38	0.693010	0.689300	0.802500
N391	N39	0.646260	0.713200	0.887600
N401	N40	0.698100	0.673700	0.960700
H901	H90	0.719000	0.657300	0.954400
H911	H91	0.688900	0.677200	0.015200
N411	N41	0.607200	0.809500	0.237500
H921	H92	0.603100	0.817300	0.295400
H931	H93	0.590000	0.802500	0.199800
N421	N42	0.669340	0.818500	0.257400
N431	N43	0.698230	0.817700	0.197100
N441	N44	0.649400	0.800500	0.114300
N451	N45	0.608200	0.730900	0.767100
H941	H94	0.604000	0.729800	0.708200
H951	H95	0.591300	0.738800	0.805600
Cd211	Cd21	0.115760	0.739330	0.998470
Cd221	Cd22	0.747730	0.683040	0.748780
Cd231	Cd23	0.823940	0.790050	0.089630
Cd241	Cd24	0.819850	0.670150	0.911830
C1411	C141	0.860900	0.778900	0.296800
C1421	C142	0.722300	0.602300	0.132700
H961	H96	0.709600	0.641000	0.146000
C1431	C143	0.950600	0.764400	0.055000
H971	H97	0.938400	0.794200	0.093000
C1441	C144	0.777000	0.548300	0.103300
H981	H98	0.801200	0.550500	0.093300
C1451	C145	0.760500	0.486900	0.104200
H991	H99	0.773800	0.447800	0.098700
C1461	C146	0.734300	0.984700	0.870300
C1471	C147	0.716500	0.052300	0.874800
C1481	C148	0.815200	0.695400	0.617900
H1001	H100	0.801300	0.701800	0.565300
C1491	C149	0.785400	0.796100	0.895900
C1501	C150	0.859000	0.691700	0.705400
C1511	C151	0.724300	0.482900	0.113200
C1521	C152	0.767700	0.861700	0.881500
C1531	C153	0.045600	0.728100	0.993000
C1541	C154	0.951300	0.676900	0.943600
H1011	H101	0.939400	0.646100	0.906400
C1551	C155	0.706200	0.416600	0.106300
C1561	C156	0.987900	0.679800	0.941000
H1021	H102	0.000300	0.650600	0.902400
C1571	C157	0.771100	0.981200	0.870500
H1031	H103	0.784400	0.020200	0.864900
C1581	C158	0.005800	0.724500	0.994000
C1591	C159	0.705500	0.540600	0.128700
H1041	H104	0.681200	0.538300	0.136600
C1601	C160	0.731400	0.865800	0.875300
H1051	H105	0.718100	0.826500	0.873900
C1611	C161	0.932500	0.719200	0.000800
C1621	C162	0.893400	0.718000	0.002100
C1631	C163	0.787300	0.920600	0.879000
H1061	H106	0.811700	0.918600	0.883300
C1641	C164	0.819200	0.807200	0.388900
C1651	C165	0.758200	0.606200	0.117000
C1661	C166	0.775200	0.673300	0.115100
C1671	C167	0.987100	0.765500	0.053000
H1071	H107	0.999100	0.794500	0.092500
C1681	C168	0.714700	0.926700	0.871100
H1081	H108	0.690200	0.928800	0.868900
O611	O61	0.673600	0.414000	0.093900
O621	O62	0.762400	0.720600	0.158900
O631	O63	0.723990	0.363500	0.112800
O641	O64	0.803730	0.680500	0.068000
O651	O65	0.735300	0.104600	0.860400
O661	O66	0.060800	0.761300	0.055600
O671	O67	0.685160	0.056300	0.900700
O681	O68	0.061200	0.696600	0.932700
O691	O69	0.877390	0.679900	0.946900
O701	O70	0.816300	0.794300	0.929100
O711	O71	0.878870	0.757200	0.059300
O721	O72	0.768920	0.742900	0.879100
N461	N46	0.834030	0.791000	0.242800
N471	N47	0.806990	0.810700	0.302500
N481	N48	0.853740	0.786800	0.387600
N491	N49	0.801900	0.826300	0.460700
H1091	H109	0.781000	0.842700	0.454400
H1101	H110	0.811100	0.822800	0.515200
N501	N50	0.892800	0.690500	0.737500
H1111	H111	0.896900	0.682700	0.795400
H1121	H112	0.910000	0.697500	0.699800
N511	N51	0.830660	0.681500	0.757400
N521	N52	0.801770	0.682300	0.697100
N531	N53	0.850600	0.699500	0.614300
N541	N54	0.891800	0.769100	0.267100
H1131	H113	0.896000	0.770200	0.208200
H1141	H114	0.908700	0.761200	0.305600
Cd251	Cd25	0.615760	0.760670	0.001530
Cd261	Cd26	0.247730	0.816960	0.251220
Cd271	Cd27	0.323940	0.709950	0.910370
Cd281	Cd28	0.319850	0.829850	0.088170
C1691	C169	0.360900	0.721100	0.703200
C1701	C170	0.222300	0.897700	0.867300
H1151	H115	0.209600	0.859000	0.854000
C1711	C171	0.450600	0.735600	0.945000
H1161	H116	0.438400	0.705800	0.907000
C1721	C172	0.277000	0.951700	0.896700
H1171	H117	0.301200	0.949500	0.906700
C1731	C173	0.260500	0.013100	0.895800
H1181	H118	0.273800	0.052200	0.901300
C1741	C174	0.234300	0.515300	0.129700
C1751	C175	0.216500	0.447700	0.125200
C1761	C176	0.315200	0.804600	0.382100
H1191	H119	0.301300	0.798200	0.434700
C1771	C177	0.285400	0.703900	0.104100
C1781	C178	0.359000	0.808300	0.294600
C1791	C179	0.224300	0.017100	0.886800
C1801	C180	0.267700	0.638300	0.118500
C1811	C181	0.545600	0.771900	0.007000
C1821	C182	0.451300	0.823100	0.056400
H1201	H120	0.439400	0.853900	0.093600
C1831	C183	0.206200	0.083400	0.893700
C1841	C184	0.487900	0.820200	0.059000
H1211	H121	0.500300	0.849400	0.097600
C1851	C185	0.271100	0.518800	0.129500
H1221	H122	0.284400	0.479800	0.135100
C1861	C186	0.505800	0.775500	0.006000
C1871	C187	0.205500	0.959400	0.871300
H1231	H123	0.181200	0.961700	0.863400
C1881	C188	0.231400	0.634200	0.124700
H1241	H124	0.218100	0.673500	0.126100
C1891	C189	0.432500	0.780800	0.999200
C1901	C190	0.393400	0.782000	0.997900
C1911	C191	0.287300	0.579400	0.121000
H1251	H125	0.311700	0.581400	0.116700
C1921	C192	0.319200	0.692800	0.611100
C1931	C193	0.258200	0.893800	0.883000
C1941	C194	0.275200	0.826700	0.884900
C1951	C195	0.487100	0.734500	0.947000
H1261	H126	0.499100	0.705500	0.907500
C1961	C196	0.214700	0.573300	0.128900
H1271	H127	0.190200	0.571200	0.131100
O731	O73	0.173600	0.086000	0.906100
O741	O74	0.262400	0.779400	0.841100
O751	O75	0.223990	0.136500	0.887200
O761	O76	0.303730	0.819500	0.932000
O771	O77	0.235300	0.395400	0.139600
O781	O78	0.560800	0.738700	0.944400
O791	O79	0.185160	0.443700	0.099300
O801	O80	0.561200	0.803400	0.067300
O811	O81	0.377390	0.820100	0.053100
O821	O82	0.316300	0.705700	0.070900
O831	O83	0.378870	0.742800	0.940700
O841	O84	0.268920	0.757100	0.120900
N551	N55	0.334030	0.709000	0.757200
N561	N56	0.306990	0.689300	0.697500
N571	N57	0.353740	0.713200	0.612400
N581	N58	0.301900	0.673700	0.539300
H1281	H128	0.281000	0.657300	0.545600
H1291	H129	0.311100	0.677200	0.484800
N591	N59	0.392800	0.809500	0.262500
H1301	H130	0.396900	0.817300	0.204600
H1311	H131	0.410000	0.802500	0.300200
N601	N60	0.330660	0.818500	0.242600
N611	N61	0.301770	0.817700	0.302900
N621	N62	0.350600	0.800500	0.385700
N631	N63	0.391800	0.730900	0.732900
H1321	H132	0.396000	0.729800	0.791800
H1331	H133	0.408700	0.738800	0.694400
Cd291	Cd29	0.884240	0.739330	0.501530
Cd301	Cd30	0.252270	0.683040	0.751220
Cd311	Cd31	0.176060	0.790050	0.410370
Cd321	Cd32	0.180150	0.670150	0.588170
C1971	C197	0.139100	0.778900	0.203200
C1981	C198	0.277700	0.602300	0.367300
H1341	H134	0.290400	0.641000	0.354000
C1991	C199	0.049400	0.764400	0.445000
H1351	H135	0.061600	0.794200	0.407000
C2001	C200	0.223000	0.548300	0.396700
H1361	H136	0.198800	0.550500	0.406700
C2011	C201	0.239500	0.486900	0.395800
H1371	H137	0.226200	0.447800	0.401300
C2021	C202	0.265700	0.984700	0.629700
C2031	C203	0.283500	0.052300	0.625200
C2041	C204	0.184800	0.695400	0.882100
H1381	H138	0.198700	0.701800	0.934700
C2051	C205	0.214600	0.796100	0.604100
C2061	C206	0.141000	0.691700	0.794600
C2071	C207	0.275700	0.482900	0.386800
C2081	C208	0.232300	0.861700	0.618500
C2091	C209	0.954400	0.728100	0.507000
C2101	C210	0.048700	0.676900	0.556400
H1391	H139	0.060600	0.646100	0.593600
C2111	C211	0.293800	0.416600	0.393700
C2121	C212	0.012100	0.679800	0.559000
H1401	H140	0.999700	0.650600	0.597600
C2131	C213	0.228900	0.981200	0.629500
H1411	H141	0.215600	0.020200	0.635100
C2141	C214	0.994200	0.724500	0.506000
C2151	C215	0.294500	0.540600	0.371300
H1421	H142	0.318800	0.538300	0.363400
C2161	C216	0.268600	0.865800	0.624700
H1431	H143	0.281900	0.826500	0.626100
C2171	C217	0.067500	0.719200	0.499200
C2181	C218	0.106600	0.718000	0.497900
C2191	C219	0.212700	0.920600	0.621000
H1441	H144	0.188300	0.918600	0.616700
C2201	C220	0.180800	0.807200	0.111100
C2211	C221	0.241800	0.606200	0.383000
C2221	C222	0.224800	0.673300	0.384900
C2231	C223	0.012900	0.765500	0.447000
H1451	H145	0.000900	0.794500	0.407500
C2241	C224	0.285300	0.926700	0.628900
H1461	H146	0.309800	0.928800	0.631100
O851	O85	0.326400	0.414000	0.406100
O861	O86	0.237600	0.720600	0.341100
O871	O87	0.276010	0.363500	0.387200
O881	O88	0.196270	0.680500	0.432000
O891	O89	0.264700	0.104600	0.639600
O901	O90	0.939200	0.761300	0.444400
O911	O91	0.314840	0.056300	0.599300
O921	O92	0.938800	0.696600	0.567300
O931	O93	0.122610	0.679900	0.553100
O941	O94	0.183700	0.794300	0.570900
O951	O95	0.121130	0.757200	0.440700
O961	O96	0.231080	0.742900	0.620900
N641	N64	0.165970	0.791000	0.257200
N651	N65	0.193010	0.810700	0.197500
N661	N66	0.146260	0.786800	0.112400
N671	N67	0.198100	0.826300	0.039300
H1471	H147	0.219000	0.842700	0.045600
H1481	H148	0.188900	0.822800	0.984800
N681	N68	0.107200	0.690500	0.762500
H1491	H149	0.103100	0.682700	0.704600
H1501	H150	0.090000	0.697500	0.800200
N691	N69	0.169340	0.681500	0.742600
N701	N70	0.198230	0.682300	0.802900
N711	N71	0.149400	0.699500	0.885700
N721	N72	0.108200	0.769100	0.232900
H1511	H151	0.104000	0.770200	0.291800
H1521	H152	0.091300	0.761200	0.194400
