data_ic0520162si20051122_054857_clean_PM
_symmetry_space_group_name_H-M	'P1'
_cell_length_a	13.119800
_cell_length_b	13.119800
_cell_length_c	13.600700
_cell_angle_alpha	90.000000
_cell_angle_beta	90.000000
_cell_angle_gamma	120.000000
_symmetry_Int_Tables_number 1

loop_
_symmetry_equiv_pos_as_xyz
'x,y,z'

loop_
_atom_site_label
_atom_site_type_symbol
_atom_site_fract_x
_atom_site_fract_y
_atom_site_fract_z
Cd11	Cd1	0.666670	0.333340	0.897940
Cd21	Cd2	0.666670	0.333340	0.602060
Cd31	Cd3	0.487250	0.487250	0.500000
Cd41	Cd4	0.487250	0.487250	0.000000
Cd51	Cd5	0.333330	0.666660	0.397940
Cd61	Cd6	0.000000	0.512750	0.500000
Cd71	Cd7	0.333330	0.666660	0.102060
Cd81	Cd8	0.000000	0.512750	0.000000
Cd91	Cd9	0.512750	0.000000	0.000000
Cd101	Cd10	0.512750	0.000000	0.500000
H11	H1	0.429700	0.843300	0.802000
H21	H2	0.570300	0.413600	0.198000
H31	H3	0.263800	0.284100	0.370500
H41	H4	0.413600	0.570300	0.698000
H51	H5	0.841000	0.050500	0.161100
H61	H6	0.586400	0.156700	0.198000
H71	H7	0.586400	0.156700	0.302000
H81	H8	0.790500	0.949500	0.661100
H91	H9	0.841000	0.050500	0.338900
H101	H10	0.156700	0.586400	0.698000
H111	H11	0.263800	0.284100	0.129500
H121	H12	0.736200	0.020300	0.629500
H131	H13	0.790500	0.949500	0.838900
H141	H14	0.570300	0.413600	0.302000
H151	H15	0.429700	0.843300	0.698000
H161	H16	0.284100	0.263800	0.870500
H171	H17	0.715900	0.979700	0.370500
H181	H18	0.050500	0.841000	0.838900
H191	H19	0.209500	0.159000	0.338900
H201	H20	0.413600	0.570300	0.802000
H211	H21	0.156700	0.586400	0.802000
H221	H22	0.843300	0.429700	0.302000
H231	H23	0.949500	0.790500	0.161100
H241	H24	0.020300	0.736200	0.129500
H251	H25	0.736200	0.020300	0.870500
H261	H26	0.020300	0.736200	0.370500
H271	H27	0.949500	0.790500	0.338900
H281	H28	0.843300	0.429700	0.198000
H291	H29	0.050500	0.841000	0.661100
H301	H30	0.209500	0.159000	0.161100
H311	H31	0.284100	0.263800	0.629500
H321	H32	0.979700	0.715900	0.629500
H331	H33	0.159000	0.209500	0.838900
H341	H34	0.159000	0.209500	0.661100
H351	H35	0.715900	0.979700	0.129500
H361	H36	0.979700	0.715900	0.870500
C11	C1	0.208900	0.347700	0.918400
C21	C2	0.652300	0.861200	0.918400
C31	C3	0.861200	0.652300	0.081600
C41	C4	0.208900	0.347700	0.581600
C51	C5	0.652300	0.861200	0.581600
C61	C6	0.013400	0.517000	0.750000
C71	C7	0.861200	0.652300	0.418400
C81	C8	0.503600	0.986600	0.750000
C91	C9	0.496400	0.483000	0.250000
C101	C10	0.986600	0.503600	0.250000
C111	C11	0.138800	0.791100	0.581600
C121	C12	0.791100	0.138800	0.081600
C131	C13	0.138800	0.791100	0.918400
C141	C14	0.517000	0.013400	0.250000
C151	C15	0.347700	0.208900	0.418400
C161	C16	0.347700	0.208900	0.081600
C171	C17	0.483000	0.496400	0.750000
C181	C18	0.791100	0.138800	0.418400
N11	N1	0.263600	0.218500	0.370100
N21	N2	0.856700	0.564200	0.469200
N31	N3	0.407100	0.571600	0.298000
N41	N4	0.485000	0.947000	0.169300
N51	N5	0.428400	0.835500	0.298000
N61	N6	0.358900	0.112400	0.087700
N71	N7	0.454200	0.138400	0.466500
N81	N8	0.245600	0.501200	0.999100
N91	N9	0.134700	0.575200	0.750000
N101	N10	0.498800	0.744400	0.500900
N111	N11	0.571600	0.407100	0.702000
N121	N12	0.501200	0.245600	0.499100
N131	N13	0.515000	0.462000	0.830700
N141	N14	0.781500	0.045100	0.129900
N151	N15	0.315800	0.861600	0.533500
N161	N16	0.754400	0.255600	0.000900
N171	N17	0.753500	0.641100	0.412300
N181	N18	0.559500	0.424800	0.250000
N191	N19	0.515000	0.462000	0.669300
N201	N20	0.707500	0.143300	0.030800
N211	N21	0.255600	0.754400	0.999100
N221	N22	0.707500	0.143300	0.469200
N231	N23	0.246500	0.887600	0.912300
N241	N24	0.753500	0.641100	0.087700
N251	N25	0.947000	0.485000	0.669300
N261	N26	0.754400	0.255600	0.499100
N271	N27	0.781500	0.045100	0.370100
N281	N28	0.454200	0.138400	0.033500
N291	N29	0.501200	0.245600	0.000900
N301	N30	0.947000	0.485000	0.830700
N311	N31	0.835500	0.428400	0.798000
N321	N32	0.538000	0.053000	0.830700
N331	N33	0.538000	0.053000	0.669300
N341	N34	0.218500	0.263600	0.870100
N351	N35	0.571600	0.407100	0.798000
N361	N36	0.835500	0.428400	0.702000
N371	N37	0.564200	0.856700	0.530800
N381	N38	0.245600	0.501200	0.500900
N391	N39	0.143300	0.707500	0.969200
N401	N40	0.435800	0.292500	0.469200
N411	N41	0.428400	0.835500	0.202000
N421	N42	0.485000	0.947000	0.330700
N431	N43	0.407100	0.571600	0.202000
N441	N44	0.292500	0.435800	0.530800
N451	N45	0.736400	0.954900	0.870100
N461	N46	0.143300	0.707500	0.530800
N471	N47	0.263600	0.218500	0.129900
N481	N48	0.592900	0.164500	0.702000
N491	N49	0.315800	0.861600	0.966500
N501	N50	0.435800	0.292500	0.030800
N511	N51	0.292500	0.435800	0.969200
N521	N52	0.053000	0.538000	0.169300
N531	N53	0.164500	0.592900	0.298000
N541	N54	0.744400	0.498800	0.499100
N551	N55	0.255600	0.754400	0.500900
N561	N56	0.045100	0.781500	0.629900
N571	N57	0.564200	0.856700	0.969200
N581	N58	0.545800	0.684200	0.533500
N591	N59	0.462000	0.515000	0.330700
N601	N60	0.218500	0.263600	0.629900
N611	N61	0.440500	0.865300	0.750000
N621	N62	0.861600	0.315800	0.033500
N631	N63	0.138400	0.454200	0.533500
N641	N64	0.498800	0.744400	0.999100
N651	N65	0.736400	0.954900	0.629900
N661	N66	0.954900	0.736400	0.129900
N671	N67	0.641100	0.753500	0.912300
N681	N68	0.684200	0.545800	0.466500
N691	N69	0.865300	0.440500	0.250000
N701	N70	0.887600	0.246500	0.087700
N711	N71	0.545800	0.684200	0.966500
N721	N72	0.112400	0.358900	0.587700
N731	N73	0.138400	0.454200	0.966500
N741	N74	0.887600	0.246500	0.412300
N751	N75	0.592900	0.164500	0.798000
N761	N76	0.575200	0.134700	0.250000
N771	N77	0.684200	0.545800	0.033500
N781	N78	0.424800	0.559500	0.750000
N791	N79	0.954900	0.736400	0.370100
N801	N80	0.246500	0.887600	0.587700
N811	N81	0.861600	0.315800	0.466500
N821	N82	0.112400	0.358900	0.912300
N831	N83	0.462000	0.515000	0.169300
N841	N84	0.045100	0.781500	0.870100
N851	N85	0.358900	0.112400	0.412300
N861	N86	0.856700	0.564200	0.030800
N871	N87	0.641100	0.753500	0.587700
N881	N88	0.744400	0.498800	0.000900
N891	N89	0.164500	0.592900	0.202000
N901	N90	0.053000	0.538000	0.330700
