data_ic051810ksi20060220_094504_clean_PM
_symmetry_space_group_name_H-M	'P1'
_cell_length_a	10.350300
_cell_length_b	10.350300
_cell_length_c	52.557000
_cell_angle_alpha	90.000000
_cell_angle_beta	90.000000
_cell_angle_gamma	90.000000
_symmetry_Int_Tables_number 1

loop_
_symmetry_equiv_pos_as_xyz
'x,y,z'

loop_
_atom_site_label
_atom_site_type_symbol
_atom_site_fract_x
_atom_site_fract_y
_atom_site_fract_z
Cd11	Cd1	0.242960	0.854660	0.421170
Cd21	Cd2	0.854660	0.757040	0.171170
Cd31	Cd3	0.940280	0.641560	0.773620
Cd41	Cd4	0.242960	0.145340	0.078830
Cd51	Cd5	0.757040	0.145340	0.921170
Cd61	Cd6	0.059720	0.641560	0.226380
Cd71	Cd7	0.145340	0.757040	0.828830
Cd81	Cd8	0.641560	0.059720	0.523620
Cd91	Cd9	0.358440	0.059720	0.476380
Cd101	Cd10	0.059720	0.358440	0.273620
Cd111	Cd11	0.358440	0.940280	0.023620
Cd121	Cd12	0.757040	0.854660	0.578830
Cd131	Cd13	0.145340	0.242960	0.671170
Cd141	Cd14	0.641560	0.940280	0.976380
Cd151	Cd15	0.854660	0.242960	0.328830
Cd161	Cd16	0.940280	0.358440	0.726380
H11	H1	0.390600	0.479800	0.468700
H21	H2	0.520200	0.609400	0.781300
H31	H3	0.119000	0.053600	0.525300
H41	H4	0.121200	0.335700	0.163100
H51	H5	0.053600	0.119000	0.224700
H61	H6	0.946400	0.881000	0.724700
H71	H7	0.878800	0.335700	0.836900
H81	H8	0.479800	0.609400	0.218700
H91	H9	0.051100	0.872600	0.092800
H101	H10	0.127400	0.051100	0.342800
H111	H11	0.119000	0.946400	0.974700
H121	H12	0.053600	0.881000	0.275300
H131	H13	0.878800	0.664300	0.663100
H141	H14	0.335700	0.121200	0.586900
H151	H15	0.881000	0.946400	0.025300
H161	H16	0.946400	0.119000	0.775300
H171	H17	0.664300	0.121200	0.413100
H181	H18	0.816000	0.500000	0.250000
H191	H19	0.500000	0.184000	0.000000
H201	H20	0.520200	0.390600	0.718700
H211	H21	0.500000	0.816000	0.500000
H221	H22	0.948900	0.127400	0.592800
H231	H23	0.051100	0.127400	0.407200
H241	H24	0.390600	0.520200	0.031300
H251	H25	0.335700	0.878800	0.913100
H261	H26	0.184000	0.500000	0.750000
H271	H27	0.872600	0.948900	0.842800
H281	H28	0.121200	0.664300	0.336900
H291	H29	0.948900	0.872600	0.907200
H301	H30	0.872600	0.051100	0.657200
H311	H31	0.609400	0.520200	0.968700
H321	H32	0.881000	0.053600	0.474700
H331	H33	0.664300	0.878800	0.086900
H341	H34	0.609400	0.479800	0.531300
H351	H35	0.479800	0.390600	0.281300
H361	H36	0.127400	0.948900	0.157200
C11	C1	0.524600	0.565200	0.231310
C21	C2	0.887800	0.745300	0.670550
C31	C3	0.755100	0.920000	0.053950
C41	C4	0.976700	0.118800	0.417030
C51	C5	0.365700	0.729600	0.460050
C61	C6	0.881200	0.023300	0.832970
C71	C7	0.918900	0.881500	0.795420
C81	C8	0.565200	0.657900	0.518820
C91	C9	0.311100	0.500000	0.250000
C101	C10	0.475400	0.434800	0.731310
C111	C11	0.051900	0.366700	0.210540
C121	C12	0.565200	0.524600	0.518690
C131	C13	0.834100	0.847800	0.627810
C141	C14	0.874800	0.927600	0.042550
C151	C15	0.118800	0.023300	0.167030
C161	C16	0.131600	0.142700	0.155720
C171	C17	0.080000	0.244900	0.196050
C181	C18	0.366700	0.948100	0.960540
C191	C19	0.142700	0.868400	0.905720
C201	C20	0.270400	0.365700	0.710050
C211	C21	0.524600	0.434800	0.268690
C221	C22	0.500000	0.542700	0.000000
C231	C23	0.118500	0.918900	0.045420
C241	C24	0.023300	0.881200	0.917030
C251	C25	0.927600	0.125200	0.792550
C261	C26	0.948100	0.633300	0.710540
C271	C27	0.918900	0.118500	0.704580
C281	C28	0.874800	0.072400	0.457450
C291	C29	0.270400	0.634300	0.789950
C301	C30	0.906900	0.012500	0.806900
C311	C31	0.500000	0.726200	0.500000
C321	C32	0.112200	0.745300	0.329450
C331	C33	0.365700	0.270400	0.039950
C341	C34	0.906900	0.987500	0.693100
C351	C35	0.857300	0.868400	0.094280
C361	C36	0.118500	0.081100	0.454580
C371	C37	0.165900	0.152200	0.127810
C381	C38	0.081100	0.118500	0.295420
C391	C39	0.726200	0.500000	0.250000
C401	C40	0.023300	0.118800	0.582970
C411	C41	0.434800	0.524600	0.481310
C421	C42	0.457300	0.500000	0.250000
C431	C43	0.012500	0.906900	0.943100
C441	C44	0.142700	0.131600	0.594280
C451	C45	0.729600	0.634300	0.210050
C461	C46	0.927600	0.874800	0.707450
C471	C47	0.112200	0.254700	0.170550
C481	C48	0.152200	0.834100	0.877810
C491	C49	0.987500	0.906900	0.056900
C501	C50	0.633300	0.948100	0.039460
C511	C51	0.118800	0.976700	0.332970
C521	C52	0.887800	0.254700	0.829450
C531	C53	0.500000	0.688900	0.000000
C541	C54	0.745300	0.112200	0.420550
C551	C55	0.920000	0.244900	0.803950
C561	C56	0.755100	0.080000	0.446050
C571	C57	0.834100	0.152200	0.872190
C581	C58	0.565200	0.475400	0.981310
C591	C59	0.072400	0.874800	0.292550
C601	C60	0.920000	0.755100	0.696050
C611	C61	0.634300	0.270400	0.960050
C621	C62	0.987500	0.093100	0.443100
C631	C63	0.657900	0.434800	0.268820
C641	C64	0.868400	0.142700	0.844280
C651	C65	0.868400	0.857300	0.655720
C661	C66	0.342100	0.434800	0.731180
C671	C67	0.881500	0.918900	0.954580
C681	C68	0.051900	0.633300	0.289460
C691	C69	0.976700	0.881200	0.082970
C701	C70	0.881500	0.081100	0.545420
C711	C71	0.434800	0.475400	0.018690
C721	C72	0.125200	0.072400	0.542550
C731	C73	0.093100	0.987500	0.306900
C741	C74	0.434800	0.657900	0.481180
C751	C75	0.542700	0.500000	0.750000
C761	C76	0.633300	0.051900	0.460540
C771	C77	0.273800	0.500000	0.750000
C781	C78	0.948100	0.366700	0.789460
C791	C79	0.500000	0.273800	0.000000
C801	C80	0.165900	0.847800	0.372190
C811	C81	0.244900	0.080000	0.553950
C821	C82	0.080000	0.755100	0.303950
C831	C83	0.131600	0.857300	0.344280
C841	C84	0.152200	0.165900	0.622190
C851	C85	0.093100	0.012500	0.193100
C861	C86	0.847800	0.165900	0.377810
C871	C87	0.634300	0.729600	0.539950
C881	C88	0.125200	0.927600	0.957450
C891	C89	0.500000	0.457300	0.500000
C901	C90	0.434800	0.342100	0.018820
C911	C91	0.342100	0.565200	0.768820
C921	C92	0.657900	0.565200	0.231180
C931	C93	0.565200	0.342100	0.981180
C941	C94	0.254700	0.887800	0.920550
C951	C95	0.072400	0.125200	0.207450
C961	C96	0.244900	0.920000	0.946050
C971	C97	0.081100	0.881500	0.204580
C981	C98	0.729600	0.365700	0.289950
C991	C99	0.500000	0.311100	0.500000
C1001	C100	0.012500	0.093100	0.556900
C1011	C101	0.847800	0.834100	0.122190
C1021	C102	0.881200	0.976700	0.667030
C1031	C103	0.857300	0.131600	0.405720
C1041	C104	0.254700	0.112200	0.579450
C1051	C105	0.475400	0.565200	0.768690
C1061	C106	0.745300	0.887800	0.079450
C1071	C107	0.366700	0.051900	0.539460
C1081	C108	0.688900	0.500000	0.750000
O11	O1	0.641700	0.996700	0.017620
O21	O2	0.867900	0.911700	0.978270
O31	O3	0.331100	0.329500	0.059260
O41	O4	0.329500	0.331100	0.690740
O51	O5	0.591000	0.741900	0.988790
O61	O6	0.740900	0.818700	0.132160
O71	O7	0.183500	0.948100	0.383820
O81	O8	0.471800	0.073800	0.550380
O91	O9	0.051900	0.183500	0.633820
O101	O10	0.591000	0.258100	0.511210
O111	O11	0.996700	0.358300	0.767620
O121	O12	0.528200	0.926200	0.050380
O131	O13	0.668900	0.329500	0.940740
O141	O14	0.784400	0.935500	0.940050
O151	O15	0.641700	0.003300	0.482380
O161	O16	0.658100	0.847900	0.536990
O171	O17	0.259100	0.818700	0.867840
O181	O18	0.051900	0.816500	0.866180
O191	O19	0.409000	0.258100	0.488790
O201	O20	0.341900	0.152100	0.036990
O211	O21	0.658100	0.152100	0.963010
O221	O22	0.003300	0.641700	0.267620
O231	O23	0.329500	0.668900	0.809260
O241	O24	0.948100	0.183500	0.366180
O251	O25	0.784400	0.064500	0.559950
O261	O26	0.259100	0.181300	0.632160
O271	O27	0.926200	0.528200	0.699620
O281	O28	0.528200	0.073800	0.449620
O291	O29	0.132100	0.088300	0.478270
O301	O30	0.073800	0.471800	0.199620
O311	O31	0.911700	0.132100	0.728270
O321	O32	0.132100	0.911700	0.021730
O331	O33	0.064500	0.215600	0.309950
O341	O34	0.948100	0.816500	0.133820
O351	O35	0.003300	0.358300	0.232380
O361	O36	0.409000	0.741900	0.011210
O371	O37	0.258100	0.591000	0.238790
O381	O38	0.358300	0.003300	0.517620
O391	O39	0.215600	0.935500	0.059950
O401	O40	0.341900	0.847900	0.463010
O411	O41	0.926200	0.471800	0.800380
O421	O42	0.215600	0.064500	0.440050
O431	O43	0.088300	0.867900	0.228270
O441	O44	0.847900	0.341900	0.286990
O451	O45	0.668900	0.670500	0.559260
O461	O46	0.935500	0.784400	0.809950
O471	O47	0.867900	0.088300	0.521730
O481	O48	0.152100	0.658100	0.786990
O491	O49	0.064500	0.784400	0.190050
O501	O50	0.331100	0.670500	0.440740
O511	O51	0.088300	0.132100	0.271730
O521	O52	0.258100	0.409000	0.261210
O531	O53	0.181300	0.740900	0.382160
O541	O54	0.181300	0.259100	0.117840
O551	O55	0.152100	0.341900	0.713010
O561	O56	0.935500	0.215600	0.690050
O571	O57	0.670500	0.331100	0.309260
O581	O58	0.471800	0.926200	0.949620
O591	O59	0.996700	0.641700	0.732380
O601	O60	0.670500	0.668900	0.190740
O611	O61	0.740900	0.181300	0.367840
O621	O62	0.073800	0.528200	0.300380
O631	O63	0.741900	0.591000	0.761210
O641	O64	0.847900	0.658100	0.213010
O651	O65	0.358300	0.996700	0.982380
O661	O66	0.816500	0.948100	0.616180
O671	O67	0.818700	0.259100	0.882160
O681	O68	0.183500	0.051900	0.116180
O691	O69	0.818700	0.740900	0.617840
O701	O70	0.741900	0.409000	0.738790
O711	O71	0.816500	0.051900	0.883820
O721	O72	0.911700	0.867900	0.771730
