data_ic050064gsi20050115_040515_clean_PM
_symmetry_space_group_name_H-M	'P1'
_cell_length_a	12.531000
_cell_length_b	12.531000
_cell_length_c	18.476000
_cell_angle_alpha	90.000000
_cell_angle_beta	90.000000
_cell_angle_gamma	120.000000
_symmetry_Int_Tables_number 1

loop_
_symmetry_equiv_pos_as_xyz
'x,y,z'

loop_
_atom_site_label
_atom_site_type_symbol
_atom_site_fract_x
_atom_site_fract_y
_atom_site_fract_z
Fe11	Fe1	0.273000	0.492500	0.250000
Fe21	Fe2	0.727000	0.219500	0.750000
Fe31	Fe3	0.219500	0.727000	0.250000
Fe41	Fe4	0.507500	0.780500	0.250000
Fe51	Fe5	0.492500	0.273000	0.750000
Fe61	Fe6	0.780500	0.507500	0.750000
H11	H1	0.724800	0.679600	0.554500
H21	H2	0.275200	0.954800	0.054500
H31	H3	0.361600	0.398700	0.440200
H41	H4	0.037100	0.638400	0.440200
H51	H5	0.679600	0.724800	0.445500
H61	H6	0.601300	0.962900	0.059800
H71	H7	0.398700	0.361600	0.940200
H81	H8	0.601300	0.962900	0.440200
H91	H9	0.679600	0.724800	0.054500
H101	H10	0.037100	0.638400	0.059800
H111	H11	0.275200	0.954800	0.445500
H121	H12	0.361600	0.398700	0.059800
H131	H13	0.954800	0.275200	0.554500
H141	H14	0.320400	0.045200	0.945500
H151	H15	0.962900	0.601300	0.940200
H161	H16	0.954800	0.275200	0.945500
H171	H17	0.962900	0.601300	0.559800
H181	H18	0.045200	0.320400	0.054500
H191	H19	0.398700	0.361600	0.559800
H201	H20	0.045200	0.320400	0.445500
H211	H21	0.320400	0.045200	0.554500
H221	H22	0.638400	0.037100	0.559800
H231	H23	0.638400	0.037100	0.940200
H241	H24	0.724800	0.679600	0.945500
C11	C1	0.431400	0.947900	0.431500
C21	C2	0.976000	0.544000	0.964700
C31	C3	0.484000	0.595000	0.142300
C41	C4	0.483500	0.052100	0.568500
C51	C5	0.483500	0.052100	0.931500
C61	C6	0.432000	0.456000	0.464700
C71	C7	0.025900	0.375400	0.467500
C81	C8	0.976000	0.544000	0.535300
C91	C9	0.568000	0.024000	0.964700
C101	C10	0.974100	0.349500	0.967500
C111	C11	0.024000	0.568000	0.464700
C121	C12	0.516500	0.568600	0.431500
C131	C13	0.624600	0.650500	0.467500
C141	C14	0.974100	0.349500	0.532500
C151	C15	0.624600	0.650500	0.032500
C161	C16	0.516500	0.568600	0.068500
C171	C17	0.024000	0.568000	0.035300
C181	C18	0.595000	0.484000	0.642300
C191	C19	0.025900	0.375400	0.032500
C201	C20	0.432000	0.456000	0.035300
C211	C21	0.516000	0.111000	0.642300
C221	C22	0.947900	0.431400	0.568500
C231	C23	0.484000	0.595000	0.357700
C241	C24	0.595000	0.484000	0.857700
C251	C25	0.431400	0.947900	0.068500
C261	C26	0.111000	0.516000	0.357700
C271	C27	0.349500	0.974100	0.032500
C281	C28	0.947900	0.431400	0.931500
C291	C29	0.375400	0.025900	0.967500
C301	C30	0.889000	0.405000	0.642300
C311	C31	0.375400	0.025900	0.532500
C321	C32	0.456000	0.432000	0.535300
C331	C33	0.544000	0.976000	0.035300
C341	C34	0.568000	0.024000	0.535300
C351	C35	0.405000	0.889000	0.142300
C361	C36	0.052100	0.483500	0.068500
C371	C37	0.052100	0.483500	0.431500
C381	C38	0.405000	0.889000	0.357700
C391	C39	0.650500	0.624600	0.967500
C401	C40	0.544000	0.976000	0.464700
C411	C41	0.456000	0.432000	0.964700
C421	C42	0.568600	0.516500	0.931500
C431	C43	0.516000	0.111000	0.857700
C441	C44	0.650500	0.624600	0.532500
C451	C45	0.889000	0.405000	0.857700
C461	C46	0.349500	0.974100	0.467500
C471	C47	0.111000	0.516000	0.142300
C481	C48	0.568600	0.516500	0.568500
O11	O1	0.301900	0.849900	0.330800
O21	O2	0.494700	0.884100	0.171900
O31	O3	0.610600	0.115900	0.671900
O41	O4	0.115900	0.610600	0.171900
O51	O5	0.150100	0.452000	0.330800
O61	O6	0.505300	0.389400	0.828100
O71	O7	0.150100	0.452000	0.169200
O81	O8	0.115900	0.610600	0.328100
O91	O9	0.452000	0.150100	0.669200
O101	O10	0.698100	0.548000	0.669200
O111	O11	0.494700	0.884100	0.328100
O121	O12	0.849900	0.301900	0.669200
O131	O13	0.301900	0.849900	0.169200
O141	O14	0.884100	0.494700	0.828100
O151	O15	0.666670	0.333340	0.750000
O161	O16	0.548000	0.698100	0.169200
O171	O17	0.389400	0.505300	0.328100
O181	O18	0.505300	0.389400	0.671900
O191	O19	0.610600	0.115900	0.828100
O201	O20	0.389400	0.505300	0.171900
O211	O21	0.698100	0.548000	0.830800
O221	O22	0.884100	0.494700	0.671900
O231	O23	0.452000	0.150100	0.830800
O241	O24	0.849900	0.301900	0.830800
O251	O25	0.548000	0.698100	0.330800
O261	O26	0.333330	0.666660	0.250000
