data_ic300665a_si_002_clean_PM
_symmetry_space_group_name_H-M	'P1'
_cell_length_a	13.887700
_cell_length_b	22.566300
_cell_length_c	22.566300
_cell_angle_alpha	90.000000
_cell_angle_beta	90.000000
_cell_angle_gamma	90.000000
_symmetry_Int_Tables_number 1

loop_
_symmetry_equiv_pos_as_xyz
'x,y,z'

loop_
_atom_site_label
_atom_site_type_symbol
_atom_site_fract_x
_atom_site_fract_y
_atom_site_fract_z
Cd11	Cd1	0.937430	0.215940	0.020000
Cd21	Cd2	0.812570	0.284060	0.520000
H11	H1	0.882900	0.139300	0.906200
H21	H2	0.890000	0.149200	0.142800
H31	H3	0.850800	0.152800	0.806300
H41	H4	0.903700	0.319900	0.111100
H51	H5	0.899200	0.332800	0.741000
H61	H6	0.850800	0.167200	0.241000
H71	H7	0.029600	0.288100	0.913000
H81	H8	0.846300	0.180100	0.611100
H91	H9	0.720400	0.211900	0.413000
H101	H10	0.899200	0.347200	0.306300
H111	H11	0.745900	0.195400	0.312900
H121	H12	0.860000	0.350800	0.642800
H131	H13	0.885500	0.157500	0.707800
H141	H14	0.004100	0.304600	0.812900
H151	H15	0.864500	0.342500	0.207800
H161	H16	0.867100	0.360700	0.406200
C11	C1	0.861300	0.199540	0.214900
C21	C2	0.892700	0.288320	0.138060
C31	C3	0.888700	0.300460	0.714900
C41	C4	0.865000	0.311060	0.656170
C51	C5	0.885000	0.188940	0.156170
C61	C6	0.976900	0.270700	0.831450
C71	C7	0.853000	0.256600	0.235580
C81	C8	0.992300	0.260400	0.891000
C91	C9	0.828800	0.269150	0.298500
C101	C10	0.773100	0.229300	0.331450
C111	C11	0.857300	0.211680	0.638060
C121	C12	0.869400	0.302300	0.195580
C131	C13	0.906400	0.173880	0.887030
C141	C14	0.921200	0.230850	0.798500
C151	C15	0.880600	0.197700	0.695580
C161	C16	0.862700	0.318460	0.327270
C171	C17	0.843600	0.326120	0.387030
C181	C18	0.757700	0.239600	0.391000
C191	C19	0.887300	0.181540	0.827270
C201	C20	0.897000	0.243400	0.735580
N11	N1	0.901000	0.233030	0.117810
N21	N2	0.956800	0.213330	0.918770
N31	N3	0.793200	0.286670	0.418770
N41	N4	0.849000	0.266970	0.617810
Cd31	Cd3	0.687430	0.480000	0.715940
Cd41	Cd4	0.562570	0.980000	0.784060
H171	H17	0.596300	0.888900	0.680100
H181	H18	0.600800	0.693700	0.652800
H191	H19	0.635500	0.792200	0.657500
H201	H20	0.495900	0.187100	0.695400
H211	H21	0.632900	0.593800	0.639300
H221	H22	0.614500	0.292200	0.842500
H231	H23	0.649200	0.759000	0.832800
H241	H24	0.617100	0.093800	0.860700
H251	H25	0.653700	0.388900	0.819900
H261	H26	0.779600	0.587000	0.788100
H271	H27	0.649200	0.193700	0.847200
H281	H28	0.600800	0.259000	0.667200
H291	H29	0.754100	0.687100	0.804600
H301	H30	0.640000	0.357200	0.649200
H311	H31	0.470400	0.087000	0.711900
H321	H32	0.610000	0.857200	0.850800
C211	C21	0.578800	0.201500	0.769150
C221	C22	0.523100	0.168550	0.729300
C231	C23	0.615000	0.843830	0.811060
C241	C24	0.630600	0.804420	0.697700
C251	C25	0.637300	0.672730	0.681540
C261	C26	0.593600	0.112970	0.826120
C271	C27	0.635000	0.343830	0.688940
C281	C28	0.507700	0.109000	0.739600
C291	C29	0.619400	0.304420	0.802300
C301	C30	0.611300	0.285100	0.699540
C311	C31	0.656400	0.612970	0.673880
C321	C32	0.642700	0.361940	0.788320
C331	C33	0.726900	0.668550	0.770700
C341	C34	0.671200	0.701500	0.730850
C351	C35	0.638700	0.785100	0.800460
C361	C36	0.603000	0.264420	0.756600
C371	C37	0.607300	0.861940	0.711680
C381	C38	0.742300	0.609000	0.760400
C391	C39	0.612700	0.172730	0.818460
C401	C40	0.647000	0.764420	0.743400
N51	N5	0.599000	0.882190	0.766970
N61	N6	0.651000	0.382190	0.733030
N71	N7	0.706800	0.581230	0.713330
N81	N8	0.543200	0.081230	0.786670
Cd51	Cd5	0.437430	0.784060	0.980000
Cd61	Cd6	0.312570	0.715940	0.480000
H331	H33	0.403700	0.680100	0.888900
H341	H34	0.245900	0.804600	0.687100
H351	H35	0.360000	0.649200	0.357200
H361	H36	0.385500	0.842500	0.292200
H371	H37	0.367100	0.639300	0.593800
H381	H38	0.529600	0.711900	0.087000
H391	H39	0.399200	0.652800	0.693700
H401	H40	0.220400	0.788100	0.587000
H411	H41	0.364500	0.657500	0.792200
H421	H42	0.390000	0.850800	0.857200
H431	H43	0.350800	0.832800	0.759000
H441	H44	0.350800	0.847200	0.193700
H451	H45	0.504100	0.695400	0.187100
H461	H46	0.382900	0.860700	0.093800
H471	H47	0.346300	0.819900	0.388900
H481	H48	0.399200	0.667200	0.259000
C411	C41	0.385000	0.811060	0.843830
C421	C42	0.257700	0.760400	0.609000
C431	C43	0.353000	0.743400	0.764420
C441	C44	0.421200	0.769150	0.201500
C451	C45	0.387300	0.818460	0.172730
C461	C46	0.397000	0.756600	0.264420
C471	C47	0.392700	0.711680	0.861940
C481	C48	0.273100	0.770700	0.668550
C491	C49	0.343600	0.673880	0.612970
C501	C50	0.406400	0.826120	0.112970
C511	C51	0.369400	0.697700	0.804420
C521	C52	0.476900	0.729300	0.168550
C531	C53	0.357300	0.788320	0.361940
C541	C54	0.492300	0.739600	0.109000
C551	C55	0.362700	0.681540	0.672730
C561	C56	0.388700	0.699540	0.285100
C571	C57	0.365000	0.688940	0.343830
C581	C58	0.361300	0.800460	0.785100
C591	C59	0.328800	0.730850	0.701500
C601	C60	0.380600	0.802300	0.304420
N91	N9	0.401000	0.766970	0.882190
N101	N10	0.349000	0.733030	0.382190
N111	N11	0.456800	0.786670	0.081230
N121	N12	0.293200	0.713330	0.581230
Cd71	Cd7	0.187430	0.520000	0.284060
Cd81	Cd8	0.062570	0.020000	0.215940
H491	H49	0.970400	0.913000	0.288100
H501	H50	0.254100	0.312900	0.195400
H511	H51	0.149200	0.806300	0.152800
H521	H52	0.279600	0.413000	0.211900
H531	H53	0.149200	0.241000	0.167200
H541	H54	0.110000	0.142800	0.149200
H551	H55	0.135500	0.207800	0.342500
H561	H56	0.117100	0.906200	0.139300
H571	H57	0.132900	0.406200	0.360700
H581	H58	0.153700	0.611100	0.180100
H591	H59	0.100800	0.741000	0.332800
H601	H60	0.100800	0.306300	0.347200
H611	H61	0.140000	0.642800	0.350800
H621	H62	0.096300	0.111100	0.319900
H631	H63	0.114500	0.707800	0.157500
H641	H64	0.995900	0.812900	0.304600
C611	C61	0.103000	0.735580	0.243400
C621	C62	0.171200	0.298500	0.269150
C631	C63	0.115000	0.156170	0.188940
C641	C64	0.242300	0.391000	0.239600
C651	C65	0.130600	0.195580	0.302300
C661	C66	0.142700	0.638060	0.211680
C671	C67	0.119400	0.695580	0.197700
C681	C68	0.137300	0.327270	0.318460
C691	C69	0.226900	0.331450	0.229300
C701	C70	0.156400	0.387030	0.326120
C711	C71	0.138700	0.214900	0.199540
C721	C72	0.093600	0.887030	0.173880
C731	C73	0.111300	0.714900	0.300460
C741	C74	0.112700	0.827270	0.181540
C751	C75	0.135000	0.656170	0.311060
C761	C76	0.023100	0.831450	0.270700
C771	C77	0.107300	0.138060	0.288320
C781	C78	0.007700	0.891000	0.260400
C791	C79	0.078800	0.798500	0.230850
C801	C80	0.147000	0.235580	0.256600
N131	N13	0.206800	0.418770	0.286670
N141	N14	0.043200	0.918770	0.213330
N151	N15	0.099000	0.117810	0.233030
N161	N16	0.151000	0.617810	0.266970
H651	H65	0.786500	0.440000	0.102100
H661	H66	0.840800	0.471200	0.303700
H671	H67	0.289900	0.206500	0.063700
H681	H68	0.483300	0.428300	0.057600
H691	H69	0.324200	0.411100	0.085500
H701	H70	0.438500	0.246200	0.089600
H711	H71	0.628300	0.463400	0.088100
H721	H72	0.647200	0.393300	0.084800
H731	H73	0.688000	0.443000	0.270300
H741	H74	0.175800	0.370200	0.059400
H751	H75	0.939200	0.466200	0.135500
H761	H76	0.467100	0.436300	0.127600
C811	C81	0.723300	0.438960	0.183400
C821	C82	0.797600	0.446130	0.143250
C831	C83	0.739100	0.448100	0.242800
C841	C84	0.830100	0.464900	0.262600
C851	C85	0.610100	0.424700	0.105300
C861	C86	0.004000	0.491340	0.243280
C871	C87	0.385100	0.271670	0.083000
C881	C88	0.503900	0.414200	0.097200
C891	C89	0.296600	0.248220	0.067930
C901	C90	0.888000	0.462190	0.163210
C911	C91	0.229400	0.344770	0.065420
C921	C92	0.395800	0.332800	0.088590
C931	C93	0.121400	0.258560	0.042680
C941	C94	0.905600	0.472480	0.222550
C951	C95	0.217100	0.284550	0.058860
C961	C96	0.317800	0.369480	0.080640
O11	O1	0.108520	0.203540	0.044450
O21	O2	0.070400	0.497840	0.206160
O31	O3	0.486200	0.352110	0.102720
O41	O4	0.053900	0.293270	0.027850
O51	O5	0.631000	0.423880	0.167470
O61	O6	0.018300	0.500210	0.298040
H771	H77	0.574200	0.129800	0.559400
H781	H78	0.062000	0.057000	0.770300
H791	H79	0.311500	0.253800	0.589600
H801	H80	0.102800	0.106700	0.584800
H811	H81	0.810800	0.033800	0.635500
H821	H82	0.963500	0.060000	0.602100
H831	H83	0.282900	0.063700	0.627600
H841	H84	0.121700	0.036600	0.588100
H851	H85	0.425800	0.088900	0.585500
H861	H86	0.909200	0.028800	0.803700
H871	H87	0.460100	0.293500	0.563700
H881	H88	0.266700	0.071700	0.557600
C971	C97	0.139900	0.075300	0.605300
C981	C98	0.628600	0.241440	0.542680
C991	C99	0.432200	0.130520	0.580640
C1001	C100	0.026700	0.061040	0.683400
C1011	C101	0.010900	0.051900	0.742800
C1021	C102	0.919900	0.035100	0.762600
C1031	C103	0.354200	0.167200	0.588590
C1041	C104	0.862000	0.037810	0.663210
C1051	C105	0.246100	0.085800	0.597200
C1061	C106	0.520600	0.155230	0.565420
C1071	C107	0.952400	0.053870	0.643250
C1081	C108	0.746000	0.008660	0.743280
C1091	C109	0.364900	0.228330	0.583000
C1101	C110	0.532900	0.215450	0.558860
C1111	C111	0.453400	0.251780	0.567930
C1121	C112	0.844400	0.027520	0.722550
O71	O7	0.641480	0.296460	0.544450
O81	O8	0.119000	0.076120	0.667470
O91	O9	0.679600	0.002160	0.706160
O101	O10	0.731700	0.999790	0.798040
O111	O11	0.696100	0.206730	0.527850
O121	O12	0.263800	0.147890	0.602720
H891	H89	0.689200	0.364500	0.966200
H901	H90	0.438000	0.229700	0.943000
H911	H91	0.925800	0.440600	0.870200
H921	H92	0.233300	0.442400	0.928300
H931	H93	0.378300	0.411900	0.963400
H941	H94	0.188500	0.410400	0.746200
H951	H95	0.039900	0.436300	0.706500
H961	H96	0.536500	0.397900	0.940000
H971	H97	0.217100	0.372400	0.936300
H981	H98	0.590800	0.196300	0.971200
H991	H99	0.397200	0.415200	0.893300
H1001	H100	0.074200	0.414500	0.911100
C1131	C113	0.655600	0.277450	0.972480
C1141	C114	0.979400	0.434580	0.844770
C1151	C115	0.473300	0.316600	0.938960
C1161	C116	0.754000	0.256720	0.991340
C1171	C117	0.967100	0.441140	0.784550
C1181	C118	0.638000	0.336790	0.962190
C1191	C119	0.360100	0.394700	0.924700
C1201	C120	0.489100	0.257200	0.948100
C1211	C121	0.145800	0.411410	0.832800
C1221	C122	0.547600	0.356750	0.946130
C1231	C123	0.871400	0.457320	0.758560
C1241	C124	0.580100	0.237400	0.964900
C1251	C125	0.135100	0.417000	0.771670
C1261	C126	0.253900	0.402800	0.914200
C1271	C127	0.067800	0.419360	0.869480
C1281	C128	0.046600	0.432070	0.748220
O131	O13	0.820400	0.293840	0.997840
O141	O14	0.768300	0.201960	0.000210
O151	O15	0.858520	0.455550	0.703540
O161	O16	0.803900	0.472150	0.793270
O171	O17	0.236200	0.397280	0.852110
O181	O18	0.381000	0.332530	0.923880
H1011	H101	0.871700	0.911900	0.536600
H1021	H102	0.016700	0.942400	0.571700
H1031	H103	0.032900	0.872400	0.563700
H1041	H104	0.061500	0.910400	0.753800
H1051	H105	0.713500	0.897900	0.560000
H1061	H106	0.175800	0.914500	0.588900
H1071	H107	0.324200	0.940600	0.629800
H1081	H108	0.852800	0.915200	0.606700
H1091	H109	0.812000	0.729700	0.557000
H1101	H110	0.560800	0.864500	0.533800
H1111	H111	0.210100	0.936300	0.793500
H1121	H112	0.659200	0.696300	0.528800
C1291	C129	0.114900	0.917000	0.728330
C1301	C130	0.996100	0.902800	0.585800
C1311	C131	0.378600	0.957320	0.741440
C1321	C132	0.104200	0.911410	0.667200
C1331	C133	0.270600	0.934580	0.655230
C1341	C134	0.702400	0.856750	0.553870
C1351	C135	0.760900	0.757200	0.551900
C1361	C136	0.776700	0.816600	0.561040
C1371	C137	0.203400	0.932070	0.751780
C1381	C138	0.889900	0.894700	0.575300
C1391	C139	0.496000	0.756720	0.508660
C1401	C140	0.282900	0.941140	0.715450
C1411	C141	0.669900	0.737400	0.535100
C1421	C142	0.594400	0.777450	0.527520
C1431	C143	0.612000	0.836790	0.537810
C1441	C144	0.182200	0.919360	0.630520
O191	O19	0.481700	0.701960	0.499790
O201	O20	0.869000	0.832530	0.576120
O211	O21	0.013800	0.897280	0.647890
O221	O22	0.391480	0.955550	0.796460
O231	O23	0.446100	0.972150	0.706730
O241	O24	0.429600	0.793840	0.502160
H1131	H113	0.147200	0.606700	0.915200
H1141	H114	0.789900	0.793500	0.936300
H1151	H115	0.340800	0.528800	0.696300
H1161	H116	0.675800	0.629800	0.940600
H1171	H117	0.286500	0.560000	0.897900
H1181	H118	0.967100	0.563700	0.872400
H1191	H119	0.128300	0.536600	0.911900
H1201	H120	0.983300	0.571700	0.942400
H1211	H121	0.824200	0.588900	0.914500
H1221	H122	0.938500	0.753800	0.910400
H1231	H123	0.188000	0.557000	0.729700
H1241	H124	0.439200	0.533800	0.864500
C1451	C145	0.796600	0.751780	0.932070
C1461	C146	0.817800	0.630520	0.919360
C1471	C147	0.239100	0.551900	0.757200
C1481	C148	0.621400	0.741440	0.957320
C1491	C149	0.003900	0.585800	0.902800
C1501	C150	0.729400	0.655230	0.934580
C1511	C151	0.330100	0.535100	0.737400
C1521	C152	0.504000	0.508660	0.756720
C1531	C153	0.717100	0.715450	0.941140
C1541	C154	0.110100	0.575300	0.894700
C1551	C155	0.223300	0.561040	0.816600
C1561	C156	0.388000	0.537810	0.836790
C1571	C157	0.405600	0.527520	0.777450
C1581	C158	0.297600	0.553870	0.856750
C1591	C159	0.895800	0.667200	0.911410
C1601	C160	0.885100	0.728330	0.917000
O251	O25	0.570400	0.502160	0.793840
O261	O26	0.608520	0.796460	0.955550
O271	O27	0.518300	0.499790	0.701960
O281	O28	0.986200	0.647890	0.897280
O291	O29	0.131000	0.576120	0.832530
O301	O30	0.553900	0.706730	0.972150
H1251	H125	0.621700	0.963400	0.411900
H1261	H126	0.310800	0.966200	0.364500
H1271	H127	0.766700	0.928300	0.442400
H1281	H128	0.811500	0.746200	0.410400
H1291	H129	0.602800	0.893300	0.415200
H1301	H130	0.960100	0.706500	0.436300
H1311	H131	0.925800	0.911100	0.414500
H1321	H132	0.782900	0.936300	0.372400
H1331	H133	0.562000	0.943000	0.229700
H1341	H134	0.463500	0.940000	0.397900
H1351	H135	0.409200	0.971200	0.196300
H1361	H136	0.074200	0.870200	0.440600
C1611	C161	0.362000	0.962190	0.336790
C1621	C162	0.639900	0.924700	0.394700
C1631	C163	0.246000	0.991340	0.256720
C1641	C164	0.746100	0.914200	0.402800
C1651	C165	0.854200	0.832800	0.411410
C1661	C166	0.864900	0.771670	0.417000
C1671	C167	0.020600	0.844770	0.434580
C1681	C168	0.419900	0.964900	0.237400
C1691	C169	0.510900	0.948100	0.257200
C1701	C170	0.344400	0.972480	0.277450
C1711	C171	0.932200	0.869480	0.419360
C1721	C172	0.032900	0.784550	0.441140
C1731	C173	0.452400	0.946130	0.356750
C1741	C174	0.953400	0.748220	0.432070
C1751	C175	0.526700	0.938960	0.316600
C1761	C176	0.128600	0.758560	0.457320
O311	O31	0.141480	0.703540	0.455550
O321	O32	0.763800	0.852110	0.397280
O331	O33	0.231700	0.000210	0.201960
O341	O34	0.179600	0.997840	0.293840
O351	O35	0.196100	0.793270	0.472150
O361	O36	0.619000	0.923880	0.332530
H1371	H137	0.516700	0.057600	0.428300
H1381	H138	0.159200	0.303700	0.471200
H1391	H139	0.213500	0.102100	0.440000
H1401	H140	0.371700	0.088100	0.463400
H1411	H141	0.561500	0.089600	0.246200
H1421	H142	0.675800	0.085500	0.411100
H1431	H143	0.532900	0.127600	0.436300
H1441	H144	0.312000	0.270300	0.443000
H1451	H145	0.060800	0.135500	0.466200
H1461	H146	0.352800	0.084800	0.393300
H1471	H147	0.710100	0.063700	0.206500
H1481	H148	0.824200	0.059400	0.370200
C1771	C177	0.604200	0.088590	0.332800
C1781	C178	0.614900	0.083000	0.271670
C1791	C179	0.996000	0.243280	0.491340
C1801	C180	0.094400	0.222550	0.472480
C1811	C181	0.389900	0.105300	0.424700
C1821	C182	0.112000	0.163210	0.462190
C1831	C183	0.703400	0.067930	0.248220
C1841	C184	0.202400	0.143250	0.446130
C1851	C185	0.260900	0.242800	0.448100
C1861	C186	0.276700	0.183400	0.438960
C1871	C187	0.782900	0.058860	0.284550
C1881	C188	0.496100	0.097200	0.414200
C1891	C189	0.770600	0.065420	0.344770
C1901	C190	0.682200	0.080640	0.369480
C1911	C191	0.878600	0.042680	0.258560
C1921	C192	0.169900	0.262600	0.464900
O371	O37	0.369000	0.167470	0.423880
O381	O38	0.513800	0.102720	0.352110
O391	O39	0.929600	0.206160	0.497840
O401	O40	0.946100	0.027850	0.293270
O411	O41	0.981700	0.298040	0.500210
O421	O42	0.891480	0.044450	0.203540
H1491	H149	0.036500	0.602100	0.060000
H1501	H150	0.574200	0.585500	0.088900
H1511	H151	0.878300	0.588100	0.036600
H1521	H152	0.938000	0.770300	0.057000
H1531	H153	0.717100	0.627600	0.063700
H1541	H154	0.733300	0.557600	0.071700
H1551	H155	0.688500	0.589600	0.253800
H1561	H156	0.189200	0.635500	0.033800
H1571	H157	0.090800	0.803700	0.028800
H1581	H158	0.539900	0.563700	0.293500
H1591	H159	0.897200	0.584800	0.106700
H1601	H160	0.425800	0.559400	0.129800
C1931	C193	0.973300	0.683400	0.061040
C1941	C194	0.254000	0.743280	0.008660
C1951	C195	0.479400	0.565420	0.155230
C1961	C196	0.753900	0.597200	0.085800
C1971	C197	0.546600	0.567930	0.251780
C1981	C198	0.138000	0.663210	0.037810
C1991	C199	0.645800	0.588590	0.167200
C2001	C200	0.080100	0.762600	0.035100
C2011	C201	0.860100	0.605300	0.075300
C2021	C202	0.047600	0.643250	0.053870
C2031	C203	0.567800	0.580640	0.130520
C2041	C204	0.371400	0.542680	0.241440
C2051	C205	0.989100	0.742800	0.051900
C2061	C206	0.155600	0.722550	0.027520
C2071	C207	0.635100	0.583000	0.228330
C2081	C208	0.467100	0.558860	0.215450
O431	O43	0.358520	0.544450	0.296460
O441	O44	0.736200	0.602720	0.147890
O451	O45	0.303900	0.527850	0.206730
O461	O46	0.268300	0.798040	0.999790
O471	O47	0.320400	0.706160	0.002160
O481	O48	0.881000	0.667470	0.076120
