data_ic3019502_si_002_clean_PM
_symmetry_space_group_name_H-M	'P1'
_cell_length_a	14.101800
_cell_length_b	14.101800
_cell_length_c	14.101800
_cell_angle_alpha	107.535000
_cell_angle_beta	107.535000
_cell_angle_gamma	113.417000
_symmetry_Int_Tables_number 1

loop_
_symmetry_equiv_pos_as_xyz
'x,y,z'

loop_
_atom_site_label
_atom_site_type_symbol
_atom_site_fract_x
_atom_site_fract_y
_atom_site_fract_z
Mn11	Mn1	0.500000	0.500000	0.000000
Zn11	Zn1	0.904180	0.904180	0.000000
Zn21	Zn2	0.095820	0.095820	0.000000
H11	H1	0.203000	0.573400	0.776400
H21	H2	0.592100	0.152500	0.000000
H31	H3	0.573400	0.203000	0.776400
H41	H4	0.943900	0.309900	0.000000
H51	H5	0.407900	0.847500	0.000000
H61	H6	0.056100	0.690100	0.000000
H71	H7	0.690100	0.690100	0.634000
H81	H8	0.797000	0.573400	0.370400
H91	H9	0.426600	0.203000	0.629600
H101	H10	0.690100	0.056100	0.000000
H111	H11	0.152500	0.592100	0.000000
H121	H12	0.426600	0.797000	0.223600
H131	H13	0.056100	0.056100	0.366000
H141	H14	0.847500	0.847500	0.439600
H151	H15	0.203000	0.426600	0.629600
H161	H16	0.573400	0.797000	0.370400
H171	H17	0.407900	0.407900	0.560400
H181	H18	0.797000	0.426600	0.223600
H191	H19	0.152500	0.152500	0.560400
H201	H20	0.592100	0.592100	0.439600
H211	H21	0.309900	0.309900	0.366000
H221	H22	0.309900	0.943900	0.000000
H231	H23	0.943900	0.943900	0.634000
H241	H24	0.847500	0.407900	0.000000
C11	C1	0.127840	0.723160	0.000000
C21	C2	0.663860	0.185740	0.000000
C31	C3	0.712800	0.712800	0.000000
C41	C4	0.108600	0.891400	0.000000
C51	C5	0.752000	0.459700	0.211700
C61	C6	0.108600	0.108600	0.217200
C71	C7	0.891400	0.891400	0.782800
C81	C8	0.872160	0.276840	0.000000
C91	C9	0.172300	0.172300	0.344600
C101	C10	0.709000	0.291000	0.000000
C111	C11	0.723160	0.723160	0.595320
C121	C12	0.185740	0.663860	0.000000
C131	C13	0.354500	0.645500	0.000000
C141	C14	0.276840	0.276840	0.404680
C151	C15	0.185740	0.185740	0.521880
C161	C16	0.291000	0.709000	0.000000
C171	C17	0.872160	0.872160	0.595320
C181	C18	0.276840	0.872160	0.000000
C191	C19	0.127840	0.127840	0.404680
C201	C20	0.827700	0.172300	0.000000
C211	C21	0.565600	0.670900	0.236500
C221	C22	0.663860	0.663860	0.478120
C231	C23	0.752000	0.540300	0.292300
C241	C24	0.336140	0.814260	0.000000
C251	C25	0.814260	0.814260	0.478120
C261	C26	0.709000	0.709000	0.418000
C271	C27	0.354500	0.354500	0.709000
C281	C28	0.329100	0.434400	0.763500
C291	C29	0.336140	0.336140	0.521880
C301	C30	0.434400	0.329100	0.763500
C311	C31	0.723160	0.127840	0.000000
C321	C32	0.172300	0.827700	0.000000
C331	C33	0.540300	0.248000	0.788300
C341	C34	0.459700	0.752000	0.211700
C351	C35	0.670900	0.565600	0.236500
C361	C36	0.540300	0.752000	0.292300
C371	C37	0.645500	0.645500	0.291000
C381	C38	0.248000	0.540300	0.788300
C391	C39	0.248000	0.459700	0.707700
C401	C40	0.827700	0.827700	0.655400
C411	C41	0.814260	0.336140	0.000000
C421	C42	0.645500	0.354500	0.000000
C431	C43	0.459700	0.248000	0.707700
C441	C44	0.670900	0.434400	0.105300
C451	C45	0.565600	0.329100	0.894700
C461	C46	0.891400	0.108600	0.000000
C471	C47	0.329100	0.565600	0.894700
C481	C48	0.291000	0.291000	0.582000
C491	C49	0.287200	0.287200	0.000000
C501	C50	0.434400	0.670900	0.105300
N11	N1	0.378100	0.500000	0.878100
N21	N2	0.621900	0.500000	0.121900
N31	N3	0.500000	0.621900	0.121900
N41	N4	0.500000	0.378100	0.878100
O11	O1	0.012240	0.012240	0.168880
O21	O2	0.843360	0.843360	0.831120
O31	O3	0.156640	0.987760	0.000000
O41	O4	0.987760	0.987760	0.831120
O51	O5	0.358700	0.358700	0.000000
O61	O6	0.843360	0.012240	0.000000
O71	O7	0.221000	0.221000	0.000000
O81	O8	0.156640	0.156640	0.168880
O91	O9	0.987760	0.156640	0.000000
O101	O10	0.779000	0.779000	0.000000
O111	O11	0.641300	0.641300	0.000000
O121	O12	0.012240	0.843360	0.000000
