data_ic402692p_si_002_clean_PM
_symmetry_space_group_name_H-M	'P1'
_cell_length_a	16.789000
_cell_length_b	17.157800
_cell_length_c	23.374900
_cell_angle_alpha	79.880100
_cell_angle_beta	68.953200
_cell_angle_gamma	60.708500
_symmetry_Int_Tables_number 1

loop_
_symmetry_equiv_pos_as_xyz
'x,y,z'

loop_
_atom_site_label
_atom_site_type_symbol
_atom_site_fract_x
_atom_site_fract_y
_atom_site_fract_z
Zn11	Zn1	0.162350	0.725180	0.189760
Zn21	Zn2	0.181300	0.591140	0.108280
Zn31	Zn3	0.955760	0.206960	0.927240
Zn41	Zn4	0.637530	0.774820	0.689760
Zn51	Zn5	0.346590	0.500000	0.500000
Zn61	Zn6	0.633000	0.706960	0.572760
Zn71	Zn7	0.039580	0.091140	0.391720
Zn81	Zn8	0.077290	0.274820	0.810240
Zn91	Zn9	0.118150	0.192740	0.443840
Zn101	Zn10	0.522440	0.908860	0.608280
Zn111	Zn11	0.754730	0.807260	0.556160
Zn121	Zn12	0.060890	0.307260	0.943840
Zn131	Zn13	0.596590	0.000000	0.000000
Zn141	Zn14	0.311990	0.692740	0.056160
Zn151	Zn15	0.880720	0.408860	0.891720
Zn161	Zn16	0.912720	0.293040	0.427240
Zn171	Zn17	0.089960	0.793040	0.072760
Zn181	Zn18	0.102110	0.225180	0.310240
H11	H1	0.865300	0.800800	0.030400
H21	H2	0.021200	0.514600	0.256800
H31	H3	0.442400	0.844000	0.096600
H41	H4	0.011700	0.041000	0.073400
H51	H5	0.507000	0.152200	0.531400
H61	H6	0.910400	0.731200	0.359800
H71	H7	0.319500	0.965000	0.513000
H81	H8	0.835100	0.541000	0.426600
H91	H9	0.219300	0.374400	0.251400
H101	H10	0.391600	0.768800	0.859800
H111	H11	0.600600	0.981600	0.775800
H121	H12	0.028000	0.014600	0.243200
H131	H13	0.802700	0.459000	0.573400
H141	H14	0.582500	0.465000	0.987000
H151	H15	0.788400	0.652200	0.968600
H161	H16	0.126100	0.959000	0.926600
H171	H17	0.343700	0.125600	0.751400
H181	H18	0.409200	0.347800	0.031400
H191	H19	0.383000	0.156000	0.903400
H201	H20	0.001400	0.268800	0.640200
H211	H21	0.792600	0.485400	0.743200
H221	H22	0.696500	0.199200	0.969600
H231	H23	0.332200	0.518400	0.275800
H241	H24	0.036400	0.656000	0.596600
H251	H25	0.126400	0.481600	0.724200
H261	H26	0.645700	0.300800	0.469600
H271	H27	0.220700	0.874400	0.248600
H281	H28	0.034500	0.535000	0.013000
H291	H29	0.190600	0.847800	0.468600
H301	H30	0.285800	0.985400	0.756800
H311	H31	0.416100	0.699200	0.530400
H321	H32	0.020200	0.231200	0.140200
H331	H33	0.289000	0.344000	0.403400
H341	H34	0.797500	0.035000	0.487000
H351	H35	0.845100	0.625600	0.748600
H361	H36	0.358000	0.018400	0.224200
C11	C1	0.373800	0.754600	0.519000
C21	C2	0.944500	0.322200	0.645800
C31	C3	0.820200	0.452600	0.707400
C41	C4	0.350200	0.975400	0.210800
C51	C5	0.407200	0.129600	0.865400
C61	C6	0.201000	0.541800	0.618200
C71	C7	0.349420	0.870600	0.797760
C81	C8	0.311000	0.475400	0.289200
C91	C9	0.470700	0.343000	0.018400
C101	C10	0.017780	0.129400	0.202240
C111	C11	0.201400	0.014600	0.299600
C121	C12	0.832100	0.657000	0.981600
C131	C13	0.025600	0.163200	0.255400
C141	C14	0.980200	0.547400	0.292600
C151	C15	0.027400	0.675000	0.050400
C161	C16	0.950900	0.306000	0.538800
C171	C17	0.878400	0.745400	0.019000
C181	C18	0.984900	0.542800	0.743800
C191	C19	0.361000	0.458200	0.381800
C201	C20	0.979800	0.586400	0.009200
C211	C21	0.075600	0.524600	0.710800
C221	C22	0.022800	0.047400	0.207400
C231	C23	0.653900	0.989400	0.531000
C241	C24	0.707800	0.580200	0.659000
C251	C25	0.031000	0.663200	0.244600
C261	C26	0.116800	0.080200	0.841000
C271	C27	0.647400	0.245400	0.481000
C281	C28	0.652500	0.334000	0.975400
C291	C29	0.006900	0.194000	0.038800
C301	C30	0.912500	0.677800	0.354200
C311	C31	0.652900	0.080800	0.513000
C321	C32	0.869700	0.563400	0.393800
C331	C33	0.928100	0.512000	0.341600
C341	C34	0.934900	0.489400	0.969000
C351	C35	0.244500	0.219600	0.850000
C361	C36	0.174300	0.010600	0.469000
C371	C37	0.549300	0.263000	0.004400
C381	C38	0.537700	0.179200	0.011400
C391	C39	0.970020	0.629400	0.297760
C401	C40	0.277600	0.952600	0.792600
C411	C41	0.248200	0.348200	0.329600
C421	C42	0.827800	0.175000	0.449600
C431	C43	0.038000	0.919800	0.159000
C441	C44	0.253400	0.857000	0.899800
C451	C45	0.739000	0.086400	0.490800
C461	C46	0.214100	0.280400	0.350000
C471	C47	0.444200	0.836800	0.744600
C481	C48	0.016700	0.177800	0.145800
C491	C49	0.019700	0.012000	0.158400
C501	C50	0.816700	0.737000	0.995600
C511	C51	0.271500	0.457200	0.256200
C521	C52	0.826900	0.436600	0.606200
C531	C53	0.515600	0.985400	0.700400
C541	C54	0.022600	0.629600	0.634600
C551	C55	0.483700	0.419200	0.013000
C561	C56	0.346400	0.151800	0.829600
C571	C57	0.736500	0.166000	0.475400
C581	C58	0.239700	0.806000	0.961200
C591	C59	0.314100	0.780400	0.150000
C601	C60	0.183100	0.936600	0.893800
C611	C61	0.268400	0.890000	0.224200
C621	C62	0.402200	0.870400	0.134600
C631	C63	0.393300	0.510600	0.031000
C641	C64	0.903200	0.357000	0.600200
C651	C65	0.492800	0.958200	0.118200
C661	C66	0.377900	0.834000	0.524600
C671	C67	0.728300	0.820800	0.988600
C681	C68	0.795700	0.694000	0.461200
C691	C69	0.299100	0.679200	0.488600
C701	C70	0.569200	0.041800	0.881800
C711	C71	0.010200	0.143000	0.100200
C721	C72	0.242600	0.390000	0.275800
C731	C73	0.320100	0.430600	0.343400
C741	C74	0.961900	0.666000	0.024600
C751	C75	0.575400	0.413600	0.990800
C761	C76	0.303700	0.763000	0.495600
C771	C77	0.190100	0.988000	0.841600
C781	C78	0.413500	0.930600	0.156600
C791	C79	0.926000	0.651800	0.670400
C801	C80	0.500700	0.069400	0.843400
C811	C81	0.781700	0.488000	0.658400
C821	C82	0.642800	0.254600	0.981000
C831	C83	0.947000	0.419800	0.341000
C841	C84	0.966000	0.485400	0.799600
C851	C85	0.251000	0.514600	0.200400
C861	C86	0.094100	0.569400	0.656600
C871	C87	0.938800	0.336800	0.755400
C881	C88	0.752800	0.325000	0.949600
C891	C89	0.452400	0.825000	0.550400
C901	C90	0.239100	0.843000	0.481600
C911	C91	0.340300	0.822200	0.854200
C921	C92	0.013500	0.063400	0.106200
C931	C93	0.908400	0.610000	0.724200
C941	C94	0.327800	0.848200	0.170400
C951	C95	0.563700	0.157000	0.518400
C961	C96	0.915900	0.580800	0.987000
C971	C97	0.316200	0.913600	0.509200
C981	C98	0.286800	0.370400	0.365400
C991	C99	0.277700	0.957200	0.243800
C1001	C100	0.382600	0.110000	0.775800
C1011	C101	0.246700	0.919200	0.487000
C1021	C102	0.466900	0.320800	0.511400
C1031	C103	0.844500	0.719600	0.650000
C1041	C104	0.860400	0.643000	0.399800
C1051	C105	0.897180	0.370600	0.702240
C1061	C106	0.536400	0.024600	0.789200
C1071	C107	0.562300	0.237000	0.504400
C1081	C108	0.478700	0.042800	0.756200
O11	O1	0.507900	0.968000	0.061400
O21	O2	0.032800	0.424200	0.812400
O31	O3	0.313160	0.517800	0.041680
O41	O4	0.906320	0.105200	0.439560
O51	O5	0.815970	0.254000	0.442060
O61	O6	0.022030	0.428200	0.964740
O71	O7	0.200230	0.071800	0.464740
O81	O8	0.151910	0.831400	0.992980
O91	O9	0.541600	0.963600	0.143200
O101	O10	0.076260	0.863800	0.197280
O111	O11	0.255200	0.536400	0.643200
O121	O12	0.218100	0.491400	0.168000
O131	O13	0.204510	0.255800	0.808980
O141	O14	0.690060	0.636200	0.697280
O151	O15	0.877500	0.508600	0.832000
O161	O16	0.648400	0.036400	0.856800
O171	O17	0.521970	0.797000	0.759660
O181	O18	0.104840	0.017800	0.458320
O191	O19	0.736770	0.928200	0.535260
O201	O20	0.009490	0.901600	0.121420
O211	O21	0.269290	0.744200	0.191020
O221	O22	0.032510	0.098400	0.878580
O231	O23	0.191420	0.259800	0.406360
O241	O24	0.819970	0.246000	0.942060
O251	O25	0.458000	0.187400	0.018800
O261	O26	0.459500	0.008600	0.668000
O271	O27	0.857580	0.740200	0.593640
O281	O28	0.664200	0.812600	0.981200
O291	O29	0.207000	0.075800	0.312400
O301	O30	0.512030	0.746000	0.557940
O311	O31	0.761520	0.394800	0.939560
O321	O32	0.414970	0.571800	0.035260
O331	O33	0.872640	0.482200	0.958320
O341	O34	0.032320	0.252400	0.028360
O351	O35	0.894890	0.331400	0.507020
O361	O36	0.095880	0.605200	0.060440
O371	O37	0.225900	0.532000	0.561400
O381	O38	0.442690	0.849000	0.690820
O391	O39	0.313080	0.747600	0.971640
O401	O40	0.639950	0.797200	0.604500
O411	O41	0.008030	0.754000	0.057940
O421	O42	0.068970	0.703000	0.259660
O431	O43	0.580960	0.982200	0.541680
O441	O44	0.537300	0.032000	0.938600
O451	O45	0.031630	0.297000	0.740340
O461	O46	0.226800	0.687400	0.481200
O471	O47	0.613310	0.104800	0.003180
O481	O48	0.883510	0.349000	0.809180
O491	O49	0.595200	0.924200	0.687600
O501	O50	0.434800	0.463600	0.356800
O511	O51	0.319300	0.468000	0.438600
O521	O52	0.721290	0.895200	0.996820
O531	O53	0.137340	0.136200	0.802720
O541	O54	0.366490	0.604800	0.496820
O551	O55	0.880910	0.401600	0.378580
O561	O56	0.136100	0.991400	0.332000
O571	O57	0.810680	0.752400	0.471640
O581	O58	0.763490	0.755800	0.691020
O591	O59	0.041650	0.202800	0.395500
O601	O60	0.468110	0.395200	0.503180
O611	O61	0.023540	0.363800	0.302720
O621	O62	0.451080	0.894800	0.560440
O631	O63	0.041690	0.651000	0.190820
O641	O64	0.982510	0.151000	0.309180
O651	O65	0.395400	0.312600	0.518800
O661	O66	0.201220	0.240200	0.906360
O671	O67	0.187150	0.702800	0.104500
O681	O68	0.661090	0.598400	0.621420
O691	O69	0.269400	0.575800	0.187600
O701	O70	0.034720	0.247600	0.528360
O711	O71	0.347780	0.759800	0.093640
O721	O72	0.994450	0.297200	0.895500
O731	O73	0.733310	0.668600	0.492980
O741	O74	0.078630	0.203000	0.240340
O751	O75	0.210310	0.244200	0.308980
O761	O76	0.976290	0.168600	0.007020
