data_ic400607w_si_001_clean_PM
_symmetry_space_group_name_H-M	'P1'
_cell_length_a	14.628000
_cell_length_b	16.472000
_cell_length_c	21.029000
_cell_angle_alpha	97.010000
_cell_angle_beta	90.000000
_cell_angle_gamma	90.000000
_symmetry_Int_Tables_number 1

loop_
_symmetry_equiv_pos_as_xyz
'x,y,z'

loop_
_atom_site_label
_atom_site_type_symbol
_atom_site_fract_x
_atom_site_fract_y
_atom_site_fract_z
Zn11	Zn1	0.007380	0.055800	0.072700
Zn21	Zn2	0.992620	0.944200	0.927300
Zn31	Zn3	0.358400	0.794140	0.454830
Zn41	Zn4	0.546700	0.747320	0.384900
Zn51	Zn5	0.141600	0.794140	0.954830
Zn61	Zn6	0.492620	0.055800	0.572700
Zn71	Zn7	0.046700	0.252680	0.115100
Zn81	Zn8	0.453300	0.252680	0.615100
Zn91	Zn9	0.507380	0.944200	0.427300
Zn101	Zn10	0.953300	0.747320	0.884900
Zn111	Zn11	0.858400	0.205860	0.045170
Zn121	Zn12	0.641600	0.205860	0.545170
Si11	Si1	0.997650	0.213430	0.868890
Si21	Si2	0.497650	0.786570	0.631110
Si31	Si3	0.002350	0.786570	0.131110
Si41	Si4	0.502350	0.213430	0.368890
H11	H1	0.809000	0.012900	0.794200
H21	H2	0.561300	0.233900	0.801300
H31	H3	0.938700	0.233900	0.301300
H41	H4	0.304600	0.792500	0.789300
H51	H5	0.670300	0.440000	0.495100
H61	H6	0.296200	0.954000	0.281900
H71	H7	0.208700	0.010400	0.032000
H81	H8	0.703800	0.046000	0.718100
H91	H9	0.509900	0.479700	0.364700
H101	H10	0.990100	0.479700	0.864700
H111	H11	0.203800	0.954000	0.781900
H121	H12	0.791300	0.989600	0.968000
H131	H13	0.191000	0.987100	0.205800
H141	H14	0.691000	0.012900	0.294200
H151	H15	0.634300	0.229500	0.899300
H161	H16	0.280600	0.221500	0.229900
H171	H17	0.780600	0.778500	0.270100
H181	H18	0.513400	0.829100	0.485500
H191	H19	0.708700	0.989600	0.468000
H201	H20	0.865700	0.229500	0.399300
H211	H21	0.061300	0.766100	0.698700
H221	H22	0.438700	0.766100	0.198700
H231	H23	0.312500	0.428100	0.529900
H241	H24	0.829700	0.440000	0.995100
H251	H25	0.719400	0.778500	0.770100
H261	H26	0.695400	0.207500	0.210700
H271	H27	0.219400	0.221500	0.729900
H281	H28	0.986600	0.829100	0.985500
H291	H29	0.170300	0.560000	0.004900
H301	H30	0.013400	0.170900	0.014500
H311	H31	0.009900	0.520300	0.135300
H321	H32	0.365700	0.770500	0.100700
H331	H33	0.309000	0.987100	0.705800
H341	H34	0.687500	0.571900	0.470100
H351	H35	0.486600	0.170900	0.514500
H361	H36	0.291300	0.010400	0.532000
H371	H37	0.134300	0.770500	0.600700
H381	H38	0.187500	0.428100	0.029900
H391	H39	0.195400	0.792500	0.289300
H401	H40	0.812500	0.571900	0.970100
H411	H41	0.329700	0.560000	0.504900
H421	H42	0.796200	0.046000	0.218100
H431	H43	0.490100	0.520300	0.635300
H441	H44	0.804600	0.207500	0.710700
C11	C1	0.863100	0.483520	0.018120
C21	C2	0.215420	0.167020	0.740250
C31	C3	0.145470	0.067000	0.800940
C41	C4	0.269200	0.027780	0.726220
C51	C5	0.041830	0.388060	0.912180
C61	C6	0.645470	0.933000	0.699060
C71	C7	0.236110	0.780800	0.135460
C81	C8	0.650140	0.852870	0.715200
C91	C9	0.684350	0.210420	0.307710
C101	C10	0.307510	0.783020	0.572640
C111	C11	0.030100	0.468940	0.898220
C121	C12	0.230800	0.027780	0.226220
C131	C13	0.150140	0.147130	0.784800
C141	C14	0.369600	0.779220	0.316730
C151	C15	0.844040	0.868580	0.835140
C161	C16	0.420470	0.042340	0.348280
C171	C17	0.893080	0.709310	0.015030
C181	C18	0.852600	0.561740	0.003790
C191	C19	0.606920	0.709310	0.515030
C201	C20	0.784580	0.832980	0.259750
C211	C21	0.229770	0.787940	0.250730
C221	C22	0.677200	0.220110	0.746730
C231	C23	0.669500	0.225900	0.861080
C241	C24	0.125800	0.772300	0.697060
C251	C25	0.770230	0.212060	0.749270
C261	C26	0.822800	0.220110	0.246730
C271	C27	0.226450	0.108070	0.211500
C281	C28	0.830700	0.025400	0.994060
C291	C29	0.854530	0.933000	0.199060
C301	C30	0.184350	0.789580	0.192290
C311	C31	0.794000	0.991720	0.228880
C321	C32	0.206000	0.008280	0.771120
C331	C33	0.442900	0.620600	0.421180
C341	C34	0.920470	0.957660	0.151720
C351	C35	0.763890	0.219200	0.864540
C361	C36	0.773550	0.891930	0.788500
C371	C37	0.155960	0.131420	0.164860
C381	C38	0.352600	0.438260	0.496210
C391	C39	0.736110	0.219200	0.364540
C401	C40	0.284580	0.167020	0.240250
C411	C41	0.541830	0.611940	0.587820
C421	C42	0.270230	0.787940	0.750730
C431	C43	0.958170	0.611940	0.087820
C441	C44	0.374200	0.772300	0.197060
C451	C45	0.349860	0.147130	0.284800
C461	C46	0.576200	0.467560	0.567270
C471	C47	0.579530	0.957660	0.651720
C481	C48	0.079530	0.042340	0.848280
C491	C49	0.706000	0.991720	0.728880
C501	C50	0.655960	0.868580	0.335140
C511	C51	0.729770	0.212060	0.249270
C521	C52	0.692490	0.216980	0.427360
C531	C53	0.130400	0.779220	0.816730
C541	C54	0.169300	0.974600	0.005940
C551	C55	0.169500	0.774100	0.638920
C561	C56	0.100450	0.373410	0.962500
C571	C57	0.830500	0.225900	0.361080
C581	C58	0.625800	0.227700	0.802940
C591	C59	0.322800	0.779890	0.253270
C601	C60	0.669300	0.025400	0.494060
C611	C61	0.263890	0.780800	0.635460
C621	C62	0.636900	0.483520	0.518120
C631	C63	0.726450	0.891930	0.288500
C641	C64	0.849860	0.852870	0.215200
C651	C65	0.923800	0.467560	0.067270
C661	C66	0.106920	0.290690	0.984970
C671	C67	0.530100	0.531060	0.601780
C681	C68	0.177200	0.779890	0.753270
C691	C69	0.192490	0.783020	0.072640
C701	C70	0.600450	0.626590	0.537500
C711	C71	0.458170	0.388060	0.412180
C721	C72	0.807510	0.216980	0.927360
C731	C73	0.869600	0.220780	0.183270
C741	C74	0.354530	0.067000	0.300940
C751	C75	0.393080	0.290690	0.484970
C761	C76	0.076200	0.532440	0.932730
C771	C77	0.815650	0.210420	0.807710
C781	C78	0.147400	0.438260	0.996210
C791	C79	0.344040	0.131420	0.664860
C801	C80	0.715420	0.832980	0.759750
C811	C81	0.730800	0.972220	0.273780
C821	C82	0.630400	0.220780	0.683270
C831	C83	0.969900	0.531060	0.101780
C841	C84	0.557100	0.379400	0.578820
C851	C85	0.330500	0.774100	0.138920
C861	C86	0.399550	0.373410	0.462500
C871	C87	0.315650	0.789580	0.692290
C881	C88	0.769200	0.972220	0.773780
C891	C89	0.423800	0.532440	0.432730
C901	C90	0.469900	0.468940	0.398220
C911	C91	0.273550	0.108070	0.711500
C921	C92	0.942900	0.379400	0.078820
C931	C93	0.874200	0.227700	0.302940
C941	C94	0.647400	0.561740	0.503790
C951	C95	0.330700	0.974600	0.505940
C961	C96	0.899550	0.626590	0.037500
C971	C97	0.136900	0.516480	0.981880
C981	C98	0.057100	0.620600	0.921180
C991	C99	0.294000	0.008280	0.271120
C1001	C100	0.363100	0.516480	0.481880
O11	O1	0.817760	0.215500	0.135070
O21	O2	0.994870	0.633210	0.883300
O31	O3	0.359110	0.283450	0.537980
O41	O4	0.988280	0.167920	0.050570
O51	O5	0.851540	0.793500	0.841270
O61	O6	0.182240	0.784500	0.864930
O71	O7	0.104500	0.673330	0.953140
O81	O8	0.511720	0.167920	0.550570
O91	O9	0.140890	0.283450	0.037980
O101	O10	0.011720	0.832080	0.949430
O111	O11	0.980270	0.906550	0.126390
O121	O12	0.640890	0.716550	0.462020
O131	O13	0.796760	0.086300	0.024180
O141	O14	0.351540	0.206500	0.658730
O151	O15	0.682240	0.215500	0.635070
O161	O16	0.545200	0.227810	0.684000
O171	O17	0.019730	0.093450	0.873610
O181	O18	0.480270	0.093450	0.373610
O191	O19	0.926010	0.771740	0.051140
O201	O20	0.317760	0.784500	0.364930
O211	O21	0.454800	0.772190	0.316000
O221	O22	0.993630	0.328650	0.877880
O231	O23	0.761920	0.228650	0.978060
O241	O24	0.916820	0.029190	0.137120
O251	O25	0.426010	0.228260	0.448860
O261	O26	0.505130	0.633210	0.383300
O271	O27	0.005130	0.366790	0.116700
O281	O28	0.083180	0.970810	0.862880
O291	O29	0.084790	0.993270	0.004760
O301	O30	0.416820	0.970810	0.362880
O311	O31	0.094150	0.797650	0.193450
O321	O32	0.393110	0.799770	0.569350
O331	O33	0.573990	0.771740	0.551140
O341	O34	0.610650	0.926050	0.364230
O351	O35	0.493630	0.671350	0.622120
O361	O36	0.893110	0.200230	0.930650
O371	O37	0.915210	0.006730	0.995240
O381	O38	0.604500	0.326670	0.546860
O391	O39	0.238080	0.771350	0.021940
O401	O40	0.045200	0.772190	0.816000
O411	O41	0.648460	0.793500	0.341270
O421	O42	0.606890	0.200230	0.430650
O431	O43	0.415210	0.993270	0.504760
O441	O44	0.904630	0.793430	0.188680
O451	O45	0.584790	0.006730	0.495240
O461	O46	0.889350	0.926050	0.864230
O471	O47	0.389350	0.073950	0.635770
O481	O48	0.859110	0.716550	0.962020
O491	O49	0.106890	0.799770	0.069350
O501	O50	0.895500	0.326670	0.046860
O511	O51	0.494870	0.366790	0.616700
O521	O52	0.594150	0.202350	0.306550
O531	O53	0.738080	0.228650	0.478060
O541	O54	0.703240	0.086300	0.524180
O551	O55	0.954800	0.227810	0.184000
O561	O56	0.006370	0.671350	0.122120
O571	O57	0.583180	0.029190	0.637120
O581	O58	0.519730	0.906550	0.626390
O591	O59	0.203240	0.913700	0.975820
O601	O60	0.395500	0.673330	0.453140
O611	O61	0.148460	0.206500	0.158730
O621	O62	0.905850	0.202350	0.806550
O631	O63	0.110650	0.073950	0.135770
O641	O64	0.488280	0.832080	0.449430
O651	O65	0.296760	0.913700	0.475820
O661	O66	0.405850	0.797650	0.693450
O671	O67	0.595370	0.793430	0.688680
O681	O68	0.073990	0.228260	0.948860
O691	O69	0.261920	0.771350	0.521940
O701	O70	0.506370	0.328650	0.377880
O711	O71	0.095370	0.206570	0.811320
O721	O72	0.404630	0.206570	0.311320
