data_ic402058f_si_003_clean_PM
_symmetry_space_group_name_H-M	'P1'
_cell_length_a	11.075000
_cell_length_b	15.438000
_cell_length_c	19.180000
_cell_angle_alpha	95.796000
_cell_angle_beta	90.000000
_cell_angle_gamma	90.000000
_symmetry_Int_Tables_number 1

loop_
_symmetry_equiv_pos_as_xyz
'x,y,z'

loop_
_atom_site_label
_atom_site_type_symbol
_atom_site_fract_x
_atom_site_fract_y
_atom_site_fract_z
Cd11	Cd1	0.454960	0.500000	0.250000
Cd21	Cd2	0.442370	0.543950	0.922260
Cd31	Cd3	0.557630	0.456050	0.077740
Cd41	Cd4	0.545040	0.500000	0.750000
Cd51	Cd5	0.442370	0.456050	0.577740
Cd61	Cd6	0.557630	0.543950	0.422260
H11	H1	0.766100	0.906700	0.259900
H21	H2	0.192500	0.157600	0.447100
H31	H3	0.079200	0.807500	0.511800
H41	H4	0.137600	0.327500	0.211700
H51	H5	0.286900	0.834200	0.253900
H61	H6	0.604200	0.707300	0.723400
H71	H7	0.871200	0.932400	0.876500
H81	H8	0.021000	0.842000	0.668000
H91	H9	0.233900	0.093300	0.740100
H101	H10	0.772600	0.978500	0.415000
H111	H11	0.718700	0.815400	0.344400
H121	H12	0.287000	0.710900	0.609600
H131	H13	0.704100	0.713100	0.522600
H141	H14	0.079200	0.192500	0.988200
H151	H15	0.979000	0.158000	0.332000
H161	H16	0.329100	0.618900	0.694200
H171	H17	0.862400	0.672500	0.788300
H181	H18	0.192500	0.842400	0.052900
H191	H19	0.670900	0.618900	0.194200
H201	H20	0.329100	0.381100	0.805800
H211	H21	0.862400	0.327500	0.711700
H221	H22	0.979000	0.842000	0.168000
H231	H23	0.015100	0.226100	0.690100
H241	H24	0.227400	0.021500	0.585000
H251	H25	0.295900	0.286900	0.477400
H261	H26	0.713000	0.710900	0.109600
H271	H27	0.287000	0.289100	0.890400
H281	H28	0.920800	0.807500	0.011800
H291	H29	0.233900	0.906700	0.759900
H301	H30	0.227400	0.978500	0.915000
H311	H31	0.128800	0.932400	0.376500
H321	H32	0.713100	0.834200	0.753900
H331	H33	0.704100	0.286900	0.977400
H341	H34	0.984900	0.226100	0.190100
H351	H35	0.021000	0.158000	0.832000
H361	H36	0.766500	0.706100	0.990000
H371	H37	0.920800	0.192500	0.488200
H381	H38	0.233500	0.706100	0.490000
H391	H39	0.871200	0.067600	0.623500
H401	H40	0.807500	0.842400	0.552900
H411	H41	0.395800	0.707300	0.223400
H421	H42	0.281300	0.815400	0.844400
H431	H43	0.670900	0.381100	0.305800
H441	H44	0.807500	0.157600	0.947100
H451	H45	0.281300	0.184600	0.655600
H461	H46	0.137600	0.672500	0.288300
H471	H47	0.766500	0.293900	0.510000
H481	H48	0.766100	0.093300	0.240100
H491	H49	0.713000	0.289100	0.390400
H501	H50	0.772600	0.021500	0.085000
H511	H51	0.015100	0.773900	0.809900
H521	H52	0.233500	0.293900	0.010000
H531	H53	0.718700	0.184600	0.155600
H541	H54	0.713100	0.165800	0.746100
H551	H55	0.984900	0.773900	0.309900
H561	H56	0.128800	0.067600	0.123500
H571	H57	0.295900	0.713100	0.022600
H581	H58	0.604200	0.292700	0.776600
H591	H59	0.286900	0.165800	0.246100
H601	H60	0.395800	0.292700	0.276600
C11	C1	0.259200	0.181600	0.822700
C21	C2	0.704200	0.737700	0.568900
C31	C3	0.354800	0.733900	0.189000
C41	C4	0.861400	0.075200	0.372500
C51	C5	0.289900	0.810200	0.207500
C61	C6	0.313700	0.292600	0.722200
C71	C7	0.295800	0.262300	0.431100
C81	C8	0.873900	0.300300	0.666700
C91	C9	0.289900	0.189800	0.292500
C101	C10	0.744700	0.150900	0.253300
C111	C11	0.687700	0.322800	0.292400
C121	C12	0.861400	0.924800	0.127500
C131	C13	0.770100	0.150200	0.844300
C141	C14	0.229900	0.150200	0.344300
C151	C15	0.938400	0.968500	0.875900
C161	C16	0.255300	0.150900	0.753300
C171	C17	0.800200	0.321000	0.612800
C181	C18	0.572100	0.615000	0.602600
C191	C19	0.232600	0.814800	0.087100
C201	C20	0.847000	0.004000	0.101200
C211	C21	0.306000	0.617100	0.371100
C221	C22	0.800200	0.679000	0.887200
C231	C23	0.645200	0.733900	0.689000
C241	C24	0.138600	0.075200	0.872500
C251	C25	0.286300	0.731800	0.656800
C261	C26	0.352200	0.351500	0.669400
C271	C27	0.641000	0.697000	0.619700
C281	C28	0.847000	0.996000	0.398800
C291	C29	0.255300	0.849100	0.746700
C301	C30	0.138600	0.924800	0.627500
C311	C31	0.050700	0.943300	0.900100
C321	C32	0.572100	0.385000	0.897400
C331	C33	0.359000	0.697000	0.119700
C341	C34	0.873900	0.699700	0.833300
C351	C35	0.050700	0.056700	0.599900
C361	C36	0.126100	0.300300	0.166700
C371	C37	0.199800	0.321000	0.112800
C381	C38	0.313700	0.707400	0.777800
C391	C39	0.306000	0.382900	0.128900
C401	C40	0.312300	0.677200	0.707600
C411	C41	0.061600	0.968500	0.375900
C421	C42	0.931700	0.951300	0.648700
C431	C43	0.091700	0.219200	0.033300
C441	C44	0.979700	0.801200	0.912900
C451	C45	0.713700	0.268200	0.343200
C461	C46	0.713700	0.731800	0.156800
C471	C47	0.035400	0.239500	0.154000
C481	C48	0.964600	0.239500	0.654000
C491	C49	0.686300	0.292600	0.222200
C501	C50	0.744700	0.849100	0.246700
C511	C51	0.020300	0.801200	0.412900
C521	C52	0.068300	0.048700	0.351300
C531	C53	0.687700	0.677200	0.207600
C541	C54	0.645200	0.266100	0.811000
C551	C55	0.641000	0.303000	0.880300
C561	C56	0.427900	0.385000	0.397400
C571	C57	0.153000	0.996000	0.898800
C581	C58	0.931700	0.048700	0.851300
C591	C59	0.091700	0.780800	0.466700
C601	C60	0.694000	0.617100	0.871100
C611	C61	0.283100	0.794200	0.797200
C621	C62	0.716900	0.794200	0.297200
C631	C63	0.126100	0.699700	0.333300
C641	C64	0.949300	0.056700	0.099900
C651	C65	0.816600	0.719600	0.953700
C661	C66	0.767400	0.185200	0.912900
C671	C67	0.816600	0.280400	0.546300
C681	C68	0.359000	0.303000	0.380300
C691	C69	0.259200	0.818400	0.677300
C701	C70	0.153000	0.004000	0.601200
C711	C71	0.199800	0.679000	0.387200
C721	C72	0.971300	0.896100	0.151200
C731	C73	0.938400	0.031500	0.624100
C741	C74	0.704200	0.262300	0.931100
C751	C75	0.427900	0.615000	0.102600
C761	C76	0.770100	0.849800	0.655700
C771	C77	0.061600	0.031500	0.124100
C781	C78	0.716900	0.205800	0.202800
C791	C79	0.908300	0.219200	0.533300
C801	C80	0.035400	0.760500	0.346000
C811	C81	0.229900	0.849800	0.155700
C821	C82	0.647800	0.351500	0.169400
C831	C83	0.647800	0.648500	0.330600
C841	C84	0.686300	0.707400	0.277800
C851	C85	0.028700	0.103900	0.848800
C861	C86	0.232600	0.185200	0.412900
C871	C87	0.740800	0.818400	0.177300
C881	C88	0.710100	0.189800	0.792500
C891	C89	0.020300	0.198800	0.087100
C901	C90	0.286300	0.268200	0.843200
C911	C91	0.028700	0.896100	0.651200
C921	C92	0.312300	0.322800	0.792400
C931	C93	0.908300	0.780800	0.966700
C941	C94	0.694000	0.382900	0.628900
C951	C95	0.354800	0.266100	0.311000
C961	C96	0.710100	0.810200	0.707500
C971	C97	0.183400	0.280400	0.046300
C981	C98	0.740800	0.181600	0.322700
C991	C99	0.971300	0.103900	0.348800
C1001	C100	0.964600	0.760500	0.846000
C1011	C101	0.767400	0.814800	0.587100
C1021	C102	0.283100	0.205800	0.702800
C1031	C103	0.068300	0.951300	0.148700
C1041	C104	0.949300	0.943300	0.400100
C1051	C105	0.295800	0.737700	0.068900
C1061	C106	0.352200	0.648500	0.830600
C1071	C107	0.979700	0.198800	0.587100
C1081	C108	0.183400	0.719600	0.453700
O11	O1	0.326600	0.591600	0.308400
O21	O2	0.673400	0.591600	0.808400
O31	O3	0.610800	0.572800	0.309000
O41	O4	0.467400	0.426600	0.348700
O51	O5	0.532600	0.573400	0.651300
O61	O6	0.760200	0.871900	0.124300
O71	O7	0.467400	0.573400	0.151300
O81	O8	0.389200	0.572800	0.809000
O91	O9	0.930500	0.863700	0.426800
O101	O10	0.631900	0.401900	0.576000
O111	O11	0.180400	0.069800	0.323700
O121	O12	0.447600	0.413200	0.460200
O131	O13	0.348500	0.672300	0.894600
O141	O14	0.552400	0.586800	0.539800
O151	O15	0.930500	0.136300	0.073200
O161	O16	0.447600	0.586800	0.039800
O171	O17	0.368100	0.401900	0.076000
O181	O18	0.552400	0.413200	0.960200
O191	O19	0.326600	0.408400	0.191600
O201	O20	0.760200	0.128100	0.375700
O211	O21	0.348500	0.327700	0.605400
O221	O22	0.069500	0.136300	0.573200
O231	O23	0.651500	0.327700	0.105400
O241	O24	0.239800	0.871900	0.624300
O251	O25	0.180400	0.930200	0.176300
O261	O26	0.239800	0.128100	0.875700
O271	O27	0.389200	0.427200	0.691000
O281	O28	0.610800	0.427200	0.191000
O291	O29	0.819600	0.069800	0.823700
O301	O30	0.631900	0.598100	0.924000
O311	O31	0.532600	0.426600	0.848700
O321	O32	0.673400	0.408400	0.691600
O331	O33	0.368100	0.598100	0.424000
O341	O34	0.651500	0.672300	0.394600
O351	O35	0.819600	0.930200	0.676300
O361	O36	0.069500	0.863700	0.926800
