data_ic502643m_si_009_clean_PM
_symmetry_space_group_name_H-M	'P1'
_cell_length_a	10.298000
_cell_length_b	31.351100
_cell_length_c	31.469000
_cell_angle_alpha	90.000000
_cell_angle_beta	90.000000
_cell_angle_gamma	91.615900
_symmetry_Int_Tables_number 1

loop_
_symmetry_equiv_pos_as_xyz
'x,y,z'

loop_
_atom_site_label
_atom_site_type_symbol
_atom_site_fract_x
_atom_site_fract_y
_atom_site_fract_z
Zn11	Zn1	0.474350	0.182840	0.893740
Zn21	Zn2	0.030220	0.388430	0.321150
Zn31	Zn3	0.025650	0.317160	0.393740
Zn41	Zn4	0.623760	0.201300	0.809040
Zn51	Zn5	0.669200	0.801570	0.194270
Zn61	Zn6	0.530220	0.888430	0.178850
Zn71	Zn7	0.974350	0.682840	0.606260
Zn81	Zn8	0.830800	0.698430	0.694270
Zn91	Zn9	0.525650	0.817160	0.106260
Zn101	Zn10	0.330800	0.198430	0.805730
Zn111	Zn11	0.469780	0.111570	0.821150
Zn121	Zn12	0.376240	0.798700	0.190960
Zn131	Zn13	0.169200	0.301570	0.305730
Zn141	Zn14	0.123760	0.701300	0.690960
Zn151	Zn15	0.876240	0.298700	0.309040
Zn161	Zn16	0.969780	0.611570	0.678850
H11	H1	0.533100	0.019500	0.894200
H21	H2	0.340700	0.469500	0.270900
H31	H3	0.448400	0.250000	0.535900
H41	H4	0.186500	0.895700	0.702400
H51	H5	0.279200	0.334900	0.768000
H61	H6	0.818100	0.907800	0.742100
H71	H7	0.159300	0.030500	0.770900
H81	H8	0.313500	0.604300	0.202400
H91	H9	0.852700	0.176500	0.308600
H101	H10	0.674800	0.733000	0.523600
H111	H11	0.110300	0.277400	0.095600
H121	H12	0.840700	0.969500	0.229100
H131	H13	0.779200	0.834900	0.732000
H141	H14	0.966900	0.480500	0.394200
H151	H15	0.051600	0.250000	0.035900
H161	H16	0.430900	0.042700	0.067100
H171	H17	0.231000	0.970000	0.230800
H181	H18	0.813500	0.104300	0.297600
H191	H19	0.466900	0.980500	0.105800
H201	H20	0.356200	0.206700	0.665900
H211	H21	0.896500	0.966700	0.767200
H221	H22	0.143800	0.293300	0.165900
H231	H23	0.741300	0.226400	0.683600
H241	H24	0.720800	0.665100	0.232000
H251	H25	0.643800	0.793300	0.334100
H261	H26	0.241300	0.726400	0.816400
H271	H27	0.485700	0.719000	0.633600
H281	H28	0.181900	0.092200	0.257900
H291	H29	0.469900	0.639100	0.708400
H301	H30	0.396500	0.466700	0.732800
H311	H31	0.610300	0.777400	0.404400
H321	H32	0.985700	0.219000	0.866400
H331	H33	0.318100	0.407800	0.757900
H341	H34	0.530100	0.360900	0.291600
H351	H35	0.389700	0.222600	0.595600
H361	H36	0.569100	0.957300	0.932900
H371	H37	0.731000	0.470000	0.269200
H381	H38	0.147300	0.823500	0.691400
H391	H39	0.930900	0.542700	0.432900
H401	H40	0.771200	0.244200	0.612200
H411	H41	0.728800	0.255800	0.112200
H421	H42	0.769000	0.030000	0.769200
H431	H43	0.945100	0.579800	0.496800
H441	H44	0.948400	0.750000	0.964100
H451	H45	0.825200	0.767000	0.023600
H461	H46	0.758700	0.273600	0.183600
H471	H47	0.856200	0.706700	0.834100
H481	H48	0.681900	0.592200	0.242100
H491	H49	0.069100	0.457300	0.567100
H501	H50	0.514300	0.281000	0.366400
H511	H51	0.174800	0.233000	0.976400
H521	H52	0.445100	0.079800	0.003200
H531	H53	0.269000	0.530000	0.730800
H541	H54	0.220800	0.165100	0.268000
H551	H55	0.782600	0.236600	0.973800
H561	H56	0.054900	0.420200	0.503200
H571	H57	0.030100	0.860900	0.208400
H581	H58	0.103500	0.033300	0.232800
H591	H59	0.889700	0.722600	0.904400
H601	H60	0.551600	0.750000	0.464100
H611	H61	0.228800	0.755800	0.387800
H621	H62	0.033100	0.519500	0.605800
H631	H63	0.014300	0.781000	0.133600
H641	H64	0.717400	0.263400	0.473800
H651	H65	0.686500	0.395700	0.797600
H661	H66	0.659300	0.530500	0.729100
H671	H67	0.217400	0.763400	0.026200
H681	H68	0.325200	0.267000	0.476400
H691	H69	0.647300	0.323500	0.808600
H701	H70	0.271200	0.744200	0.887800
H711	H71	0.282600	0.736600	0.526200
H721	H72	0.352700	0.676500	0.191400
H731	H73	0.258700	0.773600	0.316400
H741	H74	0.554900	0.920200	0.996800
H751	H75	0.969900	0.139100	0.791600
H761	H76	0.603500	0.533300	0.267200
C11	C1	0.975390	0.518790	0.490250
C21	C2	0.045790	0.716090	0.819760
C31	C3	0.978760	0.236760	0.982650
C41	C4	0.036070	0.976670	0.232050
C51	C5	0.515560	0.944060	0.054740
C61	C6	0.023670	0.408870	0.412700
C71	C7	0.493580	0.590580	0.222760
C81	C8	0.635900	0.274900	0.417220
C91	C9	0.921860	0.264260	0.095750
C101	C10	0.484440	0.055940	0.945260
C111	C11	0.417970	0.454970	0.273040
C121	C12	0.506420	0.409420	0.777240
C131	C13	0.438290	0.214090	0.655430
C141	C14	0.719640	0.714640	0.604730
C151	C15	0.040100	0.178000	0.289110
C161	C16	0.061710	0.285910	0.155430
C171	C17	0.351210	0.588010	0.719230
C181	C18	0.596460	0.722760	0.581410
C191	C19	0.170860	0.726460	0.834810
C201	C20	0.542900	0.981800	0.946820
C211	C21	0.113640	0.746740	0.949670
C221	C22	0.548220	0.718020	0.200900
C231	C23	0.210670	0.112970	0.789150
C241	C24	0.280360	0.285360	0.395270
C251	C25	0.861410	0.233310	0.959950
C261	C26	0.403540	0.277240	0.418590
C271	C27	0.886360	0.253260	0.050330
C281	C28	0.219640	0.214640	0.895270
C291	C29	0.578140	0.235740	0.595750
C301	C30	0.310800	0.763200	0.377320
C311	C31	0.954210	0.283910	0.180240
C321	C32	0.096800	0.231100	0.961540
C331	C33	0.478760	0.736760	0.517350
C341	C34	0.115940	0.109140	0.268040
C351	C35	0.976330	0.591130	0.587300
C361	C36	0.461070	0.223970	0.613670
C371	C37	0.022100	0.519100	0.576480
C381	C38	0.864100	0.225100	0.917220
C391	C39	0.361410	0.733310	0.540050
C401	C40	0.151890	0.955290	0.227820
C411	C41	0.006420	0.909420	0.722760
C421	C42	0.246610	0.717410	0.606240
C431	C43	0.461350	0.544350	0.231320
C441	C44	0.526750	0.205650	0.724260
C451	C45	0.384060	0.390860	0.768040
C461	C46	0.968600	0.110000	0.785560
C471	C47	0.963930	0.023330	0.767950
C481	C48	0.596800	0.731100	0.538460
C491	C49	0.253390	0.782590	0.106240
C501	C50	0.984440	0.555940	0.554740
C511	C51	0.476330	0.091130	0.912700
C521	C52	0.024610	0.481210	0.509750
C531	C53	0.078140	0.735740	0.904250
C541	C54	0.769250	0.388850	0.292870
C551	C55	0.545790	0.216090	0.680240
C561	C56	0.463930	0.523330	0.732050
C571	C57	0.418550	0.659650	0.201770
C581	C58	0.016290	0.778190	0.104140
C591	C59	0.523670	0.908870	0.087300
C601	C60	0.015560	0.444060	0.445260
C611	C61	0.973250	0.294350	0.224260
C621	C62	0.468600	0.610000	0.714440
C631	C63	0.457100	0.018200	0.053180
C641	C64	0.884060	0.890860	0.731960
C651	C65	0.538650	0.455650	0.768680
C661	C66	0.965190	0.554990	0.511240
C671	C67	0.983710	0.221810	0.895860
C681	C68	0.082030	0.045030	0.773040
C691	C69	0.269250	0.888850	0.207130
C701	C70	0.521240	0.263240	0.482650
C711	C71	0.638590	0.266690	0.459950
C721	C72	0.903540	0.777240	0.081410
C731	C73	0.615940	0.609140	0.231960
C741	C74	0.415320	0.411120	0.281450
C751	C75	0.689200	0.236800	0.622680
C761	C76	0.957100	0.518200	0.446820
C771	C77	0.026750	0.705650	0.775740
C781	C78	0.139470	0.152870	0.274020
C791	C79	0.582030	0.545030	0.726960
C801	C80	0.395380	0.616280	0.208080
C811	C81	0.959900	0.822000	0.710890
C821	C82	0.148790	0.911990	0.219230
C831	C83	0.961350	0.044350	0.268680
C841	C84	0.829140	0.273540	0.165190
C851	C85	0.048220	0.218020	0.299100
C861	C86	0.951780	0.781980	0.700900
C871	C87	0.584680	0.588880	0.718550
C881	C88	0.421860	0.764260	0.404250
C891	C89	0.364100	0.725100	0.582780
C901	C90	0.104620	0.883720	0.708080
C911	C91	0.477900	0.980900	0.076480
C921	C92	0.604620	0.383720	0.791920
C931	C93	0.895380	0.116280	0.291920
C941	C94	0.289330	0.387030	0.289150
C951	C95	0.531400	0.390000	0.285560
C961	C96	0.938290	0.714090	0.844570
C971	C97	0.473250	0.794350	0.275740
C981	C98	0.021240	0.763240	0.017350
C991	C99	0.360530	0.347130	0.774020
C1001	C100	0.042900	0.481800	0.553180
C1011	C101	0.031400	0.890000	0.214440
C1021	C102	0.459900	0.322000	0.789110
C1031	C103	0.329140	0.773540	0.334810
C1041	C104	0.534810	0.945010	0.011240
C1051	C105	0.451780	0.281980	0.799100
C1061	C106	0.848110	0.044710	0.772180
C1071	C107	0.648790	0.411990	0.280770
C1081	C108	0.670860	0.226460	0.665190
C1091	C109	0.135900	0.774900	0.082780
C1101	C110	0.710670	0.612970	0.710850
C1111	C111	0.753390	0.282590	0.393760
C1121	C112	0.851210	0.088010	0.780770
C1131	C113	0.084680	0.088880	0.781450
C1141	C114	0.581450	0.340350	0.798230
C1151	C115	0.516290	0.278190	0.395860
C1161	C116	0.536070	0.476670	0.267950
C1171	C117	0.917970	0.954970	0.226960
C1181	C118	0.483710	0.721810	0.604140
C1191	C119	0.403200	0.268900	0.461540
C1201	C120	0.780360	0.785360	0.104730
C1211	C121	0.810800	0.263200	0.122680
C1221	C122	0.961070	0.723970	0.886330
C1231	C123	0.475390	0.018790	0.009750
C1241	C124	0.977900	0.480900	0.423520
C1251	C125	0.538930	0.776030	0.386330
C1261	C126	0.993580	0.090580	0.277240
C1271	C127	0.386360	0.753260	0.449670
C1281	C128	0.613640	0.246740	0.550330
C1291	C129	0.540100	0.678000	0.210890
C1301	C130	0.789330	0.887030	0.210850
C1311	C131	0.651890	0.455290	0.272180
C1321	C132	0.915320	0.911120	0.218550
C1331	C133	0.038650	0.955650	0.731320
C1341	C134	0.730750	0.111150	0.792870
C1351	C135	0.189200	0.736800	0.877320
C1361	C136	0.524610	0.981210	0.990250
C1371	C137	0.860530	0.847130	0.725980
C1381	C138	0.465190	0.054990	0.988760
C1391	C139	0.081450	0.840350	0.701770
C1401	C140	0.903200	0.768900	0.038460
C1411	C141	0.230750	0.611150	0.707130
C1421	C142	0.348110	0.544710	0.727820
C1431	C143	0.561710	0.785910	0.344570
C1441	C144	0.034810	0.445010	0.488760
C1451	C145	0.038930	0.276030	0.113670
C1461	C146	0.918550	0.159650	0.298230
C1471	C147	0.096460	0.222760	0.918590
C1481	C148	0.639470	0.652870	0.225980
C1491	C149	0.522100	0.019100	0.923520
C1501	C150	0.746610	0.217410	0.893760
C1511	C151	0.138590	0.766690	0.040050
C1521	C152	0.454210	0.783910	0.319760
N11	N1	0.961270	0.980860	0.756340
N21	N2	0.975600	0.247100	0.024750
N31	N3	0.475600	0.747100	0.475250
N41	N4	0.461270	0.480860	0.743660
N51	N5	0.038730	0.019140	0.243660
N61	N6	0.538730	0.519140	0.256340
N71	N7	0.024400	0.752900	0.975250
N81	N8	0.524400	0.252900	0.524750
O11	O1	0.820190	0.709040	0.582020
O21	O2	0.785570	0.791550	0.142850
O31	O3	0.179810	0.290960	0.417980
O41	O4	0.167070	0.243360	0.288450
O51	O5	0.768670	0.251280	0.043470
O61	O6	0.456510	0.734130	0.184320
O71	O7	0.980850	0.628890	0.575590
O81	O8	0.372580	0.784040	0.254150
O91	O9	0.525530	0.921270	0.126730
O101	O10	0.251040	0.719330	0.645190
O111	O11	0.474900	0.170380	0.833160
O121	O12	0.421660	0.188600	0.734230
O131	O13	0.748960	0.280670	0.354810
O141	O14	0.332930	0.256640	0.788450
O151	O15	0.025530	0.421270	0.373270
O161	O16	0.706550	0.651740	0.711720
O171	O17	0.268670	0.751280	0.456530
O181	O18	0.285570	0.291550	0.357150
O191	O19	0.262450	0.851190	0.200090
O201	O20	0.737550	0.148810	0.799910
O211	O21	0.875080	0.410490	0.293410
O221	O22	0.124920	0.589510	0.706590
O231	O23	0.474470	0.078730	0.873270
O241	O24	0.206550	0.151740	0.788280
O251	O25	0.667070	0.743360	0.211550
O261	O26	0.631990	0.468740	0.785030
O271	O27	0.692540	0.908780	0.205490
O281	O28	0.624920	0.089510	0.793410
O291	O29	0.307460	0.091220	0.794510
O301	O30	0.868010	0.031260	0.285030
O311	O31	0.974470	0.578730	0.626730
O321	O32	0.127420	0.715960	0.754150
O331	O33	0.237550	0.648810	0.700090
O341	O34	0.974900	0.670380	0.666840
O351	O35	0.793450	0.848260	0.211720
O361	O36	0.192540	0.408780	0.294510
O371	O37	0.762450	0.351190	0.299910
O381	O38	0.714430	0.708450	0.642850
O391	O39	0.320190	0.209040	0.917980
O401	O40	0.043490	0.765870	0.684320
O411	O41	0.375080	0.910490	0.206590
O421	O42	0.368010	0.531260	0.214970
O431	O43	0.832930	0.756640	0.711550
O441	O44	0.807460	0.591220	0.705490
O451	O45	0.956510	0.234130	0.315680
O461	O46	0.293450	0.348260	0.288280
O471	O47	0.627420	0.215960	0.745850
O481	O48	0.731330	0.248720	0.543470
O491	O49	0.480850	0.128890	0.924410
O501	O50	0.025100	0.329620	0.333160
O511	O51	0.679810	0.790960	0.082020
O521	O52	0.355240	0.788920	0.085630
O531	O53	0.543490	0.265870	0.815680
O541	O54	0.131990	0.968740	0.714970
O551	O55	0.519150	0.871110	0.075590
O561	O56	0.644760	0.211080	0.914370
O571	O57	0.078340	0.311400	0.234230
O581	O58	0.855240	0.288920	0.414370
O591	O59	0.578340	0.811400	0.265770
O601	O60	0.751040	0.219330	0.854810
O611	O61	0.921660	0.688600	0.765770
O621	O62	0.248960	0.780670	0.145190
O631	O63	0.872580	0.284040	0.245850
O641	O64	0.019150	0.371110	0.424410
O651	O65	0.144760	0.711080	0.585630
O661	O66	0.525100	0.829620	0.166840
O671	O67	0.214430	0.208450	0.857150
O681	O68	0.231330	0.748720	0.956530
