data_ic501898x_si_005_clean_PM
_symmetry_space_group_name_H-M	'P1'
_cell_length_a	10.502700
_cell_length_b	20.828700
_cell_length_c	20.828700
_cell_angle_alpha	86.355600
_cell_angle_beta	75.396900
_cell_angle_gamma	75.397100
_symmetry_Int_Tables_number 1

loop_
_symmetry_equiv_pos_as_xyz
'x,y,z'

loop_
_atom_site_label
_atom_site_type_symbol
_atom_site_fract_x
_atom_site_fract_y
_atom_site_fract_z
Mn11	Mn1	0.054140	0.723480	0.186000
Mn21	Mn2	0.759860	0.186000	0.776520
Mn31	Mn3	0.463620	0.776520	0.314000
Mn41	Mn4	0.222380	0.314000	0.723480
Mn51	Mn5	0.945860	0.276520	0.814000
Mn61	Mn6	0.240140	0.814000	0.223480
Mn71	Mn7	0.536380	0.223480	0.686000
Mn81	Mn8	0.777620	0.686000	0.276520
H11	H1	0.884900	0.873100	0.134700
H21	H2	0.649100	0.023500	0.597100
H31	H3	0.475100	0.515600	0.383200
H41	H4	0.888100	0.168100	0.115100
H51	H5	0.126100	0.015600	0.883200
H61	H6	0.980400	0.134700	0.626900
H71	H7	0.392700	0.626900	0.365300
H81	H8	0.404900	0.222300	0.029300
H91	H9	0.056200	0.615100	0.831900
H101	H10	0.629200	0.296100	0.492300
H111	H11	0.843500	0.722300	0.529300
H121	H12	0.372800	0.470700	0.222300
H131	H13	0.996800	0.115100	0.331900
H141	H14	0.943800	0.384900	0.168100
H151	H15	0.246200	0.402900	0.523500
H161	H16	0.874100	0.702700	0.417900
H171	H17	0.725000	0.915000	0.562400
H181	H18	0.672600	0.097100	0.976500
H191	H19	0.121500	0.507700	0.796100
H201	H20	0.082400	0.796100	0.992300
H211	H21	0.494700	0.797300	0.082100
H221	H22	0.009300	0.116800	0.515600
H231	H23	0.524900	0.484400	0.616800
H241	H24	0.873900	0.984400	0.116800
H251	H25	0.141700	0.383200	0.984400
H261	H26	0.627200	0.529300	0.777700
H271	H27	0.327400	0.902900	0.023500
H281	H28	0.003200	0.884900	0.668100
H291	H29	0.712600	0.562400	0.585000
H301	H30	0.156500	0.277700	0.470700
H311	H31	0.019600	0.865300	0.373100
H321	H32	0.423200	0.082100	0.702700
H331	H33	0.576800	0.917900	0.297300
H341	H34	0.925300	0.992300	0.703900
H351	H35	0.287400	0.437600	0.415000
H361	H36	0.858300	0.616800	0.015600
H371	H37	0.350900	0.976500	0.402900
H381	H38	0.990700	0.883200	0.484400
H391	H39	0.702400	0.585000	0.937600
H401	H40	0.125900	0.297300	0.582100
H411	H41	0.434200	0.970700	0.722300
H421	H42	0.607300	0.373100	0.634700
H431	H43	0.230300	0.523500	0.097100
H441	H44	0.640000	0.062400	0.085000
H451	H45	0.297600	0.415000	0.062400
H461	H46	0.111900	0.831900	0.884900
H471	H47	0.753800	0.597100	0.476500
H481	H48	0.878500	0.492300	0.203900
H491	H49	0.595100	0.777700	0.970700
H501	H50	0.769700	0.476500	0.902900
H511	H51	0.292000	0.582100	0.202700
H521	H52	0.275000	0.085000	0.437600
H531	H53	0.758000	0.634700	0.126900
H541	H54	0.074700	0.007700	0.296100
H551	H55	0.370800	0.703900	0.507700
H561	H56	0.565800	0.029300	0.277700
H571	H57	0.505300	0.202700	0.917900
H581	H58	0.328700	0.668100	0.615100
H591	H59	0.360000	0.937600	0.915000
H601	H60	0.671300	0.331900	0.384900
H611	H61	0.917600	0.203900	0.007700
H621	H62	0.708000	0.417900	0.797300
H631	H63	0.115100	0.126900	0.865300
H641	H64	0.242000	0.365300	0.873100
C11	C1	0.667910	0.611810	0.504370
C21	C2	0.264990	0.116580	0.780840
C31	C3	0.240190	0.888070	0.888150
C41	C4	0.592450	0.679260	0.410440
C51	C5	0.947420	0.221640	0.398720
C61	C6	0.438710	0.529030	0.346750
C71	C7	0.720030	0.018370	0.195770
C81	C8	0.821870	0.904320	0.164140
C91	C9	0.817880	0.686180	0.907460
C101	C10	0.115170	0.022960	0.324900
C111	C11	0.212660	0.430530	0.090950
C121	C12	0.036970	0.522960	0.824900
C131	C13	0.362530	0.069020	0.738720
C141	C14	0.725340	0.092540	0.186180
C151	C15	0.221380	0.980080	0.345760
C161	C16	0.568450	0.761280	0.069020
C171	C17	0.997600	0.587380	0.846020
C181	C18	0.279720	0.004370	0.388190
C191	C19	0.052580	0.778360	0.601280
C201	C20	0.440070	0.675100	0.522960
C211	C21	0.561290	0.470970	0.653250
C221	C22	0.670270	0.430980	0.761280
C231	C23	0.128260	0.388150	0.111930
C241	C24	0.715910	0.111810	0.004370
C251	C25	0.986010	0.835860	0.404320
C261	C26	0.759810	0.111930	0.111850
C271	C27	0.963030	0.477040	0.175100
C281	C28	0.047220	0.519920	0.154240
C291	C29	0.271710	0.910440	0.320740
C301	C30	0.696390	0.090950	0.069470
C311	C31	0.705280	0.312130	0.734710
C321	C32	0.785460	0.653250	0.029030
C331	C33	0.182120	0.313820	0.092540
C341	C34	0.178130	0.095680	0.835860
C351	C35	0.560010	0.734710	0.187870
C361	C36	0.516410	0.611930	0.611850
C371	C37	0.067780	0.278360	0.101280
C381	C38	0.555030	0.639390	0.717950
C391	C39	0.567140	0.654240	0.480080
C401	C40	0.138130	0.824900	0.977040
C411	C41	0.279970	0.981630	0.804230
C421	C42	0.817850	0.179260	0.910440
C431	C43	0.565830	0.518370	0.695770
C441	C44	0.329730	0.569020	0.238720
C451	C45	0.101250	0.261280	0.569020
C461	C46	0.747880	0.812130	0.234710
C471	C47	0.982590	0.765290	0.312130
C481	C48	0.495940	0.592540	0.686180
C491	C49	0.337590	0.616580	0.280840
C501	C50	0.735010	0.883420	0.219160
C511	C51	0.628710	0.749360	0.002220
C521	C52	0.434170	0.481630	0.304230
C531	C53	0.843620	0.153980	0.087380
C541	C54	0.952780	0.480080	0.845760
C551	C55	0.778620	0.019920	0.654240
C561	C56	0.252120	0.187870	0.765290
C571	C57	0.261600	0.304230	0.018370
C581	C58	0.827720	0.504370	0.888190
C591	C59	0.798540	0.154240	0.980080
C601	C60	0.805580	0.782050	0.639390
C611	C61	0.381570	0.280840	0.883420
C621	C62	0.272980	0.282050	0.139390
C631	C63	0.884830	0.977040	0.675100
C641	C64	0.234140	0.069470	0.409050
C651	C65	0.618430	0.719160	0.116580
C661	C66	0.273810	0.335860	0.904320
C671	C67	0.084200	0.195770	0.481630
C681	C68	0.871740	0.611850	0.888070
C691	C69	0.880290	0.750640	0.497780
C701	C70	0.483590	0.388070	0.388150
C711	C71	0.032260	0.153250	0.529030
C721	C72	0.119710	0.249360	0.502220
C731	C73	0.559930	0.324900	0.477040
C741	C74	0.787340	0.569470	0.909050
C751	C75	0.201460	0.845760	0.019920
C761	C76	0.194420	0.217950	0.360610
C771	C77	0.637470	0.930980	0.261280
C781	C78	0.444970	0.360610	0.282050
C791	C79	0.630930	0.997780	0.249360
C801	C80	0.898750	0.738720	0.430980
C811	C81	0.284090	0.888190	0.995630
C821	C82	0.861870	0.175100	0.022960
C831	C83	0.182150	0.820740	0.089560
C841	C84	0.045830	0.219160	0.616580
C851	C85	0.954170	0.780840	0.383420
C861	C86	0.931000	0.912620	0.653980
C871	C87	0.439990	0.265290	0.812130
C881	C88	0.621930	0.497780	0.749360
C891	C89	0.738400	0.695770	0.981630
C901	C90	0.356810	0.409050	0.430530
C911	C91	0.002400	0.412620	0.153980
C921	C92	0.390330	0.595680	0.335860
C931	C93	0.346140	0.601280	0.721640
C941	C94	0.643190	0.590950	0.569470
C951	C95	0.720280	0.995630	0.611810
C961	C96	0.088480	0.186180	0.407460
C971	C97	0.932220	0.721640	0.898720
C981	C98	0.432860	0.345760	0.519920
C991	C99	0.013990	0.164140	0.595680
C1001	C100	0.504060	0.407460	0.313820
C1011	C101	0.002890	0.589560	0.179260
C1021	C102	0.915800	0.804230	0.518370
C1031	C103	0.911520	0.813820	0.592540
C1041	C104	0.871660	0.888150	0.611930
C1051	C105	0.371290	0.250640	0.997780
C1061	C106	0.584980	0.346020	0.412620
C1071	C107	0.727020	0.717950	0.860610
C1081	C108	0.156380	0.846020	0.912620
C1091	C109	0.728290	0.089560	0.679260
C1101	C110	0.609670	0.404320	0.664140
C1111	C111	0.169060	0.898720	0.778360
C1121	C112	0.431550	0.238720	0.930980
C1131	C113	0.653860	0.398720	0.278360
C1141	C114	0.185510	0.029030	0.846750
C1151	C115	0.369070	0.002220	0.750640
C1161	C116	0.662410	0.383420	0.719160
C1171	C117	0.303610	0.909050	0.930530
C1181	C118	0.294720	0.687870	0.265290
C1191	C119	0.814490	0.970970	0.153250
C1201	C120	0.172280	0.495630	0.111810
C1211	C121	0.214540	0.346750	0.970970
C1221	C122	0.997110	0.410440	0.820740
C1231	C123	0.765860	0.930530	0.590950
C1241	C124	0.967740	0.846750	0.470970
C1251	C125	0.274660	0.907460	0.813820
C1261	C126	0.407550	0.320740	0.589560
C1271	C127	0.830940	0.101280	0.221640
C1281	C128	0.332090	0.388190	0.495630
C1291	C129	0.128340	0.111850	0.388070
C1301	C130	0.726190	0.664140	0.095680
C1311	C131	0.069000	0.087380	0.346020
C1321	C132	0.415020	0.653980	0.587380
C1331	C133	0.017410	0.234710	0.687870
C1341	C134	0.587630	0.139390	0.217950
C1351	C135	0.378070	0.502220	0.250640
C1361	C136	0.412370	0.860610	0.782050
O11	O1	0.231990	0.844270	0.128550
O21	O2	0.220810	0.895550	0.276830
O31	O3	0.036940	0.288280	0.704760
O41	O4	0.258300	0.704760	0.211720
O51	O5	0.963060	0.711720	0.295240
O61	O6	0.923740	0.371450	0.844270
O71	O7	0.076260	0.628550	0.155730
O81	O8	0.704810	0.655730	0.371450
O91	O9	0.502360	0.276830	0.604450
O101	O10	0.106810	0.395550	0.776830
O111	O11	0.674780	0.795240	0.288280
O121	O12	0.116360	0.776830	0.104450
O131	O13	0.398820	0.304250	0.768250
O141	O14	0.768010	0.155730	0.871450
O151	O15	0.601180	0.695750	0.231750
O161	O16	0.832930	0.768250	0.195750
O171	O17	0.325220	0.204760	0.711720
O181	O18	0.883640	0.223170	0.895550
O191	O19	0.893190	0.604450	0.223170
O201	O20	0.167070	0.231750	0.804250
O211	O21	0.028680	0.804250	0.268250
O221	O22	0.470020	0.788280	0.204760
O231	O23	0.296930	0.731750	0.304250
O241	O24	0.639460	0.128550	0.655730
O251	O25	0.971320	0.195750	0.731750
O261	O26	0.529980	0.211720	0.795240
O271	O27	0.497640	0.723170	0.395550
O281	O28	0.741700	0.295240	0.788280
O291	O29	0.295190	0.344270	0.628550
O301	O30	0.779190	0.104450	0.723170
O311	O31	0.360540	0.871450	0.344270
O321	O32	0.703070	0.268250	0.695750
F11	F1	0.486480	0.122380	0.201860
F21	F2	0.311660	0.201860	0.377620
F31	F3	0.608860	0.701860	0.877620
F41	F4	0.904770	0.282720	0.426340
F51	F5	0.785420	0.697860	0.798100
F61	F6	0.854290	0.189020	0.429000
F71	F7	0.781380	0.802140	0.701900
F81	F8	0.513520	0.877620	0.798140
F91	F9	0.171530	0.835530	0.769610
F101	F10	0.485480	0.359970	0.215270
F111	F11	0.145710	0.810980	0.571000
F121	F12	0.886170	0.782720	0.926340
F131	F13	0.416480	0.798100	0.802140
F141	F14	0.956690	0.071000	0.189020
F151	F15	0.992940	0.730390	0.835530
F161	F16	0.439280	0.859970	0.715270
F171	F17	0.583520	0.201900	0.197860
F181	F18	0.716710	0.429000	0.310980
F191	F19	0.154550	0.284730	0.359970
F201	F20	0.331110	0.573660	0.782720
F211	F21	0.218620	0.197860	0.298100
F221	F22	0.187490	0.926340	0.717280
F231	F23	0.845450	0.715270	0.640030
F241	F24	0.283290	0.571000	0.689020
F251	F25	0.514520	0.640030	0.784730
F261	F26	0.560720	0.140030	0.284730
F271	F27	0.058860	0.769610	0.664470
F281	F28	0.095230	0.717280	0.573660
F291	F29	0.043310	0.929000	0.810980
F301	F30	0.972310	0.310980	0.071000
F311	F31	0.276670	0.664470	0.730390
F321	F32	0.688340	0.798140	0.622380
F331	F33	0.668890	0.426340	0.217280
F341	F34	0.828470	0.164470	0.230390
F351	F35	0.483280	0.298100	0.302140
F361	F36	0.214580	0.302140	0.201900
F371	F37	0.007060	0.269610	0.164470
F381	F38	0.689280	0.622380	0.701860
F391	F39	0.812510	0.073660	0.282720
F401	F40	0.027690	0.689020	0.929000
F411	F41	0.299250	0.215270	0.140030
F421	F42	0.723330	0.335530	0.269610
F431	F43	0.516720	0.701900	0.697860
F441	F44	0.310720	0.377620	0.298140
F451	F45	0.941140	0.230390	0.335530
F461	F46	0.700750	0.784730	0.859970
F471	F47	0.391140	0.298140	0.122380
F481	F48	0.113830	0.217280	0.073660
