data_ic501801f_si_003_clean_PM
_symmetry_space_group_name_H-M	'P1'
_cell_length_a	32.056400
_cell_length_b	32.056400
_cell_length_c	32.056400
_cell_angle_alpha	109.471000
_cell_angle_beta	109.471000
_cell_angle_gamma	109.471000
_symmetry_Int_Tables_number 1

loop_
_symmetry_equiv_pos_as_xyz
'x,y,z'

loop_
_atom_site_label
_atom_site_type_symbol
_atom_site_fract_x
_atom_site_fract_y
_atom_site_fract_z
Zn11	Zn1	0.384840	0.000000	0.000000
Zn21	Zn2	0.500000	0.000000	0.000000
Zn31	Zn3	0.500000	0.115160	0.500000
Zn41	Zn4	0.500000	0.884840	0.500000
Zn51	Zn5	0.000000	0.500000	0.500000
Zn61	Zn6	0.000000	0.500000	0.000000
Zn71	Zn7	0.615160	0.615160	0.115160
Zn81	Zn8	0.500000	0.384840	0.500000
Zn91	Zn9	0.500000	0.000000	0.500000
Zn101	Zn10	0.000000	0.500000	0.884840
Zn111	Zn11	0.884840	0.884840	0.384840
Zn121	Zn12	0.500000	0.615160	0.500000
Zn131	Zn13	0.000000	0.500000	0.615160
Zn141	Zn14	0.615160	0.000000	0.000000
Zn151	Zn15	0.000000	0.500000	0.115160
Zn161	Zn16	0.115160	0.000000	0.000000
Zn171	Zn17	0.000000	0.000000	0.000000
Zn181	Zn18	0.500000	0.500000	0.500000
Zn191	Zn19	0.115160	0.115160	0.615160
Zn201	Zn20	0.000000	0.000000	0.500000
Zn211	Zn21	0.384840	0.384840	0.884840
Zn221	Zn22	0.000000	0.500000	0.384840
Zn231	Zn23	0.500000	0.500000	0.000000
Zn241	Zn24	0.884840	0.000000	0.000000
B11	B1	0.436800	0.718400	0.968400
B21	B2	0.031600	0.250000	0.968400
B31	B3	0.468400	0.436800	0.218400
B41	B4	0.250000	0.781600	0.218400
B51	B5	0.531600	0.968400	0.250000
B61	B6	0.718400	0.250000	0.281600
B71	B7	0.250000	0.468400	0.531600
B81	B8	0.281600	0.750000	0.718400
B91	B9	0.781600	0.063200	0.531600
B101	B10	0.531600	0.563200	0.781600
B111	B11	0.936800	0.968400	0.718400
B121	B12	0.750000	0.218400	0.781600
B131	B13	0.718400	0.468400	0.936800
B141	B14	0.031600	0.781600	0.563200
B151	B15	0.281600	0.531600	0.063200
B161	B16	0.063200	0.031600	0.281600
B171	B17	0.968400	0.750000	0.031600
B181	B18	0.218400	0.936800	0.468400
B191	B19	0.750000	0.531600	0.468400
B201	B20	0.468400	0.031600	0.750000
B211	B21	0.218400	0.281600	0.250000
B221	B22	0.563200	0.281600	0.031600
B231	B23	0.781600	0.718400	0.750000
B241	B24	0.968400	0.218400	0.436800
H11	H1	0.384800	0.634800	0.269600
H21	H2	0.596200	0.696000	0.989400
H31	H3	0.214100	0.436000	0.232700
H41	H4	0.039900	0.256300	0.207800
H51	H5	0.134800	0.884800	0.769600
H61	H6	0.365300	0.397500	0.254000
H71	H7	0.566700	0.404000	0.954700
H81	H8	0.746900	0.606900	0.518200
H91	H9	0.061000	0.652600	0.647000
H101	H10	0.184200	0.896800	0.515600
H111	H11	0.707500	0.957000	0.424300
H121	H12	0.728700	0.088700	0.481800
H131	H13	0.266500	0.743600	0.105500
H141	H14	0.106900	0.860000	0.588700
H151	H15	0.283600	0.539900	0.832100
H161	H16	0.337300	0.933300	0.388000
H171	H17	0.735400	0.369300	0.298300
H181	H18	0.449300	0.545300	0.612000
H191	H19	0.299900	0.441600	0.386500
H201	H20	0.967300	0.250500	0.543000
H211	H21	0.933300	0.888000	0.837300
H221	H22	0.200100	0.613500	0.558400
H231	H23	0.832100	0.039900	0.283600
H241	H24	0.839000	0.733500	0.977100
H251	H25	0.989600	0.918700	0.708700
H261	H26	0.505600	0.414000	0.853000
H271	H27	0.296700	0.018600	0.732700
H281	H28	0.269100	0.663200	0.199100
H291	H29	0.611300	0.143500	0.746000
H301	H30	0.138100	0.977100	0.243600
H311	H31	0.141700	0.055100	0.441600
H321	H32	0.784100	0.491900	0.870400
H331	H33	0.292500	0.249500	0.216800
H341	H34	0.280900	0.291300	0.210000
H351	H35	0.780900	0.210000	0.291300
H361	H36	0.908400	0.347400	0.994400
H371	H37	0.332100	0.048500	0.792200
H381	H38	0.370400	0.784100	0.991900
H391	H39	0.552800	0.404600	0.380000
H401	H40	0.221900	0.018600	0.285900
H411	H41	0.292200	0.960100	0.243700
H421	H42	0.447200	0.595400	0.620000
H431	H43	0.856500	0.102500	0.467800
H441	H44	0.291300	0.710000	0.780900
H451	H45	0.989600	0.070900	0.780900
H461	H46	0.807000	0.041700	0.233500
H471	H47	0.269600	0.134800	0.384800
H481	H48	0.477100	0.839000	0.233500
H491	H49	0.764600	0.701700	0.630700
H501	H50	0.005600	0.152600	0.091600
H511	H51	0.893200	0.293400	0.989400
H521	H52	0.856500	0.754000	0.888700
H531	H53	0.960100	0.743700	0.792200
H541	H54	0.106800	0.400200	0.596200
H551	H55	0.703300	0.721900	0.936000
H561	H56	0.096200	0.989400	0.696000
H571	H57	0.927500	0.893000	0.510500
H581	H58	0.929000	0.130700	0.866100
H591	H59	0.732700	0.214100	0.936000
H601	H60	0.733500	0.926500	0.691800
H611	H61	0.936000	0.221900	0.703300
H621	H62	0.290000	0.719100	0.208700
H631	H63	0.870400	0.878500	0.586300
H641	H64	0.062900	0.133900	0.264600
H651	H65	0.382500	0.393000	0.465500
H661	H66	0.518200	0.411300	0.271300
H671	H67	0.381200	0.984400	0.668600
H681	H68	0.756300	0.539900	0.707800
H691	H69	0.900200	0.606800	0.096200
H701	H70	0.437100	0.735400	0.866100
H711	H71	0.732700	0.518600	0.296700
H721	H72	0.005600	0.853000	0.414000
H731	H73	0.701700	0.130700	0.264600
H741	H74	0.200100	0.586600	0.141700
H751	H75	0.163200	0.394100	0.964100
H761	H76	0.120000	0.447200	0.095400
H771	H77	0.219100	0.429100	0.010400
H781	H78	0.088700	0.981800	0.228700
H791	H79	0.284100	0.413700	0.292200
H801	H80	0.299900	0.858300	0.413400
H811	H81	0.721900	0.285900	0.018600
H821	H82	0.308200	0.734700	0.541700
H831	H83	0.481800	0.588700	0.728700
H841	H84	0.228700	0.746900	0.640000
H851	H85	0.022900	0.256400	0.361900
H861	H86	0.896800	0.015600	0.684200
H871	H87	0.648200	0.052800	0.172800
H881	H88	0.102500	0.134700	0.246000
H891	H89	0.904600	0.052800	0.880000
H901	H90	0.716800	0.424300	0.467300
H911	H91	0.039900	0.783600	0.332100
H921	H92	0.668600	0.484400	0.381200
H931	H93	0.464100	0.163200	0.894100
H941	H94	0.300900	0.730900	0.836800
H951	H95	0.048500	0.292200	0.832100
H961	H96	0.643500	0.111300	0.246000
H971	H97	0.989500	0.072500	0.607000
H981	H98	0.792200	0.284100	0.913700
H991	H99	0.733500	0.807000	0.541700
H1001	H100	0.798300	0.735400	0.869300
H1011	H101	0.730900	0.394100	0.430000
H1021	H102	0.911300	0.893100	0.640000
H1031	H103	0.404600	0.880000	0.052800
H1041	H104	0.091600	0.439000	0.586000
H1051	H105	0.491900	0.121500	0.707800
H1061	H106	0.703300	0.981400	0.267300
H1071	H107	0.929100	0.719100	0.510400
H1081	H108	0.489600	0.708700	0.918700
H1091	H109	0.756300	0.216400	0.548500
H1101	H110	0.304000	0.793400	0.900200
H1111	H111	0.771300	0.518200	0.911300
H1121	H112	0.256300	0.548500	0.216400
H1131	H113	0.331400	0.515600	0.618800
H1141	H114	0.315800	0.484400	0.103200
H1151	H115	0.369300	0.571000	0.633900
H1161	H116	0.753100	0.271300	0.860000
H1171	H117	0.981800	0.253100	0.893100
H1181	H118	0.064000	0.285900	0.267300
H1191	H119	0.596000	0.050700	0.162700
H1201	H120	0.140000	0.228700	0.246900
H1211	H121	0.641700	0.200100	0.086600
H1221	H122	0.893200	0.599800	0.403800
H1231	H123	0.984400	0.168600	0.881200
H1241	H124	0.043000	0.075700	0.792500
H1251	H125	0.904600	0.851800	0.524600
H1261	H126	0.018200	0.271300	0.411300
H1271	H127	0.785900	0.221900	0.518600
H1281	H128	0.662700	0.066700	0.612000
H1291	H129	0.707800	0.039900	0.756300
H1301	H130	0.117500	0.583000	0.010500
H1311	H131	0.161000	0.266500	0.022900
H1321	H132	0.426500	0.193000	0.734700
H1331	H133	0.147000	0.086000	0.494400
H1341	H134	0.460100	0.792200	0.743700
H1351	H135	0.396800	0.684200	0.015600
H1361	H136	0.360000	0.753100	0.771300
H1371	H137	0.308200	0.573500	0.266500
H1381	H138	0.429100	0.918700	0.210000
H1391	H139	0.070000	0.800900	0.464100
H1401	H140	0.884800	0.615200	0.750000
H1411	H141	0.429000	0.866100	0.130700
H1421	H142	0.606900	0.018200	0.246900
H1431	H143	0.918700	0.208700	0.489600
H1441	H144	0.532200	0.134700	0.888700
H1451	H145	0.439000	0.086000	0.591600
H1461	H146	0.618800	0.603200	0.787400
H1471	H147	0.408400	0.994400	0.347400
H1481	H148	0.733500	0.256400	0.894500
H1491	H149	0.573500	0.766500	0.808200
H1501	H150	0.394500	0.661000	0.138100
H1511	H151	0.058400	0.200100	0.113500
H1521	H152	0.790000	0.581300	0.570900
H1531	H153	0.212600	0.315800	0.331400
H1541	H154	0.233500	0.339000	0.477100
H1551	H155	0.897500	0.032200	0.643500
H1561	H156	0.534500	0.107000	0.617500
H1571	H157	0.555100	0.641700	0.941600
H1581	H158	0.558400	0.113500	0.200100
H1591	H159	0.103200	0.118800	0.287400
H1601	H160	0.606900	0.588700	0.860000
H1611	H161	0.599800	0.696000	0.706600
H1621	H162	0.735400	0.366100	0.937100
H1631	H163	0.545300	0.433300	0.096000
H1641	H164	0.099800	0.706600	0.696000
H1651	H165	0.370400	0.586300	0.878500
H1661	H166	0.927500	0.034500	0.917000
H1671	H167	0.769600	0.384800	0.134800
H1681	H168	0.254000	0.897500	0.365300
H1691	H169	0.612000	0.045300	0.449300
H1701	H170	0.266500	0.522900	0.661000
H1711	H171	0.586300	0.378500	0.870400
H1721	H172	0.393200	0.403800	0.599800
H1731	H173	0.643500	0.532200	0.897500
H1741	H174	0.991900	0.707800	0.121500
H1751	H175	0.602500	0.356500	0.967800
H1761	H176	0.347400	0.494400	0.408400
H1771	H177	0.691800	0.426500	0.733500
H1781	H178	0.708700	0.418700	0.989600
H1791	H179	0.424300	0.967300	0.216800
H1801	H180	0.096000	0.933300	0.545300
H1811	H181	0.283200	0.707500	0.250500
H1821	H182	0.853000	0.939000	0.847400
H1831	H183	0.117500	0.534500	0.607000
H1841	H184	0.719100	0.010400	0.429100
H1851	H185	0.061000	0.408400	0.914000
H1861	H186	0.510500	0.117500	0.083000
H1871	H187	0.586300	0.207800	0.215900
H1881	H188	0.696000	0.489400	0.096200
H1891	H189	0.404600	0.524600	0.851800
H1901	H190	0.163200	0.769100	0.699100
H1911	H191	0.388700	0.532200	0.634700
H1921	H192	0.447200	0.851800	0.327200
H1931	H193	0.869300	0.633900	0.571000
H1941	H194	0.332100	0.283600	0.039900
H1951	H195	0.052800	0.380000	0.404600
H1961	H196	0.228700	0.481800	0.088700
H1971	H197	0.518200	0.106900	0.746900
H1981	H198	0.283200	0.575700	0.532700
H1991	H199	0.860000	0.771300	0.753100
H2001	H200	0.235400	0.937100	0.366100
H2011	H201	0.652600	0.505600	0.591600
H2021	H202	0.591600	0.005600	0.652600
H2031	H203	0.880000	0.327200	0.475400
H2041	H204	0.861900	0.022900	0.756400
H2051	H205	0.939000	0.347400	0.353000
H2061	H206	0.050700	0.662700	0.096000
H2071	H207	0.168600	0.381200	0.484400
H2081	H208	0.465500	0.893000	0.382500
H2091	H209	0.750000	0.115200	0.884800
H2101	H210	0.743600	0.138100	0.477100
H2111	H211	0.851800	0.024600	0.404600
H2121	H212	0.937100	0.071000	0.701700
H2131	H213	0.949300	0.337300	0.904000
H2141	H214	0.394100	0.464100	0.663200
H2151	H215	0.052800	0.672800	0.148200
H2161	H216	0.552800	0.148200	0.672800
H2171	H217	0.232700	0.936000	0.214100
H2181	H218	0.728700	0.640000	0.746900
H2191	H219	0.467800	0.865300	0.111300
H2201	H220	0.293400	0.489400	0.393200
H2211	H221	0.411300	0.771300	0.018200
H2221	H222	0.913400	0.613500	0.055100
H2231	H223	0.888000	0.337300	0.433300
H2241	H224	0.613500	0.555100	0.413400
H2251	H225	0.583000	0.510500	0.617500
H2261	H226	0.250000	0.365200	0.634800
H2271	H227	0.706600	0.510600	0.606800
H2281	H228	0.112000	0.449300	0.045300
H2291	H229	0.403800	0.099800	0.893200
H2301	H230	0.083000	0.465500	0.072500
H2311	H231	0.451500	0.167900	0.707800
H2321	H232	0.361900	0.756400	0.022900
H2331	H233	0.860000	0.088700	0.606900
H2341	H234	0.010600	0.804000	0.403800
H2351	H235	0.366100	0.929000	0.630700
H2361	H236	0.433300	0.596000	0.045300
H2371	H237	0.436000	0.703300	0.221900
H2381	H238	0.413400	0.358300	0.299900
H2391	H239	0.652600	0.147000	0.561000
H2401	H240	0.967800	0.856500	0.602500
H2411	H241	0.285900	0.518600	0.221900
H2421	H242	0.765300	0.573500	0.307000
H2431	H243	0.207500	0.424300	0.957000
H2441	H244	0.441600	0.555100	0.141700
H2451	H245	0.827200	0.380000	0.975400
H2461	H246	0.134700	0.746000	0.602500
H2471	H247	0.243700	0.783600	0.451500
H2481	H248	0.913700	0.784100	0.792200
H2491	H249	0.769100	0.199100	0.663200
H2501	H250	0.700100	0.141700	0.586600
H2511	H251	0.621500	0.991900	0.207800
H2521	H252	0.933300	0.045300	0.596000
H2531	H253	0.243600	0.766500	0.605500
H2541	H254	0.534500	0.427500	0.417000
H2551	H255	0.607000	0.572500	0.989500
H2561	H256	0.596200	0.900200	0.106800
H2571	H257	0.800900	0.836800	0.730900
H2581	H258	0.444900	0.358300	0.058400
H2591	H259	0.072500	0.965500	0.083000
H2601	H260	0.331400	0.815800	0.212600
H2611	H261	0.105500	0.861900	0.339000
H2621	H262	0.714100	0.232700	0.436000
H2631	H263	0.212600	0.896800	0.381200
H2641	H264	0.427500	0.510500	0.893000
H2651	H265	0.018600	0.785900	0.721900
H2661	H266	0.086600	0.386500	0.944900
H2671	H267	0.250500	0.207500	0.283200
H2681	H268	0.436000	0.732700	0.714100
H2691	H269	0.293400	0.804000	0.400200
H2701	H270	0.562900	0.264600	0.133900
H2711	H271	0.882500	0.465500	0.393000
H2721	H272	0.575700	0.032700	0.783200
H2731	H273	0.960100	0.216400	0.667900
H2741	H274	0.015600	0.831400	0.118800
H2751	H275	0.032200	0.888700	0.134700
H2761	H276	0.630700	0.429000	0.366100
H2771	H277	0.216400	0.167900	0.460100
H2781	H278	0.746000	0.102500	0.634700
H2791	H279	0.831400	0.212600	0.815800
H2801	H280	0.778100	0.796700	0.564000
H2811	H281	0.581300	0.070900	0.290000
H2821	H282	0.138100	0.161000	0.394500
H2831	H283	0.566700	0.162700	0.112000
H2841	H284	0.134800	0.250000	0.865200
H2851	H285	0.203300	0.936000	0.721900
H2861	H286	0.010400	0.929100	0.219100
H2871	H287	0.491900	0.370400	0.284100
H2881	H288	0.617500	0.607000	0.534500
H2891	H289	0.388000	0.433300	0.337300
H2901	H290	0.888700	0.634700	0.532200
H2911	H291	0.662700	0.596000	0.550700
H2921	H292	0.191800	0.733500	0.426500
H2931	H293	0.957000	0.032700	0.249500
H2941	H294	0.634700	0.602500	0.746000
H2951	H295	0.693000	0.766500	0.958300
H2961	H296	0.147000	0.061000	0.152600
H2971	H297	0.605900	0.070000	0.769100
H2981	H298	0.663200	0.699100	0.769100
H2991	H299	0.062900	0.929000	0.298300
H3001	H300	0.595400	0.120000	0.947200
H3011	H301	0.388700	0.856500	0.254000
H3021	H302	0.886500	0.299900	0.941600
H3031	H303	0.210000	0.418700	0.429100
H3041	H304	0.787400	0.103200	0.618800
H3051	H305	0.018200	0.746900	0.106900
H3061	H306	0.798300	0.062900	0.429000
H3071	H307	0.588700	0.228700	0.981800
H3081	H308	0.618800	0.015600	0.331400
H3091	H309	0.515600	0.396800	0.184200
H3101	H310	0.208700	0.989600	0.418700
H3111	H311	0.865200	0.115200	0.230400
H3121	H312	0.380000	0.475400	0.327200
H3131	H313	0.796700	0.732700	0.018600
H3141	H314	0.572500	0.489500	0.107000
H3151	H315	0.539900	0.207800	0.256300
H3161	H316	0.894100	0.663200	0.464100
H3171	H317	0.454700	0.566700	0.904000
H3181	H318	0.353000	0.505600	0.914000
H3191	H319	0.360000	0.606900	0.088700
H3201	H320	0.394500	0.733500	0.756400
H3211	H321	0.369300	0.798300	0.235400
H3221	H322	0.706600	0.196000	0.599800
H3231	H323	0.870400	0.991900	0.784100
H3241	H324	0.058400	0.858300	0.444900
H3251	H325	0.756400	0.233500	0.394500
H3261	H326	0.954700	0.904000	0.566700
H3271	H327	0.477100	0.638100	0.743600
H3281	H328	0.730900	0.336800	0.800900
H3291	H329	0.929100	0.210000	0.918700
H3301	H330	0.216800	0.467300	0.424300
H3311	H331	0.118800	0.331400	0.015600
H3321	H332	0.113500	0.700100	0.058400
H3331	H333	0.449300	0.904000	0.337300
H3341	H334	0.250500	0.043000	0.467300
H3351	H335	0.766500	0.458300	0.193000
H3361	H336	0.743700	0.451500	0.783600
H3371	H337	0.893100	0.140000	0.411300
H3381	H338	0.510400	0.219100	0.929100
H3391	H339	0.032700	0.283200	0.075700
H3401	H340	0.073500	0.265300	0.807000
H3411	H341	0.070900	0.790000	0.081300
H3421	H342	0.235400	0.298300	0.369300
H3431	H343	0.667900	0.951500	0.207800
H3441	H344	0.215900	0.707800	0.586300
H3451	H345	0.107000	0.989500	0.572500
H3461	H346	0.947200	0.620000	0.595400
H3471	H347	0.206600	0.606800	0.510600
H3481	H348	0.365200	0.134800	0.750000
H3491	H349	0.719100	0.708700	0.790000
H3501	H350	0.541700	0.307000	0.733500
H3511	H351	0.904000	0.837300	0.949300
H3521	H352	0.930000	0.199100	0.535900
H3531	H353	0.246900	0.728700	0.140000
H3541	H354	0.232700	0.296700	0.518600
H3551	H355	0.882500	0.417000	0.989500
H3561	H356	0.847400	0.439000	0.853000
H3571	H357	0.337300	0.404000	0.449300
H3581	H358	0.535900	0.699100	0.930000
H3591	H359	0.133900	0.369300	0.071000
H3601	H360	0.339000	0.361900	0.105500
H3611	H361	0.008100	0.292200	0.878500
H3621	H362	0.640000	0.393100	0.911300
H3631	H363	0.115200	0.384800	0.250000
H3641	H364	0.967300	0.716800	0.924300
H3651	H365	0.792200	0.548500	0.332100
H3661	H366	0.249500	0.716800	0.792500
H3671	H367	0.926500	0.734700	0.193000
H3681	H368	0.721900	0.436000	0.203300
H3691	H369	0.793400	0.393200	0.489400
H3701	H370	0.638100	0.394500	0.161000
H3711	H371	0.075700	0.292500	0.543000
H3721	H372	0.583000	0.072500	0.465500
H3731	H373	0.880000	0.552800	0.904600
H3741	H374	0.414000	0.353000	0.005600
H3751	H375	0.599800	0.903800	0.393200
H3761	H376	0.230900	0.800900	0.336800
H3771	H377	0.914000	0.005600	0.353000
H3781	H378	0.837300	0.449300	0.404000
H3791	H379	0.458300	0.693000	0.266500
H3801	H380	0.458300	0.765300	0.691800
H3811	H381	0.881200	0.668600	0.984400
H3821	H382	0.586000	0.647000	0.994400
H3831	H383	0.010400	0.081300	0.291300
H3841	H384	0.206600	0.599800	0.196000
H3851	H385	0.386500	0.941600	0.299900
H3861	H386	0.243700	0.460100	0.292200
H3871	H387	0.861900	0.839000	0.605500
H3881	H388	0.836800	0.230900	0.300900
H3891	H389	0.073500	0.808200	0.766500
H3901	H390	0.393000	0.965500	0.882500
H3911	H391	0.756400	0.522900	0.861900
H3921	H392	0.336800	0.035900	0.605900
H3931	H393	0.234700	0.426500	0.693000
H3941	H394	0.264600	0.630700	0.701700
H3951	H395	0.071000	0.869300	0.133900
H3961	H396	0.571000	0.437100	0.201700
H3971	H397	0.888000	0.550700	0.954700
H3981	H398	0.853000	0.914000	0.505600
H3991	H399	0.168600	0.787400	0.184200
H4001	H400	0.130700	0.366100	0.429000
H4011	H401	0.219100	0.790000	0.708700
H4021	H402	0.133900	0.764600	0.562900
H4031	H403	0.944900	0.058400	0.358300
H4041	H404	0.886500	0.586600	0.444900
H4051	H405	0.208700	0.219100	0.290000
H4061	H406	0.066700	0.112000	0.162700
H4071	H407	0.831400	0.618800	0.515600
H4081	H408	0.634700	0.032200	0.388700
H4091	H409	0.615200	0.365200	0.730400
H4101	H410	0.696000	0.206600	0.099800
H4111	H411	0.413400	0.055100	0.613500
H4121	H412	0.140000	0.911300	0.393100
H4131	H413	0.296700	0.278100	0.064000
H4141	H414	0.733500	0.477100	0.339000
H4151	H415	0.489600	0.780900	0.070900
H4161	H416	0.878500	0.792200	0.008100
H4171	H417	0.413700	0.792200	0.784100
H4181	H418	0.937100	0.866100	0.735400
H4191	H419	0.510600	0.106800	0.206600
H4201	H420	0.099800	0.393200	0.903800
H4211	H421	0.484400	0.603200	0.815800
H4221	H422	0.691800	0.265300	0.458300
H4231	H423	0.254000	0.356500	0.388700
H4241	H424	0.543000	0.792500	0.075700
H4251	H425	0.611300	0.467800	0.365300
H4261	H426	0.808200	0.266500	0.573500
H4271	H427	0.141700	0.086600	0.200100
H4281	H428	0.266500	0.193000	0.458300
H4291	H429	0.199100	0.035900	0.430000
H4301	H430	0.707800	0.086300	0.715900
H4311	H431	0.939000	0.591600	0.086000
H4321	H432	0.596000	0.545300	0.933300
H4331	H433	0.918700	0.710000	0.929100
H4341	H434	0.035900	0.930000	0.699100
H4351	H435	0.827200	0.447200	0.351800
H4361	H436	0.457000	0.207500	0.924300
H4371	H437	0.285900	0.767300	0.564000
H4381	H438	0.951500	0.707800	0.167900
H4391	H439	0.271300	0.911300	0.518200
H4401	H440	0.103200	0.984400	0.315800
H4411	H441	0.640000	0.246900	0.228700
H4421	H442	0.055100	0.941600	0.641700
H4431	H443	0.765300	0.191800	0.958300
H4441	H444	0.535900	0.836800	0.105900
H4451	H445	0.267300	0.785900	0.064000
H4461	H446	0.284100	0.870400	0.491900
H4471	H447	0.234700	0.808200	0.041700
H4481	H448	0.043000	0.967300	0.750500
H4491	H449	0.633900	0.071000	0.369300
H4501	H450	0.081300	0.791300	0.510400
H4511	H451	0.292200	0.378500	0.508100
H4521	H452	0.414000	0.061000	0.908400
H4531	H453	0.034500	0.617500	0.107000
H4541	H454	0.505600	0.091600	0.152600
H4551	H455	0.106800	0.706600	0.010600
H4561	H456	0.893100	0.753100	0.981800
H4571	H457	0.271300	0.360000	0.253100
H4581	H458	0.148200	0.172800	0.052800
H4591	H459	0.351800	0.404600	0.024600
H4601	H460	0.327200	0.351800	0.447200
H4611	H461	0.010500	0.927500	0.393000
H4621	H462	0.467300	0.543000	0.250500
H4631	H463	0.701700	0.571000	0.937100
H4641	H464	0.707800	0.621500	0.491900
H4651	H465	0.613500	0.058400	0.700100
H4661	H466	0.975400	0.880000	0.827200
H4671	H467	0.010500	0.083000	0.117500
H4681	H468	0.865200	0.750000	0.134800
H4691	H469	0.807000	0.765300	0.073500
H4701	H470	0.467300	0.924300	0.716800
H4711	H471	0.790000	0.208700	0.719100
H4721	H472	0.958300	0.266500	0.693000
H4731	H473	0.048500	0.756300	0.716400
H4741	H474	0.201700	0.264600	0.130700
H4751	H475	0.712600	0.381200	0.896800
H4761	H476	0.266500	0.073500	0.308200
H4771	H477	0.555100	0.913400	0.113500
H4781	H478	0.489500	0.607000	0.072500
H4791	H479	0.607000	0.034500	0.117500
H4801	H480	0.858300	0.944900	0.558400
H4811	H481	0.393000	0.427500	0.010500
H4821	H482	0.366100	0.437100	0.235400
H4831	H483	0.977100	0.233500	0.839000
H4841	H484	0.949300	0.612000	0.545300
H4851	H485	0.783200	0.250500	0.707500
H4861	H486	0.265300	0.958300	0.191800
H4871	H487	0.148200	0.975400	0.595400
H4881	H488	0.913400	0.299900	0.358300
H4891	H489	0.881200	0.212600	0.396800
H4901	H490	0.413700	0.621500	0.129600
H4911	H491	0.418700	0.489600	0.208700
H4921	H492	0.791300	0.010400	0.581300
H4931	H493	0.570900	0.081300	0.790000
H4941	H494	0.647000	0.494400	0.086000
H4951	H495	0.152600	0.591600	0.505600
H4961	H496	0.684200	0.515600	0.896800
H4971	H497	0.378500	0.370400	0.086300
H4981	H498	0.246000	0.611300	0.643500
H4991	H499	0.404000	0.949300	0.837300
H5001	H500	0.615200	0.250000	0.384800
H5011	H501	0.233500	0.541700	0.807000
H5021	H502	0.606800	0.010600	0.706600
H5031	H503	0.494400	0.908400	0.847400
H5041	H504	0.766500	0.308200	0.073500
H5051	H505	0.162700	0.612000	0.066700
H5061	H506	0.339000	0.977100	0.733500
H5071	H507	0.710000	0.280900	0.791300
H5081	H508	0.457000	0.249500	0.032700
H5091	H509	0.207500	0.783200	0.750500
H5101	H510	0.766500	0.105500	0.743600
H5111	H511	0.216400	0.048500	0.256300
H5121	H512	0.508100	0.629600	0.715900
H5131	H513	0.489400	0.893200	0.793400
H5141	H514	0.356500	0.467800	0.102500
H5151	H515	0.283600	0.743700	0.951500
H5161	H516	0.441600	0.886500	0.799900
H5171	H517	0.561000	0.914000	0.408400
H5181	H518	0.411300	0.640000	0.893100
H5191	H519	0.911300	0.018200	0.771300
H5201	H520	0.167900	0.960100	0.716400
H5211	H521	0.866100	0.630700	0.929000
H5221	H522	0.908400	0.561000	0.414000
H5231	H523	0.515600	0.118800	0.831400
H5241	H524	0.353000	0.847400	0.939000
H5251	H525	0.403800	0.304000	0.010600
H5261	H526	0.778100	0.981400	0.714100
H5271	H527	0.347400	0.853000	0.439000
H5281	H528	0.903800	0.893200	0.099800
H5291	H529	0.096200	0.106800	0.900200
H5301	H530	0.900200	0.293400	0.304000
H5311	H531	0.107000	0.117500	0.034500
H5321	H532	0.304000	0.510600	0.903800
H5331	H533	0.518600	0.796700	0.232700
H5341	H534	0.603200	0.287400	0.118800
H5351	H535	0.994400	0.147000	0.586000
H5361	H536	0.667900	0.716400	0.960100
H5371	H537	0.620000	0.524600	0.672800
H5381	H538	0.494400	0.586000	0.147000
H5391	H539	0.400200	0.304000	0.293400
H5401	H540	0.378500	0.008100	0.792200
H5411	H541	0.464100	0.300900	0.070000
H5421	H542	0.143500	0.246000	0.111300
H5431	H543	0.749500	0.792500	0.716800
H5441	H544	0.070900	0.280900	0.489600
H5451	H545	0.292200	0.913700	0.284100
H5461	H546	0.878500	0.086300	0.370400
H5471	H547	0.989500	0.917000	0.882500
H5481	H548	0.930000	0.730900	0.894100
H5491	H549	0.086600	0.700100	0.641700
H5501	H550	0.172800	0.620000	0.024600
H5511	H551	0.072500	0.107000	0.489500
H5521	H552	0.510600	0.403800	0.804000
H5531	H553	0.620000	0.095400	0.447200
H5541	H554	0.591600	0.586000	0.439000
H5551	H555	0.256400	0.394500	0.233500
H5561	H556	0.894500	0.756400	0.733500
H5571	H557	0.975400	0.095400	0.648200
H5581	H558	0.964100	0.070000	0.300900
H5591	H559	0.603200	0.315800	0.984400
H5601	H560	0.605500	0.339000	0.861900
H5611	H561	0.404000	0.454700	0.066700
H5621	H562	0.550700	0.096000	0.662700
H5631	H563	0.351800	0.947200	0.827200
H5641	H564	0.746900	0.140000	0.728700
H5651	H565	0.586600	0.641700	0.700100
H5661	H566	0.424300	0.457000	0.707500
H5671	H567	0.707500	0.750500	0.783200
H5681	H568	0.884800	0.269600	0.634800
H5691	H569	0.518600	0.721900	0.785900
H5701	H570	0.564000	0.267300	0.285900
H5711	H571	0.460100	0.667900	0.216400
H5721	H572	0.233500	0.894500	0.256400
H5731	H573	0.754000	0.388700	0.356500
H5741	H574	0.629600	0.413700	0.121500
H5751	H575	0.246000	0.634700	0.102500
H5761	H576	0.734700	0.693000	0.426500
H5771	H577	0.715900	0.586300	0.707800
H5781	H578	0.648200	0.595400	0.975400
H5791	H579	0.475400	0.827200	0.880000
H5801	H580	0.444900	0.086600	0.886500
H5811	H581	0.278100	0.714100	0.981400
H5821	H582	0.032700	0.749500	0.457000
H5831	H583	0.243600	0.477100	0.138100
H5841	H584	0.839000	0.105500	0.361900
H5851	H585	0.269100	0.605900	0.570000
H5861	H586	0.991900	0.284100	0.370400
H5871	H587	0.561000	0.647000	0.652600
H5881	H588	0.095400	0.947200	0.120000
H5891	H589	0.430000	0.535900	0.199100
H5901	H590	0.454700	0.888000	0.050700
H5911	H591	0.924300	0.216800	0.967300
H5921	H592	0.191800	0.458300	0.265300
H5931	H593	0.216800	0.749500	0.292500
H5941	H594	0.315800	0.831400	0.712600
H5951	H595	0.858300	0.913400	0.799900
H5961	H596	0.264600	0.633900	0.062900
H5971	H597	0.941600	0.141700	0.555100
H5981	H598	0.638100	0.243600	0.977100
H5991	H599	0.672800	0.024600	0.620000
H6001	H600	0.787400	0.684200	0.668600
H6011	H601	0.106900	0.246900	0.018200
H6021	H602	0.161000	0.894500	0.638100
H6031	H603	0.769100	0.570000	0.605900
H6041	H604	0.965500	0.583000	0.572500
H6051	H605	0.467800	0.602500	0.856500
H6061	H606	0.641700	0.441600	0.055100
H6071	H607	0.716800	0.292500	0.749500
H6081	H608	0.381200	0.396800	0.212600
H6091	H609	0.989400	0.793400	0.893200
H6101	H610	0.207800	0.756300	0.039900
H6111	H611	0.684200	0.168600	0.287400
H6121	H612	0.710000	0.429100	0.418700
H6131	H613	0.035900	0.105900	0.836800
H6141	H614	0.903800	0.010600	0.304000
H6151	H615	0.647000	0.152600	0.061000
H6161	H616	0.532700	0.457000	0.749500
H6171	H617	0.981400	0.767300	0.203300
H6181	H618	0.785900	0.564000	0.767300
H6191	H619	0.465500	0.572500	0.583000
H6201	H620	0.612000	0.566700	0.662700
H6211	H621	0.032200	0.143500	0.397500
H6221	H622	0.981400	0.214100	0.278100
H6231	H623	0.714100	0.481400	0.778100
H6241	H624	0.796700	0.064000	0.278100
H6251	H625	0.246900	0.518200	0.606900
H6261	H626	0.766500	0.661000	0.522900
H6271	H627	0.024600	0.120000	0.172800
H6281	H628	0.196000	0.099800	0.206600
H6291	H629	0.075700	0.783200	0.032700
H6301	H630	0.924300	0.707500	0.457000
H6311	H631	0.764600	0.062900	0.633900
H6321	H632	0.571000	0.133900	0.869300
H6331	H633	0.815800	0.712600	0.831400
H6341	H634	0.207800	0.715900	0.086300
H6351	H635	0.570000	0.464100	0.800900
H6361	H636	0.734700	0.041700	0.808200
H6371	H637	0.510400	0.291300	0.081300
H6381	H638	0.071000	0.201700	0.437100
H6391	H639	0.265300	0.307000	0.573500
H6401	H640	0.602500	0.246000	0.134700
H6411	H641	0.792500	0.575700	0.043000
H6421	H642	0.196000	0.096200	0.489400
H6431	H643	0.894500	0.138100	0.661000
H6441	H644	0.489400	0.596200	0.196000
H6451	H645	0.700100	0.558400	0.613500
H6461	H646	0.869300	0.235400	0.798300
H6471	H647	0.716400	0.460100	0.167900
H6481	H648	0.091600	0.652600	0.005600
H6491	H649	0.668600	0.184200	0.787400
H6501	H650	0.193000	0.234700	0.926500
H6511	H651	0.661000	0.638100	0.894500
H6521	H652	0.298300	0.429000	0.062900
H6531	H653	0.066700	0.954700	0.404000
H6541	H654	0.944900	0.886500	0.086600
H6551	H655	0.115200	0.730400	0.365200
H6561	H656	0.715900	0.129600	0.508100
H6571	H657	0.489500	0.882500	0.917000
H6581	H658	0.712600	0.331400	0.315800
H6591	H659	0.951500	0.243700	0.283600
H6601	H660	0.699100	0.269100	0.163200
H6611	H661	0.253100	0.860000	0.271300
H6621	H662	0.564000	0.296700	0.778100
H6631	H663	0.336800	0.300900	0.230900
H6641	H664	0.917000	0.534500	0.927500
H6651	H665	0.730400	0.865200	0.615200
H6661	H666	0.111300	0.365300	0.467800
H6671	H667	0.832100	0.792200	0.048500
H6681	H668	0.086000	0.091600	0.939000
H6691	H669	0.562900	0.298300	0.929000
H6701	H670	0.045300	0.096000	0.433300
H6711	H671	0.408400	0.414000	0.561000
H6721	H672	0.522900	0.161000	0.766500
H6731	H673	0.307000	0.073500	0.765300
H6741	H674	0.634800	0.865200	0.250000
H6751	H675	0.929000	0.798300	0.562900
H6761	H676	0.230400	0.615200	0.865200
H6771	H677	0.888700	0.254000	0.856500
H6781	H678	0.249500	0.532700	0.957000
H6791	H679	0.380000	0.904600	0.552800
H6801	H680	0.121500	0.913700	0.629600
H6811	H681	0.327200	0.975400	0.380000
H6821	H682	0.783600	0.832100	0.539900
H6831	H683	0.184200	0.287400	0.168600
H6841	H684	0.113500	0.413400	0.555100
H6851	H685	0.484400	0.881200	0.168600
H6861	H686	0.784100	0.292200	0.413700
H6871	H687	0.134700	0.388700	0.032200
H6881	H688	0.750500	0.467300	0.043000
H6891	H689	0.913700	0.129600	0.621500
H6901	H690	0.417000	0.927500	0.534500
H6911	H691	0.172800	0.552800	0.648200
H6921	H692	0.417000	0.489500	0.382500
H6931	H693	0.426500	0.233500	0.191800
H6941	H694	0.865300	0.611300	0.967800
H6951	H695	0.215900	0.508100	0.129600
H6961	H696	0.508100	0.878500	0.292200
H6971	H697	0.120000	0.672800	0.524600
H6981	H698	0.573500	0.807000	0.265300
H6991	H699	0.957000	0.924300	0.207500
H7001	H700	0.102500	0.967800	0.356500
H7011	H701	0.851800	0.827200	0.947200
H7021	H702	0.941600	0.799900	0.886500
H7031	H703	0.287400	0.618800	0.103200
H7041	H704	0.475400	0.648200	0.095400
H7051	H705	0.746000	0.643500	0.611300
H7061	H706	0.086300	0.870400	0.378500
H7071	H707	0.397500	0.643500	0.032200
H7081	H708	0.041700	0.733500	0.307000
H7091	H709	0.267300	0.481400	0.703300
H7101	H710	0.050700	0.388000	0.454700
H7111	H711	0.388000	0.954700	0.550700
H7121	H712	0.581300	0.510400	0.791300
H7131	H713	0.595400	0.475400	0.148200
H7141	H714	0.096000	0.162700	0.050700
H7151	H715	0.539900	0.332100	0.783600
H7161	H716	0.143500	0.897500	0.532200
H7171	H717	0.111300	0.746000	0.143500
H7181	H718	0.799900	0.413400	0.858300
H7191	H719	0.893000	0.010500	0.427500
H7201	H720	0.290000	0.570900	0.581300
H7211	H721	0.207800	0.491900	0.621500
H7221	H722	0.199100	0.163200	0.269100
H7231	H723	0.989400	0.196000	0.596200
H7241	H724	0.086000	0.994400	0.647000
H7251	H725	0.221900	0.203300	0.436000
H7261	H726	0.481400	0.278100	0.214100
H7271	H727	0.018600	0.232700	0.796700
H7281	H728	0.771300	0.253100	0.360000
H7291	H729	0.439000	0.353000	0.347400
H7301	H730	0.064000	0.778100	0.296700
H7311	H731	0.365300	0.967800	0.611300
H7321	H732	0.430000	0.894100	0.730900
H7331	H733	0.365200	0.230400	0.115200
H7341	H734	0.393100	0.981800	0.753100
H7351	H735	0.045300	0.949300	0.112000
H7361	H736	0.418700	0.929100	0.710000
H7371	H737	0.524600	0.351800	0.904600
H7381	H738	0.791300	0.780900	0.710000
H7391	H739	0.799900	0.386500	0.441600
H7401	H740	0.808200	0.541700	0.734700
H7411	H741	0.783200	0.532700	0.575700
H7421	H742	0.055100	0.113500	0.913400
H7431	H743	0.550700	0.454700	0.388000
H7441	H744	0.967800	0.111300	0.865300
H7451	H745	0.837300	0.388000	0.933300
H7461	H746	0.532700	0.075700	0.283200
H7471	H747	0.617500	0.010500	0.583000
H7481	H748	0.977100	0.743600	0.638100
H7491	H749	0.743600	0.605500	0.766500
H7501	H750	0.201700	0.937100	0.571000
H7511	H751	0.699100	0.430000	0.035900
H7521	H752	0.754000	0.365300	0.897500
H7531	H753	0.894100	0.230900	0.930000
H7541	H754	0.981800	0.728700	0.588700
H7551	H755	0.897500	0.865300	0.754000
H7561	H756	0.621500	0.629600	0.913700
H7571	H757	0.129600	0.008100	0.215900
H7581	H758	0.804000	0.900200	0.793400
H7591	H759	0.481800	0.893100	0.253100
H7601	H760	0.429000	0.562900	0.798300
H7611	H761	0.836800	0.605900	0.035900
H7621	H762	0.693000	0.926500	0.234700
H7631	H763	0.994400	0.847400	0.908400
H7641	H764	0.427500	0.917000	0.034500
H7651	H765	0.572500	0.083000	0.965500
H7661	H766	0.233500	0.691800	0.926500
H7671	H767	0.095400	0.148200	0.475400
H7681	H768	0.586000	0.939000	0.091600
H7691	H769	0.230900	0.430000	0.394100
H7701	H770	0.847400	0.408400	0.494400
H7711	H771	0.783600	0.951500	0.743700
H7721	H772	0.958300	0.691800	0.765300
H7731	H773	0.558400	0.444900	0.858300
H7741	H774	0.548500	0.832100	0.292200
H7751	H775	0.522900	0.361900	0.256400
H7761	H776	0.207800	0.451500	0.667900
H7771	H777	0.034500	0.417000	0.427500
H7781	H778	0.291300	0.581300	0.010400
H7791	H779	0.022900	0.766500	0.161000
H7801	H780	0.210000	0.791300	0.280900
H7811	H781	0.629600	0.215900	0.008100
H7821	H782	0.287400	0.668600	0.684200
H7831	H783	0.008100	0.715900	0.629600
H7841	H784	0.083000	0.617500	0.510500
H7851	H785	0.634800	0.769600	0.884800
H7861	H786	0.896800	0.881200	0.712600
H7871	H787	0.393200	0.989400	0.293400
H7881	H788	0.307000	0.233500	0.041700
H7891	H789	0.451500	0.283600	0.243700
H7901	H790	0.630700	0.201700	0.764600
H7911	H791	0.750500	0.283200	0.207500
H7921	H792	0.298300	0.869300	0.735400
H7931	H793	0.358300	0.799900	0.913400
H7941	H794	0.917000	0.382500	0.489500
H7951	H795	0.914000	0.908400	0.061000
H7961	H796	0.361900	0.605500	0.839000
H7971	H797	0.481400	0.203300	0.767300
H7981	H798	0.510500	0.393000	0.927500
H7991	H799	0.394100	0.930000	0.230900
H8001	H800	0.070000	0.269100	0.105900
H8011	H801	0.984400	0.815800	0.603200
H8021	H802	0.936000	0.714100	0.732700
H8031	H803	0.588700	0.360000	0.106900
H8041	H804	0.926500	0.191800	0.233500
H8051	H805	0.586600	0.944900	0.386500
H8061	H806	0.129600	0.121500	0.413700
H8071	H807	0.162700	0.550700	0.596000
H8081	H808	0.605900	0.535900	0.336800
H8091	H809	0.250000	0.884800	0.115200
H8101	H810	0.121500	0.207800	0.991900
H8111	H811	0.904000	0.066700	0.454700
H8121	H812	0.010600	0.206600	0.106800
H8131	H813	0.548500	0.716400	0.756300
H8141	H814	0.292200	0.332100	0.548500
H8151	H815	0.545300	0.112000	0.949300
H8161	H816	0.130700	0.764600	0.201700
H8171	H817	0.382500	0.989500	0.417000
H8181	H818	0.815800	0.103200	0.484400
H8191	H819	0.708700	0.290000	0.219100
H8201	H820	0.397500	0.754000	0.865300
H8211	H821	0.393100	0.411300	0.140000
H8221	H822	0.256400	0.861900	0.522900
H8231	H823	0.716400	0.256300	0.048500
H8241	H824	0.356500	0.888700	0.754000
H8251	H825	0.792200	0.243700	0.960100
H8261	H826	0.570900	0.489600	0.280900
H8271	H827	0.661000	0.022900	0.266500
H8281	H828	0.118800	0.787400	0.603200
H8291	H829	0.707800	0.667900	0.451500
H8301	H830	0.865300	0.254000	0.397500
H8311	H831	0.606800	0.596200	0.400200
H8321	H832	0.256300	0.707800	0.539900
H8331	H833	0.041700	0.308200	0.234700
H8341	H834	0.167900	0.207800	0.951500
H8351	H835	0.088700	0.106900	0.360000
H8361	H836	0.893000	0.882500	0.965500
H8371	H837	0.672800	0.648200	0.552800
H8381	H838	0.663200	0.964100	0.394100
H8391	H839	0.081300	0.290000	0.070900
H8401	H840	0.437100	0.701700	0.071000
H8411	H841	0.024600	0.904600	0.351800
H8421	H842	0.753100	0.481800	0.393100
H8431	H843	0.749500	0.957000	0.532700
H8441	H844	0.433300	0.837300	0.888000
H8451	H845	0.015600	0.184200	0.396800
H8461	H846	0.278100	0.564000	0.796700
H8471	H847	0.633900	0.562900	0.764600
H8481	H848	0.543000	0.750500	0.967300
H8491	H849	0.280900	0.989600	0.570900
H8501	H850	0.105900	0.769100	0.070000
H8511	H851	0.780900	0.570900	0.989600
H8521	H852	0.792200	0.508100	0.378500
H8531	H853	0.767300	0.703300	0.481400
H8541	H854	0.203300	0.267300	0.981400
H8551	H855	0.792500	0.216800	0.249500
H8561	H856	0.384800	0.750000	0.615200
H8571	H857	0.524600	0.172800	0.120000
H8581	H858	0.253100	0.393100	0.481800
H8591	H859	0.152600	0.561000	0.147000
H8601	H860	0.105500	0.243600	0.266500
H8611	H861	0.743700	0.292200	0.460100
H8621	H862	0.947200	0.327200	0.851800
H8631	H863	0.429100	0.510400	0.719100
H8641	H864	0.541700	0.234700	0.308200
H8651	H865	0.605500	0.266500	0.243600
H8661	H866	0.300900	0.570000	0.964100
H8671	H867	0.292500	0.043000	0.575700
H8681	H868	0.800900	0.964100	0.570000
H8691	H869	0.804000	0.903800	0.510600
H8701	H870	0.767300	0.064000	0.785900
H8711	H871	0.105900	0.336800	0.535900
H8721	H872	0.964100	0.894100	0.163200
H8731	H873	0.396800	0.712600	0.881200
H8741	H874	0.954700	0.050700	0.888000
H8751	H875	0.575700	0.543000	0.292500
H8761	H876	0.750000	0.634800	0.365200
H8771	H877	0.386500	0.444900	0.586600
H8781	H878	0.193000	0.958300	0.766500
H8791	H879	0.570000	0.105900	0.269100
H8801	H880	0.086300	0.215900	0.207800
H8811	H881	0.112000	0.662700	0.566700
H8821	H882	0.358300	0.558400	0.944900
H8831	H883	0.400200	0.096200	0.606800
H8841	H884	0.214100	0.778100	0.481400
H8851	H885	0.793400	0.400200	0.804000
H8861	H886	0.866100	0.235400	0.437100
H8871	H887	0.532200	0.397500	0.143500
H8881	H888	0.965500	0.382500	0.893000
C11	C1	0.854470	0.835850	0.886120
C21	C2	0.135810	0.674120	0.665310
C31	C3	0.883000	0.133000	0.266000
C41	C4	0.346820	0.378140	0.442520
C51	C5	0.286280	0.809660	0.314900
C61	C6	0.006800	0.580100	0.961100
C71	C7	0.908310	0.592650	0.070560
C81	C8	0.419900	0.538900	0.493200
C91	C9	0.954200	0.209800	0.348800
C101	C10	0.977910	0.815660	0.907350
C111	C11	0.364190	0.334690	0.325880
C121	C12	0.080100	0.573300	0.119000
C131	C13	0.153600	0.714610	0.170510
C141	C14	0.971380	0.685100	0.494760
C151	C15	0.113880	0.664150	0.145530
C161	C16	0.535680	0.117470	0.860230
C171	C17	0.529500	0.665310	0.991190
C181	C18	0.869900	0.756100	0.075600
C191	C19	0.296070	0.488450	0.521100
C201	C20	0.091690	0.407350	0.929440
C211	C21	0.006800	0.426700	0.545700
C221	C22	0.381000	0.461100	0.954300
C231	C23	0.688400	0.250000	0.311600
C241	C24	0.743900	0.630100	0.424400
C251	C25	0.476620	0.971380	0.786280
C261	C26	0.821700	0.762200	0.051700
C271	C27	0.954300	0.961100	0.381000
C281	C28	0.645530	0.113880	0.164150
C291	C29	0.993200	0.573300	0.454300
C301	C30	0.374590	0.999100	0.758910
C311	C31	0.017600	0.142180	0.516160
C321	C32	0.375420	0.857820	0.373980
C331	C33	0.592650	0.022090	0.684340
C341	C34	0.605400	0.954200	0.244400
C351	C35	0.874590	0.115680	0.375490
C361	C36	0.709800	0.454200	0.848800
C371	C37	0.557480	0.121860	0.653180
C381	C38	0.429440	0.337750	0.022090
C391	C39	0.243900	0.819500	0.113800
C401	C40	0.454200	0.348800	0.209800
C411	C41	0.321700	0.051700	0.762200
C421	C42	0.209800	0.848800	0.454200
C431	C43	0.499100	0.624510	0.740190
C441	C44	0.501440	0.017600	0.375420
C451	C45	0.188400	0.311600	0.250000
C461	C46	0.210500	0.440500	0.262200
C471	C47	0.050270	0.664150	0.518620
C481	C48	0.324550	0.464320	0.081790
C491	C49	0.038900	0.119000	0.545700
C501	C50	0.785530	0.980160	0.554850
C511	C51	0.664150	0.645530	0.613880
C521	C52	0.494760	0.309660	0.023380
C531	C53	0.591690	0.662250	0.684340
C541	C54	0.001440	0.375420	0.017600
C551	C55	0.809660	0.994760	0.523380
C561	C56	0.846820	0.404300	0.968680
C571	C57	0.516910	0.455900	0.170510
C581	C58	0.968350	0.113880	0.949730
C591	C59	0.630100	0.705700	0.886200
C601	C60	0.714470	0.445150	0.019840
C611	C61	0.741090	0.625410	0.500900
C621	C62	0.592650	0.570560	0.408310
C631	C63	0.092650	0.408310	0.570560
C641	C64	0.924400	0.743900	0.130100
C651	C65	0.961690	0.635810	0.470500
C661	C66	0.178300	0.940500	0.730000
C671	C67	0.624510	0.384320	0.125410
C681	C68	0.770000	0.821700	0.559500
C691	C69	0.178300	0.237800	0.948300
C701	C70	0.625410	0.000900	0.241090
C711	C71	0.031650	0.886120	0.050270
C721	C72	0.639770	0.175450	0.757240
C731	C73	0.170510	0.955900	0.516910
C741	C74	0.531320	0.378140	0.935620
C751	C75	0.538310	0.008810	0.674120
C761	C76	0.694630	0.980160	0.425310
C771	C77	0.945150	0.214470	0.519840
C781	C78	0.057480	0.653180	0.121860
C791	C79	0.424400	0.130100	0.743900
C801	C80	0.550270	0.518620	0.664150
C811	C81	0.680500	0.424400	0.794300
C821	C82	0.095700	0.442520	0.064380
C831	C83	0.028620	0.314900	0.505240
C841	C84	0.290200	0.545800	0.151200
C851	C85	0.105400	0.244400	0.954200
C861	C86	0.319500	0.575600	0.205700
C871	C87	0.523380	0.494760	0.809660
C881	C88	0.624580	0.142180	0.626020
C891	C89	0.325880	0.491190	0.461690
C901	C90	0.174120	0.538310	0.508810
C911	C91	0.130100	0.886200	0.705700
C921	C92	0.642180	0.124580	0.126020
C931	C93	0.873980	0.498560	0.016160
C941	C94	0.521100	0.988450	0.296070
C951	C95	0.999100	0.258910	0.874590
C961	C96	0.035680	0.175450	0.418210
C971	C97	0.664150	0.018620	0.550270
C981	C98	0.425310	0.480160	0.694630
C991	C99	0.032650	0.021100	0.225030
C1001	C100	0.075600	0.819500	0.705700
C1011	C101	0.294300	0.680500	0.924400
C1021	C102	0.976620	0.786280	0.971380
C1031	C103	0.375420	0.517600	0.501440
C1041	C104	0.491190	0.529500	0.165310
C1051	C105	0.375490	0.615680	0.874590
C1061	C106	0.045700	0.006800	0.926700
C1071	C107	0.867000	0.234000	0.617000
C1081	C108	0.626020	0.642180	0.624580
C1091	C109	0.829490	0.785390	0.846400
C1101	C110	0.125410	0.241090	0.000900
C1111	C111	0.448300	0.178300	0.737800
C1121	C112	0.290200	0.744400	0.639000
C1131	C113	0.117470	0.360230	0.035680
C1141	C114	0.988450	0.796070	0.021100
C1151	C115	0.477910	0.907350	0.815660
C1161	C116	0.591690	0.929440	0.407350
C1171	C117	0.493200	0.454300	0.573300
C1181	C118	0.454200	0.105400	0.744400
C1191	C119	0.730000	0.289500	0.051700
C1201	C120	0.123200	0.061600	0.311600
C1211	C121	0.213720	0.685100	0.190340
C1221	C122	0.508810	0.470500	0.834690
C1231	C123	0.468350	0.949730	0.113880
C1241	C124	0.491190	0.961690	0.825880
C1251	C125	0.115680	0.240190	0.241090
C1261	C126	0.942520	0.346820	0.878140
C1271	C127	0.674120	0.165310	0.635810
C1281	C128	0.919900	0.426700	0.881000
C1291	C129	0.255600	0.861000	0.209800
C1301	C130	0.559500	0.237800	0.289500
C1311	C131	0.319500	0.743900	0.613800
C1321	C132	0.315660	0.477910	0.407350
C1331	C133	0.573300	0.954300	0.493200
C1341	C134	0.425310	0.945150	0.230680
C1351	C135	0.059500	0.289500	0.237800
C1361	C136	0.480160	0.285530	0.054850
C1371	C137	0.971380	0.286280	0.976620
C1381	C138	0.786280	0.471380	0.476620
C1391	C139	0.209800	0.361000	0.255600
C1401	C140	0.506800	0.961100	0.580100
C1411	C141	0.789500	0.559500	0.737800
C1421	C142	0.561010	0.544100	0.714610
C1431	C143	0.575600	0.705700	0.819500
C1441	C144	0.289500	0.737800	0.559500
C1451	C145	0.837750	0.929440	0.522090
C1461	C146	0.670510	0.516910	0.955900
C1471	C147	0.468350	0.518620	0.854470
C1481	C148	0.674120	0.508810	0.538310
C1491	C149	0.426700	0.381000	0.419900
C1501	C150	0.907350	0.591690	0.429440
C1511	C151	0.381000	0.919900	0.926700
C1521	C152	0.864190	0.325880	0.334690
C1531	C153	0.955900	0.938990	0.785390
C1541	C154	0.690340	0.213720	0.185100
C1551	C155	0.481380	0.835850	0.949730
C1561	C156	0.230680	0.785530	0.305370
C1571	C157	0.165310	0.135810	0.174120
C1581	C158	0.886120	0.550270	0.531650
C1591	C159	0.570560	0.662250	0.977910
C1601	C160	0.846400	0.285390	0.829490
C1611	C161	0.032650	0.011550	0.307620
C1621	C162	0.237800	0.789500	0.059500
C1631	C163	0.551700	0.730000	0.789500
C1641	C164	0.635810	0.970500	0.461690
C1651	C165	0.305370	0.285530	0.230680
C1661	C166	0.011550	0.203930	0.978900
C1671	C167	0.357820	0.875420	0.873980
C1681	C168	0.786280	0.314900	0.809660
C1691	C169	0.080100	0.506800	0.461100
C1701	C170	0.982400	0.857820	0.483840
C1711	C171	0.285530	0.730680	0.805370
C1721	C172	0.361000	0.755600	0.709800
C1731	C173	0.139770	0.382530	0.464320
C1741	C174	0.019840	0.074690	0.805370
C1751	C175	0.124510	0.999100	0.240190
C1761	C176	0.881000	0.926700	0.919900
C1771	C177	0.815660	0.407350	0.477910
C1781	C178	0.386120	0.531650	0.550270
C1791	C179	0.498560	0.516160	0.373980
C1801	C180	0.790200	0.151200	0.545800
C1811	C181	0.145530	0.164150	0.113880
C1821	C182	0.554850	0.074690	0.269320
C1831	C183	0.170510	0.214610	0.153600
C1841	C184	0.257240	0.639770	0.675450
C1851	C185	0.321700	0.270000	0.059500
C1861	C186	0.867000	0.633000	0.750000
C1871	C187	0.045800	0.255600	0.894600
C1881	C188	0.113800	0.319500	0.243900
C1891	C189	0.633000	0.250000	0.367000
C1901	C190	0.213720	0.528620	0.523380
C1911	C191	0.119000	0.045700	0.538900
C1921	C192	0.142180	0.016160	0.517600
C1931	C193	0.018620	0.050270	0.164150
C1941	C194	0.954300	0.993200	0.073300
C1951	C195	0.653180	0.621860	0.557480
C1961	C196	0.785530	0.805370	0.730680
C1971	C197	0.642180	0.517600	0.016160
C1981	C198	0.461100	0.006800	0.080100
C1991	C199	0.429440	0.091690	0.907350
C2001	C200	0.815660	0.408310	0.837750
C2011	C201	0.860230	0.617470	0.535680
C2021	C202	0.785390	0.346400	0.329490
C2031	C203	0.016160	0.998560	0.873980
C2041	C204	0.468680	0.846820	0.904300
C2051	C205	0.011550	0.807620	0.532650
C2061	C206	0.008810	0.834690	0.470500
C2071	C207	0.017600	0.875420	0.001440
C2081	C208	0.570560	0.908310	0.092650
C2091	C209	0.613880	0.468350	0.449730
C2101	C210	0.250000	0.811600	0.188400
C2111	C211	0.769320	0.214470	0.694630
C2121	C212	0.758910	0.259810	0.884320
C2131	C213	0.744400	0.139000	0.790200
C2141	C214	0.621860	0.057480	0.153180
C2151	C215	0.517600	0.001440	0.875420
C2161	C216	0.461100	0.454300	0.881000
C2171	C217	0.692380	0.488450	0.967350
C2181	C218	0.438400	0.061600	0.750000
C2191	C219	0.994760	0.023380	0.309660
C2201	C220	0.373980	0.016160	0.498560
C2211	C221	0.834690	0.970500	0.508810
C2221	C222	0.467350	0.692380	0.988450
C2231	C223	0.262200	0.940500	0.210500
C2241	C224	0.755600	0.209800	0.861000
C2251	C225	0.133000	0.766000	0.383000
C2261	C226	0.059500	0.770000	0.321700
C2271	C227	0.119000	0.073300	0.080100
C2281	C228	0.449730	0.481380	0.335850
C2291	C229	0.814900	0.528620	0.005240
C2301	C230	0.692380	0.203930	0.225030
C2311	C231	0.016910	0.170510	0.455900
C2321	C232	0.314900	0.005240	0.528620
C2331	C233	0.185100	0.471380	0.994760
C2341	C234	0.756100	0.180500	0.886200
C2351	C235	0.848800	0.894600	0.639000
C2361	C236	0.756100	0.575600	0.369900
C2371	C237	0.117470	0.757240	0.581790
C2381	C238	0.940500	0.230000	0.678300
C2391	C239	0.785390	0.438990	0.955900
C2401	C240	0.980160	0.054850	0.285530
C2411	C241	0.883000	0.750000	0.117000
C2421	C242	0.678300	0.730000	0.940500
C2431	C243	0.929440	0.022090	0.337750
C2441	C244	0.531320	0.153180	0.095700
C2451	C245	0.325880	0.834690	0.364190
C2461	C246	0.364190	0.029500	0.538310
C2471	C247	0.730680	0.425310	0.445150
C2481	C248	0.613800	0.243900	0.319500
C2491	C249	0.675450	0.139770	0.257240
C2501	C250	0.162250	0.070560	0.477910
C2511	C251	0.383000	0.117000	0.750000
C2521	C252	0.124510	0.125410	0.384320
C2531	C253	0.595700	0.531320	0.653180
C2541	C254	0.796070	0.274970	0.807620
C2551	C255	0.624580	0.482400	0.498560
C2561	C256	0.164150	0.613880	0.645530
C2571	C257	0.551700	0.821700	0.262200
C2581	C258	0.834690	0.864190	0.825880
C2591	C259	0.857820	0.983840	0.482400
C2601	C260	0.538900	0.993200	0.919900
C2611	C261	0.857820	0.873980	0.875420
C2621	C262	0.750000	0.133000	0.867000
C2631	C263	0.124580	0.626020	0.142180
C2641	C264	0.531650	0.481380	0.145530
C2651	C265	0.480160	0.194630	0.925310
C2661	C266	0.983090	0.829490	0.544100
C2671	C267	0.180500	0.386200	0.256100
C2681	C268	0.374590	0.375490	0.115680
C2691	C269	0.242760	0.918210	0.382530
C2701	C270	0.714610	0.670510	0.653600
C2711	C271	0.759810	0.500900	0.875490
C2721	C272	0.205700	0.075600	0.319500
C2731	C273	0.285530	0.554850	0.980160
C2741	C274	0.518620	0.164150	0.050270
C2751	C275	0.051700	0.789500	0.730000
C2761	C276	0.061600	0.250000	0.938400
C2771	C277	0.790200	0.639000	0.744400
C2781	C278	0.528620	0.023380	0.713720
C2791	C279	0.544100	0.214610	0.061010
C2801	C280	0.521100	0.532650	0.725030
C2811	C281	0.825880	0.461690	0.491190
C2821	C282	0.796070	0.521100	0.488450
C2831	C283	0.894600	0.139000	0.348800
C2841	C284	0.991190	0.165310	0.529500
C2851	C285	0.948300	0.210500	0.270000
C2861	C286	0.573300	0.619000	0.580100
C2871	C287	0.564380	0.095700	0.942520
C2881	C288	0.635810	0.665310	0.674120
C2891	C289	0.038900	0.919900	0.993200
C2901	C290	0.307620	0.796070	0.774970
C2911	C291	0.073300	0.493200	0.954300
C2921	C292	0.307620	0.511550	0.032650
C2931	C293	0.445150	0.925310	0.730680
C2941	C294	0.824550	0.081790	0.464320
C2951	C295	0.617470	0.035680	0.360230
C2961	C296	0.968680	0.064380	0.621860
C2971	C297	0.286280	0.476620	0.471380
C2981	C298	0.968680	0.904300	0.846820
C2991	C299	0.408310	0.337750	0.315660
C3001	C300	0.124580	0.498560	0.482400
C3011	C301	0.061600	0.811600	0.623200
C3021	C302	0.419900	0.881000	0.426700
C3031	C303	0.884320	0.124510	0.625410
C3041	C304	0.554850	0.480160	0.785530
C3051	C305	0.743900	0.113800	0.819500
C3061	C306	0.258910	0.374590	0.499100
C3071	C307	0.005240	0.028620	0.814900
C3081	C308	0.001440	0.626020	0.483840
C3091	C309	0.180500	0.794300	0.424400
C3101	C310	0.713720	0.190340	0.685100
C3111	C311	0.725030	0.692380	0.703930
C3121	C312	0.354470	0.468350	0.018620
C3131	C313	0.384320	0.758910	0.759810
C3141	C314	0.210500	0.770000	0.448300
C3151	C315	0.225030	0.521100	0.032650
C3161	C316	0.970500	0.008810	0.334690
C3171	C317	0.250000	0.383000	0.617000
C3181	C318	0.835850	0.386120	0.354470
C3191	C319	0.482400	0.998560	0.124580
C3201	C320	0.559500	0.321700	0.770000
C3211	C321	0.755600	0.545800	0.394600
C3221	C322	0.581790	0.324550	0.964320
C3231	C323	0.145530	0.981380	0.531650
C3241	C324	0.051700	0.262200	0.821700
C3251	C325	0.545700	0.926700	0.006800
C3261	C326	0.766000	0.883000	0.633000
C3271	C327	0.837750	0.908310	0.815660
C3281	C328	0.964320	0.139770	0.882530
C3291	C329	0.360230	0.535680	0.617470
C3301	C330	0.954200	0.744400	0.105400
C3311	C331	0.705700	0.386200	0.130100
C3321	C332	0.373980	0.357820	0.375420
C3331	C333	0.750000	0.617000	0.383000
C3341	C334	0.203930	0.725030	0.192380
C3351	C335	0.613800	0.369900	0.794300
C3361	C336	0.244400	0.790200	0.139000
C3371	C337	0.894600	0.755600	0.045800
C3381	C338	0.907350	0.315660	0.977910
C3391	C339	0.886200	0.205700	0.630100
C3401	C340	0.619000	0.538900	0.045700
C3411	C341	0.945150	0.730680	0.925310
C3421	C342	0.574690	0.519840	0.305370
C3431	C343	0.626020	0.983840	0.501440
C3441	C344	0.519840	0.805370	0.074690
C3451	C345	0.617000	0.734000	0.867000
C3461	C346	0.139000	0.848800	0.394600
C3471	C347	0.440500	0.762200	0.710500
C3481	C348	0.665310	0.491190	0.029500
C3491	C349	0.270000	0.559500	0.821700
C3501	C350	0.519840	0.714470	0.945150
C3511	C351	0.639000	0.244400	0.290200
C3521	C352	0.070560	0.092650	0.908310
C3531	C353	0.064380	0.121860	0.468680
C3541	C354	0.153180	0.595700	0.031320
C3551	C355	0.016160	0.017600	0.642180
C3561	C356	0.961100	0.881000	0.454300
C3571	C357	0.967350	0.988450	0.692380
C3581	C358	0.762200	0.551700	0.321700
C3591	C359	0.511550	0.978900	0.203930
C3601	C360	0.438990	0.455900	0.285390
C3611	C361	0.709800	0.255600	0.361000
C3621	C362	0.190340	0.005240	0.476620
C3631	C363	0.500900	0.375490	0.259810
C3641	C364	0.376800	0.688400	0.938400
C3651	C365	0.807620	0.774970	0.796070
C3661	C366	0.165310	0.029500	0.491190
C3671	C367	0.884320	0.759810	0.758910
C3681	C368	0.378140	0.435620	0.031320
C3691	C369	0.757240	0.675450	0.639770
C3701	C370	0.869900	0.113800	0.294300
C3711	C371	0.241090	0.740190	0.115680
C3721	C372	0.875420	0.501440	0.517600
C3731	C373	0.361000	0.605400	0.151200
C3741	C374	0.613880	0.145530	0.664150
C3751	C375	0.121860	0.968680	0.564380
C3761	C376	0.483840	0.126020	0.001440
C3771	C377	0.274970	0.967350	0.478900
C3781	C378	0.821700	0.059500	0.270000
C3791	C379	0.825880	0.364190	0.834690
C3801	C380	0.532650	0.225030	0.021100
C3811	C381	0.769320	0.554850	0.574690
C3821	C382	0.886120	0.335850	0.854470
C3831	C383	0.309660	0.523380	0.994760
C3841	C384	0.016910	0.846400	0.061010
C3851	C385	0.926700	0.419900	0.381000
C3861	C386	0.605400	0.651200	0.861000
C3871	C387	0.139770	0.757240	0.175450
C3881	C388	0.230000	0.051700	0.289500
C3891	C389	0.982400	0.124580	0.998560
C3901	C390	0.464320	0.882530	0.139770
C3911	C391	0.305370	0.019840	0.574690
C3921	C392	0.770000	0.948300	0.710500
C3931	C393	0.948300	0.737800	0.178300
C3941	C394	0.633000	0.383000	0.766000
C3951	C395	0.031650	0.145530	0.481380
C3961	C396	0.935620	0.878140	0.531320
C3971	C397	0.334690	0.508810	0.970500
C3981	C398	0.057480	0.404300	0.435620
C3991	C399	0.561600	0.938400	0.250000
C4001	C400	0.022090	0.837750	0.429440
C4011	C401	0.449730	0.968350	0.613880
C4021	C402	0.725030	0.032650	0.521100
C4031	C403	0.595700	0.064380	0.442520
C4041	C404	0.367000	0.617000	0.234000
C4051	C405	0.750000	0.188400	0.811600
C4061	C406	0.703930	0.192380	0.725030
C4071	C407	0.977910	0.162250	0.570560
C4081	C408	0.192380	0.225030	0.203930
C4091	C409	0.864190	0.538310	0.029500
C4101	C410	0.625410	0.624510	0.884320
C4111	C411	0.976620	0.190340	0.505240
C4121	C412	0.054850	0.785530	0.480160
C4131	C413	0.091690	0.684340	0.662250
C4141	C414	0.244400	0.454200	0.605400
C4151	C415	0.904300	0.557480	0.935620
C4161	C416	0.164150	0.550270	0.018620
C4171	C417	0.904300	0.346820	0.468680
C4181	C418	0.978900	0.274970	0.467350
C4191	C419	0.354470	0.886120	0.835850
C4201	C420	0.214610	0.561010	0.044100
C4211	C421	0.750000	0.561600	0.438400
C4221	C422	0.688400	0.438400	0.876800
C4231	C423	0.035680	0.860230	0.117470
C4241	C424	0.532650	0.307620	0.011550
C4251	C425	0.081790	0.117470	0.257240
C4261	C426	0.516160	0.873980	0.998560
C4271	C427	0.999100	0.740190	0.624510
C4281	C428	0.234000	0.117000	0.367000
C4291	C429	0.918210	0.882530	0.742760
C4301	C430	0.378140	0.942520	0.846820
C4311	C431	0.684340	0.162250	0.591690
C4321	C432	0.113880	0.449730	0.468350
C4331	C433	0.445150	0.519840	0.214470
C4341	C434	0.175450	0.257240	0.139770
C4351	C435	0.031320	0.935620	0.378140
C4361	C436	0.624510	0.240190	0.999100
C4371	C437	0.918210	0.035680	0.675450
C4381	C438	0.805370	0.574690	0.019840
C4391	C439	0.807620	0.032650	0.511550
C4401	C440	0.929440	0.907350	0.091690
C4411	C441	0.737800	0.059500	0.789500
C4421	C442	0.139000	0.290200	0.244400
C4431	C443	0.919900	0.493200	0.538900
C4441	C444	0.774970	0.296070	0.307620
C4451	C445	0.000900	0.259810	0.375490
C4461	C446	0.285390	0.955900	0.438990
C4471	C447	0.483090	0.938990	0.153600
C4481	C448	0.461690	0.470500	0.635810
C4491	C449	0.517600	0.516160	0.142180
C4501	C450	0.981380	0.031650	0.645530
C4511	C451	0.653600	0.483090	0.438990
C4521	C452	0.081790	0.964320	0.324550
C4531	C453	0.438990	0.983090	0.653600
C4541	C454	0.742760	0.382530	0.918210
C4551	C455	0.639770	0.464320	0.382530
C4561	C456	0.394600	0.348800	0.139000
C4571	C457	0.435620	0.531320	0.878140
C4581	C458	0.861000	0.709800	0.755600
C4591	C459	0.115680	0.875490	0.374590
C4601	C460	0.386200	0.630100	0.205700
C4611	C461	0.382530	0.418210	0.242760
C4621	C462	0.875490	0.874590	0.615680
C4631	C463	0.477910	0.570560	0.162250
C4641	C464	0.964320	0.824550	0.581790
C4651	C465	0.214470	0.194630	0.269320
C4661	C466	0.418210	0.742760	0.882530
C4671	C467	0.882530	0.639770	0.964320
C4681	C468	0.455900	0.785390	0.938990
C4691	C469	0.653600	0.170510	0.714610
C4701	C470	0.653180	0.031320	0.595700
C4711	C471	0.703930	0.511550	0.478900
C4721	C472	0.574690	0.054850	0.769320
C4731	C473	0.740190	0.124510	0.499100
C4741	C474	0.346820	0.968680	0.404300
C4751	C475	0.789500	0.230000	0.551700
C4761	C476	0.250000	0.867000	0.133000
C4771	C477	0.184340	0.591690	0.162250
C4781	C478	0.482400	0.483840	0.857820
C4791	C479	0.230000	0.178300	0.440500
C4801	C480	0.117000	0.250000	0.883000
C4811	C481	0.516910	0.061010	0.846400
C4821	C482	0.262200	0.321700	0.551700
C4831	C483	0.021100	0.296070	0.988450
C4841	C484	0.151200	0.105400	0.361000
C4851	C485	0.505240	0.690340	0.976620
C4861	C486	0.348800	0.639000	0.894600
C4871	C487	0.478900	0.011550	0.703930
C4881	C488	0.471380	0.976620	0.286280
C4891	C489	0.360230	0.824550	0.242760
C4901	C490	0.908310	0.315660	0.337750
C4911	C491	0.819500	0.613800	0.743900
C4921	C492	0.545800	0.651200	0.790200
C4931	C493	0.324550	0.860230	0.742760
C4941	C494	0.296070	0.807620	0.274970
C4951	C495	0.535680	0.418210	0.175450
C4961	C496	0.237800	0.448300	0.678300
C4971	C497	0.878140	0.031320	0.435620
C4981	C498	0.061010	0.714610	0.544100
C4991	C499	0.023380	0.213720	0.028620
C5001	C500	0.500900	0.125410	0.741090
C5011	C501	0.794300	0.869900	0.613800
C5021	C502	0.022090	0.184340	0.092650
C5031	C503	0.426700	0.045700	0.506800
C5041	C504	0.194630	0.769320	0.714470
C5051	C505	0.346400	0.516910	0.561010
C5061	C506	0.983090	0.153600	0.938990
C5071	C507	0.483840	0.357820	0.982400
C5081	C508	0.991190	0.825880	0.961690
C5091	C509	0.255600	0.394600	0.545800
C5101	C510	0.967350	0.978900	0.774970
C5111	C511	0.442520	0.564380	0.595700
C5121	C512	0.242760	0.324550	0.360230
C5131	C513	0.940500	0.710500	0.762200
C5141	C514	0.044100	0.061010	0.214610
C5151	C515	0.516160	0.642180	0.017600
C5161	C516	0.240190	0.741090	0.615680
C5171	C517	0.044100	0.983090	0.329490
C5181	C518	0.259810	0.875490	0.500900
C5191	C519	0.269320	0.694630	0.214470
C5201	C520	0.105400	0.861000	0.651200
C5211	C521	0.561600	0.623200	0.811600
C5221	C522	0.125410	0.884320	0.624510
C5231	C523	0.407350	0.429440	0.591690
C5241	C524	0.029500	0.991190	0.665310
C5251	C525	0.506800	0.545700	0.426700
C5261	C526	0.470500	0.135810	0.961690
C5271	C527	0.713720	0.523380	0.528620
C5281	C528	0.522090	0.429440	0.837750
C5291	C529	0.955900	0.016910	0.670510
C5301	C530	0.367000	0.750000	0.633000
C5311	C531	0.961690	0.325880	0.991190
C5321	C532	0.617470	0.581790	0.757240
C5331	C533	0.846820	0.442520	0.378140
C5341	C534	0.478900	0.467350	0.274970
C5351	C535	0.454300	0.073300	0.993200
C5361	C536	0.074690	0.305370	0.519840
C5371	C537	0.334690	0.825880	0.864190
C5381	C538	0.038310	0.364190	0.529500
C5391	C539	0.407350	0.977910	0.315660
C5401	C540	0.794300	0.924400	0.680500
C5411	C541	0.329490	0.846400	0.785390
C5421	C542	0.670510	0.153600	0.214610
C5431	C543	0.175450	0.918210	0.535680
C5441	C544	0.538310	0.529500	0.364190
C5451	C545	0.335850	0.981380	0.449730
C5461	C546	0.384320	0.625410	0.124510
C5471	C547	0.023380	0.809660	0.494760
C5481	C548	0.538900	0.545700	0.119000
C5491	C549	0.744400	0.605400	0.454200
C5501	C550	0.741090	0.115680	0.740190
C5511	C551	0.994760	0.971380	0.185100
C5521	C552	0.998560	0.373980	0.516160
C5531	C553	0.561010	0.016910	0.346400
C5541	C554	0.938990	0.653600	0.983090
C5551	C555	0.488450	0.467350	0.192380
C5561	C556	0.241090	0.500900	0.625410
C5571	C557	0.949730	0.335850	0.481380
C5581	C558	0.394600	0.045800	0.755600
C5591	C559	0.938400	0.188400	0.376800
C5601	C560	0.274970	0.307620	0.296070
C5611	C561	0.621860	0.564380	0.968680
C5621	C562	0.311600	0.561600	0.123200
C5631	C563	0.762200	0.210500	0.940500
C5641	C564	0.269320	0.574690	0.554850
C5651	C565	0.774970	0.478900	0.967350
C5661	C566	0.357820	0.482400	0.983840
C5671	C567	0.174120	0.635810	0.165310
C5681	C568	0.881000	0.954300	0.461100
C5691	C569	0.684340	0.522090	0.592650
C5701	C570	0.730680	0.305370	0.785530
C5711	C571	0.730000	0.440500	0.178300
C5721	C572	0.442520	0.878140	0.346820
C5731	C573	0.983840	0.982400	0.357820
C5741	C574	0.008810	0.174120	0.038310
C5751	C575	0.876800	0.938400	0.688400
C5761	C576	0.737800	0.678300	0.448300
C5771	C577	0.225030	0.703930	0.692380
C5781	C578	0.028620	0.713720	0.023380
C5791	C579	0.438400	0.376800	0.188400
C5801	C580	0.983840	0.001440	0.126020
C5811	C581	0.184340	0.592650	0.522090
C5821	C582	0.031320	0.095700	0.153180
C5831	C583	0.382530	0.964320	0.639770
C5841	C584	0.259810	0.384320	0.258910
C5851	C585	0.461690	0.991190	0.325880
C5861	C586	0.135810	0.461690	0.970500
C5871	C587	0.829490	0.044100	0.483090
C5881	C588	0.386200	0.756100	0.680500
C5891	C589	0.854470	0.018620	0.468350
C5901	C590	0.346400	0.829490	0.285390
C5911	C591	0.418210	0.675450	0.035680
C5921	C592	0.714470	0.269320	0.194630
C5931	C593	0.557480	0.435620	0.404300
C5941	C594	0.383000	0.266000	0.133000
C5951	C595	0.873980	0.375420	0.357820
C5961	C596	0.488450	0.021100	0.796070
C5971	C597	0.993200	0.419900	0.038900
C5981	C598	0.758910	0.499100	0.374590
C5991	C599	0.185100	0.713720	0.690340
C6001	C600	0.005240	0.976620	0.690340
C6011	C601	0.335850	0.354470	0.386120
C6021	C602	0.054850	0.269320	0.074690
C6031	C603	0.685100	0.994760	0.471380
C6041	C604	0.045800	0.790200	0.651200
C6051	C605	0.529500	0.864190	0.038310
C6061	C606	0.074690	0.769320	0.054850
C6071	C607	0.814900	0.286280	0.309660
C6081	C608	0.256100	0.886200	0.180500
C6091	C609	0.117000	0.867000	0.734000
C6101	C610	0.938990	0.285390	0.455900
C6111	C611	0.499100	0.874590	0.258910
C6121	C612	0.511550	0.532650	0.807620
C6131	C613	0.924400	0.180500	0.294300
C6141	C614	0.811600	0.688400	0.750000
C6151	C615	0.133000	0.367000	0.250000
C6161	C616	0.386120	0.854470	0.335850
C6171	C617	0.468680	0.621860	0.064380
C6181	C618	0.483090	0.544100	0.829490
C6191	C619	0.000900	0.741090	0.125410
C6201	C620	0.528620	0.505240	0.314900
C6211	C621	0.018620	0.968350	0.354470
C6221	C622	0.680500	0.256100	0.386200
C6231	C623	0.824550	0.742760	0.860230
C6241	C624	0.404300	0.468680	0.346820
C6251	C625	0.685100	0.690340	0.713720
C6261	C626	0.980160	0.925310	0.194630
C6271	C627	0.126020	0.501440	0.983840
C6281	C628	0.734000	0.367000	0.117000
C6291	C629	0.470500	0.334690	0.008810
C6301	C630	0.981380	0.949730	0.835850
C6311	C631	0.819500	0.205700	0.575600
C6321	C632	0.860230	0.242760	0.824550
C6331	C633	0.294300	0.613800	0.869900
C6341	C634	0.311600	0.750000	0.688400
C6351	C635	0.061010	0.346400	0.016910
C6361	C636	0.575600	0.869900	0.256100
C6371	C637	0.113800	0.794300	0.369900
C6381	C638	0.714610	0.044100	0.561010
C6391	C639	0.545800	0.894600	0.255600
C6401	C640	0.925310	0.694630	0.480160
C6411	C641	0.029500	0.038310	0.864190
C6421	C642	0.619000	0.080100	0.073300
C6431	C643	0.467350	0.774970	0.978900
C6441	C644	0.494760	0.185100	0.971380
C6451	C645	0.581790	0.257240	0.117470
C6461	C646	0.757240	0.081790	0.617470
C6471	C647	0.404300	0.935620	0.557480
C6481	C648	0.545700	0.619000	0.038900
C6491	C649	0.019840	0.945150	0.714470
C6501	C650	0.835850	0.449730	0.981380
C6511	C651	0.424400	0.294300	0.180500
C6521	C652	0.809660	0.814900	0.786280
C6531	C653	0.064380	0.942520	0.095700
C6541	C654	0.455900	0.670510	0.016910
C6551	C655	0.875490	0.000900	0.759810
C6561	C656	0.194630	0.425310	0.980160
C6571	C657	0.645530	0.531650	0.981380
C6581	C658	0.544100	0.329490	0.983090
C6591	C659	0.315660	0.837750	0.408310
C6601	C660	0.153180	0.557480	0.621860
C6611	C661	0.878140	0.846820	0.942520
C6621	C662	0.998560	0.624580	0.982400
C6631	C663	0.348800	0.709800	0.954200
C6641	C664	0.886200	0.680500	0.756100
C6651	C665	0.665310	0.174120	0.135810
C6661	C666	0.740190	0.615680	0.741090
C6671	C667	0.257240	0.617470	0.081790
C6681	C668	0.192380	0.967350	0.488450
C6691	C669	0.630100	0.924400	0.243900
C6701	C670	0.256100	0.369900	0.575600
C6711	C671	0.615680	0.374590	0.875490
C6721	C672	0.935620	0.057480	0.904300
C6731	C673	0.846400	0.561010	0.516910
C6741	C674	0.038310	0.674120	0.008810
C6751	C675	0.214470	0.019840	0.445150
C6761	C676	0.369900	0.294300	0.113800
C6771	C677	0.550270	0.031650	0.386120
C6781	C678	0.970500	0.961690	0.135810
C6791	C679	0.092650	0.684340	0.022090
C6801	C680	0.522090	0.092650	0.184340
C6811	C681	0.440500	0.678300	0.230000
C6821	C682	0.481380	0.645530	0.031650
C6831	C683	0.314900	0.309660	0.286280
C6841	C684	0.518620	0.354470	0.968350
C6851	C685	0.285390	0.329490	0.346400
C6861	C686	0.882530	0.242760	0.418210
C6871	C687	0.464320	0.581790	0.824550
C6881	C688	0.075600	0.256100	0.869900
C6891	C689	0.710500	0.262200	0.440500
C6901	C690	0.942520	0.595700	0.564380
C6911	C691	0.988450	0.192380	0.467350
C6921	C692	0.498560	0.982400	0.624580
C6931	C693	0.875420	0.373980	0.857820
C6941	C694	0.678300	0.948300	0.237800
C6951	C695	0.811600	0.123200	0.561600
C6961	C696	0.337750	0.815660	0.908310
C6971	C697	0.662250	0.477910	0.070560
C6981	C698	0.476620	0.505240	0.190340
C6991	C699	0.435620	0.904300	0.057480
C7001	C700	0.205700	0.130100	0.386200
C7011	C701	0.978900	0.703930	0.011550
C7021	C702	0.454300	0.381000	0.961100
C7031	C703	0.289500	0.551700	0.230000
C7041	C704	0.493200	0.038900	0.419900
C7051	C705	0.021100	0.725030	0.532650
C7061	C706	0.523380	0.028620	0.213720
C7071	C707	0.926700	0.506800	0.045700
C7081	C708	0.408310	0.070560	0.592650
C7091	C709	0.874590	0.758910	0.999100
C7101	C710	0.705700	0.319500	0.075600
C7111	C711	0.203930	0.478900	0.511550
C7121	C712	0.126020	0.624580	0.642180
C7131	C713	0.258910	0.884320	0.259810
C7141	C714	0.805370	0.230680	0.285530
C7151	C715	0.580100	0.119000	0.573300
C7161	C716	0.243900	0.424400	0.630100
C7171	C717	0.329490	0.483090	0.044100
C7181	C718	0.130100	0.243900	0.924400
C7191	C719	0.961100	0.080100	0.006800
C7201	C720	0.045700	0.038900	0.619000
C7211	C721	0.050270	0.386120	0.031650
C7221	C722	0.742760	0.360230	0.324550
C7231	C723	0.949730	0.613880	0.968350
C7241	C724	0.375490	0.759810	0.000900
C7251	C725	0.938400	0.750000	0.061600
C7261	C726	0.651200	0.361000	0.105400
C7271	C727	0.250000	0.438400	0.561600
C7281	C728	0.337750	0.522090	0.929440
C7291	C729	0.309660	0.786280	0.814900
C7301	C730	0.369900	0.075600	0.756100
C7311	C731	0.615680	0.241090	0.240190
C7321	C732	0.580100	0.461100	0.506800
C7331	C733	0.190340	0.185100	0.213720
C7341	C734	0.925310	0.230680	0.945150
C7351	C735	0.531650	0.050270	0.886120
C7361	C736	0.214610	0.653600	0.670510
C7371	C737	0.230680	0.445150	0.425310
C7381	C738	0.266000	0.633000	0.883000
C7391	C739	0.710500	0.448300	0.770000
C7401	C740	0.759810	0.258910	0.384320
C7411	C741	0.188400	0.876800	0.438400
C7421	C742	0.694630	0.714470	0.769320
C7431	C743	0.508810	0.038310	0.174120
C7441	C744	0.662250	0.184340	0.091690
C7451	C745	0.240190	0.499100	0.124510
C7461	C746	0.617000	0.883000	0.250000
C7471	C747	0.162250	0.091690	0.184340
C7481	C748	0.564380	0.468680	0.121860
C7491	C749	0.153600	0.438990	0.483090
C7501	C750	0.070560	0.977910	0.662250
C7511	C751	0.861000	0.151200	0.605400
C7521	C752	0.471380	0.494760	0.685100
C7531	C753	0.095700	0.653180	0.531320
C7541	C754	0.121860	0.153180	0.057480
C7551	C755	0.848800	0.954200	0.709800
C7561	C756	0.501440	0.483840	0.626020
C7571	C757	0.448300	0.270000	0.210500
C7581	C758	0.073300	0.580100	0.619000
C7591	C759	0.690340	0.476620	0.005240
C7601	C760	0.651200	0.290200	0.045800
C7611	C761	0.151200	0.045800	0.290200
C7621	C762	0.639000	0.394600	0.848800
C7631	C763	0.270000	0.710500	0.948300
C7641	C764	0.142180	0.126020	0.124580
C7651	C765	0.505240	0.814900	0.028620
C7661	C766	0.623200	0.311600	0.061600
C7671	C767	0.968350	0.854470	0.518620
C7681	C768	0.675450	0.535680	0.918210
O11	O1	0.457320	0.427670	0.435730
O21	O2	0.082740	0.938730	0.000590
O31	O3	0.355990	0.938730	0.938140
O41	O4	0.457320	0.029650	0.521590
O51	O5	0.500590	0.082740	0.438730
O61	O6	0.999410	0.438140	0.582150
O71	O7	0.000590	0.438730	0.082740
O81	O8	0.021590	0.564270	0.991940
O91	O9	0.478410	0.470350	0.542680
O101	O10	0.917260	0.061270	0.999410
O111	O11	0.644010	0.582740	0.082150
O121	O12	0.082150	0.999410	0.938140
O131	O13	0.499410	0.917260	0.561270
O141	O14	0.561860	0.917850	0.500590
O151	O15	0.064270	0.521590	0.491940
O161	O16	0.855990	0.917850	0.417260
O171	O17	0.564270	0.072330	0.542680
O181	O18	0.564270	0.491940	0.521590
O191	O19	0.529650	0.957320	0.021590
O201	O20	0.917260	0.855990	0.417850
O211	O21	0.970350	0.978410	0.042680
O221	O22	0.521590	0.529650	0.457320
O231	O23	0.978410	0.435730	0.008060
O241	O24	0.572330	0.508060	0.029650
O251	O25	0.508060	0.978410	0.935730
O261	O26	0.938140	0.499410	0.082150
O271	O27	0.435730	0.927670	0.457320
O281	O28	0.499410	0.582150	0.438140
O291	O29	0.061270	0.561860	0.144010
O301	O30	0.529650	0.572330	0.008060
O311	O31	0.144010	0.061860	0.061270
O321	O32	0.072330	0.029650	0.508060
O331	O33	0.970350	0.991940	0.427670
O341	O34	0.500590	0.417850	0.561860
O351	O35	0.938730	0.438140	0.855990
O361	O36	0.417850	0.061860	0.000590
O371	O37	0.561860	0.644010	0.561270
O381	O38	0.938140	0.438730	0.355990
O391	O39	0.042680	0.564270	0.572330
O401	O40	0.521590	0.991940	0.564270
O411	O41	0.072330	0.042680	0.064270
O421	O42	0.957320	0.521590	0.029650
O431	O43	0.438140	0.082150	0.499410
O441	O44	0.927670	0.957320	0.935730
O451	O45	0.935730	0.457320	0.927670
O461	O46	0.542680	0.970350	0.478410
O471	O47	0.917850	0.000590	0.061860
O481	O48	0.855990	0.938140	0.938730
O491	O49	0.008060	0.072330	0.529650
O501	O50	0.427670	0.935730	0.957320
O511	O51	0.572330	0.064270	0.042680
O521	O52	0.427670	0.491940	0.970350
O531	O53	0.000590	0.561860	0.417850
O541	O54	0.478410	0.008060	0.435730
O551	O55	0.082150	0.082740	0.644010
O561	O56	0.438730	0.855990	0.438140
O571	O57	0.417260	0.417850	0.855990
O581	O58	0.508060	0.529650	0.072330
O591	O59	0.935730	0.478410	0.508060
O601	O60	0.978410	0.542680	0.470350
O611	O61	0.061860	0.500590	0.917850
O621	O62	0.991940	0.064270	0.021590
O631	O63	0.061860	0.561270	0.644010
O641	O64	0.491940	0.470350	0.927670
O651	O65	0.417850	0.355990	0.917260
O661	O66	0.029650	0.021590	0.957320
O671	O67	0.561270	0.417260	0.499410
O681	O68	0.021590	0.457320	0.529650
O691	O69	0.417260	0.999410	0.061270
O701	O70	0.470350	0.427670	0.991940
O711	O71	0.644010	0.061270	0.061860
O721	O72	0.999410	0.561270	0.917260
O731	O73	0.991940	0.927670	0.470350
O741	O74	0.561270	0.144010	0.561860
O751	O75	0.029650	0.008060	0.572330
O761	O76	0.957320	0.435730	0.427670
O771	O77	0.542680	0.572330	0.564270
O781	O78	0.144010	0.082150	0.582740
O791	O79	0.042680	0.478410	0.970350
O801	O80	0.008060	0.935730	0.978410
O811	O81	0.917850	0.917260	0.355990
O821	O82	0.927670	0.970350	0.491940
O831	O83	0.435730	0.508060	0.478410
O841	O84	0.355990	0.417260	0.917850
O851	O85	0.061270	0.499410	0.417260
O861	O86	0.491940	0.021590	0.064270
O871	O87	0.582150	0.644010	0.082740
O881	O88	0.438730	0.582740	0.500590
O891	O89	0.438140	0.355990	0.438730
O901	O90	0.064270	0.542680	0.072330
O911	O91	0.082740	0.144010	0.582150
O921	O92	0.582150	0.938140	0.999410
O931	O93	0.938730	0.500590	0.582740
O941	O94	0.582740	0.000590	0.938730
O951	O95	0.470350	0.042680	0.978410
O961	O96	0.582740	0.582150	0.144010
