data_ic5029383_si_002_clean_PM
_symmetry_space_group_name_H-M	'P1'
_cell_length_a	29.742500
_cell_length_b	31.107500
_cell_length_c	31.107500
_cell_angle_alpha	69.657000
_cell_angle_beta	71.415300
_cell_angle_gamma	108.585000
_symmetry_Int_Tables_number 1

loop_
_symmetry_equiv_pos_as_xyz
'x,y,z'

loop_
_atom_site_label
_atom_site_type_symbol
_atom_site_fract_x
_atom_site_fract_y
_atom_site_fract_z
Zn11	Zn1	0.372830	0.747010	0.541280
Zn21	Zn2	0.774670	0.071040	0.974940
Zn31	Zn3	0.941590	0.494850	0.638010
Zn41	Zn4	0.905500	0.431010	0.758370
Zn51	Zn5	0.021430	0.531610	0.684430
Zn61	Zn6	0.579600	0.638010	0.867140
Zn71	Zn7	0.749610	0.974940	0.954020
Zn81	Zn8	0.705860	0.684430	0.783960
Zn91	Zn9	0.489820	0.783960	0.531610
Zn101	Zn10	0.446740	0.867140	0.494850
Zn111	Zn11	0.663870	0.758370	0.810620
Zn121	Zn12	0.914110	0.541280	0.711710
Zn131	Zn13	0.474490	0.810620	0.431010
Zn141	Zn14	0.703630	0.954020	0.071040
Zn151	Zn15	0.828270	0.000000	0.000000
Zn161	Zn16	0.625820	0.711710	0.747010
H11	H1	0.875000	0.738000	0.860900
H21	H2	0.251500	0.594900	0.378400
H31	H3	0.604400	0.834800	0.667900
H41	H4	0.709400	0.343600	0.984700
H51	H5	0.157500	0.599600	0.543000
H61	H6	0.679900	0.702400	0.605500
H71	H7	0.607300	0.033500	0.535700
H81	H8	0.694100	0.984700	0.671700
H91	H9	0.912000	0.922700	0.954100
H101	H10	0.029000	0.769900	0.696500
H111	H11	0.977500	0.692100	0.702400
H121	H12	0.438300	0.689100	0.123700
H131	H13	0.876500	0.935000	0.197400
H141	H14	0.656600	0.026700	0.594900
H151	H15	0.725100	0.050200	0.827200
H161	H16	0.429700	0.678200	0.682300
H171	H17	0.474000	0.638600	0.988300
H181	H18	0.557900	0.857400	0.599600
H191	H19	0.789600	0.177500	0.833600
H201	H20	0.735900	0.860900	0.401100
H211	H21	0.596500	0.766600	0.950700
H221	H22	0.810800	0.892600	0.895500
H231	H23	0.089900	0.444900	0.718200
H241	H24	0.296600	0.494400	0.832400
H251	H25	0.629900	0.378400	0.026700
H261	H26	0.781300	0.377000	0.904400
H271	H27	0.829900	0.282700	0.766600
H281	H28	0.685700	0.904400	0.718600
H291	H29	0.554800	0.985000	0.510900
H301	H30	0.700500	0.543000	0.857400
H311	H31	0.112000	0.682300	0.639500
H321	H32	0.783000	0.833600	0.850300
H331	H33	0.425500	0.632400	0.064300
H341	H34	0.562000	0.123700	0.187200
H351	H35	0.137000	0.401100	0.738000
H361	H36	0.259100	0.533600	0.769900
H371	H37	0.802200	0.673200	0.494400
H381	H38	0.317200	0.891000	0.574300
H391	H39	0.725500	0.696500	0.533600
H401	H40	0.751500	0.639500	0.678200
H411	H41	0.226600	0.748800	0.598900
H421	H42	0.674900	0.122600	0.050200
H431	H43	0.915200	0.788200	0.912900
H441	H44	0.866100	0.954100	0.123200
H451	H45	0.285400	0.605500	0.692100
H461	H46	0.749200	0.187200	0.689100
H471	H47	0.472800	0.756800	0.153900
H481	H48	0.848100	0.608400	0.494100
H491	H49	0.065700	0.510900	0.504100
H501	H50	0.825500	0.598900	0.652300
H511	H51	0.949400	0.316100	0.833600
H521	H52	0.489800	0.064300	0.303300
H531	H53	0.828100	0.912900	0.298900
H541	H54	0.272300	0.667900	0.497300
H551	H55	0.129000	0.832400	0.673200
H561	H56	0.716000	0.089300	0.756800
H571	H57	0.835400	0.373100	0.638600
H581	H58	0.342200	0.494100	0.897500
H591	H59	0.941500	0.867600	0.935000
H601	H60	0.633300	0.850300	0.316100
H611	H61	0.623200	0.833600	0.988900
H621	H62	0.573800	0.430800	0.033500
H631	H63	0.793100	0.303300	0.632400
H641	H64	0.552300	0.827200	0.122600
H651	H65	0.462300	0.988300	0.373100
H661	H66	0.769600	0.497300	0.834800
H671	H67	0.404300	0.718600	0.377000
H681	H68	0.808100	0.718200	0.836900
H691	H69	0.989300	0.123200	0.922700
H701	H70	0.891500	0.574300	0.534700
H711	H71	0.626700	0.153900	0.089300
H721	H72	0.426200	0.534700	0.891000
H731	H73	0.569800	0.504100	0.985000
H741	H74	0.073900	0.197400	0.867600
H751	H75	0.143000	0.535700	0.430800
H761	H76	0.365800	0.671700	0.343600
H771	H77	0.239700	0.897500	0.608400
H781	H78	0.127000	0.298900	0.788200
H791	H79	0.706300	0.895500	0.211900
H801	H80	0.477800	0.652300	0.748800
H811	H81	0.645000	0.836900	0.444900
H821	H82	0.547200	0.950700	0.282700
H831	H83	0.918200	0.211900	0.892600
H841	H84	0.612100	0.988900	0.177500
C11	C1	0.858500	0.913000	0.926700
C21	C2	0.347700	0.699600	0.443500
C31	C3	0.740400	0.903400	0.209000
C41	C4	0.651000	0.052500	0.105500
C51	C5	0.550900	0.813500	0.100500
C61	C6	0.804000	0.621300	0.596100
C71	C7	0.830000	0.600800	0.620600
C81	C8	0.653800	0.852400	0.333200
C91	C9	0.624000	0.865200	0.667400
C101	C10	0.400100	0.596100	0.782600
C111	C11	0.800500	0.298500	0.660000
C121	C12	0.677400	0.476600	0.921800
C131	C13	0.287000	0.633400	0.407300
C141	C14	0.258000	0.635400	0.456100
C151	C15	0.551270	0.916570	0.552660
C161	C16	0.616800	0.022300	0.159900
C171	C17	0.758800	0.467400	0.865200
C181	C18	0.574800	0.825100	0.424100
C191	C19	0.842400	0.927100	0.200300
C201	C20	0.597340	0.998180	0.548560
C211	C21	0.553300	0.775200	0.038500
C221	C22	0.591800	0.038500	0.186300
C231	C23	0.843500	0.606500	0.525800
C241	C24	0.854700	0.854600	0.892000
C251	C25	0.359600	0.548800	0.827100
C261	C26	0.345000	0.668200	0.375500
C271	C27	0.071100	0.410300	0.745400
C281	C28	0.328200	0.814400	0.557400
C291	C29	0.784400	0.948200	0.110400
C301	C30	0.450600	0.620600	0.778600
C311	C31	0.103930	0.552660	0.530770
C321	C32	0.291400	0.667400	0.467400
C331	C33	0.998900	0.424100	0.750800
C341	C34	0.648100	0.856900	0.699600
C351	C35	0.328600	0.562900	0.772800
C361	C36	0.624700	0.122000	0.108100
C371	C37	0.229200	0.778600	0.600800
C381	C38	0.670700	0.905400	0.696500
C391	C39	0.598500	0.842000	0.052500
C401	C40	0.869600	0.586100	0.550100
C411	C41	0.711200	0.671500	0.649000
C421	C42	0.694300	0.407300	0.959300
C431	C43	0.720500	0.375500	0.956300
C441	C44	0.504100	0.748400	0.090900
C451	C45	0.541200	0.055700	0.243400
C461	C46	0.395500	0.649300	0.699900
C471	C47	0.498100	0.957800	0.339900
C481	C48	0.675010	0.520510	0.892780
C491	C49	0.801400	0.814400	0.852400
C501	C50	0.836200	0.941400	0.948200
C511	C51	0.490400	0.664600	0.994800
C521	C52	0.309000	0.605600	0.705700
C531	C53	0.565900	0.969100	0.533700
C541	C54	0.821000	0.286200	0.740100
C551	C55	0.015300	0.307000	0.826300
C561	C56	0.014900	0.384800	0.773900
C571	C57	0.810800	0.624100	0.548800
C581	C58	0.838000	0.339900	0.702300
C591	C59	0.377100	0.728900	0.463500
C601	C60	0.200800	0.601600	0.476600
C611	C61	0.660800	0.844300	0.410300
C621	C62	0.841600	0.826300	0.866700
C631	C63	0.485500	0.700900	0.055700
C641	C64	0.367200	0.696500	0.398100
C651	C65	0.574600	0.702200	0.911200
C661	C66	0.773600	0.647300	0.606200
C671	C67	0.460500	0.660000	0.041500
C681	C68	0.595000	0.090900	0.160700
C691	C69	0.816500	0.745400	0.844300
C701	C70	0.746700	0.892000	0.253400
C711	C71	0.684800	0.684600	0.688800
C721	C72	0.785200	0.926700	0.160300
C731	C73	0.293300	0.562600	0.752400
C741	C74	0.739000	0.870000	0.332500
C751	C75	0.776700	0.159900	0.817800
C761	C76	0.596800	0.497200	0.969100
C771	C77	0.737400	0.086000	0.813500
C781	C78	0.071500	0.332500	0.797500
C791	C79	0.054400	0.535900	0.578900
C801	C80	0.186700	0.827100	0.624100
C811	C81	0.949400	0.209000	0.887600
C821	C82	0.751700	0.072500	0.893000
C831	C83	0.154500	0.586710	0.520510
C841	C84	0.513800	0.628200	0.814400
C851	C85	0.869000	0.797500	0.870000
C861	C86	0.540300	0.702300	0.957800
C871	C87	0.182700	0.782600	0.621300
C881	C88	0.987000	0.333200	0.814400
C891	C89	0.749700	0.750800	0.825100
C901	C90	0.000200	0.626600	0.684600
C911	C91	0.648200	0.807600	0.728900
C921	C92	0.145900	0.548560	0.453260
C931	C93	0.196560	0.582520	0.442940
C941	C94	0.791200	0.443500	0.856900
C951	C95	0.379800	0.606200	0.746500
C961	C96	0.373600	0.688800	0.626600
C971	C97	0.283500	0.863800	0.586100
C981	C98	0.534200	0.741800	0.020100
C991	C99	0.633300	0.578900	0.885200
C1001	C100	0.836200	0.938500	0.155900
C1011	C101	0.126300	0.746500	0.647300
C1021	C102	0.679200	0.034500	0.072500
C1031	C103	0.893900	0.847200	0.903800
C1041	C104	0.730700	0.685000	0.562600
C1051	C105	0.714100	0.456100	0.908500
C1061	C106	0.755700	0.160700	0.748400
C1071	C107	0.099500	0.384100	0.757000
C1081	C108	0.765300	0.398100	0.905400
C1091	C109	0.237000	0.867700	0.606500
C1101	C110	0.630100	0.841300	0.384800
C1111	C111	0.778100	0.186300	0.775200
C1121	C112	0.825800	0.340600	0.664600
C1131	C113	0.099600	0.533700	0.497200
C1141	C114	0.639500	0.442940	0.974540
C1151	C115	0.039700	0.679500	0.671500
C1161	C116	0.651400	0.100500	0.086000
C1171	C117	0.279600	0.819200	0.583200
C1181	C118	0.708300	0.866700	0.307000
C1191	C119	0.872400	0.386600	0.702200
C1201	C120	0.534800	0.973700	0.286200
C1211	C121	0.837000	0.887600	0.903400
C1221	C122	0.460400	0.597600	0.819200
C1231	C123	0.715400	0.858900	0.384100
C1241	C124	0.756500	0.105500	0.842000
C1251	C125	0.653600	0.959300	0.633400
C1261	C126	0.788800	0.773900	0.841300
C1271	C127	0.784600	0.243400	0.700900
C1281	C128	0.622600	0.908500	0.635400
C1291	C129	0.594500	0.817800	0.022300
C1301	C130	0.599200	0.921800	0.601600
C1311	C131	0.797700	0.903800	0.249000
C1321	C132	0.840600	0.463500	0.807600
C1331	C133	0.885600	0.557400	0.628200
C1341	C134	0.897700	0.905600	0.938500
C1351	C135	0.000100	0.253400	0.854600
C1361	C136	0.042700	0.200300	0.872600
C1371	C137	0.614040	0.974540	0.582520
C1381	C138	0.014700	0.705700	0.688700
C1391	C139	0.732800	0.108100	0.769900
C1401	C140	0.502700	0.769900	0.122000
C1411	C141	0.599160	0.453260	0.998180
C1421	C142	0.369300	0.525800	0.867700
C1431	C143	0.554300	0.020100	0.238100
C1441	C144	0.360200	0.649000	0.679500
C1451	C145	0.419700	0.550100	0.863800
C1461	C146	0.518500	0.885200	0.535900
C1471	C147	0.485800	0.911200	0.386600
C1481	C148	0.746200	0.650800	0.649300
C1491	C149	0.095400	0.699900	0.650800
C1501	C150	0.101400	0.772800	0.664300
C1511	C151	0.567790	0.892780	0.586710
C1521	C152	0.894800	0.110400	0.941400
C1531	C153	0.792400	0.238100	0.741800
C1541	C154	0.561100	0.740100	0.973700
C1551	C155	0.992100	0.155900	0.905600
C1561	C156	0.765700	0.664300	0.562900
C1571	C157	0.045700	0.752400	0.685000
C1581	C158	0.856500	0.757000	0.858900
C1591	C159	0.915300	0.872600	0.927100
C1601	C160	0.485200	0.994800	0.340600
C1611	C161	0.862800	0.583200	0.597600
C1621	C162	0.046700	0.249000	0.847200
C1631	C163	0.703400	0.688700	0.605600
C1641	C164	0.945500	0.160300	0.913000
C1651	C165	0.634700	0.530770	0.916570
C1661	C166	0.502000	0.041500	0.298500
C1671	C167	0.644700	0.893000	0.034500
C1681	C168	0.676800	0.956300	0.668200
N11	N1	0.566100	0.096300	0.194300
N21	N2	0.095000	0.294200	0.804800
N31	N3	0.246000	0.601700	0.403500
N41	N4	0.321200	0.526600	0.815100
N51	N5	0.899800	0.804800	0.901000
N61	N6	0.760400	0.194300	0.709400
N71	N7	0.136300	0.815100	0.658300
N81	N8	0.649500	0.403500	0.994800
N91	N9	0.469800	0.709400	0.096300
N101	N10	0.800800	0.901000	0.294200
N111	N11	0.644300	0.994800	0.601700
N121	N12	0.794600	0.658300	0.526600
O11	O1	0.949600	0.602800	0.706400
O21	O2	0.799600	0.950300	0.930400
O31	O3	0.543000	0.815000	0.402000
O41	O4	0.889100	0.424700	0.660500
O51	O5	0.444800	0.801200	0.498900
O61	O6	0.772100	0.096800	0.909800
O71	O7	0.663700	0.818800	0.757800
O81	O8	0.943700	0.498900	0.699900
O91	O9	0.488100	0.876900	0.378700
O101	O10	0.852300	0.963900	0.965000
O111	O11	0.945000	0.402000	0.783000
O121	O12	0.849300	0.502600	0.779500
O131	O13	0.495500	0.904900	0.512600
O141	O14	0.514300	0.843700	0.546800
O151	O15	0.326300	0.774500	0.558000
O161	O16	0.346700	0.717900	0.502600
O171	O17	0.817300	0.965000	0.071100
O181	O18	0.560700	0.822700	0.465200
O191	O19	0.913500	0.539000	0.606200
O201	O20	0.675300	0.993400	0.096800
O211	O21	0.888400	0.071100	0.963900
O221	O22	0.643600	0.699900	0.801200
O231	O23	0.611200	0.744400	0.876900
O241	O24	0.681900	0.909800	0.993400
O251	O25	0.628800	0.779500	0.717900
O261	O26	0.656000	0.706400	0.690800
O271	O27	0.670600	0.609500	0.843700
O281	O28	0.590600	0.582500	0.904900
O291	O29	0.519700	0.606200	0.854800
O301	O30	0.008100	0.512600	0.582500
O311	O31	0.420000	0.729000	0.610100
O321	O32	0.766870	0.000000	0.000000
O331	O33	0.844900	0.423400	0.818800
O341	O34	0.649200	0.899200	0.073700
O351	O35	0.346800	0.690800	0.602800
O361	O36	0.691000	0.660900	0.729000
O371	O37	0.061100	0.546800	0.609500
O381	O38	0.549600	0.660500	0.914800
O391	O39	0.722900	0.073700	0.027100
O401	O40	0.866800	0.378700	0.744400
O411	O41	0.738000	0.712100	0.822700
O421	O42	0.025900	0.465200	0.712100
O431	O43	0.374500	0.854800	0.539000
O441	O44	0.551800	0.667500	0.774500
O451	O45	0.750000	0.027100	0.899200
O461	O46	0.728000	0.783000	0.815000
O471	O47	0.030100	0.610100	0.660900
O481	O48	0.464400	0.914800	0.424700
O491	O49	0.730000	0.930400	0.119300
O501	O50	0.884300	0.558000	0.667500
O511	O51	0.421500	0.757800	0.423400
O521	O52	0.849300	0.119300	0.950300
Zn171	Zn17	0.250390	0.025060	0.045980
Zn181	Zn18	0.058410	0.505150	0.361990
Zn191	Zn19	0.294140	0.315570	0.216040
Zn201	Zn20	0.225330	0.928960	0.025060
Zn211	Zn21	0.374180	0.288290	0.252990
Zn221	Zn22	0.420400	0.361990	0.132860
Zn231	Zn23	0.978570	0.468390	0.315570
Zn241	Zn24	0.553260	0.132860	0.505150
Zn251	Zn25	0.171730	0.000000	0.000000
Zn261	Zn26	0.336130	0.241630	0.189380
Zn271	Zn27	0.525510	0.189380	0.568990
Zn281	Zn28	0.085890	0.458720	0.288290
Zn291	Zn29	0.296370	0.045980	0.928960
Zn301	Zn30	0.510180	0.216040	0.468390
Zn311	Zn31	0.627170	0.252990	0.458720
Zn321	Zn32	0.094500	0.568990	0.241630
H851	H85	0.218700	0.623000	0.095600
H861	H86	0.370100	0.621600	0.973300
H871	H87	0.447700	0.172800	0.877400
H881	H88	0.081800	0.788100	0.107400
H891	H89	0.537700	0.011700	0.626900
H901	H90	0.634200	0.328300	0.656400
H911	H91	0.320100	0.297600	0.394500
H921	H92	0.164600	0.626900	0.361400
H931	H93	0.871000	0.167600	0.326800
H941	H94	0.050600	0.683900	0.166400
H951	H95	0.355000	0.163100	0.555100
H961	H96	0.510200	0.935700	0.696700
H971	H97	0.760300	0.102500	0.391600
H981	H98	0.174500	0.401100	0.347700
H991	H99	0.343400	0.973300	0.405100
H1001	H100	0.366700	0.149700	0.683900
H1011	H101	0.250800	0.812800	0.310900
H1021	H102	0.438000	0.876300	0.812800
H1031	H103	0.522200	0.347700	0.251200
H1041	H104	0.574500	0.367600	0.935700
H1051	H105	0.248500	0.360500	0.321800
H1061	H106	0.274900	0.949800	0.172800
H1071	H107	0.264100	0.139100	0.598900
H1081	H108	0.573800	0.465300	0.109000
H1091	H109	0.595700	0.281400	0.623000
H1101	H110	0.527200	0.243200	0.846100
H1111	H111	0.191900	0.281800	0.163100
H1121	H112	0.682800	0.109000	0.425700
H1131	H113	0.151900	0.391600	0.505900
H1141	H114	0.703400	0.505600	0.167600
H1151	H115	0.088000	0.077300	0.045900
H1161	H116	0.125000	0.262000	0.139100
H1171	H117	0.123500	0.065000	0.802600
H1181	H118	0.452800	0.049300	0.717300
H1191	H119	0.170100	0.717300	0.233400
H1201	H120	0.863000	0.598900	0.262000
H1211	H121	0.714600	0.394500	0.307900
H1221	H122	0.022500	0.307900	0.297600
H1231	H123	0.727700	0.332100	0.502700
H1241	H124	0.376800	0.166400	0.011100
H1251	H125	0.305900	0.015300	0.328300
H1261	H126	0.387900	0.011100	0.822500
H1271	H127	0.910100	0.555100	0.281800
H1281	H128	0.299500	0.457000	0.142600
H1291	H129	0.430200	0.495900	0.015000
H1301	H130	0.773400	0.251200	0.401100
H1311	H131	0.842500	0.400400	0.457000
H1321	H132	0.926100	0.802600	0.132400
H1331	H133	0.274500	0.303500	0.466400
H1341	H134	0.426200	0.569200	0.966500
H1351	H135	0.217000	0.166400	0.149700
H1361	H136	0.873000	0.701100	0.211800
H1371	H137	0.442100	0.142600	0.400400
H1381	H138	0.210400	0.822500	0.166400
H1391	H139	0.010700	0.876800	0.077300
H1401	H140	0.230400	0.502700	0.165200
H1411	H141	0.058500	0.132400	0.065000
H1421	H142	0.133900	0.045900	0.876800
H1431	H143	0.108500	0.425700	0.465300
H1441	H144	0.445200	0.015000	0.489100
H1451	H145	0.171900	0.087100	0.701100
H1461	H146	0.857000	0.464300	0.569200
H1471	H147	0.748500	0.405100	0.621600
H1481	H148	0.395600	0.165200	0.332100
H1491	H149	0.084800	0.211800	0.087100
H1501	H150	0.293700	0.104500	0.788100
H1511	H151	0.561700	0.310900	0.876300
H1521	H152	0.373300	0.846100	0.910700
H1531	H153	0.934300	0.489100	0.495900
H1541	H154	0.403500	0.233400	0.049300
H1551	H155	0.325100	0.877400	0.949800
H1561	H156	0.888000	0.317700	0.360500
H1571	H157	0.392700	0.966500	0.464300
H1581	H158	0.206900	0.696700	0.367600
H1591	H159	0.657800	0.505900	0.102500
H1601	H160	0.526000	0.361400	0.011700
H1611	H161	0.284000	0.910700	0.243200
H1621	H162	0.971000	0.230100	0.303500
H1631	H163	0.570300	0.321800	0.317700
H1641	H164	0.290600	0.656400	0.015300
H1651	H165	0.197800	0.326800	0.505600
H1661	H166	0.740900	0.466400	0.230100
H1671	H167	0.314300	0.095600	0.281400
H1681	H168	0.189200	0.107400	0.104500
C1691	C169	0.652300	0.300400	0.556500
C1701	C170	0.999900	0.746600	0.145400
C1711	C171	0.189200	0.375900	0.451200
C1721	C172	0.400800	0.078200	0.398400
C1731	C173	0.179000	0.713800	0.259900
C1741	C174	0.351900	0.143100	0.300400
C1751	C175	0.320800	0.965500	0.927500
C1761	C176	0.425200	0.174900	0.575900
C1771	C177	0.434100	0.030900	0.466300
C1781	C178	0.716500	0.136200	0.413900
C1791	C179	0.626400	0.311200	0.373400
C1801	C180	0.315200	0.315400	0.311200
C1811	C181	0.244300	0.839300	0.251600
C1821	C182	0.054500	0.839700	0.087000
C1831	C183	0.900400	0.466300	0.502800
C1841	C184	0.630700	0.474200	0.132300
C1851	C185	0.215400	0.756600	0.299100
C1861	C186	0.514800	0.005200	0.659400
C1871	C187	0.481500	0.114800	0.464100
C1881	C188	0.323200	0.043700	0.331800
C1891	C189	0.580300	0.449900	0.136200
C1901	C190	0.691000	0.394400	0.294300
C1911	C191	0.999800	0.373400	0.315400
C1921	C192	0.243500	0.894500	0.158000
C1931	C193	0.262600	0.914000	0.186500
C1941	C194	0.214800	0.073300	0.839700
C1951	C195	0.763000	0.132300	0.393500
C1961	C196	0.620200	0.393800	0.253500
C1971	C197	0.137200	0.416800	0.402400
C1981	C198	0.346400	0.040700	0.366600
C1991	C199	0.355300	0.107000	0.965500
C2001	C200	0.498000	0.958500	0.701500
C2011	C201	0.163800	0.058600	0.051800
C2021	C202	0.234300	0.335700	0.437100
C2031	C203	0.401500	0.158000	0.947500
C2041	C204	0.162000	0.660100	0.297700
C2051	C205	0.322600	0.523400	0.078200
C2061	C206	0.226400	0.352700	0.393800
C2071	C207	0.170000	0.399200	0.379400
C2081	C208	0.742000	0.364600	0.543900
C2091	C209	0.465200	0.026300	0.713800
C2101	C210	0.348600	0.899500	0.914000
C2111	C211	0.385960	0.025460	0.417480
C2121	C212	0.127600	0.613400	0.297800
C2131	C213	0.207600	0.761900	0.258200
C2141	C214	0.960300	0.320500	0.328500
C2151	C215	0.183500	0.254600	0.155700
C2161	C216	0.215600	0.051800	0.889600
C2171	C217	0.928900	0.589700	0.254600
C2181	C218	0.050600	0.791000	0.112400
C2191	C219	0.234700	0.601900	0.094600
C2201	C220	0.329300	0.094600	0.303500
C2211	C221	0.845500	0.413290	0.479490
C2221	C222	0.873700	0.253500	0.352700
C2231	C223	0.285900	0.543900	0.091500
C2241	C224	0.984700	0.693000	0.173700
C2251	C225	0.084700	0.127400	0.072900
C2261	C226	0.305700	0.592700	0.040700
C2271	C227	0.953300	0.751000	0.152800
C2281	C228	0.671800	0.185600	0.442600
C2291	C229	0.495900	0.251600	0.909100
C2301	C230	0.366700	0.421100	0.114800
C2311	C231	0.141500	0.087000	0.073300
C2321	C232	0.369900	0.158700	0.615200
C2331	C233	0.514200	0.088800	0.613400
C2341	C234	0.400840	0.546740	0.001820
C2351	C235	0.458800	0.944300	0.756600
C2361	C236	0.114400	0.442600	0.371800
C2371	C237	0.445700	0.979900	0.761900
C2381	C238	0.449100	0.186500	0.899500
C2391	C239	0.514500	0.299100	0.944300
C2401	C240	0.223300	0.840100	0.182200
C2411	C241	0.102300	0.094400	0.061500
C2421	C242	0.770800	0.221400	0.399200
C2431	C243	0.405000	0.909100	0.839300
C2441	C244	0.365300	0.469230	0.083430
C2451	C245	0.720400	0.180800	0.416800
C2461	C246	0.163800	0.061500	0.844100
C2471	C247	0.131000	0.202500	0.130000
C2481	C248	0.632800	0.303500	0.601900
C2491	C249	0.202300	0.096200	0.751000
C2501	C250	0.360500	0.557060	0.025460
C2511	C251	0.001100	0.575900	0.249200
C2521	C252	0.898600	0.227200	0.335700
C2531	C253	0.549400	0.379400	0.221400
C2541	C254	0.928500	0.667500	0.202500
C2551	C255	0.432210	0.107220	0.413290
C2561	C256	0.375300	0.878000	0.891900
C2571	C257	0.143500	0.243000	0.141100
C2581	C258	0.655000	0.331800	0.624500
C2591	C259	0.250300	0.249200	0.174900
C2601	C260	0.267200	0.891900	0.230100
C2611	C261	0.403200	0.502800	0.030900
C2621	C262	0.957300	0.799700	0.127400
C2631	C263	0.501900	0.042200	0.660100
C2641	C264	0.346200	0.147600	0.666800
C2651	C265	0.803440	0.417480	0.557060
C2661	C266	0.284600	0.141100	0.615900
C2671	C267	0.985100	0.615200	0.226100
C2681	C268	0.248300	0.927500	0.107000
C2691	C269	0.163000	0.112400	0.096600
C2701	C270	0.486200	0.371800	0.185600
C2711	C271	0.945600	0.464100	0.421100
C2721	C272	0.985300	0.294300	0.311300
C2731	C273	0.813300	0.172900	0.375900
C2741	C274	0.253300	0.108000	0.746600
C2751	C275	0.351800	0.192400	0.271100
C2761	C276	0.159400	0.536500	0.192400
C2771	C277	0.288800	0.328500	0.351000
C2781	C278	0.105200	0.889600	0.058600
C2791	C279	0.383200	0.977700	0.840100
C2801	C280	0.706700	0.437400	0.247600
C2811	C281	0.854100	0.451440	0.546740
C2821	C282	0.106100	0.152800	0.096200
C2831	C283	0.799200	0.398400	0.523400
C2841	C284	0.900500	0.615900	0.243000
C2851	C285	0.622900	0.271100	0.536500
C2861	C286	0.279500	0.624500	0.043700
C2871	C287	0.376000	0.134800	0.332600
C2881	C288	0.438900	0.259900	0.026300
C2891	C289	0.158400	0.173700	0.133300
C2901	C290	0.339200	0.155700	0.589700
C2911	C291	0.599900	0.403900	0.217400
C2921	C292	0.349000	0.947500	0.894500
C2931	C293	0.509600	0.335400	0.005200
C2941	C294	0.539600	0.402400	0.180800
C2951	C295	0.198600	0.185600	0.147600
C2961	C296	0.708600	0.332600	0.532600
C2971	C297	0.269300	0.315000	0.437400
C2981	C298	0.408200	0.961500	0.813700
C2991	C299	0.241200	0.532600	0.134800
C3001	C300	0.007900	0.844100	0.094400
C3011	C301	0.671400	0.437100	0.227200
C3021	C302	0.130400	0.413900	0.449900
C3031	C303	0.377400	0.091500	0.364600
C3041	C304	0.405500	0.182200	0.977700
C3051	C305	0.402660	0.001820	0.451440
C3061	C306	0.253800	0.349200	0.350700
C3071	C307	0.539500	0.340000	0.958500
C3081	C308	0.896070	0.447340	0.469230
C3091	C309	0.954300	0.247600	0.315000
C3101	C310	0.211200	0.226100	0.158700
C3111	C311	0.425400	0.297800	0.088800
C3121	C312	0.640400	0.451200	0.172900
C3131	C313	0.157600	0.072900	0.799700
C3141	C314	0.221900	0.813700	0.224800
C3151	C315	0.446700	0.224800	0.961500
C3161	C316	0.296600	0.311300	0.394400
C3171	C317	0.259600	0.096600	0.791000
C3181	C318	0.145300	0.145400	0.108000
C3191	C319	0.448730	0.083430	0.447340
C3201	C320	0.604500	0.350700	0.300100
C3211	C321	0.199500	0.701500	0.340000
C3221	C322	0.324990	0.479490	0.107220
C3231	C323	0.497300	0.230100	0.878000
C3241	C324	0.196000	0.378700	0.403900
C3251	C325	0.817300	0.217400	0.378700
C3261	C326	0.156500	0.393500	0.474200
C3271	C327	0.465800	0.258200	0.979900
C3281	C328	0.208800	0.556500	0.143100
C3291	C329	0.713000	0.366600	0.592700
C3301	C330	0.904600	0.300100	0.349200
C3311	C331	0.459700	0.297700	0.042200
C3321	C332	0.639800	0.351000	0.320500
C3331	C333	0.013000	0.666800	0.185600
C3341	C334	0.261000	0.130000	0.667500
C3351	C335	0.291700	0.133300	0.693000
C3361	C336	0.174200	0.659400	0.335400
N131	N13	0.754000	0.398300	0.596500
N141	N14	0.239600	0.805700	0.290600
N151	N15	0.863700	0.184900	0.341700
N161	N16	0.678800	0.473400	0.184900
N171	N17	0.350500	0.596500	0.005200
N181	N18	0.530200	0.290600	0.903700
N191	N19	0.199200	0.099000	0.705800
N201	N20	0.100200	0.195200	0.099000
N211	N21	0.905000	0.705800	0.195200
N221	N22	0.433900	0.903700	0.805700
N231	N23	0.355700	0.005200	0.398300
N241	N24	0.205400	0.341700	0.473400
O531	O53	0.147700	0.036100	0.035000
O541	O54	0.969900	0.389900	0.339100
O551	O55	0.356400	0.300100	0.198800
O561	O56	0.227900	0.903200	0.090200
O571	O57	0.324700	0.006600	0.903200
O581	O58	0.439300	0.177300	0.534800
O591	O59	0.055000	0.598000	0.217000
O601	O60	0.535600	0.085200	0.575300
O611	O61	0.233130	0.000000	0.000000
O621	O62	0.409400	0.417500	0.095100
O631	O63	0.371200	0.220500	0.282100
O641	O64	0.344000	0.293600	0.309200
O651	O65	0.504500	0.095100	0.487400
O661	O66	0.350800	0.100800	0.926300
O671	O67	0.250000	0.972900	0.100800
O681	O68	0.450400	0.339500	0.085200
O691	O69	0.272000	0.217000	0.185000
O701	O70	0.580000	0.271000	0.389900
O711	O71	0.974100	0.534800	0.287900
O721	O72	0.578500	0.242200	0.576600
O731	O73	0.457000	0.185000	0.598000
O741	O74	0.329400	0.390500	0.156300
O751	O75	0.050400	0.397200	0.293600
O761	O76	0.388800	0.255600	0.123100
O771	O77	0.309000	0.339100	0.271000
O781	O78	0.511900	0.123100	0.621300
O791	O79	0.110900	0.575300	0.339500
O801	O80	0.086500	0.461000	0.393800
O811	O81	0.182700	0.035000	0.928900
O821	O82	0.318100	0.090200	0.006600
O831	O83	0.673700	0.225500	0.442000
O841	O84	0.056300	0.501100	0.300100
O851	O85	0.653300	0.282100	0.497400
O861	O86	0.485700	0.156300	0.453200
O871	O87	0.336300	0.181200	0.242200
O881	O88	0.653200	0.309200	0.397200
O891	O89	0.448200	0.332500	0.225500
O901	O90	0.938900	0.453200	0.390500
O911	O91	0.262000	0.287900	0.177300
O921	O92	0.270000	0.069600	0.880700
O931	O93	0.555200	0.198800	0.501100
O941	O94	0.133200	0.621300	0.255600
O951	O95	0.480300	0.393800	0.145200
O961	O96	0.200400	0.049700	0.069600
O971	O97	0.150700	0.880700	0.049700
O981	O98	0.111600	0.928900	0.036100
O991	O99	0.155100	0.576600	0.181200
O1001	O100	0.150700	0.497400	0.220500
O1011	O101	0.277100	0.926300	0.972900
O1021	O102	0.115700	0.442000	0.332500
O1031	O103	0.625500	0.145200	0.461000
O1041	O104	0.991900	0.487400	0.417500
