data_ic502725y_si_004_clean_PM
_symmetry_space_group_name_H-M	'P1'
_cell_length_a	15.528500
_cell_length_b	15.528500
_cell_length_c	15.528500
_cell_angle_alpha	60.000000
_cell_angle_beta	60.000000
_cell_angle_gamma	60.000000
_symmetry_Int_Tables_number 1

loop_
_symmetry_equiv_pos_as_xyz
'x,y,z'

loop_
_atom_site_label
_atom_site_type_symbol
_atom_site_fract_x
_atom_site_fract_y
_atom_site_fract_z
Th11	Th1	0.871440	0.871440	0.128560
Th21	Th2	0.128560	0.871440	0.128560
Th31	Th3	0.128560	0.128560	0.871440
Th41	Th4	0.128560	0.871440	0.871440
Th51	Th5	0.871440	0.128560	0.128560
Th61	Th6	0.871440	0.128560	0.871440
H11	H1	0.575000	0.425000	0.127400
H21	H2	0.575000	0.872600	0.425000
H31	H3	0.872600	0.425000	0.575000
H41	H4	0.127400	0.872600	0.575000
H51	H5	0.872600	0.425000	0.127400
H61	H6	0.872600	0.575000	0.127400
H71	H7	0.575000	0.425000	0.872600
H81	H8	0.575000	0.127400	0.425000
H91	H9	0.425000	0.872600	0.127400
H101	H10	0.425000	0.575000	0.127400
H111	H11	0.872600	0.127400	0.425000
H121	H12	0.425000	0.575000	0.872600
H131	H13	0.127400	0.872600	0.425000
H141	H14	0.872600	0.575000	0.425000
H151	H15	0.127400	0.575000	0.425000
H161	H16	0.127400	0.425000	0.575000
H171	H17	0.425000	0.127400	0.575000
H181	H18	0.872600	0.127400	0.575000
H191	H19	0.575000	0.127400	0.872600
H201	H20	0.575000	0.872600	0.127400
H211	H21	0.127400	0.575000	0.872600
H221	H22	0.425000	0.872600	0.575000
H231	H23	0.425000	0.127400	0.872600
H241	H24	0.127400	0.425000	0.872600
C11	C1	0.000000	0.000000	0.410000
C21	C2	0.075300	0.924700	0.545300
C31	C3	0.075300	0.545300	0.454700
C41	C4	0.000000	0.000000	0.313800
C51	C5	0.924700	0.545300	0.075300
C61	C6	0.545300	0.454700	0.924700
C71	C7	0.454700	0.545300	0.924700
C81	C8	0.454700	0.075300	0.924700
C91	C9	0.686200	0.313800	0.000000
C101	C10	0.075300	0.454700	0.545300
C111	C11	0.590000	0.410000	0.000000
C121	C12	0.545300	0.075300	0.454700
C131	C13	0.924700	0.545300	0.454700
C141	C14	0.924700	0.454700	0.075300
C151	C15	0.000000	0.686200	0.313800
C161	C16	0.313800	0.686200	0.000000
C171	C17	0.590000	0.000000	0.000000
C181	C18	0.454700	0.924700	0.075300
C191	C19	0.590000	0.000000	0.410000
C201	C20	0.000000	0.590000	0.410000
C211	C21	0.454700	0.924700	0.545300
C221	C22	0.545300	0.075300	0.924700
C231	C23	0.410000	0.000000	0.000000
C241	C24	0.000000	0.410000	0.590000
C251	C25	0.000000	0.686200	0.000000
C261	C26	0.000000	0.410000	0.000000
C271	C27	0.075300	0.924700	0.454700
C281	C28	0.924700	0.454700	0.545300
C291	C29	0.313800	0.000000	0.686200
C301	C30	0.545300	0.454700	0.075300
C311	C31	0.924700	0.075300	0.454700
C321	C32	0.000000	0.313800	0.686200
C331	C33	0.410000	0.590000	0.000000
C341	C34	0.545300	0.924700	0.075300
C351	C35	0.075300	0.545300	0.924700
C361	C36	0.000000	0.000000	0.686200
C371	C37	0.545300	0.924700	0.454700
C381	C38	0.313800	0.000000	0.000000
C391	C39	0.000000	0.000000	0.590000
C401	C40	0.454700	0.545300	0.075300
C411	C41	0.000000	0.313800	0.000000
C421	C42	0.924700	0.075300	0.545300
C431	C43	0.686200	0.000000	0.000000
C441	C44	0.410000	0.000000	0.590000
C451	C45	0.075300	0.454700	0.924700
C461	C46	0.686200	0.000000	0.313800
C471	C47	0.000000	0.590000	0.000000
C481	C48	0.454700	0.075300	0.545300
O11	O1	0.814600	0.061800	0.061800
O21	O2	0.723600	0.927200	0.072800
O31	O3	0.723600	0.276400	0.927200
O41	O4	0.938200	0.938200	0.938200
O51	O5	0.072800	0.927200	0.723600
O61	O6	0.276400	0.723600	0.927200
O71	O7	0.276400	0.927200	0.072800
O81	O8	0.061800	0.814600	0.061800
O91	O9	0.927200	0.276400	0.072800
O101	O10	0.072800	0.276400	0.723600
O111	O11	0.185400	0.938200	0.938200
O121	O12	0.723600	0.072800	0.927200
O131	O13	0.723600	0.072800	0.276400
O141	O14	0.061800	0.061800	0.061800
O151	O15	0.276400	0.072800	0.723600
O161	O16	0.072800	0.927200	0.276400
O171	O17	0.938200	0.938200	0.185400
O181	O18	0.927200	0.723600	0.276400
O191	O19	0.061800	0.061800	0.814600
O201	O20	0.927200	0.072800	0.723600
O211	O21	0.723600	0.276400	0.072800
O221	O22	0.072800	0.276400	0.927200
O231	O23	0.276400	0.072800	0.927200
O241	O24	0.927200	0.723600	0.072800
O251	O25	0.927200	0.276400	0.723600
O261	O26	0.938200	0.185400	0.938200
O271	O27	0.927200	0.072800	0.276400
O281	O28	0.276400	0.927200	0.723600
O291	O29	0.276400	0.723600	0.072800
O301	O30	0.723600	0.927200	0.276400
O311	O31	0.072800	0.723600	0.276400
O321	O32	0.072800	0.723600	0.927200
