data_ic7014034-file001_clean_PM
_symmetry_space_group_name_H-M	'P1'
_cell_length_a	17.047400
_cell_length_b	17.047400
_cell_length_c	32.588000
_cell_angle_alpha	94.142100
_cell_angle_beta	94.142100
_cell_angle_gamma	107.555000
_symmetry_Int_Tables_number 1

loop_
_symmetry_equiv_pos_as_xyz
'x,y,z'

loop_
_atom_site_label
_atom_site_type_symbol
_atom_site_fract_x
_atom_site_fract_y
_atom_site_fract_z
Zn11	Zn1	0.220350	0.245790	0.375700
Zn21	Zn2	0.253120	0.236680	0.967010
Zn31	Zn3	0.236680	0.253120	0.467010
Zn41	Zn4	0.245790	0.220350	0.875700
H11	H1	0.086800	0.226400	0.231700
H21	H2	0.334100	0.253100	0.309800
H31	H3	0.262400	0.492600	0.980900
H41	H4	0.991100	0.241700	0.482000
H51	H5	0.841200	0.171600	0.852200
H61	H6	0.320800	0.246200	0.174000
H71	H7	0.960200	0.230400	0.357100
H81	H8	0.479500	0.293700	0.359100
H91	H9	0.266800	0.154200	0.605300
H101	H10	0.256300	0.725100	0.959200
H111	H11	0.223900	0.497900	0.369300
H121	H12	0.274000	0.743800	0.881800
H131	H13	0.983500	0.180700	0.855800
H141	H14	0.250900	0.331500	0.739500
H151	H15	0.217300	0.999900	0.479400
H161	H16	0.614700	0.300500	0.356800
H171	H17	0.208700	0.365900	0.607500
H181	H18	0.222000	0.638000	0.497300
H191	H19	0.255200	0.629800	0.976600
H201	H20	0.638000	0.222000	0.997300
H211	H21	0.217200	0.862000	0.475800
H221	H22	0.240700	0.508100	0.494400
H231	H23	0.359300	0.209500	0.036900
H241	H24	0.206600	0.627000	0.372400
H251	H25	0.725100	0.256300	0.459200
H261	H26	0.240700	0.825500	0.860900
H271	H27	0.743800	0.274000	0.381800
H281	H28	0.230400	0.960200	0.857100
H291	H29	0.300500	0.614700	0.856800
H301	H30	0.209500	0.359300	0.536900
H311	H31	0.825500	0.240700	0.360900
H321	H32	0.275200	0.155000	0.535500
H331	H33	0.365900	0.208700	0.107500
H341	H34	0.861700	0.255300	0.486500
H351	H35	0.492600	0.262400	0.480900
H361	H36	0.180700	0.983500	0.355800
H371	H37	0.331500	0.250900	0.239500
H381	H38	0.171600	0.841200	0.352200
H391	H39	0.224500	0.094100	0.802800
H401	H40	0.241700	0.991100	0.982000
H411	H41	0.508100	0.240700	0.994400
H421	H42	0.999900	0.217300	0.979400
H431	H43	0.629800	0.255200	0.476600
H441	H44	0.862000	0.217200	0.975800
H451	H45	0.246200	0.320800	0.674000
H461	H46	0.153000	0.235600	0.167900
H471	H47	0.293700	0.479500	0.859100
H481	H48	0.094100	0.224500	0.302800
H491	H49	0.497900	0.223900	0.869300
H501	H50	0.154200	0.266800	0.105300
H511	H51	0.235600	0.153000	0.667900
H521	H52	0.255300	0.861700	0.986500
H531	H53	0.627000	0.206600	0.872400
H541	H54	0.226400	0.086800	0.731700
H551	H55	0.155000	0.275200	0.035500
H561	H56	0.253100	0.334100	0.809800
C11	C1	0.270250	0.383590	0.920600
C21	C2	0.233250	0.532390	0.469590
C31	C3	0.209680	0.886520	0.451130
C41	C4	0.957740	0.243060	0.457600
C51	C5	0.231740	0.137860	0.747150
C61	C6	0.246810	0.281950	0.752050
C71	C7	0.526350	0.223450	0.895420
C81	C8	0.968480	0.209920	0.953380
C91	C9	0.264050	0.598750	0.952970
C101	C10	0.317420	0.222180	0.051270
C111	C11	0.832130	0.249670	0.424400
C121	C12	0.383590	0.270250	0.420600
C131	C13	0.137860	0.231740	0.247150
C141	C14	0.143060	0.231540	0.289390
C151	C15	0.206150	0.094030	0.419900
C161	C16	0.598750	0.264050	0.452970
C171	C17	0.250070	0.881530	0.960230
C181	C18	0.231540	0.143060	0.789390
C191	C19	0.213560	0.602640	0.397160
C201	C20	0.198850	0.841150	0.413630
C211	C21	0.237720	0.987680	0.919010
C221	C22	0.645140	0.213460	0.935400
C231	C23	0.510400	0.286600	0.383250
C241	C24	0.322170	0.222630	0.093160
C251	C25	0.602640	0.213560	0.897160
C261	C26	0.197170	0.259630	0.050310
C271	C27	0.209920	0.968480	0.453380
C281	C28	0.257820	0.198580	0.591710
C291	C29	0.289080	0.588920	0.881540
C301	C30	0.841150	0.198850	0.913630
C311	C31	0.516650	0.266150	0.455440
C321	C32	0.958500	0.187100	0.880470
C331	C33	0.240100	0.210880	0.727370
C341	C34	0.404470	0.241550	0.928800
C351	C35	0.213460	0.645140	0.435400
C361	C36	0.241550	0.404470	0.428800
C371	C37	0.241820	0.859980	0.885370
C381	C38	0.198580	0.257820	0.091710
C391	C39	0.609310	0.222810	0.971300
C401	C40	0.987680	0.237720	0.419010
C411	C41	0.073220	0.234420	0.416810
C421	C42	0.243250	0.269150	0.659860
C431	C43	0.243060	0.957740	0.957600
C441	C44	0.286600	0.510400	0.883250
C451	C45	0.187100	0.958500	0.380470
C461	C46	0.232850	0.489750	0.431050
C471	C47	0.939670	0.235730	0.383120
C481	C48	0.222810	0.609310	0.471300
C491	C49	0.263290	0.243310	0.114880
C501	C50	0.247700	0.283500	0.793880
C511	C51	0.269150	0.243250	0.159860
C521	C52	0.283500	0.247700	0.293880
C531	C53	0.588920	0.289080	0.381540
C541	C54	0.473000	0.274020	0.419330
C551	C55	0.274740	0.632660	0.916390
C561	C56	0.881530	0.250070	0.460230
C571	C57	0.223450	0.526350	0.395420
C581	C58	0.222630	0.322170	0.593160
C591	C59	0.874120	0.183880	0.878060
C601	C60	0.266150	0.516650	0.955440
C611	C61	0.234420	0.073220	0.916810
C621	C62	0.210880	0.240100	0.227370
C631	C63	0.239180	0.204820	0.682120
C641	C64	0.235730	0.939670	0.883120
C651	C65	0.259630	0.197170	0.550310
C661	C66	0.249670	0.832130	0.924400
C671	C67	0.243310	0.263290	0.614880
C681	C68	0.489750	0.232850	0.931050
C691	C69	0.532390	0.233250	0.969590
C701	C70	0.281950	0.246810	0.252050
C711	C71	0.886520	0.209680	0.951130
C721	C72	0.859980	0.241820	0.385370
C731	C73	0.183880	0.874120	0.378060
C741	C74	0.003400	0.199180	0.917470
C751	C75	0.274020	0.473000	0.919330
C761	C76	0.632660	0.274740	0.416390
C771	C77	0.222180	0.317420	0.551270
C781	C78	0.204820	0.239180	0.182120
C791	C79	0.094030	0.206150	0.919900
C801	C80	0.199180	0.003400	0.417470
N11	N1	0.758390	0.200110	0.908080
N21	N2	0.746660	0.258940	0.435380
N31	N3	0.241130	0.215910	0.812980
N41	N4	0.721640	0.269560	0.405390
N51	N5	0.258940	0.746660	0.935380
N61	N6	0.239090	0.256070	0.529700
N71	N7	0.727780	0.207420	0.941120
N81	N8	0.207420	0.727780	0.441120
N91	N9	0.215910	0.241130	0.312980
N101	N10	0.256070	0.239090	0.029700
N111	N11	0.269560	0.721640	0.905390
N121	N12	0.200110	0.758390	0.408080
O11	O1	0.343010	0.267450	0.386200
O21	O2	0.376370	0.254530	0.962140
O31	O3	0.226260	0.098380	0.882220
O41	O4	0.367120	0.235060	0.893970
O51	O5	0.116200	0.240160	0.450630
O61	O6	0.240160	0.116200	0.950630
O71	O7	0.356170	0.269610	0.455120
O81	O8	0.216200	0.131820	0.455140
O91	O9	0.235060	0.367120	0.393970
O101	O10	0.131820	0.216200	0.955140
O111	O11	0.206120	0.126840	0.386010
O121	O12	0.254530	0.376370	0.462140
O131	O13	0.269610	0.356170	0.955120
O141	O14	0.098380	0.226260	0.382220
O151	O15	0.267450	0.343010	0.886200
O161	O16	0.126840	0.206120	0.886010
Zn51	Zn5	0.763320	0.746880	0.532990
Zn61	Zn6	0.754210	0.779650	0.124300
Zn71	Zn7	0.779650	0.754210	0.624300
Zn81	Zn8	0.746880	0.763320	0.032990
H571	H57	0.769600	0.039800	0.142900
H581	H58	0.016500	0.819300	0.144200
H591	H59	0.746900	0.665900	0.190200
H601	H60	0.793400	0.373000	0.627600
H611	H61	0.733200	0.845800	0.394700
H621	H62	0.759300	0.174500	0.139100
H631	H63	0.847000	0.764400	0.832100
H641	H64	0.905900	0.775500	0.697200
H651	H65	0.370200	0.744800	0.523400
H661	H66	0.724800	0.845000	0.464500
H671	H67	0.039800	0.769600	0.642900
H681	H68	0.362000	0.778000	0.002700
H691	H69	0.845800	0.733200	0.894700
H701	H70	0.776100	0.502100	0.630700
H711	H71	0.679200	0.753800	0.826000
H721	H72	0.913200	0.773600	0.768300
H731	H73	0.775500	0.905900	0.197200
H741	H74	0.744700	0.138300	0.013500
H751	H75	0.764400	0.847000	0.332100
H761	H76	0.274900	0.743700	0.540800
H771	H77	0.791300	0.634100	0.392500
H781	H78	0.828400	0.158800	0.647800
H791	H79	0.174500	0.759300	0.639100
H801	H80	0.744800	0.370200	0.023400
H811	H81	0.782800	0.138000	0.524200
H821	H82	0.758300	0.008900	0.018000
H831	H83	0.158800	0.828400	0.147800
H841	H84	0.008900	0.758300	0.518000
H851	H85	0.819300	0.016500	0.644200
H861	H86	0.782700	0.000100	0.520600
H871	H87	0.640700	0.790500	0.963100
H881	H88	0.138300	0.744700	0.513500
H891	H89	0.665900	0.746900	0.690200
H901	H90	0.773600	0.913200	0.268300
H911	H91	0.668500	0.749100	0.760500
H921	H92	0.634100	0.791300	0.892500
H931	H93	0.790500	0.640700	0.463100
H941	H94	0.699500	0.385300	0.143200
H951	H95	0.726000	0.256200	0.118200
H961	H96	0.000100	0.782700	0.020600
H971	H97	0.138000	0.782800	0.024200
H981	H98	0.778000	0.362000	0.502700
H991	H99	0.845000	0.724800	0.964500
H1001	H100	0.753800	0.679200	0.326000
H1011	H101	0.706300	0.520500	0.140900
H1021	H102	0.256200	0.726000	0.618200
H1031	H103	0.385300	0.699500	0.643200
H1041	H104	0.373000	0.793400	0.127600
H1051	H105	0.507400	0.737600	0.519100
H1061	H106	0.759300	0.491900	0.505600
H1071	H107	0.737600	0.507400	0.019100
H1081	H108	0.491900	0.759300	0.005600
H1091	H109	0.743700	0.274900	0.040800
H1101	H110	0.520500	0.706300	0.640900
H1111	H111	0.502100	0.776100	0.130700
H1121	H112	0.749100	0.668500	0.260500
C811	C81	0.756750	0.730850	0.340140
C821	C82	0.367340	0.725260	0.583610
C831	C83	0.996600	0.800820	0.082530
C841	C84	0.752300	0.716500	0.206120
C851	C85	0.762280	0.012320	0.080990
C861	C86	0.768460	0.856940	0.210610
C871	C87	0.765580	0.926780	0.083190
C881	C88	0.041500	0.812900	0.119530
C891	C89	0.750330	0.167870	0.075600
C901	C90	0.766750	0.467610	0.530410
C911	C91	0.354860	0.786540	0.064600
C921	C92	0.749930	0.118470	0.039770
C931	C93	0.801150	0.158850	0.586370
C941	C94	0.042260	0.756940	0.542400
C951	C95	0.060330	0.764270	0.616880
C961	C96	0.862140	0.768260	0.752850
C971	C97	0.768260	0.862140	0.252850
C981	C98	0.756940	0.042260	0.042400
C991	C99	0.473650	0.776550	0.104580
C1001	C100	0.800820	0.996600	0.582530
C1011	C101	0.795180	0.760820	0.817880
C1021	C102	0.031520	0.790080	0.046620
C1031	C103	0.725980	0.527000	0.080670
C1041	C104	0.786540	0.354860	0.564600
C1051	C105	0.710920	0.411080	0.118460
C1061	C106	0.736710	0.756690	0.885120
C1071	C107	0.802830	0.740370	0.949690
C1081	C108	0.682580	0.777820	0.948730
C1091	C109	0.753190	0.718050	0.247950
C1101	C110	0.776550	0.473650	0.604580
C1111	C111	0.125880	0.816120	0.121940
C1121	C112	0.158850	0.801150	0.086370
C1131	C113	0.790080	0.031520	0.546620
C1141	C114	0.764270	0.060330	0.116880
C1151	C115	0.510250	0.767150	0.068950
C1161	C116	0.725260	0.367340	0.083610
C1171	C117	0.733850	0.483350	0.044560
C1181	C118	0.713400	0.489600	0.116750
C1191	C119	0.767150	0.510250	0.568950
C1201	C120	0.812900	0.041500	0.619530
C1211	C121	0.167870	0.750330	0.575600
C1221	C122	0.411080	0.710920	0.618460
C1231	C123	0.793850	0.905970	0.580100
C1241	C124	0.489600	0.713400	0.616750
C1251	C125	0.113480	0.790320	0.048870
C1261	C126	0.467610	0.766750	0.030410
C1271	C127	0.777370	0.677830	0.406840
C1281	C128	0.856940	0.768460	0.710610
C1291	C129	0.905970	0.793850	0.080100
C1301	C130	0.801420	0.742180	0.908290
C1311	C131	0.595530	0.758450	0.071200
C1321	C132	0.758180	0.140020	0.114630
C1331	C133	0.012320	0.762280	0.580990
C1341	C134	0.926780	0.765580	0.583190
C1351	C135	0.777190	0.390690	0.528700
C1361	C136	0.677830	0.777370	0.906840
C1371	C137	0.401250	0.735950	0.547030
C1381	C138	0.730850	0.756750	0.840140
C1391	C139	0.483350	0.733850	0.544560
C1401	C140	0.735950	0.401250	0.047030
C1411	C141	0.816120	0.125880	0.621940
C1421	C142	0.716500	0.752300	0.706120
C1431	C143	0.777820	0.682580	0.448730
C1441	C144	0.740370	0.802830	0.449690
C1451	C145	0.786440	0.397360	0.602840
C1461	C146	0.718050	0.753190	0.747950
C1471	C147	0.729750	0.616410	0.079400
C1481	C148	0.397360	0.786440	0.102840
C1491	C149	0.527000	0.725980	0.580670
C1501	C150	0.616410	0.729750	0.579400
C1511	C151	0.756690	0.736710	0.385120
C1521	C152	0.789120	0.759900	0.772630
C1531	C153	0.742180	0.801420	0.408290
C1541	C154	0.758450	0.595530	0.571200
C1551	C155	0.118470	0.749930	0.539770
C1561	C156	0.760820	0.795180	0.317880
C1571	C157	0.140020	0.758180	0.614630
C1581	C158	0.390690	0.777190	0.028700
C1591	C159	0.790320	0.113480	0.548870
C1601	C160	0.759900	0.789120	0.272630
N131	N13	0.792580	0.272220	0.558880
N141	N14	0.784090	0.758870	0.687020
N151	N15	0.799890	0.241610	0.591920
N161	N16	0.241610	0.799890	0.091920
N171	N17	0.730440	0.278360	0.094610
N181	N18	0.758870	0.784090	0.187020
N191	N19	0.760910	0.743930	0.470300
N201	N20	0.253340	0.741060	0.564620
N211	N21	0.741060	0.253340	0.064620
N221	N22	0.272220	0.792580	0.058880
N231	N23	0.743930	0.760910	0.970300
N241	N24	0.278360	0.730440	0.594610
O171	O17	0.764940	0.632880	0.606030
O181	O18	0.745470	0.623630	0.537860
O191	O19	0.643830	0.730390	0.544880
O201	O20	0.901620	0.773740	0.617780
O211	O21	0.730390	0.643830	0.044880
O221	O22	0.868180	0.783800	0.044860
O231	O23	0.632880	0.764940	0.106030
O241	O24	0.656990	0.732550	0.613800
O251	O25	0.773740	0.901620	0.117780
O261	O26	0.759840	0.883800	0.049370
O271	O27	0.623630	0.745470	0.037860
O281	O28	0.783800	0.868180	0.544860
O291	O29	0.793880	0.873160	0.613990
O301	O30	0.883800	0.759840	0.549370
O311	O31	0.873160	0.793880	0.113990
O321	O32	0.732550	0.656990	0.113800
Zn91	Zn9	0.468470	0.522170	0.703650
Zn101	Zn10	0.522170	0.468470	0.203650
Zn111	Zn11	0.531530	0.477830	0.296350
Zn121	Zn12	0.477830	0.531530	0.796350
H1131	H113	0.550300	0.736700	0.315100
H1141	H114	0.524300	0.222300	0.299000
H1151	H115	0.348000	0.486000	0.559000
H1161	H116	0.909400	0.464000	0.204500
H1171	H117	0.514000	0.652000	0.941000
H1181	H118	0.918100	0.481100	0.328300
H1191	H119	0.081900	0.518900	0.671700
H1201	H120	0.475700	0.777700	0.701000
H1211	H121	0.263300	0.449700	0.184900
H1221	H122	0.507400	0.212800	0.176200
H1231	H123	0.868500	0.543900	0.817500
H1241	H124	0.406200	0.467800	0.430400
H1251	H125	0.449700	0.263300	0.684900
H1261	H126	0.518900	0.081900	0.171700
H1271	H127	0.464000	0.909400	0.704500
H1281	H128	0.864600	0.557200	0.694400
H1291	H129	0.648700	0.496300	0.371400
H1301	H130	0.652000	0.514000	0.441000
H1311	H131	0.503700	0.351300	0.128600
H1321	H132	0.543900	0.868500	0.317500
H1331	H133	0.270600	0.441400	0.308300
H1341	H134	0.351300	0.503700	0.628600
H1351	H135	0.481100	0.918100	0.828300
H1361	H136	0.410800	0.463000	0.359000
H1371	H137	0.135400	0.442800	0.305600
H1381	H138	0.532200	0.593800	0.069600
H1391	H139	0.777700	0.475700	0.201000
H1401	H140	0.729400	0.558600	0.691700
H1411	H141	0.558600	0.729400	0.191700
H1421	H142	0.736700	0.550300	0.815100
H1431	H143	0.131500	0.456100	0.182500
H1441	H144	0.557200	0.864600	0.194400
H1451	H145	0.589200	0.537000	0.641000
H1461	H146	0.536000	0.090600	0.295500
H1471	H147	0.212800	0.507400	0.676200
H1481	H148	0.486000	0.348000	0.059000
H1491	H149	0.787200	0.492600	0.323800
H1501	H150	0.456100	0.131500	0.682500
H1511	H151	0.537000	0.589200	0.141000
H1521	H152	0.463000	0.410800	0.859000
H1531	H153	0.467800	0.406200	0.930400
H1541	H154	0.442800	0.135400	0.805600
H1551	H155	0.441400	0.270600	0.808300
H1561	H156	0.492600	0.787200	0.823800
H1571	H157	0.222300	0.524300	0.799000
H1581	H158	0.593800	0.532200	0.569600
H1591	H159	0.090600	0.536000	0.795500
H1601	H160	0.496300	0.648700	0.871400
C1611	C161	0.238030	0.450350	0.209880
C1621	C162	0.450350	0.238030	0.709880
C1631	C163	0.231590	0.514650	0.737800
C1641	C164	0.513240	0.187960	0.200920
C1651	C165	0.506180	0.401340	0.116830
C1661	C166	0.471770	0.927230	0.766810
C1671	C167	0.757580	0.555240	0.717460
C1681	C168	0.837640	0.554360	0.718990
C1691	C169	0.193670	0.523130	0.772740
C1701	C170	0.600320	0.502460	0.424960
C1711	C171	0.549650	0.761970	0.290120
C1721	C172	0.448650	0.283410	0.746870
C1731	C173	0.549330	0.879270	0.256030
C1741	C174	0.682630	0.489310	0.259780
C1751	C175	0.476870	0.806330	0.727260
C1761	C176	0.457560	0.477100	0.419000
C1771	C177	0.551350	0.716590	0.253130
C1781	C178	0.371900	0.452260	0.247920
C1791	C179	0.542440	0.522900	0.581000
C1801	C180	0.162360	0.445640	0.281010
C1811	C181	0.547220	0.840180	0.291790
C1821	C182	0.460880	0.472880	0.376260
C1831	C183	0.528230	0.072770	0.233190
C1841	C184	0.480030	0.889770	0.801930
C1851	C185	0.283410	0.448650	0.246870
C1861	C186	0.489310	0.682630	0.759780
C1871	C187	0.554360	0.837640	0.218990
C1881	C188	0.514650	0.231590	0.237800
C1891	C189	0.539120	0.527120	0.623740
C1901	C190	0.468340	0.504660	0.555070
C1911	C191	0.120730	0.450670	0.243970
C1921	C192	0.452260	0.371900	0.747920
C1931	C193	0.812040	0.486760	0.299080
C1941	C194	0.486760	0.812040	0.799080
C1951	C195	0.477100	0.457560	0.919000
C1961	C196	0.495400	0.468260	0.010150
C1971	C197	0.628100	0.547740	0.752080
C1981	C198	0.470000	0.884600	0.729240
C1991	C199	0.472880	0.460880	0.876260
C2001	C200	0.806330	0.476870	0.227260
C2011	C201	0.159820	0.452780	0.208210
C2021	C202	0.401340	0.506180	0.616830
C2031	C203	0.452780	0.159820	0.708210
C2041	C204	0.840180	0.547220	0.791790
C2051	C205	0.072770	0.528230	0.733190
C2061	C206	0.519970	0.110230	0.198070
C2071	C207	0.187960	0.513240	0.700920
C2081	C208	0.493820	0.598660	0.883170
C2091	C209	0.510690	0.317370	0.240220
C2101	C210	0.445640	0.162360	0.781010
C2111	C211	0.399680	0.497540	0.575040
C2121	C212	0.522900	0.542440	0.081000
C2131	C213	0.884600	0.470000	0.229240
C2141	C214	0.317370	0.510690	0.740220
C2151	C215	0.716590	0.551350	0.753130
C2161	C216	0.504600	0.531740	0.989850
C2171	C217	0.530000	0.115400	0.270760
C2181	C218	0.450670	0.120730	0.743970
C2191	C219	0.444760	0.242420	0.782540
C2201	C220	0.497540	0.399680	0.075040
C2211	C221	0.598660	0.493820	0.383170
C2221	C222	0.468260	0.495400	0.510150
C2231	C223	0.495340	0.531660	0.944930
C2241	C224	0.547740	0.628100	0.252080
C2251	C225	0.555240	0.757580	0.217460
C2261	C226	0.485350	0.768410	0.762200
C2271	C227	0.504660	0.468340	0.055070
C2281	C228	0.879270	0.549330	0.756030
C2291	C229	0.502460	0.600320	0.924960
C2301	C230	0.110230	0.519970	0.698070
C2311	C231	0.527120	0.539120	0.123740
C2321	C232	0.761970	0.549650	0.790120
C2331	C233	0.768410	0.485350	0.262200
C2341	C234	0.531740	0.504600	0.489850
C2351	C235	0.523130	0.193670	0.272740
C2361	C236	0.242420	0.444760	0.282540
C2371	C237	0.531660	0.495340	0.444930
C2381	C238	0.115400	0.530000	0.770760
C2391	C239	0.927230	0.471770	0.266810
C2401	C240	0.889770	0.480030	0.301930
N251	N25	0.962480	0.545240	0.760410
N261	N26	0.482150	0.531310	0.858130
N271	N27	0.454760	0.037520	0.739590
N281	N28	0.534280	0.991080	0.228020
N291	N29	0.517850	0.468690	0.141870
N301	N30	0.037520	0.454760	0.239590
N311	N31	0.531310	0.482150	0.358130
N321	N32	0.468690	0.517850	0.641870
N331	N33	0.008920	0.465720	0.271980
N341	N34	0.991080	0.534280	0.728020
N351	N35	0.545240	0.962480	0.260410
N361	N36	0.465720	0.008920	0.771980
O331	O33	0.456910	0.403890	0.715520
O341	O34	0.403890	0.456910	0.215520
O351	O35	0.596110	0.543090	0.784480
O361	O36	0.543090	0.596110	0.284480
O371	O37	0.519740	0.356300	0.275920
O381	O38	0.549310	0.592230	0.216620
O391	O39	0.450690	0.407770	0.783380
O401	O40	0.407770	0.450690	0.283380
O411	O41	0.499470	0.653470	0.793170
O421	O42	0.643700	0.480260	0.224080
O431	O43	0.356300	0.519740	0.775920
O441	O44	0.480260	0.643700	0.724080
O451	O45	0.592230	0.549310	0.716620
O461	O46	0.653470	0.499470	0.293170
O471	O47	0.500530	0.346530	0.206830
O481	O48	0.346530	0.500530	0.706830
