data_ICAGOK_clean_PM
_symmetry_space_group_name_H-M	'P1'
_cell_length_a	15.279300
_cell_length_b	19.306600
_cell_length_c	20.771800
_cell_angle_alpha	90.000000
_cell_angle_beta	99.010000
_cell_angle_gamma	90.000000
_symmetry_Int_Tables_number 1

loop_
_symmetry_equiv_pos_as_xyz
'x,y,z'

loop_
_atom_site_label
_atom_site_type_symbol
_atom_site_fract_x
_atom_site_fract_y
_atom_site_fract_z
Cu11	Cu1	0.678910	0.537110	0.763010
Cu21	Cu2	0.543120	0.459310	0.831460
Cu31	Cu3	0.678910	0.962890	0.263010
Cu41	Cu4	0.543120	0.040690	0.331460
H11	H1	0.634700	0.941700	0.115100
H21	H2	0.645300	0.861800	0.036000
H31	H3	0.693200	0.718000	0.175200
H41	H4	0.701300	0.799700	0.248600
H51	H5	0.654100	0.793500	0.966900
H61	H6	0.657000	0.714300	0.884900
H71	H7	0.646200	0.563500	0.008100
H81	H8	0.675200	0.639600	0.100400
H91	H9	0.841300	0.615600	0.804200
H101	H10	0.996500	0.606100	0.820300
H111	H11	0.961700	0.408700	0.766200
H121	H12	0.811500	0.423600	0.756800
H131	H13	0.120900	0.576700	0.867500
H141	H14	0.270200	0.566000	0.885700
H151	H15	0.253800	0.403400	0.764000
H161	H16	0.097000	0.414200	0.746300
H171	H17	0.555900	0.046000	0.472900
H181	H18	0.573800	0.122800	0.556600
H191	H19	0.567400	0.275600	0.426500
H201	H20	0.558600	0.194300	0.345800
H211	H21	0.533900	0.204400	0.621200
H221	H22	0.557600	0.281000	0.705500
H231	H23	0.667900	0.411700	0.594600
H241	H24	0.646200	0.332700	0.509400
H251	H25	0.634700	0.558300	0.615100
H261	H26	0.645300	0.638200	0.536000
H271	H27	0.693200	0.782000	0.675200
H281	H28	0.701300	0.700300	0.748600
H291	H29	0.654100	0.706500	0.466900
H301	H30	0.657000	0.785700	0.384900
H311	H31	0.646200	0.936500	0.508100
H321	H32	0.675200	0.860400	0.600400
H331	H33	0.841300	0.884400	0.304200
H341	H34	0.996500	0.893900	0.320300
H351	H35	0.961700	0.091300	0.266200
H361	H36	0.811500	0.076400	0.256800
H371	H37	0.120900	0.923300	0.367500
H381	H38	0.270200	0.934000	0.385700
H391	H39	0.253800	0.096600	0.264000
H401	H40	0.097000	0.085800	0.246300
H411	H41	0.555900	0.454000	0.972900
H421	H42	0.573800	0.377200	0.056600
H431	H43	0.567400	0.224400	0.926500
H441	H44	0.558600	0.305700	0.845800
H451	H45	0.533900	0.295600	0.121200
H461	H46	0.557600	0.219000	0.205500
H471	H47	0.667900	0.088300	0.094600
H481	H48	0.646200	0.167300	0.009400
C11	C1	0.651100	0.896500	0.126900
C21	C2	0.653100	0.847500	0.079300
C31	C3	0.665000	0.784100	0.091400
C41	C4	0.684200	0.764000	0.162700
C51	C5	0.687600	0.812000	0.204900
C61	C6	0.666000	0.723600	0.037100
C71	C7	0.659700	0.746500	0.976100
C81	C8	0.661700	0.699900	0.928000
C91	C9	0.671600	0.625400	0.944900
C101	C10	0.660900	0.609400	0.001400
C111	C11	0.669000	0.654400	0.057200
C121	C12	0.866200	0.573000	0.796900
C131	C13	0.960500	0.568200	0.807400
C141	C14	0.995700	0.502600	0.797200
C151	C15	0.939500	0.451600	0.776100
C161	C16	0.848400	0.461300	0.768600
C171	C17	0.094600	0.495700	0.805100
C181	C18	0.147600	0.541600	0.846700
C191	C19	0.236400	0.535700	0.857200
C201	C20	0.277000	0.485900	0.826500
C211	C21	0.226300	0.438300	0.784400
C221	C22	0.132100	0.444600	0.774000
C231	C23	0.384400	0.484600	0.842200
C241	C24	0.668100	0.577840	0.887590
C251	C25	0.560200	0.092830	0.463620
C261	C26	0.570000	0.138740	0.514040
C271	C27	0.574100	0.209860	0.501960
C281	C28	0.567400	0.228870	0.437400
C291	C29	0.560500	0.179830	0.388700
C301	C30	0.588000	0.259740	0.555110
C311	C31	0.561700	0.246240	0.615290
C321	C32	0.575300	0.292540	0.665990
C331	C33	0.613300	0.353390	0.659740
C341	C34	0.640800	0.369410	0.600040
C351	C35	0.627500	0.321670	0.548650
C361	C36	0.628700	0.406380	0.713550
C371	C37	0.651100	0.603500	0.626900
C381	C38	0.653100	0.652500	0.579300
C391	C39	0.665000	0.715900	0.591400
C401	C40	0.684200	0.736000	0.662700
C411	C41	0.687600	0.688000	0.704900
C421	C42	0.666000	0.776400	0.537100
C431	C43	0.659700	0.753500	0.476100
C441	C44	0.661700	0.800100	0.428000
C451	C45	0.671600	0.874600	0.444900
C461	C46	0.660900	0.890600	0.501400
C471	C47	0.669000	0.845600	0.557200
C481	C48	0.866200	0.927000	0.296900
C491	C49	0.960500	0.931800	0.307400
C501	C50	0.995700	0.997400	0.297200
C511	C51	0.939500	0.048400	0.276100
C521	C52	0.848400	0.038700	0.268600
C531	C53	0.094600	0.004300	0.305100
C541	C54	0.147600	0.958400	0.346700
C551	C55	0.236400	0.964300	0.357200
C561	C56	0.277000	0.014100	0.326500
C571	C57	0.226300	0.061700	0.284400
C581	C58	0.132100	0.055400	0.274000
C591	C59	0.384400	0.015400	0.342200
C601	C60	0.668100	0.922160	0.387590
C611	C61	0.560200	0.407170	0.963620
C621	C62	0.570000	0.361260	0.014040
C631	C63	0.574100	0.290140	0.001960
C641	C64	0.567400	0.271130	0.937400
C651	C65	0.560500	0.320170	0.888700
C661	C66	0.588000	0.240260	0.055110
C671	C67	0.561700	0.253760	0.115290
C681	C68	0.575300	0.207460	0.165990
C691	C69	0.613300	0.146610	0.159740
C701	C70	0.640800	0.130590	0.100040
C711	C71	0.627500	0.178330	0.048650
C721	C72	0.628700	0.093620	0.213550
N11	N1	0.672590	0.879780	0.190800
N21	N2	0.812110	0.521820	0.777630
N31	N3	0.546250	0.530990	0.765530
N41	N4	0.502300	0.581350	0.762310
N51	N5	0.461400	0.630000	0.759500
N61	N6	0.556580	0.111940	0.401220
N71	N7	0.672590	0.620220	0.690800
N81	N8	0.812110	0.978180	0.277630
N91	N9	0.546250	0.969010	0.265530
N101	N10	0.502300	0.918650	0.262310
N111	N11	0.461400	0.870000	0.259500
N121	N12	0.556580	0.388060	0.901220
O11	O1	0.422800	0.521200	0.883400
O21	O2	0.415400	0.444700	0.808600
O31	O3	0.688890	0.602310	0.835280
O41	O4	0.644400	0.516700	0.895050
O51	O5	0.605030	0.390760	0.767320
O61	O6	0.664920	0.462590	0.701110
O71	O7	0.422800	0.978800	0.383400
O81	O8	0.415400	0.055300	0.308600
O91	O9	0.688890	0.897690	0.335280
O101	O10	0.644400	0.983300	0.395050
O111	O11	0.605030	0.109240	0.267320
O121	O12	0.664920	0.037410	0.201110
Cu51	Cu5	0.321090	0.037110	0.736990
Cu61	Cu6	0.456880	0.959310	0.668540
Cu71	Cu7	0.321090	0.462890	0.236990
Cu81	Cu8	0.456880	0.540690	0.168540
H491	H49	0.365300	0.441700	0.384900
H501	H50	0.354700	0.361800	0.464000
H511	H51	0.306800	0.218000	0.324800
H521	H52	0.298700	0.299700	0.251400
H531	H53	0.345900	0.293500	0.533100
H541	H54	0.343000	0.214300	0.615100
H551	H55	0.353800	0.063500	0.491900
H561	H56	0.324800	0.139600	0.399600
H571	H57	0.158700	0.115600	0.695800
H581	H58	0.003500	0.106100	0.679700
H591	H59	0.038300	0.908700	0.733800
H601	H60	0.188500	0.923600	0.743200
H611	H61	0.879100	0.076700	0.632500
H621	H62	0.729800	0.066000	0.614300
H631	H63	0.746200	0.903400	0.736000
H641	H64	0.903000	0.914200	0.753700
H651	H65	0.444100	0.546000	0.027100
H661	H66	0.426200	0.622800	0.943400
H671	H67	0.432600	0.775600	0.073500
H681	H68	0.441400	0.694300	0.154200
H691	H69	0.466100	0.704400	0.878800
H701	H70	0.442400	0.781000	0.794500
H711	H71	0.332100	0.911700	0.905400
H721	H72	0.353800	0.832700	0.990600
H731	H73	0.365300	0.058300	0.884900
H741	H74	0.354700	0.138200	0.964000
H751	H75	0.306800	0.282000	0.824800
H761	H76	0.298700	0.200300	0.751400
H771	H77	0.345900	0.206500	0.033100
H781	H78	0.343000	0.285700	0.115100
H791	H79	0.353800	0.436500	0.991900
H801	H80	0.324800	0.360400	0.899600
H811	H81	0.158700	0.384400	0.195800
H821	H82	0.003500	0.393900	0.179700
H831	H83	0.038300	0.591300	0.233800
H841	H84	0.188500	0.576400	0.243200
H851	H85	0.879100	0.423300	0.132500
H861	H86	0.729800	0.434000	0.114300
H871	H87	0.746200	0.596600	0.236000
H881	H88	0.903000	0.585800	0.253700
H891	H89	0.444100	0.954000	0.527100
H901	H90	0.426200	0.877200	0.443400
H911	H91	0.432600	0.724400	0.573500
H921	H92	0.441400	0.805700	0.654200
H931	H93	0.466100	0.795600	0.378800
H941	H94	0.442400	0.719000	0.294500
H951	H95	0.332100	0.588300	0.405400
H961	H96	0.353800	0.667300	0.490600
C731	C73	0.348900	0.396500	0.373100
C741	C74	0.346900	0.347500	0.420700
C751	C75	0.335000	0.284100	0.408600
C761	C76	0.315800	0.264000	0.337300
C771	C77	0.312400	0.312000	0.295100
C781	C78	0.334000	0.223600	0.462900
C791	C79	0.340300	0.246500	0.523900
C801	C80	0.338300	0.199900	0.572000
C811	C81	0.328400	0.125400	0.555100
C821	C82	0.339100	0.109400	0.498600
C831	C83	0.331000	0.154400	0.442800
C841	C84	0.133800	0.073000	0.703100
C851	C85	0.039500	0.068200	0.692600
C861	C86	0.004300	0.002600	0.702800
C871	C87	0.060500	0.951600	0.723900
C881	C88	0.151600	0.961300	0.731400
C891	C89	0.905400	0.995700	0.694900
C901	C90	0.852400	0.041600	0.653300
C911	C91	0.763600	0.035700	0.642800
C921	C92	0.723000	0.985900	0.673500
C931	C93	0.773700	0.938300	0.715600
C941	C94	0.867900	0.944600	0.726000
C951	C95	0.615600	0.984600	0.657800
C961	C96	0.331900	0.077840	0.612410
C971	C97	0.439800	0.592830	0.036380
C981	C98	0.430000	0.638740	0.985960
C991	C99	0.425900	0.709860	0.998040
C1001	C100	0.432600	0.728870	0.062600
C1011	C101	0.439500	0.679830	0.111300
C1021	C102	0.412000	0.759740	0.944890
C1031	C103	0.438300	0.746240	0.884710
C1041	C104	0.424700	0.792540	0.834010
C1051	C105	0.386700	0.853390	0.840260
C1061	C106	0.359200	0.869410	0.899960
C1071	C107	0.372500	0.821670	0.951350
C1081	C108	0.371300	0.906380	0.786450
C1091	C109	0.348900	0.103500	0.873100
C1101	C110	0.346900	0.152500	0.920700
C1111	C111	0.335000	0.215900	0.908600
C1121	C112	0.315800	0.236000	0.837300
C1131	C113	0.312400	0.188000	0.795100
C1141	C114	0.334000	0.276400	0.962900
C1151	C115	0.340300	0.253500	0.023900
C1161	C116	0.338300	0.300100	0.072000
C1171	C117	0.328400	0.374600	0.055100
C1181	C118	0.339100	0.390600	0.998600
C1191	C119	0.331000	0.345600	0.942800
C1201	C120	0.133800	0.427000	0.203100
C1211	C121	0.039500	0.431800	0.192600
C1221	C122	0.004300	0.497400	0.202800
C1231	C123	0.060500	0.548400	0.223900
C1241	C124	0.151600	0.538700	0.231400
C1251	C125	0.905400	0.504300	0.194900
C1261	C126	0.852400	0.458400	0.153300
C1271	C127	0.763600	0.464300	0.142800
C1281	C128	0.723000	0.514100	0.173500
C1291	C129	0.773700	0.561700	0.215600
C1301	C130	0.867900	0.555400	0.226000
C1311	C131	0.615600	0.515400	0.157800
C1321	C132	0.331900	0.422160	0.112410
C1331	C133	0.439800	0.907170	0.536380
C1341	C134	0.430000	0.861260	0.485960
C1351	C135	0.425900	0.790140	0.498040
C1361	C136	0.432600	0.771130	0.562600
C1371	C137	0.439500	0.820170	0.611300
C1381	C138	0.412000	0.740260	0.444890
C1391	C139	0.438300	0.753760	0.384710
C1401	C140	0.424700	0.707460	0.334010
C1411	C141	0.386700	0.646610	0.340260
C1421	C142	0.359200	0.630590	0.399960
C1431	C143	0.372500	0.678330	0.451350
C1441	C144	0.371300	0.593620	0.286450
N131	N13	0.327410	0.379780	0.309200
N141	N14	0.187890	0.021820	0.722370
N151	N15	0.453750	0.030990	0.734470
N161	N16	0.497700	0.081350	0.737690
N171	N17	0.538600	0.130000	0.740500
N181	N18	0.443420	0.611940	0.098780
N191	N19	0.327410	0.120220	0.809200
N201	N20	0.187890	0.478180	0.222370
N211	N21	0.453750	0.469010	0.234470
N221	N22	0.497700	0.418650	0.237690
N231	N23	0.538600	0.370000	0.240500
N241	N24	0.443420	0.888060	0.598780
O131	O13	0.577200	0.021200	0.616600
O141	O14	0.584600	0.944700	0.691400
O151	O15	0.311110	0.102310	0.664720
O161	O16	0.355600	0.016700	0.604950
O171	O17	0.394970	0.890760	0.732680
O181	O18	0.335080	0.962590	0.798890
O191	O19	0.577200	0.478800	0.116600
O201	O20	0.584600	0.555300	0.191400
O211	O21	0.311110	0.397690	0.164720
O221	O22	0.355600	0.483300	0.104950
O231	O23	0.394970	0.609240	0.232680
O241	O24	0.335080	0.537410	0.298890
