data_ICAQOU_clean_PM
_symmetry_space_group_name_H-M	'P1'
_cell_length_a	27.512000
_cell_length_b	27.512000
_cell_length_c	27.512000
_cell_angle_alpha	90.000000
_cell_angle_beta	90.000000
_cell_angle_gamma	90.000000
_symmetry_Int_Tables_number 1

loop_
_symmetry_equiv_pos_as_xyz
'x,y,z'

loop_
_atom_site_label
_atom_site_type_symbol
_atom_site_fract_x
_atom_site_fract_y
_atom_site_fract_z
Cu11	Cu1	0.500000	0.000000	0.797760
Cu21	Cu2	0.500000	0.000000	0.202240
Cu31	Cu3	0.797760	0.500000	0.000000
Cu41	Cu4	0.202240	0.500000	0.000000
Cu51	Cu5	0.000000	0.797760	0.500000
Cu61	Cu6	0.000000	0.202240	0.500000
Cu71	Cu7	0.500000	0.000000	0.702240
Cu81	Cu8	0.500000	0.000000	0.297760
Cu91	Cu9	0.000000	0.297760	0.500000
Cu101	Cu10	0.000000	0.702240	0.500000
Cu111	Cu11	0.297760	0.500000	0.000000
Cu121	Cu12	0.702240	0.500000	0.000000
H11	H1	0.608900	0.889800	0.823500
H21	H2	0.668400	0.830300	0.822400
H31	H3	0.391100	0.110200	0.823500
H41	H4	0.331600	0.169700	0.822400
H51	H5	0.391100	0.889800	0.176500
H61	H6	0.331600	0.830300	0.177600
H71	H7	0.608900	0.110200	0.176500
H81	H8	0.668400	0.169700	0.177600
H91	H9	0.823500	0.608900	0.889800
H101	H10	0.822400	0.668400	0.830300
H111	H11	0.823500	0.391100	0.110200
H121	H12	0.822400	0.331600	0.169700
H131	H13	0.176500	0.391100	0.889800
H141	H14	0.177600	0.331600	0.830300
H151	H15	0.176500	0.608900	0.110200
H161	H16	0.177600	0.668400	0.169700
H171	H17	0.889800	0.823500	0.608900
H181	H18	0.830300	0.822400	0.668400
H191	H19	0.110200	0.823500	0.391100
H201	H20	0.169700	0.822400	0.331600
H211	H21	0.889800	0.176500	0.391100
H221	H22	0.830300	0.177600	0.331600
H231	H23	0.110200	0.176500	0.608900
H241	H24	0.169700	0.177600	0.668400
H251	H25	0.389800	0.108900	0.676500
H261	H26	0.330300	0.168400	0.677600
H271	H27	0.610200	0.891100	0.676500
H281	H28	0.669700	0.831600	0.677600
H291	H29	0.389800	0.891100	0.323500
H301	H30	0.330300	0.831600	0.322400
H311	H31	0.610200	0.108900	0.323500
H321	H32	0.669700	0.168400	0.322400
H331	H33	0.108900	0.323500	0.610200
H341	H34	0.168400	0.322400	0.669700
H351	H35	0.891100	0.323500	0.389800
H361	H36	0.831600	0.322400	0.330300
H371	H37	0.891100	0.676500	0.610200
H381	H38	0.831600	0.677600	0.669700
H391	H39	0.108900	0.676500	0.389800
H401	H40	0.168400	0.677600	0.330300
H411	H41	0.323500	0.389800	0.891100
H421	H42	0.322400	0.330300	0.831600
H431	H43	0.323500	0.610200	0.108900
H441	H44	0.322400	0.669700	0.168400
H451	H45	0.676500	0.389800	0.108900
H461	H46	0.677600	0.330300	0.168400
H471	H47	0.676500	0.610200	0.891100
H481	H48	0.677600	0.669700	0.831600
H491	H49	0.391100	0.110200	0.176500
H501	H50	0.331600	0.169700	0.177600
H511	H51	0.608900	0.889800	0.176500
H521	H52	0.668400	0.830300	0.177600
H531	H53	0.608900	0.110200	0.823500
H541	H54	0.668400	0.169700	0.822400
H551	H55	0.391100	0.889800	0.823500
H561	H56	0.331600	0.830300	0.822400
H571	H57	0.176500	0.391100	0.110200
H581	H58	0.177600	0.331600	0.169700
H591	H59	0.176500	0.608900	0.889800
H601	H60	0.177600	0.668400	0.830300
H611	H61	0.823500	0.608900	0.110200
H621	H62	0.822400	0.668400	0.169700
H631	H63	0.823500	0.391100	0.889800
H641	H64	0.822400	0.331600	0.830300
H651	H65	0.110200	0.176500	0.391100
H661	H66	0.169700	0.177600	0.331600
H671	H67	0.889800	0.176500	0.608900
H681	H68	0.830300	0.177600	0.668400
H691	H69	0.110200	0.823500	0.608900
H701	H70	0.169700	0.822400	0.668400
H711	H71	0.889800	0.823500	0.391100
H721	H72	0.830300	0.822400	0.331600
H731	H73	0.610200	0.891100	0.323500
H741	H74	0.669700	0.831600	0.322400
H751	H75	0.389800	0.108900	0.323500
H761	H76	0.330300	0.168400	0.322400
H771	H77	0.610200	0.108900	0.676500
H781	H78	0.669700	0.168400	0.677600
H791	H79	0.389800	0.891100	0.676500
H801	H80	0.330300	0.831600	0.677600
H811	H81	0.891100	0.676500	0.389800
H821	H82	0.831600	0.677600	0.330300
H831	H83	0.108900	0.676500	0.610200
H841	H84	0.168400	0.677600	0.669700
H851	H85	0.108900	0.323500	0.389800
H861	H86	0.168400	0.322400	0.330300
H871	H87	0.891100	0.323500	0.610200
H881	H88	0.831600	0.322400	0.669700
H891	H89	0.676500	0.610200	0.108900
H901	H90	0.677600	0.669700	0.168400
H911	H91	0.676500	0.389800	0.891100
H921	H92	0.677600	0.330300	0.831600
H931	H93	0.323500	0.610200	0.891100
H941	H94	0.322400	0.669700	0.831600
H951	H95	0.323500	0.389800	0.108900
H961	H96	0.322400	0.330300	0.168400
H971	H97	0.689600	0.750000	0.810400
H981	H98	0.310400	0.250000	0.810400
H991	H99	0.310400	0.750000	0.189600
H1001	H100	0.689600	0.250000	0.189600
H1011	H101	0.810400	0.689600	0.750000
H1021	H102	0.810400	0.310400	0.250000
H1031	H103	0.189600	0.310400	0.750000
H1041	H104	0.189600	0.689600	0.250000
H1051	H105	0.750000	0.810400	0.689600
H1061	H106	0.250000	0.810400	0.310400
H1071	H107	0.750000	0.189600	0.310400
H1081	H108	0.250000	0.189600	0.689600
H1091	H109	0.310400	0.250000	0.189600
H1101	H110	0.689600	0.750000	0.189600
H1111	H111	0.689600	0.250000	0.810400
H1121	H112	0.310400	0.750000	0.810400
H1131	H113	0.189600	0.310400	0.250000
H1141	H114	0.189600	0.689600	0.750000
H1151	H115	0.810400	0.689600	0.250000
H1161	H116	0.810400	0.310400	0.750000
H1171	H117	0.250000	0.189600	0.310400
H1181	H118	0.750000	0.189600	0.689600
H1191	H119	0.250000	0.810400	0.689600
H1201	H120	0.750000	0.810400	0.310400
H1211	H121	0.500000	0.928100	0.880000
H1221	H122	0.500000	0.928400	0.964900
H1231	H123	0.500000	0.071900	0.880000
H1241	H124	0.500000	0.071600	0.964900
H1251	H125	0.500000	0.928100	0.120000
H1261	H126	0.500000	0.928400	0.035100
H1271	H127	0.500000	0.071900	0.120000
H1281	H128	0.500000	0.071600	0.035100
H1291	H129	0.880000	0.500000	0.928100
H1301	H130	0.964900	0.500000	0.928400
H1311	H131	0.880000	0.500000	0.071900
H1321	H132	0.964900	0.500000	0.071600
H1331	H133	0.120000	0.500000	0.928100
H1341	H134	0.035100	0.500000	0.928400
H1351	H135	0.120000	0.500000	0.071900
H1361	H136	0.035100	0.500000	0.071600
H1371	H137	0.928100	0.880000	0.500000
H1381	H138	0.928400	0.964900	0.500000
H1391	H139	0.071900	0.880000	0.500000
H1401	H140	0.071600	0.964900	0.500000
H1411	H141	0.928100	0.120000	0.500000
H1421	H142	0.928400	0.035100	0.500000
H1431	H143	0.071900	0.120000	0.500000
H1441	H144	0.071600	0.035100	0.500000
H1451	H145	0.428100	0.000000	0.620000
H1461	H146	0.428400	0.000000	0.535100
H1471	H147	0.571900	0.000000	0.620000
H1481	H148	0.571600	0.000000	0.535100
H1491	H149	0.428100	0.000000	0.380000
H1501	H150	0.428400	0.000000	0.464900
H1511	H151	0.571900	0.000000	0.380000
H1521	H152	0.571600	0.000000	0.464900
H1531	H153	0.000000	0.380000	0.571900
H1541	H154	0.000000	0.464900	0.571600
H1551	H155	0.000000	0.380000	0.428100
H1561	H156	0.000000	0.464900	0.428400
H1571	H157	0.000000	0.620000	0.571900
H1581	H158	0.000000	0.535100	0.571600
H1591	H159	0.000000	0.620000	0.428100
H1601	H160	0.000000	0.535100	0.428400
H1611	H161	0.380000	0.428100	0.000000
H1621	H162	0.464900	0.428400	0.000000
H1631	H163	0.380000	0.571900	0.000000
H1641	H164	0.464900	0.571600	0.000000
H1651	H165	0.620000	0.428100	0.000000
H1661	H166	0.535100	0.428400	0.000000
H1671	H167	0.620000	0.571900	0.000000
H1681	H168	0.535100	0.571600	0.000000
C11	C1	0.620940	0.878260	0.794100
C21	C2	0.656610	0.842600	0.793190
C31	C3	0.379060	0.121740	0.794100
C41	C4	0.343390	0.157400	0.793190
C51	C5	0.379060	0.878260	0.205900
C61	C6	0.343390	0.842600	0.206810
C71	C7	0.620940	0.121740	0.205900
C81	C8	0.656610	0.157400	0.206810
C91	C9	0.794100	0.620940	0.878260
C101	C10	0.793190	0.656610	0.842600
C111	C11	0.794100	0.379060	0.121740
C121	C12	0.793190	0.343390	0.157400
C131	C13	0.205900	0.379060	0.878260
C141	C14	0.206810	0.343390	0.842600
C151	C15	0.205900	0.620940	0.121740
C161	C16	0.206810	0.656610	0.157400
C171	C17	0.878260	0.794100	0.620940
C181	C18	0.842600	0.793190	0.656610
C191	C19	0.121740	0.794100	0.379060
C201	C20	0.157400	0.793190	0.343390
C211	C21	0.878260	0.205900	0.379060
C221	C22	0.842600	0.206810	0.343390
C231	C23	0.121740	0.205900	0.620940
C241	C24	0.157400	0.206810	0.656610
C251	C25	0.378260	0.120940	0.705900
C261	C26	0.342600	0.156610	0.706810
C271	C27	0.621740	0.879060	0.705900
C281	C28	0.657400	0.843390	0.706810
C291	C29	0.378260	0.879060	0.294100
C301	C30	0.342600	0.843390	0.293190
C311	C31	0.621740	0.120940	0.294100
C321	C32	0.657400	0.156610	0.293190
C331	C33	0.120940	0.294100	0.621740
C341	C34	0.156610	0.293190	0.657400
C351	C35	0.879060	0.294100	0.378260
C361	C36	0.843390	0.293190	0.342600
C371	C37	0.879060	0.705900	0.621740
C381	C38	0.843390	0.706810	0.657400
C391	C39	0.120940	0.705900	0.378260
C401	C40	0.156610	0.706810	0.342600
C411	C41	0.294100	0.378260	0.879060
C421	C42	0.293190	0.342600	0.843390
C431	C43	0.294100	0.621740	0.120940
C441	C44	0.293190	0.657400	0.156610
C451	C45	0.705900	0.378260	0.120940
C461	C46	0.706810	0.342600	0.156610
C471	C47	0.705900	0.621740	0.879060
C481	C48	0.706810	0.657400	0.843390
C491	C49	0.379060	0.121740	0.205900
C501	C50	0.343390	0.157400	0.206810
C511	C51	0.620940	0.878260	0.205900
C521	C52	0.656610	0.842600	0.206810
C531	C53	0.620940	0.121740	0.794100
C541	C54	0.656610	0.157400	0.793190
C551	C55	0.379060	0.878260	0.794100
C561	C56	0.343390	0.842600	0.793190
C571	C57	0.205900	0.379060	0.121740
C581	C58	0.206810	0.343390	0.157400
C591	C59	0.205900	0.620940	0.878260
C601	C60	0.206810	0.656610	0.842600
C611	C61	0.794100	0.620940	0.121740
C621	C62	0.793190	0.656610	0.157400
C631	C63	0.794100	0.379060	0.878260
C641	C64	0.793190	0.343390	0.842600
C651	C65	0.121740	0.205900	0.379060
C661	C66	0.157400	0.206810	0.343390
C671	C67	0.878260	0.205900	0.620940
C681	C68	0.842600	0.206810	0.656610
C691	C69	0.121740	0.794100	0.620940
C701	C70	0.157400	0.793190	0.656610
C711	C71	0.878260	0.794100	0.379060
C721	C72	0.842600	0.793190	0.343390
C731	C73	0.621740	0.879060	0.294100
C741	C74	0.657400	0.843390	0.293190
C751	C75	0.378260	0.120940	0.294100
C761	C76	0.342600	0.156610	0.293190
C771	C77	0.621740	0.120940	0.705900
C781	C78	0.657400	0.156610	0.706810
C791	C79	0.378260	0.879060	0.705900
C801	C80	0.342600	0.843390	0.706810
C811	C81	0.879060	0.705900	0.378260
C821	C82	0.843390	0.706810	0.342600
C831	C83	0.120940	0.705900	0.621740
C841	C84	0.156610	0.706810	0.657400
C851	C85	0.120940	0.294100	0.378260
C861	C86	0.156610	0.293190	0.342600
C871	C87	0.879060	0.294100	0.621740
C881	C88	0.843390	0.293190	0.657400
C891	C89	0.705900	0.621740	0.120940
C901	C90	0.706810	0.657400	0.156610
C911	C91	0.705900	0.378260	0.879060
C921	C92	0.706810	0.342600	0.843390
C931	C93	0.294100	0.621740	0.879060
C941	C94	0.293190	0.657400	0.843390
C951	C95	0.294100	0.378260	0.120940
C961	C96	0.293190	0.342600	0.156610
C971	C97	0.500000	0.000000	0.975100
C981	C98	0.500000	0.000000	0.024900
C991	C99	0.975100	0.500000	0.000000
C1001	C100	0.024900	0.500000	0.000000
C1011	C101	0.000000	0.975100	0.500000
C1021	C102	0.000000	0.024900	0.500000
C1031	C103	0.500000	0.000000	0.524900
C1041	C104	0.500000	0.000000	0.475100
C1051	C105	0.000000	0.475100	0.500000
C1061	C106	0.000000	0.524900	0.500000
C1071	C107	0.475100	0.500000	0.000000
C1081	C108	0.524900	0.500000	0.000000
C1091	C109	0.564780	0.935220	0.750000
C1101	C110	0.603350	0.896650	0.750000
C1111	C111	0.675070	0.824930	0.750000
C1121	C112	0.713860	0.786140	0.750000
C1131	C113	0.435220	0.064780	0.750000
C1141	C114	0.396650	0.103350	0.750000
C1151	C115	0.324930	0.175070	0.750000
C1161	C116	0.286140	0.213860	0.750000
C1171	C117	0.435220	0.935220	0.250000
C1181	C118	0.396650	0.896650	0.250000
C1191	C119	0.324930	0.824930	0.250000
C1201	C120	0.286140	0.786140	0.250000
C1211	C121	0.564780	0.064780	0.250000
C1221	C122	0.603350	0.103350	0.250000
C1231	C123	0.675070	0.175070	0.250000
C1241	C124	0.713860	0.213860	0.250000
C1251	C125	0.750000	0.564780	0.935220
C1261	C126	0.750000	0.603350	0.896650
C1271	C127	0.750000	0.675070	0.824930
C1281	C128	0.750000	0.713860	0.786140
C1291	C129	0.750000	0.435220	0.064780
C1301	C130	0.750000	0.396650	0.103350
C1311	C131	0.750000	0.324930	0.175070
C1321	C132	0.750000	0.286140	0.213860
C1331	C133	0.250000	0.435220	0.935220
C1341	C134	0.250000	0.396650	0.896650
C1351	C135	0.250000	0.324930	0.824930
C1361	C136	0.250000	0.286140	0.786140
C1371	C137	0.250000	0.564780	0.064780
C1381	C138	0.250000	0.603350	0.103350
C1391	C139	0.250000	0.675070	0.175070
C1401	C140	0.250000	0.713860	0.213860
C1411	C141	0.935220	0.750000	0.564780
C1421	C142	0.896650	0.750000	0.603350
C1431	C143	0.824930	0.750000	0.675070
C1441	C144	0.786140	0.750000	0.713860
C1451	C145	0.064780	0.750000	0.435220
C1461	C146	0.103350	0.750000	0.396650
C1471	C147	0.175070	0.750000	0.324930
C1481	C148	0.213860	0.750000	0.286140
C1491	C149	0.935220	0.250000	0.435220
C1501	C150	0.896650	0.250000	0.396650
C1511	C151	0.824930	0.250000	0.324930
C1521	C152	0.786140	0.250000	0.286140
C1531	C153	0.064780	0.250000	0.564780
C1541	C154	0.103350	0.250000	0.603350
C1551	C155	0.175070	0.250000	0.675070
C1561	C156	0.213860	0.250000	0.713860
C1571	C157	0.435220	0.064780	0.250000
C1581	C158	0.396650	0.103350	0.250000
C1591	C159	0.324930	0.175070	0.250000
C1601	C160	0.286140	0.213860	0.250000
C1611	C161	0.564780	0.935220	0.250000
C1621	C162	0.603350	0.896650	0.250000
C1631	C163	0.675070	0.824930	0.250000
C1641	C164	0.713860	0.786140	0.250000
C1651	C165	0.564780	0.064780	0.750000
C1661	C166	0.603350	0.103350	0.750000
C1671	C167	0.675070	0.175070	0.750000
C1681	C168	0.713860	0.213860	0.750000
C1691	C169	0.435220	0.935220	0.750000
C1701	C170	0.396650	0.896650	0.750000
C1711	C171	0.324930	0.824930	0.750000
C1721	C172	0.286140	0.786140	0.750000
C1731	C173	0.250000	0.435220	0.064780
C1741	C174	0.250000	0.396650	0.103350
C1751	C175	0.250000	0.324930	0.175070
C1761	C176	0.250000	0.286140	0.213860
C1771	C177	0.250000	0.564780	0.935220
C1781	C178	0.250000	0.603350	0.896650
C1791	C179	0.250000	0.675070	0.824930
C1801	C180	0.250000	0.713860	0.786140
C1811	C181	0.750000	0.564780	0.064780
C1821	C182	0.750000	0.603350	0.103350
C1831	C183	0.750000	0.675070	0.175070
C1841	C184	0.750000	0.713860	0.213860
C1851	C185	0.750000	0.435220	0.935220
C1861	C186	0.750000	0.396650	0.896650
C1871	C187	0.750000	0.324930	0.824930
C1881	C188	0.750000	0.286140	0.786140
C1891	C189	0.064780	0.250000	0.435220
C1901	C190	0.103350	0.250000	0.396650
C1911	C191	0.175070	0.250000	0.324930
C1921	C192	0.213860	0.250000	0.286140
C1931	C193	0.935220	0.250000	0.564780
C1941	C194	0.896650	0.250000	0.603350
C1951	C195	0.824930	0.250000	0.675070
C1961	C196	0.786140	0.250000	0.713860
C1971	C197	0.064780	0.750000	0.564780
C1981	C198	0.103350	0.750000	0.603350
C1991	C199	0.175070	0.750000	0.675070
C2001	C200	0.213860	0.750000	0.713860
C2011	C201	0.935220	0.750000	0.435220
C2021	C202	0.896650	0.750000	0.396650
C2031	C203	0.824930	0.750000	0.324930
C2041	C204	0.786140	0.750000	0.286140
C2051	C205	0.713490	0.750000	0.786510
C2061	C206	0.286510	0.250000	0.786510
C2071	C207	0.286510	0.750000	0.213490
C2081	C208	0.713490	0.250000	0.213490
C2091	C209	0.786510	0.713490	0.750000
C2101	C210	0.786510	0.286510	0.250000
C2111	C211	0.213490	0.286510	0.750000
C2121	C212	0.213490	0.713490	0.250000
C2131	C213	0.750000	0.786510	0.713490
C2141	C214	0.250000	0.786510	0.286510
C2151	C215	0.750000	0.213490	0.286510
C2161	C216	0.250000	0.213490	0.713490
C2171	C217	0.286510	0.250000	0.213490
C2181	C218	0.713490	0.750000	0.213490
C2191	C219	0.713490	0.250000	0.786510
C2201	C220	0.286510	0.750000	0.786510
C2211	C221	0.213490	0.286510	0.250000
C2221	C222	0.213490	0.713490	0.750000
C2231	C223	0.786510	0.713490	0.250000
C2241	C224	0.786510	0.286510	0.750000
C2251	C225	0.250000	0.213490	0.286510
C2261	C226	0.750000	0.213490	0.713490
C2271	C227	0.250000	0.786510	0.713490
C2281	C228	0.750000	0.786510	0.286510
C2291	C229	0.500000	0.957100	0.897300
C2301	C230	0.500000	0.957900	0.948400
C2311	C231	0.500000	0.042900	0.897300
C2321	C232	0.500000	0.042100	0.948400
C2331	C233	0.500000	0.957100	0.102700
C2341	C234	0.500000	0.957900	0.051600
C2351	C235	0.500000	0.042900	0.102700
C2361	C236	0.500000	0.042100	0.051600
C2371	C237	0.897300	0.500000	0.957100
C2381	C238	0.948400	0.500000	0.957900
C2391	C239	0.897300	0.500000	0.042900
C2401	C240	0.948400	0.500000	0.042100
C2411	C241	0.102700	0.500000	0.957100
C2421	C242	0.051600	0.500000	0.957900
C2431	C243	0.102700	0.500000	0.042900
C2441	C244	0.051600	0.500000	0.042100
C2451	C245	0.957100	0.897300	0.500000
C2461	C246	0.957900	0.948400	0.500000
C2471	C247	0.042900	0.897300	0.500000
C2481	C248	0.042100	0.948400	0.500000
C2491	C249	0.957100	0.102700	0.500000
C2501	C250	0.957900	0.051600	0.500000
C2511	C251	0.042900	0.102700	0.500000
C2521	C252	0.042100	0.051600	0.500000
C2531	C253	0.457100	0.000000	0.602700
C2541	C254	0.457900	0.000000	0.551600
C2551	C255	0.542900	0.000000	0.602700
C2561	C256	0.542100	0.000000	0.551600
C2571	C257	0.457100	0.000000	0.397300
C2581	C258	0.457900	0.000000	0.448400
C2591	C259	0.542900	0.000000	0.397300
C2601	C260	0.542100	0.000000	0.448400
C2611	C261	0.000000	0.397300	0.542900
C2621	C262	0.000000	0.448400	0.542100
C2631	C263	0.000000	0.397300	0.457100
C2641	C264	0.000000	0.448400	0.457900
C2651	C265	0.000000	0.602700	0.542900
C2661	C266	0.000000	0.551600	0.542100
C2671	C267	0.000000	0.602700	0.457100
C2681	C268	0.000000	0.551600	0.457900
C2691	C269	0.397300	0.457100	0.000000
C2701	C270	0.448400	0.457900	0.000000
C2711	C271	0.397300	0.542900	0.000000
C2721	C272	0.448400	0.542100	0.000000
C2731	C273	0.602700	0.457100	0.000000
C2741	C274	0.551600	0.457900	0.000000
C2751	C275	0.602700	0.542900	0.000000
C2761	C276	0.551600	0.542100	0.000000
N11	N1	0.500000	0.000000	0.875200
N21	N2	0.500000	0.000000	0.124800
N31	N3	0.875200	0.500000	0.000000
N41	N4	0.124800	0.500000	0.000000
N51	N5	0.000000	0.875200	0.500000
N61	N6	0.000000	0.124800	0.500000
N71	N7	0.500000	0.000000	0.624800
N81	N8	0.500000	0.000000	0.375200
N91	N9	0.000000	0.375200	0.500000
N101	N10	0.000000	0.624800	0.500000
N111	N11	0.375200	0.500000	0.000000
N121	N12	0.624800	0.500000	0.000000
O11	O1	0.550310	0.949740	0.790860
O21	O2	0.449690	0.050260	0.790860
O31	O3	0.449690	0.949740	0.209140
O41	O4	0.550310	0.050260	0.209140
O51	O5	0.790860	0.550310	0.949740
O61	O6	0.790860	0.449690	0.050260
O71	O7	0.209140	0.449690	0.949740
O81	O8	0.209140	0.550310	0.050260
O91	O9	0.949740	0.790860	0.550310
O101	O10	0.050260	0.790860	0.449690
O111	O11	0.949740	0.209140	0.449690
O121	O12	0.050260	0.209140	0.550310
O131	O13	0.449740	0.050310	0.709140
O141	O14	0.550260	0.949690	0.709140
O151	O15	0.449740	0.949690	0.290860
O161	O16	0.550260	0.050310	0.290860
O171	O17	0.050310	0.290860	0.550260
O181	O18	0.949690	0.290860	0.449740
O191	O19	0.949690	0.709140	0.550260
O201	O20	0.050310	0.709140	0.449740
O211	O21	0.290860	0.449740	0.949690
O221	O22	0.290860	0.550260	0.050310
O231	O23	0.709140	0.449740	0.050310
O241	O24	0.709140	0.550260	0.949690
O251	O25	0.449690	0.050260	0.209140
O261	O26	0.550310	0.949740	0.209140
O271	O27	0.550310	0.050260	0.790860
O281	O28	0.449690	0.949740	0.790860
O291	O29	0.209140	0.449690	0.050260
O301	O30	0.209140	0.550310	0.949740
O311	O31	0.790860	0.550310	0.050260
O321	O32	0.790860	0.449690	0.949740
O331	O33	0.050260	0.209140	0.449690
O341	O34	0.949740	0.209140	0.550310
O351	O35	0.050260	0.790860	0.550310
O361	O36	0.949740	0.790860	0.449690
O371	O37	0.550260	0.949690	0.290860
O381	O38	0.449740	0.050310	0.290860
O391	O39	0.550260	0.050310	0.709140
O401	O40	0.449740	0.949690	0.709140
O411	O41	0.949690	0.709140	0.449740
O421	O42	0.050310	0.709140	0.550260
O431	O43	0.050310	0.290860	0.449740
O441	O44	0.949690	0.290860	0.550260
O451	O45	0.709140	0.550260	0.050310
O461	O46	0.709140	0.449740	0.949690
O471	O47	0.290860	0.550260	0.949690
O481	O48	0.290860	0.449740	0.050310
