data_ICIKIP_clean_PM
_symmetry_space_group_name_H-M	'P1'
_cell_length_a	46.374000
_cell_length_b	51.581000
_cell_length_c	53.407000
_cell_angle_alpha	90.000000
_cell_angle_beta	90.000000
_cell_angle_gamma	90.000000
_symmetry_Int_Tables_number 1

loop_
_symmetry_equiv_pos_as_xyz
'x,y,z'

loop_
_atom_site_label
_atom_site_type_symbol
_atom_site_fract_x
_atom_site_fract_y
_atom_site_fract_z
C11	C1	0.494900	0.520400	0.791000
C21	C2	0.469900	0.516700	0.776700
C31	C3	0.443100	0.511300	0.787500
C41	C4	0.441500	0.507300	0.813100
C51	C5	0.465100	0.509900	0.828000
C61	C6	0.491200	0.517700	0.817000
C71	C7	0.768400	0.509600	0.934400
C81	C8	0.767300	0.495800	0.956800
C91	C9	0.761300	0.467900	0.956900
C101	C10	0.757500	0.454500	0.936700
C111	C11	0.759200	0.469400	0.915200
C121	C12	0.765400	0.495800	0.914100
C131	C13	0.661700	0.495600	0.950800
C141	C14	0.635200	0.485300	0.953300
C151	C15	0.626100	0.460400	0.966500
C161	C16	0.648100	0.449800	0.978900
C171	C17	0.677300	0.456200	0.975400
C181	C18	0.683900	0.477200	0.960500
C191	C19	0.478900	0.597100	0.808200
C201	C20	0.456000	0.579800	0.802500
C211	C21	0.435300	0.588700	0.785200
C221	C22	0.436400	0.615000	0.773500
C231	C23	0.460000	0.630900	0.779000
C241	C24	0.481300	0.621700	0.797400
C251	C25	0.506700	0.514600	0.887400
C261	C26	0.509700	0.490000	0.881500
C271	C27	0.486700	0.472000	0.891800
C281	C28	0.464800	0.483200	0.908500
C291	C29	0.459700	0.510700	0.908900
C301	C30	0.481600	0.526400	0.894000
C311	C31	0.490300	0.563400	0.948700
C321	C32	0.505600	0.544700	0.958400
C331	C33	0.494400	0.525900	0.973700
C341	C34	0.465000	0.527900	0.982900
C351	C35	0.446400	0.546500	0.972300
C361	C36	0.460300	0.565500	0.954100
C371	C37	0.544600	0.584600	0.003000
C381	C38	0.558400	0.562100	0.008400
C391	C39	0.546600	0.543600	0.023600
C401	C40	0.519600	0.548700	0.035400
C411	C41	0.507500	0.571900	0.030700
C421	C42	0.516900	0.586000	0.013000
C431	C43	0.594100	0.476000	0.901600
C441	C44	0.572500	0.484200	0.917000
C451	C45	0.555600	0.466400	0.933500
C461	C46	0.563700	0.438000	0.931100
C471	C47	0.589400	0.431400	0.914200
C481	C48	0.602700	0.450600	0.897500
C491	C49	0.584700	0.452700	0.831800
C501	C50	0.572000	0.428300	0.838300
C511	C51	0.594000	0.410900	0.843400
C521	C52	0.621900	0.413800	0.836100
C531	C53	0.632800	0.436400	0.832000
C541	C54	0.612600	0.459100	0.828700
C551	C55	0.536640	0.612830	0.753440
C561	C56	0.530300	0.639160	0.753500
C571	C57	0.508100	0.648670	0.738580
C581	C58	0.492300	0.631800	0.723590
C591	C59	0.498700	0.605500	0.723530
C601	C60	0.520820	0.596000	0.738450
C611	C61	0.608500	0.515310	0.740000
C621	C62	0.591300	0.536780	0.735100
C631	C63	0.587200	0.545090	0.710630
C641	C64	0.600300	0.531900	0.691000
C651	C65	0.617500	0.510500	0.695800
C661	C66	0.621700	0.502200	0.720300
C671	C67	0.675000	0.561390	0.753900
C681	C68	0.672300	0.551150	0.729900
C691	C69	0.696000	0.539680	0.718400
C701	C70	0.722300	0.538440	0.730800
C711	C71	0.725000	0.548670	0.754700
C721	C72	0.701300	0.560150	0.766300
C731	C73	0.456100	0.648200	0.871700
C741	C74	0.458600	0.626900	0.855900
C751	C75	0.435800	0.620200	0.840300
C761	C76	0.410700	0.634900	0.840300
C771	C77	0.408200	0.656200	0.856100
C781	C78	0.431000	0.662900	0.871700
C791	C79	0.633700	0.551700	0.010400
C801	C80	0.624400	0.529300	0.998300
C811	C81	0.615000	0.507200	0.015400
C821	C82	0.617100	0.508500	0.040800
C831	C83	0.626100	0.531000	0.050500
C841	C84	0.637000	0.552600	0.035400
C851	C85	0.723500	0.560600	0.022400
C861	C86	0.735700	0.549000	0.042800
C871	C87	0.735300	0.562300	0.067200
C881	C88	0.724300	0.588600	0.069000
C891	C89	0.715300	0.601700	0.045200
C901	C90	0.713700	0.586500	0.023900
C911	C91	0.750200	0.529000	0.852900
C921	C92	0.759000	0.503800	0.847700
C931	C93	0.781500	0.499400	0.831000
C941	C94	0.795200	0.520200	0.819600
C951	C95	0.786400	0.545400	0.824800
C961	C96	0.764000	0.549800	0.841500
C971	C97	0.803300	0.619700	0.966500
C981	C98	0.825500	0.629100	0.983000
C991	C99	0.854200	0.635500	0.974000
C1001	C100	0.858900	0.635200	0.945800
C1011	C101	0.835300	0.624500	0.928100
C1021	C102	0.808500	0.617500	0.940400
C1031	C103	0.588800	0.440100	0.747100
C1041	C104	0.594700	0.444500	0.720400
C1051	C105	0.622800	0.437100	0.711700
C1061	C106	0.643200	0.428700	0.727400
C1071	C107	0.637600	0.423400	0.753700
C1081	C108	0.609700	0.430400	0.764300
Cd11	Cd1	0.606410	0.589800	0.854000
Cd21	Cd2	0.549250	0.567880	0.908000
Cd31	Cd3	0.664140	0.607930	0.906740
Cd41	Cd4	0.602450	0.588390	0.960000
Cd51	Cd5	0.626750	0.536990	0.910430
Cd61	Cd6	0.526570	0.624680	0.852910
Cd71	Cd7	0.667880	0.610630	0.799570
Cd81	Cd8	0.683060	0.559380	0.965970
Cd91	Cd9	0.729960	0.627620	0.952550
Cd101	Cd10	0.543190	0.567780	0.803590
Cd111	Cd11	0.626190	0.542900	0.794710
Cd121	Cd12	0.684580	0.557290	0.849550
Cd131	Cd13	0.739660	0.565080	0.905760
Cd141	Cd14	0.575890	0.514960	0.853970
S11	S1	0.645990	0.571060	0.880300
S21	S2	0.587840	0.553450	0.826620
S31	S3	0.565710	0.605810	0.880700
S41	S4	0.585470	0.549800	0.937160
S51	S5	0.704460	0.589430	0.933150
S61	S6	0.614390	0.498230	0.882510
S71	S7	0.707610	0.591030	0.823580
S81	S8	0.559870	0.609140	0.982790
S91	S9	0.642970	0.579060	0.991660
S101	S10	0.671570	0.523540	0.935240
S111	S11	0.502280	0.585330	0.926690
S121	S12	0.532320	0.536380	0.873860
Cd151	Cd15	0.768650	0.560450	0.975960
Cd161	Cd16	0.561250	0.492110	0.781980
S131	S13	0.722360	0.542370	0.994630
S141	S14	0.526410	0.529760	0.776310
S151	S15	0.659980	0.520630	0.825420
S161	S16	0.503590	0.585950	0.830510
S171	S17	0.492240	0.642710	0.886320
S181	S18	0.770420	0.610070	0.978490
S191	S19	0.611260	0.504790	0.768250
S201	S20	0.722110	0.532360	0.875000
S211	S21	0.557270	0.477710	0.827620
S221	S22	0.643100	0.580500	0.768380
S231	S23	0.777900	0.543210	0.932870
S241	S24	0.566300	0.600110	0.773710
S251	S25	0.555120	0.449150	0.759820
C1091	C109	0.686400	0.498400	0.806200
C1101	C110	0.704900	0.475900	0.770900
C1111	C111	0.683700	0.491100	0.781600
C1121	C112	0.701500	0.516700	0.793400
C1131	C113	0.494900	0.020400	0.291000
C1141	C114	0.469900	0.016700	0.276700
C1151	C115	0.443100	0.011300	0.287500
C1161	C116	0.441500	0.007300	0.313100
C1171	C117	0.465100	0.009900	0.328000
C1181	C118	0.491200	0.017700	0.317000
C1191	C119	0.768400	0.009600	0.434400
C1201	C120	0.767300	0.995800	0.456800
C1211	C121	0.761300	0.967900	0.456900
C1221	C122	0.757500	0.954500	0.436700
C1231	C123	0.759200	0.969400	0.415200
C1241	C124	0.765400	0.995800	0.414100
C1251	C125	0.661700	0.995600	0.450800
C1261	C126	0.635200	0.985300	0.453300
C1271	C127	0.626100	0.960400	0.466500
C1281	C128	0.648100	0.949800	0.478900
C1291	C129	0.677300	0.956200	0.475400
C1301	C130	0.683900	0.977200	0.460500
C1311	C131	0.478900	0.097100	0.308200
C1321	C132	0.456000	0.079800	0.302500
C1331	C133	0.435300	0.088700	0.285200
C1341	C134	0.436400	0.115000	0.273500
C1351	C135	0.460000	0.130900	0.279000
C1361	C136	0.481300	0.121700	0.297400
C1371	C137	0.506700	0.014600	0.387400
C1381	C138	0.509700	0.990000	0.381500
C1391	C139	0.486700	0.972000	0.391800
C1401	C140	0.464800	0.983200	0.408500
C1411	C141	0.459700	0.010700	0.408900
C1421	C142	0.481600	0.026400	0.394000
C1431	C143	0.490300	0.063400	0.448700
C1441	C144	0.505600	0.044700	0.458400
C1451	C145	0.494400	0.025900	0.473700
C1461	C146	0.465000	0.027900	0.482900
C1471	C147	0.446400	0.046500	0.472300
C1481	C148	0.460300	0.065500	0.454100
C1491	C149	0.544600	0.084600	0.503000
C1501	C150	0.558400	0.062100	0.508400
C1511	C151	0.546600	0.043600	0.523600
C1521	C152	0.519600	0.048700	0.535400
C1531	C153	0.507500	0.071900	0.530700
C1541	C154	0.516900	0.086000	0.513000
C1551	C155	0.594100	0.976000	0.401600
C1561	C156	0.572500	0.984200	0.417000
C1571	C157	0.555600	0.966400	0.433500
C1581	C158	0.563700	0.938000	0.431100
C1591	C159	0.589400	0.931400	0.414200
C1601	C160	0.602700	0.950600	0.397500
C1611	C161	0.584700	0.952700	0.331800
C1621	C162	0.572000	0.928300	0.338300
C1631	C163	0.594000	0.910900	0.343400
C1641	C164	0.621900	0.913800	0.336100
C1651	C165	0.632800	0.936400	0.332000
C1661	C166	0.612600	0.959100	0.328700
C1671	C167	0.536640	0.112830	0.253440
C1681	C168	0.530300	0.139160	0.253500
C1691	C169	0.508100	0.148670	0.238580
C1701	C170	0.492300	0.131800	0.223590
C1711	C171	0.498700	0.105500	0.223530
C1721	C172	0.520820	0.096000	0.238450
C1731	C173	0.608500	0.015310	0.240000
C1741	C174	0.591300	0.036780	0.235100
C1751	C175	0.587200	0.045090	0.210630
C1761	C176	0.600300	0.031900	0.191000
C1771	C177	0.617500	0.010500	0.195800
C1781	C178	0.621700	0.002200	0.220300
C1791	C179	0.675000	0.061390	0.253900
C1801	C180	0.672300	0.051150	0.229900
C1811	C181	0.696000	0.039680	0.218400
C1821	C182	0.722300	0.038440	0.230800
C1831	C183	0.725000	0.048670	0.254700
C1841	C184	0.701300	0.060150	0.266300
C1851	C185	0.456100	0.148200	0.371700
C1861	C186	0.458600	0.126900	0.355900
C1871	C187	0.435800	0.120200	0.340300
C1881	C188	0.410700	0.134900	0.340300
C1891	C189	0.408200	0.156200	0.356100
C1901	C190	0.431000	0.162900	0.371700
C1911	C191	0.633700	0.051700	0.510400
C1921	C192	0.624400	0.029300	0.498300
C1931	C193	0.615000	0.007200	0.515400
C1941	C194	0.617100	0.008500	0.540800
C1951	C195	0.626100	0.031000	0.550500
C1961	C196	0.637000	0.052600	0.535400
C1971	C197	0.723500	0.060600	0.522400
C1981	C198	0.735700	0.049000	0.542800
C1991	C199	0.735300	0.062300	0.567200
C2001	C200	0.724300	0.088600	0.569000
C2011	C201	0.715300	0.101700	0.545200
C2021	C202	0.713700	0.086500	0.523900
C2031	C203	0.750200	0.029000	0.352900
C2041	C204	0.759000	0.003800	0.347700
C2051	C205	0.781500	0.999400	0.331000
C2061	C206	0.795200	0.020200	0.319600
C2071	C207	0.786400	0.045400	0.324800
C2081	C208	0.764000	0.049800	0.341500
C2091	C209	0.803300	0.119700	0.466500
C2101	C210	0.825500	0.129100	0.483000
C2111	C211	0.854200	0.135500	0.474000
C2121	C212	0.858900	0.135200	0.445800
C2131	C213	0.835300	0.124500	0.428100
C2141	C214	0.808500	0.117500	0.440400
C2151	C215	0.588800	0.940100	0.247100
C2161	C216	0.594700	0.944500	0.220400
C2171	C217	0.622800	0.937100	0.211700
C2181	C218	0.643200	0.928700	0.227400
C2191	C219	0.637600	0.923400	0.253700
C2201	C220	0.609700	0.930400	0.264300
Cd171	Cd17	0.606410	0.089800	0.354000
Cd181	Cd18	0.549250	0.067880	0.408000
Cd191	Cd19	0.664140	0.107930	0.406740
Cd201	Cd20	0.602450	0.088390	0.460000
Cd211	Cd21	0.626750	0.036990	0.410430
Cd221	Cd22	0.526570	0.124680	0.352910
Cd231	Cd23	0.667880	0.110630	0.299570
Cd241	Cd24	0.683060	0.059380	0.465970
Cd251	Cd25	0.729960	0.127620	0.452550
Cd261	Cd26	0.543190	0.067780	0.303590
Cd271	Cd27	0.626190	0.042900	0.294710
Cd281	Cd28	0.684580	0.057290	0.349550
Cd291	Cd29	0.739660	0.065080	0.405760
Cd301	Cd30	0.575890	0.014960	0.353970
S261	S26	0.645990	0.071060	0.380300
S271	S27	0.587840	0.053450	0.326620
S281	S28	0.565710	0.105810	0.380700
S291	S29	0.585470	0.049800	0.437160
S301	S30	0.704460	0.089430	0.433150
S311	S31	0.614390	0.998230	0.382510
S321	S32	0.707610	0.091030	0.323580
S331	S33	0.559870	0.109140	0.482790
S341	S34	0.642970	0.079060	0.491660
S351	S35	0.671570	0.023540	0.435240
S361	S36	0.502280	0.085330	0.426690
S371	S37	0.532320	0.036380	0.373860
Cd311	Cd31	0.768650	0.060450	0.475960
Cd321	Cd32	0.561250	0.992110	0.281980
S381	S38	0.722360	0.042370	0.494630
S391	S39	0.526410	0.029760	0.276310
S401	S40	0.659980	0.020630	0.325420
S411	S41	0.503590	0.085950	0.330510
S421	S42	0.492240	0.142710	0.386320
S431	S43	0.770420	0.110070	0.478490
S441	S44	0.611260	0.004790	0.268250
S451	S45	0.722110	0.032360	0.375000
S461	S46	0.557270	0.977710	0.327620
S471	S47	0.643100	0.080500	0.268380
S481	S48	0.777900	0.043210	0.432870
S491	S49	0.566300	0.100110	0.273710
S501	S50	0.555120	0.949150	0.259820
C2211	C221	0.686400	0.998400	0.306200
C2221	C222	0.704900	0.975900	0.270900
C2231	C223	0.683700	0.991100	0.281600
C2241	C224	0.701500	0.016700	0.293400
C2251	C225	0.994900	0.520400	0.291000
C2261	C226	0.969900	0.516700	0.276700
C2271	C227	0.943100	0.511300	0.287500
C2281	C228	0.941500	0.507300	0.313100
C2291	C229	0.965100	0.509900	0.328000
C2301	C230	0.991200	0.517700	0.317000
C2311	C231	0.268400	0.509600	0.434400
C2321	C232	0.267300	0.495800	0.456800
C2331	C233	0.261300	0.467900	0.456900
C2341	C234	0.257500	0.454500	0.436700
C2351	C235	0.259200	0.469400	0.415200
C2361	C236	0.265400	0.495800	0.414100
C2371	C237	0.161700	0.495600	0.450800
C2381	C238	0.135200	0.485300	0.453300
C2391	C239	0.126100	0.460400	0.466500
C2401	C240	0.148100	0.449800	0.478900
C2411	C241	0.177300	0.456200	0.475400
C2421	C242	0.183900	0.477200	0.460500
C2431	C243	0.978900	0.597100	0.308200
C2441	C244	0.956000	0.579800	0.302500
C2451	C245	0.935300	0.588700	0.285200
C2461	C246	0.936400	0.615000	0.273500
C2471	C247	0.960000	0.630900	0.279000
C2481	C248	0.981300	0.621700	0.297400
C2491	C249	0.006700	0.514600	0.387400
C2501	C250	0.009700	0.490000	0.381500
C2511	C251	0.986700	0.472000	0.391800
C2521	C252	0.964800	0.483200	0.408500
C2531	C253	0.959700	0.510700	0.408900
C2541	C254	0.981600	0.526400	0.394000
C2551	C255	0.990300	0.563400	0.448700
C2561	C256	0.005600	0.544700	0.458400
C2571	C257	0.994400	0.525900	0.473700
C2581	C258	0.965000	0.527900	0.482900
C2591	C259	0.946400	0.546500	0.472300
C2601	C260	0.960300	0.565500	0.454100
C2611	C261	0.044600	0.584600	0.503000
C2621	C262	0.058400	0.562100	0.508400
C2631	C263	0.046600	0.543600	0.523600
C2641	C264	0.019600	0.548700	0.535400
C2651	C265	0.007500	0.571900	0.530700
C2661	C266	0.016900	0.586000	0.513000
C2671	C267	0.094100	0.476000	0.401600
C2681	C268	0.072500	0.484200	0.417000
C2691	C269	0.055600	0.466400	0.433500
C2701	C270	0.063700	0.438000	0.431100
C2711	C271	0.089400	0.431400	0.414200
C2721	C272	0.102700	0.450600	0.397500
C2731	C273	0.084700	0.452700	0.331800
C2741	C274	0.072000	0.428300	0.338300
C2751	C275	0.094000	0.410900	0.343400
C2761	C276	0.121900	0.413800	0.336100
C2771	C277	0.132800	0.436400	0.332000
C2781	C278	0.112600	0.459100	0.328700
C2791	C279	0.036640	0.612830	0.253440
C2801	C280	0.030300	0.639160	0.253500
C2811	C281	0.008100	0.648670	0.238580
C2821	C282	0.992300	0.631800	0.223590
C2831	C283	0.998700	0.605500	0.223530
C2841	C284	0.020820	0.596000	0.238450
C2851	C285	0.108500	0.515310	0.240000
C2861	C286	0.091300	0.536780	0.235100
C2871	C287	0.087200	0.545090	0.210630
C2881	C288	0.100300	0.531900	0.191000
C2891	C289	0.117500	0.510500	0.195800
C2901	C290	0.121700	0.502200	0.220300
C2911	C291	0.175000	0.561390	0.253900
C2921	C292	0.172300	0.551150	0.229900
C2931	C293	0.196000	0.539680	0.218400
C2941	C294	0.222300	0.538440	0.230800
C2951	C295	0.225000	0.548670	0.254700
C2961	C296	0.201300	0.560150	0.266300
C2971	C297	0.956100	0.648200	0.371700
C2981	C298	0.958600	0.626900	0.355900
C2991	C299	0.935800	0.620200	0.340300
C3001	C300	0.910700	0.634900	0.340300
C3011	C301	0.908200	0.656200	0.356100
C3021	C302	0.931000	0.662900	0.371700
C3031	C303	0.133700	0.551700	0.510400
C3041	C304	0.124400	0.529300	0.498300
C3051	C305	0.115000	0.507200	0.515400
C3061	C306	0.117100	0.508500	0.540800
C3071	C307	0.126100	0.531000	0.550500
C3081	C308	0.137000	0.552600	0.535400
C3091	C309	0.223500	0.560600	0.522400
C3101	C310	0.235700	0.549000	0.542800
C3111	C311	0.235300	0.562300	0.567200
C3121	C312	0.224300	0.588600	0.569000
C3131	C313	0.215300	0.601700	0.545200
C3141	C314	0.213700	0.586500	0.523900
C3151	C315	0.250200	0.529000	0.352900
C3161	C316	0.259000	0.503800	0.347700
C3171	C317	0.281500	0.499400	0.331000
C3181	C318	0.295200	0.520200	0.319600
C3191	C319	0.286400	0.545400	0.324800
C3201	C320	0.264000	0.549800	0.341500
C3211	C321	0.303300	0.619700	0.466500
C3221	C322	0.325500	0.629100	0.483000
C3231	C323	0.354200	0.635500	0.474000
C3241	C324	0.358900	0.635200	0.445800
C3251	C325	0.335300	0.624500	0.428100
C3261	C326	0.308500	0.617500	0.440400
C3271	C327	0.088800	0.440100	0.247100
C3281	C328	0.094700	0.444500	0.220400
C3291	C329	0.122800	0.437100	0.211700
C3301	C330	0.143200	0.428700	0.227400
C3311	C331	0.137600	0.423400	0.253700
C3321	C332	0.109700	0.430400	0.264300
Cd331	Cd33	0.106410	0.589800	0.354000
Cd341	Cd34	0.049250	0.567880	0.408000
Cd351	Cd35	0.164140	0.607930	0.406740
Cd361	Cd36	0.102450	0.588390	0.460000
Cd371	Cd37	0.126750	0.536990	0.410430
Cd381	Cd38	0.026570	0.624680	0.352910
Cd391	Cd39	0.167880	0.610630	0.299570
Cd401	Cd40	0.183060	0.559380	0.465970
Cd411	Cd41	0.229960	0.627620	0.452550
Cd421	Cd42	0.043190	0.567780	0.303590
Cd431	Cd43	0.126190	0.542900	0.294710
Cd441	Cd44	0.184580	0.557290	0.349550
Cd451	Cd45	0.239660	0.565080	0.405760
Cd461	Cd46	0.075890	0.514960	0.353970
S511	S51	0.145990	0.571060	0.380300
S521	S52	0.087840	0.553450	0.326620
S531	S53	0.065710	0.605810	0.380700
S541	S54	0.085470	0.549800	0.437160
S551	S55	0.204460	0.589430	0.433150
S561	S56	0.114390	0.498230	0.382510
S571	S57	0.207610	0.591030	0.323580
S581	S58	0.059870	0.609140	0.482790
S591	S59	0.142970	0.579060	0.491660
S601	S60	0.171570	0.523540	0.435240
S611	S61	0.002280	0.585330	0.426690
S621	S62	0.032320	0.536380	0.373860
Cd471	Cd47	0.268650	0.560450	0.475960
Cd481	Cd48	0.061250	0.492110	0.281980
S631	S63	0.222360	0.542370	0.494630
S641	S64	0.026410	0.529760	0.276310
S651	S65	0.159980	0.520630	0.325420
S661	S66	0.003590	0.585950	0.330510
S671	S67	0.992240	0.642710	0.386320
S681	S68	0.270420	0.610070	0.478490
S691	S69	0.111260	0.504790	0.268250
S701	S70	0.222110	0.532360	0.375000
S711	S71	0.057270	0.477710	0.327620
S721	S72	0.143100	0.580500	0.268380
S731	S73	0.277900	0.543210	0.432870
S741	S74	0.066300	0.600110	0.273710
S751	S75	0.055120	0.449150	0.259820
C3331	C333	0.186400	0.498400	0.306200
C3341	C334	0.204900	0.475900	0.270900
C3351	C335	0.183700	0.491100	0.281600
C3361	C336	0.201500	0.516700	0.293400
C3371	C337	0.994900	0.020400	0.791000
C3381	C338	0.969900	0.016700	0.776700
C3391	C339	0.943100	0.011300	0.787500
C3401	C340	0.941500	0.007300	0.813100
C3411	C341	0.965100	0.009900	0.828000
C3421	C342	0.991200	0.017700	0.817000
C3431	C343	0.268400	0.009600	0.934400
C3441	C344	0.267300	0.995800	0.956800
C3451	C345	0.261300	0.967900	0.956900
C3461	C346	0.257500	0.954500	0.936700
C3471	C347	0.259200	0.969400	0.915200
C3481	C348	0.265400	0.995800	0.914100
C3491	C349	0.161700	0.995600	0.950800
C3501	C350	0.135200	0.985300	0.953300
C3511	C351	0.126100	0.960400	0.966500
C3521	C352	0.148100	0.949800	0.978900
C3531	C353	0.177300	0.956200	0.975400
C3541	C354	0.183900	0.977200	0.960500
C3551	C355	0.978900	0.097100	0.808200
C3561	C356	0.956000	0.079800	0.802500
C3571	C357	0.935300	0.088700	0.785200
C3581	C358	0.936400	0.115000	0.773500
C3591	C359	0.960000	0.130900	0.779000
C3601	C360	0.981300	0.121700	0.797400
C3611	C361	0.006700	0.014600	0.887400
C3621	C362	0.009700	0.990000	0.881500
C3631	C363	0.986700	0.972000	0.891800
C3641	C364	0.964800	0.983200	0.908500
C3651	C365	0.959700	0.010700	0.908900
C3661	C366	0.981600	0.026400	0.894000
C3671	C367	0.990300	0.063400	0.948700
C3681	C368	0.005600	0.044700	0.958400
C3691	C369	0.994400	0.025900	0.973700
C3701	C370	0.965000	0.027900	0.982900
C3711	C371	0.946400	0.046500	0.972300
C3721	C372	0.960300	0.065500	0.954100
C3731	C373	0.044600	0.084600	0.003000
C3741	C374	0.058400	0.062100	0.008400
C3751	C375	0.046600	0.043600	0.023600
C3761	C376	0.019600	0.048700	0.035400
C3771	C377	0.007500	0.071900	0.030700
C3781	C378	0.016900	0.086000	0.013000
C3791	C379	0.094100	0.976000	0.901600
C3801	C380	0.072500	0.984200	0.917000
C3811	C381	0.055600	0.966400	0.933500
C3821	C382	0.063700	0.938000	0.931100
C3831	C383	0.089400	0.931400	0.914200
C3841	C384	0.102700	0.950600	0.897500
C3851	C385	0.084700	0.952700	0.831800
C3861	C386	0.072000	0.928300	0.838300
C3871	C387	0.094000	0.910900	0.843400
C3881	C388	0.121900	0.913800	0.836100
C3891	C389	0.132800	0.936400	0.832000
C3901	C390	0.112600	0.959100	0.828700
C3911	C391	0.036640	0.112830	0.753440
C3921	C392	0.030300	0.139160	0.753500
C3931	C393	0.008100	0.148670	0.738580
C3941	C394	0.992300	0.131800	0.723590
C3951	C395	0.998700	0.105500	0.723530
C3961	C396	0.020820	0.096000	0.738450
C3971	C397	0.108500	0.015310	0.740000
C3981	C398	0.091300	0.036780	0.735100
C3991	C399	0.087200	0.045090	0.710630
C4001	C400	0.100300	0.031900	0.691000
C4011	C401	0.117500	0.010500	0.695800
C4021	C402	0.121700	0.002200	0.720300
C4031	C403	0.175000	0.061390	0.753900
C4041	C404	0.172300	0.051150	0.729900
C4051	C405	0.196000	0.039680	0.718400
C4061	C406	0.222300	0.038440	0.730800
C4071	C407	0.225000	0.048670	0.754700
C4081	C408	0.201300	0.060150	0.766300
C4091	C409	0.956100	0.148200	0.871700
C4101	C410	0.958600	0.126900	0.855900
C4111	C411	0.935800	0.120200	0.840300
C4121	C412	0.910700	0.134900	0.840300
C4131	C413	0.908200	0.156200	0.856100
C4141	C414	0.931000	0.162900	0.871700
C4151	C415	0.133700	0.051700	0.010400
C4161	C416	0.124400	0.029300	0.998300
C4171	C417	0.115000	0.007200	0.015400
C4181	C418	0.117100	0.008500	0.040800
C4191	C419	0.126100	0.031000	0.050500
C4201	C420	0.137000	0.052600	0.035400
C4211	C421	0.223500	0.060600	0.022400
C4221	C422	0.235700	0.049000	0.042800
C4231	C423	0.235300	0.062300	0.067200
C4241	C424	0.224300	0.088600	0.069000
C4251	C425	0.215300	0.101700	0.045200
C4261	C426	0.213700	0.086500	0.023900
C4271	C427	0.250200	0.029000	0.852900
C4281	C428	0.259000	0.003800	0.847700
C4291	C429	0.281500	0.999400	0.831000
C4301	C430	0.295200	0.020200	0.819600
C4311	C431	0.286400	0.045400	0.824800
C4321	C432	0.264000	0.049800	0.841500
C4331	C433	0.303300	0.119700	0.966500
C4341	C434	0.325500	0.129100	0.983000
C4351	C435	0.354200	0.135500	0.974000
C4361	C436	0.358900	0.135200	0.945800
C4371	C437	0.335300	0.124500	0.928100
C4381	C438	0.308500	0.117500	0.940400
C4391	C439	0.088800	0.940100	0.747100
C4401	C440	0.094700	0.944500	0.720400
C4411	C441	0.122800	0.937100	0.711700
C4421	C442	0.143200	0.928700	0.727400
C4431	C443	0.137600	0.923400	0.753700
C4441	C444	0.109700	0.930400	0.764300
Cd491	Cd49	0.106410	0.089800	0.854000
Cd501	Cd50	0.049250	0.067880	0.908000
Cd511	Cd51	0.164140	0.107930	0.906740
Cd521	Cd52	0.102450	0.088390	0.960000
Cd531	Cd53	0.126750	0.036990	0.910430
Cd541	Cd54	0.026570	0.124680	0.852910
Cd551	Cd55	0.167880	0.110630	0.799570
Cd561	Cd56	0.183060	0.059380	0.965970
Cd571	Cd57	0.229960	0.127620	0.952550
Cd581	Cd58	0.043190	0.067780	0.803590
Cd591	Cd59	0.126190	0.042900	0.794710
Cd601	Cd60	0.184580	0.057290	0.849550
Cd611	Cd61	0.239660	0.065080	0.905760
Cd621	Cd62	0.075890	0.014960	0.853970
S761	S76	0.145990	0.071060	0.880300
S771	S77	0.087840	0.053450	0.826620
S781	S78	0.065710	0.105810	0.880700
S791	S79	0.085470	0.049800	0.937160
S801	S80	0.204460	0.089430	0.933150
S811	S81	0.114390	0.998230	0.882510
S821	S82	0.207610	0.091030	0.823580
S831	S83	0.059870	0.109140	0.982790
S841	S84	0.142970	0.079060	0.991660
S851	S85	0.171570	0.023540	0.935240
S861	S86	0.002280	0.085330	0.926690
S871	S87	0.032320	0.036380	0.873860
Cd631	Cd63	0.268650	0.060450	0.975960
Cd641	Cd64	0.061250	0.992110	0.781980
S881	S88	0.222360	0.042370	0.994630
S891	S89	0.026410	0.029760	0.776310
S901	S90	0.159980	0.020630	0.825420
S911	S91	0.003590	0.085950	0.830510
S921	S92	0.992240	0.142710	0.886320
S931	S93	0.270420	0.110070	0.978490
S941	S94	0.111260	0.004790	0.768250
S951	S95	0.222110	0.032360	0.875000
S961	S96	0.057270	0.977710	0.827620
S971	S97	0.143100	0.080500	0.768380
S981	S98	0.277900	0.043210	0.932870
S991	S99	0.066300	0.100110	0.773710
S1001	S100	0.055120	0.949150	0.759820
C4451	C445	0.186400	0.998400	0.806200
C4461	C446	0.204900	0.975900	0.770900
C4471	C447	0.183700	0.991100	0.781600
C4481	C448	0.201500	0.016700	0.793400
C4491	C449	0.255100	0.229600	0.791000
C4501	C450	0.280100	0.233300	0.776700
C4511	C451	0.306900	0.238700	0.787500
C4521	C452	0.308500	0.242700	0.813100
C4531	C453	0.284900	0.240100	0.828000
C4541	C454	0.258800	0.232300	0.817000
C4551	C455	0.981600	0.240400	0.934400
C4561	C456	0.982700	0.254200	0.956800
C4571	C457	0.988700	0.282100	0.956900
C4581	C458	0.992500	0.295500	0.936700
C4591	C459	0.990800	0.280600	0.915200
C4601	C460	0.984600	0.254200	0.914100
C4611	C461	0.088300	0.254400	0.950800
C4621	C462	0.114800	0.264700	0.953300
C4631	C463	0.123900	0.289600	0.966500
C4641	C464	0.101900	0.300200	0.978900
C4651	C465	0.072700	0.293800	0.975400
C4661	C466	0.066100	0.272800	0.960500
C4671	C467	0.271100	0.152900	0.808200
C4681	C468	0.294000	0.170200	0.802500
C4691	C469	0.314700	0.161300	0.785200
C4701	C470	0.313600	0.135000	0.773500
C4711	C471	0.290000	0.119100	0.779000
C4721	C472	0.268700	0.128300	0.797400
C4731	C473	0.243300	0.235400	0.887400
C4741	C474	0.240300	0.260000	0.881500
C4751	C475	0.263300	0.278000	0.891800
C4761	C476	0.285200	0.266800	0.908500
C4771	C477	0.290300	0.239300	0.908900
C4781	C478	0.268400	0.223600	0.894000
C4791	C479	0.259700	0.186600	0.948700
C4801	C480	0.244400	0.205300	0.958400
C4811	C481	0.255600	0.224100	0.973700
C4821	C482	0.285000	0.222100	0.982900
C4831	C483	0.303600	0.203500	0.972300
C4841	C484	0.289700	0.184500	0.954100
C4851	C485	0.205400	0.165400	0.003000
C4861	C486	0.191600	0.187900	0.008400
C4871	C487	0.203400	0.206400	0.023600
C4881	C488	0.230400	0.201300	0.035400
C4891	C489	0.242500	0.178100	0.030700
C4901	C490	0.233100	0.164000	0.013000
C4911	C491	0.155900	0.274000	0.901600
C4921	C492	0.177500	0.265800	0.917000
C4931	C493	0.194400	0.283600	0.933500
C4941	C494	0.186300	0.312000	0.931100
C4951	C495	0.160600	0.318600	0.914200
C4961	C496	0.147300	0.299400	0.897500
C4971	C497	0.165300	0.297300	0.831800
C4981	C498	0.178000	0.321700	0.838300
C4991	C499	0.156000	0.339100	0.843400
C5001	C500	0.128100	0.336200	0.836100
C5011	C501	0.117200	0.313600	0.832000
C5021	C502	0.137400	0.290900	0.828700
C5031	C503	0.213360	0.137170	0.753440
C5041	C504	0.219700	0.110840	0.753500
C5051	C505	0.241900	0.101330	0.738580
C5061	C506	0.257700	0.118200	0.723590
C5071	C507	0.251300	0.144500	0.723530
C5081	C508	0.229180	0.154000	0.738450
C5091	C509	0.141500	0.234690	0.740000
C5101	C510	0.158700	0.213220	0.735100
C5111	C511	0.162800	0.204910	0.710630
C5121	C512	0.149700	0.218100	0.691000
C5131	C513	0.132500	0.239500	0.695800
C5141	C514	0.128300	0.247800	0.720300
C5151	C515	0.075000	0.188610	0.753900
C5161	C516	0.077700	0.198850	0.729900
C5171	C517	0.054000	0.210320	0.718400
C5181	C518	0.027700	0.211560	0.730800
C5191	C519	0.025000	0.201330	0.754700
C5201	C520	0.048700	0.189850	0.766300
C5211	C521	0.293900	0.101800	0.871700
C5221	C522	0.291400	0.123100	0.855900
C5231	C523	0.314200	0.129800	0.840300
C5241	C524	0.339300	0.115100	0.840300
C5251	C525	0.341800	0.093800	0.856100
C5261	C526	0.319000	0.087100	0.871700
C5271	C527	0.116300	0.198300	0.010400
C5281	C528	0.125600	0.220700	0.998300
C5291	C529	0.135000	0.242800	0.015400
C5301	C530	0.132900	0.241500	0.040800
C5311	C531	0.123900	0.219000	0.050500
C5321	C532	0.113000	0.197400	0.035400
C5331	C533	0.026500	0.189400	0.022400
C5341	C534	0.014300	0.201000	0.042800
C5351	C535	0.014700	0.187700	0.067200
C5361	C536	0.025700	0.161400	0.069000
C5371	C537	0.034700	0.148300	0.045200
C5381	C538	0.036300	0.163500	0.023900
C5391	C539	0.999800	0.221000	0.852900
C5401	C540	0.991000	0.246200	0.847700
C5411	C541	0.968500	0.250600	0.831000
C5421	C542	0.954800	0.229800	0.819600
C5431	C543	0.963600	0.204600	0.824800
C5441	C544	0.986000	0.200200	0.841500
C5451	C545	0.946700	0.130300	0.966500
C5461	C546	0.924500	0.120900	0.983000
C5471	C547	0.895800	0.114500	0.974000
C5481	C548	0.891100	0.114800	0.945800
C5491	C549	0.914700	0.125500	0.928100
C5501	C550	0.941500	0.132500	0.940400
C5511	C551	0.161200	0.309900	0.747100
C5521	C552	0.155300	0.305500	0.720400
C5531	C553	0.127200	0.312900	0.711700
C5541	C554	0.106800	0.321300	0.727400
C5551	C555	0.112400	0.326600	0.753700
C5561	C556	0.140300	0.319600	0.764300
Cd651	Cd65	0.143590	0.160200	0.854000
Cd661	Cd66	0.200750	0.182120	0.908000
Cd671	Cd67	0.085860	0.142070	0.906740
Cd681	Cd68	0.147550	0.161610	0.960000
Cd691	Cd69	0.123250	0.213010	0.910430
Cd701	Cd70	0.223430	0.125320	0.852910
Cd711	Cd71	0.082120	0.139370	0.799570
Cd721	Cd72	0.066940	0.190620	0.965970
Cd731	Cd73	0.020040	0.122380	0.952550
Cd741	Cd74	0.206810	0.182220	0.803590
Cd751	Cd75	0.123810	0.207100	0.794710
Cd761	Cd76	0.065420	0.192710	0.849550
Cd771	Cd77	0.010340	0.184920	0.905760
Cd781	Cd78	0.174110	0.235040	0.853970
S1011	S101	0.104010	0.178940	0.880300
S1021	S102	0.162160	0.196550	0.826620
S1031	S103	0.184290	0.144190	0.880700
S1041	S104	0.164530	0.200200	0.937160
S1051	S105	0.045540	0.160570	0.933150
S1061	S106	0.135610	0.251770	0.882510
S1071	S107	0.042390	0.158970	0.823580
S1081	S108	0.190130	0.140860	0.982790
S1091	S109	0.107030	0.170940	0.991660
S1101	S110	0.078430	0.226460	0.935240
S1111	S111	0.247720	0.164670	0.926690
S1121	S112	0.217680	0.213620	0.873860
Cd791	Cd79	0.981350	0.189550	0.975960
Cd801	Cd80	0.188750	0.257890	0.781980
S1131	S113	0.027640	0.207630	0.994630
S1141	S114	0.223590	0.220240	0.776310
S1151	S115	0.090020	0.229370	0.825420
S1161	S116	0.246410	0.164050	0.830510
S1171	S117	0.257760	0.107290	0.886320
S1181	S118	0.979580	0.139930	0.978490
S1191	S119	0.138740	0.245210	0.768250
S1201	S120	0.027890	0.217640	0.875000
S1211	S121	0.192730	0.272290	0.827620
S1221	S122	0.106900	0.169500	0.768380
S1231	S123	0.972100	0.206790	0.932870
S1241	S124	0.183700	0.149890	0.773710
S1251	S125	0.194880	0.300850	0.759820
C5571	C557	0.063600	0.251600	0.806200
C5581	C558	0.045100	0.274100	0.770900
C5591	C559	0.066300	0.258900	0.781600
C5601	C560	0.048500	0.233300	0.793400
C5611	C561	0.255100	0.729600	0.291000
C5621	C562	0.280100	0.733300	0.276700
C5631	C563	0.306900	0.738700	0.287500
C5641	C564	0.308500	0.742700	0.313100
C5651	C565	0.284900	0.740100	0.328000
C5661	C566	0.258800	0.732300	0.317000
C5671	C567	0.981600	0.740400	0.434400
C5681	C568	0.982700	0.754200	0.456800
C5691	C569	0.988700	0.782100	0.456900
C5701	C570	0.992500	0.795500	0.436700
C5711	C571	0.990800	0.780600	0.415200
C5721	C572	0.984600	0.754200	0.414100
C5731	C573	0.088300	0.754400	0.450800
C5741	C574	0.114800	0.764700	0.453300
C5751	C575	0.123900	0.789600	0.466500
C5761	C576	0.101900	0.800200	0.478900
C5771	C577	0.072700	0.793800	0.475400
C5781	C578	0.066100	0.772800	0.460500
C5791	C579	0.271100	0.652900	0.308200
C5801	C580	0.294000	0.670200	0.302500
C5811	C581	0.314700	0.661300	0.285200
C5821	C582	0.313600	0.635000	0.273500
C5831	C583	0.290000	0.619100	0.279000
C5841	C584	0.268700	0.628300	0.297400
C5851	C585	0.243300	0.735400	0.387400
C5861	C586	0.240300	0.760000	0.381500
C5871	C587	0.263300	0.778000	0.391800
C5881	C588	0.285200	0.766800	0.408500
C5891	C589	0.290300	0.739300	0.408900
C5901	C590	0.268400	0.723600	0.394000
C5911	C591	0.259700	0.686600	0.448700
C5921	C592	0.244400	0.705300	0.458400
C5931	C593	0.255600	0.724100	0.473700
C5941	C594	0.285000	0.722100	0.482900
C5951	C595	0.303600	0.703500	0.472300
C5961	C596	0.289700	0.684500	0.454100
C5971	C597	0.205400	0.665400	0.503000
C5981	C598	0.191600	0.687900	0.508400
C5991	C599	0.203400	0.706400	0.523600
C6001	C600	0.230400	0.701300	0.535400
C6011	C601	0.242500	0.678100	0.530700
C6021	C602	0.233100	0.664000	0.513000
C6031	C603	0.155900	0.774000	0.401600
C6041	C604	0.177500	0.765800	0.417000
C6051	C605	0.194400	0.783600	0.433500
C6061	C606	0.186300	0.812000	0.431100
C6071	C607	0.160600	0.818600	0.414200
C6081	C608	0.147300	0.799400	0.397500
C6091	C609	0.165300	0.797300	0.331800
C6101	C610	0.178000	0.821700	0.338300
C6111	C611	0.156000	0.839100	0.343400
C6121	C612	0.128100	0.836200	0.336100
C6131	C613	0.117200	0.813600	0.332000
C6141	C614	0.137400	0.790900	0.328700
C6151	C615	0.213360	0.637170	0.253440
C6161	C616	0.219700	0.610840	0.253500
C6171	C617	0.241900	0.601330	0.238580
C6181	C618	0.257700	0.618200	0.223590
C6191	C619	0.251300	0.644500	0.223530
C6201	C620	0.229180	0.654000	0.238450
C6211	C621	0.141500	0.734690	0.240000
C6221	C622	0.158700	0.713220	0.235100
C6231	C623	0.162800	0.704910	0.210630
C6241	C624	0.149700	0.718100	0.191000
C6251	C625	0.132500	0.739500	0.195800
C6261	C626	0.128300	0.747800	0.220300
C6271	C627	0.075000	0.688610	0.253900
C6281	C628	0.077700	0.698850	0.229900
C6291	C629	0.054000	0.710320	0.218400
C6301	C630	0.027700	0.711560	0.230800
C6311	C631	0.025000	0.701330	0.254700
C6321	C632	0.048700	0.689850	0.266300
C6331	C633	0.293900	0.601800	0.371700
C6341	C634	0.291400	0.623100	0.355900
C6351	C635	0.314200	0.629800	0.340300
C6361	C636	0.339300	0.615100	0.340300
C6371	C637	0.341800	0.593800	0.356100
C6381	C638	0.319000	0.587100	0.371700
C6391	C639	0.116300	0.698300	0.510400
C6401	C640	0.125600	0.720700	0.498300
C6411	C641	0.135000	0.742800	0.515400
C6421	C642	0.132900	0.741500	0.540800
C6431	C643	0.123900	0.719000	0.550500
C6441	C644	0.113000	0.697400	0.535400
C6451	C645	0.026500	0.689400	0.522400
C6461	C646	0.014300	0.701000	0.542800
C6471	C647	0.014700	0.687700	0.567200
C6481	C648	0.025700	0.661400	0.569000
C6491	C649	0.034700	0.648300	0.545200
C6501	C650	0.036300	0.663500	0.523900
C6511	C651	0.999800	0.721000	0.352900
C6521	C652	0.991000	0.746200	0.347700
C6531	C653	0.968500	0.750600	0.331000
C6541	C654	0.954800	0.729800	0.319600
C6551	C655	0.963600	0.704600	0.324800
C6561	C656	0.986000	0.700200	0.341500
C6571	C657	0.946700	0.630300	0.466500
C6581	C658	0.924500	0.620900	0.483000
C6591	C659	0.895800	0.614500	0.474000
C6601	C660	0.891100	0.614800	0.445800
C6611	C661	0.914700	0.625500	0.428100
C6621	C662	0.941500	0.632500	0.440400
C6631	C663	0.161200	0.809900	0.247100
C6641	C664	0.155300	0.805500	0.220400
C6651	C665	0.127200	0.812900	0.211700
C6661	C666	0.106800	0.821300	0.227400
C6671	C667	0.112400	0.826600	0.253700
C6681	C668	0.140300	0.819600	0.264300
Cd811	Cd81	0.143590	0.660200	0.354000
Cd821	Cd82	0.200750	0.682120	0.408000
Cd831	Cd83	0.085860	0.642070	0.406740
Cd841	Cd84	0.147550	0.661610	0.460000
Cd851	Cd85	0.123250	0.713010	0.410430
Cd861	Cd86	0.223430	0.625320	0.352910
Cd871	Cd87	0.082120	0.639370	0.299570
Cd881	Cd88	0.066940	0.690620	0.465970
Cd891	Cd89	0.020040	0.622380	0.452550
Cd901	Cd90	0.206810	0.682220	0.303590
Cd911	Cd91	0.123810	0.707100	0.294710
Cd921	Cd92	0.065420	0.692710	0.349550
Cd931	Cd93	0.010340	0.684920	0.405760
Cd941	Cd94	0.174110	0.735040	0.353970
S1261	S126	0.104010	0.678940	0.380300
S1271	S127	0.162160	0.696550	0.326620
S1281	S128	0.184290	0.644190	0.380700
S1291	S129	0.164530	0.700200	0.437160
S1301	S130	0.045540	0.660570	0.433150
S1311	S131	0.135610	0.751770	0.382510
S1321	S132	0.042390	0.658970	0.323580
S1331	S133	0.190130	0.640860	0.482790
S1341	S134	0.107030	0.670940	0.491660
S1351	S135	0.078430	0.726460	0.435240
S1361	S136	0.247720	0.664670	0.426690
S1371	S137	0.217680	0.713620	0.373860
Cd951	Cd95	0.981350	0.689550	0.475960
Cd961	Cd96	0.188750	0.757890	0.281980
S1381	S138	0.027640	0.707630	0.494630
S1391	S139	0.223590	0.720240	0.276310
S1401	S140	0.090020	0.729370	0.325420
S1411	S141	0.246410	0.664050	0.330510
S1421	S142	0.257760	0.607290	0.386320
S1431	S143	0.979580	0.639930	0.478490
S1441	S144	0.138740	0.745210	0.268250
S1451	S145	0.027890	0.717640	0.375000
S1461	S146	0.192730	0.772290	0.327620
S1471	S147	0.106900	0.669500	0.268380
S1481	S148	0.972100	0.706790	0.432870
S1491	S149	0.183700	0.649890	0.273710
S1501	S150	0.194880	0.800850	0.259820
C6691	C669	0.063600	0.751600	0.306200
C6701	C670	0.045100	0.774100	0.270900
C6711	C671	0.066300	0.758900	0.281600
C6721	C672	0.048500	0.733300	0.293400
C6731	C673	0.755100	0.229600	0.291000
C6741	C674	0.780100	0.233300	0.276700
C6751	C675	0.806900	0.238700	0.287500
C6761	C676	0.808500	0.242700	0.313100
C6771	C677	0.784900	0.240100	0.328000
C6781	C678	0.758800	0.232300	0.317000
C6791	C679	0.481600	0.240400	0.434400
C6801	C680	0.482700	0.254200	0.456800
C6811	C681	0.488700	0.282100	0.456900
C6821	C682	0.492500	0.295500	0.436700
C6831	C683	0.490800	0.280600	0.415200
C6841	C684	0.484600	0.254200	0.414100
C6851	C685	0.588300	0.254400	0.450800
C6861	C686	0.614800	0.264700	0.453300
C6871	C687	0.623900	0.289600	0.466500
C6881	C688	0.601900	0.300200	0.478900
C6891	C689	0.572700	0.293800	0.475400
C6901	C690	0.566100	0.272800	0.460500
C6911	C691	0.771100	0.152900	0.308200
C6921	C692	0.794000	0.170200	0.302500
C6931	C693	0.814700	0.161300	0.285200
C6941	C694	0.813600	0.135000	0.273500
C6951	C695	0.790000	0.119100	0.279000
C6961	C696	0.768700	0.128300	0.297400
C6971	C697	0.743300	0.235400	0.387400
C6981	C698	0.740300	0.260000	0.381500
C6991	C699	0.763300	0.278000	0.391800
C7001	C700	0.785200	0.266800	0.408500
C7011	C701	0.790300	0.239300	0.408900
C7021	C702	0.768400	0.223600	0.394000
C7031	C703	0.759700	0.186600	0.448700
C7041	C704	0.744400	0.205300	0.458400
C7051	C705	0.755600	0.224100	0.473700
C7061	C706	0.785000	0.222100	0.482900
C7071	C707	0.803600	0.203500	0.472300
C7081	C708	0.789700	0.184500	0.454100
C7091	C709	0.705400	0.165400	0.503000
C7101	C710	0.691600	0.187900	0.508400
C7111	C711	0.703400	0.206400	0.523600
C7121	C712	0.730400	0.201300	0.535400
C7131	C713	0.742500	0.178100	0.530700
C7141	C714	0.733100	0.164000	0.513000
C7151	C715	0.655900	0.274000	0.401600
C7161	C716	0.677500	0.265800	0.417000
C7171	C717	0.694400	0.283600	0.433500
C7181	C718	0.686300	0.312000	0.431100
C7191	C719	0.660600	0.318600	0.414200
C7201	C720	0.647300	0.299400	0.397500
C7211	C721	0.665300	0.297300	0.331800
C7221	C722	0.678000	0.321700	0.338300
C7231	C723	0.656000	0.339100	0.343400
C7241	C724	0.628100	0.336200	0.336100
C7251	C725	0.617200	0.313600	0.332000
C7261	C726	0.637400	0.290900	0.328700
C7271	C727	0.713360	0.137170	0.253440
C7281	C728	0.719700	0.110840	0.253500
C7291	C729	0.741900	0.101330	0.238580
C7301	C730	0.757700	0.118200	0.223590
C7311	C731	0.751300	0.144500	0.223530
C7321	C732	0.729180	0.154000	0.238450
C7331	C733	0.641500	0.234690	0.240000
C7341	C734	0.658700	0.213220	0.235100
C7351	C735	0.662800	0.204910	0.210630
C7361	C736	0.649700	0.218100	0.191000
C7371	C737	0.632500	0.239500	0.195800
C7381	C738	0.628300	0.247800	0.220300
C7391	C739	0.575000	0.188610	0.253900
C7401	C740	0.577700	0.198850	0.229900
C7411	C741	0.554000	0.210320	0.218400
C7421	C742	0.527700	0.211560	0.230800
C7431	C743	0.525000	0.201330	0.254700
C7441	C744	0.548700	0.189850	0.266300
C7451	C745	0.793900	0.101800	0.371700
C7461	C746	0.791400	0.123100	0.355900
C7471	C747	0.814200	0.129800	0.340300
C7481	C748	0.839300	0.115100	0.340300
C7491	C749	0.841800	0.093800	0.356100
C7501	C750	0.819000	0.087100	0.371700
C7511	C751	0.616300	0.198300	0.510400
C7521	C752	0.625600	0.220700	0.498300
C7531	C753	0.635000	0.242800	0.515400
C7541	C754	0.632900	0.241500	0.540800
C7551	C755	0.623900	0.219000	0.550500
C7561	C756	0.613000	0.197400	0.535400
C7571	C757	0.526500	0.189400	0.522400
C7581	C758	0.514300	0.201000	0.542800
C7591	C759	0.514700	0.187700	0.567200
C7601	C760	0.525700	0.161400	0.569000
C7611	C761	0.534700	0.148300	0.545200
C7621	C762	0.536300	0.163500	0.523900
C7631	C763	0.499800	0.221000	0.352900
C7641	C764	0.491000	0.246200	0.347700
C7651	C765	0.468500	0.250600	0.331000
C7661	C766	0.454800	0.229800	0.319600
C7671	C767	0.463600	0.204600	0.324800
C7681	C768	0.486000	0.200200	0.341500
C7691	C769	0.446700	0.130300	0.466500
C7701	C770	0.424500	0.120900	0.483000
C7711	C771	0.395800	0.114500	0.474000
C7721	C772	0.391100	0.114800	0.445800
C7731	C773	0.414700	0.125500	0.428100
C7741	C774	0.441500	0.132500	0.440400
C7751	C775	0.661200	0.309900	0.247100
C7761	C776	0.655300	0.305500	0.220400
C7771	C777	0.627200	0.312900	0.211700
C7781	C778	0.606800	0.321300	0.227400
C7791	C779	0.612400	0.326600	0.253700
C7801	C780	0.640300	0.319600	0.264300
Cd971	Cd97	0.643590	0.160200	0.354000
Cd981	Cd98	0.700750	0.182120	0.408000
Cd991	Cd99	0.585860	0.142070	0.406740
Cd1001	Cd100	0.647550	0.161610	0.460000
Cd1011	Cd101	0.623250	0.213010	0.410430
Cd1021	Cd102	0.723430	0.125320	0.352910
Cd1031	Cd103	0.582120	0.139370	0.299570
Cd1041	Cd104	0.566940	0.190620	0.465970
Cd1051	Cd105	0.520040	0.122380	0.452550
Cd1061	Cd106	0.706810	0.182220	0.303590
Cd1071	Cd107	0.623810	0.207100	0.294710
Cd1081	Cd108	0.565420	0.192710	0.349550
Cd1091	Cd109	0.510340	0.184920	0.405760
Cd1101	Cd110	0.674110	0.235040	0.353970
S1511	S151	0.604010	0.178940	0.380300
S1521	S152	0.662160	0.196550	0.326620
S1531	S153	0.684290	0.144190	0.380700
S1541	S154	0.664530	0.200200	0.437160
S1551	S155	0.545540	0.160570	0.433150
S1561	S156	0.635610	0.251770	0.382510
S1571	S157	0.542390	0.158970	0.323580
S1581	S158	0.690130	0.140860	0.482790
S1591	S159	0.607030	0.170940	0.491660
S1601	S160	0.578430	0.226460	0.435240
S1611	S161	0.747720	0.164670	0.426690
S1621	S162	0.717680	0.213620	0.373860
Cd1111	Cd111	0.481350	0.189550	0.475960
Cd1121	Cd112	0.688750	0.257890	0.281980
S1631	S163	0.527640	0.207630	0.494630
S1641	S164	0.723590	0.220240	0.276310
S1651	S165	0.590020	0.229370	0.325420
S1661	S166	0.746410	0.164050	0.330510
S1671	S167	0.757760	0.107290	0.386320
S1681	S168	0.479580	0.139930	0.478490
S1691	S169	0.638740	0.245210	0.268250
S1701	S170	0.527890	0.217640	0.375000
S1711	S171	0.692730	0.272290	0.327620
S1721	S172	0.606900	0.169500	0.268380
S1731	S173	0.472100	0.206790	0.432870
S1741	S174	0.683700	0.149890	0.273710
S1751	S175	0.694880	0.300850	0.259820
C7811	C781	0.563600	0.251600	0.306200
C7821	C782	0.545100	0.274100	0.270900
C7831	C783	0.566300	0.258900	0.281600
C7841	C784	0.548500	0.233300	0.293400
C7851	C785	0.755100	0.729600	0.791000
C7861	C786	0.780100	0.733300	0.776700
C7871	C787	0.806900	0.738700	0.787500
C7881	C788	0.808500	0.742700	0.813100
C7891	C789	0.784900	0.740100	0.828000
C7901	C790	0.758800	0.732300	0.817000
C7911	C791	0.481600	0.740400	0.934400
C7921	C792	0.482700	0.754200	0.956800
C7931	C793	0.488700	0.782100	0.956900
C7941	C794	0.492500	0.795500	0.936700
C7951	C795	0.490800	0.780600	0.915200
C7961	C796	0.484600	0.754200	0.914100
C7971	C797	0.588300	0.754400	0.950800
C7981	C798	0.614800	0.764700	0.953300
C7991	C799	0.623900	0.789600	0.966500
C8001	C800	0.601900	0.800200	0.978900
C8011	C801	0.572700	0.793800	0.975400
C8021	C802	0.566100	0.772800	0.960500
C8031	C803	0.771100	0.652900	0.808200
C8041	C804	0.794000	0.670200	0.802500
C8051	C805	0.814700	0.661300	0.785200
C8061	C806	0.813600	0.635000	0.773500
C8071	C807	0.790000	0.619100	0.779000
C8081	C808	0.768700	0.628300	0.797400
C8091	C809	0.743300	0.735400	0.887400
C8101	C810	0.740300	0.760000	0.881500
C8111	C811	0.763300	0.778000	0.891800
C8121	C812	0.785200	0.766800	0.908500
C8131	C813	0.790300	0.739300	0.908900
C8141	C814	0.768400	0.723600	0.894000
C8151	C815	0.759700	0.686600	0.948700
C8161	C816	0.744400	0.705300	0.958400
C8171	C817	0.755600	0.724100	0.973700
C8181	C818	0.785000	0.722100	0.982900
C8191	C819	0.803600	0.703500	0.972300
C8201	C820	0.789700	0.684500	0.954100
C8211	C821	0.705400	0.665400	0.003000
C8221	C822	0.691600	0.687900	0.008400
C8231	C823	0.703400	0.706400	0.023600
C8241	C824	0.730400	0.701300	0.035400
C8251	C825	0.742500	0.678100	0.030700
C8261	C826	0.733100	0.664000	0.013000
C8271	C827	0.655900	0.774000	0.901600
C8281	C828	0.677500	0.765800	0.917000
C8291	C829	0.694400	0.783600	0.933500
C8301	C830	0.686300	0.812000	0.931100
C8311	C831	0.660600	0.818600	0.914200
C8321	C832	0.647300	0.799400	0.897500
C8331	C833	0.665300	0.797300	0.831800
C8341	C834	0.678000	0.821700	0.838300
C8351	C835	0.656000	0.839100	0.843400
C8361	C836	0.628100	0.836200	0.836100
C8371	C837	0.617200	0.813600	0.832000
C8381	C838	0.637400	0.790900	0.828700
C8391	C839	0.713360	0.637170	0.753440
C8401	C840	0.719700	0.610840	0.753500
C8411	C841	0.741900	0.601330	0.738580
C8421	C842	0.757700	0.618200	0.723590
C8431	C843	0.751300	0.644500	0.723530
C8441	C844	0.729180	0.654000	0.738450
C8451	C845	0.641500	0.734690	0.740000
C8461	C846	0.658700	0.713220	0.735100
C8471	C847	0.662800	0.704910	0.710630
C8481	C848	0.649700	0.718100	0.691000
C8491	C849	0.632500	0.739500	0.695800
C8501	C850	0.628300	0.747800	0.720300
C8511	C851	0.575000	0.688610	0.753900
C8521	C852	0.577700	0.698850	0.729900
C8531	C853	0.554000	0.710320	0.718400
C8541	C854	0.527700	0.711560	0.730800
C8551	C855	0.525000	0.701330	0.754700
C8561	C856	0.548700	0.689850	0.766300
C8571	C857	0.793900	0.601800	0.871700
C8581	C858	0.791400	0.623100	0.855900
C8591	C859	0.814200	0.629800	0.840300
C8601	C860	0.839300	0.615100	0.840300
C8611	C861	0.841800	0.593800	0.856100
C8621	C862	0.819000	0.587100	0.871700
C8631	C863	0.616300	0.698300	0.010400
C8641	C864	0.625600	0.720700	0.998300
C8651	C865	0.635000	0.742800	0.015400
C8661	C866	0.632900	0.741500	0.040800
C8671	C867	0.623900	0.719000	0.050500
C8681	C868	0.613000	0.697400	0.035400
C8691	C869	0.526500	0.689400	0.022400
C8701	C870	0.514300	0.701000	0.042800
C8711	C871	0.514700	0.687700	0.067200
C8721	C872	0.525700	0.661400	0.069000
C8731	C873	0.534700	0.648300	0.045200
C8741	C874	0.536300	0.663500	0.023900
C8751	C875	0.499800	0.721000	0.852900
C8761	C876	0.491000	0.746200	0.847700
C8771	C877	0.468500	0.750600	0.831000
C8781	C878	0.454800	0.729800	0.819600
C8791	C879	0.463600	0.704600	0.824800
C8801	C880	0.486000	0.700200	0.841500
C8811	C881	0.446700	0.630300	0.966500
C8821	C882	0.424500	0.620900	0.983000
C8831	C883	0.395800	0.614500	0.974000
C8841	C884	0.391100	0.614800	0.945800
C8851	C885	0.414700	0.625500	0.928100
C8861	C886	0.441500	0.632500	0.940400
C8871	C887	0.661200	0.809900	0.747100
C8881	C888	0.655300	0.805500	0.720400
C8891	C889	0.627200	0.812900	0.711700
C8901	C890	0.606800	0.821300	0.727400
C8911	C891	0.612400	0.826600	0.753700
C8921	C892	0.640300	0.819600	0.764300
Cd1131	Cd113	0.643590	0.660200	0.854000
Cd1141	Cd114	0.700750	0.682120	0.908000
Cd1151	Cd115	0.585860	0.642070	0.906740
Cd1161	Cd116	0.647550	0.661610	0.960000
Cd1171	Cd117	0.623250	0.713010	0.910430
Cd1181	Cd118	0.723430	0.625320	0.852910
Cd1191	Cd119	0.582120	0.639370	0.799570
Cd1201	Cd120	0.566940	0.690620	0.965970
Cd1211	Cd121	0.520040	0.622380	0.952550
Cd1221	Cd122	0.706810	0.682220	0.803590
Cd1231	Cd123	0.623810	0.707100	0.794710
Cd1241	Cd124	0.565420	0.692710	0.849550
Cd1251	Cd125	0.510340	0.684920	0.905760
Cd1261	Cd126	0.674110	0.735040	0.853970
S1761	S176	0.604010	0.678940	0.880300
S1771	S177	0.662160	0.696550	0.826620
S1781	S178	0.684290	0.644190	0.880700
S1791	S179	0.664530	0.700200	0.937160
S1801	S180	0.545540	0.660570	0.933150
S1811	S181	0.635610	0.751770	0.882510
S1821	S182	0.542390	0.658970	0.823580
S1831	S183	0.690130	0.640860	0.982790
S1841	S184	0.607030	0.670940	0.991660
S1851	S185	0.578430	0.726460	0.935240
S1861	S186	0.747720	0.664670	0.926690
S1871	S187	0.717680	0.713620	0.873860
Cd1271	Cd127	0.481350	0.689550	0.975960
Cd1281	Cd128	0.688750	0.757890	0.781980
S1881	S188	0.527640	0.707630	0.994630
S1891	S189	0.723590	0.720240	0.776310
S1901	S190	0.590020	0.729370	0.825420
S1911	S191	0.746410	0.664050	0.830510
S1921	S192	0.757760	0.607290	0.886320
S1931	S193	0.479580	0.639930	0.978490
S1941	S194	0.638740	0.745210	0.768250
S1951	S195	0.527890	0.717640	0.875000
S1961	S196	0.692730	0.772290	0.827620
S1971	S197	0.606900	0.669500	0.768380
S1981	S198	0.472100	0.706790	0.932870
S1991	S199	0.683700	0.649890	0.773710
S2001	S200	0.694880	0.800850	0.759820
C8931	C893	0.563600	0.751600	0.806200
C8941	C894	0.545100	0.774100	0.770900
C8951	C895	0.566300	0.758900	0.781600
C8961	C896	0.548500	0.733300	0.793400
C8971	C897	0.744900	0.479600	0.041000
C8981	C898	0.719900	0.483300	0.026700
C8991	C899	0.693100	0.488700	0.037500
C9001	C900	0.691500	0.492700	0.063100
C9011	C901	0.715100	0.490100	0.078000
C9021	C902	0.741200	0.482300	0.067000
C9031	C903	0.018400	0.490400	0.184400
C9041	C904	0.017300	0.504200	0.206800
C9051	C905	0.011300	0.532100	0.206900
C9061	C906	0.007500	0.545500	0.186700
C9071	C907	0.009200	0.530600	0.165200
C9081	C908	0.015400	0.504200	0.164100
C9091	C909	0.911700	0.504400	0.200800
C9101	C910	0.885200	0.514700	0.203300
C9111	C911	0.876100	0.539600	0.216500
C9121	C912	0.898100	0.550200	0.228900
C9131	C913	0.927300	0.543800	0.225400
C9141	C914	0.933900	0.522800	0.210500
C9151	C915	0.728900	0.402900	0.058200
C9161	C916	0.706000	0.420200	0.052500
C9171	C917	0.685300	0.411300	0.035200
C9181	C918	0.686400	0.385000	0.023500
C9191	C919	0.710000	0.369100	0.029000
C9201	C920	0.731300	0.378300	0.047400
C9211	C921	0.756700	0.485400	0.137400
C9221	C922	0.759700	0.510000	0.131500
C9231	C923	0.736700	0.528000	0.141800
C9241	C924	0.714800	0.516800	0.158500
C9251	C925	0.709700	0.489300	0.158900
C9261	C926	0.731600	0.473600	0.144000
C9271	C927	0.740300	0.436600	0.198700
C9281	C928	0.755600	0.455300	0.208400
C9291	C929	0.744400	0.474100	0.223700
C9301	C930	0.715000	0.472100	0.232900
C9311	C931	0.696400	0.453500	0.222300
C9321	C932	0.710300	0.434500	0.204100
C9331	C933	0.794600	0.415400	0.253000
C9341	C934	0.808400	0.437900	0.258400
C9351	C935	0.796600	0.456400	0.273600
C9361	C936	0.769600	0.451300	0.285400
C9371	C937	0.757500	0.428100	0.280700
C9381	C938	0.766900	0.414000	0.263000
C9391	C939	0.844100	0.524000	0.151600
C9401	C940	0.822500	0.515800	0.167000
C9411	C941	0.805600	0.533600	0.183500
C9421	C942	0.813700	0.562000	0.181100
C9431	C943	0.839400	0.568600	0.164200
C9441	C944	0.852700	0.549400	0.147500
C9451	C945	0.834700	0.547300	0.081800
C9461	C946	0.822000	0.571700	0.088300
C9471	C947	0.844000	0.589100	0.093400
C9481	C948	0.871900	0.586200	0.086100
C9491	C949	0.882800	0.563600	0.082000
C9501	C950	0.862600	0.540900	0.078700
C9511	C951	0.786640	0.387170	0.003440
C9521	C952	0.780300	0.360840	0.003500
C9531	C953	0.758100	0.351330	0.988580
C9541	C954	0.742300	0.368200	0.973590
C9551	C955	0.748700	0.394500	0.973530
C9561	C956	0.770820	0.404000	0.988450
C9571	C957	0.858500	0.484690	0.990000
C9581	C958	0.841300	0.463220	0.985100
C9591	C959	0.837200	0.454910	0.960630
C9601	C960	0.850300	0.468100	0.941000
C9611	C961	0.867500	0.489500	0.945800
C9621	C962	0.871700	0.497800	0.970300
C9631	C963	0.925000	0.438610	0.003900
C9641	C964	0.922300	0.448850	0.979900
C9651	C965	0.946000	0.460320	0.968400
C9661	C966	0.972300	0.461560	0.980800
C9671	C967	0.975000	0.451330	0.004700
C9681	C968	0.951300	0.439850	0.016300
C9691	C969	0.706100	0.351800	0.121700
C9701	C970	0.708600	0.373100	0.105900
C9711	C971	0.685800	0.379800	0.090300
C9721	C972	0.660700	0.365100	0.090300
C9731	C973	0.658200	0.343800	0.106100
C9741	C974	0.681000	0.337100	0.121700
C9751	C975	0.883700	0.448300	0.260400
C9761	C976	0.874400	0.470700	0.248300
C9771	C977	0.865000	0.492800	0.265400
C9781	C978	0.867100	0.491500	0.290800
C9791	C979	0.876100	0.469000	0.300500
C9801	C980	0.887000	0.447400	0.285400
C9811	C981	0.973500	0.439400	0.272400
C9821	C982	0.985700	0.451000	0.292800
C9831	C983	0.985300	0.437700	0.317200
C9841	C984	0.974300	0.411400	0.319000
C9851	C985	0.965300	0.398300	0.295200
C9861	C986	0.963700	0.413500	0.273900
C9871	C987	0.000200	0.471000	0.102900
C9881	C988	0.009000	0.496200	0.097700
C9891	C989	0.031500	0.500600	0.081000
C9901	C990	0.045200	0.479800	0.069600
C9911	C991	0.036400	0.454600	0.074800
C9921	C992	0.014000	0.450200	0.091500
C9931	C993	0.053300	0.380300	0.216500
C9941	C994	0.075500	0.370900	0.233000
C9951	C995	0.104200	0.364500	0.224000
C9961	C996	0.108900	0.364800	0.195800
C9971	C997	0.085300	0.375500	0.178100
C9981	C998	0.058500	0.382500	0.190400
C9991	C999	0.838800	0.559900	0.997100
C10001	C1000	0.844700	0.555500	0.970400
C10011	C1001	0.872800	0.562900	0.961700
C10021	C1002	0.893200	0.571300	0.977400
C10031	C1003	0.887600	0.576600	0.003700
C10041	C1004	0.859700	0.569600	0.014300
Cd1291	Cd129	0.856410	0.410200	0.104000
Cd1301	Cd130	0.799250	0.432120	0.158000
Cd1311	Cd131	0.914140	0.392070	0.156740
Cd1321	Cd132	0.852450	0.411610	0.210000
Cd1331	Cd133	0.876750	0.463010	0.160430
Cd1341	Cd134	0.776570	0.375320	0.102910
Cd1351	Cd135	0.917880	0.389370	0.049570
Cd1361	Cd136	0.933060	0.440620	0.215970
Cd1371	Cd137	0.979960	0.372380	0.202550
Cd1381	Cd138	0.793190	0.432220	0.053590
Cd1391	Cd139	0.876190	0.457100	0.044710
Cd1401	Cd140	0.934580	0.442710	0.099550
Cd1411	Cd141	0.989660	0.434920	0.155760
Cd1421	Cd142	0.825890	0.485040	0.103970
S2011	S201	0.895990	0.428940	0.130300
S2021	S202	0.837840	0.446550	0.076620
S2031	S203	0.815710	0.394190	0.130700
S2041	S204	0.835470	0.450200	0.187160
S2051	S205	0.954460	0.410570	0.183150
S2061	S206	0.864390	0.501770	0.132510
S2071	S207	0.957610	0.408970	0.073580
S2081	S208	0.809870	0.390860	0.232790
S2091	S209	0.892970	0.420940	0.241660
S2101	S210	0.921570	0.476460	0.185240
S2111	S211	0.752280	0.414670	0.176690
S2121	S212	0.782320	0.463620	0.123860
Cd1431	Cd143	0.018650	0.439550	0.225960
Cd1441	Cd144	0.811250	0.507890	0.031980
S2131	S213	0.972360	0.457630	0.244630
S2141	S214	0.776410	0.470240	0.026310
S2151	S215	0.909980	0.479370	0.075420
S2161	S216	0.753590	0.414050	0.080510
S2171	S217	0.742240	0.357290	0.136320
S2181	S218	0.020420	0.389930	0.228490
S2191	S219	0.861260	0.495210	0.018250
S2201	S220	0.972110	0.467640	0.125000
S2211	S221	0.807270	0.522290	0.077620
S2221	S222	0.893100	0.419500	0.018380
S2231	S223	0.027900	0.456790	0.182870
S2241	S224	0.816300	0.399890	0.023710
S2251	S225	0.805120	0.550850	0.009820
C10051	C1005	0.936400	0.501600	0.056200
C10061	C1006	0.954900	0.524100	0.020900
C10071	C1007	0.933700	0.508900	0.031600
C10081	C1008	0.951500	0.483300	0.043400
C10091	C1009	0.744900	0.979600	0.541000
C10101	C1010	0.719900	0.983300	0.526700
C10111	C1011	0.693100	0.988700	0.537500
C10121	C1012	0.691500	0.992700	0.563100
C10131	C1013	0.715100	0.990100	0.578000
C10141	C1014	0.741200	0.982300	0.567000
C10151	C1015	0.018400	0.990400	0.684400
C10161	C1016	0.017300	0.004200	0.706800
C10171	C1017	0.011300	0.032100	0.706900
C10181	C1018	0.007500	0.045500	0.686700
C10191	C1019	0.009200	0.030600	0.665200
C10201	C1020	0.015400	0.004200	0.664100
C10211	C1021	0.911700	0.004400	0.700800
C10221	C1022	0.885200	0.014700	0.703300
C10231	C1023	0.876100	0.039600	0.716500
C10241	C1024	0.898100	0.050200	0.728900
C10251	C1025	0.927300	0.043800	0.725400
C10261	C1026	0.933900	0.022800	0.710500
C10271	C1027	0.728900	0.902900	0.558200
C10281	C1028	0.706000	0.920200	0.552500
C10291	C1029	0.685300	0.911300	0.535200
C10301	C1030	0.686400	0.885000	0.523500
C10311	C1031	0.710000	0.869100	0.529000
C10321	C1032	0.731300	0.878300	0.547400
C10331	C1033	0.756700	0.985400	0.637400
C10341	C1034	0.759700	0.010000	0.631500
C10351	C1035	0.736700	0.028000	0.641800
C10361	C1036	0.714800	0.016800	0.658500
C10371	C1037	0.709700	0.989300	0.658900
C10381	C1038	0.731600	0.973600	0.644000
C10391	C1039	0.740300	0.936600	0.698700
C10401	C1040	0.755600	0.955300	0.708400
C10411	C1041	0.744400	0.974100	0.723700
C10421	C1042	0.715000	0.972100	0.732900
C10431	C1043	0.696400	0.953500	0.722300
C10441	C1044	0.710300	0.934500	0.704100
C10451	C1045	0.794600	0.915400	0.753000
C10461	C1046	0.808400	0.937900	0.758400
C10471	C1047	0.796600	0.956400	0.773600
C10481	C1048	0.769600	0.951300	0.785400
C10491	C1049	0.757500	0.928100	0.780700
C10501	C1050	0.766900	0.914000	0.763000
C10511	C1051	0.844100	0.024000	0.651600
C10521	C1052	0.822500	0.015800	0.667000
C10531	C1053	0.805600	0.033600	0.683500
C10541	C1054	0.813700	0.062000	0.681100
C10551	C1055	0.839400	0.068600	0.664200
C10561	C1056	0.852700	0.049400	0.647500
C10571	C1057	0.834700	0.047300	0.581800
C10581	C1058	0.822000	0.071700	0.588300
C10591	C1059	0.844000	0.089100	0.593400
C10601	C1060	0.871900	0.086200	0.586100
C10611	C1061	0.882800	0.063600	0.582000
C10621	C1062	0.862600	0.040900	0.578700
C10631	C1063	0.786640	0.887170	0.503440
C10641	C1064	0.780300	0.860840	0.503500
C10651	C1065	0.758100	0.851330	0.488580
C10661	C1066	0.742300	0.868200	0.473590
C10671	C1067	0.748700	0.894500	0.473530
C10681	C1068	0.770820	0.904000	0.488450
C10691	C1069	0.858500	0.984690	0.490000
C10701	C1070	0.841300	0.963220	0.485100
C10711	C1071	0.837200	0.954910	0.460630
C10721	C1072	0.850300	0.968100	0.441000
C10731	C1073	0.867500	0.989500	0.445800
C10741	C1074	0.871700	0.997800	0.470300
C10751	C1075	0.925000	0.938610	0.503900
C10761	C1076	0.922300	0.948850	0.479900
C10771	C1077	0.946000	0.960320	0.468400
C10781	C1078	0.972300	0.961560	0.480800
C10791	C1079	0.975000	0.951330	0.504700
C10801	C1080	0.951300	0.939850	0.516300
C10811	C1081	0.706100	0.851800	0.621700
C10821	C1082	0.708600	0.873100	0.605900
C10831	C1083	0.685800	0.879800	0.590300
C10841	C1084	0.660700	0.865100	0.590300
C10851	C1085	0.658200	0.843800	0.606100
C10861	C1086	0.681000	0.837100	0.621700
C10871	C1087	0.883700	0.948300	0.760400
C10881	C1088	0.874400	0.970700	0.748300
C10891	C1089	0.865000	0.992800	0.765400
C10901	C1090	0.867100	0.991500	0.790800
C10911	C1091	0.876100	0.969000	0.800500
C10921	C1092	0.887000	0.947400	0.785400
C10931	C1093	0.973500	0.939400	0.772400
C10941	C1094	0.985700	0.951000	0.792800
C10951	C1095	0.985300	0.937700	0.817200
C10961	C1096	0.974300	0.911400	0.819000
C10971	C1097	0.965300	0.898300	0.795200
C10981	C1098	0.963700	0.913500	0.773900
C10991	C1099	0.000200	0.971000	0.602900
C11001	C1100	0.009000	0.996200	0.597700
C11011	C1101	0.031500	0.000600	0.581000
C11021	C1102	0.045200	0.979800	0.569600
C11031	C1103	0.036400	0.954600	0.574800
C11041	C1104	0.014000	0.950200	0.591500
C11051	C1105	0.053300	0.880300	0.716500
C11061	C1106	0.075500	0.870900	0.733000
C11071	C1107	0.104200	0.864500	0.724000
C11081	C1108	0.108900	0.864800	0.695800
C11091	C1109	0.085300	0.875500	0.678100
C11101	C1110	0.058500	0.882500	0.690400
C11111	C1111	0.838800	0.059900	0.497100
C11121	C1112	0.844700	0.055500	0.470400
C11131	C1113	0.872800	0.062900	0.461700
C11141	C1114	0.893200	0.071300	0.477400
C11151	C1115	0.887600	0.076600	0.503700
C11161	C1116	0.859700	0.069600	0.514300
Cd1451	Cd145	0.856410	0.910200	0.604000
Cd1461	Cd146	0.799250	0.932120	0.658000
Cd1471	Cd147	0.914140	0.892070	0.656740
Cd1481	Cd148	0.852450	0.911610	0.710000
Cd1491	Cd149	0.876750	0.963010	0.660430
Cd1501	Cd150	0.776570	0.875320	0.602910
Cd1511	Cd151	0.917880	0.889370	0.549570
Cd1521	Cd152	0.933060	0.940620	0.715970
Cd1531	Cd153	0.979960	0.872380	0.702550
Cd1541	Cd154	0.793190	0.932220	0.553590
Cd1551	Cd155	0.876190	0.957100	0.544710
Cd1561	Cd156	0.934580	0.942710	0.599550
Cd1571	Cd157	0.989660	0.934920	0.655760
Cd1581	Cd158	0.825890	0.985040	0.603970
S2261	S226	0.895990	0.928940	0.630300
S2271	S227	0.837840	0.946550	0.576620
S2281	S228	0.815710	0.894190	0.630700
S2291	S229	0.835470	0.950200	0.687160
S2301	S230	0.954460	0.910570	0.683150
S2311	S231	0.864390	0.001770	0.632510
S2321	S232	0.957610	0.908970	0.573580
S2331	S233	0.809870	0.890860	0.732790
S2341	S234	0.892970	0.920940	0.741660
S2351	S235	0.921570	0.976460	0.685240
S2361	S236	0.752280	0.914670	0.676690
S2371	S237	0.782320	0.963620	0.623860
Cd1591	Cd159	0.018650	0.939550	0.725960
Cd1601	Cd160	0.811250	0.007890	0.531980
S2381	S238	0.972360	0.957630	0.744630
S2391	S239	0.776410	0.970240	0.526310
S2401	S240	0.909980	0.979370	0.575420
S2411	S241	0.753590	0.914050	0.580510
S2421	S242	0.742240	0.857290	0.636320
S2431	S243	0.020420	0.889930	0.728490
S2441	S244	0.861260	0.995210	0.518250
S2451	S245	0.972110	0.967640	0.625000
S2461	S246	0.807270	0.022290	0.577620
S2471	S247	0.893100	0.919500	0.518380
S2481	S248	0.027900	0.956790	0.682870
S2491	S249	0.816300	0.899890	0.523710
S2501	S250	0.805120	0.050850	0.509820
C11171	C1117	0.936400	0.001600	0.556200
C11181	C1118	0.954900	0.024100	0.520900
C11191	C1119	0.933700	0.008900	0.531600
C11201	C1120	0.951500	0.983300	0.543400
C11211	C1121	0.244900	0.479600	0.541000
C11221	C1122	0.219900	0.483300	0.526700
C11231	C1123	0.193100	0.488700	0.537500
C11241	C1124	0.191500	0.492700	0.563100
C11251	C1125	0.215100	0.490100	0.578000
C11261	C1126	0.241200	0.482300	0.567000
C11271	C1127	0.518400	0.490400	0.684400
C11281	C1128	0.517300	0.504200	0.706800
C11291	C1129	0.511300	0.532100	0.706900
C11301	C1130	0.507500	0.545500	0.686700
C11311	C1131	0.509200	0.530600	0.665200
C11321	C1132	0.515400	0.504200	0.664100
C11331	C1133	0.411700	0.504400	0.700800
C11341	C1134	0.385200	0.514700	0.703300
C11351	C1135	0.376100	0.539600	0.716500
C11361	C1136	0.398100	0.550200	0.728900
C11371	C1137	0.427300	0.543800	0.725400
C11381	C1138	0.433900	0.522800	0.710500
C11391	C1139	0.228900	0.402900	0.558200
C11401	C1140	0.206000	0.420200	0.552500
C11411	C1141	0.185300	0.411300	0.535200
C11421	C1142	0.186400	0.385000	0.523500
C11431	C1143	0.210000	0.369100	0.529000
C11441	C1144	0.231300	0.378300	0.547400
C11451	C1145	0.256700	0.485400	0.637400
C11461	C1146	0.259700	0.510000	0.631500
C11471	C1147	0.236700	0.528000	0.641800
C11481	C1148	0.214800	0.516800	0.658500
C11491	C1149	0.209700	0.489300	0.658900
C11501	C1150	0.231600	0.473600	0.644000
C11511	C1151	0.240300	0.436600	0.698700
C11521	C1152	0.255600	0.455300	0.708400
C11531	C1153	0.244400	0.474100	0.723700
C11541	C1154	0.215000	0.472100	0.732900
C11551	C1155	0.196400	0.453500	0.722300
C11561	C1156	0.210300	0.434500	0.704100
C11571	C1157	0.294600	0.415400	0.753000
C11581	C1158	0.308400	0.437900	0.758400
C11591	C1159	0.296600	0.456400	0.773600
C11601	C1160	0.269600	0.451300	0.785400
C11611	C1161	0.257500	0.428100	0.780700
C11621	C1162	0.266900	0.414000	0.763000
C11631	C1163	0.344100	0.524000	0.651600
C11641	C1164	0.322500	0.515800	0.667000
C11651	C1165	0.305600	0.533600	0.683500
C11661	C1166	0.313700	0.562000	0.681100
C11671	C1167	0.339400	0.568600	0.664200
C11681	C1168	0.352700	0.549400	0.647500
C11691	C1169	0.334700	0.547300	0.581800
C11701	C1170	0.322000	0.571700	0.588300
C11711	C1171	0.344000	0.589100	0.593400
C11721	C1172	0.371900	0.586200	0.586100
C11731	C1173	0.382800	0.563600	0.582000
C11741	C1174	0.362600	0.540900	0.578700
C11751	C1175	0.286640	0.387170	0.503440
C11761	C1176	0.280300	0.360840	0.503500
C11771	C1177	0.258100	0.351330	0.488580
C11781	C1178	0.242300	0.368200	0.473590
C11791	C1179	0.248700	0.394500	0.473530
C11801	C1180	0.270820	0.404000	0.488450
C11811	C1181	0.358500	0.484690	0.490000
C11821	C1182	0.341300	0.463220	0.485100
C11831	C1183	0.337200	0.454910	0.460630
C11841	C1184	0.350300	0.468100	0.441000
C11851	C1185	0.367500	0.489500	0.445800
C11861	C1186	0.371700	0.497800	0.470300
C11871	C1187	0.425000	0.438610	0.503900
C11881	C1188	0.422300	0.448850	0.479900
C11891	C1189	0.446000	0.460320	0.468400
C11901	C1190	0.472300	0.461560	0.480800
C11911	C1191	0.475000	0.451330	0.504700
C11921	C1192	0.451300	0.439850	0.516300
C11931	C1193	0.206100	0.351800	0.621700
C11941	C1194	0.208600	0.373100	0.605900
C11951	C1195	0.185800	0.379800	0.590300
C11961	C1196	0.160700	0.365100	0.590300
C11971	C1197	0.158200	0.343800	0.606100
C11981	C1198	0.181000	0.337100	0.621700
C11991	C1199	0.383700	0.448300	0.760400
C12001	C1200	0.374400	0.470700	0.748300
C12011	C1201	0.365000	0.492800	0.765400
C12021	C1202	0.367100	0.491500	0.790800
C12031	C1203	0.376100	0.469000	0.800500
C12041	C1204	0.387000	0.447400	0.785400
C12051	C1205	0.473500	0.439400	0.772400
C12061	C1206	0.485700	0.451000	0.792800
C12071	C1207	0.485300	0.437700	0.817200
C12081	C1208	0.474300	0.411400	0.819000
C12091	C1209	0.465300	0.398300	0.795200
C12101	C1210	0.463700	0.413500	0.773900
C12111	C1211	0.500200	0.471000	0.602900
C12121	C1212	0.509000	0.496200	0.597700
C12131	C1213	0.531500	0.500600	0.581000
C12141	C1214	0.545200	0.479800	0.569600
C12151	C1215	0.536400	0.454600	0.574800
C12161	C1216	0.514000	0.450200	0.591500
C12171	C1217	0.553300	0.380300	0.716500
C12181	C1218	0.575500	0.370900	0.733000
C12191	C1219	0.604200	0.364500	0.724000
C12201	C1220	0.608900	0.364800	0.695800
C12211	C1221	0.585300	0.375500	0.678100
C12221	C1222	0.558500	0.382500	0.690400
C12231	C1223	0.338800	0.559900	0.497100
C12241	C1224	0.344700	0.555500	0.470400
C12251	C1225	0.372800	0.562900	0.461700
C12261	C1226	0.393200	0.571300	0.477400
C12271	C1227	0.387600	0.576600	0.503700
C12281	C1228	0.359700	0.569600	0.514300
Cd1611	Cd161	0.356410	0.410200	0.604000
Cd1621	Cd162	0.299250	0.432120	0.658000
Cd1631	Cd163	0.414140	0.392070	0.656740
Cd1641	Cd164	0.352450	0.411610	0.710000
Cd1651	Cd165	0.376750	0.463010	0.660430
Cd1661	Cd166	0.276570	0.375320	0.602910
Cd1671	Cd167	0.417880	0.389370	0.549570
Cd1681	Cd168	0.433060	0.440620	0.715970
Cd1691	Cd169	0.479960	0.372380	0.702550
Cd1701	Cd170	0.293190	0.432220	0.553590
Cd1711	Cd171	0.376190	0.457100	0.544710
Cd1721	Cd172	0.434580	0.442710	0.599550
Cd1731	Cd173	0.489660	0.434920	0.655760
Cd1741	Cd174	0.325890	0.485040	0.603970
S2511	S251	0.395990	0.428940	0.630300
S2521	S252	0.337840	0.446550	0.576620
S2531	S253	0.315710	0.394190	0.630700
S2541	S254	0.335470	0.450200	0.687160
S2551	S255	0.454460	0.410570	0.683150
S2561	S256	0.364390	0.501770	0.632510
S2571	S257	0.457610	0.408970	0.573580
S2581	S258	0.309870	0.390860	0.732790
S2591	S259	0.392970	0.420940	0.741660
S2601	S260	0.421570	0.476460	0.685240
S2611	S261	0.252280	0.414670	0.676690
S2621	S262	0.282320	0.463620	0.623860
Cd1751	Cd175	0.518650	0.439550	0.725960
Cd1761	Cd176	0.311250	0.507890	0.531980
S2631	S263	0.472360	0.457630	0.744630
S2641	S264	0.276410	0.470240	0.526310
S2651	S265	0.409980	0.479370	0.575420
S2661	S266	0.253590	0.414050	0.580510
S2671	S267	0.242240	0.357290	0.636320
S2681	S268	0.520420	0.389930	0.728490
S2691	S269	0.361260	0.495210	0.518250
S2701	S270	0.472110	0.467640	0.625000
S2711	S271	0.307270	0.522290	0.577620
S2721	S272	0.393100	0.419500	0.518380
S2731	S273	0.527900	0.456790	0.682870
S2741	S274	0.316300	0.399890	0.523710
S2751	S275	0.305120	0.550850	0.509820
C12291	C1229	0.436400	0.501600	0.556200
C12301	C1230	0.454900	0.524100	0.520900
C12311	C1231	0.433700	0.508900	0.531600
C12321	C1232	0.451500	0.483300	0.543400
C12331	C1233	0.244900	0.979600	0.041000
C12341	C1234	0.219900	0.983300	0.026700
C12351	C1235	0.193100	0.988700	0.037500
C12361	C1236	0.191500	0.992700	0.063100
C12371	C1237	0.215100	0.990100	0.078000
C12381	C1238	0.241200	0.982300	0.067000
C12391	C1239	0.518400	0.990400	0.184400
C12401	C1240	0.517300	0.004200	0.206800
C12411	C1241	0.511300	0.032100	0.206900
C12421	C1242	0.507500	0.045500	0.186700
C12431	C1243	0.509200	0.030600	0.165200
C12441	C1244	0.515400	0.004200	0.164100
C12451	C1245	0.411700	0.004400	0.200800
C12461	C1246	0.385200	0.014700	0.203300
C12471	C1247	0.376100	0.039600	0.216500
C12481	C1248	0.398100	0.050200	0.228900
C12491	C1249	0.427300	0.043800	0.225400
C12501	C1250	0.433900	0.022800	0.210500
C12511	C1251	0.228900	0.902900	0.058200
C12521	C1252	0.206000	0.920200	0.052500
C12531	C1253	0.185300	0.911300	0.035200
C12541	C1254	0.186400	0.885000	0.023500
C12551	C1255	0.210000	0.869100	0.029000
C12561	C1256	0.231300	0.878300	0.047400
C12571	C1257	0.256700	0.985400	0.137400
C12581	C1258	0.259700	0.010000	0.131500
C12591	C1259	0.236700	0.028000	0.141800
C12601	C1260	0.214800	0.016800	0.158500
C12611	C1261	0.209700	0.989300	0.158900
C12621	C1262	0.231600	0.973600	0.144000
C12631	C1263	0.240300	0.936600	0.198700
C12641	C1264	0.255600	0.955300	0.208400
C12651	C1265	0.244400	0.974100	0.223700
C12661	C1266	0.215000	0.972100	0.232900
C12671	C1267	0.196400	0.953500	0.222300
C12681	C1268	0.210300	0.934500	0.204100
C12691	C1269	0.294600	0.915400	0.253000
C12701	C1270	0.308400	0.937900	0.258400
C12711	C1271	0.296600	0.956400	0.273600
C12721	C1272	0.269600	0.951300	0.285400
C12731	C1273	0.257500	0.928100	0.280700
C12741	C1274	0.266900	0.914000	0.263000
C12751	C1275	0.344100	0.024000	0.151600
C12761	C1276	0.322500	0.015800	0.167000
C12771	C1277	0.305600	0.033600	0.183500
C12781	C1278	0.313700	0.062000	0.181100
C12791	C1279	0.339400	0.068600	0.164200
C12801	C1280	0.352700	0.049400	0.147500
C12811	C1281	0.334700	0.047300	0.081800
C12821	C1282	0.322000	0.071700	0.088300
C12831	C1283	0.344000	0.089100	0.093400
C12841	C1284	0.371900	0.086200	0.086100
C12851	C1285	0.382800	0.063600	0.082000
C12861	C1286	0.362600	0.040900	0.078700
C12871	C1287	0.286640	0.887170	0.003440
C12881	C1288	0.280300	0.860840	0.003500
C12891	C1289	0.258100	0.851330	0.988580
C12901	C1290	0.242300	0.868200	0.973590
C12911	C1291	0.248700	0.894500	0.973530
C12921	C1292	0.270820	0.904000	0.988450
C12931	C1293	0.358500	0.984690	0.990000
C12941	C1294	0.341300	0.963220	0.985100
C12951	C1295	0.337200	0.954910	0.960630
C12961	C1296	0.350300	0.968100	0.941000
C12971	C1297	0.367500	0.989500	0.945800
C12981	C1298	0.371700	0.997800	0.970300
C12991	C1299	0.425000	0.938610	0.003900
C13001	C1300	0.422300	0.948850	0.979900
C13011	C1301	0.446000	0.960320	0.968400
C13021	C1302	0.472300	0.961560	0.980800
C13031	C1303	0.475000	0.951330	0.004700
C13041	C1304	0.451300	0.939850	0.016300
C13051	C1305	0.206100	0.851800	0.121700
C13061	C1306	0.208600	0.873100	0.105900
C13071	C1307	0.185800	0.879800	0.090300
C13081	C1308	0.160700	0.865100	0.090300
C13091	C1309	0.158200	0.843800	0.106100
C13101	C1310	0.181000	0.837100	0.121700
C13111	C1311	0.383700	0.948300	0.260400
C13121	C1312	0.374400	0.970700	0.248300
C13131	C1313	0.365000	0.992800	0.265400
C13141	C1314	0.367100	0.991500	0.290800
C13151	C1315	0.376100	0.969000	0.300500
C13161	C1316	0.387000	0.947400	0.285400
C13171	C1317	0.473500	0.939400	0.272400
C13181	C1318	0.485700	0.951000	0.292800
C13191	C1319	0.485300	0.937700	0.317200
C13201	C1320	0.474300	0.911400	0.319000
C13211	C1321	0.465300	0.898300	0.295200
C13221	C1322	0.463700	0.913500	0.273900
C13231	C1323	0.500200	0.971000	0.102900
C13241	C1324	0.509000	0.996200	0.097700
C13251	C1325	0.531500	0.000600	0.081000
C13261	C1326	0.545200	0.979800	0.069600
C13271	C1327	0.536400	0.954600	0.074800
C13281	C1328	0.514000	0.950200	0.091500
C13291	C1329	0.553300	0.880300	0.216500
C13301	C1330	0.575500	0.870900	0.233000
C13311	C1331	0.604200	0.864500	0.224000
C13321	C1332	0.608900	0.864800	0.195800
C13331	C1333	0.585300	0.875500	0.178100
C13341	C1334	0.558500	0.882500	0.190400
C13351	C1335	0.338800	0.059900	0.997100
C13361	C1336	0.344700	0.055500	0.970400
C13371	C1337	0.372800	0.062900	0.961700
C13381	C1338	0.393200	0.071300	0.977400
C13391	C1339	0.387600	0.076600	0.003700
C13401	C1340	0.359700	0.069600	0.014300
Cd1771	Cd177	0.356410	0.910200	0.104000
Cd1781	Cd178	0.299250	0.932120	0.158000
Cd1791	Cd179	0.414140	0.892070	0.156740
Cd1801	Cd180	0.352450	0.911610	0.210000
Cd1811	Cd181	0.376750	0.963010	0.160430
Cd1821	Cd182	0.276570	0.875320	0.102910
Cd1831	Cd183	0.417880	0.889370	0.049570
Cd1841	Cd184	0.433060	0.940620	0.215970
Cd1851	Cd185	0.479960	0.872380	0.202550
Cd1861	Cd186	0.293190	0.932220	0.053590
Cd1871	Cd187	0.376190	0.957100	0.044710
Cd1881	Cd188	0.434580	0.942710	0.099550
Cd1891	Cd189	0.489660	0.934920	0.155760
Cd1901	Cd190	0.325890	0.985040	0.103970
S2761	S276	0.395990	0.928940	0.130300
S2771	S277	0.337840	0.946550	0.076620
S2781	S278	0.315710	0.894190	0.130700
S2791	S279	0.335470	0.950200	0.187160
S2801	S280	0.454460	0.910570	0.183150
S2811	S281	0.364390	0.001770	0.132510
S2821	S282	0.457610	0.908970	0.073580
S2831	S283	0.309870	0.890860	0.232790
S2841	S284	0.392970	0.920940	0.241660
S2851	S285	0.421570	0.976460	0.185240
S2861	S286	0.252280	0.914670	0.176690
S2871	S287	0.282320	0.963620	0.123860
Cd1911	Cd191	0.518650	0.939550	0.225960
Cd1921	Cd192	0.311250	0.007890	0.031980
S2881	S288	0.472360	0.957630	0.244630
S2891	S289	0.276410	0.970240	0.026310
S2901	S290	0.409980	0.979370	0.075420
S2911	S291	0.253590	0.914050	0.080510
S2921	S292	0.242240	0.857290	0.136320
S2931	S293	0.520420	0.889930	0.228490
S2941	S294	0.361260	0.995210	0.018250
S2951	S295	0.472110	0.967640	0.125000
S2961	S296	0.307270	0.022290	0.077620
S2971	S297	0.393100	0.919500	0.018380
S2981	S298	0.527900	0.956790	0.182870
S2991	S299	0.316300	0.899890	0.023710
S3001	S300	0.305120	0.050850	0.009820
C13411	C1341	0.436400	0.001600	0.056200
C13421	C1342	0.454900	0.024100	0.020900
C13431	C1343	0.433700	0.008900	0.031600
C13441	C1344	0.451500	0.983300	0.043400
C13451	C1345	0.505100	0.770400	0.041000
C13461	C1346	0.530100	0.766700	0.026700
C13471	C1347	0.556900	0.761300	0.037500
C13481	C1348	0.558500	0.757300	0.063100
C13491	C1349	0.534900	0.759900	0.078000
C13501	C1350	0.508800	0.767700	0.067000
C13511	C1351	0.231600	0.759600	0.184400
C13521	C1352	0.232700	0.745800	0.206800
C13531	C1353	0.238700	0.717900	0.206900
C13541	C1354	0.242500	0.704500	0.186700
C13551	C1355	0.240800	0.719400	0.165200
C13561	C1356	0.234600	0.745800	0.164100
C13571	C1357	0.338300	0.745600	0.200800
C13581	C1358	0.364800	0.735300	0.203300
C13591	C1359	0.373900	0.710400	0.216500
C13601	C1360	0.351900	0.699800	0.228900
C13611	C1361	0.322700	0.706200	0.225400
C13621	C1362	0.316100	0.727200	0.210500
C13631	C1363	0.521100	0.847100	0.058200
C13641	C1364	0.544000	0.829800	0.052500
C13651	C1365	0.564700	0.838700	0.035200
C13661	C1366	0.563600	0.865000	0.023500
C13671	C1367	0.540000	0.880900	0.029000
C13681	C1368	0.518700	0.871700	0.047400
C13691	C1369	0.493300	0.764600	0.137400
C13701	C1370	0.490300	0.740000	0.131500
C13711	C1371	0.513300	0.722000	0.141800
C13721	C1372	0.535200	0.733200	0.158500
C13731	C1373	0.540300	0.760700	0.158900
C13741	C1374	0.518400	0.776400	0.144000
C13751	C1375	0.509700	0.813400	0.198700
C13761	C1376	0.494400	0.794700	0.208400
C13771	C1377	0.505600	0.775900	0.223700
C13781	C1378	0.535000	0.777900	0.232900
C13791	C1379	0.553600	0.796500	0.222300
C13801	C1380	0.539700	0.815500	0.204100
C13811	C1381	0.455400	0.834600	0.253000
C13821	C1382	0.441600	0.812100	0.258400
C13831	C1383	0.453400	0.793600	0.273600
C13841	C1384	0.480400	0.798700	0.285400
C13851	C1385	0.492500	0.821900	0.280700
C13861	C1386	0.483100	0.836000	0.263000
C13871	C1387	0.405900	0.726000	0.151600
C13881	C1388	0.427500	0.734200	0.167000
C13891	C1389	0.444400	0.716400	0.183500
C13901	C1390	0.436300	0.688000	0.181100
C13911	C1391	0.410600	0.681400	0.164200
C13921	C1392	0.397300	0.700600	0.147500
C13931	C1393	0.415300	0.702700	0.081800
C13941	C1394	0.428000	0.678300	0.088300
C13951	C1395	0.406000	0.660900	0.093400
C13961	C1396	0.378100	0.663800	0.086100
C13971	C1397	0.367200	0.686400	0.082000
C13981	C1398	0.387400	0.709100	0.078700
C13991	C1399	0.463360	0.862830	0.003440
C14001	C1400	0.469700	0.889160	0.003500
C14011	C1401	0.491900	0.898670	0.988580
C14021	C1402	0.507700	0.881800	0.973590
C14031	C1403	0.501300	0.855500	0.973530
C14041	C1404	0.479180	0.846000	0.988450
C14051	C1405	0.391500	0.765310	0.990000
C14061	C1406	0.408700	0.786780	0.985100
C14071	C1407	0.412800	0.795090	0.960630
C14081	C1408	0.399700	0.781900	0.941000
C14091	C1409	0.382500	0.760500	0.945800
C14101	C1410	0.378300	0.752200	0.970300
C14111	C1411	0.325000	0.811390	0.003900
C14121	C1412	0.327700	0.801150	0.979900
C14131	C1413	0.304000	0.789680	0.968400
C14141	C1414	0.277700	0.788440	0.980800
C14151	C1415	0.275000	0.798670	0.004700
C14161	C1416	0.298700	0.810150	0.016300
C14171	C1417	0.543900	0.898200	0.121700
C14181	C1418	0.541400	0.876900	0.105900
C14191	C1419	0.564200	0.870200	0.090300
C14201	C1420	0.589300	0.884900	0.090300
C14211	C1421	0.591800	0.906200	0.106100
C14221	C1422	0.569000	0.912900	0.121700
C14231	C1423	0.366300	0.801700	0.260400
C14241	C1424	0.375600	0.779300	0.248300
C14251	C1425	0.385000	0.757200	0.265400
C14261	C1426	0.382900	0.758500	0.290800
C14271	C1427	0.373900	0.781000	0.300500
C14281	C1428	0.363000	0.802600	0.285400
C14291	C1429	0.276500	0.810600	0.272400
C14301	C1430	0.264300	0.799000	0.292800
C14311	C1431	0.264700	0.812300	0.317200
C14321	C1432	0.275700	0.838600	0.319000
C14331	C1433	0.284700	0.851700	0.295200
C14341	C1434	0.286300	0.836500	0.273900
C14351	C1435	0.249800	0.779000	0.102900
C14361	C1436	0.241000	0.753800	0.097700
C14371	C1437	0.218500	0.749400	0.081000
C14381	C1438	0.204800	0.770200	0.069600
C14391	C1439	0.213600	0.795400	0.074800
C14401	C1440	0.236000	0.799800	0.091500
C14411	C1441	0.196700	0.869700	0.216500
C14421	C1442	0.174500	0.879100	0.233000
C14431	C1443	0.145800	0.885500	0.224000
C14441	C1444	0.141100	0.885200	0.195800
C14451	C1445	0.164700	0.874500	0.178100
C14461	C1446	0.191500	0.867500	0.190400
C14471	C1447	0.411200	0.690100	0.997100
C14481	C1448	0.405300	0.694500	0.970400
C14491	C1449	0.377200	0.687100	0.961700
C14501	C1450	0.356800	0.678700	0.977400
C14511	C1451	0.362400	0.673400	0.003700
C14521	C1452	0.390300	0.680400	0.014300
Cd1931	Cd193	0.393590	0.839800	0.104000
Cd1941	Cd194	0.450750	0.817880	0.158000
Cd1951	Cd195	0.335860	0.857930	0.156740
Cd1961	Cd196	0.397550	0.838390	0.210000
Cd1971	Cd197	0.373250	0.786990	0.160430
Cd1981	Cd198	0.473430	0.874680	0.102910
Cd1991	Cd199	0.332120	0.860630	0.049570
Cd2001	Cd200	0.316940	0.809380	0.215970
Cd2011	Cd201	0.270040	0.877620	0.202550
Cd2021	Cd202	0.456810	0.817780	0.053590
Cd2031	Cd203	0.373810	0.792900	0.044710
Cd2041	Cd204	0.315420	0.807290	0.099550
Cd2051	Cd205	0.260340	0.815080	0.155760
Cd2061	Cd206	0.424110	0.764960	0.103970
S3011	S301	0.354010	0.821060	0.130300
S3021	S302	0.412160	0.803450	0.076620
S3031	S303	0.434290	0.855810	0.130700
S3041	S304	0.414530	0.799800	0.187160
S3051	S305	0.295540	0.839430	0.183150
S3061	S306	0.385610	0.748230	0.132510
S3071	S307	0.292390	0.841030	0.073580
S3081	S308	0.440130	0.859140	0.232790
S3091	S309	0.357030	0.829060	0.241660
S3101	S310	0.328430	0.773540	0.185240
S3111	S311	0.497720	0.835330	0.176690
S3121	S312	0.467680	0.786380	0.123860
Cd2071	Cd207	0.231350	0.810450	0.225960
Cd2081	Cd208	0.438750	0.742110	0.031980
S3131	S313	0.277640	0.792370	0.244630
S3141	S314	0.473590	0.779760	0.026310
S3151	S315	0.340020	0.770630	0.075420
S3161	S316	0.496410	0.835950	0.080510
S3171	S317	0.507760	0.892710	0.136320
S3181	S318	0.229580	0.860070	0.228490
S3191	S319	0.388740	0.754790	0.018250
S3201	S320	0.277890	0.782360	0.125000
S3211	S321	0.442730	0.727710	0.077620
S3221	S322	0.356900	0.830500	0.018380
S3231	S323	0.222100	0.793210	0.182870
S3241	S324	0.433700	0.850110	0.023710
S3251	S325	0.444880	0.699150	0.009820
C14531	C1453	0.313600	0.748400	0.056200
C14541	C1454	0.295100	0.725900	0.020900
C14551	C1455	0.316300	0.741100	0.031600
C14561	C1456	0.298500	0.766700	0.043400
C14571	C1457	0.505100	0.270400	0.541000
C14581	C1458	0.530100	0.266700	0.526700
C14591	C1459	0.556900	0.261300	0.537500
C14601	C1460	0.558500	0.257300	0.563100
C14611	C1461	0.534900	0.259900	0.578000
C14621	C1462	0.508800	0.267700	0.567000
C14631	C1463	0.231600	0.259600	0.684400
C14641	C1464	0.232700	0.245800	0.706800
C14651	C1465	0.238700	0.217900	0.706900
C14661	C1466	0.242500	0.204500	0.686700
C14671	C1467	0.240800	0.219400	0.665200
C14681	C1468	0.234600	0.245800	0.664100
C14691	C1469	0.338300	0.245600	0.700800
C14701	C1470	0.364800	0.235300	0.703300
C14711	C1471	0.373900	0.210400	0.716500
C14721	C1472	0.351900	0.199800	0.728900
C14731	C1473	0.322700	0.206200	0.725400
C14741	C1474	0.316100	0.227200	0.710500
C14751	C1475	0.521100	0.347100	0.558200
C14761	C1476	0.544000	0.329800	0.552500
C14771	C1477	0.564700	0.338700	0.535200
C14781	C1478	0.563600	0.365000	0.523500
C14791	C1479	0.540000	0.380900	0.529000
C14801	C1480	0.518700	0.371700	0.547400
C14811	C1481	0.493300	0.264600	0.637400
C14821	C1482	0.490300	0.240000	0.631500
C14831	C1483	0.513300	0.222000	0.641800
C14841	C1484	0.535200	0.233200	0.658500
C14851	C1485	0.540300	0.260700	0.658900
C14861	C1486	0.518400	0.276400	0.644000
C14871	C1487	0.509700	0.313400	0.698700
C14881	C1488	0.494400	0.294700	0.708400
C14891	C1489	0.505600	0.275900	0.723700
C14901	C1490	0.535000	0.277900	0.732900
C14911	C1491	0.553600	0.296500	0.722300
C14921	C1492	0.539700	0.315500	0.704100
C14931	C1493	0.455400	0.334600	0.753000
C14941	C1494	0.441600	0.312100	0.758400
C14951	C1495	0.453400	0.293600	0.773600
C14961	C1496	0.480400	0.298700	0.785400
C14971	C1497	0.492500	0.321900	0.780700
C14981	C1498	0.483100	0.336000	0.763000
C14991	C1499	0.405900	0.226000	0.651600
C15001	C1500	0.427500	0.234200	0.667000
C15011	C1501	0.444400	0.216400	0.683500
C15021	C1502	0.436300	0.188000	0.681100
C15031	C1503	0.410600	0.181400	0.664200
C15041	C1504	0.397300	0.200600	0.647500
C15051	C1505	0.415300	0.202700	0.581800
C15061	C1506	0.428000	0.178300	0.588300
C15071	C1507	0.406000	0.160900	0.593400
C15081	C1508	0.378100	0.163800	0.586100
C15091	C1509	0.367200	0.186400	0.582000
C15101	C1510	0.387400	0.209100	0.578700
C15111	C1511	0.463360	0.362830	0.503440
C15121	C1512	0.469700	0.389160	0.503500
C15131	C1513	0.491900	0.398670	0.488580
C15141	C1514	0.507700	0.381800	0.473590
C15151	C1515	0.501300	0.355500	0.473530
C15161	C1516	0.479180	0.346000	0.488450
C15171	C1517	0.391500	0.265310	0.490000
C15181	C1518	0.408700	0.286780	0.485100
C15191	C1519	0.412800	0.295090	0.460630
C15201	C1520	0.399700	0.281900	0.441000
C15211	C1521	0.382500	0.260500	0.445800
C15221	C1522	0.378300	0.252200	0.470300
C15231	C1523	0.325000	0.311390	0.503900
C15241	C1524	0.327700	0.301150	0.479900
C15251	C1525	0.304000	0.289680	0.468400
C15261	C1526	0.277700	0.288440	0.480800
C15271	C1527	0.275000	0.298670	0.504700
C15281	C1528	0.298700	0.310150	0.516300
C15291	C1529	0.543900	0.398200	0.621700
C15301	C1530	0.541400	0.376900	0.605900
C15311	C1531	0.564200	0.370200	0.590300
C15321	C1532	0.589300	0.384900	0.590300
C15331	C1533	0.591800	0.406200	0.606100
C15341	C1534	0.569000	0.412900	0.621700
C15351	C1535	0.366300	0.301700	0.760400
C15361	C1536	0.375600	0.279300	0.748300
C15371	C1537	0.385000	0.257200	0.765400
C15381	C1538	0.382900	0.258500	0.790800
C15391	C1539	0.373900	0.281000	0.800500
C15401	C1540	0.363000	0.302600	0.785400
C15411	C1541	0.276500	0.310600	0.772400
C15421	C1542	0.264300	0.299000	0.792800
C15431	C1543	0.264700	0.312300	0.817200
C15441	C1544	0.275700	0.338600	0.819000
C15451	C1545	0.284700	0.351700	0.795200
C15461	C1546	0.286300	0.336500	0.773900
C15471	C1547	0.249800	0.279000	0.602900
C15481	C1548	0.241000	0.253800	0.597700
C15491	C1549	0.218500	0.249400	0.581000
C15501	C1550	0.204800	0.270200	0.569600
C15511	C1551	0.213600	0.295400	0.574800
C15521	C1552	0.236000	0.299800	0.591500
C15531	C1553	0.196700	0.369700	0.716500
C15541	C1554	0.174500	0.379100	0.733000
C15551	C1555	0.145800	0.385500	0.724000
C15561	C1556	0.141100	0.385200	0.695800
C15571	C1557	0.164700	0.374500	0.678100
C15581	C1558	0.191500	0.367500	0.690400
C15591	C1559	0.411200	0.190100	0.497100
C15601	C1560	0.405300	0.194500	0.470400
C15611	C1561	0.377200	0.187100	0.461700
C15621	C1562	0.356800	0.178700	0.477400
C15631	C1563	0.362400	0.173400	0.503700
C15641	C1564	0.390300	0.180400	0.514300
Cd2091	Cd209	0.393590	0.339800	0.604000
Cd2101	Cd210	0.450750	0.317880	0.658000
Cd2111	Cd211	0.335860	0.357930	0.656740
Cd2121	Cd212	0.397550	0.338390	0.710000
Cd2131	Cd213	0.373250	0.286990	0.660430
Cd2141	Cd214	0.473430	0.374680	0.602910
Cd2151	Cd215	0.332120	0.360630	0.549570
Cd2161	Cd216	0.316940	0.309380	0.715970
Cd2171	Cd217	0.270040	0.377620	0.702550
Cd2181	Cd218	0.456810	0.317780	0.553590
Cd2191	Cd219	0.373810	0.292900	0.544710
Cd2201	Cd220	0.315420	0.307290	0.599550
Cd2211	Cd221	0.260340	0.315080	0.655760
Cd2221	Cd222	0.424110	0.264960	0.603970
S3261	S326	0.354010	0.321060	0.630300
S3271	S327	0.412160	0.303450	0.576620
S3281	S328	0.434290	0.355810	0.630700
S3291	S329	0.414530	0.299800	0.687160
S3301	S330	0.295540	0.339430	0.683150
S3311	S331	0.385610	0.248230	0.632510
S3321	S332	0.292390	0.341030	0.573580
S3331	S333	0.440130	0.359140	0.732790
S3341	S334	0.357030	0.329060	0.741660
S3351	S335	0.328430	0.273540	0.685240
S3361	S336	0.497720	0.335330	0.676690
S3371	S337	0.467680	0.286380	0.623860
Cd2231	Cd223	0.231350	0.310450	0.725960
Cd2241	Cd224	0.438750	0.242110	0.531980
S3381	S338	0.277640	0.292370	0.744630
S3391	S339	0.473590	0.279760	0.526310
S3401	S340	0.340020	0.270630	0.575420
S3411	S341	0.496410	0.335950	0.580510
S3421	S342	0.507760	0.392710	0.636320
S3431	S343	0.229580	0.360070	0.728490
S3441	S344	0.388740	0.254790	0.518250
S3451	S345	0.277890	0.282360	0.625000
S3461	S346	0.442730	0.227710	0.577620
S3471	S347	0.356900	0.330500	0.518380
S3481	S348	0.222100	0.293210	0.682870
S3491	S349	0.433700	0.350110	0.523710
S3501	S350	0.444880	0.199150	0.509820
C15651	C1565	0.313600	0.248400	0.556200
C15661	C1566	0.295100	0.225900	0.520900
C15671	C1567	0.316300	0.241100	0.531600
C15681	C1568	0.298500	0.266700	0.543400
C15691	C1569	0.005100	0.770400	0.541000
C15701	C1570	0.030100	0.766700	0.526700
C15711	C1571	0.056900	0.761300	0.537500
C15721	C1572	0.058500	0.757300	0.563100
C15731	C1573	0.034900	0.759900	0.578000
C15741	C1574	0.008800	0.767700	0.567000
C15751	C1575	0.731600	0.759600	0.684400
C15761	C1576	0.732700	0.745800	0.706800
C15771	C1577	0.738700	0.717900	0.706900
C15781	C1578	0.742500	0.704500	0.686700
C15791	C1579	0.740800	0.719400	0.665200
C15801	C1580	0.734600	0.745800	0.664100
C15811	C1581	0.838300	0.745600	0.700800
C15821	C1582	0.864800	0.735300	0.703300
C15831	C1583	0.873900	0.710400	0.716500
C15841	C1584	0.851900	0.699800	0.728900
C15851	C1585	0.822700	0.706200	0.725400
C15861	C1586	0.816100	0.727200	0.710500
C15871	C1587	0.021100	0.847100	0.558200
C15881	C1588	0.044000	0.829800	0.552500
C15891	C1589	0.064700	0.838700	0.535200
C15901	C1590	0.063600	0.865000	0.523500
C15911	C1591	0.040000	0.880900	0.529000
C15921	C1592	0.018700	0.871700	0.547400
C15931	C1593	0.993300	0.764600	0.637400
C15941	C1594	0.990300	0.740000	0.631500
C15951	C1595	0.013300	0.722000	0.641800
C15961	C1596	0.035200	0.733200	0.658500
C15971	C1597	0.040300	0.760700	0.658900
C15981	C1598	0.018400	0.776400	0.644000
C15991	C1599	0.009700	0.813400	0.698700
C16001	C1600	0.994400	0.794700	0.708400
C16011	C1601	0.005600	0.775900	0.723700
C16021	C1602	0.035000	0.777900	0.732900
C16031	C1603	0.053600	0.796500	0.722300
C16041	C1604	0.039700	0.815500	0.704100
C16051	C1605	0.955400	0.834600	0.753000
C16061	C1606	0.941600	0.812100	0.758400
C16071	C1607	0.953400	0.793600	0.773600
C16081	C1608	0.980400	0.798700	0.785400
C16091	C1609	0.992500	0.821900	0.780700
C16101	C1610	0.983100	0.836000	0.763000
C16111	C1611	0.905900	0.726000	0.651600
C16121	C1612	0.927500	0.734200	0.667000
C16131	C1613	0.944400	0.716400	0.683500
C16141	C1614	0.936300	0.688000	0.681100
C16151	C1615	0.910600	0.681400	0.664200
C16161	C1616	0.897300	0.700600	0.647500
C16171	C1617	0.915300	0.702700	0.581800
C16181	C1618	0.928000	0.678300	0.588300
C16191	C1619	0.906000	0.660900	0.593400
C16201	C1620	0.878100	0.663800	0.586100
C16211	C1621	0.867200	0.686400	0.582000
C16221	C1622	0.887400	0.709100	0.578700
C16231	C1623	0.963360	0.862830	0.503440
C16241	C1624	0.969700	0.889160	0.503500
C16251	C1625	0.991900	0.898670	0.488580
C16261	C1626	0.007700	0.881800	0.473590
C16271	C1627	0.001300	0.855500	0.473530
C16281	C1628	0.979180	0.846000	0.488450
C16291	C1629	0.891500	0.765310	0.490000
C16301	C1630	0.908700	0.786780	0.485100
C16311	C1631	0.912800	0.795090	0.460630
C16321	C1632	0.899700	0.781900	0.441000
C16331	C1633	0.882500	0.760500	0.445800
C16341	C1634	0.878300	0.752200	0.470300
C16351	C1635	0.825000	0.811390	0.503900
C16361	C1636	0.827700	0.801150	0.479900
C16371	C1637	0.804000	0.789680	0.468400
C16381	C1638	0.777700	0.788440	0.480800
C16391	C1639	0.775000	0.798670	0.504700
C16401	C1640	0.798700	0.810150	0.516300
C16411	C1641	0.043900	0.898200	0.621700
C16421	C1642	0.041400	0.876900	0.605900
C16431	C1643	0.064200	0.870200	0.590300
C16441	C1644	0.089300	0.884900	0.590300
C16451	C1645	0.091800	0.906200	0.606100
C16461	C1646	0.069000	0.912900	0.621700
C16471	C1647	0.866300	0.801700	0.760400
C16481	C1648	0.875600	0.779300	0.748300
C16491	C1649	0.885000	0.757200	0.765400
C16501	C1650	0.882900	0.758500	0.790800
C16511	C1651	0.873900	0.781000	0.800500
C16521	C1652	0.863000	0.802600	0.785400
C16531	C1653	0.776500	0.810600	0.772400
C16541	C1654	0.764300	0.799000	0.792800
C16551	C1655	0.764700	0.812300	0.817200
C16561	C1656	0.775700	0.838600	0.819000
C16571	C1657	0.784700	0.851700	0.795200
C16581	C1658	0.786300	0.836500	0.773900
C16591	C1659	0.749800	0.779000	0.602900
C16601	C1660	0.741000	0.753800	0.597700
C16611	C1661	0.718500	0.749400	0.581000
C16621	C1662	0.704800	0.770200	0.569600
C16631	C1663	0.713600	0.795400	0.574800
C16641	C1664	0.736000	0.799800	0.591500
C16651	C1665	0.696700	0.869700	0.716500
C16661	C1666	0.674500	0.879100	0.733000
C16671	C1667	0.645800	0.885500	0.724000
C16681	C1668	0.641100	0.885200	0.695800
C16691	C1669	0.664700	0.874500	0.678100
C16701	C1670	0.691500	0.867500	0.690400
C16711	C1671	0.911200	0.690100	0.497100
C16721	C1672	0.905300	0.694500	0.470400
C16731	C1673	0.877200	0.687100	0.461700
C16741	C1674	0.856800	0.678700	0.477400
C16751	C1675	0.862400	0.673400	0.503700
C16761	C1676	0.890300	0.680400	0.514300
Cd2251	Cd225	0.893590	0.839800	0.604000
Cd2261	Cd226	0.950750	0.817880	0.658000
Cd2271	Cd227	0.835860	0.857930	0.656740
Cd2281	Cd228	0.897550	0.838390	0.710000
Cd2291	Cd229	0.873250	0.786990	0.660430
Cd2301	Cd230	0.973430	0.874680	0.602910
Cd2311	Cd231	0.832120	0.860630	0.549570
Cd2321	Cd232	0.816940	0.809380	0.715970
Cd2331	Cd233	0.770040	0.877620	0.702550
Cd2341	Cd234	0.956810	0.817780	0.553590
Cd2351	Cd235	0.873810	0.792900	0.544710
Cd2361	Cd236	0.815420	0.807290	0.599550
Cd2371	Cd237	0.760340	0.815080	0.655760
Cd2381	Cd238	0.924110	0.764960	0.603970
S3511	S351	0.854010	0.821060	0.630300
S3521	S352	0.912160	0.803450	0.576620
S3531	S353	0.934290	0.855810	0.630700
S3541	S354	0.914530	0.799800	0.687160
S3551	S355	0.795540	0.839430	0.683150
S3561	S356	0.885610	0.748230	0.632510
S3571	S357	0.792390	0.841030	0.573580
S3581	S358	0.940130	0.859140	0.732790
S3591	S359	0.857030	0.829060	0.741660
S3601	S360	0.828430	0.773540	0.685240
S3611	S361	0.997720	0.835330	0.676690
S3621	S362	0.967680	0.786380	0.623860
Cd2391	Cd239	0.731350	0.810450	0.725960
Cd2401	Cd240	0.938750	0.742110	0.531980
S3631	S363	0.777640	0.792370	0.744630
S3641	S364	0.973590	0.779760	0.526310
S3651	S365	0.840020	0.770630	0.575420
S3661	S366	0.996410	0.835950	0.580510
S3671	S367	0.007760	0.892710	0.636320
S3681	S368	0.729580	0.860070	0.728490
S3691	S369	0.888740	0.754790	0.518250
S3701	S370	0.777890	0.782360	0.625000
S3711	S371	0.942730	0.727710	0.577620
S3721	S372	0.856900	0.830500	0.518380
S3731	S373	0.722100	0.793210	0.682870
S3741	S374	0.933700	0.850110	0.523710
S3751	S375	0.944880	0.699150	0.509820
C16771	C1677	0.813600	0.748400	0.556200
C16781	C1678	0.795100	0.725900	0.520900
C16791	C1679	0.816300	0.741100	0.531600
C16801	C1680	0.798500	0.766700	0.543400
C16811	C1681	0.005100	0.270400	0.041000
C16821	C1682	0.030100	0.266700	0.026700
C16831	C1683	0.056900	0.261300	0.037500
C16841	C1684	0.058500	0.257300	0.063100
C16851	C1685	0.034900	0.259900	0.078000
C16861	C1686	0.008800	0.267700	0.067000
C16871	C1687	0.731600	0.259600	0.184400
C16881	C1688	0.732700	0.245800	0.206800
C16891	C1689	0.738700	0.217900	0.206900
C16901	C1690	0.742500	0.204500	0.186700
C16911	C1691	0.740800	0.219400	0.165200
C16921	C1692	0.734600	0.245800	0.164100
C16931	C1693	0.838300	0.245600	0.200800
C16941	C1694	0.864800	0.235300	0.203300
C16951	C1695	0.873900	0.210400	0.216500
C16961	C1696	0.851900	0.199800	0.228900
C16971	C1697	0.822700	0.206200	0.225400
C16981	C1698	0.816100	0.227200	0.210500
C16991	C1699	0.021100	0.347100	0.058200
C17001	C1700	0.044000	0.329800	0.052500
C17011	C1701	0.064700	0.338700	0.035200
C17021	C1702	0.063600	0.365000	0.023500
C17031	C1703	0.040000	0.380900	0.029000
C17041	C1704	0.018700	0.371700	0.047400
C17051	C1705	0.993300	0.264600	0.137400
C17061	C1706	0.990300	0.240000	0.131500
C17071	C1707	0.013300	0.222000	0.141800
C17081	C1708	0.035200	0.233200	0.158500
C17091	C1709	0.040300	0.260700	0.158900
C17101	C1710	0.018400	0.276400	0.144000
C17111	C1711	0.009700	0.313400	0.198700
C17121	C1712	0.994400	0.294700	0.208400
C17131	C1713	0.005600	0.275900	0.223700
C17141	C1714	0.035000	0.277900	0.232900
C17151	C1715	0.053600	0.296500	0.222300
C17161	C1716	0.039700	0.315500	0.204100
C17171	C1717	0.955400	0.334600	0.253000
C17181	C1718	0.941600	0.312100	0.258400
C17191	C1719	0.953400	0.293600	0.273600
C17201	C1720	0.980400	0.298700	0.285400
C17211	C1721	0.992500	0.321900	0.280700
C17221	C1722	0.983100	0.336000	0.263000
C17231	C1723	0.905900	0.226000	0.151600
C17241	C1724	0.927500	0.234200	0.167000
C17251	C1725	0.944400	0.216400	0.183500
C17261	C1726	0.936300	0.188000	0.181100
C17271	C1727	0.910600	0.181400	0.164200
C17281	C1728	0.897300	0.200600	0.147500
C17291	C1729	0.915300	0.202700	0.081800
C17301	C1730	0.928000	0.178300	0.088300
C17311	C1731	0.906000	0.160900	0.093400
C17321	C1732	0.878100	0.163800	0.086100
C17331	C1733	0.867200	0.186400	0.082000
C17341	C1734	0.887400	0.209100	0.078700
C17351	C1735	0.963360	0.362830	0.003440
C17361	C1736	0.969700	0.389160	0.003500
C17371	C1737	0.991900	0.398670	0.988580
C17381	C1738	0.007700	0.381800	0.973590
C17391	C1739	0.001300	0.355500	0.973530
C17401	C1740	0.979180	0.346000	0.988450
C17411	C1741	0.891500	0.265310	0.990000
C17421	C1742	0.908700	0.286780	0.985100
C17431	C1743	0.912800	0.295090	0.960630
C17441	C1744	0.899700	0.281900	0.941000
C17451	C1745	0.882500	0.260500	0.945800
C17461	C1746	0.878300	0.252200	0.970300
C17471	C1747	0.825000	0.311390	0.003900
C17481	C1748	0.827700	0.301150	0.979900
C17491	C1749	0.804000	0.289680	0.968400
C17501	C1750	0.777700	0.288440	0.980800
C17511	C1751	0.775000	0.298670	0.004700
C17521	C1752	0.798700	0.310150	0.016300
C17531	C1753	0.043900	0.398200	0.121700
C17541	C1754	0.041400	0.376900	0.105900
C17551	C1755	0.064200	0.370200	0.090300
C17561	C1756	0.089300	0.384900	0.090300
C17571	C1757	0.091800	0.406200	0.106100
C17581	C1758	0.069000	0.412900	0.121700
C17591	C1759	0.866300	0.301700	0.260400
C17601	C1760	0.875600	0.279300	0.248300
C17611	C1761	0.885000	0.257200	0.265400
C17621	C1762	0.882900	0.258500	0.290800
C17631	C1763	0.873900	0.281000	0.300500
C17641	C1764	0.863000	0.302600	0.285400
C17651	C1765	0.776500	0.310600	0.272400
C17661	C1766	0.764300	0.299000	0.292800
C17671	C1767	0.764700	0.312300	0.317200
C17681	C1768	0.775700	0.338600	0.319000
C17691	C1769	0.784700	0.351700	0.295200
C17701	C1770	0.786300	0.336500	0.273900
C17711	C1771	0.749800	0.279000	0.102900
C17721	C1772	0.741000	0.253800	0.097700
C17731	C1773	0.718500	0.249400	0.081000
C17741	C1774	0.704800	0.270200	0.069600
C17751	C1775	0.713600	0.295400	0.074800
C17761	C1776	0.736000	0.299800	0.091500
C17771	C1777	0.696700	0.369700	0.216500
C17781	C1778	0.674500	0.379100	0.233000
C17791	C1779	0.645800	0.385500	0.224000
C17801	C1780	0.641100	0.385200	0.195800
C17811	C1781	0.664700	0.374500	0.178100
C17821	C1782	0.691500	0.367500	0.190400
C17831	C1783	0.911200	0.190100	0.997100
C17841	C1784	0.905300	0.194500	0.970400
C17851	C1785	0.877200	0.187100	0.961700
C17861	C1786	0.856800	0.178700	0.977400
C17871	C1787	0.862400	0.173400	0.003700
C17881	C1788	0.890300	0.180400	0.014300
Cd2411	Cd241	0.893590	0.339800	0.104000
Cd2421	Cd242	0.950750	0.317880	0.158000
Cd2431	Cd243	0.835860	0.357930	0.156740
Cd2441	Cd244	0.897550	0.338390	0.210000
Cd2451	Cd245	0.873250	0.286990	0.160430
Cd2461	Cd246	0.973430	0.374680	0.102910
Cd2471	Cd247	0.832120	0.360630	0.049570
Cd2481	Cd248	0.816940	0.309380	0.215970
Cd2491	Cd249	0.770040	0.377620	0.202550
Cd2501	Cd250	0.956810	0.317780	0.053590
Cd2511	Cd251	0.873810	0.292900	0.044710
Cd2521	Cd252	0.815420	0.307290	0.099550
Cd2531	Cd253	0.760340	0.315080	0.155760
Cd2541	Cd254	0.924110	0.264960	0.103970
S3761	S376	0.854010	0.321060	0.130300
S3771	S377	0.912160	0.303450	0.076620
S3781	S378	0.934290	0.355810	0.130700
S3791	S379	0.914530	0.299800	0.187160
S3801	S380	0.795540	0.339430	0.183150
S3811	S381	0.885610	0.248230	0.132510
S3821	S382	0.792390	0.341030	0.073580
S3831	S383	0.940130	0.359140	0.232790
S3841	S384	0.857030	0.329060	0.241660
S3851	S385	0.828430	0.273540	0.185240
S3861	S386	0.997720	0.335330	0.176690
S3871	S387	0.967680	0.286380	0.123860
Cd2551	Cd255	0.731350	0.310450	0.225960
Cd2561	Cd256	0.938750	0.242110	0.031980
S3881	S388	0.777640	0.292370	0.244630
S3891	S389	0.973590	0.279760	0.026310
S3901	S390	0.840020	0.270630	0.075420
S3911	S391	0.996410	0.335950	0.080510
S3921	S392	0.007760	0.392710	0.136320
S3931	S393	0.729580	0.360070	0.228490
S3941	S394	0.888740	0.254790	0.018250
S3951	S395	0.777890	0.282360	0.125000
S3961	S396	0.942730	0.227710	0.077620
S3971	S397	0.856900	0.330500	0.018380
S3981	S398	0.722100	0.293210	0.182870
S3991	S399	0.933700	0.350110	0.023710
S4001	S400	0.944880	0.199150	0.009820
C17891	C1789	0.813600	0.248400	0.056200
C17901	C1790	0.795100	0.225900	0.020900
C17911	C1791	0.816300	0.241100	0.031600
C17921	C1792	0.798500	0.266700	0.043400
S4011	S401	0.625000	0.625000	0.935060
S4021	S402	0.625000	0.625000	0.825620
S4031	S403	0.625000	0.125000	0.435060
S4041	S404	0.625000	0.125000	0.325620
S4051	S405	0.125000	0.125000	0.935060
S4061	S406	0.125000	0.125000	0.825620
S4071	S407	0.125000	0.625000	0.435060
S4081	S408	0.125000	0.625000	0.325620
S4091	S409	0.875000	0.375000	0.185060
S4101	S410	0.875000	0.375000	0.075620
S4111	S411	0.875000	0.875000	0.685060
S4121	S412	0.875000	0.875000	0.575620
S4131	S413	0.375000	0.875000	0.185060
S4141	S414	0.375000	0.875000	0.075620
S4151	S415	0.375000	0.375000	0.685060
S4161	S416	0.375000	0.375000	0.575620
C17931	C1793	0.255100	0.520400	0.959000
C17941	C1794	0.280100	0.516700	0.973300
C17951	C1795	0.306900	0.511300	0.962500
C17961	C1796	0.308500	0.507300	0.936900
C17971	C1797	0.284900	0.509900	0.922000
C17981	C1798	0.258800	0.517700	0.933000
C17991	C1799	0.981600	0.509600	0.815600
C18001	C1800	0.982700	0.495800	0.793200
C18011	C1801	0.988700	0.467900	0.793100
C18021	C1802	0.992500	0.454500	0.813300
C18031	C1803	0.990800	0.469400	0.834800
C18041	C1804	0.984600	0.495800	0.835900
C18051	C1805	0.088300	0.495600	0.799200
C18061	C1806	0.114800	0.485300	0.796700
C18071	C1807	0.123900	0.460400	0.783500
C18081	C1808	0.101900	0.449800	0.771100
C18091	C1809	0.072700	0.456200	0.774600
C18101	C1810	0.066100	0.477200	0.789500
C18111	C1811	0.271100	0.597100	0.941800
C18121	C1812	0.294000	0.579800	0.947500
C18131	C1813	0.314700	0.588700	0.964800
C18141	C1814	0.313600	0.615000	0.976500
C18151	C1815	0.290000	0.630900	0.971000
C18161	C1816	0.268700	0.621700	0.952600
C18171	C1817	0.243300	0.514600	0.862600
C18181	C1818	0.240300	0.490000	0.868500
C18191	C1819	0.263300	0.472000	0.858200
C18201	C1820	0.285200	0.483200	0.841500
C18211	C1821	0.290300	0.510700	0.841100
C18221	C1822	0.268400	0.526400	0.856000
C18231	C1823	0.259700	0.563400	0.801300
C18241	C1824	0.244400	0.544700	0.791600
C18251	C1825	0.255600	0.525900	0.776300
C18261	C1826	0.285000	0.527900	0.767100
C18271	C1827	0.303600	0.546500	0.777700
C18281	C1828	0.289700	0.565500	0.795900
C18291	C1829	0.205400	0.584600	0.747000
C18301	C1830	0.191600	0.562100	0.741600
C18311	C1831	0.203400	0.543600	0.726400
C18321	C1832	0.230400	0.548700	0.714600
C18331	C1833	0.242500	0.571900	0.719300
C18341	C1834	0.233100	0.586000	0.737000
C18351	C1835	0.155900	0.476000	0.848400
C18361	C1836	0.177500	0.484200	0.833000
C18371	C1837	0.194400	0.466400	0.816500
C18381	C1838	0.186300	0.438000	0.818900
C18391	C1839	0.160600	0.431400	0.835800
C18401	C1840	0.147300	0.450600	0.852500
C18411	C1841	0.165300	0.452700	0.918200
C18421	C1842	0.178000	0.428300	0.911700
C18431	C1843	0.156000	0.410900	0.906600
C18441	C1844	0.128100	0.413800	0.913900
C18451	C1845	0.117200	0.436400	0.918000
C18461	C1846	0.137400	0.459100	0.921300
C18471	C1847	0.213360	0.612830	0.996560
C18481	C1848	0.219700	0.639160	0.996500
C18491	C1849	0.241900	0.648670	0.011420
C18501	C1850	0.257700	0.631800	0.026410
C18511	C1851	0.251300	0.605500	0.026470
C18521	C1852	0.229180	0.596000	0.011550
C18531	C1853	0.141500	0.515310	0.010000
C18541	C1854	0.158700	0.536780	0.014900
C18551	C1855	0.162800	0.545090	0.039370
C18561	C1856	0.149700	0.531900	0.059000
C18571	C1857	0.132500	0.510500	0.054200
C18581	C1858	0.128300	0.502200	0.029700
C18591	C1859	0.075000	0.561390	0.996100
C18601	C1860	0.077700	0.551150	0.020100
C18611	C1861	0.054000	0.539680	0.031600
C18621	C1862	0.027700	0.538440	0.019200
C18631	C1863	0.025000	0.548670	0.995300
C18641	C1864	0.048700	0.560150	0.983700
C18651	C1865	0.293900	0.648200	0.878300
C18661	C1866	0.291400	0.626900	0.894100
C18671	C1867	0.314200	0.620200	0.909700
C18681	C1868	0.339300	0.634900	0.909700
C18691	C1869	0.341800	0.656200	0.893900
C18701	C1870	0.319000	0.662900	0.878300
C18711	C1871	0.116300	0.551700	0.739600
C18721	C1872	0.125600	0.529300	0.751700
C18731	C1873	0.135000	0.507200	0.734600
C18741	C1874	0.132900	0.508500	0.709200
C18751	C1875	0.123900	0.531000	0.699500
C18761	C1876	0.113000	0.552600	0.714600
C18771	C1877	0.026500	0.560600	0.727600
C18781	C1878	0.014300	0.549000	0.707200
C18791	C1879	0.014700	0.562300	0.682800
C18801	C1880	0.025700	0.588600	0.681000
C18811	C1881	0.034700	0.601700	0.704800
C18821	C1882	0.036300	0.586500	0.726100
C18831	C1883	0.999800	0.529000	0.897100
C18841	C1884	0.991000	0.503800	0.902300
C18851	C1885	0.968500	0.499400	0.919000
C18861	C1886	0.954800	0.520200	0.930400
C18871	C1887	0.963600	0.545400	0.925200
C18881	C1888	0.986000	0.549800	0.908500
C18891	C1889	0.946700	0.619700	0.783500
C18901	C1890	0.924500	0.629100	0.767000
C18911	C1891	0.895800	0.635500	0.776000
C18921	C1892	0.891100	0.635200	0.804200
C18931	C1893	0.914700	0.624500	0.821900
C18941	C1894	0.941500	0.617500	0.809600
C18951	C1895	0.161200	0.440100	0.002900
C18961	C1896	0.155300	0.444500	0.029600
C18971	C1897	0.127200	0.437100	0.038300
C18981	C1898	0.106800	0.428700	0.022600
C18991	C1899	0.112400	0.423400	0.996300
C19001	C1900	0.140300	0.430400	0.985700
Cd2571	Cd257	0.143590	0.589800	0.896000
Cd2581	Cd258	0.200750	0.567880	0.842000
Cd2591	Cd259	0.085860	0.607930	0.843260
Cd2601	Cd260	0.147550	0.588390	0.790000
Cd2611	Cd261	0.123250	0.536990	0.839570
Cd2621	Cd262	0.223430	0.624680	0.897090
Cd2631	Cd263	0.082120	0.610630	0.950430
Cd2641	Cd264	0.066940	0.559380	0.784030
Cd2651	Cd265	0.020040	0.627620	0.797450
Cd2661	Cd266	0.206810	0.567780	0.946410
Cd2671	Cd267	0.123810	0.542900	0.955290
Cd2681	Cd268	0.065420	0.557290	0.900450
Cd2691	Cd269	0.010340	0.565080	0.844240
Cd2701	Cd270	0.174110	0.514960	0.896030
S4171	S417	0.104010	0.571060	0.869700
S4181	S418	0.162160	0.553450	0.923380
S4191	S419	0.184290	0.605810	0.869300
S4201	S420	0.164530	0.549800	0.812840
S4211	S421	0.045540	0.589430	0.816850
S4221	S422	0.135610	0.498230	0.867490
S4231	S423	0.042390	0.591030	0.926420
S4241	S424	0.190130	0.609140	0.767210
S4251	S425	0.107030	0.579060	0.758340
S4261	S426	0.078430	0.523540	0.814760
S4271	S427	0.247720	0.585330	0.823310
S4281	S428	0.217680	0.536380	0.876140
Cd2711	Cd271	0.981350	0.560450	0.774040
Cd2721	Cd272	0.188750	0.492110	0.968020
S4291	S429	0.027640	0.542370	0.755370
S4301	S430	0.223590	0.529760	0.973690
S4311	S431	0.090020	0.520630	0.924580
S4321	S432	0.246410	0.585950	0.919490
S4331	S433	0.257760	0.642710	0.863680
S4341	S434	0.979580	0.610070	0.771510
S4351	S435	0.138740	0.504790	0.981750
S4361	S436	0.027890	0.532360	0.875000
S4371	S437	0.192730	0.477710	0.922380
S4381	S438	0.106900	0.580500	0.981620
S4391	S439	0.972100	0.543210	0.817130
S4401	S440	0.183700	0.600110	0.976290
S4411	S441	0.194880	0.449150	0.990180
C19011	C1901	0.063600	0.498400	0.943800
C19021	C1902	0.045100	0.475900	0.979100
C19031	C1903	0.066300	0.491100	0.968400
C19041	C1904	0.048500	0.516700	0.956600
C19051	C1905	0.255100	0.020400	0.459000
C19061	C1906	0.280100	0.016700	0.473300
C19071	C1907	0.306900	0.011300	0.462500
C19081	C1908	0.308500	0.007300	0.436900
C19091	C1909	0.284900	0.009900	0.422000
C19101	C1910	0.258800	0.017700	0.433000
C19111	C1911	0.981600	0.009600	0.315600
C19121	C1912	0.982700	0.995800	0.293200
C19131	C1913	0.988700	0.967900	0.293100
C19141	C1914	0.992500	0.954500	0.313300
C19151	C1915	0.990800	0.969400	0.334800
C19161	C1916	0.984600	0.995800	0.335900
C19171	C1917	0.088300	0.995600	0.299200
C19181	C1918	0.114800	0.985300	0.296700
C19191	C1919	0.123900	0.960400	0.283500
C19201	C1920	0.101900	0.949800	0.271100
C19211	C1921	0.072700	0.956200	0.274600
C19221	C1922	0.066100	0.977200	0.289500
C19231	C1923	0.271100	0.097100	0.441800
C19241	C1924	0.294000	0.079800	0.447500
C19251	C1925	0.314700	0.088700	0.464800
C19261	C1926	0.313600	0.115000	0.476500
C19271	C1927	0.290000	0.130900	0.471000
C19281	C1928	0.268700	0.121700	0.452600
C19291	C1929	0.243300	0.014600	0.362600
C19301	C1930	0.240300	0.990000	0.368500
C19311	C1931	0.263300	0.972000	0.358200
C19321	C1932	0.285200	0.983200	0.341500
C19331	C1933	0.290300	0.010700	0.341100
C19341	C1934	0.268400	0.026400	0.356000
C19351	C1935	0.259700	0.063400	0.301300
C19361	C1936	0.244400	0.044700	0.291600
C19371	C1937	0.255600	0.025900	0.276300
C19381	C1938	0.285000	0.027900	0.267100
C19391	C1939	0.303600	0.046500	0.277700
C19401	C1940	0.289700	0.065500	0.295900
C19411	C1941	0.205400	0.084600	0.247000
C19421	C1942	0.191600	0.062100	0.241600
C19431	C1943	0.203400	0.043600	0.226400
C19441	C1944	0.230400	0.048700	0.214600
C19451	C1945	0.242500	0.071900	0.219300
C19461	C1946	0.233100	0.086000	0.237000
C19471	C1947	0.155900	0.976000	0.348400
C19481	C1948	0.177500	0.984200	0.333000
C19491	C1949	0.194400	0.966400	0.316500
C19501	C1950	0.186300	0.938000	0.318900
C19511	C1951	0.160600	0.931400	0.335800
C19521	C1952	0.147300	0.950600	0.352500
C19531	C1953	0.165300	0.952700	0.418200
C19541	C1954	0.178000	0.928300	0.411700
C19551	C1955	0.156000	0.910900	0.406600
C19561	C1956	0.128100	0.913800	0.413900
C19571	C1957	0.117200	0.936400	0.418000
C19581	C1958	0.137400	0.959100	0.421300
C19591	C1959	0.213360	0.112830	0.496560
C19601	C1960	0.219700	0.139160	0.496500
C19611	C1961	0.241900	0.148670	0.511420
C19621	C1962	0.257700	0.131800	0.526410
C19631	C1963	0.251300	0.105500	0.526470
C19641	C1964	0.229180	0.096000	0.511550
C19651	C1965	0.141500	0.015310	0.510000
C19661	C1966	0.158700	0.036780	0.514900
C19671	C1967	0.162800	0.045090	0.539370
C19681	C1968	0.149700	0.031900	0.559000
C19691	C1969	0.132500	0.010500	0.554200
C19701	C1970	0.128300	0.002200	0.529700
C19711	C1971	0.075000	0.061390	0.496100
C19721	C1972	0.077700	0.051150	0.520100
C19731	C1973	0.054000	0.039680	0.531600
C19741	C1974	0.027700	0.038440	0.519200
C19751	C1975	0.025000	0.048670	0.495300
C19761	C1976	0.048700	0.060150	0.483700
C19771	C1977	0.293900	0.148200	0.378300
C19781	C1978	0.291400	0.126900	0.394100
C19791	C1979	0.314200	0.120200	0.409700
C19801	C1980	0.339300	0.134900	0.409700
C19811	C1981	0.341800	0.156200	0.393900
C19821	C1982	0.319000	0.162900	0.378300
C19831	C1983	0.116300	0.051700	0.239600
C19841	C1984	0.125600	0.029300	0.251700
C19851	C1985	0.135000	0.007200	0.234600
C19861	C1986	0.132900	0.008500	0.209200
C19871	C1987	0.123900	0.031000	0.199500
C19881	C1988	0.113000	0.052600	0.214600
C19891	C1989	0.026500	0.060600	0.227600
C19901	C1990	0.014300	0.049000	0.207200
C19911	C1991	0.014700	0.062300	0.182800
C19921	C1992	0.025700	0.088600	0.181000
C19931	C1993	0.034700	0.101700	0.204800
C19941	C1994	0.036300	0.086500	0.226100
C19951	C1995	0.999800	0.029000	0.397100
C19961	C1996	0.991000	0.003800	0.402300
C19971	C1997	0.968500	0.999400	0.419000
C19981	C1998	0.954800	0.020200	0.430400
C19991	C1999	0.963600	0.045400	0.425200
C20001	C2000	0.986000	0.049800	0.408500
C20011	C2001	0.946700	0.119700	0.283500
C20021	C2002	0.924500	0.129100	0.267000
C20031	C2003	0.895800	0.135500	0.276000
C20041	C2004	0.891100	0.135200	0.304200
C20051	C2005	0.914700	0.124500	0.321900
C20061	C2006	0.941500	0.117500	0.309600
C20071	C2007	0.161200	0.940100	0.502900
C20081	C2008	0.155300	0.944500	0.529600
C20091	C2009	0.127200	0.937100	0.538300
C20101	C2010	0.106800	0.928700	0.522600
C20111	C2011	0.112400	0.923400	0.496300
C20121	C2012	0.140300	0.930400	0.485700
Cd2731	Cd273	0.143590	0.089800	0.396000
Cd2741	Cd274	0.200750	0.067880	0.342000
Cd2751	Cd275	0.085860	0.107930	0.343260
Cd2761	Cd276	0.147550	0.088390	0.290000
Cd2771	Cd277	0.123250	0.036990	0.339570
Cd2781	Cd278	0.223430	0.124680	0.397090
Cd2791	Cd279	0.082120	0.110630	0.450430
Cd2801	Cd280	0.066940	0.059380	0.284030
Cd2811	Cd281	0.020040	0.127620	0.297450
Cd2821	Cd282	0.206810	0.067780	0.446410
Cd2831	Cd283	0.123810	0.042900	0.455290
Cd2841	Cd284	0.065420	0.057290	0.400450
Cd2851	Cd285	0.010340	0.065080	0.344240
Cd2861	Cd286	0.174110	0.014960	0.396030
S4421	S442	0.104010	0.071060	0.369700
S4431	S443	0.162160	0.053450	0.423380
S4441	S444	0.184290	0.105810	0.369300
S4451	S445	0.164530	0.049800	0.312840
S4461	S446	0.045540	0.089430	0.316850
S4471	S447	0.135610	0.998230	0.367490
S4481	S448	0.042390	0.091030	0.426420
S4491	S449	0.190130	0.109140	0.267210
S4501	S450	0.107030	0.079060	0.258340
S4511	S451	0.078430	0.023540	0.314760
S4521	S452	0.247720	0.085330	0.323310
S4531	S453	0.217680	0.036380	0.376140
Cd2871	Cd287	0.981350	0.060450	0.274040
Cd2881	Cd288	0.188750	0.992110	0.468020
S4541	S454	0.027640	0.042370	0.255370
S4551	S455	0.223590	0.029760	0.473690
S4561	S456	0.090020	0.020630	0.424580
S4571	S457	0.246410	0.085950	0.419490
S4581	S458	0.257760	0.142710	0.363680
S4591	S459	0.979580	0.110070	0.271510
S4601	S460	0.138740	0.004790	0.481750
S4611	S461	0.027890	0.032360	0.375000
S4621	S462	0.192730	0.977710	0.422380
S4631	S463	0.106900	0.080500	0.481620
S4641	S464	0.972100	0.043210	0.317130
S4651	S465	0.183700	0.100110	0.476290
S4661	S466	0.194880	0.949150	0.490180
C20131	C2013	0.063600	0.998400	0.443800
C20141	C2014	0.045100	0.975900	0.479100
C20151	C2015	0.066300	0.991100	0.468400
C20161	C2016	0.048500	0.016700	0.456600
C20171	C2017	0.755100	0.520400	0.459000
C20181	C2018	0.780100	0.516700	0.473300
C20191	C2019	0.806900	0.511300	0.462500
C20201	C2020	0.808500	0.507300	0.436900
C20211	C2021	0.784900	0.509900	0.422000
C20221	C2022	0.758800	0.517700	0.433000
C20231	C2023	0.481600	0.509600	0.315600
C20241	C2024	0.482700	0.495800	0.293200
C20251	C2025	0.488700	0.467900	0.293100
C20261	C2026	0.492500	0.454500	0.313300
C20271	C2027	0.490800	0.469400	0.334800
C20281	C2028	0.484600	0.495800	0.335900
C20291	C2029	0.588300	0.495600	0.299200
C20301	C2030	0.614800	0.485300	0.296700
C20311	C2031	0.623900	0.460400	0.283500
C20321	C2032	0.601900	0.449800	0.271100
C20331	C2033	0.572700	0.456200	0.274600
C20341	C2034	0.566100	0.477200	0.289500
C20351	C2035	0.771100	0.597100	0.441800
C20361	C2036	0.794000	0.579800	0.447500
C20371	C2037	0.814700	0.588700	0.464800
C20381	C2038	0.813600	0.615000	0.476500
C20391	C2039	0.790000	0.630900	0.471000
C20401	C2040	0.768700	0.621700	0.452600
C20411	C2041	0.743300	0.514600	0.362600
C20421	C2042	0.740300	0.490000	0.368500
C20431	C2043	0.763300	0.472000	0.358200
C20441	C2044	0.785200	0.483200	0.341500
C20451	C2045	0.790300	0.510700	0.341100
C20461	C2046	0.768400	0.526400	0.356000
C20471	C2047	0.759700	0.563400	0.301300
C20481	C2048	0.744400	0.544700	0.291600
C20491	C2049	0.755600	0.525900	0.276300
C20501	C2050	0.785000	0.527900	0.267100
C20511	C2051	0.803600	0.546500	0.277700
C20521	C2052	0.789700	0.565500	0.295900
C20531	C2053	0.705400	0.584600	0.247000
C20541	C2054	0.691600	0.562100	0.241600
C20551	C2055	0.703400	0.543600	0.226400
C20561	C2056	0.730400	0.548700	0.214600
C20571	C2057	0.742500	0.571900	0.219300
C20581	C2058	0.733100	0.586000	0.237000
C20591	C2059	0.655900	0.476000	0.348400
C20601	C2060	0.677500	0.484200	0.333000
C20611	C2061	0.694400	0.466400	0.316500
C20621	C2062	0.686300	0.438000	0.318900
C20631	C2063	0.660600	0.431400	0.335800
C20641	C2064	0.647300	0.450600	0.352500
C20651	C2065	0.665300	0.452700	0.418200
C20661	C2066	0.678000	0.428300	0.411700
C20671	C2067	0.656000	0.410900	0.406600
C20681	C2068	0.628100	0.413800	0.413900
C20691	C2069	0.617200	0.436400	0.418000
C20701	C2070	0.637400	0.459100	0.421300
C20711	C2071	0.713360	0.612830	0.496560
C20721	C2072	0.719700	0.639160	0.496500
C20731	C2073	0.741900	0.648670	0.511420
C20741	C2074	0.757700	0.631800	0.526410
C20751	C2075	0.751300	0.605500	0.526470
C20761	C2076	0.729180	0.596000	0.511550
C20771	C2077	0.641500	0.515310	0.510000
C20781	C2078	0.658700	0.536780	0.514900
C20791	C2079	0.662800	0.545090	0.539370
C20801	C2080	0.649700	0.531900	0.559000
C20811	C2081	0.632500	0.510500	0.554200
C20821	C2082	0.628300	0.502200	0.529700
C20831	C2083	0.575000	0.561390	0.496100
C20841	C2084	0.577700	0.551150	0.520100
C20851	C2085	0.554000	0.539680	0.531600
C20861	C2086	0.527700	0.538440	0.519200
C20871	C2087	0.525000	0.548670	0.495300
C20881	C2088	0.548700	0.560150	0.483700
C20891	C2089	0.793900	0.648200	0.378300
C20901	C2090	0.791400	0.626900	0.394100
C20911	C2091	0.814200	0.620200	0.409700
C20921	C2092	0.839300	0.634900	0.409700
C20931	C2093	0.841800	0.656200	0.393900
C20941	C2094	0.819000	0.662900	0.378300
C20951	C2095	0.616300	0.551700	0.239600
C20961	C2096	0.625600	0.529300	0.251700
C20971	C2097	0.635000	0.507200	0.234600
C20981	C2098	0.632900	0.508500	0.209200
C20991	C2099	0.623900	0.531000	0.199500
C21001	C2100	0.613000	0.552600	0.214600
C21011	C2101	0.526500	0.560600	0.227600
C21021	C2102	0.514300	0.549000	0.207200
C21031	C2103	0.514700	0.562300	0.182800
C21041	C2104	0.525700	0.588600	0.181000
C21051	C2105	0.534700	0.601700	0.204800
C21061	C2106	0.536300	0.586500	0.226100
C21071	C2107	0.499800	0.529000	0.397100
C21081	C2108	0.491000	0.503800	0.402300
C21091	C2109	0.468500	0.499400	0.419000
C21101	C2110	0.454800	0.520200	0.430400
C21111	C2111	0.463600	0.545400	0.425200
C21121	C2112	0.486000	0.549800	0.408500
C21131	C2113	0.446700	0.619700	0.283500
C21141	C2114	0.424500	0.629100	0.267000
C21151	C2115	0.395800	0.635500	0.276000
C21161	C2116	0.391100	0.635200	0.304200
C21171	C2117	0.414700	0.624500	0.321900
C21181	C2118	0.441500	0.617500	0.309600
C21191	C2119	0.661200	0.440100	0.502900
C21201	C2120	0.655300	0.444500	0.529600
C21211	C2121	0.627200	0.437100	0.538300
C21221	C2122	0.606800	0.428700	0.522600
C21231	C2123	0.612400	0.423400	0.496300
C21241	C2124	0.640300	0.430400	0.485700
Cd2891	Cd289	0.643590	0.589800	0.396000
Cd2901	Cd290	0.700750	0.567880	0.342000
Cd2911	Cd291	0.585860	0.607930	0.343260
Cd2921	Cd292	0.647550	0.588390	0.290000
Cd2931	Cd293	0.623250	0.536990	0.339570
Cd2941	Cd294	0.723430	0.624680	0.397090
Cd2951	Cd295	0.582120	0.610630	0.450430
Cd2961	Cd296	0.566940	0.559380	0.284030
Cd2971	Cd297	0.520040	0.627620	0.297450
Cd2981	Cd298	0.706810	0.567780	0.446410
Cd2991	Cd299	0.623810	0.542900	0.455290
Cd3001	Cd300	0.565420	0.557290	0.400450
Cd3011	Cd301	0.510340	0.565080	0.344240
Cd3021	Cd302	0.674110	0.514960	0.396030
S4671	S467	0.604010	0.571060	0.369700
S4681	S468	0.662160	0.553450	0.423380
S4691	S469	0.684290	0.605810	0.369300
S4701	S470	0.664530	0.549800	0.312840
S4711	S471	0.545540	0.589430	0.316850
S4721	S472	0.635610	0.498230	0.367490
S4731	S473	0.542390	0.591030	0.426420
S4741	S474	0.690130	0.609140	0.267210
S4751	S475	0.607030	0.579060	0.258340
S4761	S476	0.578430	0.523540	0.314760
S4771	S477	0.747720	0.585330	0.323310
S4781	S478	0.717680	0.536380	0.376140
Cd3031	Cd303	0.481350	0.560450	0.274040
Cd3041	Cd304	0.688750	0.492110	0.468020
S4791	S479	0.527640	0.542370	0.255370
S4801	S480	0.723590	0.529760	0.473690
S4811	S481	0.590020	0.520630	0.424580
S4821	S482	0.746410	0.585950	0.419490
S4831	S483	0.757760	0.642710	0.363680
S4841	S484	0.479580	0.610070	0.271510
S4851	S485	0.638740	0.504790	0.481750
S4861	S486	0.527890	0.532360	0.375000
S4871	S487	0.692730	0.477710	0.422380
S4881	S488	0.606900	0.580500	0.481620
S4891	S489	0.472100	0.543210	0.317130
S4901	S490	0.683700	0.600110	0.476290
S4911	S491	0.694880	0.449150	0.490180
C21251	C2125	0.563600	0.498400	0.443800
C21261	C2126	0.545100	0.475900	0.479100
C21271	C2127	0.566300	0.491100	0.468400
C21281	C2128	0.548500	0.516700	0.456600
C21291	C2129	0.755100	0.020400	0.959000
C21301	C2130	0.780100	0.016700	0.973300
C21311	C2131	0.806900	0.011300	0.962500
C21321	C2132	0.808500	0.007300	0.936900
C21331	C2133	0.784900	0.009900	0.922000
C21341	C2134	0.758800	0.017700	0.933000
C21351	C2135	0.481600	0.009600	0.815600
C21361	C2136	0.482700	0.995800	0.793200
C21371	C2137	0.488700	0.967900	0.793100
C21381	C2138	0.492500	0.954500	0.813300
C21391	C2139	0.490800	0.969400	0.834800
C21401	C2140	0.484600	0.995800	0.835900
C21411	C2141	0.588300	0.995600	0.799200
C21421	C2142	0.614800	0.985300	0.796700
C21431	C2143	0.623900	0.960400	0.783500
C21441	C2144	0.601900	0.949800	0.771100
C21451	C2145	0.572700	0.956200	0.774600
C21461	C2146	0.566100	0.977200	0.789500
C21471	C2147	0.771100	0.097100	0.941800
C21481	C2148	0.794000	0.079800	0.947500
C21491	C2149	0.814700	0.088700	0.964800
C21501	C2150	0.813600	0.115000	0.976500
C21511	C2151	0.790000	0.130900	0.971000
C21521	C2152	0.768700	0.121700	0.952600
C21531	C2153	0.743300	0.014600	0.862600
C21541	C2154	0.740300	0.990000	0.868500
C21551	C2155	0.763300	0.972000	0.858200
C21561	C2156	0.785200	0.983200	0.841500
C21571	C2157	0.790300	0.010700	0.841100
C21581	C2158	0.768400	0.026400	0.856000
C21591	C2159	0.759700	0.063400	0.801300
C21601	C2160	0.744400	0.044700	0.791600
C21611	C2161	0.755600	0.025900	0.776300
C21621	C2162	0.785000	0.027900	0.767100
C21631	C2163	0.803600	0.046500	0.777700
C21641	C2164	0.789700	0.065500	0.795900
C21651	C2165	0.705400	0.084600	0.747000
C21661	C2166	0.691600	0.062100	0.741600
C21671	C2167	0.703400	0.043600	0.726400
C21681	C2168	0.730400	0.048700	0.714600
C21691	C2169	0.742500	0.071900	0.719300
C21701	C2170	0.733100	0.086000	0.737000
C21711	C2171	0.655900	0.976000	0.848400
C21721	C2172	0.677500	0.984200	0.833000
C21731	C2173	0.694400	0.966400	0.816500
C21741	C2174	0.686300	0.938000	0.818900
C21751	C2175	0.660600	0.931400	0.835800
C21761	C2176	0.647300	0.950600	0.852500
C21771	C2177	0.665300	0.952700	0.918200
C21781	C2178	0.678000	0.928300	0.911700
C21791	C2179	0.656000	0.910900	0.906600
C21801	C2180	0.628100	0.913800	0.913900
C21811	C2181	0.617200	0.936400	0.918000
C21821	C2182	0.637400	0.959100	0.921300
C21831	C2183	0.713360	0.112830	0.996560
C21841	C2184	0.719700	0.139160	0.996500
C21851	C2185	0.741900	0.148670	0.011420
C21861	C2186	0.757700	0.131800	0.026410
C21871	C2187	0.751300	0.105500	0.026470
C21881	C2188	0.729180	0.096000	0.011550
C21891	C2189	0.641500	0.015310	0.010000
C21901	C2190	0.658700	0.036780	0.014900
C21911	C2191	0.662800	0.045090	0.039370
C21921	C2192	0.649700	0.031900	0.059000
C21931	C2193	0.632500	0.010500	0.054200
C21941	C2194	0.628300	0.002200	0.029700
C21951	C2195	0.575000	0.061390	0.996100
C21961	C2196	0.577700	0.051150	0.020100
C21971	C2197	0.554000	0.039680	0.031600
C21981	C2198	0.527700	0.038440	0.019200
C21991	C2199	0.525000	0.048670	0.995300
C22001	C2200	0.548700	0.060150	0.983700
C22011	C2201	0.793900	0.148200	0.878300
C22021	C2202	0.791400	0.126900	0.894100
C22031	C2203	0.814200	0.120200	0.909700
C22041	C2204	0.839300	0.134900	0.909700
C22051	C2205	0.841800	0.156200	0.893900
C22061	C2206	0.819000	0.162900	0.878300
C22071	C2207	0.616300	0.051700	0.739600
C22081	C2208	0.625600	0.029300	0.751700
C22091	C2209	0.635000	0.007200	0.734600
C22101	C2210	0.632900	0.008500	0.709200
C22111	C2211	0.623900	0.031000	0.699500
C22121	C2212	0.613000	0.052600	0.714600
C22131	C2213	0.526500	0.060600	0.727600
C22141	C2214	0.514300	0.049000	0.707200
C22151	C2215	0.514700	0.062300	0.682800
C22161	C2216	0.525700	0.088600	0.681000
C22171	C2217	0.534700	0.101700	0.704800
C22181	C2218	0.536300	0.086500	0.726100
C22191	C2219	0.499800	0.029000	0.897100
C22201	C2220	0.491000	0.003800	0.902300
C22211	C2221	0.468500	0.999400	0.919000
C22221	C2222	0.454800	0.020200	0.930400
C22231	C2223	0.463600	0.045400	0.925200
C22241	C2224	0.486000	0.049800	0.908500
C22251	C2225	0.446700	0.119700	0.783500
C22261	C2226	0.424500	0.129100	0.767000
C22271	C2227	0.395800	0.135500	0.776000
C22281	C2228	0.391100	0.135200	0.804200
C22291	C2229	0.414700	0.124500	0.821900
C22301	C2230	0.441500	0.117500	0.809600
C22311	C2231	0.661200	0.940100	0.002900
C22321	C2232	0.655300	0.944500	0.029600
C22331	C2233	0.627200	0.937100	0.038300
C22341	C2234	0.606800	0.928700	0.022600
C22351	C2235	0.612400	0.923400	0.996300
C22361	C2236	0.640300	0.930400	0.985700
Cd3051	Cd305	0.643590	0.089800	0.896000
Cd3061	Cd306	0.700750	0.067880	0.842000
Cd3071	Cd307	0.585860	0.107930	0.843260
Cd3081	Cd308	0.647550	0.088390	0.790000
Cd3091	Cd309	0.623250	0.036990	0.839570
Cd3101	Cd310	0.723430	0.124680	0.897090
Cd3111	Cd311	0.582120	0.110630	0.950430
Cd3121	Cd312	0.566940	0.059380	0.784030
Cd3131	Cd313	0.520040	0.127620	0.797450
Cd3141	Cd314	0.706810	0.067780	0.946410
Cd3151	Cd315	0.623810	0.042900	0.955290
Cd3161	Cd316	0.565420	0.057290	0.900450
Cd3171	Cd317	0.510340	0.065080	0.844240
Cd3181	Cd318	0.674110	0.014960	0.896030
S4921	S492	0.604010	0.071060	0.869700
S4931	S493	0.662160	0.053450	0.923380
S4941	S494	0.684290	0.105810	0.869300
S4951	S495	0.664530	0.049800	0.812840
S4961	S496	0.545540	0.089430	0.816850
S4971	S497	0.635610	0.998230	0.867490
S4981	S498	0.542390	0.091030	0.926420
S4991	S499	0.690130	0.109140	0.767210
S5001	S500	0.607030	0.079060	0.758340
S5011	S501	0.578430	0.023540	0.814760
S5021	S502	0.747720	0.085330	0.823310
S5031	S503	0.717680	0.036380	0.876140
Cd3191	Cd319	0.481350	0.060450	0.774040
Cd3201	Cd320	0.688750	0.992110	0.968020
S5041	S504	0.527640	0.042370	0.755370
S5051	S505	0.723590	0.029760	0.973690
S5061	S506	0.590020	0.020630	0.924580
S5071	S507	0.746410	0.085950	0.919490
S5081	S508	0.757760	0.142710	0.863680
S5091	S509	0.479580	0.110070	0.771510
S5101	S510	0.638740	0.004790	0.981750
S5111	S511	0.527890	0.032360	0.875000
S5121	S512	0.692730	0.977710	0.922380
S5131	S513	0.606900	0.080500	0.981620
S5141	S514	0.472100	0.043210	0.817130
S5151	S515	0.683700	0.100110	0.976290
S5161	S516	0.694880	0.949150	0.990180
C22371	C2237	0.563600	0.998400	0.943800
C22381	C2238	0.545100	0.975900	0.979100
C22391	C2239	0.566300	0.991100	0.968400
C22401	C2240	0.548500	0.016700	0.956600
C22411	C2241	0.494900	0.229600	0.959000
C22421	C2242	0.469900	0.233300	0.973300
C22431	C2243	0.443100	0.238700	0.962500
C22441	C2244	0.441500	0.242700	0.936900
C22451	C2245	0.465100	0.240100	0.922000
C22461	C2246	0.491200	0.232300	0.933000
C22471	C2247	0.768400	0.240400	0.815600
C22481	C2248	0.767300	0.254200	0.793200
C22491	C2249	0.761300	0.282100	0.793100
C22501	C2250	0.757500	0.295500	0.813300
C22511	C2251	0.759200	0.280600	0.834800
C22521	C2252	0.765400	0.254200	0.835900
C22531	C2253	0.661700	0.254400	0.799200
C22541	C2254	0.635200	0.264700	0.796700
C22551	C2255	0.626100	0.289600	0.783500
C22561	C2256	0.648100	0.300200	0.771100
C22571	C2257	0.677300	0.293800	0.774600
C22581	C2258	0.683900	0.272800	0.789500
C22591	C2259	0.478900	0.152900	0.941800
C22601	C2260	0.456000	0.170200	0.947500
C22611	C2261	0.435300	0.161300	0.964800
C22621	C2262	0.436400	0.135000	0.976500
C22631	C2263	0.460000	0.119100	0.971000
C22641	C2264	0.481300	0.128300	0.952600
C22651	C2265	0.506700	0.235400	0.862600
C22661	C2266	0.509700	0.260000	0.868500
C22671	C2267	0.486700	0.278000	0.858200
C22681	C2268	0.464800	0.266800	0.841500
C22691	C2269	0.459700	0.239300	0.841100
C22701	C2270	0.481600	0.223600	0.856000
C22711	C2271	0.490300	0.186600	0.801300
C22721	C2272	0.505600	0.205300	0.791600
C22731	C2273	0.494400	0.224100	0.776300
C22741	C2274	0.465000	0.222100	0.767100
C22751	C2275	0.446400	0.203500	0.777700
C22761	C2276	0.460300	0.184500	0.795900
C22771	C2277	0.544600	0.165400	0.747000
C22781	C2278	0.558400	0.187900	0.741600
C22791	C2279	0.546600	0.206400	0.726400
C22801	C2280	0.519600	0.201300	0.714600
C22811	C2281	0.507500	0.178100	0.719300
C22821	C2282	0.516900	0.164000	0.737000
C22831	C2283	0.594100	0.274000	0.848400
C22841	C2284	0.572500	0.265800	0.833000
C22851	C2285	0.555600	0.283600	0.816500
C22861	C2286	0.563700	0.312000	0.818900
C22871	C2287	0.589400	0.318600	0.835800
C22881	C2288	0.602700	0.299400	0.852500
C22891	C2289	0.584700	0.297300	0.918200
C22901	C2290	0.572000	0.321700	0.911700
C22911	C2291	0.594000	0.339100	0.906600
C22921	C2292	0.621900	0.336200	0.913900
C22931	C2293	0.632800	0.313600	0.918000
C22941	C2294	0.612600	0.290900	0.921300
C22951	C2295	0.536640	0.137170	0.996560
C22961	C2296	0.530300	0.110840	0.996500
C22971	C2297	0.508100	0.101330	0.011420
C22981	C2298	0.492300	0.118200	0.026410
C22991	C2299	0.498700	0.144500	0.026470
C23001	C2300	0.520820	0.154000	0.011550
C23011	C2301	0.608500	0.234690	0.010000
C23021	C2302	0.591300	0.213220	0.014900
C23031	C2303	0.587200	0.204910	0.039370
C23041	C2304	0.600300	0.218100	0.059000
C23051	C2305	0.617500	0.239500	0.054200
C23061	C2306	0.621700	0.247800	0.029700
C23071	C2307	0.675000	0.188610	0.996100
C23081	C2308	0.672300	0.198850	0.020100
C23091	C2309	0.696000	0.210320	0.031600
C23101	C2310	0.722300	0.211560	0.019200
C23111	C2311	0.725000	0.201330	0.995300
C23121	C2312	0.701300	0.189850	0.983700
C23131	C2313	0.456100	0.101800	0.878300
C23141	C2314	0.458600	0.123100	0.894100
C23151	C2315	0.435800	0.129800	0.909700
C23161	C2316	0.410700	0.115100	0.909700
C23171	C2317	0.408200	0.093800	0.893900
C23181	C2318	0.431000	0.087100	0.878300
C23191	C2319	0.633700	0.198300	0.739600
C23201	C2320	0.624400	0.220700	0.751700
C23211	C2321	0.615000	0.242800	0.734600
C23221	C2322	0.617100	0.241500	0.709200
C23231	C2323	0.626100	0.219000	0.699500
C23241	C2324	0.637000	0.197400	0.714600
C23251	C2325	0.723500	0.189400	0.727600
C23261	C2326	0.735700	0.201000	0.707200
C23271	C2327	0.735300	0.187700	0.682800
C23281	C2328	0.724300	0.161400	0.681000
C23291	C2329	0.715300	0.148300	0.704800
C23301	C2330	0.713700	0.163500	0.726100
C23311	C2331	0.750200	0.221000	0.897100
C23321	C2332	0.759000	0.246200	0.902300
C23331	C2333	0.781500	0.250600	0.919000
C23341	C2334	0.795200	0.229800	0.930400
C23351	C2335	0.786400	0.204600	0.925200
C23361	C2336	0.764000	0.200200	0.908500
C23371	C2337	0.803300	0.130300	0.783500
C23381	C2338	0.825500	0.120900	0.767000
C23391	C2339	0.854200	0.114500	0.776000
C23401	C2340	0.858900	0.114800	0.804200
C23411	C2341	0.835300	0.125500	0.821900
C23421	C2342	0.808500	0.132500	0.809600
C23431	C2343	0.588800	0.309900	0.002900
C23441	C2344	0.594700	0.305500	0.029600
C23451	C2345	0.622800	0.312900	0.038300
C23461	C2346	0.643200	0.321300	0.022600
C23471	C2347	0.637600	0.326600	0.996300
C23481	C2348	0.609700	0.319600	0.985700
Cd3211	Cd321	0.606410	0.160200	0.896000
Cd3221	Cd322	0.549250	0.182120	0.842000
Cd3231	Cd323	0.664140	0.142070	0.843260
Cd3241	Cd324	0.602450	0.161610	0.790000
Cd3251	Cd325	0.626750	0.213010	0.839570
Cd3261	Cd326	0.526570	0.125320	0.897090
Cd3271	Cd327	0.667880	0.139370	0.950430
Cd3281	Cd328	0.683060	0.190620	0.784030
Cd3291	Cd329	0.729960	0.122380	0.797450
Cd3301	Cd330	0.543190	0.182220	0.946410
Cd3311	Cd331	0.626190	0.207100	0.955290
Cd3321	Cd332	0.684580	0.192710	0.900450
Cd3331	Cd333	0.739660	0.184920	0.844240
Cd3341	Cd334	0.575890	0.235040	0.896030
S5171	S517	0.645990	0.178940	0.869700
S5181	S518	0.587840	0.196550	0.923380
S5191	S519	0.565710	0.144190	0.869300
S5201	S520	0.585470	0.200200	0.812840
S5211	S521	0.704460	0.160570	0.816850
S5221	S522	0.614390	0.251770	0.867490
S5231	S523	0.707610	0.158970	0.926420
S5241	S524	0.559870	0.140860	0.767210
S5251	S525	0.642970	0.170940	0.758340
S5261	S526	0.671570	0.226460	0.814760
S5271	S527	0.502280	0.164670	0.823310
S5281	S528	0.532320	0.213620	0.876140
Cd3351	Cd335	0.768650	0.189550	0.774040
Cd3361	Cd336	0.561250	0.257890	0.968020
S5291	S529	0.722360	0.207630	0.755370
S5301	S530	0.526410	0.220240	0.973690
S5311	S531	0.659980	0.229370	0.924580
S5321	S532	0.503590	0.164050	0.919490
S5331	S533	0.492240	0.107290	0.863680
S5341	S534	0.770420	0.139930	0.771510
S5351	S535	0.611260	0.245210	0.981750
S5361	S536	0.722110	0.217640	0.875000
S5371	S537	0.557270	0.272290	0.922380
S5381	S538	0.643100	0.169500	0.981620
S5391	S539	0.777900	0.206790	0.817130
S5401	S540	0.566300	0.149890	0.976290
S5411	S541	0.555120	0.300850	0.990180
C23491	C2349	0.686400	0.251600	0.943800
C23501	C2350	0.704900	0.274100	0.979100
C23511	C2351	0.683700	0.258900	0.968400
C23521	C2352	0.701500	0.233300	0.956600
C23531	C2353	0.494900	0.729600	0.459000
C23541	C2354	0.469900	0.733300	0.473300
C23551	C2355	0.443100	0.738700	0.462500
C23561	C2356	0.441500	0.742700	0.436900
C23571	C2357	0.465100	0.740100	0.422000
C23581	C2358	0.491200	0.732300	0.433000
C23591	C2359	0.768400	0.740400	0.315600
C23601	C2360	0.767300	0.754200	0.293200
C23611	C2361	0.761300	0.782100	0.293100
C23621	C2362	0.757500	0.795500	0.313300
C23631	C2363	0.759200	0.780600	0.334800
C23641	C2364	0.765400	0.754200	0.335900
C23651	C2365	0.661700	0.754400	0.299200
C23661	C2366	0.635200	0.764700	0.296700
C23671	C2367	0.626100	0.789600	0.283500
C23681	C2368	0.648100	0.800200	0.271100
C23691	C2369	0.677300	0.793800	0.274600
C23701	C2370	0.683900	0.772800	0.289500
C23711	C2371	0.478900	0.652900	0.441800
C23721	C2372	0.456000	0.670200	0.447500
C23731	C2373	0.435300	0.661300	0.464800
C23741	C2374	0.436400	0.635000	0.476500
C23751	C2375	0.460000	0.619100	0.471000
C23761	C2376	0.481300	0.628300	0.452600
C23771	C2377	0.506700	0.735400	0.362600
C23781	C2378	0.509700	0.760000	0.368500
C23791	C2379	0.486700	0.778000	0.358200
C23801	C2380	0.464800	0.766800	0.341500
C23811	C2381	0.459700	0.739300	0.341100
C23821	C2382	0.481600	0.723600	0.356000
C23831	C2383	0.490300	0.686600	0.301300
C23841	C2384	0.505600	0.705300	0.291600
C23851	C2385	0.494400	0.724100	0.276300
C23861	C2386	0.465000	0.722100	0.267100
C23871	C2387	0.446400	0.703500	0.277700
C23881	C2388	0.460300	0.684500	0.295900
C23891	C2389	0.544600	0.665400	0.247000
C23901	C2390	0.558400	0.687900	0.241600
C23911	C2391	0.546600	0.706400	0.226400
C23921	C2392	0.519600	0.701300	0.214600
C23931	C2393	0.507500	0.678100	0.219300
C23941	C2394	0.516900	0.664000	0.237000
C23951	C2395	0.594100	0.774000	0.348400
C23961	C2396	0.572500	0.765800	0.333000
C23971	C2397	0.555600	0.783600	0.316500
C23981	C2398	0.563700	0.812000	0.318900
C23991	C2399	0.589400	0.818600	0.335800
C24001	C2400	0.602700	0.799400	0.352500
C24011	C2401	0.584700	0.797300	0.418200
C24021	C2402	0.572000	0.821700	0.411700
C24031	C2403	0.594000	0.839100	0.406600
C24041	C2404	0.621900	0.836200	0.413900
C24051	C2405	0.632800	0.813600	0.418000
C24061	C2406	0.612600	0.790900	0.421300
C24071	C2407	0.536640	0.637170	0.496560
C24081	C2408	0.530300	0.610840	0.496500
C24091	C2409	0.508100	0.601330	0.511420
C24101	C2410	0.492300	0.618200	0.526410
C24111	C2411	0.498700	0.644500	0.526470
C24121	C2412	0.520820	0.654000	0.511550
C24131	C2413	0.608500	0.734690	0.510000
C24141	C2414	0.591300	0.713220	0.514900
C24151	C2415	0.587200	0.704910	0.539370
C24161	C2416	0.600300	0.718100	0.559000
C24171	C2417	0.617500	0.739500	0.554200
C24181	C2418	0.621700	0.747800	0.529700
C24191	C2419	0.675000	0.688610	0.496100
C24201	C2420	0.672300	0.698850	0.520100
C24211	C2421	0.696000	0.710320	0.531600
C24221	C2422	0.722300	0.711560	0.519200
C24231	C2423	0.725000	0.701330	0.495300
C24241	C2424	0.701300	0.689850	0.483700
C24251	C2425	0.456100	0.601800	0.378300
C24261	C2426	0.458600	0.623100	0.394100
C24271	C2427	0.435800	0.629800	0.409700
C24281	C2428	0.410700	0.615100	0.409700
C24291	C2429	0.408200	0.593800	0.393900
C24301	C2430	0.431000	0.587100	0.378300
C24311	C2431	0.633700	0.698300	0.239600
C24321	C2432	0.624400	0.720700	0.251700
C24331	C2433	0.615000	0.742800	0.234600
C24341	C2434	0.617100	0.741500	0.209200
C24351	C2435	0.626100	0.719000	0.199500
C24361	C2436	0.637000	0.697400	0.214600
C24371	C2437	0.723500	0.689400	0.227600
C24381	C2438	0.735700	0.701000	0.207200
C24391	C2439	0.735300	0.687700	0.182800
C24401	C2440	0.724300	0.661400	0.181000
C24411	C2441	0.715300	0.648300	0.204800
C24421	C2442	0.713700	0.663500	0.226100
C24431	C2443	0.750200	0.721000	0.397100
C24441	C2444	0.759000	0.746200	0.402300
C24451	C2445	0.781500	0.750600	0.419000
C24461	C2446	0.795200	0.729800	0.430400
C24471	C2447	0.786400	0.704600	0.425200
C24481	C2448	0.764000	0.700200	0.408500
C24491	C2449	0.803300	0.630300	0.283500
C24501	C2450	0.825500	0.620900	0.267000
C24511	C2451	0.854200	0.614500	0.276000
C24521	C2452	0.858900	0.614800	0.304200
C24531	C2453	0.835300	0.625500	0.321900
C24541	C2454	0.808500	0.632500	0.309600
C24551	C2455	0.588800	0.809900	0.502900
C24561	C2456	0.594700	0.805500	0.529600
C24571	C2457	0.622800	0.812900	0.538300
C24581	C2458	0.643200	0.821300	0.522600
C24591	C2459	0.637600	0.826600	0.496300
C24601	C2460	0.609700	0.819600	0.485700
Cd3371	Cd337	0.606410	0.660200	0.396000
Cd3381	Cd338	0.549250	0.682120	0.342000
Cd3391	Cd339	0.664140	0.642070	0.343260
Cd3401	Cd340	0.602450	0.661610	0.290000
Cd3411	Cd341	0.626750	0.713010	0.339570
Cd3421	Cd342	0.526570	0.625320	0.397090
Cd3431	Cd343	0.667880	0.639370	0.450430
Cd3441	Cd344	0.683060	0.690620	0.284030
Cd3451	Cd345	0.729960	0.622380	0.297450
Cd3461	Cd346	0.543190	0.682220	0.446410
Cd3471	Cd347	0.626190	0.707100	0.455290
Cd3481	Cd348	0.684580	0.692710	0.400450
Cd3491	Cd349	0.739660	0.684920	0.344240
Cd3501	Cd350	0.575890	0.735040	0.396030
S5421	S542	0.645990	0.678940	0.369700
S5431	S543	0.587840	0.696550	0.423380
S5441	S544	0.565710	0.644190	0.369300
S5451	S545	0.585470	0.700200	0.312840
S5461	S546	0.704460	0.660570	0.316850
S5471	S547	0.614390	0.751770	0.367490
S5481	S548	0.707610	0.658970	0.426420
S5491	S549	0.559870	0.640860	0.267210
S5501	S550	0.642970	0.670940	0.258340
S5511	S551	0.671570	0.726460	0.314760
S5521	S552	0.502280	0.664670	0.323310
S5531	S553	0.532320	0.713620	0.376140
Cd3511	Cd351	0.768650	0.689550	0.274040
Cd3521	Cd352	0.561250	0.757890	0.468020
S5541	S554	0.722360	0.707630	0.255370
S5551	S555	0.526410	0.720240	0.473690
S5561	S556	0.659980	0.729370	0.424580
S5571	S557	0.503590	0.664050	0.419490
S5581	S558	0.492240	0.607290	0.363680
S5591	S559	0.770420	0.639930	0.271510
S5601	S560	0.611260	0.745210	0.481750
S5611	S561	0.722110	0.717640	0.375000
S5621	S562	0.557270	0.772290	0.422380
S5631	S563	0.643100	0.669500	0.481620
S5641	S564	0.777900	0.706790	0.317130
S5651	S565	0.566300	0.649890	0.476290
S5661	S566	0.555120	0.800850	0.490180
C24611	C2461	0.686400	0.751600	0.443800
C24621	C2462	0.704900	0.774100	0.479100
C24631	C2463	0.683700	0.758900	0.468400
C24641	C2464	0.701500	0.733300	0.456600
C24651	C2465	0.994900	0.229600	0.459000
C24661	C2466	0.969900	0.233300	0.473300
C24671	C2467	0.943100	0.238700	0.462500
C24681	C2468	0.941500	0.242700	0.436900
C24691	C2469	0.965100	0.240100	0.422000
C24701	C2470	0.991200	0.232300	0.433000
C24711	C2471	0.268400	0.240400	0.315600
C24721	C2472	0.267300	0.254200	0.293200
C24731	C2473	0.261300	0.282100	0.293100
C24741	C2474	0.257500	0.295500	0.313300
C24751	C2475	0.259200	0.280600	0.334800
C24761	C2476	0.265400	0.254200	0.335900
C24771	C2477	0.161700	0.254400	0.299200
C24781	C2478	0.135200	0.264700	0.296700
C24791	C2479	0.126100	0.289600	0.283500
C24801	C2480	0.148100	0.300200	0.271100
C24811	C2481	0.177300	0.293800	0.274600
C24821	C2482	0.183900	0.272800	0.289500
C24831	C2483	0.978900	0.152900	0.441800
C24841	C2484	0.956000	0.170200	0.447500
C24851	C2485	0.935300	0.161300	0.464800
C24861	C2486	0.936400	0.135000	0.476500
C24871	C2487	0.960000	0.119100	0.471000
C24881	C2488	0.981300	0.128300	0.452600
C24891	C2489	0.006700	0.235400	0.362600
C24901	C2490	0.009700	0.260000	0.368500
C24911	C2491	0.986700	0.278000	0.358200
C24921	C2492	0.964800	0.266800	0.341500
C24931	C2493	0.959700	0.239300	0.341100
C24941	C2494	0.981600	0.223600	0.356000
C24951	C2495	0.990300	0.186600	0.301300
C24961	C2496	0.005600	0.205300	0.291600
C24971	C2497	0.994400	0.224100	0.276300
C24981	C2498	0.965000	0.222100	0.267100
C24991	C2499	0.946400	0.203500	0.277700
C25001	C2500	0.960300	0.184500	0.295900
C25011	C2501	0.044600	0.165400	0.247000
C25021	C2502	0.058400	0.187900	0.241600
C25031	C2503	0.046600	0.206400	0.226400
C25041	C2504	0.019600	0.201300	0.214600
C25051	C2505	0.007500	0.178100	0.219300
C25061	C2506	0.016900	0.164000	0.237000
C25071	C2507	0.094100	0.274000	0.348400
C25081	C2508	0.072500	0.265800	0.333000
C25091	C2509	0.055600	0.283600	0.316500
C25101	C2510	0.063700	0.312000	0.318900
C25111	C2511	0.089400	0.318600	0.335800
C25121	C2512	0.102700	0.299400	0.352500
C25131	C2513	0.084700	0.297300	0.418200
C25141	C2514	0.072000	0.321700	0.411700
C25151	C2515	0.094000	0.339100	0.406600
C25161	C2516	0.121900	0.336200	0.413900
C25171	C2517	0.132800	0.313600	0.418000
C25181	C2518	0.112600	0.290900	0.421300
C25191	C2519	0.036640	0.137170	0.496560
C25201	C2520	0.030300	0.110840	0.496500
C25211	C2521	0.008100	0.101330	0.511420
C25221	C2522	0.992300	0.118200	0.526410
C25231	C2523	0.998700	0.144500	0.526470
C25241	C2524	0.020820	0.154000	0.511550
C25251	C2525	0.108500	0.234690	0.510000
C25261	C2526	0.091300	0.213220	0.514900
C25271	C2527	0.087200	0.204910	0.539370
C25281	C2528	0.100300	0.218100	0.559000
C25291	C2529	0.117500	0.239500	0.554200
C25301	C2530	0.121700	0.247800	0.529700
C25311	C2531	0.175000	0.188610	0.496100
C25321	C2532	0.172300	0.198850	0.520100
C25331	C2533	0.196000	0.210320	0.531600
C25341	C2534	0.222300	0.211560	0.519200
C25351	C2535	0.225000	0.201330	0.495300
C25361	C2536	0.201300	0.189850	0.483700
C25371	C2537	0.956100	0.101800	0.378300
C25381	C2538	0.958600	0.123100	0.394100
C25391	C2539	0.935800	0.129800	0.409700
C25401	C2540	0.910700	0.115100	0.409700
C25411	C2541	0.908200	0.093800	0.393900
C25421	C2542	0.931000	0.087100	0.378300
C25431	C2543	0.133700	0.198300	0.239600
C25441	C2544	0.124400	0.220700	0.251700
C25451	C2545	0.115000	0.242800	0.234600
C25461	C2546	0.117100	0.241500	0.209200
C25471	C2547	0.126100	0.219000	0.199500
C25481	C2548	0.137000	0.197400	0.214600
C25491	C2549	0.223500	0.189400	0.227600
C25501	C2550	0.235700	0.201000	0.207200
C25511	C2551	0.235300	0.187700	0.182800
C25521	C2552	0.224300	0.161400	0.181000
C25531	C2553	0.215300	0.148300	0.204800
C25541	C2554	0.213700	0.163500	0.226100
C25551	C2555	0.250200	0.221000	0.397100
C25561	C2556	0.259000	0.246200	0.402300
C25571	C2557	0.281500	0.250600	0.419000
C25581	C2558	0.295200	0.229800	0.430400
C25591	C2559	0.286400	0.204600	0.425200
C25601	C2560	0.264000	0.200200	0.408500
C25611	C2561	0.303300	0.130300	0.283500
C25621	C2562	0.325500	0.120900	0.267000
C25631	C2563	0.354200	0.114500	0.276000
C25641	C2564	0.358900	0.114800	0.304200
C25651	C2565	0.335300	0.125500	0.321900
C25661	C2566	0.308500	0.132500	0.309600
C25671	C2567	0.088800	0.309900	0.502900
C25681	C2568	0.094700	0.305500	0.529600
C25691	C2569	0.122800	0.312900	0.538300
C25701	C2570	0.143200	0.321300	0.522600
C25711	C2571	0.137600	0.326600	0.496300
C25721	C2572	0.109700	0.319600	0.485700
Cd3531	Cd353	0.106410	0.160200	0.396000
Cd3541	Cd354	0.049250	0.182120	0.342000
Cd3551	Cd355	0.164140	0.142070	0.343260
Cd3561	Cd356	0.102450	0.161610	0.290000
Cd3571	Cd357	0.126750	0.213010	0.339570
Cd3581	Cd358	0.026570	0.125320	0.397090
Cd3591	Cd359	0.167880	0.139370	0.450430
Cd3601	Cd360	0.183060	0.190620	0.284030
Cd3611	Cd361	0.229960	0.122380	0.297450
Cd3621	Cd362	0.043190	0.182220	0.446410
Cd3631	Cd363	0.126190	0.207100	0.455290
Cd3641	Cd364	0.184580	0.192710	0.400450
Cd3651	Cd365	0.239660	0.184920	0.344240
Cd3661	Cd366	0.075890	0.235040	0.396030
S5671	S567	0.145990	0.178940	0.369700
S5681	S568	0.087840	0.196550	0.423380
S5691	S569	0.065710	0.144190	0.369300
S5701	S570	0.085470	0.200200	0.312840
S5711	S571	0.204460	0.160570	0.316850
S5721	S572	0.114390	0.251770	0.367490
S5731	S573	0.207610	0.158970	0.426420
S5741	S574	0.059870	0.140860	0.267210
S5751	S575	0.142970	0.170940	0.258340
S5761	S576	0.171570	0.226460	0.314760
S5771	S577	0.002280	0.164670	0.323310
S5781	S578	0.032320	0.213620	0.376140
Cd3671	Cd367	0.268650	0.189550	0.274040
Cd3681	Cd368	0.061250	0.257890	0.468020
S5791	S579	0.222360	0.207630	0.255370
S5801	S580	0.026410	0.220240	0.473690
S5811	S581	0.159980	0.229370	0.424580
S5821	S582	0.003590	0.164050	0.419490
S5831	S583	0.992240	0.107290	0.363680
S5841	S584	0.270420	0.139930	0.271510
S5851	S585	0.111260	0.245210	0.481750
S5861	S586	0.222110	0.217640	0.375000
S5871	S587	0.057270	0.272290	0.422380
S5881	S588	0.143100	0.169500	0.481620
S5891	S589	0.277900	0.206790	0.317130
S5901	S590	0.066300	0.149890	0.476290
S5911	S591	0.055120	0.300850	0.490180
C25731	C2573	0.186400	0.251600	0.443800
C25741	C2574	0.204900	0.274100	0.479100
C25751	C2575	0.183700	0.258900	0.468400
C25761	C2576	0.201500	0.233300	0.456600
C25771	C2577	0.994900	0.729600	0.959000
C25781	C2578	0.969900	0.733300	0.973300
C25791	C2579	0.943100	0.738700	0.962500
C25801	C2580	0.941500	0.742700	0.936900
C25811	C2581	0.965100	0.740100	0.922000
C25821	C2582	0.991200	0.732300	0.933000
C25831	C2583	0.268400	0.740400	0.815600
C25841	C2584	0.267300	0.754200	0.793200
C25851	C2585	0.261300	0.782100	0.793100
C25861	C2586	0.257500	0.795500	0.813300
C25871	C2587	0.259200	0.780600	0.834800
C25881	C2588	0.265400	0.754200	0.835900
C25891	C2589	0.161700	0.754400	0.799200
C25901	C2590	0.135200	0.764700	0.796700
C25911	C2591	0.126100	0.789600	0.783500
C25921	C2592	0.148100	0.800200	0.771100
C25931	C2593	0.177300	0.793800	0.774600
C25941	C2594	0.183900	0.772800	0.789500
C25951	C2595	0.978900	0.652900	0.941800
C25961	C2596	0.956000	0.670200	0.947500
C25971	C2597	0.935300	0.661300	0.964800
C25981	C2598	0.936400	0.635000	0.976500
C25991	C2599	0.960000	0.619100	0.971000
C26001	C2600	0.981300	0.628300	0.952600
C26011	C2601	0.006700	0.735400	0.862600
C26021	C2602	0.009700	0.760000	0.868500
C26031	C2603	0.986700	0.778000	0.858200
C26041	C2604	0.964800	0.766800	0.841500
C26051	C2605	0.959700	0.739300	0.841100
C26061	C2606	0.981600	0.723600	0.856000
C26071	C2607	0.990300	0.686600	0.801300
C26081	C2608	0.005600	0.705300	0.791600
C26091	C2609	0.994400	0.724100	0.776300
C26101	C2610	0.965000	0.722100	0.767100
C26111	C2611	0.946400	0.703500	0.777700
C26121	C2612	0.960300	0.684500	0.795900
C26131	C2613	0.044600	0.665400	0.747000
C26141	C2614	0.058400	0.687900	0.741600
C26151	C2615	0.046600	0.706400	0.726400
C26161	C2616	0.019600	0.701300	0.714600
C26171	C2617	0.007500	0.678100	0.719300
C26181	C2618	0.016900	0.664000	0.737000
C26191	C2619	0.094100	0.774000	0.848400
C26201	C2620	0.072500	0.765800	0.833000
C26211	C2621	0.055600	0.783600	0.816500
C26221	C2622	0.063700	0.812000	0.818900
C26231	C2623	0.089400	0.818600	0.835800
C26241	C2624	0.102700	0.799400	0.852500
C26251	C2625	0.084700	0.797300	0.918200
C26261	C2626	0.072000	0.821700	0.911700
C26271	C2627	0.094000	0.839100	0.906600
C26281	C2628	0.121900	0.836200	0.913900
C26291	C2629	0.132800	0.813600	0.918000
C26301	C2630	0.112600	0.790900	0.921300
C26311	C2631	0.036640	0.637170	0.996560
C26321	C2632	0.030300	0.610840	0.996500
C26331	C2633	0.008100	0.601330	0.011420
C26341	C2634	0.992300	0.618200	0.026410
C26351	C2635	0.998700	0.644500	0.026470
C26361	C2636	0.020820	0.654000	0.011550
C26371	C2637	0.108500	0.734690	0.010000
C26381	C2638	0.091300	0.713220	0.014900
C26391	C2639	0.087200	0.704910	0.039370
C26401	C2640	0.100300	0.718100	0.059000
C26411	C2641	0.117500	0.739500	0.054200
C26421	C2642	0.121700	0.747800	0.029700
C26431	C2643	0.175000	0.688610	0.996100
C26441	C2644	0.172300	0.698850	0.020100
C26451	C2645	0.196000	0.710320	0.031600
C26461	C2646	0.222300	0.711560	0.019200
C26471	C2647	0.225000	0.701330	0.995300
C26481	C2648	0.201300	0.689850	0.983700
C26491	C2649	0.956100	0.601800	0.878300
C26501	C2650	0.958600	0.623100	0.894100
C26511	C2651	0.935800	0.629800	0.909700
C26521	C2652	0.910700	0.615100	0.909700
C26531	C2653	0.908200	0.593800	0.893900
C26541	C2654	0.931000	0.587100	0.878300
C26551	C2655	0.133700	0.698300	0.739600
C26561	C2656	0.124400	0.720700	0.751700
C26571	C2657	0.115000	0.742800	0.734600
C26581	C2658	0.117100	0.741500	0.709200
C26591	C2659	0.126100	0.719000	0.699500
C26601	C2660	0.137000	0.697400	0.714600
C26611	C2661	0.223500	0.689400	0.727600
C26621	C2662	0.235700	0.701000	0.707200
C26631	C2663	0.235300	0.687700	0.682800
C26641	C2664	0.224300	0.661400	0.681000
C26651	C2665	0.215300	0.648300	0.704800
C26661	C2666	0.213700	0.663500	0.726100
C26671	C2667	0.250200	0.721000	0.897100
C26681	C2668	0.259000	0.746200	0.902300
C26691	C2669	0.281500	0.750600	0.919000
C26701	C2670	0.295200	0.729800	0.930400
C26711	C2671	0.286400	0.704600	0.925200
C26721	C2672	0.264000	0.700200	0.908500
C26731	C2673	0.303300	0.630300	0.783500
C26741	C2674	0.325500	0.620900	0.767000
C26751	C2675	0.354200	0.614500	0.776000
C26761	C2676	0.358900	0.614800	0.804200
C26771	C2677	0.335300	0.625500	0.821900
C26781	C2678	0.308500	0.632500	0.809600
C26791	C2679	0.088800	0.809900	0.002900
C26801	C2680	0.094700	0.805500	0.029600
C26811	C2681	0.122800	0.812900	0.038300
C26821	C2682	0.143200	0.821300	0.022600
C26831	C2683	0.137600	0.826600	0.996300
C26841	C2684	0.109700	0.819600	0.985700
Cd3691	Cd369	0.106410	0.660200	0.896000
Cd3701	Cd370	0.049250	0.682120	0.842000
Cd3711	Cd371	0.164140	0.642070	0.843260
Cd3721	Cd372	0.102450	0.661610	0.790000
Cd3731	Cd373	0.126750	0.713010	0.839570
Cd3741	Cd374	0.026570	0.625320	0.897090
Cd3751	Cd375	0.167880	0.639370	0.950430
Cd3761	Cd376	0.183060	0.690620	0.784030
Cd3771	Cd377	0.229960	0.622380	0.797450
Cd3781	Cd378	0.043190	0.682220	0.946410
Cd3791	Cd379	0.126190	0.707100	0.955290
Cd3801	Cd380	0.184580	0.692710	0.900450
Cd3811	Cd381	0.239660	0.684920	0.844240
Cd3821	Cd382	0.075890	0.735040	0.896030
S5921	S592	0.145990	0.678940	0.869700
S5931	S593	0.087840	0.696550	0.923380
S5941	S594	0.065710	0.644190	0.869300
S5951	S595	0.085470	0.700200	0.812840
S5961	S596	0.204460	0.660570	0.816850
S5971	S597	0.114390	0.751770	0.867490
S5981	S598	0.207610	0.658970	0.926420
S5991	S599	0.059870	0.640860	0.767210
S6001	S600	0.142970	0.670940	0.758340
S6011	S601	0.171570	0.726460	0.814760
S6021	S602	0.002280	0.664670	0.823310
S6031	S603	0.032320	0.713620	0.876140
Cd3831	Cd383	0.268650	0.689550	0.774040
Cd3841	Cd384	0.061250	0.757890	0.968020
S6041	S604	0.222360	0.707630	0.755370
S6051	S605	0.026410	0.720240	0.973690
S6061	S606	0.159980	0.729370	0.924580
S6071	S607	0.003590	0.664050	0.919490
S6081	S608	0.992240	0.607290	0.863680
S6091	S609	0.270420	0.639930	0.771510
S6101	S610	0.111260	0.745210	0.981750
S6111	S611	0.222110	0.717640	0.875000
S6121	S612	0.057270	0.772290	0.922380
S6131	S613	0.143100	0.669500	0.981620
S6141	S614	0.277900	0.706790	0.817130
S6151	S615	0.066300	0.649890	0.976290
S6161	S616	0.055120	0.800850	0.990180
C26851	C2685	0.186400	0.751600	0.943800
C26861	C2686	0.204900	0.774100	0.979100
C26871	C2687	0.183700	0.758900	0.968400
C26881	C2688	0.201500	0.733300	0.956600
C26891	C2689	0.505100	0.479600	0.209000
C26901	C2690	0.530100	0.483300	0.223300
C26911	C2691	0.556900	0.488700	0.212500
C26921	C2692	0.558500	0.492700	0.186900
C26931	C2693	0.534900	0.490100	0.172000
C26941	C2694	0.508800	0.482300	0.183000
C26951	C2695	0.231600	0.490400	0.065600
C26961	C2696	0.232700	0.504200	0.043200
C26971	C2697	0.238700	0.532100	0.043100
C26981	C2698	0.242500	0.545500	0.063300
C26991	C2699	0.240800	0.530600	0.084800
C27001	C2700	0.234600	0.504200	0.085900
C27011	C2701	0.338300	0.504400	0.049200
C27021	C2702	0.364800	0.514700	0.046700
C27031	C2703	0.373900	0.539600	0.033500
C27041	C2704	0.351900	0.550200	0.021100
C27051	C2705	0.322700	0.543800	0.024600
C27061	C2706	0.316100	0.522800	0.039500
C27071	C2707	0.521100	0.402900	0.191800
C27081	C2708	0.544000	0.420200	0.197500
C27091	C2709	0.564700	0.411300	0.214800
C27101	C2710	0.563600	0.385000	0.226500
C27111	C2711	0.540000	0.369100	0.221000
C27121	C2712	0.518700	0.378300	0.202600
C27131	C2713	0.493300	0.485400	0.112600
C27141	C2714	0.490300	0.510000	0.118500
C27151	C2715	0.513300	0.528000	0.108200
C27161	C2716	0.535200	0.516800	0.091500
C27171	C2717	0.540300	0.489300	0.091100
C27181	C2718	0.518400	0.473600	0.106000
C27191	C2719	0.509700	0.436600	0.051300
C27201	C2720	0.494400	0.455300	0.041600
C27211	C2721	0.505600	0.474100	0.026300
C27221	C2722	0.535000	0.472100	0.017100
C27231	C2723	0.553600	0.453500	0.027700
C27241	C2724	0.539700	0.434500	0.045900
C27251	C2725	0.455400	0.415400	0.997000
C27261	C2726	0.441600	0.437900	0.991600
C27271	C2727	0.453400	0.456400	0.976400
C27281	C2728	0.480400	0.451300	0.964600
C27291	C2729	0.492500	0.428100	0.969300
C27301	C2730	0.483100	0.414000	0.987000
C27311	C2731	0.405900	0.524000	0.098400
C27321	C2732	0.427500	0.515800	0.083000
C27331	C2733	0.444400	0.533600	0.066500
C27341	C2734	0.436300	0.562000	0.068900
C27351	C2735	0.410600	0.568600	0.085800
C27361	C2736	0.397300	0.549400	0.102500
C27371	C2737	0.415300	0.547300	0.168200
C27381	C2738	0.428000	0.571700	0.161700
C27391	C2739	0.406000	0.589100	0.156600
C27401	C2740	0.378100	0.586200	0.163900
C27411	C2741	0.367200	0.563600	0.168000
C27421	C2742	0.387400	0.540900	0.171300
C27431	C2743	0.463360	0.387170	0.246560
C27441	C2744	0.469700	0.360840	0.246500
C27451	C2745	0.491900	0.351330	0.261420
C27461	C2746	0.507700	0.368200	0.276410
C27471	C2747	0.501300	0.394500	0.276470
C27481	C2748	0.479180	0.404000	0.261550
C27491	C2749	0.391500	0.484690	0.260000
C27501	C2750	0.408700	0.463220	0.264900
C27511	C2751	0.412800	0.454910	0.289370
C27521	C2752	0.399700	0.468100	0.309000
C27531	C2753	0.382500	0.489500	0.304200
C27541	C2754	0.378300	0.497800	0.279700
C27551	C2755	0.325000	0.438610	0.246100
C27561	C2756	0.327700	0.448850	0.270100
C27571	C2757	0.304000	0.460320	0.281600
C27581	C2758	0.277700	0.461560	0.269200
C27591	C2759	0.275000	0.451330	0.245300
C27601	C2760	0.298700	0.439850	0.233700
C27611	C2761	0.543900	0.351800	0.128300
C27621	C2762	0.541400	0.373100	0.144100
C27631	C2763	0.564200	0.379800	0.159700
C27641	C2764	0.589300	0.365100	0.159700
C27651	C2765	0.591800	0.343800	0.143900
C27661	C2766	0.569000	0.337100	0.128300
C27671	C2767	0.366300	0.448300	0.989600
C27681	C2768	0.375600	0.470700	0.001700
C27691	C2769	0.385000	0.492800	0.984600
C27701	C2770	0.382900	0.491500	0.959200
C27711	C2771	0.373900	0.469000	0.949500
C27721	C2772	0.363000	0.447400	0.964600
C27731	C2773	0.276500	0.439400	0.977600
C27741	C2774	0.264300	0.451000	0.957200
C27751	C2775	0.264700	0.437700	0.932800
C27761	C2776	0.275700	0.411400	0.931000
C27771	C2777	0.284700	0.398300	0.954800
C27781	C2778	0.286300	0.413500	0.976100
C27791	C2779	0.249800	0.471000	0.147100
C27801	C2780	0.241000	0.496200	0.152300
C27811	C2781	0.218500	0.500600	0.169000
C27821	C2782	0.204800	0.479800	0.180400
C27831	C2783	0.213600	0.454600	0.175200
C27841	C2784	0.236000	0.450200	0.158500
C27851	C2785	0.196700	0.380300	0.033500
C27861	C2786	0.174500	0.370900	0.017000
C27871	C2787	0.145800	0.364500	0.026000
C27881	C2788	0.141100	0.364800	0.054200
C27891	C2789	0.164700	0.375500	0.071900
C27901	C2790	0.191500	0.382500	0.059600
C27911	C2791	0.411200	0.559900	0.252900
C27921	C2792	0.405300	0.555500	0.279600
C27931	C2793	0.377200	0.562900	0.288300
C27941	C2794	0.356800	0.571300	0.272600
C27951	C2795	0.362400	0.576600	0.246300
C27961	C2796	0.390300	0.569600	0.235700
Cd3851	Cd385	0.393590	0.410200	0.146000
Cd3861	Cd386	0.450750	0.432120	0.092000
Cd3871	Cd387	0.335860	0.392070	0.093260
Cd3881	Cd388	0.397550	0.411610	0.040000
Cd3891	Cd389	0.373250	0.463010	0.089570
Cd3901	Cd390	0.473430	0.375320	0.147090
Cd3911	Cd391	0.332120	0.389370	0.200430
Cd3921	Cd392	0.316940	0.440620	0.034030
Cd3931	Cd393	0.270040	0.372380	0.047450
Cd3941	Cd394	0.456810	0.432220	0.196410
Cd3951	Cd395	0.373810	0.457100	0.205290
Cd3961	Cd396	0.315420	0.442710	0.150450
Cd3971	Cd397	0.260340	0.434920	0.094240
Cd3981	Cd398	0.424110	0.485040	0.146030
S6171	S617	0.354010	0.428940	0.119700
S6181	S618	0.412160	0.446550	0.173380
S6191	S619	0.434290	0.394190	0.119300
S6201	S620	0.414530	0.450200	0.062840
S6211	S621	0.295540	0.410570	0.066850
S6221	S622	0.385610	0.501770	0.117490
S6231	S623	0.292390	0.408970	0.176420
S6241	S624	0.440130	0.390860	0.017210
S6251	S625	0.357030	0.420940	0.008340
S6261	S626	0.328430	0.476460	0.064760
S6271	S627	0.497720	0.414670	0.073310
S6281	S628	0.467680	0.463620	0.126140
Cd3991	Cd399	0.231350	0.439550	0.024040
Cd4001	Cd400	0.438750	0.507890	0.218020
S6291	S629	0.277640	0.457630	0.005370
S6301	S630	0.473590	0.470240	0.223690
S6311	S631	0.340020	0.479370	0.174580
S6321	S632	0.496410	0.414050	0.169490
S6331	S633	0.507760	0.357290	0.113680
S6341	S634	0.229580	0.389930	0.021510
S6351	S635	0.388740	0.495210	0.231750
S6361	S636	0.277890	0.467640	0.125000
S6371	S637	0.442730	0.522290	0.172380
S6381	S638	0.356900	0.419500	0.231620
S6391	S639	0.222100	0.456790	0.067130
S6401	S640	0.433700	0.399890	0.226290
S6411	S641	0.444880	0.550850	0.240180
C27971	C2797	0.313600	0.501600	0.193800
C27981	C2798	0.295100	0.524100	0.229100
C27991	C2799	0.316300	0.508900	0.218400
C28001	C2800	0.298500	0.483300	0.206600
C28011	C2801	0.505100	0.979600	0.709000
C28021	C2802	0.530100	0.983300	0.723300
C28031	C2803	0.556900	0.988700	0.712500
C28041	C2804	0.558500	0.992700	0.686900
C28051	C2805	0.534900	0.990100	0.672000
C28061	C2806	0.508800	0.982300	0.683000
C28071	C2807	0.231600	0.990400	0.565600
C28081	C2808	0.232700	0.004200	0.543200
C28091	C2809	0.238700	0.032100	0.543100
C28101	C2810	0.242500	0.045500	0.563300
C28111	C2811	0.240800	0.030600	0.584800
C28121	C2812	0.234600	0.004200	0.585900
C28131	C2813	0.338300	0.004400	0.549200
C28141	C2814	0.364800	0.014700	0.546700
C28151	C2815	0.373900	0.039600	0.533500
C28161	C2816	0.351900	0.050200	0.521100
C28171	C2817	0.322700	0.043800	0.524600
C28181	C2818	0.316100	0.022800	0.539500
C28191	C2819	0.521100	0.902900	0.691800
C28201	C2820	0.544000	0.920200	0.697500
C28211	C2821	0.564700	0.911300	0.714800
C28221	C2822	0.563600	0.885000	0.726500
C28231	C2823	0.540000	0.869100	0.721000
C28241	C2824	0.518700	0.878300	0.702600
C28251	C2825	0.493300	0.985400	0.612600
C28261	C2826	0.490300	0.010000	0.618500
C28271	C2827	0.513300	0.028000	0.608200
C28281	C2828	0.535200	0.016800	0.591500
C28291	C2829	0.540300	0.989300	0.591100
C28301	C2830	0.518400	0.973600	0.606000
C28311	C2831	0.509700	0.936600	0.551300
C28321	C2832	0.494400	0.955300	0.541600
C28331	C2833	0.505600	0.974100	0.526300
C28341	C2834	0.535000	0.972100	0.517100
C28351	C2835	0.553600	0.953500	0.527700
C28361	C2836	0.539700	0.934500	0.545900
C28371	C2837	0.455400	0.915400	0.497000
C28381	C2838	0.441600	0.937900	0.491600
C28391	C2839	0.453400	0.956400	0.476400
C28401	C2840	0.480400	0.951300	0.464600
C28411	C2841	0.492500	0.928100	0.469300
C28421	C2842	0.483100	0.914000	0.487000
C28431	C2843	0.405900	0.024000	0.598400
C28441	C2844	0.427500	0.015800	0.583000
C28451	C2845	0.444400	0.033600	0.566500
C28461	C2846	0.436300	0.062000	0.568900
C28471	C2847	0.410600	0.068600	0.585800
C28481	C2848	0.397300	0.049400	0.602500
C28491	C2849	0.415300	0.047300	0.668200
C28501	C2850	0.428000	0.071700	0.661700
C28511	C2851	0.406000	0.089100	0.656600
C28521	C2852	0.378100	0.086200	0.663900
C28531	C2853	0.367200	0.063600	0.668000
C28541	C2854	0.387400	0.040900	0.671300
C28551	C2855	0.463360	0.887170	0.746560
C28561	C2856	0.469700	0.860840	0.746500
C28571	C2857	0.491900	0.851330	0.761420
C28581	C2858	0.507700	0.868200	0.776410
C28591	C2859	0.501300	0.894500	0.776470
C28601	C2860	0.479180	0.904000	0.761550
C28611	C2861	0.391500	0.984690	0.760000
C28621	C2862	0.408700	0.963220	0.764900
C28631	C2863	0.412800	0.954910	0.789370
C28641	C2864	0.399700	0.968100	0.809000
C28651	C2865	0.382500	0.989500	0.804200
C28661	C2866	0.378300	0.997800	0.779700
C28671	C2867	0.325000	0.938610	0.746100
C28681	C2868	0.327700	0.948850	0.770100
C28691	C2869	0.304000	0.960320	0.781600
C28701	C2870	0.277700	0.961560	0.769200
C28711	C2871	0.275000	0.951330	0.745300
C28721	C2872	0.298700	0.939850	0.733700
C28731	C2873	0.543900	0.851800	0.628300
C28741	C2874	0.541400	0.873100	0.644100
C28751	C2875	0.564200	0.879800	0.659700
C28761	C2876	0.589300	0.865100	0.659700
C28771	C2877	0.591800	0.843800	0.643900
C28781	C2878	0.569000	0.837100	0.628300
C28791	C2879	0.366300	0.948300	0.489600
C28801	C2880	0.375600	0.970700	0.501700
C28811	C2881	0.385000	0.992800	0.484600
C28821	C2882	0.382900	0.991500	0.459200
C28831	C2883	0.373900	0.969000	0.449500
C28841	C2884	0.363000	0.947400	0.464600
C28851	C2885	0.276500	0.939400	0.477600
C28861	C2886	0.264300	0.951000	0.457200
C28871	C2887	0.264700	0.937700	0.432800
C28881	C2888	0.275700	0.911400	0.431000
C28891	C2889	0.284700	0.898300	0.454800
C28901	C2890	0.286300	0.913500	0.476100
C28911	C2891	0.249800	0.971000	0.647100
C28921	C2892	0.241000	0.996200	0.652300
C28931	C2893	0.218500	0.000600	0.669000
C28941	C2894	0.204800	0.979800	0.680400
C28951	C2895	0.213600	0.954600	0.675200
C28961	C2896	0.236000	0.950200	0.658500
C28971	C2897	0.196700	0.880300	0.533500
C28981	C2898	0.174500	0.870900	0.517000
C28991	C2899	0.145800	0.864500	0.526000
C29001	C2900	0.141100	0.864800	0.554200
C29011	C2901	0.164700	0.875500	0.571900
C29021	C2902	0.191500	0.882500	0.559600
C29031	C2903	0.411200	0.059900	0.752900
C29041	C2904	0.405300	0.055500	0.779600
C29051	C2905	0.377200	0.062900	0.788300
C29061	C2906	0.356800	0.071300	0.772600
C29071	C2907	0.362400	0.076600	0.746300
C29081	C2908	0.390300	0.069600	0.735700
Cd4011	Cd401	0.393590	0.910200	0.646000
Cd4021	Cd402	0.450750	0.932120	0.592000
Cd4031	Cd403	0.335860	0.892070	0.593260
Cd4041	Cd404	0.397550	0.911610	0.540000
Cd4051	Cd405	0.373250	0.963010	0.589570
Cd4061	Cd406	0.473430	0.875320	0.647090
Cd4071	Cd407	0.332120	0.889370	0.700430
Cd4081	Cd408	0.316940	0.940620	0.534030
Cd4091	Cd409	0.270040	0.872380	0.547450
Cd4101	Cd410	0.456810	0.932220	0.696410
Cd4111	Cd411	0.373810	0.957100	0.705290
Cd4121	Cd412	0.315420	0.942710	0.650450
Cd4131	Cd413	0.260340	0.934920	0.594240
Cd4141	Cd414	0.424110	0.985040	0.646030
S6421	S642	0.354010	0.928940	0.619700
S6431	S643	0.412160	0.946550	0.673380
S6441	S644	0.434290	0.894190	0.619300
S6451	S645	0.414530	0.950200	0.562840
S6461	S646	0.295540	0.910570	0.566850
S6471	S647	0.385610	0.001770	0.617490
S6481	S648	0.292390	0.908970	0.676420
S6491	S649	0.440130	0.890860	0.517210
S6501	S650	0.357030	0.920940	0.508340
S6511	S651	0.328430	0.976460	0.564760
S6521	S652	0.497720	0.914670	0.573310
S6531	S653	0.467680	0.963620	0.626140
Cd4151	Cd415	0.231350	0.939550	0.524040
Cd4161	Cd416	0.438750	0.007890	0.718020
S6541	S654	0.277640	0.957630	0.505370
S6551	S655	0.473590	0.970240	0.723690
S6561	S656	0.340020	0.979370	0.674580
S6571	S657	0.496410	0.914050	0.669490
S6581	S658	0.507760	0.857290	0.613680
S6591	S659	0.229580	0.889930	0.521510
S6601	S660	0.388740	0.995210	0.731750
S6611	S661	0.277890	0.967640	0.625000
S6621	S662	0.442730	0.022290	0.672380
S6631	S663	0.356900	0.919500	0.731620
S6641	S664	0.222100	0.956790	0.567130
S6651	S665	0.433700	0.899890	0.726290
S6661	S666	0.444880	0.050850	0.740180
C29091	C2909	0.313600	0.001600	0.693800
C29101	C2910	0.295100	0.024100	0.729100
C29111	C2911	0.316300	0.008900	0.718400
C29121	C2912	0.298500	0.983300	0.706600
C29131	C2913	0.005100	0.479600	0.709000
C29141	C2914	0.030100	0.483300	0.723300
C29151	C2915	0.056900	0.488700	0.712500
C29161	C2916	0.058500	0.492700	0.686900
C29171	C2917	0.034900	0.490100	0.672000
C29181	C2918	0.008800	0.482300	0.683000
C29191	C2919	0.731600	0.490400	0.565600
C29201	C2920	0.732700	0.504200	0.543200
C29211	C2921	0.738700	0.532100	0.543100
C29221	C2922	0.742500	0.545500	0.563300
C29231	C2923	0.740800	0.530600	0.584800
C29241	C2924	0.734600	0.504200	0.585900
C29251	C2925	0.838300	0.504400	0.549200
C29261	C2926	0.864800	0.514700	0.546700
C29271	C2927	0.873900	0.539600	0.533500
C29281	C2928	0.851900	0.550200	0.521100
C29291	C2929	0.822700	0.543800	0.524600
C29301	C2930	0.816100	0.522800	0.539500
C29311	C2931	0.021100	0.402900	0.691800
C29321	C2932	0.044000	0.420200	0.697500
C29331	C2933	0.064700	0.411300	0.714800
C29341	C2934	0.063600	0.385000	0.726500
C29351	C2935	0.040000	0.369100	0.721000
C29361	C2936	0.018700	0.378300	0.702600
C29371	C2937	0.993300	0.485400	0.612600
C29381	C2938	0.990300	0.510000	0.618500
C29391	C2939	0.013300	0.528000	0.608200
C29401	C2940	0.035200	0.516800	0.591500
C29411	C2941	0.040300	0.489300	0.591100
C29421	C2942	0.018400	0.473600	0.606000
C29431	C2943	0.009700	0.436600	0.551300
C29441	C2944	0.994400	0.455300	0.541600
C29451	C2945	0.005600	0.474100	0.526300
C29461	C2946	0.035000	0.472100	0.517100
C29471	C2947	0.053600	0.453500	0.527700
C29481	C2948	0.039700	0.434500	0.545900
C29491	C2949	0.955400	0.415400	0.497000
C29501	C2950	0.941600	0.437900	0.491600
C29511	C2951	0.953400	0.456400	0.476400
C29521	C2952	0.980400	0.451300	0.464600
C29531	C2953	0.992500	0.428100	0.469300
C29541	C2954	0.983100	0.414000	0.487000
C29551	C2955	0.905900	0.524000	0.598400
C29561	C2956	0.927500	0.515800	0.583000
C29571	C2957	0.944400	0.533600	0.566500
C29581	C2958	0.936300	0.562000	0.568900
C29591	C2959	0.910600	0.568600	0.585800
C29601	C2960	0.897300	0.549400	0.602500
C29611	C2961	0.915300	0.547300	0.668200
C29621	C2962	0.928000	0.571700	0.661700
C29631	C2963	0.906000	0.589100	0.656600
C29641	C2964	0.878100	0.586200	0.663900
C29651	C2965	0.867200	0.563600	0.668000
C29661	C2966	0.887400	0.540900	0.671300
C29671	C2967	0.963360	0.387170	0.746560
C29681	C2968	0.969700	0.360840	0.746500
C29691	C2969	0.991900	0.351330	0.761420
C29701	C2970	0.007700	0.368200	0.776410
C29711	C2971	0.001300	0.394500	0.776470
C29721	C2972	0.979180	0.404000	0.761550
C29731	C2973	0.891500	0.484690	0.760000
C29741	C2974	0.908700	0.463220	0.764900
C29751	C2975	0.912800	0.454910	0.789370
C29761	C2976	0.899700	0.468100	0.809000
C29771	C2977	0.882500	0.489500	0.804200
C29781	C2978	0.878300	0.497800	0.779700
C29791	C2979	0.825000	0.438610	0.746100
C29801	C2980	0.827700	0.448850	0.770100
C29811	C2981	0.804000	0.460320	0.781600
C29821	C2982	0.777700	0.461560	0.769200
C29831	C2983	0.775000	0.451330	0.745300
C29841	C2984	0.798700	0.439850	0.733700
C29851	C2985	0.043900	0.351800	0.628300
C29861	C2986	0.041400	0.373100	0.644100
C29871	C2987	0.064200	0.379800	0.659700
C29881	C2988	0.089300	0.365100	0.659700
C29891	C2989	0.091800	0.343800	0.643900
C29901	C2990	0.069000	0.337100	0.628300
C29911	C2991	0.866300	0.448300	0.489600
C29921	C2992	0.875600	0.470700	0.501700
C29931	C2993	0.885000	0.492800	0.484600
C29941	C2994	0.882900	0.491500	0.459200
C29951	C2995	0.873900	0.469000	0.449500
C29961	C2996	0.863000	0.447400	0.464600
C29971	C2997	0.776500	0.439400	0.477600
C29981	C2998	0.764300	0.451000	0.457200
C29991	C2999	0.764700	0.437700	0.432800
C30001	C3000	0.775700	0.411400	0.431000
C30011	C3001	0.784700	0.398300	0.454800
C30021	C3002	0.786300	0.413500	0.476100
C30031	C3003	0.749800	0.471000	0.647100
C30041	C3004	0.741000	0.496200	0.652300
C30051	C3005	0.718500	0.500600	0.669000
C30061	C3006	0.704800	0.479800	0.680400
C30071	C3007	0.713600	0.454600	0.675200
C30081	C3008	0.736000	0.450200	0.658500
C30091	C3009	0.696700	0.380300	0.533500
C30101	C3010	0.674500	0.370900	0.517000
C30111	C3011	0.645800	0.364500	0.526000
C30121	C3012	0.641100	0.364800	0.554200
C30131	C3013	0.664700	0.375500	0.571900
C30141	C3014	0.691500	0.382500	0.559600
C30151	C3015	0.911200	0.559900	0.752900
C30161	C3016	0.905300	0.555500	0.779600
C30171	C3017	0.877200	0.562900	0.788300
C30181	C3018	0.856800	0.571300	0.772600
C30191	C3019	0.862400	0.576600	0.746300
C30201	C3020	0.890300	0.569600	0.735700
Cd4171	Cd417	0.893590	0.410200	0.646000
Cd4181	Cd418	0.950750	0.432120	0.592000
Cd4191	Cd419	0.835860	0.392070	0.593260
Cd4201	Cd420	0.897550	0.411610	0.540000
Cd4211	Cd421	0.873250	0.463010	0.589570
Cd4221	Cd422	0.973430	0.375320	0.647090
Cd4231	Cd423	0.832120	0.389370	0.700430
Cd4241	Cd424	0.816940	0.440620	0.534030
Cd4251	Cd425	0.770040	0.372380	0.547450
Cd4261	Cd426	0.956810	0.432220	0.696410
Cd4271	Cd427	0.873810	0.457100	0.705290
Cd4281	Cd428	0.815420	0.442710	0.650450
Cd4291	Cd429	0.760340	0.434920	0.594240
Cd4301	Cd430	0.924110	0.485040	0.646030
S6671	S667	0.854010	0.428940	0.619700
S6681	S668	0.912160	0.446550	0.673380
S6691	S669	0.934290	0.394190	0.619300
S6701	S670	0.914530	0.450200	0.562840
S6711	S671	0.795540	0.410570	0.566850
S6721	S672	0.885610	0.501770	0.617490
S6731	S673	0.792390	0.408970	0.676420
S6741	S674	0.940130	0.390860	0.517210
S6751	S675	0.857030	0.420940	0.508340
S6761	S676	0.828430	0.476460	0.564760
S6771	S677	0.997720	0.414670	0.573310
S6781	S678	0.967680	0.463620	0.626140
Cd4311	Cd431	0.731350	0.439550	0.524040
Cd4321	Cd432	0.938750	0.507890	0.718020
S6791	S679	0.777640	0.457630	0.505370
S6801	S680	0.973590	0.470240	0.723690
S6811	S681	0.840020	0.479370	0.674580
S6821	S682	0.996410	0.414050	0.669490
S6831	S683	0.007760	0.357290	0.613680
S6841	S684	0.729580	0.389930	0.521510
S6851	S685	0.888740	0.495210	0.731750
S6861	S686	0.777890	0.467640	0.625000
S6871	S687	0.942730	0.522290	0.672380
S6881	S688	0.856900	0.419500	0.731620
S6891	S689	0.722100	0.456790	0.567130
S6901	S690	0.933700	0.399890	0.726290
S6911	S691	0.944880	0.550850	0.740180
C30211	C3021	0.813600	0.501600	0.693800
C30221	C3022	0.795100	0.524100	0.729100
C30231	C3023	0.816300	0.508900	0.718400
C30241	C3024	0.798500	0.483300	0.706600
C30251	C3025	0.005100	0.979600	0.209000
C30261	C3026	0.030100	0.983300	0.223300
C30271	C3027	0.056900	0.988700	0.212500
C30281	C3028	0.058500	0.992700	0.186900
C30291	C3029	0.034900	0.990100	0.172000
C30301	C3030	0.008800	0.982300	0.183000
C30311	C3031	0.731600	0.990400	0.065600
C30321	C3032	0.732700	0.004200	0.043200
C30331	C3033	0.738700	0.032100	0.043100
C30341	C3034	0.742500	0.045500	0.063300
C30351	C3035	0.740800	0.030600	0.084800
C30361	C3036	0.734600	0.004200	0.085900
C30371	C3037	0.838300	0.004400	0.049200
C30381	C3038	0.864800	0.014700	0.046700
C30391	C3039	0.873900	0.039600	0.033500
C30401	C3040	0.851900	0.050200	0.021100
C30411	C3041	0.822700	0.043800	0.024600
C30421	C3042	0.816100	0.022800	0.039500
C30431	C3043	0.021100	0.902900	0.191800
C30441	C3044	0.044000	0.920200	0.197500
C30451	C3045	0.064700	0.911300	0.214800
C30461	C3046	0.063600	0.885000	0.226500
C30471	C3047	0.040000	0.869100	0.221000
C30481	C3048	0.018700	0.878300	0.202600
C30491	C3049	0.993300	0.985400	0.112600
C30501	C3050	0.990300	0.010000	0.118500
C30511	C3051	0.013300	0.028000	0.108200
C30521	C3052	0.035200	0.016800	0.091500
C30531	C3053	0.040300	0.989300	0.091100
C30541	C3054	0.018400	0.973600	0.106000
C30551	C3055	0.009700	0.936600	0.051300
C30561	C3056	0.994400	0.955300	0.041600
C30571	C3057	0.005600	0.974100	0.026300
C30581	C3058	0.035000	0.972100	0.017100
C30591	C3059	0.053600	0.953500	0.027700
C30601	C3060	0.039700	0.934500	0.045900
C30611	C3061	0.955400	0.915400	0.997000
C30621	C3062	0.941600	0.937900	0.991600
C30631	C3063	0.953400	0.956400	0.976400
C30641	C3064	0.980400	0.951300	0.964600
C30651	C3065	0.992500	0.928100	0.969300
C30661	C3066	0.983100	0.914000	0.987000
C30671	C3067	0.905900	0.024000	0.098400
C30681	C3068	0.927500	0.015800	0.083000
C30691	C3069	0.944400	0.033600	0.066500
C30701	C3070	0.936300	0.062000	0.068900
C30711	C3071	0.910600	0.068600	0.085800
C30721	C3072	0.897300	0.049400	0.102500
C30731	C3073	0.915300	0.047300	0.168200
C30741	C3074	0.928000	0.071700	0.161700
C30751	C3075	0.906000	0.089100	0.156600
C30761	C3076	0.878100	0.086200	0.163900
C30771	C3077	0.867200	0.063600	0.168000
C30781	C3078	0.887400	0.040900	0.171300
C30791	C3079	0.963360	0.887170	0.246560
C30801	C3080	0.969700	0.860840	0.246500
C30811	C3081	0.991900	0.851330	0.261420
C30821	C3082	0.007700	0.868200	0.276410
C30831	C3083	0.001300	0.894500	0.276470
C30841	C3084	0.979180	0.904000	0.261550
C30851	C3085	0.891500	0.984690	0.260000
C30861	C3086	0.908700	0.963220	0.264900
C30871	C3087	0.912800	0.954910	0.289370
C30881	C3088	0.899700	0.968100	0.309000
C30891	C3089	0.882500	0.989500	0.304200
C30901	C3090	0.878300	0.997800	0.279700
C30911	C3091	0.825000	0.938610	0.246100
C30921	C3092	0.827700	0.948850	0.270100
C30931	C3093	0.804000	0.960320	0.281600
C30941	C3094	0.777700	0.961560	0.269200
C30951	C3095	0.775000	0.951330	0.245300
C30961	C3096	0.798700	0.939850	0.233700
C30971	C3097	0.043900	0.851800	0.128300
C30981	C3098	0.041400	0.873100	0.144100
C30991	C3099	0.064200	0.879800	0.159700
C31001	C3100	0.089300	0.865100	0.159700
C31011	C3101	0.091800	0.843800	0.143900
C31021	C3102	0.069000	0.837100	0.128300
C31031	C3103	0.866300	0.948300	0.989600
C31041	C3104	0.875600	0.970700	0.001700
C31051	C3105	0.885000	0.992800	0.984600
C31061	C3106	0.882900	0.991500	0.959200
C31071	C3107	0.873900	0.969000	0.949500
C31081	C3108	0.863000	0.947400	0.964600
C31091	C3109	0.776500	0.939400	0.977600
C31101	C3110	0.764300	0.951000	0.957200
C31111	C3111	0.764700	0.937700	0.932800
C31121	C3112	0.775700	0.911400	0.931000
C31131	C3113	0.784700	0.898300	0.954800
C31141	C3114	0.786300	0.913500	0.976100
C31151	C3115	0.749800	0.971000	0.147100
C31161	C3116	0.741000	0.996200	0.152300
C31171	C3117	0.718500	0.000600	0.169000
C31181	C3118	0.704800	0.979800	0.180400
C31191	C3119	0.713600	0.954600	0.175200
C31201	C3120	0.736000	0.950200	0.158500
C31211	C3121	0.696700	0.880300	0.033500
C31221	C3122	0.674500	0.870900	0.017000
C31231	C3123	0.645800	0.864500	0.026000
C31241	C3124	0.641100	0.864800	0.054200
C31251	C3125	0.664700	0.875500	0.071900
C31261	C3126	0.691500	0.882500	0.059600
C31271	C3127	0.911200	0.059900	0.252900
C31281	C3128	0.905300	0.055500	0.279600
C31291	C3129	0.877200	0.062900	0.288300
C31301	C3130	0.856800	0.071300	0.272600
C31311	C3131	0.862400	0.076600	0.246300
C31321	C3132	0.890300	0.069600	0.235700
Cd4331	Cd433	0.893590	0.910200	0.146000
Cd4341	Cd434	0.950750	0.932120	0.092000
Cd4351	Cd435	0.835860	0.892070	0.093260
Cd4361	Cd436	0.897550	0.911610	0.040000
Cd4371	Cd437	0.873250	0.963010	0.089570
Cd4381	Cd438	0.973430	0.875320	0.147090
Cd4391	Cd439	0.832120	0.889370	0.200430
Cd4401	Cd440	0.816940	0.940620	0.034030
Cd4411	Cd441	0.770040	0.872380	0.047450
Cd4421	Cd442	0.956810	0.932220	0.196410
Cd4431	Cd443	0.873810	0.957100	0.205290
Cd4441	Cd444	0.815420	0.942710	0.150450
Cd4451	Cd445	0.760340	0.934920	0.094240
Cd4461	Cd446	0.924110	0.985040	0.146030
S6921	S692	0.854010	0.928940	0.119700
S6931	S693	0.912160	0.946550	0.173380
S6941	S694	0.934290	0.894190	0.119300
S6951	S695	0.914530	0.950200	0.062840
S6961	S696	0.795540	0.910570	0.066850
S6971	S697	0.885610	0.001770	0.117490
S6981	S698	0.792390	0.908970	0.176420
S6991	S699	0.940130	0.890860	0.017210
S7001	S700	0.857030	0.920940	0.008340
S7011	S701	0.828430	0.976460	0.064760
S7021	S702	0.997720	0.914670	0.073310
S7031	S703	0.967680	0.963620	0.126140
Cd4471	Cd447	0.731350	0.939550	0.024040
Cd4481	Cd448	0.938750	0.007890	0.218020
S7041	S704	0.777640	0.957630	0.005370
S7051	S705	0.973590	0.970240	0.223690
S7061	S706	0.840020	0.979370	0.174580
S7071	S707	0.996410	0.914050	0.169490
S7081	S708	0.007760	0.857290	0.113680
S7091	S709	0.729580	0.889930	0.021510
S7101	S710	0.888740	0.995210	0.231750
S7111	S711	0.777890	0.967640	0.125000
S7121	S712	0.942730	0.022290	0.172380
S7131	S713	0.856900	0.919500	0.231620
S7141	S714	0.722100	0.956790	0.067130
S7151	S715	0.933700	0.899890	0.226290
S7161	S716	0.944880	0.050850	0.240180
C31331	C3133	0.813600	0.001600	0.193800
C31341	C3134	0.795100	0.024100	0.229100
C31351	C3135	0.816300	0.008900	0.218400
C31361	C3136	0.798500	0.983300	0.206600
C31371	C3137	0.744900	0.770400	0.209000
C31381	C3138	0.719900	0.766700	0.223300
C31391	C3139	0.693100	0.761300	0.212500
C31401	C3140	0.691500	0.757300	0.186900
C31411	C3141	0.715100	0.759900	0.172000
C31421	C3142	0.741200	0.767700	0.183000
C31431	C3143	0.018400	0.759600	0.065600
C31441	C3144	0.017300	0.745800	0.043200
C31451	C3145	0.011300	0.717900	0.043100
C31461	C3146	0.007500	0.704500	0.063300
C31471	C3147	0.009200	0.719400	0.084800
C31481	C3148	0.015400	0.745800	0.085900
C31491	C3149	0.911700	0.745600	0.049200
C31501	C3150	0.885200	0.735300	0.046700
C31511	C3151	0.876100	0.710400	0.033500
C31521	C3152	0.898100	0.699800	0.021100
C31531	C3153	0.927300	0.706200	0.024600
C31541	C3154	0.933900	0.727200	0.039500
C31551	C3155	0.728900	0.847100	0.191800
C31561	C3156	0.706000	0.829800	0.197500
C31571	C3157	0.685300	0.838700	0.214800
C31581	C3158	0.686400	0.865000	0.226500
C31591	C3159	0.710000	0.880900	0.221000
C31601	C3160	0.731300	0.871700	0.202600
C31611	C3161	0.756700	0.764600	0.112600
C31621	C3162	0.759700	0.740000	0.118500
C31631	C3163	0.736700	0.722000	0.108200
C31641	C3164	0.714800	0.733200	0.091500
C31651	C3165	0.709700	0.760700	0.091100
C31661	C3166	0.731600	0.776400	0.106000
C31671	C3167	0.740300	0.813400	0.051300
C31681	C3168	0.755600	0.794700	0.041600
C31691	C3169	0.744400	0.775900	0.026300
C31701	C3170	0.715000	0.777900	0.017100
C31711	C3171	0.696400	0.796500	0.027700
C31721	C3172	0.710300	0.815500	0.045900
C31731	C3173	0.794600	0.834600	0.997000
C31741	C3174	0.808400	0.812100	0.991600
C31751	C3175	0.796600	0.793600	0.976400
C31761	C3176	0.769600	0.798700	0.964600
C31771	C3177	0.757500	0.821900	0.969300
C31781	C3178	0.766900	0.836000	0.987000
C31791	C3179	0.844100	0.726000	0.098400
C31801	C3180	0.822500	0.734200	0.083000
C31811	C3181	0.805600	0.716400	0.066500
C31821	C3182	0.813700	0.688000	0.068900
C31831	C3183	0.839400	0.681400	0.085800
C31841	C3184	0.852700	0.700600	0.102500
C31851	C3185	0.834700	0.702700	0.168200
C31861	C3186	0.822000	0.678300	0.161700
C31871	C3187	0.844000	0.660900	0.156600
C31881	C3188	0.871900	0.663800	0.163900
C31891	C3189	0.882800	0.686400	0.168000
C31901	C3190	0.862600	0.709100	0.171300
C31911	C3191	0.786640	0.862830	0.246560
C31921	C3192	0.780300	0.889160	0.246500
C31931	C3193	0.758100	0.898670	0.261420
C31941	C3194	0.742300	0.881800	0.276410
C31951	C3195	0.748700	0.855500	0.276470
C31961	C3196	0.770820	0.846000	0.261550
C31971	C3197	0.858500	0.765310	0.260000
C31981	C3198	0.841300	0.786780	0.264900
C31991	C3199	0.837200	0.795090	0.289370
C32001	C3200	0.850300	0.781900	0.309000
C32011	C3201	0.867500	0.760500	0.304200
C32021	C3202	0.871700	0.752200	0.279700
C32031	C3203	0.925000	0.811390	0.246100
C32041	C3204	0.922300	0.801150	0.270100
C32051	C3205	0.946000	0.789680	0.281600
C32061	C3206	0.972300	0.788440	0.269200
C32071	C3207	0.975000	0.798670	0.245300
C32081	C3208	0.951300	0.810150	0.233700
C32091	C3209	0.706100	0.898200	0.128300
C32101	C3210	0.708600	0.876900	0.144100
C32111	C3211	0.685800	0.870200	0.159700
C32121	C3212	0.660700	0.884900	0.159700
C32131	C3213	0.658200	0.906200	0.143900
C32141	C3214	0.681000	0.912900	0.128300
C32151	C3215	0.883700	0.801700	0.989600
C32161	C3216	0.874400	0.779300	0.001700
C32171	C3217	0.865000	0.757200	0.984600
C32181	C3218	0.867100	0.758500	0.959200
C32191	C3219	0.876100	0.781000	0.949500
C32201	C3220	0.887000	0.802600	0.964600
C32211	C3221	0.973500	0.810600	0.977600
C32221	C3222	0.985700	0.799000	0.957200
C32231	C3223	0.985300	0.812300	0.932800
C32241	C3224	0.974300	0.838600	0.931000
C32251	C3225	0.965300	0.851700	0.954800
C32261	C3226	0.963700	0.836500	0.976100
C32271	C3227	0.000200	0.779000	0.147100
C32281	C3228	0.009000	0.753800	0.152300
C32291	C3229	0.031500	0.749400	0.169000
C32301	C3230	0.045200	0.770200	0.180400
C32311	C3231	0.036400	0.795400	0.175200
C32321	C3232	0.014000	0.799800	0.158500
C32331	C3233	0.053300	0.869700	0.033500
C32341	C3234	0.075500	0.879100	0.017000
C32351	C3235	0.104200	0.885500	0.026000
C32361	C3236	0.108900	0.885200	0.054200
C32371	C3237	0.085300	0.874500	0.071900
C32381	C3238	0.058500	0.867500	0.059600
C32391	C3239	0.838800	0.690100	0.252900
C32401	C3240	0.844700	0.694500	0.279600
C32411	C3241	0.872800	0.687100	0.288300
C32421	C3242	0.893200	0.678700	0.272600
C32431	C3243	0.887600	0.673400	0.246300
C32441	C3244	0.859700	0.680400	0.235700
Cd4491	Cd449	0.856410	0.839800	0.146000
Cd4501	Cd450	0.799250	0.817880	0.092000
Cd4511	Cd451	0.914140	0.857930	0.093260
Cd4521	Cd452	0.852450	0.838390	0.040000
Cd4531	Cd453	0.876750	0.786990	0.089570
Cd4541	Cd454	0.776570	0.874680	0.147090
Cd4551	Cd455	0.917880	0.860630	0.200430
Cd4561	Cd456	0.933060	0.809380	0.034030
Cd4571	Cd457	0.979960	0.877620	0.047450
Cd4581	Cd458	0.793190	0.817780	0.196410
Cd4591	Cd459	0.876190	0.792900	0.205290
Cd4601	Cd460	0.934580	0.807290	0.150450
Cd4611	Cd461	0.989660	0.815080	0.094240
Cd4621	Cd462	0.825890	0.764960	0.146030
S7171	S717	0.895990	0.821060	0.119700
S7181	S718	0.837840	0.803450	0.173380
S7191	S719	0.815710	0.855810	0.119300
S7201	S720	0.835470	0.799800	0.062840
S7211	S721	0.954460	0.839430	0.066850
S7221	S722	0.864390	0.748230	0.117490
S7231	S723	0.957610	0.841030	0.176420
S7241	S724	0.809870	0.859140	0.017210
S7251	S725	0.892970	0.829060	0.008340
S7261	S726	0.921570	0.773540	0.064760
S7271	S727	0.752280	0.835330	0.073310
S7281	S728	0.782320	0.786380	0.126140
Cd4631	Cd463	0.018650	0.810450	0.024040
Cd4641	Cd464	0.811250	0.742110	0.218020
S7291	S729	0.972360	0.792370	0.005370
S7301	S730	0.776410	0.779760	0.223690
S7311	S731	0.909980	0.770630	0.174580
S7321	S732	0.753590	0.835950	0.169490
S7331	S733	0.742240	0.892710	0.113680
S7341	S734	0.020420	0.860070	0.021510
S7351	S735	0.861260	0.754790	0.231750
S7361	S736	0.972110	0.782360	0.125000
S7371	S737	0.807270	0.727710	0.172380
S7381	S738	0.893100	0.830500	0.231620
S7391	S739	0.027900	0.793210	0.067130
S7401	S740	0.816300	0.850110	0.226290
S7411	S741	0.805120	0.699150	0.240180
C32451	C3245	0.936400	0.748400	0.193800
C32461	C3246	0.954900	0.725900	0.229100
C32471	C3247	0.933700	0.741100	0.218400
C32481	C3248	0.951500	0.766700	0.206600
C32491	C3249	0.744900	0.270400	0.709000
C32501	C3250	0.719900	0.266700	0.723300
C32511	C3251	0.693100	0.261300	0.712500
C32521	C3252	0.691500	0.257300	0.686900
C32531	C3253	0.715100	0.259900	0.672000
C32541	C3254	0.741200	0.267700	0.683000
C32551	C3255	0.018400	0.259600	0.565600
C32561	C3256	0.017300	0.245800	0.543200
C32571	C3257	0.011300	0.217900	0.543100
C32581	C3258	0.007500	0.204500	0.563300
C32591	C3259	0.009200	0.219400	0.584800
C32601	C3260	0.015400	0.245800	0.585900
C32611	C3261	0.911700	0.245600	0.549200
C32621	C3262	0.885200	0.235300	0.546700
C32631	C3263	0.876100	0.210400	0.533500
C32641	C3264	0.898100	0.199800	0.521100
C32651	C3265	0.927300	0.206200	0.524600
C32661	C3266	0.933900	0.227200	0.539500
C32671	C3267	0.728900	0.347100	0.691800
C32681	C3268	0.706000	0.329800	0.697500
C32691	C3269	0.685300	0.338700	0.714800
C32701	C3270	0.686400	0.365000	0.726500
C32711	C3271	0.710000	0.380900	0.721000
C32721	C3272	0.731300	0.371700	0.702600
C32731	C3273	0.756700	0.264600	0.612600
C32741	C3274	0.759700	0.240000	0.618500
C32751	C3275	0.736700	0.222000	0.608200
C32761	C3276	0.714800	0.233200	0.591500
C32771	C3277	0.709700	0.260700	0.591100
C32781	C3278	0.731600	0.276400	0.606000
C32791	C3279	0.740300	0.313400	0.551300
C32801	C3280	0.755600	0.294700	0.541600
C32811	C3281	0.744400	0.275900	0.526300
C32821	C3282	0.715000	0.277900	0.517100
C32831	C3283	0.696400	0.296500	0.527700
C32841	C3284	0.710300	0.315500	0.545900
C32851	C3285	0.794600	0.334600	0.497000
C32861	C3286	0.808400	0.312100	0.491600
C32871	C3287	0.796600	0.293600	0.476400
C32881	C3288	0.769600	0.298700	0.464600
C32891	C3289	0.757500	0.321900	0.469300
C32901	C3290	0.766900	0.336000	0.487000
C32911	C3291	0.844100	0.226000	0.598400
C32921	C3292	0.822500	0.234200	0.583000
C32931	C3293	0.805600	0.216400	0.566500
C32941	C3294	0.813700	0.188000	0.568900
C32951	C3295	0.839400	0.181400	0.585800
C32961	C3296	0.852700	0.200600	0.602500
C32971	C3297	0.834700	0.202700	0.668200
C32981	C3298	0.822000	0.178300	0.661700
C32991	C3299	0.844000	0.160900	0.656600
C33001	C3300	0.871900	0.163800	0.663900
C33011	C3301	0.882800	0.186400	0.668000
C33021	C3302	0.862600	0.209100	0.671300
C33031	C3303	0.786640	0.362830	0.746560
C33041	C3304	0.780300	0.389160	0.746500
C33051	C3305	0.758100	0.398670	0.761420
C33061	C3306	0.742300	0.381800	0.776410
C33071	C3307	0.748700	0.355500	0.776470
C33081	C3308	0.770820	0.346000	0.761550
C33091	C3309	0.858500	0.265310	0.760000
C33101	C3310	0.841300	0.286780	0.764900
C33111	C3311	0.837200	0.295090	0.789370
C33121	C3312	0.850300	0.281900	0.809000
C33131	C3313	0.867500	0.260500	0.804200
C33141	C3314	0.871700	0.252200	0.779700
C33151	C3315	0.925000	0.311390	0.746100
C33161	C3316	0.922300	0.301150	0.770100
C33171	C3317	0.946000	0.289680	0.781600
C33181	C3318	0.972300	0.288440	0.769200
C33191	C3319	0.975000	0.298670	0.745300
C33201	C3320	0.951300	0.310150	0.733700
C33211	C3321	0.706100	0.398200	0.628300
C33221	C3322	0.708600	0.376900	0.644100
C33231	C3323	0.685800	0.370200	0.659700
C33241	C3324	0.660700	0.384900	0.659700
C33251	C3325	0.658200	0.406200	0.643900
C33261	C3326	0.681000	0.412900	0.628300
C33271	C3327	0.883700	0.301700	0.489600
C33281	C3328	0.874400	0.279300	0.501700
C33291	C3329	0.865000	0.257200	0.484600
C33301	C3330	0.867100	0.258500	0.459200
C33311	C3331	0.876100	0.281000	0.449500
C33321	C3332	0.887000	0.302600	0.464600
C33331	C3333	0.973500	0.310600	0.477600
C33341	C3334	0.985700	0.299000	0.457200
C33351	C3335	0.985300	0.312300	0.432800
C33361	C3336	0.974300	0.338600	0.431000
C33371	C3337	0.965300	0.351700	0.454800
C33381	C3338	0.963700	0.336500	0.476100
C33391	C3339	0.000200	0.279000	0.647100
C33401	C3340	0.009000	0.253800	0.652300
C33411	C3341	0.031500	0.249400	0.669000
C33421	C3342	0.045200	0.270200	0.680400
C33431	C3343	0.036400	0.295400	0.675200
C33441	C3344	0.014000	0.299800	0.658500
C33451	C3345	0.053300	0.369700	0.533500
C33461	C3346	0.075500	0.379100	0.517000
C33471	C3347	0.104200	0.385500	0.526000
C33481	C3348	0.108900	0.385200	0.554200
C33491	C3349	0.085300	0.374500	0.571900
C33501	C3350	0.058500	0.367500	0.559600
C33511	C3351	0.838800	0.190100	0.752900
C33521	C3352	0.844700	0.194500	0.779600
C33531	C3353	0.872800	0.187100	0.788300
C33541	C3354	0.893200	0.178700	0.772600
C33551	C3355	0.887600	0.173400	0.746300
C33561	C3356	0.859700	0.180400	0.735700
Cd4651	Cd465	0.856410	0.339800	0.646000
Cd4661	Cd466	0.799250	0.317880	0.592000
Cd4671	Cd467	0.914140	0.357930	0.593260
Cd4681	Cd468	0.852450	0.338390	0.540000
Cd4691	Cd469	0.876750	0.286990	0.589570
Cd4701	Cd470	0.776570	0.374680	0.647090
Cd4711	Cd471	0.917880	0.360630	0.700430
Cd4721	Cd472	0.933060	0.309380	0.534030
Cd4731	Cd473	0.979960	0.377620	0.547450
Cd4741	Cd474	0.793190	0.317780	0.696410
Cd4751	Cd475	0.876190	0.292900	0.705290
Cd4761	Cd476	0.934580	0.307290	0.650450
Cd4771	Cd477	0.989660	0.315080	0.594240
Cd4781	Cd478	0.825890	0.264960	0.646030
S7421	S742	0.895990	0.321060	0.619700
S7431	S743	0.837840	0.303450	0.673380
S7441	S744	0.815710	0.355810	0.619300
S7451	S745	0.835470	0.299800	0.562840
S7461	S746	0.954460	0.339430	0.566850
S7471	S747	0.864390	0.248230	0.617490
S7481	S748	0.957610	0.341030	0.676420
S7491	S749	0.809870	0.359140	0.517210
S7501	S750	0.892970	0.329060	0.508340
S7511	S751	0.921570	0.273540	0.564760
S7521	S752	0.752280	0.335330	0.573310
S7531	S753	0.782320	0.286380	0.626140
Cd4791	Cd479	0.018650	0.310450	0.524040
Cd4801	Cd480	0.811250	0.242110	0.718020
S7541	S754	0.972360	0.292370	0.505370
S7551	S755	0.776410	0.279760	0.723690
S7561	S756	0.909980	0.270630	0.674580
S7571	S757	0.753590	0.335950	0.669490
S7581	S758	0.742240	0.392710	0.613680
S7591	S759	0.020420	0.360070	0.521510
S7601	S760	0.861260	0.254790	0.731750
S7611	S761	0.972110	0.282360	0.625000
S7621	S762	0.807270	0.227710	0.672380
S7631	S763	0.893100	0.330500	0.731620
S7641	S764	0.027900	0.293210	0.567130
S7651	S765	0.816300	0.350110	0.726290
S7661	S766	0.805120	0.199150	0.740180
C33571	C3357	0.936400	0.248400	0.693800
C33581	C3358	0.954900	0.225900	0.729100
C33591	C3359	0.933700	0.241100	0.718400
C33601	C3360	0.951500	0.266700	0.706600
C33611	C3361	0.244900	0.770400	0.709000
C33621	C3362	0.219900	0.766700	0.723300
C33631	C3363	0.193100	0.761300	0.712500
C33641	C3364	0.191500	0.757300	0.686900
C33651	C3365	0.215100	0.759900	0.672000
C33661	C3366	0.241200	0.767700	0.683000
C33671	C3367	0.518400	0.759600	0.565600
C33681	C3368	0.517300	0.745800	0.543200
C33691	C3369	0.511300	0.717900	0.543100
C33701	C3370	0.507500	0.704500	0.563300
C33711	C3371	0.509200	0.719400	0.584800
C33721	C3372	0.515400	0.745800	0.585900
C33731	C3373	0.411700	0.745600	0.549200
C33741	C3374	0.385200	0.735300	0.546700
C33751	C3375	0.376100	0.710400	0.533500
C33761	C3376	0.398100	0.699800	0.521100
C33771	C3377	0.427300	0.706200	0.524600
C33781	C3378	0.433900	0.727200	0.539500
C33791	C3379	0.228900	0.847100	0.691800
C33801	C3380	0.206000	0.829800	0.697500
C33811	C3381	0.185300	0.838700	0.714800
C33821	C3382	0.186400	0.865000	0.726500
C33831	C3383	0.210000	0.880900	0.721000
C33841	C3384	0.231300	0.871700	0.702600
C33851	C3385	0.256700	0.764600	0.612600
C33861	C3386	0.259700	0.740000	0.618500
C33871	C3387	0.236700	0.722000	0.608200
C33881	C3388	0.214800	0.733200	0.591500
C33891	C3389	0.209700	0.760700	0.591100
C33901	C3390	0.231600	0.776400	0.606000
C33911	C3391	0.240300	0.813400	0.551300
C33921	C3392	0.255600	0.794700	0.541600
C33931	C3393	0.244400	0.775900	0.526300
C33941	C3394	0.215000	0.777900	0.517100
C33951	C3395	0.196400	0.796500	0.527700
C33961	C3396	0.210300	0.815500	0.545900
C33971	C3397	0.294600	0.834600	0.497000
C33981	C3398	0.308400	0.812100	0.491600
C33991	C3399	0.296600	0.793600	0.476400
C34001	C3400	0.269600	0.798700	0.464600
C34011	C3401	0.257500	0.821900	0.469300
C34021	C3402	0.266900	0.836000	0.487000
C34031	C3403	0.344100	0.726000	0.598400
C34041	C3404	0.322500	0.734200	0.583000
C34051	C3405	0.305600	0.716400	0.566500
C34061	C3406	0.313700	0.688000	0.568900
C34071	C3407	0.339400	0.681400	0.585800
C34081	C3408	0.352700	0.700600	0.602500
C34091	C3409	0.334700	0.702700	0.668200
C34101	C3410	0.322000	0.678300	0.661700
C34111	C3411	0.344000	0.660900	0.656600
C34121	C3412	0.371900	0.663800	0.663900
C34131	C3413	0.382800	0.686400	0.668000
C34141	C3414	0.362600	0.709100	0.671300
C34151	C3415	0.286640	0.862830	0.746560
C34161	C3416	0.280300	0.889160	0.746500
C34171	C3417	0.258100	0.898670	0.761420
C34181	C3418	0.242300	0.881800	0.776410
C34191	C3419	0.248700	0.855500	0.776470
C34201	C3420	0.270820	0.846000	0.761550
C34211	C3421	0.358500	0.765310	0.760000
C34221	C3422	0.341300	0.786780	0.764900
C34231	C3423	0.337200	0.795090	0.789370
C34241	C3424	0.350300	0.781900	0.809000
C34251	C3425	0.367500	0.760500	0.804200
C34261	C3426	0.371700	0.752200	0.779700
C34271	C3427	0.425000	0.811390	0.746100
C34281	C3428	0.422300	0.801150	0.770100
C34291	C3429	0.446000	0.789680	0.781600
C34301	C3430	0.472300	0.788440	0.769200
C34311	C3431	0.475000	0.798670	0.745300
C34321	C3432	0.451300	0.810150	0.733700
C34331	C3433	0.206100	0.898200	0.628300
C34341	C3434	0.208600	0.876900	0.644100
C34351	C3435	0.185800	0.870200	0.659700
C34361	C3436	0.160700	0.884900	0.659700
C34371	C3437	0.158200	0.906200	0.643900
C34381	C3438	0.181000	0.912900	0.628300
C34391	C3439	0.383700	0.801700	0.489600
C34401	C3440	0.374400	0.779300	0.501700
C34411	C3441	0.365000	0.757200	0.484600
C34421	C3442	0.367100	0.758500	0.459200
C34431	C3443	0.376100	0.781000	0.449500
C34441	C3444	0.387000	0.802600	0.464600
C34451	C3445	0.473500	0.810600	0.477600
C34461	C3446	0.485700	0.799000	0.457200
C34471	C3447	0.485300	0.812300	0.432800
C34481	C3448	0.474300	0.838600	0.431000
C34491	C3449	0.465300	0.851700	0.454800
C34501	C3450	0.463700	0.836500	0.476100
C34511	C3451	0.500200	0.779000	0.647100
C34521	C3452	0.509000	0.753800	0.652300
C34531	C3453	0.531500	0.749400	0.669000
C34541	C3454	0.545200	0.770200	0.680400
C34551	C3455	0.536400	0.795400	0.675200
C34561	C3456	0.514000	0.799800	0.658500
C34571	C3457	0.553300	0.869700	0.533500
C34581	C3458	0.575500	0.879100	0.517000
C34591	C3459	0.604200	0.885500	0.526000
C34601	C3460	0.608900	0.885200	0.554200
C34611	C3461	0.585300	0.874500	0.571900
C34621	C3462	0.558500	0.867500	0.559600
C34631	C3463	0.338800	0.690100	0.752900
C34641	C3464	0.344700	0.694500	0.779600
C34651	C3465	0.372800	0.687100	0.788300
C34661	C3466	0.393200	0.678700	0.772600
C34671	C3467	0.387600	0.673400	0.746300
C34681	C3468	0.359700	0.680400	0.735700
Cd4811	Cd481	0.356410	0.839800	0.646000
Cd4821	Cd482	0.299250	0.817880	0.592000
Cd4831	Cd483	0.414140	0.857930	0.593260
Cd4841	Cd484	0.352450	0.838390	0.540000
Cd4851	Cd485	0.376750	0.786990	0.589570
Cd4861	Cd486	0.276570	0.874680	0.647090
Cd4871	Cd487	0.417880	0.860630	0.700430
Cd4881	Cd488	0.433060	0.809380	0.534030
Cd4891	Cd489	0.479960	0.877620	0.547450
Cd4901	Cd490	0.293190	0.817780	0.696410
Cd4911	Cd491	0.376190	0.792900	0.705290
Cd4921	Cd492	0.434580	0.807290	0.650450
Cd4931	Cd493	0.489660	0.815080	0.594240
Cd4941	Cd494	0.325890	0.764960	0.646030
S7671	S767	0.395990	0.821060	0.619700
S7681	S768	0.337840	0.803450	0.673380
S7691	S769	0.315710	0.855810	0.619300
S7701	S770	0.335470	0.799800	0.562840
S7711	S771	0.454460	0.839430	0.566850
S7721	S772	0.364390	0.748230	0.617490
S7731	S773	0.457610	0.841030	0.676420
S7741	S774	0.309870	0.859140	0.517210
S7751	S775	0.392970	0.829060	0.508340
S7761	S776	0.421570	0.773540	0.564760
S7771	S777	0.252280	0.835330	0.573310
S7781	S778	0.282320	0.786380	0.626140
Cd4951	Cd495	0.518650	0.810450	0.524040
Cd4961	Cd496	0.311250	0.742110	0.718020
S7791	S779	0.472360	0.792370	0.505370
S7801	S780	0.276410	0.779760	0.723690
S7811	S781	0.409980	0.770630	0.674580
S7821	S782	0.253590	0.835950	0.669490
S7831	S783	0.242240	0.892710	0.613680
S7841	S784	0.520420	0.860070	0.521510
S7851	S785	0.361260	0.754790	0.731750
S7861	S786	0.472110	0.782360	0.625000
S7871	S787	0.307270	0.727710	0.672380
S7881	S788	0.393100	0.830500	0.731620
S7891	S789	0.527900	0.793210	0.567130
S7901	S790	0.316300	0.850110	0.726290
S7911	S791	0.305120	0.699150	0.740180
C34691	C3469	0.436400	0.748400	0.693800
C34701	C3470	0.454900	0.725900	0.729100
C34711	C3471	0.433700	0.741100	0.718400
C34721	C3472	0.451500	0.766700	0.706600
C34731	C3473	0.244900	0.270400	0.209000
C34741	C3474	0.219900	0.266700	0.223300
C34751	C3475	0.193100	0.261300	0.212500
C34761	C3476	0.191500	0.257300	0.186900
C34771	C3477	0.215100	0.259900	0.172000
C34781	C3478	0.241200	0.267700	0.183000
C34791	C3479	0.518400	0.259600	0.065600
C34801	C3480	0.517300	0.245800	0.043200
C34811	C3481	0.511300	0.217900	0.043100
C34821	C3482	0.507500	0.204500	0.063300
C34831	C3483	0.509200	0.219400	0.084800
C34841	C3484	0.515400	0.245800	0.085900
C34851	C3485	0.411700	0.245600	0.049200
C34861	C3486	0.385200	0.235300	0.046700
C34871	C3487	0.376100	0.210400	0.033500
C34881	C3488	0.398100	0.199800	0.021100
C34891	C3489	0.427300	0.206200	0.024600
C34901	C3490	0.433900	0.227200	0.039500
C34911	C3491	0.228900	0.347100	0.191800
C34921	C3492	0.206000	0.329800	0.197500
C34931	C3493	0.185300	0.338700	0.214800
C34941	C3494	0.186400	0.365000	0.226500
C34951	C3495	0.210000	0.380900	0.221000
C34961	C3496	0.231300	0.371700	0.202600
C34971	C3497	0.256700	0.264600	0.112600
C34981	C3498	0.259700	0.240000	0.118500
C34991	C3499	0.236700	0.222000	0.108200
C35001	C3500	0.214800	0.233200	0.091500
C35011	C3501	0.209700	0.260700	0.091100
C35021	C3502	0.231600	0.276400	0.106000
C35031	C3503	0.240300	0.313400	0.051300
C35041	C3504	0.255600	0.294700	0.041600
C35051	C3505	0.244400	0.275900	0.026300
C35061	C3506	0.215000	0.277900	0.017100
C35071	C3507	0.196400	0.296500	0.027700
C35081	C3508	0.210300	0.315500	0.045900
C35091	C3509	0.294600	0.334600	0.997000
C35101	C3510	0.308400	0.312100	0.991600
C35111	C3511	0.296600	0.293600	0.976400
C35121	C3512	0.269600	0.298700	0.964600
C35131	C3513	0.257500	0.321900	0.969300
C35141	C3514	0.266900	0.336000	0.987000
C35151	C3515	0.344100	0.226000	0.098400
C35161	C3516	0.322500	0.234200	0.083000
C35171	C3517	0.305600	0.216400	0.066500
C35181	C3518	0.313700	0.188000	0.068900
C35191	C3519	0.339400	0.181400	0.085800
C35201	C3520	0.352700	0.200600	0.102500
C35211	C3521	0.334700	0.202700	0.168200
C35221	C3522	0.322000	0.178300	0.161700
C35231	C3523	0.344000	0.160900	0.156600
C35241	C3524	0.371900	0.163800	0.163900
C35251	C3525	0.382800	0.186400	0.168000
C35261	C3526	0.362600	0.209100	0.171300
C35271	C3527	0.286640	0.362830	0.246560
C35281	C3528	0.280300	0.389160	0.246500
C35291	C3529	0.258100	0.398670	0.261420
C35301	C3530	0.242300	0.381800	0.276410
C35311	C3531	0.248700	0.355500	0.276470
C35321	C3532	0.270820	0.346000	0.261550
C35331	C3533	0.358500	0.265310	0.260000
C35341	C3534	0.341300	0.286780	0.264900
C35351	C3535	0.337200	0.295090	0.289370
C35361	C3536	0.350300	0.281900	0.309000
C35371	C3537	0.367500	0.260500	0.304200
C35381	C3538	0.371700	0.252200	0.279700
C35391	C3539	0.425000	0.311390	0.246100
C35401	C3540	0.422300	0.301150	0.270100
C35411	C3541	0.446000	0.289680	0.281600
C35421	C3542	0.472300	0.288440	0.269200
C35431	C3543	0.475000	0.298670	0.245300
C35441	C3544	0.451300	0.310150	0.233700
C35451	C3545	0.206100	0.398200	0.128300
C35461	C3546	0.208600	0.376900	0.144100
C35471	C3547	0.185800	0.370200	0.159700
C35481	C3548	0.160700	0.384900	0.159700
C35491	C3549	0.158200	0.406200	0.143900
C35501	C3550	0.181000	0.412900	0.128300
C35511	C3551	0.383700	0.301700	0.989600
C35521	C3552	0.374400	0.279300	0.001700
C35531	C3553	0.365000	0.257200	0.984600
C35541	C3554	0.367100	0.258500	0.959200
C35551	C3555	0.376100	0.281000	0.949500
C35561	C3556	0.387000	0.302600	0.964600
C35571	C3557	0.473500	0.310600	0.977600
C35581	C3558	0.485700	0.299000	0.957200
C35591	C3559	0.485300	0.312300	0.932800
C35601	C3560	0.474300	0.338600	0.931000
C35611	C3561	0.465300	0.351700	0.954800
C35621	C3562	0.463700	0.336500	0.976100
C35631	C3563	0.500200	0.279000	0.147100
C35641	C3564	0.509000	0.253800	0.152300
C35651	C3565	0.531500	0.249400	0.169000
C35661	C3566	0.545200	0.270200	0.180400
C35671	C3567	0.536400	0.295400	0.175200
C35681	C3568	0.514000	0.299800	0.158500
C35691	C3569	0.553300	0.369700	0.033500
C35701	C3570	0.575500	0.379100	0.017000
C35711	C3571	0.604200	0.385500	0.026000
C35721	C3572	0.608900	0.385200	0.054200
C35731	C3573	0.585300	0.374500	0.071900
C35741	C3574	0.558500	0.367500	0.059600
C35751	C3575	0.338800	0.190100	0.252900
C35761	C3576	0.344700	0.194500	0.279600
C35771	C3577	0.372800	0.187100	0.288300
C35781	C3578	0.393200	0.178700	0.272600
C35791	C3579	0.387600	0.173400	0.246300
C35801	C3580	0.359700	0.180400	0.235700
Cd4971	Cd497	0.356410	0.339800	0.146000
Cd4981	Cd498	0.299250	0.317880	0.092000
Cd4991	Cd499	0.414140	0.357930	0.093260
Cd5001	Cd500	0.352450	0.338390	0.040000
Cd5011	Cd501	0.376750	0.286990	0.089570
Cd5021	Cd502	0.276570	0.374680	0.147090
Cd5031	Cd503	0.417880	0.360630	0.200430
Cd5041	Cd504	0.433060	0.309380	0.034030
Cd5051	Cd505	0.479960	0.377620	0.047450
Cd5061	Cd506	0.293190	0.317780	0.196410
Cd5071	Cd507	0.376190	0.292900	0.205290
Cd5081	Cd508	0.434580	0.307290	0.150450
Cd5091	Cd509	0.489660	0.315080	0.094240
Cd5101	Cd510	0.325890	0.264960	0.146030
S7921	S792	0.395990	0.321060	0.119700
S7931	S793	0.337840	0.303450	0.173380
S7941	S794	0.315710	0.355810	0.119300
S7951	S795	0.335470	0.299800	0.062840
S7961	S796	0.454460	0.339430	0.066850
S7971	S797	0.364390	0.248230	0.117490
S7981	S798	0.457610	0.341030	0.176420
S7991	S799	0.309870	0.359140	0.017210
S8001	S800	0.392970	0.329060	0.008340
S8011	S801	0.421570	0.273540	0.064760
S8021	S802	0.252280	0.335330	0.073310
S8031	S803	0.282320	0.286380	0.126140
Cd5111	Cd511	0.518650	0.310450	0.024040
Cd5121	Cd512	0.311250	0.242110	0.218020
S8041	S804	0.472360	0.292370	0.005370
S8051	S805	0.276410	0.279760	0.223690
S8061	S806	0.409980	0.270630	0.174580
S8071	S807	0.253590	0.335950	0.169490
S8081	S808	0.242240	0.392710	0.113680
S8091	S809	0.520420	0.360070	0.021510
S8101	S810	0.361260	0.254790	0.231750
S8111	S811	0.472110	0.282360	0.125000
S8121	S812	0.307270	0.227710	0.172380
S8131	S813	0.393100	0.330500	0.231620
S8141	S814	0.527900	0.293210	0.067130
S8151	S815	0.316300	0.350110	0.226290
S8161	S816	0.305120	0.199150	0.240180
C35811	C3581	0.436400	0.248400	0.193800
C35821	C3582	0.454900	0.225900	0.229100
C35831	C3583	0.433700	0.241100	0.218400
C35841	C3584	0.451500	0.266700	0.206600
S8171	S817	0.125000	0.625000	0.814940
S8181	S818	0.125000	0.625000	0.924380
S8191	S819	0.125000	0.125000	0.314940
S8201	S820	0.125000	0.125000	0.424380
S8211	S821	0.625000	0.625000	0.314940
S8221	S822	0.625000	0.625000	0.424380
S8231	S823	0.625000	0.125000	0.814940
S8241	S824	0.625000	0.125000	0.924380
S8251	S825	0.375000	0.375000	0.064940
S8261	S826	0.375000	0.375000	0.174380
S8271	S827	0.375000	0.875000	0.564940
S8281	S828	0.375000	0.875000	0.674380
S8291	S829	0.875000	0.875000	0.064940
S8301	S830	0.875000	0.875000	0.174380
S8311	S831	0.875000	0.375000	0.564940
S8321	S832	0.875000	0.375000	0.674380
