data_ICISAP_clean_PM
_symmetry_space_group_name_H-M	'P1'
_cell_length_a	14.549000
_cell_length_b	14.549000
_cell_length_c	17.767000
_cell_angle_alpha	90.000000
_cell_angle_beta	90.000000
_cell_angle_gamma	120.000000
_symmetry_Int_Tables_number 1

loop_
_symmetry_equiv_pos_as_xyz
'x,y,z'

loop_
_atom_site_label
_atom_site_type_symbol
_atom_site_fract_x
_atom_site_fract_y
_atom_site_fract_z
C11	C1	0.432370	0.403120	0.966620
O11	O1	0.650020	0.502360	0.834890
O21	O2	0.357100	0.306900	0.943000
H11	H1	0.377600	0.290900	0.903500
C21	C2	0.596880	0.029250	0.966620
O31	O3	0.497640	0.147660	0.834890
O41	O4	0.693100	0.050200	0.943000
H21	H2	0.709100	0.086700	0.903500
C31	C3	0.970750	0.567630	0.966620
O51	O5	0.852340	0.349980	0.834890
O61	O6	0.949800	0.642900	0.943000
H31	H3	0.913300	0.622400	0.903500
C41	C4	0.567630	0.596880	0.466620
O71	O7	0.349980	0.497640	0.334890
O81	O8	0.642900	0.693100	0.443000
H41	H4	0.622400	0.709100	0.403500
C51	C5	0.403120	0.970750	0.466620
O91	O9	0.502360	0.852340	0.334890
O101	O10	0.306900	0.949800	0.443000
H51	H5	0.290900	0.913300	0.403500
C61	C6	0.029250	0.432370	0.466620
O111	O11	0.147660	0.650020	0.334890
O121	O12	0.050200	0.357100	0.443000
H61	H6	0.086700	0.377600	0.403500
C71	C7	0.403120	0.432370	0.033380
O131	O13	0.502360	0.650020	0.165110
O141	O14	0.306900	0.357100	0.057000
H71	H7	0.290900	0.377600	0.096500
C81	C8	0.029250	0.596880	0.033380
O151	O15	0.147660	0.497640	0.165110
O161	O16	0.050200	0.693100	0.057000
H81	H8	0.086700	0.709100	0.096500
C91	C9	0.567630	0.970750	0.033380
O171	O17	0.349980	0.852340	0.165110
O181	O18	0.642900	0.949800	0.057000
H91	H9	0.622400	0.913300	0.096500
C101	C10	0.596880	0.567630	0.533380
O191	O19	0.497640	0.349980	0.665110
O201	O20	0.693100	0.642900	0.557000
H101	H10	0.709100	0.622400	0.596500
C111	C11	0.970750	0.403120	0.533380
O211	O21	0.852340	0.502360	0.665110
O221	O22	0.949800	0.306900	0.557000
H111	H11	0.913300	0.290900	0.596500
C121	C12	0.432370	0.029250	0.533380
O231	O23	0.650020	0.147660	0.665110
O241	O24	0.357100	0.050200	0.557000
H121	H12	0.377600	0.086700	0.596500
C131	C13	0.567630	0.596880	0.033380
O251	O25	0.349980	0.497640	0.165110
O261	O26	0.642900	0.693100	0.057000
H131	H13	0.622400	0.709100	0.096500
C141	C14	0.403120	0.970750	0.033380
O271	O27	0.502360	0.852340	0.165110
O281	O28	0.306900	0.949800	0.057000
H141	H14	0.290900	0.913300	0.096500
C151	C15	0.029250	0.432370	0.033380
O291	O29	0.147660	0.650020	0.165110
O301	O30	0.050200	0.357100	0.057000
H151	H15	0.086700	0.377600	0.096500
C161	C16	0.432370	0.403120	0.533380
O311	O31	0.650020	0.502360	0.665110
O321	O32	0.357100	0.306900	0.557000
H161	H16	0.377600	0.290900	0.596500
C171	C17	0.596880	0.029250	0.533380
O331	O33	0.497640	0.147660	0.665110
O341	O34	0.693100	0.050200	0.557000
H171	H17	0.709100	0.086700	0.596500
C181	C18	0.970750	0.567630	0.533380
O351	O35	0.852340	0.349980	0.665110
O361	O36	0.949800	0.642900	0.557000
H181	H18	0.913300	0.622400	0.596500
C191	C19	0.596880	0.567630	0.966620
O371	O37	0.497640	0.349980	0.834890
O381	O38	0.693100	0.642900	0.943000
H191	H19	0.709100	0.622400	0.903500
C201	C20	0.970750	0.403120	0.966620
O391	O39	0.852340	0.502360	0.834890
O401	O40	0.949800	0.306900	0.943000
H201	H20	0.913300	0.290900	0.903500
C211	C21	0.432370	0.029250	0.966620
O411	O41	0.650020	0.147660	0.834890
O421	O42	0.357100	0.050200	0.943000
H211	H21	0.377600	0.086700	0.903500
C221	C22	0.403120	0.432370	0.466620
O431	O43	0.502360	0.650020	0.334890
O441	O44	0.306900	0.357100	0.443000
H221	H22	0.290900	0.377600	0.403500
C231	C23	0.029250	0.596880	0.466620
O451	O45	0.147660	0.497640	0.334890
O461	O46	0.050200	0.693100	0.443000
H231	H23	0.086700	0.709100	0.403500
C241	C24	0.567630	0.970750	0.466620
O471	O47	0.349980	0.852340	0.334890
O481	O48	0.642900	0.949800	0.443000
H241	H24	0.622400	0.913300	0.403500
C251	C25	0.561130	0.438870	0.862920
C261	C26	0.529640	0.470360	0.933340
C271	C27	0.561130	0.122260	0.862920
C281	C28	0.529640	0.059280	0.933340
C291	C29	0.877740	0.438870	0.862920
C301	C30	0.940720	0.470360	0.933340
C311	C31	0.438870	0.561130	0.362920
C321	C32	0.470360	0.529640	0.433340
C331	C33	0.438870	0.877740	0.362920
C341	C34	0.470360	0.940720	0.433340
C351	C35	0.122260	0.561130	0.362920
C361	C36	0.059280	0.529640	0.433340
C371	C37	0.438870	0.561130	0.137080
C381	C38	0.470360	0.529640	0.066660
C391	C39	0.122260	0.561130	0.137080
C401	C40	0.059280	0.529640	0.066660
C411	C41	0.438870	0.877740	0.137080
C421	C42	0.470360	0.940720	0.066660
C431	C43	0.561130	0.438870	0.637080
C441	C44	0.529640	0.470360	0.566660
C451	C45	0.877740	0.438870	0.637080
C461	C46	0.940720	0.470360	0.566660
C471	C47	0.561130	0.122260	0.637080
C481	C48	0.529640	0.059280	0.566660
O491	O49	0.666670	0.333330	0.750000
O501	O50	0.333330	0.666670	0.250000
Sc11	Sc1	0.746820	0.493650	0.750000
Sc21	Sc2	0.506350	0.253180	0.750000
Sc31	Sc3	0.746820	0.253180	0.750000
Sc41	Sc4	0.253180	0.506350	0.250000
Sc51	Sc5	0.493650	0.746820	0.250000
Sc61	Sc6	0.253180	0.746820	0.250000
