data_ICIVAS_clean_PM
_symmetry_space_group_name_H-M	'P1'
_cell_length_a	16.441000
_cell_length_b	16.539000
_cell_length_c	17.329200
_cell_angle_alpha	118.503000
_cell_angle_beta	118.319000
_cell_angle_gamma	90.000000
_symmetry_Int_Tables_number 1

loop_
_symmetry_equiv_pos_as_xyz
'x,y,z'

loop_
_atom_site_label
_atom_site_type_symbol
_atom_site_fract_x
_atom_site_fract_y
_atom_site_fract_z
Na11	Na1	0.377790	0.687590	0.385580
Na21	Na2	0.491550	0.474650	0.383700
Na31	Na3	0.597200	0.674800	0.380200
Na41	Na4	0.881460	0.486760	0.373720
Na51	Na5	0.007790	0.697990	0.385580
Na61	Na6	0.892150	0.909050	0.383700
Na71	Na7	0.783000	0.705400	0.380200
Na81	Na8	0.492260	0.886960	0.373720
Na91	Na9	0.622210	0.302010	0.614420
Na101	Na10	0.508450	0.090950	0.616300
Na111	Na11	0.402800	0.294600	0.619800
Na121	Na12	0.118540	0.113040	0.626280
Na131	Na13	0.992210	0.312410	0.614420
Na141	Na14	0.107850	0.525350	0.616300
Na151	Na15	0.217000	0.325200	0.619800
Na161	Na16	0.507740	0.513240	0.626280
Ni11	Ni1	0.930340	0.315430	0.243160
Ni21	Ni2	0.310040	0.304930	0.245240
Ni31	Ni3	0.312820	0.927730	0.243160
Ni41	Ni4	0.935200	0.940310	0.245240
Ni51	Ni5	0.069660	0.072270	0.756840
Ni61	Ni6	0.689960	0.059690	0.754760
Ni71	Ni7	0.687180	0.684570	0.756840
Ni81	Ni8	0.064800	0.695070	0.754760
H11	H1	0.114400	0.221200	0.241600
H21	H2	0.100000	0.178500	0.000800
H31	H3	0.749000	0.929700	0.869000
H41	H4	0.127200	0.020400	0.241600
H51	H5	0.900800	0.822300	0.000800
H61	H6	0.120000	0.939300	0.869000
H71	H7	0.885600	0.979600	0.758400
H81	H8	0.900000	0.177700	0.999200
H91	H9	0.251000	0.060700	0.131000
H101	H10	0.872800	0.778800	0.758400
H111	H11	0.099200	0.821500	0.999200
H121	H12	0.880000	0.070300	0.131000
C11	C1	0.178800	0.412600	0.272800
C21	C2	0.095600	0.416300	0.274400
C31	C3	0.121400	0.281800	0.251400
C41	C4	0.249100	0.476900	0.279000
C51	C5	0.037300	0.484200	0.285000
C61	C6	0.252200	0.188600	0.950800
C71	C7	0.156200	0.189000	0.001800
C81	C8	0.272300	0.164100	0.867400
C91	C9	0.609900	0.773000	0.640200
C101	C10	0.613500	0.856400	0.640400
C111	C11	0.706100	0.893400	0.797000
C121	C12	0.562000	0.666700	0.560600
C131	C13	0.565200	0.878900	0.557600
C141	C14	0.306300	0.235300	0.057400
C151	C15	0.410600	0.275300	0.138800
C161	C16	0.094000	0.860200	0.272800
C171	C17	0.178800	0.858100	0.274400
C181	C18	0.130000	0.969600	0.251400
C191	C19	0.029900	0.802100	0.279000
C201	C20	0.247700	0.800800	0.285000
C211	C21	0.698600	0.762200	0.950800
C221	C22	0.845600	0.812800	0.001800
C231	C23	0.595100	0.703300	0.867400
C241	C24	0.030300	0.867200	0.640200
C251	C25	0.026900	0.784000	0.640400
C261	C26	0.090900	0.903600	0.797000
C271	C27	0.998600	0.893900	0.560600
C281	C28	0.992400	0.678700	0.557600
C291	C29	0.751100	0.822100	0.057400
C301	C30	0.728200	0.863500	0.138800
C311	C31	0.821200	0.139800	0.727200
C321	C32	0.904400	0.141900	0.725600
C331	C33	0.878600	0.030400	0.748600
C341	C34	0.750900	0.197900	0.721000
C351	C35	0.962700	0.199200	0.715000
C361	C36	0.747800	0.237800	0.049200
C371	C37	0.843800	0.187200	0.998200
C381	C38	0.727700	0.296700	0.132600
C391	C39	0.390100	0.132800	0.359800
C401	C40	0.386500	0.216000	0.359600
C411	C41	0.293900	0.096400	0.203000
C421	C42	0.438000	0.106100	0.439400
C431	C43	0.434800	0.321300	0.442400
C441	C44	0.693700	0.177900	0.942600
C451	C45	0.589400	0.136500	0.861200
C461	C46	0.906000	0.587400	0.727200
C471	C47	0.821200	0.583700	0.725600
C481	C48	0.870000	0.718200	0.748600
C491	C49	0.970100	0.523100	0.721000
C501	C50	0.752300	0.515800	0.715000
C511	C51	0.301400	0.811400	0.049200
C521	C52	0.154400	0.811000	0.998200
C531	C53	0.404900	0.835900	0.132600
C541	C54	0.969700	0.227000	0.359800
C551	C55	0.973100	0.143600	0.359600
C561	C56	0.909100	0.106600	0.203000
C571	C57	0.001400	0.333300	0.439400
C581	C58	0.007600	0.121100	0.442400
C591	C59	0.248900	0.764700	0.942600
C601	C60	0.271800	0.724700	0.861200
N11	N1	0.195500	0.327100	0.258000
N21	N2	0.060300	0.331600	0.259800
N31	N3	0.157300	0.158200	0.913600
N41	N4	0.670400	0.797900	0.741600
N51	N5	0.674800	0.931100	0.740400
N61	N6	0.242200	0.234700	0.087600
N71	N7	0.062500	0.930900	0.258000
N81	N8	0.199500	0.928200	0.259800
N91	N9	0.756300	0.755400	0.913600
N101	N10	0.071200	0.943700	0.741600
N111	N11	0.065600	0.809300	0.740400
N121	N12	0.845400	0.852900	0.087600
N131	N13	0.804500	0.069100	0.742000
N141	N14	0.939700	0.071800	0.740200
N151	N15	0.842700	0.244600	0.086400
N161	N16	0.329600	0.056300	0.258400
N171	N17	0.325200	0.190700	0.259600
N181	N18	0.757800	0.147100	0.912400
N191	N19	0.937500	0.672900	0.742000
N201	N20	0.800500	0.668400	0.740200
N211	N21	0.243700	0.841800	0.086400
N221	N22	0.928800	0.202100	0.258400
N231	N23	0.934400	0.068900	0.259600
N241	N24	0.154600	0.765300	0.912400
O11	O1	0.315190	0.442690	0.267580
O21	O2	0.241000	0.554100	0.290600
O31	O3	0.955900	0.453000	0.267400
O41	O4	0.068400	0.570100	0.314000
O51	O5	0.203700	0.104400	0.774400
O61	O6	0.353500	0.196500	0.890200
O71	O7	0.582900	0.613100	0.594000
O81	O8	0.505700	0.637400	0.465800
O91	O9	0.428700	0.313500	0.230000
O101	O10	0.471400	0.271000	0.118400
O111	O11	0.588590	0.967590	0.590980
O121	O12	0.510200	0.815300	0.463800
O131	O13	0.593900	0.498400	0.328400
O141	O14	0.521600	0.735500	0.256400
O151	O15	0.952390	0.824890	0.267580
O161	O16	0.049600	0.736500	0.290600
O171	O17	0.311500	0.814400	0.267400
O181	O18	0.245600	0.743900	0.314000
O191	O19	0.570700	0.670000	0.774400
O201	O20	0.536700	0.693700	0.890200
O211	O21	0.011100	0.980900	0.594000
O221	O22	0.960100	0.828400	0.465800
O231	O23	0.801300	0.916500	0.230000
O241	O24	0.647000	0.847400	0.118400
O251	O25	0.002390	0.623390	0.590980
O261	O26	0.953600	0.648500	0.463800
O271	O27	0.734500	0.830000	0.328400
O281	O28	0.734800	0.520900	0.256400
O291	O29	0.684810	0.175110	0.732420
O301	O30	0.759000	0.263500	0.709400
O311	O31	0.044100	0.185600	0.732600
O321	O32	0.931600	0.256100	0.686000
O331	O33	0.796300	0.330000	0.225600
O341	O34	0.646500	0.306300	0.109800
O351	O35	0.417100	0.019100	0.406000
O361	O36	0.494300	0.171600	0.534200
O371	O37	0.571300	0.083500	0.770000
O381	O38	0.528600	0.152600	0.881600
O391	O39	0.411410	0.376610	0.409020
O401	O40	0.489800	0.351500	0.536200
O411	O41	0.406100	0.170000	0.671600
O421	O42	0.478400	0.479100	0.743600
O431	O43	0.047610	0.557310	0.732420
O441	O44	0.950400	0.445900	0.709400
O451	O45	0.688500	0.547000	0.732600
O461	O46	0.754400	0.429900	0.686000
O471	O47	0.429300	0.895600	0.225600
O481	O48	0.463300	0.803500	0.109800
O491	O49	0.988900	0.386900	0.406000
O501	O50	0.039900	0.362600	0.534200
O511	O51	0.198700	0.686500	0.770000
O521	O52	0.353000	0.729000	0.881600
O531	O53	0.997610	0.032410	0.409020
O541	O54	0.046400	0.184700	0.536200
O551	O55	0.265500	0.501600	0.671600
O561	O56	0.265200	0.264500	0.743600
