data_ICODIP_clean_PM
_symmetry_space_group_name_H-M	'P1'
_cell_length_a	31.116200
_cell_length_b	31.116200
_cell_length_c	31.116200
_cell_angle_alpha	109.471000
_cell_angle_beta	109.471000
_cell_angle_gamma	109.471000
_symmetry_Int_Tables_number 1

loop_
_symmetry_equiv_pos_as_xyz
'x,y,z'

loop_
_atom_site_label
_atom_site_type_symbol
_atom_site_fract_x
_atom_site_fract_y
_atom_site_fract_z
Zn11	Zn1	0.890390	0.750000	0.640390
Zn21	Zn2	0.609610	0.250000	0.859610
Zn31	Zn3	0.140390	0.890390	0.250000
Zn41	Zn4	0.359610	0.609610	0.750000
Zn51	Zn5	0.250000	0.359610	0.109610
Zn61	Zn6	0.750000	0.140390	0.390390
Zn71	Zn7	0.750000	0.609610	0.859610
Zn81	Zn8	0.250000	0.890390	0.640390
Zn91	Zn9	0.609610	0.359610	0.250000
Zn101	Zn10	0.890390	0.140390	0.750000
Zn111	Zn11	0.140390	0.250000	0.390390
Zn121	Zn12	0.359610	0.750000	0.109610
Zn131	Zn13	0.750000	0.500640	0.499360
Zn141	Zn14	0.501280	0.250640	0.000640
Zn151	Zn15	0.998720	0.999360	0.749360
Zn161	Zn16	0.750000	0.249360	0.750640
Zn171	Zn17	0.249360	0.998720	0.499360
Zn181	Zn18	0.250640	0.750000	0.749360
Zn191	Zn19	0.999360	0.750000	0.000640
Zn201	Zn20	0.500640	0.501280	0.750640
Zn211	Zn21	0.250640	0.500640	0.001280
Zn221	Zn22	0.500640	0.999360	0.250000
Zn231	Zn23	0.249360	0.250640	0.250000
Zn241	Zn24	0.999360	0.249360	0.498720
H11	H1	0.617900	0.615300	0.587400
H21	H2	0.921500	0.720500	0.807600
H31	H3	0.005700	0.931200	0.880300
H41	H4	0.004500	0.855600	0.941900
H51	H5	0.599600	0.522400	0.476400
H61	H6	0.697000	0.667900	0.596100
H71	H7	0.963200	0.856300	0.807300
H81	H8	0.749000	0.595200	0.514400
H91	H9	0.527900	0.030500	0.912600
H101	H10	0.412900	0.113900	0.692400
H111	H11	0.550900	0.125400	0.619700
H121	H12	0.413700	0.062600	0.558100
H131	H13	0.546000	0.123200	0.023600
H141	H14	0.571800	0.100900	0.903900
H151	H15	0.549000	0.155900	0.692700
H161	H16	0.580800	0.234600	0.985600
H171	H17	0.972100	0.884700	0.502600
H181	H18	0.087100	0.779500	0.701000
H191	H19	0.949100	0.568800	0.574500
H201	H20	0.086300	0.644400	0.648900
H211	H21	0.954000	0.977600	0.577200
H221	H22	0.928200	0.832100	0.529100
H231	H23	0.951000	0.643700	0.606900
H241	H24	0.919200	0.904800	0.653800
H251	H25	0.882100	0.469500	0.997400
H261	H26	0.578500	0.386100	0.799000
H271	H27	0.494300	0.374600	0.925500
H281	H28	0.495500	0.437400	0.851100
H291	H29	0.900400	0.376800	0.922800
H301	H30	0.803000	0.399100	0.970900
H311	H31	0.536800	0.344100	0.893100
H321	H32	0.751000	0.265400	0.846200
H331	H33	0.002600	0.972100	0.384700
H341	H34	0.201000	0.087100	0.279500
H351	H35	0.074500	0.949100	0.068800
H361	H36	0.148900	0.086300	0.144400
H371	H37	0.077200	0.954000	0.477600
H381	H38	0.029100	0.928200	0.332100
H391	H39	0.106900	0.951000	0.143700
H401	H40	0.153800	0.919200	0.404800
H411	H41	0.497400	0.882100	0.969500
H421	H42	0.299000	0.578500	0.886100
H431	H43	0.425500	0.494300	0.874600
H441	H44	0.351100	0.495500	0.937400
H451	H45	0.422800	0.900400	0.876800
H461	H46	0.470900	0.803000	0.899100
H471	H47	0.393100	0.536800	0.844100
H481	H48	0.346200	0.751000	0.765400
H491	H49	0.087400	0.617900	0.115300
H501	H50	0.307600	0.921500	0.220500
H511	H51	0.380300	0.005700	0.431200
H521	H52	0.441900	0.004500	0.355600
H531	H53	0.976400	0.599600	0.022400
H541	H54	0.096100	0.697000	0.167900
H551	H55	0.307300	0.963200	0.356300
H561	H56	0.014400	0.749000	0.095200
H571	H57	0.412600	0.527900	0.530500
H581	H58	0.192400	0.412900	0.613900
H591	H59	0.119700	0.550900	0.625400
H601	H60	0.058100	0.413700	0.562600
H611	H61	0.523600	0.546000	0.623200
H621	H62	0.403900	0.571800	0.600900
H631	H63	0.192700	0.549000	0.655900
H641	H64	0.485600	0.580800	0.734600
H651	H65	0.030500	0.412600	0.027900
H661	H66	0.113900	0.192400	0.912900
H671	H67	0.125400	0.119700	0.050900
H681	H68	0.062600	0.058100	0.913700
H691	H69	0.123200	0.523600	0.046000
H701	H70	0.100900	0.403900	0.071800
H711	H71	0.155900	0.192700	0.049000
H721	H72	0.234600	0.485600	0.080800
H731	H73	0.615300	0.087400	0.117900
H741	H74	0.720500	0.307600	0.421500
H751	H75	0.931200	0.380300	0.505700
H761	H76	0.855600	0.441900	0.504500
H771	H77	0.522400	0.976400	0.099600
H781	H78	0.667900	0.096100	0.197000
H791	H79	0.856300	0.307300	0.463200
H801	H80	0.595200	0.014400	0.249000
H811	H81	0.469500	0.497400	0.382100
H821	H82	0.386100	0.299000	0.078500
H831	H83	0.374600	0.425500	0.994300
H841	H84	0.437400	0.351100	0.995500
H851	H85	0.376800	0.422800	0.400400
H861	H86	0.399100	0.470900	0.303000
H871	H87	0.344100	0.393100	0.036800
H881	H88	0.265400	0.346200	0.251000
H891	H89	0.884700	0.002600	0.472100
H901	H90	0.779500	0.201000	0.587100
H911	H91	0.568800	0.074500	0.449100
H921	H92	0.644400	0.148900	0.586300
H931	H93	0.977600	0.077200	0.454000
H941	H94	0.832100	0.029100	0.428200
H951	H95	0.643700	0.106900	0.451000
H961	H96	0.904800	0.153800	0.419200
H971	H97	0.884700	0.882100	0.912600
H981	H98	0.779500	0.578500	0.692400
H991	H99	0.568800	0.494300	0.619700
H1001	H100	0.644400	0.495500	0.558100
H1011	H101	0.977600	0.900400	0.023600
H1021	H102	0.832100	0.803000	0.903900
H1031	H103	0.643700	0.536800	0.692700
H1041	H104	0.904800	0.751000	0.985600
H1051	H105	0.469500	0.972100	0.587400
H1061	H106	0.386100	0.087100	0.807600
H1071	H107	0.374600	0.949100	0.880300
H1081	H108	0.437400	0.086300	0.941900
H1091	H109	0.376800	0.954000	0.476400
H1101	H110	0.399100	0.928200	0.596100
H1111	H111	0.344100	0.951000	0.807300
H1121	H112	0.265400	0.919200	0.514400
H1131	H113	0.615300	0.527900	0.997400
H1141	H114	0.720500	0.412900	0.799000
H1151	H115	0.931200	0.550900	0.925500
H1161	H116	0.855600	0.413700	0.851100
H1171	H117	0.522400	0.546000	0.922800
H1181	H118	0.667900	0.571800	0.970900
H1191	H119	0.856300	0.549000	0.893100
H1201	H120	0.595200	0.580800	0.846200
H1211	H121	0.030500	0.617900	0.502600
H1221	H122	0.113900	0.921500	0.701000
H1231	H123	0.125400	0.005700	0.574500
H1241	H124	0.062600	0.004500	0.648900
H1251	H125	0.123200	0.599600	0.577200
H1261	H126	0.100900	0.697000	0.529100
H1271	H127	0.155900	0.963200	0.606900
H1281	H128	0.234600	0.749000	0.653800
H1291	H129	0.527900	0.497400	0.115300
H1301	H130	0.412900	0.299000	0.220500
H1311	H131	0.550900	0.425500	0.431200
H1321	H132	0.413700	0.351100	0.355600
H1331	H133	0.546000	0.422800	0.022400
H1341	H134	0.571800	0.470900	0.167900
H1351	H135	0.549000	0.393100	0.356300
H1361	H136	0.580800	0.346200	0.095200
H1371	H137	0.617900	0.002600	0.530500
H1381	H138	0.921500	0.201000	0.613900
H1391	H139	0.005700	0.074500	0.625400
H1401	H140	0.004500	0.148900	0.562600
H1411	H141	0.599600	0.077200	0.623200
H1421	H142	0.697000	0.029100	0.600900
H1431	H143	0.963200	0.106900	0.655900
H1441	H144	0.749000	0.153800	0.734600
H1451	H145	0.882100	0.412600	0.384700
H1461	H146	0.578500	0.192400	0.279500
H1471	H147	0.494300	0.119700	0.068800
H1481	H148	0.495500	0.058100	0.144400
H1491	H149	0.900400	0.523600	0.477600
H1501	H150	0.803000	0.403900	0.332100
H1511	H151	0.536800	0.192700	0.143700
H1521	H152	0.751000	0.485600	0.404800
H1531	H153	0.972100	0.087400	0.969500
H1541	H154	0.087100	0.307600	0.886100
H1551	H155	0.949100	0.380300	0.874600
H1561	H156	0.086300	0.441900	0.937400
H1571	H157	0.954000	0.976400	0.876800
H1581	H158	0.928200	0.096100	0.899100
H1591	H159	0.951000	0.307300	0.844100
H1601	H160	0.919200	0.014400	0.765400
H1611	H161	0.087400	0.469500	0.472100
H1621	H162	0.307600	0.386100	0.587100
H1631	H163	0.380300	0.374600	0.449100
H1641	H164	0.441900	0.437400	0.586300
H1651	H165	0.976400	0.376800	0.454000
H1661	H166	0.096100	0.399100	0.428200
H1671	H167	0.307300	0.344100	0.451000
H1681	H168	0.014400	0.265400	0.419200
H1691	H169	0.412600	0.884700	0.382100
H1701	H170	0.192400	0.779500	0.078500
H1711	H171	0.119700	0.568800	0.994300
H1721	H172	0.058100	0.644400	0.995500
H1731	H173	0.523600	0.977600	0.400400
H1741	H174	0.403900	0.832100	0.303000
H1751	H175	0.192700	0.643700	0.036800
H1761	H176	0.485600	0.904800	0.251000
H1771	H177	0.002600	0.030500	0.117900
H1781	H178	0.201000	0.113900	0.421500
H1791	H179	0.074500	0.125400	0.505700
H1801	H180	0.148900	0.062600	0.504500
H1811	H181	0.077200	0.123200	0.099600
H1821	H182	0.029100	0.100900	0.197000
H1831	H183	0.106900	0.155900	0.463200
H1841	H184	0.153800	0.234600	0.249000
H1851	H185	0.497400	0.615300	0.027900
H1861	H186	0.299000	0.720500	0.912900
H1871	H187	0.425500	0.931200	0.050900
H1881	H188	0.351100	0.855600	0.913700
H1891	H189	0.422800	0.522400	0.046000
H1901	H190	0.470900	0.667900	0.071800
H1911	H191	0.393100	0.856300	0.049000
H1921	H192	0.346200	0.595200	0.080800
C11	C1	0.987690	0.866350	0.878920
C21	C2	0.938010	0.757000	0.825290
C31	C3	0.914470	0.756990	0.737940
C41	C4	0.551920	0.565960	0.526740
C51	C5	0.987310	0.837930	0.905320
C61	C6	0.632940	0.552170	0.497390
C71	C7	0.641100	0.593770	0.539270
C81	C8	0.961070	0.782900	0.876990
C91	C9	0.690680	0.638160	0.568620
C101	C10	0.963080	0.837900	0.825540
C111	C11	0.670080	0.551690	0.484830
C121	C12	0.721450	0.596350	0.519320
C131	C13	0.731490	0.639990	0.558580
C141	C14	0.041790	0.959360	0.952830
C151	C15	0.783190	0.686880	0.592190
C161	C16	0.937640	0.783050	0.796130
C171	C17	0.660090	0.503920	0.439430
C181	C18	0.960760	0.752760	0.907800
C191	C19	0.487430	0.108770	0.621080
C201	C20	0.431710	0.112720	0.674710
C211	C21	0.519050	0.176530	0.762060
C221	C22	0.539220	0.025180	0.973260
C231	C23	0.432610	0.081990	0.594680
C241	C24	0.554780	0.135550	0.002610
C251	C25	0.554500	0.101830	0.960730
C261	C26	0.405910	0.084080	0.623010
C271	C27	0.569540	0.122060	0.931380
C281	C28	0.512360	0.137540	0.674460
C291	C29	0.566860	0.185250	0.015170
C301	C30	0.577030	0.202130	0.980680
C311	C31	0.581410	0.172910	0.941420
C321	C32	0.506530	0.088960	0.547170
C331	C33	0.594690	0.191000	0.907810
C341	C34	0.486920	0.141510	0.703870
C351	C35	0.564490	0.220660	0.060570
C361	C36	0.344960	0.052960	0.592200
C371	C37	0.012570	0.633650	0.621340
C381	C38	0.068290	0.743000	0.681010
C391	C39	0.980950	0.743010	0.657480
C401	C40	0.960780	0.934040	0.485960
C411	C41	0.067390	0.662070	0.649380
C421	C42	0.945220	0.947830	0.580770
C431	C43	0.945500	0.906230	0.547330
C441	C44	0.094090	0.717100	0.678170
C451	C45	0.930460	0.861840	0.552520
C461	C46	0.987640	0.662100	0.625180
C471	C47	0.933140	0.948310	0.618390
C481	C48	0.922970	0.903650	0.625100
C491	C49	0.918590	0.860010	0.591500
C501	C50	0.993470	0.540640	0.582430
C511	C51	0.905310	0.813120	0.596310
C521	C52	0.013080	0.716950	0.654590
C531	C53	0.935510	0.996080	0.656170
C541	C54	0.155040	0.747240	0.708000
C551	C55	0.512310	0.391230	0.878660
C561	C56	0.561990	0.387280	0.818990
C571	C57	0.585530	0.323470	0.842520
C581	C58	0.948080	0.474820	0.014040
C591	C59	0.512690	0.418010	0.850620
C601	C60	0.867060	0.364450	0.919230
C611	C61	0.858900	0.398170	0.952670
C621	C62	0.538930	0.415920	0.821830
C631	C63	0.809320	0.377940	0.947480
C641	C64	0.536920	0.362460	0.874820
C651	C65	0.829920	0.314750	0.881610
C661	C66	0.778550	0.297870	0.874900
C671	C67	0.768510	0.327090	0.908500
C681	C68	0.458210	0.411040	0.917570
C691	C69	0.716810	0.309000	0.903690
C701	C70	0.562360	0.358490	0.845410
C711	C71	0.839910	0.279340	0.843830
C721	C72	0.539240	0.447040	0.792000
C731	C73	0.121340	0.012570	0.133650
C741	C74	0.181010	0.068290	0.243000
C751	C75	0.157480	0.980950	0.243010
C761	C76	0.985960	0.960780	0.434040
C771	C77	0.149380	0.067390	0.162070
C781	C78	0.080770	0.945220	0.447830
C791	C79	0.047330	0.945500	0.406230
C801	C80	0.178170	0.094090	0.217100
C811	C81	0.052520	0.930460	0.361840
C821	C82	0.125180	0.987640	0.162100
C831	C83	0.118390	0.933140	0.448310
C841	C84	0.125100	0.922970	0.403650
C851	C85	0.091500	0.918590	0.360010
C861	C86	0.082430	0.993470	0.040640
C871	C87	0.096310	0.905310	0.313120
C881	C88	0.154590	0.013080	0.216950
C891	C89	0.156170	0.935510	0.496080
C901	C90	0.208000	0.155040	0.247240
C911	C91	0.378660	0.512310	0.891230
C921	C92	0.318990	0.561990	0.887280
C931	C93	0.342520	0.585530	0.823470
C941	C94	0.514040	0.948080	0.974820
C951	C95	0.350620	0.512690	0.918010
C961	C96	0.419230	0.867060	0.864450
C971	C97	0.452670	0.858900	0.898170
C981	C98	0.321830	0.538930	0.915920
C991	C99	0.447480	0.809320	0.877940
C1001	C100	0.374820	0.536920	0.862460
C1011	C101	0.381610	0.829920	0.814750
C1021	C102	0.374900	0.778550	0.797870
C1031	C103	0.408500	0.768510	0.827090
C1041	C104	0.417570	0.458210	0.911040
C1051	C105	0.403690	0.716810	0.809000
C1061	C106	0.345410	0.562360	0.858490
C1071	C107	0.343830	0.839910	0.779340
C1081	C108	0.292000	0.539240	0.947040
C1091	C109	0.378920	0.987690	0.366350
C1101	C110	0.325290	0.938010	0.257000
C1111	C111	0.237940	0.914470	0.256990
C1121	C112	0.026740	0.551920	0.065960
C1131	C113	0.405320	0.987310	0.337930
C1141	C114	0.997390	0.632940	0.052170
C1151	C115	0.039270	0.641100	0.093770
C1161	C116	0.376990	0.961070	0.282900
C1171	C117	0.068620	0.690680	0.138160
C1181	C118	0.325540	0.963080	0.337900
C1191	C119	0.984830	0.670080	0.051690
C1201	C120	0.019320	0.721450	0.096350
C1211	C121	0.058580	0.731490	0.139990
C1221	C122	0.452830	0.041790	0.459360
C1231	C123	0.092190	0.783190	0.186880
C1241	C124	0.296130	0.937640	0.283050
C1251	C125	0.939430	0.660090	0.003920
C1261	C126	0.407800	0.960760	0.252760
C1271	C127	0.121080	0.487430	0.608770
C1281	C128	0.174710	0.431710	0.612720
C1291	C129	0.262060	0.519050	0.676530
C1301	C130	0.473260	0.539220	0.525180
C1311	C131	0.094680	0.432610	0.581990
C1321	C132	0.502610	0.554780	0.635550
C1331	C133	0.460730	0.554500	0.601830
C1341	C134	0.123010	0.405910	0.584080
C1351	C135	0.431380	0.569540	0.622060
C1361	C136	0.174460	0.512360	0.637540
C1371	C137	0.515170	0.566860	0.685250
C1381	C138	0.480680	0.577030	0.702130
C1391	C139	0.441420	0.581410	0.672910
C1401	C140	0.047170	0.506530	0.588960
C1411	C141	0.407810	0.594690	0.691000
C1421	C142	0.203870	0.486920	0.641510
C1431	C143	0.560570	0.564490	0.720660
C1441	C144	0.092200	0.344960	0.552960
C1451	C145	0.108770	0.121080	0.987430
C1461	C146	0.112720	0.174710	0.931710
C1471	C147	0.176530	0.262060	0.019050
C1481	C148	0.025180	0.473260	0.039220
C1491	C149	0.081990	0.094680	0.932610
C1501	C150	0.135550	0.502610	0.054780
C1511	C151	0.101830	0.460730	0.054500
C1521	C152	0.084080	0.123010	0.905910
C1531	C153	0.122060	0.431380	0.069540
C1541	C154	0.137540	0.174460	0.012360
C1551	C155	0.185250	0.515170	0.066860
C1561	C156	0.202130	0.480680	0.077030
C1571	C157	0.172910	0.441420	0.081410
C1581	C158	0.088960	0.047170	0.006530
C1591	C159	0.191000	0.407810	0.094690
C1601	C160	0.141510	0.203870	0.986920
C1611	C161	0.220660	0.560570	0.064490
C1621	C162	0.052960	0.092200	0.844960
C1631	C163	0.866350	0.378920	0.487690
C1641	C164	0.757000	0.325290	0.438010
C1651	C165	0.756990	0.237940	0.414470
C1661	C166	0.565960	0.026740	0.051920
C1671	C167	0.837930	0.405320	0.487310
C1681	C168	0.552170	0.997390	0.132940
C1691	C169	0.593770	0.039270	0.141100
C1701	C170	0.782900	0.376990	0.461070
C1711	C171	0.638160	0.068620	0.190680
C1721	C172	0.837900	0.325540	0.463080
C1731	C173	0.551690	0.984830	0.170080
C1741	C174	0.596350	0.019320	0.221450
C1751	C175	0.639990	0.058580	0.231490
C1761	C176	0.959360	0.452830	0.541790
C1771	C177	0.686880	0.092190	0.283190
C1781	C178	0.783050	0.296130	0.437640
C1791	C179	0.503920	0.939430	0.160090
C1801	C180	0.752760	0.407800	0.460760
C1811	C181	0.391230	0.378660	0.012310
C1821	C182	0.387280	0.318990	0.061990
C1831	C183	0.323470	0.342520	0.085530
C1841	C184	0.474820	0.514040	0.448080
C1851	C185	0.418010	0.350620	0.012690
C1861	C186	0.364450	0.419230	0.367060
C1871	C187	0.398170	0.452670	0.358900
C1881	C188	0.415920	0.321830	0.038930
C1891	C189	0.377940	0.447480	0.309320
C1901	C190	0.362460	0.374820	0.036920
C1911	C191	0.314750	0.381610	0.329920
C1921	C192	0.297870	0.374900	0.278550
C1931	C193	0.327090	0.408500	0.268510
C1941	C194	0.411040	0.417570	0.958210
C1951	C195	0.309000	0.403690	0.216810
C1961	C196	0.358490	0.345410	0.062360
C1971	C197	0.279340	0.343830	0.339910
C1981	C198	0.447040	0.292000	0.039240
C1991	C199	0.633650	0.121340	0.512570
C2001	C200	0.743000	0.181010	0.568290
C2011	C201	0.743010	0.157480	0.480950
C2021	C202	0.934040	0.985960	0.460780
C2031	C203	0.662070	0.149380	0.567390
C2041	C204	0.947830	0.080770	0.445220
C2051	C205	0.906230	0.047330	0.445500
C2061	C206	0.717100	0.178170	0.594090
C2071	C207	0.861840	0.052520	0.430460
C2081	C208	0.662100	0.125180	0.487640
C2091	C209	0.948310	0.118390	0.433140
C2101	C210	0.903650	0.125100	0.422970
C2111	C211	0.860010	0.091500	0.418590
C2121	C212	0.540640	0.082430	0.493470
C2131	C213	0.813120	0.096310	0.405310
C2141	C214	0.716950	0.154590	0.513080
C2151	C215	0.996080	0.156170	0.435510
C2161	C216	0.747240	0.208000	0.655040
C2171	C217	0.633650	0.512310	0.621080
C2181	C218	0.743000	0.561990	0.674710
C2191	C219	0.743010	0.585530	0.762060
C2201	C220	0.934040	0.948080	0.973260
C2211	C221	0.662070	0.512690	0.594680
C2221	C222	0.947830	0.867060	0.002610
C2231	C223	0.906230	0.858900	0.960730
C2241	C224	0.717100	0.538930	0.623010
C2251	C225	0.861840	0.809320	0.931380
C2261	C226	0.662100	0.536920	0.674460
C2271	C227	0.948310	0.829920	0.015170
C2281	C228	0.903650	0.778550	0.980680
C2291	C229	0.860010	0.768510	0.941420
C2301	C230	0.540640	0.458210	0.547170
C2311	C231	0.813120	0.716810	0.907810
C2321	C232	0.716950	0.562360	0.703870
C2331	C233	0.996080	0.839910	0.060570
C2341	C234	0.747240	0.539240	0.592200
C2351	C235	0.391230	0.012570	0.878920
C2361	C236	0.387280	0.068290	0.825290
C2371	C237	0.323470	0.980950	0.737940
C2381	C238	0.474820	0.960780	0.526740
C2391	C239	0.418010	0.067390	0.905320
C2401	C240	0.364450	0.945220	0.497390
C2411	C241	0.398170	0.945500	0.539270
C2421	C242	0.415920	0.094090	0.876990
C2431	C243	0.377940	0.930460	0.568620
C2441	C244	0.362460	0.987640	0.825540
C2451	C245	0.314750	0.933140	0.484830
C2461	C246	0.297870	0.922970	0.519320
C2471	C247	0.327090	0.918590	0.558580
C2481	C248	0.411040	0.993470	0.952830
C2491	C249	0.309000	0.905310	0.592190
C2501	C250	0.358490	0.013080	0.796130
C2511	C251	0.279340	0.935510	0.439430
C2521	C252	0.447040	0.155040	0.907800
C2531	C253	0.866350	0.487430	0.878660
C2541	C254	0.757000	0.431710	0.818990
C2551	C255	0.756990	0.519050	0.842520
C2561	C256	0.565960	0.539220	0.014040
C2571	C257	0.837930	0.432610	0.850620
C2581	C258	0.552170	0.554780	0.919230
C2591	C259	0.593770	0.554500	0.952670
C2601	C260	0.782900	0.405910	0.821830
C2611	C261	0.638160	0.569540	0.947480
C2621	C262	0.837900	0.512360	0.874820
C2631	C263	0.551690	0.566860	0.881610
C2641	C264	0.596350	0.577030	0.874900
C2651	C265	0.639990	0.581410	0.908500
C2661	C266	0.959360	0.506530	0.917570
C2671	C267	0.686880	0.594690	0.903690
C2681	C268	0.783050	0.486920	0.845410
C2691	C269	0.503920	0.564490	0.843830
C2701	C270	0.752760	0.344960	0.792000
C2711	C271	0.108770	0.987690	0.621340
C2721	C272	0.112720	0.938010	0.681010
C2731	C273	0.176530	0.914470	0.657480
C2741	C274	0.025180	0.551920	0.485960
C2751	C275	0.081990	0.987310	0.649380
C2761	C276	0.135550	0.632940	0.580770
C2771	C277	0.101830	0.641100	0.547330
C2781	C278	0.084080	0.961070	0.678170
C2791	C279	0.122060	0.690680	0.552520
C2801	C280	0.137540	0.963080	0.625180
C2811	C281	0.185250	0.670080	0.618390
C2821	C282	0.202130	0.721450	0.625100
C2831	C283	0.172910	0.731490	0.591500
C2841	C284	0.088960	0.041790	0.582430
C2851	C285	0.191000	0.783190	0.596310
C2861	C286	0.141510	0.937640	0.654590
C2871	C287	0.220660	0.660090	0.656170
C2881	C288	0.052960	0.960760	0.708000
C2891	C289	0.487430	0.378660	0.366350
C2901	C290	0.431710	0.318990	0.257000
C2911	C291	0.519050	0.342520	0.256990
C2921	C292	0.539220	0.514040	0.065960
C2931	C293	0.432610	0.350620	0.337930
C2941	C294	0.554780	0.419230	0.052170
C2951	C295	0.554500	0.452670	0.093770
C2961	C296	0.405910	0.321830	0.282900
C2971	C297	0.569540	0.447480	0.138160
C2981	C298	0.512360	0.374820	0.337900
C2991	C299	0.566860	0.381610	0.051690
C3001	C300	0.577030	0.374900	0.096350
C3011	C301	0.581410	0.408500	0.139990
C3021	C302	0.506530	0.417570	0.459360
C3031	C303	0.594690	0.403690	0.186880
C3041	C304	0.486920	0.345410	0.283050
C3051	C305	0.564490	0.343830	0.003920
C3061	C306	0.344960	0.292000	0.252760
C3071	C307	0.987690	0.121340	0.608770
C3081	C308	0.938010	0.181010	0.612720
C3091	C309	0.914470	0.157480	0.676530
C3101	C310	0.551920	0.985960	0.525180
C3111	C311	0.987310	0.149380	0.581990
C3121	C312	0.632940	0.080770	0.635550
C3131	C313	0.641100	0.047330	0.601830
C3141	C314	0.961070	0.178170	0.584080
C3151	C315	0.690680	0.052520	0.622060
C3161	C316	0.963080	0.125180	0.637540
C3171	C317	0.670080	0.118390	0.685250
C3181	C318	0.721450	0.125100	0.702130
C3191	C319	0.731490	0.091500	0.672910
C3201	C320	0.041790	0.082430	0.588960
C3211	C321	0.783190	0.096310	0.691000
C3221	C322	0.937640	0.154590	0.641510
C3231	C323	0.660090	0.156170	0.720660
C3241	C324	0.960760	0.208000	0.552960
C3251	C325	0.512310	0.121080	0.133650
C3261	C326	0.561990	0.174710	0.243000
C3271	C327	0.585530	0.262060	0.243010
C3281	C328	0.948080	0.473260	0.434040
C3291	C329	0.512690	0.094680	0.162070
C3301	C330	0.867060	0.502610	0.447830
C3311	C331	0.858900	0.460730	0.406230
C3321	C332	0.538930	0.123010	0.217100
C3331	C333	0.809320	0.431380	0.361840
C3341	C334	0.536920	0.174460	0.162100
C3351	C335	0.829920	0.515170	0.448310
C3361	C336	0.778550	0.480680	0.403650
C3371	C337	0.768510	0.441420	0.360010
C3381	C338	0.458210	0.047170	0.040640
C3391	C339	0.716810	0.407810	0.313120
C3401	C340	0.562360	0.203870	0.216950
C3411	C341	0.839910	0.560570	0.496080
C3421	C342	0.539240	0.092200	0.247240
C3431	C343	0.012570	0.378920	0.891230
C3441	C344	0.068290	0.325290	0.887280
C3451	C345	0.980950	0.237940	0.823470
C3461	C346	0.960780	0.026740	0.974820
C3471	C347	0.067390	0.405320	0.918010
C3481	C348	0.945220	0.997390	0.864450
C3491	C349	0.945500	0.039270	0.898170
C3501	C350	0.094090	0.376990	0.915920
C3511	C351	0.930460	0.068620	0.877940
C3521	C352	0.987640	0.325540	0.862460
C3531	C353	0.933140	0.984830	0.814750
C3541	C354	0.922970	0.019320	0.797870
C3551	C355	0.918590	0.058580	0.827090
C3561	C356	0.993470	0.452830	0.911040
C3571	C357	0.905310	0.092190	0.809000
C3581	C358	0.013080	0.296130	0.858490
C3591	C359	0.935510	0.939430	0.779340
C3601	C360	0.155040	0.407800	0.947040
C3611	C361	0.378920	0.391230	0.512570
C3621	C362	0.325290	0.387280	0.568290
C3631	C363	0.237940	0.323470	0.480950
C3641	C364	0.026740	0.474820	0.460780
C3651	C365	0.405320	0.418010	0.567390
C3661	C366	0.997390	0.364450	0.445220
C3671	C367	0.039270	0.398170	0.445500
C3681	C368	0.376990	0.415920	0.594090
C3691	C369	0.068620	0.377940	0.430460
C3701	C370	0.325540	0.362460	0.487640
C3711	C371	0.984830	0.314750	0.433140
C3721	C372	0.019320	0.297870	0.422970
C3731	C373	0.058580	0.327090	0.418590
C3741	C374	0.452830	0.411040	0.493470
C3751	C375	0.092190	0.309000	0.405310
C3761	C376	0.296130	0.358490	0.513080
C3771	C377	0.939430	0.279340	0.435510
C3781	C378	0.407800	0.447040	0.655040
C3791	C379	0.121080	0.633650	0.012310
C3801	C380	0.174710	0.743000	0.061990
C3811	C381	0.262060	0.743010	0.085530
C3821	C382	0.473260	0.934040	0.448080
C3831	C383	0.094680	0.662070	0.012690
C3841	C384	0.502610	0.947830	0.367060
C3851	C385	0.460730	0.906230	0.358900
C3861	C386	0.123010	0.717100	0.038930
C3871	C387	0.431380	0.861840	0.309320
C3881	C388	0.174460	0.662100	0.036920
C3891	C389	0.515170	0.948310	0.329920
C3901	C390	0.480680	0.903650	0.278550
C3911	C391	0.441420	0.860010	0.268510
C3921	C392	0.047170	0.540640	0.958210
C3931	C393	0.407810	0.813120	0.216810
C3941	C394	0.203870	0.716950	0.062360
C3951	C395	0.560570	0.996080	0.339910
C3961	C396	0.092200	0.747240	0.039240
C3971	C397	0.121340	0.108770	0.487690
C3981	C398	0.181010	0.112720	0.438010
C3991	C399	0.157480	0.176530	0.414470
C4001	C400	0.985960	0.025180	0.051920
C4011	C401	0.149380	0.081990	0.487310
C4021	C402	0.080770	0.135550	0.132940
C4031	C403	0.047330	0.101830	0.141100
C4041	C404	0.178170	0.084080	0.461070
C4051	C405	0.052520	0.122060	0.190680
C4061	C406	0.125180	0.137540	0.463080
C4071	C407	0.118390	0.185250	0.170080
C4081	C408	0.125100	0.202130	0.221450
C4091	C409	0.091500	0.172910	0.231490
C4101	C410	0.082430	0.088960	0.541790
C4111	C411	0.096310	0.191000	0.283190
C4121	C412	0.154590	0.141510	0.437640
C4131	C413	0.156170	0.220660	0.160090
C4141	C414	0.208000	0.052960	0.460760
C4151	C415	0.378660	0.866350	0.987430
C4161	C416	0.318990	0.757000	0.931710
C4171	C417	0.342520	0.756990	0.019050
C4181	C418	0.514040	0.565960	0.039220
C4191	C419	0.350620	0.837930	0.932610
C4201	C420	0.419230	0.552170	0.054780
C4211	C421	0.452670	0.593770	0.054500
C4221	C422	0.321830	0.782900	0.905910
C4231	C423	0.447480	0.638160	0.069540
C4241	C424	0.374820	0.837900	0.012360
C4251	C425	0.381610	0.551690	0.066860
C4261	C426	0.374900	0.596350	0.077030
C4271	C427	0.408500	0.639990	0.081410
C4281	C428	0.417570	0.959360	0.006530
C4291	C429	0.403690	0.686880	0.094690
C4301	C430	0.345410	0.783050	0.986920
C4311	C431	0.343830	0.503920	0.064490
C4321	C432	0.292000	0.752760	0.844960
N11	N1	0.604770	0.593840	0.554550
N21	N2	0.058570	0.008070	0.957600
N31	N3	0.525990	0.566660	0.554550
N41	N4	0.011460	0.920230	0.902490
N51	N5	0.539290	0.050220	0.945450
N61	N6	0.550470	0.100970	0.542400
N71	N7	0.512110	0.971440	0.945450
N81	N8	0.517740	0.108970	0.597510
N91	N9	0.960710	0.906160	0.510930
N101	N10	0.949530	0.491930	0.550500
N111	N11	0.987890	0.933340	0.459330
N121	N12	0.982260	0.579770	0.591230
N131	N13	0.895230	0.449780	0.989070
N141	N14	0.441430	0.399030	0.949500
N151	N15	0.974010	0.528560	0.040670
N161	N16	0.488540	0.391030	0.908770
N171	N17	0.010930	0.960710	0.406160
N181	N18	0.050500	0.949530	0.991930
N191	N19	0.959330	0.987890	0.433340
N201	N20	0.091230	0.982260	0.079770
N211	N21	0.489070	0.895230	0.949780
N221	N22	0.449500	0.441430	0.899030
N231	N23	0.540670	0.974010	0.028560
N241	N24	0.408770	0.488540	0.891030
N251	N25	0.054550	0.604770	0.093840
N261	N26	0.457600	0.058570	0.508070
N271	N27	0.054550	0.525990	0.066660
N281	N28	0.402490	0.011460	0.420230
N291	N29	0.445450	0.539290	0.550220
N301	N30	0.042400	0.550470	0.600970
N311	N31	0.445450	0.512110	0.471440
N321	N32	0.097510	0.517740	0.608970
N331	N33	0.050220	0.445450	0.039290
N341	N34	0.100970	0.042400	0.050470
N351	N35	0.971440	0.445450	0.012110
N361	N36	0.108970	0.097510	0.017740
N371	N37	0.593840	0.054550	0.104770
N381	N38	0.008070	0.457600	0.558570
N391	N39	0.566660	0.054550	0.025990
N401	N40	0.920230	0.402490	0.511460
N411	N41	0.449780	0.489070	0.395230
N421	N42	0.399030	0.449500	0.941430
N431	N43	0.528560	0.540670	0.474010
N441	N44	0.391030	0.408770	0.988540
N451	N45	0.906160	0.010930	0.460710
N461	N46	0.491930	0.050500	0.449530
N471	N47	0.933340	0.959330	0.487890
N481	N48	0.579770	0.091230	0.482260
N491	N49	0.906160	0.895230	0.945450
N501	N50	0.491930	0.441430	0.542400
N511	N51	0.933340	0.974010	0.945450
N521	N52	0.579770	0.488540	0.597510
N531	N53	0.449780	0.960710	0.554550
N541	N54	0.399030	0.949530	0.957600
N551	N55	0.528560	0.987890	0.554550
N561	N56	0.391030	0.982260	0.902490
N571	N57	0.593840	0.539290	0.989070
N581	N58	0.008070	0.550470	0.949500
N591	N59	0.566660	0.512110	0.040670
N601	N60	0.920230	0.517740	0.908770
N611	N61	0.050220	0.604770	0.510930
N621	N62	0.100970	0.058570	0.550500
N631	N63	0.971440	0.525990	0.459330
N641	N64	0.108970	0.011460	0.591230
N651	N65	0.539290	0.489070	0.093840
N661	N66	0.550470	0.449500	0.508070
N671	N67	0.512110	0.540670	0.066660
N681	N68	0.517740	0.408770	0.420230
N691	N69	0.604770	0.010930	0.550220
N701	N70	0.058570	0.050500	0.600970
N711	N71	0.525990	0.959330	0.471440
N721	N72	0.011460	0.091230	0.608970
N731	N73	0.895230	0.445450	0.406160
N741	N74	0.441430	0.042400	0.991930
N751	N75	0.974010	0.445450	0.433340
N761	N76	0.488540	0.097510	0.079770
N771	N77	0.960710	0.054550	0.949780
N781	N78	0.949530	0.457600	0.899030
N791	N79	0.987890	0.054550	0.028560
N801	N80	0.982260	0.402490	0.891030
N811	N81	0.054550	0.449780	0.460710
N821	N82	0.457600	0.399030	0.449530
N831	N83	0.054550	0.528560	0.487890
N841	N84	0.402490	0.391030	0.482260
N851	N85	0.445450	0.906160	0.395230
N861	N86	0.042400	0.491930	0.941430
N871	N87	0.445450	0.933340	0.474010
N881	N88	0.097510	0.579770	0.988540
N891	N89	0.010930	0.050220	0.104770
N901	N90	0.050500	0.100970	0.558570
N911	N91	0.959330	0.971440	0.025990
N921	N92	0.091230	0.108970	0.511460
N931	N93	0.489070	0.593840	0.039290
N941	N94	0.449500	0.008070	0.050470
N951	N95	0.540670	0.566660	0.012110
N961	N96	0.408770	0.920230	0.017740
O11	O1	0.693000	0.491610	0.439650
O21	O2	0.823140	0.683960	0.589760
O31	O3	0.893680	0.708810	0.713070
O41	O4	0.789980	0.730060	0.621300
O51	O5	0.614000	0.484350	0.396350
O61	O6	0.915160	0.784660	0.716500
O71	O7	0.998010	0.778810	0.954940
O81	O8	0.926780	0.708100	0.885240
O91	O9	0.551960	0.253350	0.060350
O101	O10	0.594200	0.233380	0.910240
O111	O11	0.495740	0.180610	0.786930
O121	O12	0.608760	0.168680	0.878700
O131	O13	0.588000	0.217650	0.103650
O141	O14	0.568160	0.198660	0.783500
O151	O15	0.323870	0.043070	0.545060
O161	O16	0.322860	0.041540	0.614760
O171	O17	0.948040	0.008390	0.701390
O181	O18	0.905800	0.816040	0.639180
O191	O19	0.004260	0.791190	0.684870
O201	O20	0.891240	0.769940	0.559920
O211	O21	0.912000	0.015650	0.629650
O221	O22	0.931840	0.715340	0.630500
O231	O23	0.176130	0.721190	0.719200
O241	O24	0.177140	0.791900	0.718680
O251	O25	0.807000	0.246650	0.798610
O261	O26	0.676860	0.266620	0.860820
O271	O27	0.606320	0.319390	0.815130
O281	O28	0.710020	0.331320	0.940080
O291	O29	0.886000	0.282350	0.870350
O301	O30	0.584840	0.301340	0.869500
O311	O31	0.501990	0.456930	0.780800
O321	O32	0.573220	0.458460	0.781320
O331	O33	0.201390	0.948040	0.508390
O341	O34	0.139180	0.905800	0.316040
O351	O35	0.184870	0.004260	0.291190
O361	O36	0.059920	0.891240	0.269940
O371	O37	0.129650	0.912000	0.515650
O381	O38	0.130500	0.931840	0.215340
O391	O39	0.219200	0.176130	0.221190
O401	O40	0.218680	0.177140	0.291900
O411	O41	0.298610	0.807000	0.746650
O421	O42	0.360820	0.676860	0.766620
O431	O43	0.315130	0.606320	0.819390
O441	O44	0.440080	0.710020	0.831320
O451	O45	0.370350	0.886000	0.782350
O461	O46	0.369500	0.584840	0.801340
O471	O47	0.280800	0.501990	0.956930
O481	O48	0.281320	0.573220	0.958460
O491	O49	0.939650	0.693000	0.991610
O501	O50	0.089760	0.823140	0.183960
O511	O51	0.213070	0.893680	0.208810
O521	O52	0.121300	0.789980	0.230060
O531	O53	0.896350	0.614000	0.984350
O541	O54	0.216500	0.915160	0.284660
O551	O55	0.454940	0.998010	0.278810
O561	O56	0.385240	0.926780	0.208100
O571	O57	0.560350	0.551960	0.753350
O581	O58	0.410240	0.594200	0.733380
O591	O59	0.286930	0.495740	0.680610
O601	O60	0.378700	0.608760	0.668680
O611	O61	0.603650	0.588000	0.717650
O621	O62	0.283500	0.568160	0.698660
O631	O63	0.045060	0.323870	0.543070
O641	O64	0.114760	0.322860	0.541540
O651	O65	0.253350	0.560350	0.051960
O661	O66	0.233380	0.410240	0.094200
O671	O67	0.180610	0.286930	0.995740
O681	O68	0.168680	0.378700	0.108760
O691	O69	0.217650	0.603650	0.088000
O701	O70	0.198660	0.283500	0.068160
O711	O71	0.043070	0.045060	0.823870
O721	O72	0.041540	0.114760	0.822860
O731	O73	0.491610	0.939650	0.193000
O741	O74	0.683960	0.089760	0.323140
O751	O75	0.708810	0.213070	0.393680
O761	O76	0.730060	0.121300	0.289980
O771	O77	0.484350	0.896350	0.114000
O781	O78	0.784660	0.216500	0.415160
O791	O79	0.778810	0.454940	0.498010
O801	O80	0.708100	0.385240	0.426780
O811	O81	0.246650	0.298610	0.307000
O821	O82	0.266620	0.360820	0.176860
O831	O83	0.319390	0.315130	0.106320
O841	O84	0.331320	0.440080	0.210020
O851	O85	0.282350	0.370350	0.386000
O861	O86	0.301340	0.369500	0.084840
O871	O87	0.456930	0.280800	0.001990
O881	O88	0.458460	0.281320	0.073220
O891	O89	0.008390	0.201390	0.448040
O901	O90	0.816040	0.139180	0.405800
O911	O91	0.791190	0.184870	0.504260
O921	O92	0.769940	0.059920	0.391240
O931	O93	0.015650	0.129650	0.412000
O941	O94	0.715340	0.130500	0.431840
O951	O95	0.721190	0.219200	0.676130
O961	O96	0.791900	0.218680	0.677140
O971	O97	0.008390	0.807000	0.060350
O981	O98	0.816040	0.676860	0.910240
O991	O99	0.791190	0.606320	0.786930
O1001	O100	0.769940	0.710020	0.878700
O1011	O101	0.015650	0.886000	0.103650
O1021	O102	0.715340	0.584840	0.783500
O1031	O103	0.721190	0.501990	0.545060
O1041	O104	0.791900	0.573220	0.614760
O1051	O105	0.246650	0.948040	0.439650
O1061	O106	0.266620	0.905800	0.589760
O1071	O107	0.319390	0.004260	0.713070
O1081	O108	0.331320	0.891240	0.621300
O1091	O109	0.282350	0.912000	0.396350
O1101	O110	0.301340	0.931840	0.716500
O1111	O111	0.456930	0.176130	0.954940
O1121	O112	0.458460	0.177140	0.885240
O1131	O113	0.491610	0.551960	0.798610
O1141	O114	0.683960	0.594200	0.860820
O1151	O115	0.708810	0.495740	0.815130
O1161	O116	0.730060	0.608760	0.940080
O1171	O117	0.484350	0.588000	0.870350
O1181	O118	0.784660	0.568160	0.869500
O1191	O119	0.778810	0.323870	0.780800
O1201	O120	0.708100	0.322860	0.781320
O1211	O121	0.253350	0.693000	0.701390
O1221	O122	0.233380	0.823140	0.639180
O1231	O123	0.180610	0.893680	0.684870
O1241	O124	0.168680	0.789980	0.559920
O1251	O125	0.217650	0.614000	0.629650
O1261	O126	0.198660	0.915160	0.630500
O1271	O127	0.043070	0.998010	0.719200
O1281	O128	0.041540	0.926780	0.718680
O1291	O129	0.551960	0.298610	0.991610
O1301	O130	0.594200	0.360820	0.183960
O1311	O131	0.495740	0.315130	0.208810
O1321	O132	0.608760	0.440080	0.230060
O1331	O133	0.588000	0.370350	0.984350
O1341	O134	0.568160	0.369500	0.284660
O1351	O135	0.323870	0.280800	0.278810
O1361	O136	0.322860	0.281320	0.208100
O1371	O137	0.693000	0.201390	0.753350
O1381	O138	0.823140	0.139180	0.733380
O1391	O139	0.893680	0.184870	0.680610
O1401	O140	0.789980	0.059920	0.668680
O1411	O141	0.614000	0.129650	0.717650
O1421	O142	0.915160	0.130500	0.698660
O1431	O143	0.998010	0.219200	0.543070
O1441	O144	0.926780	0.218680	0.541540
O1451	O145	0.807000	0.560350	0.508390
O1461	O146	0.676860	0.410240	0.316040
O1471	O147	0.606320	0.286930	0.291190
O1481	O148	0.710020	0.378700	0.269940
O1491	O149	0.886000	0.603650	0.515650
O1501	O150	0.584840	0.283500	0.215340
O1511	O151	0.501990	0.045060	0.221190
O1521	O152	0.573220	0.114760	0.291900
O1531	O153	0.948040	0.939650	0.746650
O1541	O154	0.905800	0.089760	0.766620
O1551	O155	0.004260	0.213070	0.819390
O1561	O156	0.891240	0.121300	0.831320
O1571	O157	0.912000	0.896350	0.782350
O1581	O158	0.931840	0.216500	0.801340
O1591	O159	0.176130	0.454940	0.956930
O1601	O160	0.177140	0.385240	0.958460
O1611	O161	0.939650	0.246650	0.448040
O1621	O162	0.089760	0.266620	0.405800
O1631	O163	0.213070	0.319390	0.504260
O1641	O164	0.121300	0.331320	0.391240
O1651	O165	0.896350	0.282350	0.412000
O1661	O166	0.216500	0.301340	0.431840
O1671	O167	0.454940	0.456930	0.676130
O1681	O168	0.385240	0.458460	0.677140
O1691	O169	0.560350	0.008390	0.307000
O1701	O170	0.410240	0.816040	0.176860
O1711	O171	0.286930	0.791190	0.106320
O1721	O172	0.378700	0.769940	0.210020
O1731	O173	0.603650	0.015650	0.386000
O1741	O174	0.283500	0.715340	0.084840
O1751	O175	0.045060	0.721190	0.001990
O1761	O176	0.114760	0.791900	0.073220
O1771	O177	0.201390	0.253350	0.193000
O1781	O178	0.139180	0.233380	0.323140
O1791	O179	0.184870	0.180610	0.393680
O1801	O180	0.059920	0.168680	0.289980
O1811	O181	0.129650	0.217650	0.114000
O1821	O182	0.130500	0.198660	0.415160
O1831	O183	0.219200	0.043070	0.498010
O1841	O184	0.218680	0.041540	0.426780
O1851	O185	0.298610	0.491610	0.051960
O1861	O186	0.360820	0.683960	0.094200
O1871	O187	0.315130	0.708810	0.995740
O1881	O188	0.440080	0.730060	0.108760
O1891	O189	0.370350	0.484350	0.088000
O1901	O190	0.369500	0.784660	0.068160
O1911	O191	0.280800	0.778810	0.823870
O1921	O192	0.281320	0.708100	0.822860
