data_ICODIP01_clean_PM
_symmetry_space_group_name_H-M	'P1'
_cell_length_a	31.215000
_cell_length_b	31.215000
_cell_length_c	31.215000
_cell_angle_alpha	109.471000
_cell_angle_beta	109.471000
_cell_angle_gamma	109.471000
_symmetry_Int_Tables_number 1

loop_
_symmetry_equiv_pos_as_xyz
'x,y,z'

loop_
_atom_site_label
_atom_site_type_symbol
_atom_site_fract_x
_atom_site_fract_y
_atom_site_fract_z
Zn11	Zn1	0.250000	0.859280	0.609280
Zn21	Zn2	0.750000	0.640720	0.890720
Zn31	Zn3	0.390720	0.750000	0.140720
Zn41	Zn4	0.109280	0.250000	0.359280
Zn51	Zn5	0.640720	0.390720	0.250000
Zn61	Zn6	0.859280	0.109280	0.750000
Zn71	Zn7	0.640720	0.250000	0.890720
Zn81	Zn8	0.859280	0.750000	0.609280
Zn91	Zn9	0.750000	0.109280	0.359280
Zn101	Zn10	0.250000	0.390720	0.140720
Zn111	Zn11	0.109280	0.859280	0.250000
Zn121	Zn12	0.390720	0.640720	0.750000
Zn131	Zn13	0.001310	0.751310	0.502620
Zn141	Zn14	0.748690	0.498690	0.997380
Zn151	Zn15	0.751310	0.748690	0.750000
Zn161	Zn16	0.498690	0.001310	0.750000
Zn171	Zn17	0.250000	0.751310	0.248690
Zn181	Zn18	0.250000	0.498690	0.501310
Zn191	Zn19	0.002620	0.001310	0.251310
Zn201	Zn20	0.497380	0.748690	0.998690
Zn211	Zn21	0.498690	0.497380	0.248690
Zn221	Zn22	0.751310	0.002620	0.501310
Zn231	Zn23	0.001310	0.250000	0.998690
Zn241	Zn24	0.748690	0.250000	0.251310
H11	H1	0.113800	0.996200	0.525800
H21	H2	0.355500	0.848300	0.412800
H31	H3	0.356600	0.894800	0.550200
H41	H4	0.021800	0.923000	0.546600
H51	H5	0.431600	0.926100	0.550700
H61	H6	0.168500	0.970700	0.572400
H71	H7	0.095800	0.848400	0.585000
H81	H8	0.219900	0.800300	0.413800
H91	H9	0.970400	0.588000	0.974200
H101	H10	0.935500	0.942700	0.087200
H111	H11	0.844600	0.806400	0.949800
H121	H12	0.876400	0.475200	0.953400
H131	H13	0.875400	0.880900	0.949300
H141	H14	0.898300	0.596100	0.927600
H151	H15	0.763400	0.510800	0.915000
H161	H16	0.886500	0.806100	0.086200
H171	H17	0.529600	0.503800	0.617600
H181	H18	0.564500	0.651700	0.007200
H191	H19	0.655400	0.605200	0.961800
H201	H20	0.623600	0.577000	0.598800
H211	H21	0.624600	0.573900	0.005500
H221	H22	0.601700	0.529300	0.697800
H231	H23	0.736600	0.651600	0.747400
H241	H24	0.613500	0.699700	0.919600
H251	H25	0.386200	0.912000	0.882400
H261	H26	0.144500	0.557300	0.492800
H271	H27	0.143400	0.693600	0.538200
H281	H28	0.478200	0.024800	0.901200
H291	H29	0.068400	0.619100	0.494500
H301	H30	0.331500	0.903900	0.802200
H311	H31	0.404200	0.989200	0.752600
H321	H32	0.280100	0.693900	0.580400
H331	H33	0.117600	0.529600	0.003800
H341	H34	0.507200	0.564500	0.151700
H351	H35	0.461800	0.655400	0.105200
H361	H36	0.098800	0.623600	0.077000
H371	H37	0.505500	0.624600	0.073900
H381	H38	0.197800	0.601700	0.029300
H391	H39	0.247400	0.736600	0.151600
H401	H40	0.419600	0.613500	0.199700
H411	H41	0.382400	0.386200	0.412000
H421	H42	0.992800	0.144500	0.057300
H431	H43	0.038200	0.143400	0.193600
H441	H44	0.401200	0.478200	0.524800
H451	H45	0.994500	0.068400	0.119100
H461	H46	0.302200	0.331500	0.403900
H471	H47	0.252600	0.404200	0.489200
H481	H48	0.080400	0.280100	0.193900
H491	H49	0.025800	0.113800	0.496200
H501	H50	0.912800	0.355500	0.348300
H511	H51	0.050200	0.356600	0.394800
H521	H52	0.046600	0.021800	0.423000
H531	H53	0.050700	0.431600	0.426100
H541	H54	0.072400	0.168500	0.470700
H551	H55	0.085000	0.095800	0.348400
H561	H56	0.913800	0.219900	0.300300
H571	H57	0.474200	0.970400	0.088000
H581	H58	0.587200	0.935500	0.442700
H591	H59	0.449800	0.844600	0.306400
H601	H60	0.453400	0.876400	0.975200
H611	H61	0.449300	0.875400	0.380900
H621	H62	0.427600	0.898300	0.096100
H631	H63	0.415000	0.763400	0.010800
H641	H64	0.586200	0.886500	0.306100
H651	H65	0.588000	0.474200	0.470400
H661	H66	0.942700	0.587200	0.435500
H671	H67	0.806400	0.449800	0.344600
H681	H68	0.475200	0.453400	0.376400
H691	H69	0.880900	0.449300	0.375400
H701	H70	0.596100	0.427600	0.398300
H711	H71	0.510800	0.415000	0.263400
H721	H72	0.806100	0.586200	0.386500
H731	H73	0.996200	0.025800	0.613800
H741	H74	0.848300	0.912800	0.855500
H751	H75	0.894800	0.050200	0.856600
H761	H76	0.923000	0.046600	0.521800
H771	H77	0.926100	0.050700	0.931600
H781	H78	0.970700	0.072400	0.668500
H791	H79	0.848400	0.085000	0.595800
H801	H80	0.800300	0.913800	0.719900
H811	H81	0.912000	0.382400	0.886200
H821	H82	0.557300	0.992800	0.644500
H831	H83	0.693600	0.038200	0.643400
H841	H84	0.024800	0.401200	0.978200
H851	H85	0.619100	0.994500	0.568400
H861	H86	0.903900	0.302200	0.831500
H871	H87	0.989200	0.252600	0.904200
H881	H88	0.693900	0.080400	0.780100
H891	H89	0.503800	0.117600	0.029600
H901	H90	0.651700	0.507200	0.064500
H911	H91	0.605200	0.461800	0.155400
H921	H92	0.577000	0.098800	0.123600
H931	H93	0.573900	0.505500	0.124600
H941	H94	0.529300	0.197800	0.101700
H951	H95	0.651600	0.247400	0.236600
H961	H96	0.699700	0.419600	0.113500
H971	H97	0.503800	0.386200	0.974200
H981	H98	0.651700	0.144500	0.087200
H991	H99	0.605200	0.143400	0.949800
H1001	H100	0.577000	0.478200	0.953400
H1011	H101	0.573900	0.068400	0.949300
H1021	H102	0.529300	0.331500	0.927600
H1031	H103	0.651600	0.404200	0.915000
H1041	H104	0.699700	0.280100	0.086200
H1051	H105	0.912000	0.529600	0.525800
H1061	H106	0.557300	0.564500	0.412800
H1071	H107	0.693600	0.655400	0.550200
H1081	H108	0.024800	0.623600	0.546600
H1091	H109	0.619100	0.624600	0.550700
H1101	H110	0.903900	0.601700	0.572400
H1111	H111	0.989200	0.736600	0.585000
H1121	H112	0.693900	0.613500	0.413800
H1131	H113	0.996200	0.970400	0.882400
H1141	H114	0.848300	0.935500	0.492800
H1151	H115	0.894800	0.844600	0.538200
H1161	H116	0.923000	0.876400	0.901200
H1171	H117	0.926100	0.875400	0.494500
H1181	H118	0.970700	0.898300	0.802200
H1191	H119	0.848400	0.763400	0.752600
H1201	H120	0.800300	0.886500	0.580400
H1211	H121	0.588000	0.113800	0.617600
H1221	H122	0.942700	0.355500	0.007200
H1231	H123	0.806400	0.356600	0.961800
H1241	H124	0.475200	0.021800	0.598800
H1251	H125	0.880900	0.431600	0.005500
H1261	H126	0.596100	0.168500	0.697800
H1271	H127	0.510800	0.095800	0.747400
H1281	H128	0.806100	0.219900	0.919600
H1291	H129	0.970400	0.382400	0.496200
H1301	H130	0.935500	0.992800	0.348300
H1311	H131	0.844600	0.038200	0.394800
H1321	H132	0.876400	0.401200	0.423000
H1331	H133	0.875400	0.994500	0.426100
H1341	H134	0.898300	0.302200	0.470700
H1351	H135	0.763400	0.252600	0.348400
H1361	H136	0.886500	0.080400	0.300300
H1371	H137	0.113800	0.117600	0.088000
H1381	H138	0.355500	0.507200	0.442700
H1391	H139	0.356600	0.461800	0.306400
H1401	H140	0.021800	0.098800	0.975200
H1411	H141	0.431600	0.505500	0.380900
H1421	H142	0.168500	0.197800	0.096100
H1431	H143	0.095800	0.247400	0.010800
H1441	H144	0.219900	0.419600	0.306100
H1451	H145	0.386200	0.474200	0.003800
H1461	H146	0.144500	0.587200	0.151700
H1471	H147	0.143400	0.449800	0.105200
H1481	H148	0.478200	0.453400	0.077000
H1491	H149	0.068400	0.449300	0.073900
H1501	H150	0.331500	0.427600	0.029300
H1511	H151	0.404200	0.415000	0.151600
H1521	H152	0.280100	0.586200	0.199700
H1531	H153	0.529600	0.025800	0.412000
H1541	H154	0.564500	0.912800	0.057300
H1551	H155	0.655400	0.050200	0.193600
H1561	H156	0.623600	0.046600	0.524800
H1571	H157	0.624600	0.050700	0.119100
H1581	H158	0.601700	0.072400	0.403900
H1591	H159	0.736600	0.085000	0.489200
H1601	H160	0.613500	0.913800	0.193900
H1611	H161	0.025800	0.912000	0.029600
H1621	H162	0.912800	0.557300	0.064500
H1631	H163	0.050200	0.693600	0.155400
H1641	H164	0.046600	0.024800	0.123600
H1651	H165	0.050700	0.619100	0.124600
H1661	H166	0.072400	0.903900	0.101700
H1671	H167	0.085000	0.989200	0.236600
H1681	H168	0.913800	0.693900	0.113500
H1691	H169	0.474200	0.503800	0.886200
H1701	H170	0.587200	0.651700	0.644500
H1711	H171	0.449800	0.605200	0.643400
H1721	H172	0.453400	0.577000	0.978200
H1731	H173	0.449300	0.573900	0.568400
H1741	H174	0.427600	0.529300	0.831500
H1751	H175	0.415000	0.651600	0.904200
H1761	H176	0.586200	0.699700	0.780100
H1771	H177	0.117600	0.588000	0.613800
H1781	H178	0.507200	0.942700	0.855500
H1791	H179	0.461800	0.806400	0.856600
H1801	H180	0.098800	0.475200	0.521800
H1811	H181	0.505500	0.880900	0.931600
H1821	H182	0.197800	0.596100	0.668500
H1831	H183	0.247400	0.510800	0.595800
H1841	H184	0.419600	0.806100	0.719900
H1851	H185	0.382400	0.996200	0.470400
H1861	H186	0.992800	0.848300	0.435500
H1871	H187	0.038200	0.894800	0.344600
H1881	H188	0.401200	0.923000	0.376400
H1891	H189	0.994500	0.926100	0.375400
H1901	H190	0.302200	0.970700	0.398300
H1911	H191	0.252600	0.848400	0.263400
H1921	H192	0.080400	0.800300	0.386500
C11	C1	0.138600	0.907450	0.580390
C21	C2	0.066100	0.014230	0.539170
C31	C3	0.459230	0.917580	0.506270
C41	C4	0.282910	0.845490	0.486540
C51	C5	0.283350	0.821430	0.405460
C61	C6	0.365580	0.877500	0.486700
C71	C7	0.337710	0.848810	0.431500
C81	C8	0.338330	0.875840	0.513770
C91	C9	0.051500	0.919410	0.554770
C101	C10	0.053010	0.881960	0.568030
C111	C11	0.186120	0.903000	0.593680
C121	C12	0.138350	0.947100	0.569290
C131	C13	0.096120	0.875560	0.578740
C141	C14	0.093080	0.951900	0.553360
C151	C15	0.256350	0.819410	0.432280
C161	C16	0.255700	0.841860	0.518880
C171	C17	0.253900	0.791400	0.345100
C181	C18	0.003700	0.845500	0.566800
C191	C19	0.827060	0.558210	0.919610
C201	C20	0.975060	0.526930	0.960830
C211	C21	0.911310	0.952960	0.993730
C221	C22	0.858950	0.796370	0.013460
C231	C23	0.915970	0.877890	0.094540
C241	C24	0.890800	0.878880	0.013300
C251	C25	0.917310	0.906210	0.068500
C261	C26	0.862070	0.824560	0.986230
C271	C27	0.864640	0.496730	0.945230
C281	C28	0.813930	0.484980	0.931970
C291	C29	0.809320	0.592440	0.906320
C301	C30	0.877810	0.569060	0.930710
C311	C31	0.796820	0.517380	0.921260
C321	C32	0.898540	0.539720	0.946640
C331	C33	0.887130	0.824070	0.067720
C341	C34	0.822980	0.736820	0.981120
C351	C35	0.946300	0.908800	0.154900
C361	C36	0.778700	0.436900	0.933200
C371	C37	0.672940	0.592550	0.731150
C381	C38	0.524940	0.485770	0.551870
C391	C39	0.588690	0.582420	0.041650
C401	C40	0.641050	0.654510	0.937420
C411	C41	0.584030	0.678570	0.961920
C421	C42	0.609200	0.622500	0.988080
C431	C43	0.582690	0.651190	0.988900
C441	C44	0.637930	0.624160	0.962490
C451	C45	0.635360	0.580590	0.632090
C461	C46	0.686070	0.618040	0.671050
C471	C47	0.690680	0.597000	0.783120
C481	C48	0.622190	0.552900	0.691250
C491	C49	0.703180	0.624440	0.720560
C501	C50	0.601460	0.548100	0.641180
C511	C51	0.612870	0.680590	0.936940
C521	C52	0.677020	0.658140	0.913840
C531	C53	0.553700	0.708600	0.962500
C541	C54	0.721300	0.654500	0.658200
C551	C55	0.361400	0.941790	0.768850
C561	C56	0.433900	0.973070	0.948130
C571	C57	0.040770	0.547040	0.458350
C581	C58	0.217090	0.703630	0.562580
C591	C59	0.216650	0.622110	0.538080
C601	C60	0.134420	0.621120	0.511920
C611	C61	0.162290	0.593790	0.511100
C621	C62	0.161670	0.675440	0.537510
C631	C63	0.448500	0.003270	0.867910
C641	C64	0.446990	0.015020	0.828950
C651	C65	0.313880	0.907560	0.716880
C661	C66	0.361650	0.930940	0.808750
C671	C67	0.403880	0.982620	0.779440
C681	C68	0.406920	0.960280	0.858820
C691	C69	0.243650	0.675930	0.563060
C701	C70	0.244300	0.763180	0.586160
C711	C71	0.246100	0.591200	0.537500
C721	C72	0.496300	0.063100	0.841800
C731	C73	0.231150	0.672940	0.092550
C741	C74	0.051870	0.524940	0.985770
C751	C75	0.541650	0.588690	0.082420
C761	C76	0.437420	0.641050	0.154510
C771	C77	0.461920	0.584030	0.178570
C781	C78	0.488080	0.609200	0.122500
C791	C79	0.488900	0.582690	0.151190
C801	C80	0.462490	0.637930	0.124160
C811	C81	0.132090	0.635360	0.080590
C821	C82	0.171050	0.686070	0.118040
C831	C83	0.283120	0.690680	0.097000
C841	C84	0.191250	0.622190	0.052900
C851	C85	0.220560	0.703180	0.124440
C861	C86	0.141180	0.601460	0.048100
C871	C87	0.436940	0.612870	0.180590
C881	C88	0.413840	0.677020	0.158140
C891	C89	0.462500	0.553700	0.208600
C901	C90	0.158200	0.721300	0.154500
C911	C91	0.268850	0.361400	0.441790
C921	C92	0.448130	0.433900	0.473070
C931	C93	0.958350	0.040770	0.047040
C941	C94	0.062580	0.217090	0.203630
C951	C95	0.038080	0.216650	0.122110
C961	C96	0.011920	0.134420	0.121120
C971	C97	0.011100	0.162290	0.093790
C981	C98	0.037510	0.161670	0.175440
C991	C99	0.367910	0.448500	0.503270
C1001	C100	0.328950	0.446990	0.515020
C1011	C101	0.216880	0.313880	0.407560
C1021	C102	0.308750	0.361650	0.430940
C1031	C103	0.279440	0.403880	0.482620
C1041	C104	0.358820	0.406920	0.460280
C1051	C105	0.063060	0.243650	0.175930
C1061	C106	0.086160	0.244300	0.263180
C1071	C107	0.037500	0.246100	0.091200
C1081	C108	0.341800	0.496300	0.563100
C1091	C109	0.080390	0.138600	0.407450
C1101	C110	0.039170	0.066100	0.514230
C1111	C111	0.006270	0.459230	0.417580
C1121	C112	0.986540	0.282910	0.345490
C1131	C113	0.905460	0.283350	0.321430
C1141	C114	0.986700	0.365580	0.377500
C1151	C115	0.931500	0.337710	0.348810
C1161	C116	0.013770	0.338330	0.375840
C1171	C117	0.054770	0.051500	0.419410
C1181	C118	0.068030	0.053010	0.381960
C1191	C119	0.093680	0.186120	0.403000
C1201	C120	0.069290	0.138350	0.447100
C1211	C121	0.078740	0.096120	0.375560
C1221	C122	0.053360	0.093080	0.451900
C1231	C123	0.932280	0.256350	0.319410
C1241	C124	0.018880	0.255700	0.341860
C1251	C125	0.845100	0.253900	0.291400
C1261	C126	0.066800	0.003700	0.345500
C1271	C127	0.419610	0.827060	0.058210
C1281	C128	0.460830	0.975060	0.026930
C1291	C129	0.493730	0.911310	0.452960
C1301	C130	0.513460	0.858950	0.296370
C1311	C131	0.594540	0.915970	0.377890
C1321	C132	0.513300	0.890800	0.378880
C1331	C133	0.568500	0.917310	0.406210
C1341	C134	0.486230	0.862070	0.324560
C1351	C135	0.445230	0.864640	0.996730
C1361	C136	0.431970	0.813930	0.984980
C1371	C137	0.406320	0.809320	0.092440
C1381	C138	0.430710	0.877810	0.069060
C1391	C139	0.421260	0.796820	0.017380
C1401	C140	0.446640	0.898540	0.039720
C1411	C141	0.567720	0.887130	0.324070
C1421	C142	0.481120	0.822980	0.236820
C1431	C143	0.654900	0.946300	0.408800
C1441	C144	0.433200	0.778700	0.936900
C1451	C145	0.558210	0.419610	0.327060
C1461	C146	0.526930	0.460830	0.475060
C1471	C147	0.952960	0.493730	0.411310
C1481	C148	0.796370	0.513460	0.358950
C1491	C149	0.877890	0.594540	0.415970
C1501	C150	0.878880	0.513300	0.390800
C1511	C151	0.906210	0.568500	0.417310
C1521	C152	0.824560	0.486230	0.362070
C1531	C153	0.496730	0.445230	0.364640
C1541	C154	0.484980	0.431970	0.313930
C1551	C155	0.592440	0.406320	0.309320
C1561	C156	0.569060	0.430710	0.377810
C1571	C157	0.517380	0.421260	0.296820
C1581	C158	0.539720	0.446640	0.398540
C1591	C159	0.824070	0.567720	0.387130
C1601	C160	0.736820	0.481120	0.322980
C1611	C161	0.908800	0.654900	0.446300
C1621	C162	0.436900	0.433200	0.278700
C1631	C163	0.907450	0.080390	0.638600
C1641	C164	0.014230	0.039170	0.566100
C1651	C165	0.917580	0.006270	0.959230
C1661	C166	0.845490	0.986540	0.782910
C1671	C167	0.821430	0.905460	0.783350
C1681	C168	0.877500	0.986700	0.865580
C1691	C169	0.848810	0.931500	0.837710
C1701	C170	0.875840	0.013770	0.838330
C1711	C171	0.919410	0.054770	0.551500
C1721	C172	0.881960	0.068030	0.553010
C1731	C173	0.903000	0.093680	0.686120
C1741	C174	0.947100	0.069290	0.638350
C1751	C175	0.875560	0.078740	0.596120
C1761	C176	0.951900	0.053360	0.593080
C1771	C177	0.819410	0.932280	0.756350
C1781	C178	0.841860	0.018880	0.755700
C1791	C179	0.791400	0.845100	0.753900
C1801	C180	0.845500	0.066800	0.503700
C1811	C181	0.941790	0.268850	0.861400
C1821	C182	0.973070	0.448130	0.933900
C1831	C183	0.547040	0.958350	0.540770
C1841	C184	0.703630	0.062580	0.717090
C1851	C185	0.622110	0.038080	0.716650
C1861	C186	0.621120	0.011920	0.634420
C1871	C187	0.593790	0.011100	0.662290
C1881	C188	0.675440	0.037510	0.661670
C1891	C189	0.003270	0.367910	0.948500
C1901	C190	0.015020	0.328950	0.946990
C1911	C191	0.907560	0.216880	0.813880
C1921	C192	0.930940	0.308750	0.861650
C1931	C193	0.982620	0.279440	0.903880
C1941	C194	0.960280	0.358820	0.906920
C1951	C195	0.675930	0.063060	0.743650
C1961	C196	0.763180	0.086160	0.744300
C1971	C197	0.591200	0.037500	0.746100
C1981	C198	0.063100	0.341800	0.996300
C1991	C199	0.592550	0.231150	0.172940
C2001	C200	0.485770	0.051870	0.024940
C2011	C201	0.582420	0.541650	0.088690
C2021	C202	0.654510	0.437420	0.141050
C2031	C203	0.678570	0.461920	0.084030
C2041	C204	0.622500	0.488080	0.109200
C2051	C205	0.651190	0.488900	0.082690
C2061	C206	0.624160	0.462490	0.137930
C2071	C207	0.580590	0.132090	0.135360
C2081	C208	0.618040	0.171050	0.186070
C2091	C209	0.597000	0.283120	0.190680
C2101	C210	0.552900	0.191250	0.122190
C2111	C211	0.624440	0.220560	0.203180
C2121	C212	0.548100	0.141180	0.101460
C2131	C213	0.680590	0.436940	0.112870
C2141	C214	0.658140	0.413840	0.177020
C2151	C215	0.708600	0.462500	0.053700
C2161	C216	0.654500	0.158200	0.221300
C2171	C217	0.592550	0.361400	0.919610
C2181	C218	0.485770	0.433900	0.960830
C2191	C219	0.582420	0.040770	0.993730
C2201	C220	0.654510	0.217090	0.013460
C2211	C221	0.678570	0.216650	0.094540
C2221	C222	0.622500	0.134420	0.013300
C2231	C223	0.651190	0.162290	0.068500
C2241	C224	0.624160	0.161670	0.986230
C2251	C225	0.580590	0.448500	0.945230
C2261	C226	0.618040	0.446990	0.931970
C2271	C227	0.597000	0.313880	0.906320
C2281	C228	0.552900	0.361650	0.930710
C2291	C229	0.624440	0.403880	0.921260
C2301	C230	0.548100	0.406920	0.946640
C2311	C231	0.680590	0.243650	0.067720
C2321	C232	0.658140	0.244300	0.981120
C2331	C233	0.708600	0.246100	0.154900
C2341	C234	0.654500	0.496300	0.933200
C2351	C235	0.941790	0.672940	0.580390
C2361	C236	0.973070	0.524940	0.539170
C2371	C237	0.547040	0.588690	0.506270
C2381	C238	0.703630	0.641050	0.486540
C2391	C239	0.622110	0.584030	0.405460
C2401	C240	0.621120	0.609200	0.486700
C2411	C241	0.593790	0.582690	0.431500
C2421	C242	0.675440	0.637930	0.513770
C2431	C243	0.003270	0.635360	0.554770
C2441	C244	0.015020	0.686070	0.568030
C2451	C245	0.907560	0.690680	0.593680
C2461	C246	0.930940	0.622190	0.569290
C2471	C247	0.982620	0.703180	0.578740
C2481	C248	0.960280	0.601460	0.553360
C2491	C249	0.675930	0.612870	0.432280
C2501	C250	0.763180	0.677020	0.518880
C2511	C251	0.591200	0.553700	0.345100
C2521	C252	0.063100	0.721300	0.566800
C2531	C253	0.907450	0.827060	0.768850
C2541	C254	0.014230	0.975060	0.948130
C2551	C255	0.917580	0.911310	0.458350
C2561	C256	0.845490	0.858950	0.562580
C2571	C257	0.821430	0.915970	0.538080
C2581	C258	0.877500	0.890800	0.511920
C2591	C259	0.848810	0.917310	0.511100
C2601	C260	0.875840	0.862070	0.537510
C2611	C261	0.919410	0.864640	0.867910
C2621	C262	0.881960	0.813930	0.828950
C2631	C263	0.903000	0.809320	0.716880
C2641	C264	0.947100	0.877810	0.808750
C2651	C265	0.875560	0.796820	0.779440
C2661	C266	0.951900	0.898540	0.858820
C2671	C267	0.819410	0.887130	0.563060
C2681	C268	0.841860	0.822980	0.586160
C2691	C269	0.791400	0.946300	0.537500
C2701	C270	0.845500	0.778700	0.841800
C2711	C271	0.558210	0.138600	0.731150
C2721	C272	0.526930	0.066100	0.551870
C2731	C273	0.952960	0.459230	0.041650
C2741	C274	0.796370	0.282910	0.937420
C2751	C275	0.877890	0.283350	0.961920
C2761	C276	0.878880	0.365580	0.988080
C2771	C277	0.906210	0.337710	0.988900
C2781	C278	0.824560	0.338330	0.962490
C2791	C279	0.496730	0.051500	0.632090
C2801	C280	0.484980	0.053010	0.671050
C2811	C281	0.592440	0.186120	0.783120
C2821	C282	0.569060	0.138350	0.691250
C2831	C283	0.517380	0.096120	0.720560
C2841	C284	0.539720	0.093080	0.641180
C2851	C285	0.824070	0.256350	0.936940
C2861	C286	0.736820	0.255700	0.913840
C2871	C287	0.908800	0.253900	0.962500
C2881	C288	0.436900	0.003700	0.658200
C2891	C289	0.827060	0.268850	0.407450
C2901	C290	0.975060	0.448130	0.514230
C2911	C291	0.911310	0.958350	0.417580
C2921	C292	0.858950	0.062580	0.345490
C2931	C293	0.915970	0.038080	0.321430
C2941	C294	0.890800	0.011920	0.377500
C2951	C295	0.917310	0.011100	0.348810
C2961	C296	0.862070	0.037510	0.375840
C2971	C297	0.864640	0.367910	0.419410
C2981	C298	0.813930	0.328950	0.381960
C2991	C299	0.809320	0.216880	0.403000
C3001	C300	0.877810	0.308750	0.447100
C3011	C301	0.796820	0.279440	0.375560
C3021	C302	0.898540	0.358820	0.451900
C3031	C303	0.887130	0.063060	0.319410
C3041	C304	0.822980	0.086160	0.341860
C3051	C305	0.946300	0.037500	0.291400
C3061	C306	0.778700	0.341800	0.345500
C3071	C307	0.138600	0.231150	0.058210
C3081	C308	0.066100	0.051870	0.026930
C3091	C309	0.459230	0.541650	0.452960
C3101	C310	0.282910	0.437420	0.296370
C3111	C311	0.283350	0.461920	0.377890
C3121	C312	0.365580	0.488080	0.378880
C3131	C313	0.337710	0.488900	0.406210
C3141	C314	0.338330	0.462490	0.324560
C3151	C315	0.051500	0.132090	0.996730
C3161	C316	0.053010	0.171050	0.984980
C3171	C317	0.186120	0.283120	0.092440
C3181	C318	0.138350	0.191250	0.069060
C3191	C319	0.096120	0.220560	0.017380
C3201	C320	0.093080	0.141180	0.039720
C3211	C321	0.256350	0.436940	0.324070
C3221	C322	0.255700	0.413840	0.236820
C3231	C323	0.253900	0.462500	0.408800
C3241	C324	0.003700	0.158200	0.936900
C3251	C325	0.361400	0.419610	0.092550
C3261	C326	0.433900	0.460830	0.985770
C3271	C327	0.040770	0.493730	0.082420
C3281	C328	0.217090	0.513460	0.154510
C3291	C329	0.216650	0.594540	0.178570
C3301	C330	0.134420	0.513300	0.122500
C3311	C331	0.162290	0.568500	0.151190
C3321	C332	0.161670	0.486230	0.124160
C3331	C333	0.448500	0.445230	0.080590
C3341	C334	0.446990	0.431970	0.118040
C3351	C335	0.313880	0.406320	0.097000
C3361	C336	0.361650	0.430710	0.052900
C3371	C337	0.403880	0.421260	0.124440
C3381	C338	0.406920	0.446640	0.048100
C3391	C339	0.243650	0.567720	0.180590
C3401	C340	0.244300	0.481120	0.158140
C3411	C341	0.246100	0.654900	0.208600
C3421	C342	0.496300	0.433200	0.154500
C3431	C343	0.672940	0.080390	0.441790
C3441	C344	0.524940	0.039170	0.473070
C3451	C345	0.588690	0.006270	0.047040
C3461	C346	0.641050	0.986540	0.203630
C3471	C347	0.584030	0.905460	0.122110
C3481	C348	0.609200	0.986700	0.121120
C3491	C349	0.582690	0.931500	0.093790
C3501	C350	0.637930	0.013770	0.175440
C3511	C351	0.635360	0.054770	0.503270
C3521	C352	0.686070	0.068030	0.515020
C3531	C353	0.690680	0.093680	0.407560
C3541	C354	0.622190	0.069290	0.430940
C3551	C355	0.703180	0.078740	0.482620
C3561	C356	0.601460	0.053360	0.460280
C3571	C357	0.612870	0.932280	0.175930
C3581	C358	0.677020	0.018880	0.263180
C3591	C359	0.553700	0.845100	0.091200
C3601	C360	0.721300	0.066800	0.563100
C3611	C361	0.080390	0.941790	0.172940
C3621	C362	0.039170	0.973070	0.024940
C3631	C363	0.006270	0.547040	0.088690
C3641	C364	0.986540	0.703630	0.141050
C3651	C365	0.905460	0.622110	0.084030
C3661	C366	0.986700	0.621120	0.109200
C3671	C367	0.931500	0.593790	0.082690
C3681	C368	0.013770	0.675440	0.137930
C3691	C369	0.054770	0.003270	0.135360
C3701	C370	0.068030	0.015020	0.186070
C3711	C371	0.093680	0.907560	0.190680
C3721	C372	0.069290	0.930940	0.122190
C3731	C373	0.078740	0.982620	0.203180
C3741	C374	0.053360	0.960280	0.101460
C3751	C375	0.932280	0.675930	0.112870
C3761	C376	0.018880	0.763180	0.177020
C3771	C377	0.845100	0.591200	0.053700
C3781	C378	0.066800	0.063100	0.221300
C3791	C379	0.419610	0.592550	0.861400
C3801	C380	0.460830	0.485770	0.933900
C3811	C381	0.493730	0.582420	0.540770
C3821	C382	0.513460	0.654510	0.717090
C3831	C383	0.594540	0.678570	0.716650
C3841	C384	0.513300	0.622500	0.634420
C3851	C385	0.568500	0.651190	0.662290
C3861	C386	0.486230	0.624160	0.661670
C3871	C387	0.445230	0.580590	0.948500
C3881	C388	0.431970	0.618040	0.946990
C3891	C389	0.406320	0.597000	0.813880
C3901	C390	0.430710	0.552900	0.861650
C3911	C391	0.421260	0.624440	0.903880
C3921	C392	0.446640	0.548100	0.906920
C3931	C393	0.567720	0.680590	0.743650
C3941	C394	0.481120	0.658140	0.744300
C3951	C395	0.654900	0.708600	0.746100
C3961	C396	0.433200	0.654500	0.996300
C3971	C397	0.231150	0.558210	0.638600
C3981	C398	0.051870	0.526930	0.566100
C3991	C399	0.541650	0.952960	0.959230
C4001	C400	0.437420	0.796370	0.782910
C4011	C401	0.461920	0.877890	0.783350
C4021	C402	0.488080	0.878880	0.865580
C4031	C403	0.488900	0.906210	0.837710
C4041	C404	0.462490	0.824560	0.838330
C4051	C405	0.132090	0.496730	0.551500
C4061	C406	0.171050	0.484980	0.553010
C4071	C407	0.283120	0.592440	0.686120
C4081	C408	0.191250	0.569060	0.638350
C4091	C409	0.220560	0.517380	0.596120
C4101	C410	0.141180	0.539720	0.593080
C4111	C411	0.436940	0.824070	0.756350
C4121	C412	0.413840	0.736820	0.755700
C4131	C413	0.462500	0.908800	0.753900
C4141	C414	0.158200	0.436900	0.503700
C4151	C415	0.268850	0.907450	0.327060
C4161	C416	0.448130	0.014230	0.475060
C4171	C417	0.958350	0.917580	0.411310
C4181	C418	0.062580	0.845490	0.358950
C4191	C419	0.038080	0.821430	0.415970
C4201	C420	0.011920	0.877500	0.390800
C4211	C421	0.011100	0.848810	0.417310
C4221	C422	0.037510	0.875840	0.362070
C4231	C423	0.367910	0.919410	0.364640
C4241	C424	0.328950	0.881960	0.313930
C4251	C425	0.216880	0.903000	0.309320
C4261	C426	0.308750	0.947100	0.377810
C4271	C427	0.279440	0.875560	0.296820
C4281	C428	0.358820	0.951900	0.398540
C4291	C429	0.063060	0.819410	0.387130
C4301	C430	0.086160	0.841860	0.322980
C4311	C431	0.037500	0.791400	0.446300
C4321	C432	0.341800	0.845500	0.278700
N11	N1	0.066790	0.040350	0.512500
N21	N2	0.449480	0.899150	0.457870
N31	N3	0.093150	0.988510	0.538020
N41	N4	0.420570	0.908940	0.517710
N51	N5	0.027850	0.554290	0.987500
N61	N6	0.941280	0.991610	0.042130
N71	N7	0.950490	0.555130	0.961980
N81	N8	0.891230	0.902860	0.982290
N91	N9	0.472150	0.459650	0.526440
N101	N10	0.558720	0.600850	0.050330
N111	N11	0.549510	0.511490	0.604640
N121	N12	0.608770	0.591060	0.011630
N131	N13	0.433210	0.945710	0.973560
N141	N14	0.050520	0.508390	0.449670
N151	N15	0.406850	0.944870	0.895360
N161	N16	0.079430	0.597140	0.488370
N171	N17	0.026440	0.472150	0.959650
N181	N18	0.550330	0.558720	0.100850
N191	N19	0.104640	0.549510	0.011490
N201	N20	0.511630	0.608770	0.091060
N211	N21	0.473560	0.433210	0.445710
N221	N22	0.949670	0.050520	0.008390
N231	N23	0.395360	0.406850	0.444870
N241	N24	0.988370	0.079430	0.097140
N251	N25	0.012500	0.066790	0.540350
N261	N26	0.957870	0.449480	0.399150
N271	N27	0.038020	0.093150	0.488510
N281	N28	0.017710	0.420570	0.408940
N291	N29	0.487500	0.027850	0.054290
N301	N30	0.542130	0.941280	0.491610
N311	N31	0.461980	0.950490	0.055130
N321	N32	0.482290	0.891230	0.402860
N331	N33	0.554290	0.487500	0.527850
N341	N34	0.991610	0.542130	0.441280
N351	N35	0.555130	0.461980	0.450490
N361	N36	0.902860	0.482290	0.391230
N371	N37	0.040350	0.012500	0.566790
N381	N38	0.899150	0.957870	0.949480
N391	N39	0.988510	0.038020	0.593150
N401	N40	0.908940	0.017710	0.920570
N411	N41	0.945710	0.473560	0.933210
N421	N42	0.508390	0.949670	0.550520
N431	N43	0.944870	0.395360	0.906850
N441	N44	0.597140	0.988370	0.579430
N451	N45	0.459650	0.026440	0.972150
N461	N46	0.600850	0.550330	0.058720
N471	N47	0.511490	0.104640	0.049510
N481	N48	0.591060	0.511630	0.108770
N491	N49	0.459650	0.433210	0.987500
N501	N50	0.600850	0.050520	0.042130
N511	N51	0.511490	0.406850	0.961980
N521	N52	0.591060	0.079430	0.982290
N531	N53	0.945710	0.472150	0.512500
N541	N54	0.508390	0.558720	0.457870
N551	N55	0.944870	0.549510	0.538020
N561	N56	0.597140	0.608770	0.517710
N571	N57	0.040350	0.027850	0.973560
N581	N58	0.899150	0.941280	0.449670
N591	N59	0.988510	0.950490	0.895360
N601	N60	0.908940	0.891230	0.488370
N611	N61	0.554290	0.066790	0.526440
N621	N62	0.991610	0.449480	0.050330
N631	N63	0.555130	0.093150	0.604640
N641	N64	0.902860	0.420570	0.011630
N651	N65	0.027850	0.473560	0.540350
N661	N66	0.941280	0.949670	0.399150
N671	N67	0.950490	0.395360	0.488510
N681	N68	0.891230	0.988370	0.408940
N691	N69	0.066790	0.026440	0.054290
N701	N70	0.449480	0.550330	0.491610
N711	N71	0.093150	0.104640	0.055130
N721	N72	0.420570	0.511630	0.402860
N731	N73	0.433210	0.487500	0.959650
N741	N74	0.050520	0.542130	0.100850
N751	N75	0.406850	0.461980	0.011490
N761	N76	0.079430	0.482290	0.091060
N771	N77	0.472150	0.012500	0.445710
N781	N78	0.558720	0.957870	0.008390
N791	N79	0.549510	0.038020	0.444870
N801	N80	0.608770	0.017710	0.097140
N811	N81	0.012500	0.945710	0.972150
N821	N82	0.957870	0.508390	0.058720
N831	N83	0.038020	0.944870	0.049510
N841	N84	0.017710	0.597140	0.108770
N851	N85	0.487500	0.459650	0.933210
N861	N86	0.542130	0.600850	0.550520
N871	N87	0.461980	0.511490	0.906850
N881	N88	0.482290	0.591060	0.579430
N891	N89	0.026440	0.554290	0.566790
N901	N90	0.550330	0.991610	0.949480
N911	N91	0.104640	0.555130	0.593150
N921	N92	0.511630	0.902860	0.920570
N931	N93	0.473560	0.040350	0.527850
N941	N94	0.949670	0.899150	0.441280
N951	N95	0.395360	0.988510	0.450490
N961	N96	0.988370	0.908940	0.391230
O11	O1	0.183270	0.860410	0.593520
O21	O2	0.991140	0.798970	0.552890
O31	O3	0.283790	0.870010	0.567780
O41	O4	0.208010	0.813850	0.495320
O51	O5	0.278840	0.780520	0.323540
O61	O6	0.229840	0.940630	0.606930
O71	O7	0.209080	0.781570	0.323270
O81	O8	0.986270	0.871170	0.591100
O91	O9	0.766890	0.589750	0.906480
O101	O10	0.746080	0.438250	0.947110
O111	O11	0.802230	0.716010	0.932220
O121	O12	0.818530	0.712690	0.004680
O131	O13	0.956980	0.955300	0.176460
O141	O14	0.833700	0.622910	0.893070
O151	O15	0.958300	0.885810	0.176730
O161	O16	0.780070	0.395170	0.908900
O171	O17	0.733110	0.639590	0.822860
O181	O18	0.753920	0.701030	0.692170
O191	O19	0.697770	0.629990	0.913780
O201	O20	0.681470	0.686150	0.894160
O211	O21	0.543020	0.719480	0.998320
O221	O22	0.666300	0.559370	0.789210
O231	O23	0.541700	0.718430	0.927510
O241	O24	0.719930	0.628830	0.615100
O251	O25	0.316730	0.910250	0.677140
O261	O26	0.508860	0.061750	0.807830
O271	O27	0.216210	0.783990	0.586220
O281	O28	0.291990	0.787310	0.605840
O291	O29	0.221160	0.544700	0.501680
O301	O30	0.270160	0.877090	0.710790
O311	O31	0.290920	0.614190	0.572490
O321	O32	0.513730	0.104830	0.884900
O331	O33	0.322860	0.733110	0.139590
O341	O34	0.192170	0.753920	0.201030
O351	O35	0.413780	0.697770	0.129990
O361	O36	0.394160	0.681470	0.186150
O371	O37	0.498320	0.543020	0.219480
O381	O38	0.289210	0.666300	0.059370
O391	O39	0.427510	0.541700	0.218430
O401	O40	0.115100	0.719930	0.128830
O411	O41	0.177140	0.316730	0.410250
O421	O42	0.307830	0.508860	0.561750
O431	O43	0.086220	0.216210	0.283990
O441	O44	0.105840	0.291990	0.287310
O451	O45	0.001680	0.221160	0.044700
O461	O46	0.210790	0.270160	0.377090
O471	O47	0.072490	0.290920	0.114190
O481	O48	0.384900	0.513730	0.604830
O491	O49	0.093520	0.183270	0.360410
O501	O50	0.052890	0.991140	0.298970
O511	O51	0.067780	0.283790	0.370010
O521	O52	0.995320	0.208010	0.313850
O531	O53	0.823540	0.278840	0.280520
O541	O54	0.106930	0.229840	0.440630
O551	O55	0.823270	0.209080	0.281570
O561	O56	0.091100	0.986270	0.371170
O571	O57	0.406480	0.766890	0.089750
O581	O58	0.447110	0.746080	0.938250
O591	O59	0.432220	0.802230	0.216010
O601	O60	0.504680	0.818530	0.212690
O611	O61	0.676460	0.956980	0.455300
O621	O62	0.393070	0.833700	0.122910
O631	O63	0.676730	0.958300	0.385810
O641	O64	0.408900	0.780070	0.895170
O651	O65	0.589750	0.406480	0.266890
O661	O66	0.438250	0.447110	0.246080
O671	O67	0.716010	0.432220	0.302230
O681	O68	0.712690	0.504680	0.318530
O691	O69	0.955300	0.676460	0.456980
O701	O70	0.622910	0.393070	0.333700
O711	O71	0.885810	0.676730	0.458300
O721	O72	0.395170	0.408900	0.280070
O731	O73	0.860410	0.093520	0.683270
O741	O74	0.798970	0.052890	0.491140
O751	O75	0.870010	0.067780	0.783790
O761	O76	0.813850	0.995320	0.708010
O771	O77	0.780520	0.823540	0.778840
O781	O78	0.940630	0.106930	0.729840
O791	O79	0.781570	0.823270	0.709080
O801	O80	0.871170	0.091100	0.486270
O811	O81	0.910250	0.177140	0.816730
O821	O82	0.061750	0.307830	0.008860
O831	O83	0.783990	0.086220	0.716210
O841	O84	0.787310	0.105840	0.791990
O851	O85	0.544700	0.001680	0.721160
O861	O86	0.877090	0.210790	0.770160
O871	O87	0.614190	0.072490	0.790920
O881	O88	0.104830	0.384900	0.013730
O891	O89	0.639590	0.322860	0.233110
O901	O90	0.701030	0.192170	0.253920
O911	O91	0.629990	0.413780	0.197770
O921	O92	0.686150	0.394160	0.181470
O931	O93	0.719480	0.498320	0.043020
O941	O94	0.559370	0.289210	0.166300
O951	O95	0.718430	0.427510	0.041700
O961	O96	0.628830	0.115100	0.219930
O971	O97	0.639590	0.316730	0.906480
O981	O98	0.701030	0.508860	0.947110
O991	O99	0.629990	0.216210	0.932220
O1001	O100	0.686150	0.291990	0.004680
O1011	O101	0.719480	0.221160	0.176460
O1021	O102	0.559370	0.270160	0.893070
O1031	O103	0.718430	0.290920	0.176730
O1041	O104	0.628830	0.513730	0.908900
O1051	O105	0.910250	0.733110	0.593520
O1061	O106	0.061750	0.753920	0.552890
O1071	O107	0.783990	0.697770	0.567780
O1081	O108	0.787310	0.681470	0.495320
O1091	O109	0.544700	0.543020	0.323540
O1101	O110	0.877090	0.666300	0.606930
O1111	O111	0.614190	0.541700	0.323270
O1121	O112	0.104830	0.719930	0.591100
O1131	O113	0.860410	0.766890	0.677140
O1141	O114	0.798970	0.746080	0.807830
O1151	O115	0.870010	0.802230	0.586220
O1161	O116	0.813850	0.818530	0.605840
O1171	O117	0.780520	0.956980	0.501680
O1181	O118	0.940630	0.833700	0.710790
O1191	O119	0.781570	0.958300	0.572490
O1201	O120	0.871170	0.780070	0.884900
O1211	O121	0.589750	0.183270	0.822860
O1221	O122	0.438250	0.991140	0.692170
O1231	O123	0.716010	0.283790	0.913780
O1241	O124	0.712690	0.208010	0.894160
O1251	O125	0.955300	0.278840	0.998320
O1261	O126	0.622910	0.229840	0.789210
O1271	O127	0.885810	0.209080	0.927510
O1281	O128	0.395170	0.986270	0.615100
O1291	O129	0.766890	0.177140	0.360410
O1301	O130	0.746080	0.307830	0.298970
O1311	O131	0.802230	0.086220	0.370010
O1321	O132	0.818530	0.105840	0.313850
O1331	O133	0.956980	0.001680	0.280520
O1341	O134	0.833700	0.210790	0.440630
O1351	O135	0.958300	0.072490	0.281570
O1361	O136	0.780070	0.384900	0.371170
O1371	O137	0.183270	0.322860	0.089750
O1381	O138	0.991140	0.192170	0.938250
O1391	O139	0.283790	0.413780	0.216010
O1401	O140	0.208010	0.394160	0.212690
O1411	O141	0.278840	0.498320	0.455300
O1421	O142	0.229840	0.289210	0.122910
O1431	O143	0.209080	0.427510	0.385810
O1441	O144	0.986270	0.115100	0.895170
O1451	O145	0.316730	0.406480	0.139590
O1461	O146	0.508860	0.447110	0.201030
O1471	O147	0.216210	0.432220	0.129990
O1481	O148	0.291990	0.504680	0.186150
O1491	O149	0.221160	0.676460	0.219480
O1501	O150	0.270160	0.393070	0.059370
O1511	O151	0.290920	0.676730	0.218430
O1521	O152	0.513730	0.408900	0.128830
O1531	O153	0.733110	0.093520	0.410250
O1541	O154	0.753920	0.052890	0.561750
O1551	O155	0.697770	0.067780	0.283990
O1561	O156	0.681470	0.995320	0.287310
O1571	O157	0.543020	0.823540	0.044700
O1581	O158	0.666300	0.106930	0.377090
O1591	O159	0.541700	0.823270	0.114190
O1601	O160	0.719930	0.091100	0.604830
O1611	O161	0.093520	0.910250	0.233110
O1621	O162	0.052890	0.061750	0.253920
O1631	O163	0.067780	0.783990	0.197770
O1641	O164	0.995320	0.787310	0.181470
O1651	O165	0.823540	0.544700	0.043020
O1661	O166	0.106930	0.877090	0.166300
O1671	O167	0.823270	0.614190	0.041700
O1681	O168	0.091100	0.104830	0.219930
O1691	O169	0.406480	0.639590	0.816730
O1701	O170	0.447110	0.701030	0.008860
O1711	O171	0.432220	0.629990	0.716210
O1721	O172	0.504680	0.686150	0.791990
O1731	O173	0.676460	0.719480	0.721160
O1741	O174	0.393070	0.559370	0.770160
O1751	O175	0.676730	0.718430	0.790920
O1761	O176	0.408900	0.628830	0.013730
O1771	O177	0.322860	0.589750	0.683270
O1781	O178	0.192170	0.438250	0.491140
O1791	O179	0.413780	0.716010	0.783790
O1801	O180	0.394160	0.712690	0.708010
O1811	O181	0.498320	0.955300	0.778840
O1821	O182	0.289210	0.622910	0.729840
O1831	O183	0.427510	0.885810	0.709080
O1841	O184	0.115100	0.395170	0.486270
O1851	O185	0.177140	0.860410	0.266890
O1861	O186	0.307830	0.798970	0.246080
O1871	O187	0.086220	0.870010	0.302230
O1881	O188	0.105840	0.813850	0.318530
O1891	O189	0.001680	0.780520	0.456980
O1901	O190	0.210790	0.940630	0.333700
O1911	O191	0.072490	0.781570	0.458300
O1921	O192	0.384900	0.871170	0.280070
