data_IDAGOL_clean_PM
_symmetry_space_group_name_H-M	'P1'
_cell_length_a	7.370700
_cell_length_b	14.422000
_cell_length_c	17.234000
_cell_angle_alpha	90.000000
_cell_angle_beta	90.000000
_cell_angle_gamma	91.646000
_symmetry_Int_Tables_number 1

loop_
_symmetry_equiv_pos_as_xyz
'x,y,z'

loop_
_atom_site_label
_atom_site_type_symbol
_atom_site_fract_x
_atom_site_fract_y
_atom_site_fract_z
Mn11	Mn1	0.341970	0.554610	0.670300
Mn21	Mn2	0.658030	0.945390	0.170300
Mn31	Mn3	0.658030	0.445390	0.329700
Mn41	Mn4	0.341970	0.054610	0.829700
Mo11	Mo1	0.832540	0.784170	0.792270
Mo21	Mo2	0.167460	0.715830	0.292270
Mo31	Mo3	0.167460	0.215830	0.207730
Mo41	Mo4	0.832540	0.284170	0.707730
H11	H1	0.892900	0.996800	0.720600
H21	H2	0.960300	0.082900	0.610400
H31	H3	0.971600	0.842500	0.488500
H41	H4	0.897300	0.762900	0.601700
H51	H5	0.370900	0.661500	0.830100
H61	H6	0.454500	0.647400	0.958900
H71	H7	0.380600	0.390500	0.799100
H81	H8	0.461300	0.367600	0.927500
H91	H9	0.107100	0.503200	0.220600
H101	H10	0.039700	0.417100	0.110400
H111	H11	0.028400	0.657500	0.988500
H121	H12	0.102700	0.737100	0.101700
H131	H13	0.629100	0.838500	0.330100
H141	H14	0.545500	0.852600	0.458900
H151	H15	0.619400	0.109500	0.299100
H161	H16	0.538700	0.132400	0.427500
H171	H17	0.107100	0.003200	0.279400
H181	H18	0.039700	0.917100	0.389600
H191	H19	0.028400	0.157500	0.511500
H201	H20	0.102700	0.237100	0.398300
H211	H21	0.629100	0.338500	0.169900
H221	H22	0.545500	0.352600	0.041100
H231	H23	0.619400	0.609500	0.200900
H241	H24	0.538700	0.632400	0.072500
H251	H25	0.892900	0.496800	0.779400
H261	H26	0.960300	0.582900	0.889600
H271	H27	0.971600	0.342500	0.011500
H281	H28	0.897300	0.262900	0.898300
H291	H29	0.370900	0.161500	0.669900
H301	H30	0.454500	0.147400	0.541100
H311	H31	0.380600	0.890500	0.700900
H321	H32	0.461300	0.867600	0.572500
C11	C1	0.908500	0.965070	0.672900
C21	C2	0.950000	0.017170	0.607050
C31	C3	0.976500	0.973200	0.535950
C41	C4	0.955700	0.875930	0.535430
C51	C5	0.911900	0.828510	0.603640
C61	C6	0.015600	0.690800	0.734750
C71	C7	0.669100	0.902330	0.820480
C81	C8	0.627200	0.721690	0.716420
C91	C9	0.060000	0.872260	0.827250
C101	C10	0.392500	0.601320	0.849870
C111	C11	0.441600	0.593560	0.927340
C121	C12	0.397600	0.443140	0.831720
C131	C13	0.445900	0.428790	0.908670
C141	C14	0.472100	0.505600	0.958720
C151	C15	0.091500	0.534930	0.172900
C161	C16	0.050000	0.482830	0.107050
C171	C17	0.023500	0.526800	0.035950
C181	C18	0.044300	0.624070	0.035430
C191	C19	0.088100	0.671490	0.103640
C201	C20	0.984400	0.809200	0.234750
C211	C21	0.330900	0.597670	0.320480
C221	C22	0.372800	0.778310	0.216420
C231	C23	0.940000	0.627740	0.327250
C241	C24	0.607500	0.898680	0.349870
C251	C25	0.558400	0.906440	0.427340
C261	C26	0.602400	0.056860	0.331720
C271	C27	0.554100	0.071210	0.408670
C281	C28	0.527900	0.994400	0.458720
C291	C29	0.091500	0.034930	0.327100
C301	C30	0.050000	0.982830	0.392950
C311	C31	0.023500	0.026800	0.464050
C321	C32	0.044300	0.124070	0.464570
C331	C33	0.088100	0.171490	0.396360
C341	C34	0.984400	0.309200	0.265250
C351	C35	0.330900	0.097670	0.179520
C361	C36	0.372800	0.278310	0.283580
C371	C37	0.940000	0.127740	0.172750
C381	C38	0.607500	0.398680	0.150130
C391	C39	0.558400	0.406440	0.072660
C401	C40	0.602400	0.556860	0.168280
C411	C41	0.554100	0.571210	0.091330
C421	C42	0.527900	0.494400	0.041280
C431	C43	0.908500	0.465070	0.827100
C441	C44	0.950000	0.517170	0.892950
C451	C45	0.976500	0.473200	0.964050
C461	C46	0.955700	0.375930	0.964570
C471	C47	0.911900	0.328510	0.896360
C481	C48	0.015600	0.190800	0.765250
C491	C49	0.669100	0.402330	0.679520
C501	C50	0.627200	0.221690	0.783580
C511	C51	0.060000	0.372260	0.672750
C521	C52	0.392500	0.101320	0.650130
C531	C53	0.441600	0.093560	0.572660
C541	C54	0.397600	0.943140	0.668280
C551	C55	0.445900	0.928790	0.591330
C561	C56	0.472100	0.005600	0.541280
N11	N1	0.889100	0.871560	0.672510
N21	N2	0.108800	0.639340	0.703850
N31	N3	0.175800	0.925060	0.842730
N41	N4	0.586000	0.965280	0.841010
N51	N5	0.523800	0.679710	0.678530
N61	N6	0.373600	0.528570	0.800870
N71	N7	0.110900	0.628440	0.172510
N81	N8	0.891200	0.860660	0.203850
N91	N9	0.824200	0.574940	0.342730
N101	N10	0.414000	0.534720	0.341010
N111	N11	0.476200	0.820290	0.178530
N121	N12	0.626400	0.971430	0.300870
N131	N13	0.110900	0.128440	0.327490
N141	N14	0.891200	0.360660	0.296150
N151	N15	0.824200	0.074940	0.157270
N161	N16	0.414000	0.034720	0.158990
N171	N17	0.476200	0.320290	0.321470
N181	N18	0.626400	0.471430	0.199130
N191	N19	0.889100	0.371560	0.827490
N201	N20	0.108800	0.139340	0.796150
N211	N21	0.175800	0.425060	0.657270
N221	N22	0.586000	0.465280	0.658990
N231	N23	0.523800	0.179710	0.821470
N241	N24	0.373600	0.028570	0.699130
