data_IDAGUR_clean_PM
_symmetry_space_group_name_H-M	'P1'
_cell_length_a	7.362000
_cell_length_b	13.908000
_cell_length_c	18.015000
_cell_angle_alpha	90.000000
_cell_angle_beta	90.000000
_cell_angle_gamma	90.520000
_symmetry_Int_Tables_number 1

loop_
_symmetry_equiv_pos_as_xyz
'x,y,z'

loop_
_atom_site_label
_atom_site_type_symbol
_atom_site_fract_x
_atom_site_fract_y
_atom_site_fract_z
Mn11	Mn1	0.101030	0.920000	0.685910
Mn21	Mn2	0.605710	0.187510	0.708290
Mn31	Mn3	0.898970	0.580000	0.185910
Mn41	Mn4	0.394290	0.312490	0.208290
Mn51	Mn5	0.898970	0.080000	0.314090
Mn61	Mn6	0.394290	0.812490	0.291710
Mn71	Mn7	0.101030	0.420000	0.814090
Mn81	Mn8	0.605710	0.687510	0.791710
H11	H1	0.581600	0.728400	0.614300
H21	H2	0.577900	0.478100	0.710700
H31	H3	0.527000	0.661900	0.502100
H41	H4	0.525500	0.403100	0.599800
H51	H5	0.084500	0.822200	0.842300
H61	H6	0.080200	0.096600	0.801800
H71	H7	0.029100	0.844800	0.963800
H81	H8	0.025200	0.128700	0.924300
H91	H9	0.418400	0.771600	0.114300
H101	H10	0.422100	0.021900	0.210700
H111	H11	0.473000	0.838100	0.002100
H121	H12	0.474500	0.096900	0.099800
H131	H13	0.915500	0.677800	0.342300
H141	H14	0.919800	0.403400	0.301800
H151	H15	0.970900	0.655200	0.463800
H161	H16	0.974800	0.371300	0.424300
H171	H17	0.418400	0.271600	0.385700
H181	H18	0.422100	0.521900	0.289300
H191	H19	0.473000	0.338100	0.497900
H201	H20	0.474500	0.596900	0.400200
H211	H21	0.915500	0.177800	0.157700
H221	H22	0.919800	0.903400	0.198200
H231	H23	0.970900	0.155200	0.036200
H241	H24	0.974800	0.871300	0.075700
H251	H25	0.581600	0.228400	0.885700
H261	H26	0.577900	0.978100	0.789300
H271	H27	0.527000	0.161900	0.997900
H281	H28	0.525500	0.903100	0.900200
H291	H29	0.084500	0.322200	0.657700
H301	H30	0.080200	0.596600	0.698200
H311	H31	0.029100	0.344800	0.536200
H321	H32	0.025200	0.628700	0.575700
C11	C1	0.779600	0.084300	0.683100
C21	C2	0.406300	0.097300	0.682900
C31	C3	0.425900	0.774700	0.745700
C41	C4	0.797800	0.760100	0.737400
C51	C5	0.567900	0.661900	0.611500
C61	C6	0.566400	0.515700	0.668300
C71	C7	0.536400	0.622500	0.543600
C81	C8	0.535200	0.469700	0.601300
C91	C9	0.518100	0.522600	0.536100
C101	C10	0.069200	0.884900	0.858900
C111	C11	0.067200	0.045400	0.834600
C121	C12	0.037600	0.897600	0.932200
C131	C13	0.035200	0.065200	0.908800
C141	C14	0.017800	0.991000	0.960400
C151	C15	0.220400	0.415700	0.183100
C161	C16	0.593700	0.402700	0.182900
C171	C17	0.574100	0.725300	0.245700
C181	C18	0.202200	0.739900	0.237400
C191	C19	0.432100	0.838100	0.111500
C201	C20	0.433600	0.984300	0.168300
C211	C21	0.463600	0.877500	0.043600
C221	C22	0.464800	0.030300	0.101300
C231	C23	0.481900	0.977400	0.036100
C241	C24	0.930800	0.615100	0.358900
C251	C25	0.932800	0.454600	0.334600
C261	C26	0.962400	0.602400	0.432200
C271	C27	0.964800	0.434800	0.408800
C281	C28	0.982200	0.509000	0.460400
C291	C29	0.220400	0.915700	0.316900
C301	C30	0.593700	0.902700	0.317100
C311	C31	0.574100	0.225300	0.254300
C321	C32	0.202200	0.239900	0.262600
C331	C33	0.432100	0.338100	0.388500
C341	C34	0.433600	0.484300	0.331700
C351	C35	0.463600	0.377500	0.456400
C361	C36	0.464800	0.530300	0.398700
C371	C37	0.481900	0.477400	0.463900
C381	C38	0.930800	0.115100	0.141100
C391	C39	0.932800	0.954600	0.165400
C401	C40	0.962400	0.102400	0.067800
C411	C41	0.964800	0.934800	0.091200
C421	C42	0.982200	0.009000	0.039600
C431	C43	0.779600	0.584300	0.816900
C441	C44	0.406300	0.597300	0.817100
C451	C45	0.425900	0.274700	0.754300
C461	C46	0.797800	0.260100	0.762600
C471	C47	0.567900	0.161900	0.888500
C481	C48	0.566400	0.015700	0.831700
C491	C49	0.536400	0.122500	0.956400
C501	C50	0.535200	0.969700	0.898700
C511	C51	0.518100	0.022600	0.963900
C521	C52	0.069200	0.384900	0.641100
C531	C53	0.067200	0.545400	0.665400
C541	C54	0.037600	0.397600	0.567800
C551	C55	0.035200	0.565200	0.591200
C561	C56	0.017800	0.491000	0.539600
N11	N1	0.621800	0.239000	0.634100
N21	N2	0.580800	0.611100	0.675500
N31	N3	0.080300	0.955800	0.807900
N41	N4	0.325100	0.825200	0.718400
N51	N5	0.295200	0.041800	0.669400
N61	N6	0.877200	0.023700	0.667600
N71	N7	0.902700	0.804400	0.704500
N81	N8	0.378200	0.261000	0.134100
N91	N9	0.419200	0.888900	0.175500
N101	N10	0.919700	0.544200	0.307900
N111	N11	0.674900	0.674800	0.218400
N121	N12	0.704800	0.458200	0.169400
N131	N13	0.122800	0.476300	0.167600
N141	N14	0.097300	0.695600	0.204500
N151	N15	0.378200	0.761000	0.365900
N161	N16	0.419200	0.388900	0.324500
N171	N17	0.919700	0.044200	0.192100
N181	N18	0.674900	0.174800	0.281600
N191	N19	0.704800	0.958200	0.330600
N201	N20	0.122800	0.976300	0.332400
N211	N21	0.097300	0.195600	0.295500
N221	N22	0.621800	0.739000	0.865900
N231	N23	0.580800	0.111100	0.824500
N241	N24	0.080300	0.455800	0.692100
N251	N25	0.325100	0.325200	0.781600
N261	N26	0.295200	0.541800	0.830600
N271	N27	0.877200	0.523700	0.832400
N281	N28	0.902700	0.304400	0.795500
