data_IDEYOF_clean_PM
_symmetry_space_group_name_H-M	'P1'
_cell_length_a	15.190200
_cell_length_b	16.816800
_cell_length_c	22.680000
_cell_angle_alpha	90.000000
_cell_angle_beta	97.214000
_cell_angle_gamma	90.000000
_symmetry_Int_Tables_number 1

loop_
_symmetry_equiv_pos_as_xyz
'x,y,z'

loop_
_atom_site_label
_atom_site_type_symbol
_atom_site_fract_x
_atom_site_fract_y
_atom_site_fract_z
N11	N1	0.001140	0.004480	0.093680
N21	N2	0.102630	0.086740	0.008160
C11	C1	0.933400	0.034800	0.118690
H11	H1	0.885900	0.056500	0.094040
C21	C2	0.930300	0.035400	0.179330
H21	H2	0.880900	0.055900	0.194520
C31	C3	0.000700	0.005610	0.217300
C41	C4	0.072600	0.976800	0.191650
H31	H3	0.122400	0.957600	0.215460
C51	C5	0.069700	0.976800	0.130520
H41	H4	0.118200	0.956300	0.114170
C61	C6	0.183500	0.077060	0.991670
H51	H5	0.200700	0.026040	0.982160
C71	C7	0.242800	0.138400	0.988000
H61	H6	0.297800	0.128400	0.975500
C81	C8	0.220080	0.215480	0.003050
C91	C9	0.139100	0.224210	0.024140
H71	H7	0.122200	0.273710	0.037140
C101	C10	0.083400	0.159950	0.025970
H81	H8	0.029400	0.167800	0.040400
N31	N3	0.501140	0.504480	0.093680
N41	N4	0.602630	0.586740	0.008160
C111	C11	0.433400	0.534800	0.118690
H91	H9	0.385900	0.556500	0.094040
C121	C12	0.430300	0.535400	0.179330
H101	H10	0.380900	0.555900	0.194520
C131	C13	0.500700	0.505610	0.217300
C141	C14	0.572600	0.476800	0.191650
H111	H11	0.622400	0.457600	0.215460
C151	C15	0.569700	0.476800	0.130520
H121	H12	0.618200	0.456300	0.114170
C161	C16	0.683500	0.577060	0.991670
H131	H13	0.700700	0.526040	0.982160
C171	C17	0.742800	0.638400	0.988000
H141	H14	0.797800	0.628400	0.975500
C181	C18	0.720080	0.715480	0.003050
C191	C19	0.639100	0.724210	0.024140
H151	H15	0.622200	0.773710	0.037140
C201	C20	0.583400	0.659950	0.025970
H161	H16	0.529400	0.667800	0.040400
N51	N5	0.998860	0.004480	0.406320
N61	N6	0.897370	0.086740	0.491840
C211	C21	0.066600	0.034800	0.381310
H171	H17	0.114100	0.056500	0.405960
C221	C22	0.069700	0.035400	0.320670
H181	H18	0.119100	0.055900	0.305480
C231	C23	0.999300	0.005610	0.282700
C241	C24	0.927400	0.976800	0.308350
H191	H19	0.877600	0.957600	0.284540
C251	C25	0.930300	0.976800	0.369480
H201	H20	0.881800	0.956300	0.385830
C261	C26	0.816500	0.077060	0.508330
H211	H21	0.799300	0.026040	0.517840
C271	C27	0.757200	0.138400	0.512000
H221	H22	0.702200	0.128400	0.524500
C281	C28	0.779920	0.215480	0.496950
C291	C29	0.860900	0.224210	0.475860
H231	H23	0.877800	0.273710	0.462860
C301	C30	0.916600	0.159950	0.474030
H241	H24	0.970600	0.167800	0.459600
N71	N7	0.498860	0.504480	0.406320
N81	N8	0.397370	0.586740	0.491840
C311	C31	0.566600	0.534800	0.381310
H251	H25	0.614100	0.556500	0.405960
C321	C32	0.569700	0.535400	0.320670
H261	H26	0.619100	0.555900	0.305480
C331	C33	0.499300	0.505610	0.282700
C341	C34	0.427400	0.476800	0.308350
H271	H27	0.377600	0.457600	0.284540
C351	C35	0.430300	0.476800	0.369480
H281	H28	0.381800	0.456300	0.385830
C361	C36	0.316500	0.577060	0.508330
H291	H29	0.299300	0.526040	0.517840
C371	C37	0.257200	0.638400	0.512000
H301	H30	0.202200	0.628400	0.524500
C381	C38	0.279920	0.715480	0.496950
C391	C39	0.360900	0.724210	0.475860
H311	H31	0.377800	0.773710	0.462860
C401	C40	0.416600	0.659950	0.474030
H321	H32	0.470600	0.667800	0.459600
N91	N9	0.998860	0.995520	0.906320
N101	N10	0.897370	0.913260	0.991840
C411	C41	0.066600	0.965200	0.881310
H331	H33	0.114100	0.943500	0.905960
C421	C42	0.069700	0.964600	0.820670
H341	H34	0.119100	0.944100	0.805480
C431	C43	0.999300	0.994390	0.782700
C441	C44	0.927400	0.023200	0.808350
H351	H35	0.877600	0.042400	0.784540
C451	C45	0.930300	0.023200	0.869480
H361	H36	0.881800	0.043700	0.885830
C461	C46	0.816500	0.922940	0.008330
H371	H37	0.799300	0.973960	0.017840
C471	C47	0.757200	0.861600	0.012000
H381	H38	0.702200	0.871600	0.024500
C481	C48	0.779920	0.784520	0.996950
C491	C49	0.860900	0.775790	0.975860
H391	H39	0.877800	0.726290	0.962860
C501	C50	0.916600	0.840050	0.974030
H401	H40	0.970600	0.832200	0.959600
N111	N11	0.498860	0.495520	0.906320
N121	N12	0.397370	0.413260	0.991840
C511	C51	0.566600	0.465200	0.881310
H411	H41	0.614100	0.443500	0.905960
C521	C52	0.569700	0.464600	0.820670
H421	H42	0.619100	0.444100	0.805480
C531	C53	0.499300	0.494390	0.782700
C541	C54	0.427400	0.523200	0.808350
H431	H43	0.377600	0.542400	0.784540
C551	C55	0.430300	0.523200	0.869480
H441	H44	0.381800	0.543700	0.885830
C561	C56	0.316500	0.422940	0.008330
H451	H45	0.299300	0.473960	0.017840
C571	C57	0.257200	0.361600	0.012000
H461	H46	0.202200	0.371600	0.024500
C581	C58	0.279920	0.284520	0.996950
C591	C59	0.360900	0.275790	0.975860
H471	H47	0.377800	0.226290	0.962860
C601	C60	0.416600	0.340050	0.974030
H481	H48	0.470600	0.332200	0.959600
N131	N13	0.001140	0.995520	0.593680
N141	N14	0.102630	0.913260	0.508160
C611	C61	0.933400	0.965200	0.618690
H491	H49	0.885900	0.943500	0.594040
C621	C62	0.930300	0.964600	0.679330
H501	H50	0.880900	0.944100	0.694520
C631	C63	0.000700	0.994390	0.717300
C641	C64	0.072600	0.023200	0.691650
H511	H51	0.122400	0.042400	0.715460
C651	C65	0.069700	0.023200	0.630520
H521	H52	0.118200	0.043700	0.614170
C661	C66	0.183500	0.922940	0.491670
H531	H53	0.200700	0.973960	0.482160
C671	C67	0.242800	0.861600	0.488000
H541	H54	0.297800	0.871600	0.475500
C681	C68	0.220080	0.784520	0.503050
C691	C69	0.139100	0.775790	0.524140
H551	H55	0.122200	0.726290	0.537140
C701	C70	0.083400	0.840050	0.525970
H561	H56	0.029400	0.832200	0.540400
N151	N15	0.501140	0.495520	0.593680
N161	N16	0.602630	0.413260	0.508160
C711	C71	0.433400	0.465200	0.618690
H571	H57	0.385900	0.443500	0.594040
C721	C72	0.430300	0.464600	0.679330
H581	H58	0.380900	0.444100	0.694520
C731	C73	0.500700	0.494390	0.717300
C741	C74	0.572600	0.523200	0.691650
H591	H59	0.622400	0.542400	0.715460
C751	C75	0.569700	0.523200	0.630520
H601	H60	0.618200	0.543700	0.614170
C761	C76	0.683500	0.422940	0.491670
H611	H61	0.700700	0.473960	0.482160
C771	C77	0.742800	0.361600	0.488000
H621	H62	0.797800	0.371600	0.475500
C781	C78	0.720080	0.284520	0.503050
C791	C79	0.639100	0.275790	0.524140
H631	H63	0.622200	0.226290	0.537140
C801	C80	0.583400	0.340050	0.525970
H641	H64	0.529400	0.332200	0.540400
Ni11	Ni1	0.000000	0.000000	0.000000
Ni21	Ni2	0.500000	0.500000	0.000000
Ni31	Ni3	0.000000	0.000000	0.500000
Ni41	Ni4	0.500000	0.500000	0.500000
