data_IDUDES_clean_PM
_symmetry_space_group_name_H-M	'P1'
_cell_length_a	10.538500
_cell_length_b	10.776800
_cell_length_c	14.769400
_cell_angle_alpha	90.000000
_cell_angle_beta	108.720000
_cell_angle_gamma	90.000000
_symmetry_Int_Tables_number 1

loop_
_symmetry_equiv_pos_as_xyz
'x,y,z'

loop_
_atom_site_label
_atom_site_type_symbol
_atom_site_fract_x
_atom_site_fract_y
_atom_site_fract_z
Cu11	Cu1	0.093490	0.085950	0.011140
Cu21	Cu2	0.906510	0.585950	0.488860
Cu31	Cu3	0.906510	0.914050	0.988860
Cu41	Cu4	0.093490	0.414050	0.511140
H11	H1	0.053300	0.725300	0.774000
H21	H2	0.575600	0.469900	0.932900
H31	H3	0.392300	0.551000	0.778900
H41	H4	0.397500	0.801000	0.981500
H51	H5	0.930500	0.636100	0.038800
H61	H6	0.609700	0.839000	0.939600
H71	H7	0.805800	0.458100	0.005900
H81	H8	0.946700	0.225300	0.726000
H91	H9	0.424400	0.969900	0.567100
H101	H10	0.607700	0.051000	0.721100
H111	H11	0.602500	0.301000	0.518500
H121	H12	0.069500	0.136100	0.461200
H131	H13	0.390300	0.339000	0.560400
H141	H14	0.194200	0.958100	0.494100
H151	H15	0.946700	0.274700	0.226000
H161	H16	0.424400	0.530100	0.067100
H171	H17	0.607700	0.449000	0.221100
H181	H18	0.602500	0.199000	0.018500
H191	H19	0.069500	0.363900	0.961200
H201	H20	0.390300	0.161000	0.060400
H211	H21	0.194200	0.541900	0.994100
H221	H22	0.053300	0.774700	0.274000
H231	H23	0.575600	0.030100	0.432900
H241	H24	0.392300	0.949000	0.278900
H251	H25	0.397500	0.699000	0.481500
H261	H26	0.930500	0.863900	0.538800
H271	H27	0.609700	0.661000	0.439600
H281	H28	0.805800	0.041900	0.505900
C11	C1	0.138200	0.859800	0.930080
C21	C2	0.566400	0.658100	0.930410
C31	C3	0.138000	0.572770	0.666160
C41	C4	0.418200	0.674100	0.885910
C51	C5	0.144800	0.712400	0.802170
C61	C6	0.212900	0.774240	0.885550
C71	C7	0.626900	0.541800	0.948720
C81	C8	0.348100	0.609350	0.804280
C91	C9	0.350700	0.757070	0.926740
C101	C10	0.211700	0.630900	0.759610
C111	C11	0.838200	0.641900	0.010110
C121	C12	0.649100	0.760900	0.951840
C131	C13	0.764000	0.534900	0.990800
C141	C14	0.861800	0.359800	0.569920
C151	C15	0.433600	0.158100	0.569590
C161	C16	0.862000	0.072770	0.833840
C171	C17	0.581800	0.174100	0.614090
C181	C18	0.855200	0.212400	0.697830
C191	C19	0.787100	0.274240	0.614450
C201	C20	0.373100	0.041800	0.551280
C211	C21	0.651900	0.109350	0.695720
C221	C22	0.649300	0.257070	0.573260
C231	C23	0.788300	0.130900	0.740390
C241	C24	0.161800	0.141900	0.489890
C251	C25	0.350900	0.260900	0.548160
C261	C26	0.236000	0.034900	0.509200
C271	C27	0.861800	0.140200	0.069920
C281	C28	0.433600	0.341900	0.069590
C291	C29	0.862000	0.427230	0.333840
C301	C30	0.581800	0.325900	0.114090
C311	C31	0.855200	0.287600	0.197830
C321	C32	0.787100	0.225760	0.114450
C331	C33	0.373100	0.458200	0.051280
C341	C34	0.651900	0.390650	0.195720
C351	C35	0.649300	0.242930	0.073260
C361	C36	0.788300	0.369100	0.240390
C371	C37	0.161800	0.358100	0.989890
C381	C38	0.350900	0.239100	0.048160
C391	C39	0.236000	0.465100	0.009200
C401	C40	0.138200	0.640200	0.430080
C411	C41	0.566400	0.841900	0.430410
C421	C42	0.138000	0.927230	0.166160
C431	C43	0.418200	0.825900	0.385910
C441	C44	0.144800	0.787600	0.302170
C451	C45	0.212900	0.725760	0.385550
C461	C46	0.626900	0.958200	0.448720
C471	C47	0.348100	0.890650	0.304280
C481	C48	0.350700	0.742930	0.426740
C491	C49	0.211700	0.869100	0.259610
C501	C50	0.838200	0.858100	0.510110
C511	C51	0.649100	0.739100	0.451840
C521	C52	0.764000	0.965100	0.490800
N11	N1	0.782720	0.754480	0.989220
N21	N2	0.217280	0.254480	0.510780
N31	N3	0.217280	0.245520	0.010780
N41	N4	0.782720	0.745520	0.489220
O11	O1	0.191490	0.962430	0.960890
O21	O2	0.025680	0.822020	0.932270
O31	O3	0.190100	0.479910	0.639110
O41	O4	0.028010	0.621810	0.619230
O51	O5	0.808510	0.462430	0.539110
O61	O6	0.974320	0.322020	0.567730
O71	O7	0.809900	0.979910	0.860890
O81	O8	0.971990	0.121810	0.880770
O91	O9	0.808510	0.037570	0.039110
O101	O10	0.974320	0.177980	0.067730
O111	O11	0.809900	0.520090	0.360890
O121	O12	0.971990	0.378190	0.380770
O131	O13	0.191490	0.537570	0.460890
O141	O14	0.025680	0.677980	0.432270
O151	O15	0.190100	0.020090	0.139110
O161	O16	0.028010	0.878190	0.119230
