data_IDUDIW_clean_PM
_symmetry_space_group_name_H-M	'P1'
_cell_length_a	10.908000
_cell_length_b	12.434000
_cell_length_c	14.354000
_cell_angle_alpha	90.000000
_cell_angle_beta	107.495000
_cell_angle_gamma	90.000000
_symmetry_Int_Tables_number 1

loop_
_symmetry_equiv_pos_as_xyz
'x,y,z'

loop_
_atom_site_label
_atom_site_type_symbol
_atom_site_fract_x
_atom_site_fract_y
_atom_site_fract_z
Cu11	Cu1	0.901140	0.932810	0.975220
Cu21	Cu2	0.098860	0.432810	0.524780
Cu31	Cu3	0.098860	0.067190	0.024780
Cu41	Cu4	0.901140	0.567190	0.475220
H11	H1	0.883900	0.799100	0.449100
H21	H2	0.528400	0.917400	0.347900
H31	H3	0.582700	0.600200	0.401800
H41	H4	0.361200	0.859400	0.227900
H51	H5	0.030100	0.737500	0.250800
H61	H6	0.369700	0.627800	0.425700
H71	H7	0.116100	0.299100	0.050900
H81	H8	0.471600	0.417400	0.152100
H91	H9	0.417300	0.100200	0.098200
H101	H10	0.638800	0.359400	0.272100
H111	H11	0.969900	0.237500	0.249200
H121	H12	0.630300	0.127800	0.074300
H131	H13	0.116100	0.200900	0.550900
H141	H14	0.471600	0.082600	0.652100
H151	H15	0.417300	0.399800	0.598200
H161	H16	0.638800	0.140600	0.772100
H171	H17	0.969900	0.262500	0.749200
H181	H18	0.630300	0.372200	0.574300
H191	H19	0.883900	0.700900	0.949100
H201	H20	0.528400	0.582600	0.847900
H211	H21	0.582700	0.899800	0.901800
H221	H22	0.361200	0.640600	0.727900
H231	H23	0.030100	0.762500	0.750800
H241	H24	0.369700	0.872200	0.925700
C11	C1	0.795500	0.788200	0.428800
C21	C2	0.583000	0.859000	0.368800
C31	C3	0.531000	0.756000	0.369700
C41	C4	0.615300	0.669200	0.400700
C51	C5	0.387600	0.744600	0.332700
C61	C6	0.318300	0.812400	0.257700
C71	C7	0.184300	0.809100	0.228000
C81	C8	0.119400	0.739100	0.271200
C91	C9	0.188400	0.670800	0.345500
C101	C10	0.323500	0.673500	0.376300
C111	C11	0.113800	0.880700	0.143900
C121	C12	0.119300	0.602700	0.399900
C131	C13	0.204500	0.288200	0.071200
C141	C14	0.417000	0.359000	0.131200
C151	C15	0.469000	0.256000	0.130300
C161	C16	0.384700	0.169200	0.099300
C171	C17	0.612400	0.244600	0.167300
C181	C18	0.681700	0.312400	0.242300
C191	C19	0.815700	0.309100	0.272000
C201	C20	0.880600	0.239100	0.228800
C211	C21	0.811600	0.170800	0.154500
C221	C22	0.676500	0.173500	0.123700
C231	C23	0.886200	0.380700	0.356100
C241	C24	0.880700	0.102700	0.100100
C251	C25	0.204500	0.211800	0.571200
C261	C26	0.417000	0.141000	0.631200
C271	C27	0.469000	0.244000	0.630300
C281	C28	0.384700	0.330800	0.599300
C291	C29	0.612400	0.255400	0.667300
C301	C30	0.681700	0.187600	0.742300
C311	C31	0.815700	0.190900	0.772000
C321	C32	0.880600	0.260900	0.728800
C331	C33	0.811600	0.329200	0.654500
C341	C34	0.676500	0.326500	0.623700
C351	C35	0.886200	0.119300	0.856100
C361	C36	0.880700	0.397300	0.600100
C371	C37	0.795500	0.711800	0.928800
C381	C38	0.583000	0.641000	0.868800
C391	C39	0.531000	0.744000	0.869700
C401	C40	0.615300	0.830800	0.900700
C411	C41	0.387600	0.755400	0.832700
C421	C42	0.318300	0.687600	0.757700
C431	C43	0.184300	0.690900	0.728000
C441	C44	0.119400	0.760900	0.771200
C451	C45	0.188400	0.829200	0.845500
C461	C46	0.323500	0.826500	0.876300
C471	C47	0.113800	0.619300	0.643900
C481	C48	0.119300	0.897300	0.899900
N11	N1	0.747100	0.685800	0.429700
N21	N2	0.714000	0.874600	0.398300
N31	N3	0.252900	0.185800	0.070300
N41	N4	0.286000	0.374600	0.101700
N51	N5	0.252900	0.314200	0.570300
N61	N6	0.286000	0.125400	0.601700
N71	N7	0.747100	0.814200	0.929700
N81	N8	0.714000	0.625400	0.898300
O11	O1	0.002900	0.849800	0.091750
O21	O2	0.169700	0.964300	0.132420
O31	O3	0.007600	0.634100	0.399210
O41	O4	0.175000	0.519100	0.441500
O51	O5	0.997100	0.349800	0.408250
O61	O6	0.830300	0.464300	0.367580
O71	O7	0.992400	0.134100	0.100790
O81	O8	0.825000	0.019100	0.058500
O91	O9	0.997100	0.150200	0.908250
O101	O10	0.830300	0.035700	0.867580
O111	O11	0.992400	0.365900	0.600790
O121	O12	0.825000	0.480900	0.558500
O131	O13	0.002900	0.650200	0.591750
O141	O14	0.169700	0.535700	0.632420
O151	O15	0.007600	0.865900	0.899210
O161	O16	0.175000	0.980900	0.941500
