data_IFAGON_clean_PM
_symmetry_space_group_name_H-M	'P1'
_cell_length_a	21.624000
_cell_length_b	21.624000
_cell_length_c	24.538800
_cell_angle_alpha	116.143000
_cell_angle_beta	116.143000
_cell_angle_gamma	90.000000
_symmetry_Int_Tables_number 1

loop_
_symmetry_equiv_pos_as_xyz
'x,y,z'

loop_
_atom_site_label
_atom_site_type_symbol
_atom_site_fract_x
_atom_site_fract_y
_atom_site_fract_z
Zn11	Zn1	0.886370	0.684600	0.826850
Zn21	Zn2	0.440480	0.142250	0.826850
Zn31	Zn3	0.684600	0.440480	0.326850
Zn41	Zn4	0.142250	0.886370	0.326850
Zn51	Zn5	0.059520	0.815400	0.173150
Zn61	Zn6	0.613630	0.357750	0.173150
Zn71	Zn7	0.357750	0.059520	0.673150
Zn81	Zn8	0.815400	0.613630	0.673150
Zn91	Zn9	0.113630	0.315400	0.173150
Zn101	Zn10	0.559520	0.857750	0.173150
Zn111	Zn11	0.315400	0.559520	0.673150
Zn121	Zn12	0.857750	0.113630	0.673150
Zn131	Zn13	0.940480	0.184600	0.826850
Zn141	Zn14	0.386370	0.642250	0.826850
Zn151	Zn15	0.642250	0.940480	0.326850
Zn161	Zn16	0.184600	0.386370	0.326850
H11	H1	0.962200	0.828100	0.956600
H21	H2	0.023400	0.787200	0.953600
H31	H3	0.850000	0.691500	0.936600
H41	H4	0.860000	0.771800	0.951400
H51	H5	0.009500	0.664900	0.932600
H61	H6	0.943000	0.628900	0.930400
H71	H7	0.989400	0.565200	0.655400
H81	H8	0.112000	0.704900	0.910200
H91	H9	0.089200	0.761100	0.883600
H101	H10	0.170700	0.757700	0.917600
H111	H11	0.213700	0.684600	0.846800
H121	H12	0.088900	0.540900	0.590600
H131	H13	0.114300	0.487000	0.619600
H141	H14	0.032400	0.488800	0.586400
H151	H15	0.494400	0.128500	0.956600
H161	H16	0.430200	0.166400	0.953600
H171	H17	0.586600	0.245100	0.936600
H181	H18	0.591400	0.179600	0.951400
H191	H19	0.423100	0.267700	0.932600
H201	H20	0.487400	0.301500	0.930400
H211	H21	0.166000	0.090200	0.655400
H221	H22	0.298200	0.205300	0.910200
H231	H23	0.294400	0.122500	0.883600
H241	H24	0.246900	0.159900	0.917600
H251	H25	0.133100	0.162200	0.846800
H261	H26	0.001700	0.049700	0.590600
H271	H27	0.005300	0.132600	0.619600
H281	H28	0.054000	0.097600	0.586400
H291	H29	0.828100	0.494400	0.456600
H301	H30	0.787200	0.430200	0.453600
H311	H31	0.691500	0.586600	0.436600
H321	H32	0.771800	0.591400	0.451400
H331	H33	0.664900	0.423100	0.432600
H341	H34	0.628900	0.487400	0.430400
H351	H35	0.565200	0.166000	0.155400
H361	H36	0.704900	0.298200	0.410200
H371	H37	0.761100	0.294400	0.383600
H381	H38	0.757700	0.246900	0.417600
H391	H39	0.684600	0.133100	0.346800
H401	H40	0.540900	0.001700	0.090600
H411	H41	0.487000	0.005300	0.119600
H421	H42	0.488800	0.054000	0.086400
H431	H43	0.128500	0.962200	0.456600
H441	H44	0.166400	0.023400	0.453600
H451	H45	0.245100	0.850000	0.436600
H461	H46	0.179600	0.860000	0.451400
H471	H47	0.267700	0.009500	0.432600
H481	H48	0.301500	0.943000	0.430400
H491	H49	0.090200	0.989400	0.155400
H501	H50	0.205300	0.112000	0.410200
H511	H51	0.122500	0.089200	0.383600
H521	H52	0.159900	0.170700	0.417600
H531	H53	0.162200	0.213700	0.346800
H541	H54	0.049700	0.088900	0.090600
H551	H55	0.132600	0.114300	0.119600
H561	H56	0.097600	0.032400	0.086400
H571	H57	0.005600	0.671900	0.043400
H581	H58	0.069800	0.712800	0.046400
H591	H59	0.913400	0.808500	0.063400
H601	H60	0.908600	0.728200	0.048600
H611	H61	0.076900	0.835100	0.067400
H621	H62	0.012600	0.871100	0.069600
H631	H63	0.334000	0.934800	0.344600
H641	H64	0.201800	0.795100	0.089800
H651	H65	0.205600	0.738900	0.116400
H661	H66	0.253100	0.742300	0.082400
H671	H67	0.366900	0.815400	0.153200
H681	H68	0.498300	0.959100	0.409400
H691	H69	0.494700	0.013000	0.380400
H701	H70	0.446000	0.011200	0.413600
H711	H71	0.537800	0.371500	0.043400
H721	H72	0.476600	0.333600	0.046400
H731	H73	0.650000	0.254900	0.063400
H741	H74	0.640000	0.320400	0.048600
H751	H75	0.490500	0.232300	0.067400
H761	H76	0.557000	0.198500	0.069600
H771	H77	0.510600	0.409800	0.344600
H781	H78	0.388000	0.294700	0.089800
H791	H79	0.410800	0.377500	0.116400
H801	H80	0.329300	0.340100	0.082400
H811	H81	0.286300	0.337800	0.153200
H821	H82	0.411100	0.450300	0.409400
H831	H83	0.385700	0.367400	0.380400
H841	H84	0.467600	0.402400	0.413600
H851	H85	0.371500	0.005600	0.543400
H861	H86	0.333600	0.069800	0.546400
H871	H87	0.254900	0.913400	0.563400
H881	H88	0.320400	0.908600	0.548600
H891	H89	0.232300	0.076900	0.567400
H901	H90	0.198500	0.012600	0.569600
H911	H91	0.409800	0.334000	0.844600
H921	H92	0.294700	0.201800	0.589800
H931	H93	0.377500	0.205600	0.616400
H941	H94	0.340100	0.253100	0.582400
H951	H95	0.337800	0.366900	0.653200
H961	H96	0.450300	0.498300	0.909400
H971	H97	0.367400	0.494700	0.880400
H981	H98	0.402400	0.446000	0.913600
H991	H99	0.671900	0.537800	0.543400
H1001	H100	0.712800	0.476600	0.546400
H1011	H101	0.808500	0.650000	0.563400
H1021	H102	0.728200	0.640000	0.548600
H1031	H103	0.835100	0.490500	0.567400
H1041	H104	0.871100	0.557000	0.569600
H1051	H105	0.934800	0.510600	0.844600
H1061	H106	0.795100	0.388000	0.589800
H1071	H107	0.738900	0.410800	0.616400
H1081	H108	0.742300	0.329300	0.582400
H1091	H109	0.815400	0.286300	0.653200
H1101	H110	0.959100	0.411100	0.909400
H1111	H111	0.013000	0.385700	0.880400
H1121	H112	0.011200	0.467600	0.913600
H1131	H113	0.037800	0.171900	0.043400
H1141	H114	0.976600	0.212800	0.046400
H1151	H115	0.150000	0.308500	0.063400
H1161	H116	0.140000	0.228200	0.048600
H1171	H117	0.990500	0.335100	0.067400
H1181	H118	0.057000	0.371100	0.069600
H1191	H119	0.010600	0.434800	0.344600
H1201	H120	0.888000	0.295100	0.089800
H1211	H121	0.910800	0.238900	0.116400
H1221	H122	0.829300	0.242300	0.082400
H1231	H123	0.786300	0.315400	0.153200
H1241	H124	0.911100	0.459100	0.409400
H1251	H125	0.885700	0.513000	0.380400
H1261	H126	0.967600	0.511200	0.413600
H1271	H127	0.505600	0.871500	0.043400
H1281	H128	0.569800	0.833600	0.046400
H1291	H129	0.413400	0.754900	0.063400
H1301	H130	0.408600	0.820400	0.048600
H1311	H131	0.576900	0.732300	0.067400
H1321	H132	0.512600	0.698500	0.069600
H1331	H133	0.834000	0.909800	0.344600
H1341	H134	0.701800	0.794700	0.089800
H1351	H135	0.705600	0.877500	0.116400
H1361	H136	0.753100	0.840100	0.082400
H1371	H137	0.866900	0.837800	0.153200
H1381	H138	0.998300	0.950300	0.409400
H1391	H139	0.994700	0.867400	0.380400
H1401	H140	0.946000	0.902400	0.413600
H1411	H141	0.171900	0.505600	0.543400
H1421	H142	0.212800	0.569800	0.546400
H1431	H143	0.308500	0.413400	0.563400
H1441	H144	0.228200	0.408600	0.548600
H1451	H145	0.335100	0.576900	0.567400
H1461	H146	0.371100	0.512600	0.569600
H1471	H147	0.434800	0.834000	0.844600
H1481	H148	0.295100	0.701800	0.589800
H1491	H149	0.238900	0.705600	0.616400
H1501	H150	0.242300	0.753100	0.582400
H1511	H151	0.315400	0.866900	0.653200
H1521	H152	0.459100	0.998300	0.909400
H1531	H153	0.513000	0.994700	0.880400
H1541	H154	0.511200	0.946000	0.913600
H1551	H155	0.871500	0.037800	0.543400
H1561	H156	0.833600	0.976600	0.546400
H1571	H157	0.754900	0.150000	0.563400
H1581	H158	0.820400	0.140000	0.548600
H1591	H159	0.732300	0.990500	0.567400
H1601	H160	0.698500	0.057000	0.569600
H1611	H161	0.909800	0.010600	0.844600
H1621	H162	0.794700	0.888000	0.589800
H1631	H163	0.877500	0.910800	0.616400
H1641	H164	0.840100	0.829300	0.582400
H1651	H165	0.837800	0.786300	0.653200
H1661	H166	0.950300	0.911100	0.909400
H1671	H167	0.867400	0.885700	0.880400
H1681	H168	0.902400	0.967600	0.913600
H1691	H169	0.994400	0.328100	0.956600
H1701	H170	0.930200	0.287200	0.953600
H1711	H171	0.086600	0.191500	0.936600
H1721	H172	0.091400	0.271800	0.951400
H1731	H173	0.923100	0.164900	0.932600
H1741	H174	0.987400	0.128900	0.930400
H1751	H175	0.666000	0.065200	0.655400
H1761	H176	0.798200	0.204900	0.910200
H1771	H177	0.794400	0.261100	0.883600
H1781	H178	0.746900	0.257700	0.917600
H1791	H179	0.633100	0.184600	0.846800
H1801	H180	0.501700	0.040900	0.590600
H1811	H181	0.505300	0.987000	0.619600
H1821	H182	0.554000	0.988800	0.586400
H1831	H183	0.462200	0.628500	0.956600
H1841	H184	0.523400	0.666400	0.953600
H1851	H185	0.350000	0.745100	0.936600
H1861	H186	0.360000	0.679600	0.951400
H1871	H187	0.509500	0.767700	0.932600
H1881	H188	0.443000	0.801500	0.930400
H1891	H189	0.489400	0.590200	0.655400
H1901	H190	0.612000	0.705300	0.910200
H1911	H191	0.589200	0.622500	0.883600
H1921	H192	0.670700	0.659900	0.917600
H1931	H193	0.713700	0.662200	0.846800
H1941	H194	0.588900	0.549700	0.590600
H1951	H195	0.614300	0.632600	0.619600
H1961	H196	0.532400	0.597600	0.586400
H1971	H197	0.628500	0.994400	0.456600
H1981	H198	0.666400	0.930200	0.453600
H1991	H199	0.745100	0.086600	0.436600
H2001	H200	0.679600	0.091400	0.451400
H2011	H201	0.767700	0.923100	0.432600
H2021	H202	0.801500	0.987400	0.430400
H2031	H203	0.590200	0.666000	0.155400
H2041	H204	0.705300	0.798200	0.410200
H2051	H205	0.622500	0.794400	0.383600
H2061	H206	0.659900	0.746900	0.417600
H2071	H207	0.662200	0.633100	0.346800
H2081	H208	0.549700	0.501700	0.090600
H2091	H209	0.632600	0.505300	0.119600
H2101	H210	0.597600	0.554000	0.086400
H2111	H211	0.328100	0.462200	0.456600
H2121	H212	0.287200	0.523400	0.453600
H2131	H213	0.191500	0.350000	0.436600
H2141	H214	0.271800	0.360000	0.451400
H2151	H215	0.164900	0.509500	0.432600
H2161	H216	0.128900	0.443000	0.430400
H2171	H217	0.065200	0.489400	0.155400
H2181	H218	0.204900	0.612000	0.410200
H2191	H219	0.261100	0.589200	0.383600
H2201	H220	0.257700	0.670700	0.417600
H2211	H221	0.184600	0.713700	0.346800
H2221	H222	0.040900	0.588900	0.090600
H2231	H223	0.987000	0.614300	0.119600
H2241	H224	0.988800	0.532400	0.086400
C11	C1	0.987580	0.794370	0.969260
C21	C2	0.885500	0.736590	0.960760
C31	C3	0.976430	0.674460	0.951620
C41	C4	0.973510	0.649340	0.759660
C51	C5	0.041630	0.639090	0.757740
C61	C6	0.035580	0.589390	0.694360
C71	C7	0.109590	0.675780	0.817260
C81	C8	0.121400	0.729590	0.888440
C91	C9	0.229990	0.600740	0.742560
C101	C10	0.161610	0.610470	0.744180
C111	C11	0.167540	0.660210	0.807900
C121	C12	0.094010	0.573350	0.685300
C131	C13	0.081310	0.517570	0.614180
C141	C14	0.481680	0.174890	0.969260
C151	C15	0.575260	0.224170	0.960760
C161	C16	0.475190	0.277160	0.951620
C171	C17	0.286150	0.110320	0.759660
C181	C18	0.216110	0.118650	0.757740
C191	C19	0.158780	0.104970	0.694360
C201	C20	0.207670	0.141480	0.817260
C211	C21	0.267040	0.158850	0.888440
C221	C22	0.012570	0.141820	0.742560
C231	C23	0.082570	0.133710	0.744180
C241	C24	0.140360	0.147690	0.807900
C251	C25	0.091290	0.111950	0.685300
C261	C26	0.032870	0.096610	0.614180
C271	C27	0.794370	0.481680	0.469260
C281	C28	0.736590	0.575260	0.460760
C291	C29	0.674460	0.475190	0.451620
C301	C30	0.649340	0.286150	0.259660
C311	C31	0.639090	0.216110	0.257740
C321	C32	0.589390	0.158780	0.194360
C331	C33	0.675780	0.207670	0.317260
C341	C34	0.729590	0.267040	0.388440
C351	C35	0.600740	0.012570	0.242560
C361	C36	0.610470	0.082570	0.244180
C371	C37	0.660210	0.140360	0.307900
C381	C38	0.573350	0.091290	0.185300
C391	C39	0.517570	0.032870	0.114180
C401	C40	0.174890	0.987580	0.469260
C411	C41	0.224170	0.885500	0.460760
C421	C42	0.277160	0.976430	0.451620
C431	C43	0.110320	0.973510	0.259660
C441	C44	0.118650	0.041630	0.257740
C451	C45	0.104970	0.035580	0.194360
C461	C46	0.141480	0.109590	0.317260
C471	C47	0.158850	0.121400	0.388440
C481	C48	0.141820	0.229990	0.242560
C491	C49	0.133710	0.161610	0.244180
C501	C50	0.147690	0.167540	0.307900
C511	C51	0.111950	0.094010	0.185300
C521	C52	0.096610	0.081310	0.114180
C531	C53	0.018320	0.705630	0.030740
C541	C54	0.924740	0.763410	0.039240
C551	C55	0.024810	0.825540	0.048380
C561	C56	0.213850	0.850660	0.240340
C571	C57	0.283890	0.860910	0.242260
C581	C58	0.341220	0.910610	0.305640
C591	C59	0.292330	0.824220	0.182740
C601	C60	0.232960	0.770410	0.111560
C611	C61	0.487430	0.899260	0.257440
C621	C62	0.417430	0.889530	0.255820
C631	C63	0.359640	0.839790	0.192100
C641	C64	0.408710	0.926650	0.314700
C651	C65	0.467130	0.982430	0.385820
C661	C66	0.512420	0.325110	0.030740
C671	C67	0.614500	0.275830	0.039240
C681	C68	0.523570	0.222840	0.048380
C691	C69	0.526490	0.389680	0.240340
C701	C70	0.458370	0.381350	0.242260
C711	C71	0.464420	0.395030	0.305640
C721	C72	0.390410	0.358520	0.182740
C731	C73	0.378600	0.341150	0.111560
C741	C74	0.270010	0.358180	0.257440
C751	C75	0.338390	0.366290	0.255820
C761	C76	0.332460	0.352310	0.192100
C771	C77	0.405990	0.388050	0.314700
C781	C78	0.418690	0.403390	0.385820
C791	C79	0.325110	0.018320	0.530740
C801	C80	0.275830	0.924740	0.539240
C811	C81	0.222840	0.024810	0.548380
C821	C82	0.389680	0.213850	0.740340
C831	C83	0.381350	0.283890	0.742260
C841	C84	0.395030	0.341220	0.805640
C851	C85	0.358520	0.292330	0.682740
C861	C86	0.341150	0.232960	0.611560
C871	C87	0.358180	0.487430	0.757440
C881	C88	0.366290	0.417430	0.755820
C891	C89	0.352310	0.359640	0.692100
C901	C90	0.388050	0.408710	0.814700
C911	C91	0.403390	0.467130	0.885820
C921	C92	0.705630	0.512420	0.530740
C931	C93	0.763410	0.614500	0.539240
C941	C94	0.825540	0.523570	0.548380
C951	C95	0.850660	0.526490	0.740340
C961	C96	0.860910	0.458370	0.742260
C971	C97	0.910610	0.464420	0.805640
C981	C98	0.824220	0.390410	0.682740
C991	C99	0.770410	0.378600	0.611560
C1001	C100	0.899260	0.270010	0.757440
C1011	C101	0.889530	0.338390	0.755820
C1021	C102	0.839790	0.332460	0.692100
C1031	C103	0.926650	0.405990	0.814700
C1041	C104	0.982430	0.418690	0.885820
C1051	C105	0.012420	0.205630	0.030740
C1061	C106	0.114500	0.263410	0.039240
C1071	C107	0.023570	0.325540	0.048380
C1081	C108	0.026490	0.350660	0.240340
C1091	C109	0.958370	0.360910	0.242260
C1101	C110	0.964420	0.410610	0.305640
C1111	C111	0.890410	0.324220	0.182740
C1121	C112	0.878600	0.270410	0.111560
C1131	C113	0.770010	0.399260	0.257440
C1141	C114	0.838390	0.389530	0.255820
C1151	C115	0.832460	0.339790	0.192100
C1161	C116	0.905990	0.426650	0.314700
C1171	C117	0.918690	0.482430	0.385820
C1181	C118	0.518320	0.825110	0.030740
C1191	C119	0.424740	0.775830	0.039240
C1201	C120	0.524810	0.722840	0.048380
C1211	C121	0.713850	0.889680	0.240340
C1221	C122	0.783890	0.881350	0.242260
C1231	C123	0.841220	0.895030	0.305640
C1241	C124	0.792330	0.858520	0.182740
C1251	C125	0.732960	0.841150	0.111560
C1261	C126	0.987430	0.858180	0.257440
C1271	C127	0.917430	0.866290	0.255820
C1281	C128	0.859640	0.852310	0.192100
C1291	C129	0.908710	0.888050	0.314700
C1301	C130	0.967130	0.903390	0.385820
C1311	C131	0.205630	0.518320	0.530740
C1321	C132	0.263410	0.424740	0.539240
C1331	C133	0.325540	0.524810	0.548380
C1341	C134	0.350660	0.713850	0.740340
C1351	C135	0.360910	0.783890	0.742260
C1361	C136	0.410610	0.841220	0.805640
C1371	C137	0.324220	0.792330	0.682740
C1381	C138	0.270410	0.732960	0.611560
C1391	C139	0.399260	0.987430	0.757440
C1401	C140	0.389530	0.917430	0.755820
C1411	C141	0.339790	0.859640	0.692100
C1421	C142	0.426650	0.908710	0.814700
C1431	C143	0.482430	0.967130	0.885820
C1441	C144	0.825110	0.012420	0.530740
C1451	C145	0.775830	0.114500	0.539240
C1461	C146	0.722840	0.023570	0.548380
C1471	C147	0.889680	0.026490	0.740340
C1481	C148	0.881350	0.958370	0.742260
C1491	C149	0.895030	0.964420	0.805640
C1501	C150	0.858520	0.890410	0.682740
C1511	C151	0.841150	0.878600	0.611560
C1521	C152	0.858180	0.770010	0.757440
C1531	C153	0.866290	0.838390	0.755820
C1541	C154	0.852310	0.832460	0.692100
C1551	C155	0.888050	0.905990	0.814700
C1561	C156	0.903390	0.918690	0.885820
C1571	C157	0.981680	0.294370	0.969260
C1581	C158	0.075260	0.236590	0.960760
C1591	C159	0.975190	0.174460	0.951620
C1601	C160	0.786150	0.149340	0.759660
C1611	C161	0.716110	0.139090	0.757740
C1621	C162	0.658780	0.089390	0.694360
C1631	C163	0.707670	0.175780	0.817260
C1641	C164	0.767040	0.229590	0.888440
C1651	C165	0.512570	0.100740	0.742560
C1661	C166	0.582570	0.110470	0.744180
C1671	C167	0.640360	0.160210	0.807900
C1681	C168	0.591290	0.073350	0.685300
C1691	C169	0.532870	0.017570	0.614180
C1701	C170	0.487580	0.674890	0.969260
C1711	C171	0.385500	0.724170	0.960760
C1721	C172	0.476430	0.777160	0.951620
C1731	C173	0.473510	0.610320	0.759660
C1741	C174	0.541630	0.618650	0.757740
C1751	C175	0.535580	0.604970	0.694360
C1761	C176	0.609590	0.641480	0.817260
C1771	C177	0.621400	0.658850	0.888440
C1781	C178	0.729990	0.641820	0.742560
C1791	C179	0.661610	0.633710	0.744180
C1801	C180	0.667540	0.647690	0.807900
C1811	C181	0.594010	0.611950	0.685300
C1821	C182	0.581310	0.596610	0.614180
C1831	C183	0.674890	0.981680	0.469260
C1841	C184	0.724170	0.075260	0.460760
C1851	C185	0.777160	0.975190	0.451620
C1861	C186	0.610320	0.786150	0.259660
C1871	C187	0.618650	0.716110	0.257740
C1881	C188	0.604970	0.658780	0.194360
C1891	C189	0.641480	0.707670	0.317260
C1901	C190	0.658850	0.767040	0.388440
C1911	C191	0.641820	0.512570	0.242560
C1921	C192	0.633710	0.582570	0.244180
C1931	C193	0.647690	0.640360	0.307900
C1941	C194	0.611950	0.591290	0.185300
C1951	C195	0.596610	0.532870	0.114180
C1961	C196	0.294370	0.487580	0.469260
C1971	C197	0.236590	0.385500	0.460760
C1981	C198	0.174460	0.476430	0.451620
C1991	C199	0.149340	0.473510	0.259660
C2001	C200	0.139090	0.541630	0.257740
C2011	C201	0.089390	0.535580	0.194360
C2021	C202	0.175780	0.609590	0.317260
C2031	C203	0.229590	0.621400	0.388440
C2041	C204	0.100740	0.729990	0.242560
C2051	C205	0.110470	0.661610	0.244180
C2061	C206	0.160210	0.667540	0.307900
C2071	C207	0.073350	0.594010	0.185300
C2081	C208	0.017570	0.581310	0.114180
N11	N1	0.935860	0.724890	0.933160
N21	N2	0.497300	0.208270	0.933160
N31	N3	0.724890	0.497300	0.433160
N41	N4	0.208270	0.935860	0.433160
N51	N5	0.002700	0.775110	0.066840
N61	N6	0.564140	0.291730	0.066840
N71	N7	0.291730	0.002700	0.566840
N81	N8	0.775110	0.564140	0.566840
N91	N9	0.064140	0.275110	0.066840
N101	N10	0.502700	0.791730	0.066840
N111	N11	0.275110	0.502700	0.566840
N121	N12	0.791730	0.064140	0.566840
N131	N13	0.997300	0.224890	0.933160
N141	N14	0.435860	0.708270	0.933160
N151	N15	0.708270	0.997300	0.433160
N161	N16	0.224890	0.435860	0.433160
O11	O1	0.973300	0.662800	0.815280
O21	O2	0.229700	0.582610	0.685920
O31	O3	0.921420	0.642480	0.704840
O41	O4	0.283440	0.613390	0.799680
O51	O5	0.341980	0.152480	0.815280
O61	O6	0.956220	0.103310	0.685920
O71	O7	0.283420	0.062360	0.704840
O81	O8	0.016240	0.186290	0.799680
O91	O9	0.662800	0.341980	0.315280
O101	O10	0.582610	0.956220	0.185920
O111	O11	0.642480	0.283420	0.204840
O121	O12	0.613390	0.016240	0.299680
O131	O13	0.152480	0.973300	0.315280
O141	O14	0.103310	0.229700	0.185920
O151	O15	0.062360	0.921420	0.204840
O161	O16	0.186290	0.283440	0.299680
O171	O17	0.158020	0.837200	0.184720
O181	O18	0.543780	0.917390	0.314080
O191	O19	0.216580	0.857520	0.295160
O201	O20	0.483760	0.886610	0.200320
O211	O21	0.526700	0.347520	0.184720
O221	O22	0.270300	0.396690	0.314080
O231	O23	0.578580	0.437640	0.295160
O241	O24	0.216560	0.313710	0.200320
O251	O25	0.347520	0.158020	0.684720
O261	O26	0.396690	0.543780	0.814080
O271	O27	0.437640	0.216580	0.795160
O281	O28	0.313710	0.483760	0.700320
O291	O29	0.837200	0.526700	0.684720
O301	O30	0.917390	0.270300	0.814080
O311	O31	0.857520	0.578580	0.795160
O321	O32	0.886610	0.216560	0.700320
O331	O33	0.026700	0.337200	0.184720
O341	O34	0.770300	0.417390	0.314080
O351	O35	0.078580	0.357520	0.295160
O361	O36	0.716560	0.386610	0.200320
O371	O37	0.658020	0.847520	0.184720
O381	O38	0.043780	0.896690	0.314080
O391	O39	0.716580	0.937640	0.295160
O401	O40	0.983760	0.813710	0.200320
O411	O41	0.337200	0.658020	0.684720
O421	O42	0.417390	0.043780	0.814080
O431	O43	0.357520	0.716580	0.795160
O441	O44	0.386610	0.983760	0.700320
O451	O45	0.847520	0.026700	0.684720
O461	O46	0.896690	0.770300	0.814080
O471	O47	0.937640	0.078580	0.795160
O481	O48	0.813710	0.716560	0.700320
O491	O49	0.841980	0.162800	0.815280
O501	O50	0.456220	0.082610	0.685920
O511	O51	0.783420	0.142480	0.704840
O521	O52	0.516240	0.113390	0.799680
O531	O53	0.473300	0.652480	0.815280
O541	O54	0.729700	0.603310	0.685920
O551	O55	0.421420	0.562360	0.704840
O561	O56	0.783440	0.686290	0.799680
O571	O57	0.652480	0.841980	0.315280
O581	O58	0.603310	0.456220	0.185920
O591	O59	0.562360	0.783420	0.204840
O601	O60	0.686290	0.516240	0.299680
O611	O61	0.162800	0.473300	0.315280
O621	O62	0.082610	0.729700	0.185920
O631	O63	0.142480	0.421420	0.204840
O641	O64	0.113390	0.783440	0.299680
