data_IFAREN_charged_PM
_symmetry_space_group_name_H-M	'P1'
_cell_length_a	18.217400
_cell_length_b	20.298700
_cell_length_c	28.474900
_cell_angle_alpha	90.000000
_cell_angle_beta	98.947000
_cell_angle_gamma	90.000000
_symmetry_Int_Tables_number 1

loop_
_symmetry_equiv_pos_as_xyz
'x,y,z'

loop_
_atom_site_label
_atom_site_type_symbol
_atom_site_fract_x
_atom_site_fract_y
_atom_site_fract_z
Co11	Co1	0.822760	0.915920	0.273840
Co21	Co2	0.754190	0.857340	0.498490
Co31	Co3	0.715910	0.870230	0.730100
Co41	Co4	0.677240	0.415920	0.226160
Co51	Co5	0.745810	0.357340	0.001510
Co61	Co6	0.784090	0.370230	0.769900
Co71	Co7	0.177240	0.084080	0.726160
Co81	Co8	0.245810	0.142660	0.501510
Co91	Co9	0.284090	0.129770	0.269900
Co101	Co10	0.322760	0.584080	0.773840
Co111	Co11	0.254190	0.642660	0.998490
Co121	Co12	0.215910	0.629770	0.230100
Mo11	Mo1	0.748590	0.625230	0.798000
Mo21	Mo2	0.897670	0.559410	0.867310
Mo31	Mo3	0.996310	0.686210	0.926100
Mo41	Mo4	0.902060	0.829190	0.907090
Mo51	Mo5	0.726570	0.791830	0.845000
Mo61	Mo6	0.869680	0.047880	0.354250
Mo71	Mo7	0.708910	0.116870	0.304020
Mo81	Mo8	0.767810	0.783520	0.186890
Mo91	Mo9	0.597420	0.811810	0.102350
Mo101	Mo10	0.511350	0.662140	0.093070
Mo111	Mo11	0.751410	0.125230	0.702000
Mo121	Mo12	0.602330	0.059410	0.632690
Mo131	Mo13	0.503690	0.186210	0.573900
Mo141	Mo14	0.597940	0.329190	0.592910
Mo151	Mo15	0.773430	0.291830	0.655000
Mo161	Mo16	0.630320	0.547880	0.145750
Mo171	Mo17	0.791090	0.616870	0.195980
Mo181	Mo18	0.732190	0.283520	0.313110
Mo191	Mo19	0.902580	0.311810	0.397650
Mo201	Mo20	0.988650	0.162140	0.406930
Mo211	Mo21	0.251410	0.374770	0.202000
Mo221	Mo22	0.102330	0.440590	0.132690
Mo231	Mo23	0.003690	0.313790	0.073900
Mo241	Mo24	0.097940	0.170810	0.092910
Mo251	Mo25	0.273430	0.208170	0.155000
Mo261	Mo26	0.130320	0.952120	0.645750
Mo271	Mo27	0.291090	0.883130	0.695980
Mo281	Mo28	0.232190	0.216480	0.813110
Mo291	Mo29	0.402580	0.188190	0.897650
Mo301	Mo30	0.488650	0.337860	0.906930
Mo311	Mo31	0.248590	0.874770	0.298000
Mo321	Mo32	0.397670	0.940590	0.367310
Mo331	Mo33	0.496310	0.813790	0.426100
Mo341	Mo34	0.402060	0.670810	0.407090
Mo351	Mo35	0.226570	0.708170	0.345000
Mo361	Mo36	0.369680	0.452120	0.854250
Mo371	Mo37	0.208910	0.383130	0.804020
Mo381	Mo38	0.267810	0.716480	0.686890
Mo391	Mo39	0.097420	0.688190	0.602350
Mo401	Mo40	0.011350	0.837860	0.593070
P11	P1	0.806160	0.680760	0.918330
P21	P2	0.897500	0.724400	0.815190
P31	P3	0.116700	0.800840	0.700180
P41	P4	0.702940	0.678450	0.090150
P51	P5	0.693840	0.180760	0.581670
P61	P6	0.602500	0.224400	0.684810
P71	P7	0.383300	0.300840	0.799820
P81	P8	0.797060	0.178450	0.409850
P91	P9	0.193840	0.319240	0.081670
P101	P10	0.102500	0.275600	0.184810
P111	P11	0.883300	0.199160	0.299820
P121	P12	0.297060	0.321550	0.909850
P131	P13	0.306160	0.819240	0.418330
P141	P14	0.397500	0.775600	0.315190
P151	P15	0.616700	0.699160	0.200180
P161	P16	0.202940	0.821550	0.590150
H11	H1	0.682000	0.952700	0.200200
H21	H2	0.554500	0.942100	0.193400
H31	H3	0.501700	0.914000	0.261100
H41	H4	0.580400	0.900800	0.334800
H51	H5	0.986100	0.817100	0.414000
H61	H6	0.092600	0.802200	0.377700
H71	H7	0.084000	0.820400	0.296100
H81	H8	0.973700	0.859100	0.252800
H91	H9	0.629100	0.951700	0.527500
H101	H10	0.551500	0.036000	0.493800
H111	H11	0.551700	0.064200	0.414400
H121	H12	0.629200	0.005400	0.369700
H131	H13	0.904000	0.721200	0.401700
H141	H14	0.932200	0.633900	0.455700
H151	H15	0.903400	0.643100	0.532100
H161	H16	0.839400	0.736400	0.552100
H171	H17	0.679400	0.730900	0.447600
H181	H18	0.617500	0.637900	0.467600
H191	H19	0.588000	0.628200	0.544200
H201	H20	0.619900	0.713400	0.599000
H211	H21	0.843000	0.033100	0.613900
H221	H22	0.911600	0.093900	0.564800
H231	H23	0.932300	0.048300	0.492100
H241	H24	0.880700	0.946900	0.469300
H251	H25	0.568000	0.804500	0.754900
H261	H26	0.452200	0.774100	0.713800
H271	H27	0.430400	0.781100	0.630400
H281	H28	0.528400	0.811200	0.589900
H291	H29	0.922100	0.950900	0.653300
H301	H30	0.001300	0.986500	0.722200
H311	H31	0.954100	0.991200	0.794500
H321	H32	0.833500	0.953800	0.796200
H331	H33	0.846600	0.622800	0.987600
H341	H34	0.772500	0.590100	0.959600
H351	H35	0.981500	0.807100	0.810800
H361	H36	0.917200	0.809800	0.766200
H371	H37	0.979300	0.728300	0.727200
H381	H38	0.044300	0.725500	0.772200
H391	H39	0.063900	0.842000	0.762200
H401	H40	0.004400	0.840100	0.715000
H411	H41	0.754400	0.592500	0.052100
H421	H42	0.815500	0.648200	0.067600
H431	H43	0.697200	0.663500	0.989700
H441	H44	0.763200	0.715100	0.004000
H451	H45	0.818000	0.452700	0.299800
H461	H46	0.945500	0.442100	0.306600
H471	H47	0.998300	0.414000	0.238900
H481	H48	0.919600	0.400800	0.165200
H491	H49	0.513900	0.317100	0.086000
H501	H50	0.407400	0.302200	0.122300
H511	H51	0.416000	0.320400	0.203900
H521	H52	0.526300	0.359100	0.247200
H531	H53	0.870900	0.451700	0.972500
H541	H54	0.948500	0.536000	0.006200
H551	H55	0.948300	0.564200	0.085600
H561	H56	0.870800	0.505400	0.130300
H571	H57	0.596000	0.221200	0.098300
H581	H58	0.567800	0.133900	0.044300
H591	H59	0.596600	0.143100	0.967900
H601	H60	0.660600	0.236400	0.947900
H611	H61	0.820600	0.230900	0.052400
H621	H62	0.882500	0.137900	0.032400
H631	H63	0.912000	0.128200	0.955800
H641	H64	0.880100	0.213400	0.901000
H651	H65	0.657000	0.533100	0.886100
H661	H66	0.588400	0.593900	0.935200
H671	H67	0.567700	0.548300	0.007900
H681	H68	0.619300	0.446900	0.030700
H691	H69	0.932000	0.304500	0.745100
H701	H70	0.047800	0.274100	0.786200
H711	H71	0.069600	0.281100	0.869600
H721	H72	0.971600	0.311200	0.910100
H731	H73	0.577900	0.450900	0.846700
H741	H74	0.498700	0.486500	0.777800
H751	H75	0.545900	0.491200	0.705500
H761	H76	0.666500	0.453800	0.703800
H771	H77	0.653400	0.122800	0.512400
H781	H78	0.727500	0.090100	0.540400
H791	H79	0.518500	0.307100	0.689200
H801	H80	0.582800	0.309800	0.733800
H811	H81	0.520700	0.228300	0.772800
H821	H82	0.455700	0.225500	0.727800
H831	H83	0.436100	0.342000	0.737800
H841	H84	0.495600	0.340100	0.785000
H851	H85	0.745600	0.092500	0.447900
H861	H86	0.684500	0.148200	0.432400
H871	H87	0.802800	0.163500	0.510300
H881	H88	0.736800	0.215100	0.496000
H891	H89	0.318000	0.047300	0.799800
H901	H90	0.445500	0.057900	0.806600
H911	H91	0.498300	0.086000	0.738900
H921	H92	0.419600	0.099200	0.665200
H931	H93	0.013900	0.182900	0.586000
H941	H94	0.907400	0.197800	0.622300
H951	H95	0.916000	0.179600	0.703900
H961	H96	0.026300	0.140900	0.747200
H971	H97	0.370900	0.048300	0.472500
H981	H98	0.448500	0.964000	0.506200
H991	H99	0.448300	0.935800	0.585600
H1001	H100	0.370800	0.994600	0.630300
H1011	H101	0.096000	0.278800	0.598300
H1021	H102	0.067800	0.366100	0.544300
H1031	H103	0.096600	0.356900	0.467900
H1041	H104	0.160600	0.263600	0.447900
H1051	H105	0.320600	0.269100	0.552400
H1061	H106	0.382500	0.362100	0.532400
H1071	H107	0.412000	0.371800	0.455800
H1081	H108	0.380100	0.286600	0.401000
H1091	H109	0.157000	0.966900	0.386100
H1101	H110	0.088400	0.906100	0.435200
H1111	H111	0.067700	0.951700	0.507900
H1121	H112	0.119300	0.053100	0.530700
H1131	H113	0.432000	0.195500	0.245100
H1141	H114	0.547800	0.225900	0.286200
H1151	H115	0.569600	0.218900	0.369600
H1161	H116	0.471600	0.188800	0.410100
H1171	H117	0.077900	0.049100	0.346700
H1181	H118	0.998700	0.013500	0.277800
H1191	H119	0.045900	0.008800	0.205500
H1201	H120	0.166500	0.046200	0.203800
H1211	H121	0.153400	0.377200	0.012400
H1221	H122	0.227500	0.409900	0.040400
H1231	H123	0.018500	0.192900	0.189200
H1241	H124	0.082800	0.190200	0.233800
H1251	H125	0.020700	0.271700	0.272800
H1261	H126	0.955700	0.274500	0.227800
H1271	H127	0.936100	0.158000	0.237800
H1281	H128	0.995600	0.159900	0.285000
H1291	H129	0.245600	0.407500	0.947900
H1301	H130	0.184500	0.351800	0.932400
H1311	H131	0.302800	0.336500	0.010300
H1321	H132	0.236800	0.284900	0.996000
H1331	H133	0.182000	0.547300	0.700200
H1341	H134	0.054500	0.557900	0.693400
H1351	H135	0.001700	0.586000	0.761100
H1361	H136	0.080400	0.599200	0.834800
H1371	H137	0.486100	0.682900	0.914000
H1381	H138	0.592600	0.697800	0.877700
H1391	H139	0.584000	0.679600	0.796100
H1401	H140	0.473700	0.640900	0.752800
H1411	H141	0.129100	0.548300	0.027500
H1421	H142	0.051500	0.464000	0.993800
H1431	H143	0.051700	0.435800	0.914400
H1441	H144	0.129200	0.494600	0.869700
H1451	H145	0.404000	0.778800	0.901700
H1461	H146	0.432200	0.866100	0.955700
H1471	H147	0.403400	0.856900	0.032100
H1481	H148	0.339400	0.763600	0.052100
H1491	H149	0.179400	0.769100	0.947600
H1501	H150	0.117500	0.862100	0.967600
H1511	H151	0.088000	0.871800	0.044200
H1521	H152	0.119900	0.786600	0.099000
H1531	H153	0.343000	0.466900	0.113900
H1541	H154	0.411600	0.406100	0.064800
H1551	H155	0.432300	0.451700	0.992100
H1561	H156	0.380700	0.553100	0.969300
H1571	H157	0.068000	0.695500	0.254900
H1581	H158	0.952200	0.725900	0.213800
H1591	H159	0.930400	0.718900	0.130400
H1601	H160	0.028400	0.688800	0.089900
H1611	H161	0.422100	0.549100	0.153300
H1621	H162	0.501300	0.513500	0.222200
H1631	H163	0.454100	0.508800	0.294500
H1641	H164	0.333500	0.546200	0.296200
H1651	H165	0.346600	0.877200	0.487600
H1661	H166	0.272500	0.909900	0.459600
H1671	H167	0.481500	0.692900	0.310800
H1681	H168	0.417200	0.690200	0.266200
H1691	H169	0.479300	0.771700	0.227200
H1701	H170	0.544300	0.774500	0.272200
H1711	H171	0.563900	0.658000	0.262200
H1721	H172	0.504400	0.659900	0.215000
H1731	H173	0.254400	0.907500	0.552100
H1741	H174	0.315500	0.851800	0.567600
H1751	H175	0.197200	0.836500	0.489700
H1761	H176	0.263200	0.784900	0.504000
C11	C1	0.660900	0.942300	0.227800
C21	C2	0.585100	0.935800	0.223300
C31	C3	0.553900	0.919600	0.263400
C41	C4	0.600200	0.911800	0.306800
C51	C5	0.675400	0.920600	0.308120
C61	C6	0.730800	0.904700	0.351020
C71	C7	0.846500	0.852900	0.370910
C81	C8	0.917700	0.843700	0.352600
C91	C9	0.984100	0.824300	0.380800
C101	C10	0.047000	0.815800	0.359500
C111	C11	0.042100	0.827600	0.311600
C121	C12	0.975900	0.849900	0.285700
C131	C13	0.628700	0.962500	0.494970
C141	C14	0.582400	0.013200	0.475230
C151	C15	0.582400	0.029500	0.428600
C161	C16	0.628000	0.994500	0.401990
C171	C17	0.671100	0.943700	0.423850
C181	C18	0.722400	0.903800	0.399510
C191	C19	0.825400	0.832200	0.413890
C201	C20	0.855100	0.778400	0.446800
C211	C21	0.891100	0.723700	0.432700
C221	C22	0.908200	0.672300	0.464900
C231	C23	0.890400	0.677200	0.509400
C241	C24	0.852500	0.733200	0.521200
C251	C25	0.666300	0.727800	0.478600
C261	C26	0.630100	0.672000	0.490200
C271	C27	0.612300	0.666500	0.535300
C281	C28	0.630200	0.717100	0.567400
C291	C29	0.663200	0.773300	0.552800
C301	C30	0.688900	0.829500	0.584710
C311	C31	0.781200	0.911200	0.596440
C321	C32	0.825600	0.954300	0.569060
C331	C33	0.852100	0.015800	0.584300
C341	C34	0.892300	0.051700	0.555200
C351	C35	0.903900	0.025300	0.512050
C361	C36	0.873000	0.964900	0.498960
C371	C37	0.559600	0.806400	0.721100
C381	C38	0.490400	0.788300	0.696900
C391	C39	0.478000	0.791400	0.647600
C401	C40	0.535500	0.809500	0.623700
C411	C41	0.603900	0.825100	0.650220
C421	C42	0.670200	0.845400	0.629180
C431	C43	0.777800	0.911000	0.645130
C441	C44	0.832800	0.934800	0.685460
C451	C45	0.904300	0.952700	0.682910
C461	C46	0.951600	0.973700	0.723700
C471	C47	0.924300	0.975600	0.766300
C481	C48	0.852000	0.954000	0.766800
C491	C49	0.796600	0.632600	0.969860
C501	C50	0.952300	0.779800	0.785780
C511	C51	0.006400	0.754200	0.753810
C521	C52	0.043700	0.814100	0.734700
C531	C53	0.763200	0.640600	0.053220
C541	C54	0.750600	0.667700	0.002990
C551	C55	0.839100	0.442300	0.272200
C561	C56	0.914900	0.435800	0.276700
C571	C57	0.946100	0.419600	0.236600
C581	C58	0.899800	0.411800	0.193200
C591	C59	0.824600	0.420600	0.191880
C601	C60	0.769200	0.404700	0.148980
C611	C61	0.653500	0.352900	0.129090
C621	C62	0.582300	0.343700	0.147400
C631	C63	0.515900	0.324300	0.119200
C641	C64	0.453000	0.315800	0.140500
C651	C65	0.457900	0.327600	0.188400
C661	C66	0.524100	0.349900	0.214300
C671	C67	0.871300	0.462500	0.005030
C681	C68	0.917600	0.513200	0.024770
C691	C69	0.917600	0.529500	0.071400
C701	C70	0.872000	0.494500	0.098010
C711	C71	0.828900	0.443700	0.076150
C721	C72	0.777600	0.403800	0.100490
C731	C73	0.674600	0.332200	0.086110
C741	C74	0.644900	0.278400	0.053200
C751	C75	0.608900	0.223700	0.067300
C761	C76	0.591800	0.172300	0.035100
C771	C77	0.609600	0.177200	0.990600
C781	C78	0.647500	0.233200	0.978800
C791	C79	0.833700	0.227800	0.021400
C801	C80	0.869900	0.172000	0.009800
C811	C81	0.887700	0.166500	0.964700
C821	C82	0.869800	0.217100	0.932600
C831	C83	0.836800	0.273300	0.947200
C841	C84	0.811100	0.329500	0.915290
C851	C85	0.718800	0.411200	0.903560
C861	C86	0.674400	0.454300	0.930940
C871	C87	0.647900	0.515800	0.915700
C881	C88	0.607700	0.551700	0.944800
C891	C89	0.596100	0.525300	0.987950
C901	C90	0.627000	0.464900	0.001040
C911	C91	0.940400	0.306400	0.778900
C921	C92	0.009600	0.288300	0.803100
C931	C93	0.022000	0.291400	0.852400
C941	C94	0.964500	0.309500	0.876300
C951	C95	0.896100	0.325100	0.849780
C961	C96	0.829800	0.345400	0.870820
C971	C97	0.722200	0.411000	0.854870
C981	C98	0.667200	0.434800	0.814540
C991	C99	0.595700	0.452700	0.817090
C1001	C100	0.548400	0.473700	0.776300
C1011	C101	0.575700	0.475600	0.733700
C1021	C102	0.648000	0.454000	0.733200
C1031	C103	0.703400	0.132600	0.530140
C1041	C104	0.547700	0.279800	0.714220
C1051	C105	0.493600	0.254200	0.746190
C1061	C106	0.456300	0.314100	0.765300
C1071	C107	0.736800	0.140600	0.446780
C1081	C108	0.749400	0.167700	0.497010
C1091	C109	0.339100	0.057700	0.772200
C1101	C110	0.414900	0.064200	0.776700
C1111	C111	0.446100	0.080400	0.736600
C1121	C112	0.399800	0.088200	0.693200
C1131	C113	0.324600	0.079400	0.691880
C1141	C114	0.269200	0.095300	0.648980
C1151	C115	0.153500	0.147100	0.629090
C1161	C116	0.082300	0.156300	0.647400
C1171	C117	0.015900	0.175700	0.619200
C1181	C118	0.953000	0.184200	0.640500
C1191	C119	0.957900	0.172400	0.688400
C1201	C120	0.024100	0.150100	0.714300
C1211	C121	0.371300	0.037500	0.505030
C1221	C122	0.417600	0.986800	0.524770
C1231	C123	0.417600	0.970500	0.571400
C1241	C124	0.372000	0.005500	0.598010
C1251	C125	0.328900	0.056300	0.576150
C1261	C126	0.277600	0.096200	0.600490
C1271	C127	0.174600	0.167800	0.586110
C1281	C128	0.144900	0.221600	0.553200
C1291	C129	0.108900	0.276300	0.567300
C1301	C130	0.091800	0.327700	0.535100
C1311	C131	0.109600	0.322800	0.490600
C1321	C132	0.147500	0.266800	0.478800
C1331	C133	0.333700	0.272200	0.521400
C1341	C134	0.369900	0.328000	0.509800
C1351	C135	0.387700	0.333500	0.464700
C1361	C136	0.369800	0.282900	0.432600
C1371	C137	0.336800	0.226700	0.447200
C1381	C138	0.311100	0.170500	0.415290
C1391	C139	0.218800	0.088800	0.403560
C1401	C140	0.174400	0.045700	0.430940
C1411	C141	0.147900	0.984200	0.415700
C1421	C142	0.107700	0.948300	0.444800
C1431	C143	0.096100	0.974700	0.487950
C1441	C144	0.127000	0.035100	0.501040
C1451	C145	0.440400	0.193600	0.278900
C1461	C146	0.509600	0.211700	0.303100
C1471	C147	0.522000	0.208600	0.352400
C1481	C148	0.464500	0.190500	0.376300
C1491	C149	0.396100	0.174900	0.349780
C1501	C150	0.329800	0.154600	0.370820
C1511	C151	0.222200	0.089000	0.354870
C1521	C152	0.167200	0.065200	0.314540
C1531	C153	0.095700	0.047300	0.317090
C1541	C154	0.048400	0.026300	0.276300
C1551	C155	0.075700	0.024400	0.233700
C1561	C156	0.148000	0.046000	0.233200
C1571	C157	0.203400	0.367400	0.030140
C1581	C158	0.047700	0.220200	0.214220
C1591	C159	0.993600	0.245800	0.246190
C1601	C160	0.956300	0.185900	0.265300
C1611	C161	0.236800	0.359400	0.946780
C1621	C162	0.249400	0.332300	0.997010
C1631	C163	0.160900	0.557700	0.727800
C1641	C164	0.085100	0.564200	0.723300
C1651	C165	0.053900	0.580400	0.763400
C1661	C166	0.100200	0.588200	0.806800
C1671	C167	0.175400	0.579400	0.808120
C1681	C168	0.230800	0.595300	0.851020
C1691	C169	0.346500	0.647100	0.870910
C1701	C170	0.417700	0.656300	0.852600
C1711	C171	0.484100	0.675700	0.880800
C1721	C172	0.547000	0.684200	0.859500
C1731	C173	0.542100	0.672400	0.811600
C1741	C174	0.475900	0.650100	0.785700
C1751	C175	0.128700	0.537500	0.994970
C1761	C176	0.082400	0.486800	0.975230
C1771	C177	0.082400	0.470500	0.928600
C1781	C178	0.128000	0.505500	0.901990
C1791	C179	0.171100	0.556300	0.923850
C1801	C180	0.222400	0.596200	0.899510
C1811	C181	0.325400	0.667800	0.913890
C1821	C182	0.355100	0.721600	0.946800
C1831	C183	0.391100	0.776300	0.932700
C1841	C184	0.408200	0.827700	0.964900
C1851	C185	0.390400	0.822800	0.009400
C1861	C186	0.352500	0.766800	0.021200
C1871	C187	0.166300	0.772200	0.978600
C1881	C188	0.130100	0.828000	0.990200
C1891	C189	0.112300	0.833500	0.035300
C1901	C190	0.130200	0.782900	0.067400
C1911	C191	0.163200	0.726700	0.052800
C1921	C192	0.188900	0.670500	0.084710
C1931	C193	0.281200	0.588800	0.096440
C1941	C194	0.325600	0.545700	0.069060
C1951	C195	0.352100	0.484200	0.084300
C1961	C196	0.392300	0.448300	0.055200
C1971	C197	0.403900	0.474700	0.012050
C1981	C198	0.373000	0.535100	0.998960
C1991	C199	0.059600	0.693600	0.221100
C2001	C200	0.990400	0.711700	0.196900
C2011	C201	0.978000	0.708600	0.147600
C2021	C202	0.035500	0.690500	0.123700
C2031	C203	0.103900	0.674900	0.150220
C2041	C204	0.170200	0.654600	0.129180
C2051	C205	0.277800	0.589000	0.145130
C2061	C206	0.332800	0.565200	0.185460
C2071	C207	0.404300	0.547300	0.182910
C2081	C208	0.451600	0.526300	0.223700
C2091	C209	0.424300	0.524400	0.266300
C2101	C210	0.352000	0.546000	0.266800
C2111	C211	0.296600	0.867400	0.469860
C2121	C212	0.452300	0.720200	0.285780
C2131	C213	0.506400	0.745800	0.253810
C2141	C214	0.543700	0.685900	0.234700
C2151	C215	0.263200	0.859400	0.553220
C2161	C216	0.250600	0.832300	0.502990
N11	N1	0.706700	0.934700	0.269250
N21	N2	0.796300	0.885500	0.340360
N31	N3	0.914700	0.858700	0.306170
N41	N4	0.672500	0.928400	0.470400
N51	N5	0.767300	0.864000	0.427900
N61	N6	0.834300	0.782200	0.490630
N71	N7	0.684000	0.778000	0.508920
N81	N8	0.739800	0.867300	0.568870
N91	N9	0.833000	0.930400	0.525470
N101	N10	0.614900	0.826300	0.698600
N111	N11	0.718200	0.881800	0.658370
N121	N12	0.807400	0.933400	0.728100
N131	N13	0.793300	0.434700	0.230750
N141	N14	0.703700	0.385500	0.159640
N151	N15	0.585300	0.358700	0.193830
N161	N16	0.827500	0.428400	0.029600
N171	N17	0.732700	0.364000	0.072100
N181	N18	0.665700	0.282200	0.009370
N191	N19	0.816000	0.278000	0.991080
N201	N20	0.760200	0.367300	0.931130
N211	N21	0.667000	0.430400	0.974530
N221	N22	0.885100	0.326300	0.801400
N231	N23	0.781800	0.381800	0.841630
N241	N24	0.692600	0.433400	0.771900
N251	N25	0.293300	0.065300	0.730750
N261	N26	0.203700	0.114500	0.659640
N271	N27	0.085300	0.141300	0.693830
N281	N28	0.327500	0.071600	0.529600
N291	N29	0.232700	0.136000	0.572100
N301	N30	0.165700	0.217800	0.509370
N311	N31	0.316000	0.222000	0.491080
N321	N32	0.260200	0.132700	0.431130
N331	N33	0.167000	0.069600	0.474530
N341	N34	0.385100	0.173700	0.301400
N351	N35	0.281800	0.118200	0.341630
N361	N36	0.192600	0.066600	0.271900
N371	N37	0.206700	0.565300	0.769250
N381	N38	0.296300	0.614500	0.840360
N391	N39	0.414700	0.641300	0.806170
N401	N40	0.172500	0.571600	0.970400
N411	N41	0.267300	0.636000	0.927900
N421	N42	0.334300	0.717800	0.990630
N431	N43	0.184000	0.722000	0.008920
N441	N44	0.239800	0.632700	0.068870
N451	N45	0.333000	0.569600	0.025470
N461	N46	0.114900	0.673700	0.198600
N471	N47	0.218200	0.618200	0.158370
N481	N48	0.307400	0.566600	0.228100
O11	O1	0.733700	0.846870	0.799030
O21	O2	0.641200	0.810500	0.857420
O31	O3	0.713580	0.714120	0.810610
O41	O4	0.718300	0.618700	0.738250
O51	O5	0.682500	0.583360	0.821580
O61	O6	0.829100	0.563810	0.807170
O71	O7	0.812860	0.634300	0.876130
O81	O8	0.854490	0.772040	0.844350
O91	O9	0.877560	0.722470	0.931860
O101	O10	0.988900	0.779440	0.906110
O111	O11	0.910100	0.854380	0.965040
O121	O12	0.080500	0.671230	0.909290
O131	O13	0.950100	0.601690	0.922820
O141	O14	0.860400	0.495460	0.894510
O151	O15	0.790400	0.843610	0.895460
O161	O16	0.738700	0.724230	0.905190
O171	O17	0.016100	0.694320	0.986340
O181	O18	0.944100	0.674240	0.846970
O191	O19	0.969000	0.525700	0.843800
O201	O20	0.840650	0.689690	0.778440
O211	O21	0.873700	0.999600	0.304530
O221	O22	0.784000	0.836800	0.233950
O231	O23	0.080400	0.779640	0.649650
O241	O24	0.531200	0.747500	0.065330
O251	O25	0.636300	0.632350	0.092400
O261	O26	0.687800	0.822600	0.145710
O271	O27	0.169800	0.748200	0.722280
O281	O28	0.809700	0.706220	0.222520
O291	O29	0.748400	0.689600	0.140570
O301	O30	0.158000	0.867040	0.698030
O311	O31	0.839000	0.802400	0.156470
O321	O32	0.763510	0.057370	0.348040
O331	O33	0.882400	0.991790	0.399410
O341	O34	0.963200	0.090360	0.362920
O351	O35	0.491200	0.622800	0.040070
O361	O36	0.609300	0.865300	0.058180
O371	O37	0.426400	0.677600	0.109710
O381	O38	0.677200	0.744690	0.068840
O391	O39	0.708700	0.080400	0.250600
O401	O40	0.623200	0.100400	0.317690
O411	O41	0.534200	0.851600	0.130530
O421	O42	0.924700	0.897800	0.877300
O431	O43	0.773800	0.784700	0.718750
O441	O44	0.653400	0.954460	0.747890
O451	O45	0.852500	0.951000	0.211830
O461	O46	0.766300	0.346870	0.700970
O471	O47	0.858800	0.310500	0.642580
O481	O48	0.786420	0.214120	0.689390
O491	O49	0.781700	0.118700	0.761750
O501	O50	0.817500	0.083360	0.678420
O511	O51	0.670900	0.063810	0.692830
O521	O52	0.687140	0.134300	0.623870
O531	O53	0.645510	0.272040	0.655650
O541	O54	0.622440	0.222470	0.568140
O551	O55	0.511100	0.279440	0.593890
O561	O56	0.589900	0.354380	0.534960
O571	O57	0.419500	0.171230	0.590710
O581	O58	0.549900	0.101690	0.577180
O591	O59	0.639600	0.995460	0.605490
O601	O60	0.709600	0.343610	0.604540
O611	O61	0.761300	0.224230	0.594810
O621	O62	0.483900	0.194320	0.513660
O631	O63	0.555900	0.174240	0.653030
O641	O64	0.531000	0.025700	0.656200
O651	O65	0.659350	0.189690	0.721560
O661	O66	0.626300	0.499600	0.195470
O671	O67	0.716000	0.336800	0.266050
O681	O68	0.419600	0.279640	0.850350
O691	O69	0.968800	0.247500	0.434670
O701	O70	0.863700	0.132350	0.407600
O711	O71	0.812200	0.322600	0.354290
O721	O72	0.330200	0.248200	0.777720
O731	O73	0.690300	0.206220	0.277480
O741	O74	0.751600	0.189600	0.359430
O751	O75	0.342000	0.367040	0.801970
O761	O76	0.661000	0.302400	0.343530
O771	O77	0.736490	0.557370	0.151960
O781	O78	0.617600	0.491790	0.100590
O791	O79	0.536800	0.590360	0.137080
O801	O80	0.008800	0.122800	0.459930
O811	O81	0.890700	0.365300	0.441820
O821	O82	0.073600	0.177600	0.390290
O831	O83	0.822800	0.244690	0.431160
O841	O84	0.791300	0.580400	0.249400
O851	O85	0.876800	0.600400	0.182310
O861	O86	0.965800	0.351600	0.369470
O871	O87	0.575300	0.397800	0.622700
O881	O88	0.726200	0.284700	0.781250
O891	O89	0.846600	0.454460	0.752110
O901	O90	0.647500	0.451000	0.288170
O911	O91	0.266300	0.153130	0.200970
O921	O92	0.358800	0.189500	0.142580
O931	O93	0.286420	0.285880	0.189390
O941	O94	0.281700	0.381300	0.261750
O951	O95	0.317500	0.416640	0.178420
O961	O96	0.170900	0.436190	0.192830
O971	O97	0.187140	0.365700	0.123870
O981	O98	0.145510	0.227960	0.155650
O991	O99	0.122440	0.277530	0.068140
O1001	O100	0.011100	0.220560	0.093890
O1011	O101	0.089900	0.145620	0.034960
O1021	O102	0.919500	0.328770	0.090710
O1031	O103	0.049900	0.398310	0.077180
O1041	O104	0.139600	0.504540	0.105490
O1051	O105	0.209600	0.156390	0.104540
O1061	O106	0.261300	0.275770	0.094810
O1071	O107	0.983900	0.305680	0.013660
O1081	O108	0.055900	0.325760	0.153030
O1091	O109	0.031000	0.474300	0.156200
O1101	O110	0.159350	0.310310	0.221560
O1111	O111	0.126300	0.000400	0.695470
O1121	O112	0.216000	0.163200	0.766050
O1131	O113	0.919600	0.220360	0.350350
O1141	O114	0.468800	0.252500	0.934670
O1151	O115	0.363700	0.367650	0.907600
O1161	O116	0.312200	0.177400	0.854290
O1171	O117	0.830200	0.251800	0.277720
O1181	O118	0.190300	0.293780	0.777480
O1191	O119	0.251600	0.310400	0.859430
O1201	O120	0.842000	0.132960	0.301970
O1211	O121	0.161000	0.197600	0.843530
O1221	O122	0.236490	0.942630	0.651960
O1231	O123	0.117600	0.008210	0.600590
O1241	O124	0.036800	0.909640	0.637080
O1251	O125	0.508800	0.377200	0.959930
O1261	O126	0.390700	0.134700	0.941820
O1271	O127	0.573600	0.322400	0.890290
O1281	O128	0.322800	0.255310	0.931160
O1291	O129	0.291300	0.919600	0.749400
O1301	O130	0.376800	0.899600	0.682310
O1311	O131	0.465800	0.148400	0.869470
O1321	O132	0.075300	0.102200	0.122700
O1331	O133	0.226200	0.215300	0.281250
O1341	O134	0.346600	0.045540	0.252110
O1351	O135	0.147500	0.049000	0.788170
O1361	O136	0.233700	0.653130	0.299030
O1371	O137	0.141200	0.689500	0.357420
O1381	O138	0.213580	0.785880	0.310610
O1391	O139	0.218300	0.881300	0.238250
O1401	O140	0.182500	0.916640	0.321580
O1411	O141	0.329100	0.936190	0.307170
O1421	O142	0.312860	0.865700	0.376130
O1431	O143	0.354490	0.727960	0.344350
O1441	O144	0.377560	0.777530	0.431860
O1451	O145	0.488900	0.720560	0.406110
O1461	O146	0.410100	0.645620	0.465040
O1471	O147	0.580500	0.828770	0.409290
O1481	O148	0.450100	0.898310	0.422820
O1491	O149	0.360400	0.004540	0.394510
O1501	O150	0.290400	0.656390	0.395460
O1511	O151	0.238700	0.775770	0.405190
O1521	O152	0.516100	0.805680	0.486340
O1531	O153	0.444100	0.825760	0.346970
O1541	O154	0.469000	0.974300	0.343800
O1551	O155	0.340650	0.810310	0.278440
O1561	O156	0.373700	0.500400	0.804530
O1571	O157	0.284000	0.663200	0.733950
O1581	O158	0.580400	0.720360	0.149650
O1591	O159	0.031200	0.752500	0.565330
O1601	O160	0.136300	0.867650	0.592400
O1611	O161	0.187800	0.677400	0.645710
O1621	O162	0.669800	0.751800	0.222280
O1631	O163	0.309700	0.793780	0.722520
O1641	O164	0.248400	0.810400	0.640570
O1651	O165	0.658000	0.632960	0.198030
O1661	O166	0.339000	0.697600	0.656470
O1671	O167	0.263510	0.442630	0.848040
O1681	O168	0.382400	0.508210	0.899410
O1691	O169	0.463200	0.409640	0.862920
O1701	O170	0.991200	0.877200	0.540070
O1711	O171	0.109300	0.634700	0.558180
O1721	O172	0.926400	0.822400	0.609710
O1731	O173	0.177200	0.755310	0.568840
O1741	O174	0.208700	0.419600	0.750600
O1751	O175	0.123200	0.399600	0.817690
O1761	O176	0.034200	0.648400	0.630530
O1771	O177	0.424700	0.602200	0.377300
O1781	O178	0.273800	0.715300	0.218750
O1791	O179	0.153400	0.545540	0.247890
O1801	O180	0.352500	0.549000	0.711830
