data_IFASOZ_clean_PM
_symmetry_space_group_name_H-M	'P1'
_cell_length_a	13.495000
_cell_length_b	19.016400
_cell_length_c	25.966400
_cell_angle_alpha	81.037700
_cell_angle_beta	74.938500
_cell_angle_gamma	69.217200
_symmetry_Int_Tables_number 1

loop_
_symmetry_equiv_pos_as_xyz
'x,y,z'

loop_
_atom_site_label
_atom_site_type_symbol
_atom_site_fract_x
_atom_site_fract_y
_atom_site_fract_z
Mg11	Mg1	0.574460	0.419160	0.190120
Mg21	Mg2	0.686790	0.585950	0.742430
Mg31	Mg3	0.716220	0.678820	0.631240
Mg41	Mg4	0.701820	0.275110	0.125910
Mg51	Mg5	0.183740	0.080840	0.309880
Mg61	Mg6	0.015170	0.914050	0.757570
Mg71	Mg7	0.026280	0.821180	0.868760
Mg81	Mg8	0.102840	0.224890	0.374090
Mg91	Mg9	0.425540	0.580840	0.809880
Mg101	Mg10	0.313210	0.414050	0.257570
Mg111	Mg11	0.283780	0.321180	0.368760
Mg121	Mg12	0.298180	0.724890	0.874090
Mg131	Mg13	0.816260	0.919160	0.690120
Mg141	Mg14	0.984830	0.085950	0.242430
Mg151	Mg15	0.973720	0.178820	0.131240
Mg161	Mg16	0.897160	0.775110	0.625910
H11	H1	0.704300	0.501200	0.010600
H21	H2	0.575900	0.519800	0.020800
H31	H3	0.735100	0.395800	0.965000
H41	H4	0.607100	0.410100	0.977500
H51	H5	0.715200	0.508100	0.909300
H61	H6	0.585500	0.531100	0.925900
H71	H7	0.587000	0.435800	0.879000
H81	H8	0.716300	0.398700	0.869900
H91	H9	0.499600	0.283100	0.089900
H101	H10	0.508900	0.213400	0.133600
H111	H11	0.365800	0.242200	0.085000
H121	H12	0.302800	0.314500	0.118900
H131	H13	0.359500	0.164800	0.166600
H141	H14	0.286700	0.238700	0.197700
H151	H15	0.150300	0.258300	0.151500
H161	H16	0.223300	0.185800	0.119000
H171	H17	0.859600	0.392900	0.637500
H181	H18	0.768000	0.428000	0.603400
H191	H19	0.984200	0.435600	0.572400
H201	H20	0.892400	0.485900	0.540900
H211	H21	0.880100	0.378000	0.514000
H221	H22	0.962400	0.324600	0.549800
H231	H23	0.025400	0.422900	0.463500
H241	H24	0.105000	0.358500	0.495500
H251	H25	0.945300	0.527000	0.727400
H261	H26	0.893900	0.578500	0.777100
H271	H27	0.091300	0.520800	0.755400
H281	H28	0.090900	0.581900	0.705500
H291	H29	0.021700	0.680600	0.761400
H301	H30	0.000800	0.625200	0.813000
H311	H31	0.213300	0.621000	0.750600
H321	H32	0.194800	0.562300	0.800300
H331	H33	0.216100	0.998800	0.489400
H341	H34	0.116500	0.980200	0.479200
H351	H35	0.095900	0.104200	0.535000
H361	H36	0.994700	0.089900	0.522500
H371	H37	0.132600	0.991900	0.590700
H381	H38	0.042500	0.968900	0.574100
H391	H39	0.901800	0.064200	0.621000
H401	H40	0.984900	0.101300	0.630100
H411	H41	0.872600	0.216900	0.410100
H421	H42	0.855900	0.286600	0.366400
H431	H43	0.693000	0.257800	0.415000
H441	H44	0.736200	0.185500	0.381100
H451	H45	0.690900	0.335200	0.333400
H461	H46	0.723100	0.261300	0.302300
H471	H47	0.560100	0.241700	0.348500
H481	H48	0.528100	0.314200	0.381000
H491	H49	0.890000	0.107100	0.862500
H501	H50	0.799400	0.072000	0.896600
H511	H51	0.992200	0.064400	0.927600
H521	H52	0.919200	0.014100	0.959100
H531	H53	0.772100	0.122000	0.986000
H541	H54	0.836800	0.175400	0.950200
H551	H55	0.911800	0.077100	0.036500
H561	H56	0.959000	0.141500	0.004500
H571	H57	0.199700	0.973000	0.772600
H581	H58	0.249500	0.921500	0.722900
H591	H59	0.367500	0.979200	0.744600
H601	H60	0.378300	0.918100	0.794500
H611	H61	0.463700	0.819400	0.738600
H621	H62	0.439000	0.874800	0.687000
H631	H63	0.584900	0.879000	0.749400
H641	H64	0.557400	0.937700	0.699700
H651	H65	0.295700	0.498800	0.989400
H661	H66	0.424100	0.480200	0.979200
H671	H67	0.264900	0.604200	0.035000
H681	H68	0.392900	0.589900	0.022500
H691	H69	0.284800	0.491900	0.090700
H701	H70	0.414500	0.468900	0.074100
H711	H71	0.413000	0.564200	0.121000
H721	H72	0.283700	0.601300	0.130100
H731	H73	0.500400	0.716900	0.910100
H741	H74	0.491100	0.786600	0.866400
H751	H75	0.634200	0.757800	0.915000
H761	H76	0.697200	0.685500	0.881100
H771	H77	0.640500	0.835200	0.833400
H781	H78	0.713300	0.761300	0.802300
H791	H79	0.849700	0.741700	0.848500
H801	H80	0.776700	0.814200	0.881000
H811	H81	0.140400	0.607100	0.362500
H821	H82	0.232000	0.572000	0.396600
H831	H83	0.015800	0.564400	0.427600
H841	H84	0.107600	0.514100	0.459100
H851	H85	0.119900	0.622000	0.486000
H861	H86	0.037600	0.675400	0.450200
H871	H87	0.974600	0.577100	0.536500
H881	H88	0.895000	0.641500	0.504500
H891	H89	0.054700	0.473000	0.272600
H901	H90	0.106100	0.421500	0.222900
H911	H91	0.908700	0.479200	0.244600
H921	H92	0.909100	0.418100	0.294500
H931	H93	0.978300	0.319400	0.238600
H941	H94	0.999200	0.374800	0.187000
H951	H95	0.786700	0.379000	0.249400
H961	H96	0.805200	0.437700	0.199700
H971	H97	0.783900	0.001200	0.510600
H981	H98	0.883500	0.019800	0.520800
H991	H99	0.904100	0.895800	0.465000
H1001	H100	0.005300	0.910100	0.477500
H1011	H101	0.867400	0.008100	0.409300
H1021	H102	0.957500	0.031100	0.425900
H1031	H103	0.098200	0.935800	0.379000
H1041	H104	0.015100	0.898700	0.369900
H1051	H105	0.127400	0.783100	0.589900
H1061	H106	0.144100	0.713400	0.633600
H1071	H107	0.307000	0.742200	0.585000
H1081	H108	0.263800	0.814500	0.618900
H1091	H109	0.309100	0.664800	0.666600
H1101	H110	0.276900	0.738700	0.697700
H1111	H111	0.439900	0.758300	0.651500
H1121	H112	0.471900	0.685800	0.619000
H1131	H113	0.110000	0.892900	0.137500
H1141	H114	0.200600	0.928000	0.103400
H1151	H115	0.007800	0.935600	0.072400
H1161	H116	0.080800	0.985900	0.040900
H1171	H117	0.227900	0.878000	0.014000
H1181	H118	0.163200	0.824600	0.049800
H1191	H119	0.088200	0.922900	0.963500
H1201	H120	0.041000	0.858500	0.995500
H1211	H121	0.800300	0.027000	0.227400
H1221	H122	0.750500	0.078500	0.277100
H1231	H123	0.632500	0.020800	0.255400
H1241	H124	0.621700	0.081900	0.205500
H1251	H125	0.536300	0.180600	0.261400
H1261	H126	0.561000	0.125200	0.313000
H1271	H127	0.415100	0.121000	0.250600
H1281	H128	0.442600	0.062300	0.300300
C11	C1	0.647500	0.429100	0.070900
C21	C2	0.646260	0.478280	0.017400
C31	C3	0.662600	0.435300	0.970300
C41	C4	0.653900	0.488000	0.919000
C51	C5	0.655700	0.447100	0.872300
C61	C6	0.668820	0.493460	0.820900
C71	C7	0.459130	0.314140	0.166000
C81	C8	0.462900	0.265500	0.125100
C91	C9	0.354700	0.262600	0.119600
C101	C10	0.305170	0.215460	0.163400
C111	C11	0.204600	0.207400	0.154000
C121	C12	0.152340	0.158820	0.195900
C131	C13	0.786640	0.507720	0.642200
C141	C14	0.829360	0.435980	0.613100
C151	C15	0.917380	0.437640	0.562200
C161	C16	0.944520	0.372860	0.527700
C171	C17	0.038490	0.371720	0.481500
C181	C18	0.058350	0.316500	0.440600
C191	C19	0.881700	0.641000	0.704200
C201	C20	0.939500	0.574900	0.740300
C211	C21	0.051200	0.572200	0.742200
C221	C22	0.050060	0.629080	0.777800
C231	C23	0.165600	0.615100	0.785900
C241	C24	0.170800	0.667100	0.822900
C251	C25	0.147500	0.070900	0.429100
C261	C26	0.141940	0.021720	0.482600
C271	C27	0.068200	0.064700	0.529700
C281	C28	0.060900	0.012000	0.581000
C291	C29	0.975100	0.052900	0.627700
C301	C30	0.983180	0.006540	0.679100
C311	C31	0.939270	0.185860	0.334000
C321	C32	0.853500	0.234500	0.374900
C331	C33	0.736900	0.237400	0.380400
C341	C34	0.684030	0.284540	0.336600
C351	C35	0.566000	0.292600	0.346000
C361	C36	0.507060	0.341180	0.304100
C371	C37	0.936560	0.992280	0.857800
C381	C38	0.878440	0.064020	0.886900
C391	C39	0.917220	0.062360	0.937800
C401	C40	0.845080	0.127140	0.972300
C411	C41	0.891710	0.128280	0.018500
C421	C42	0.815450	0.183500	0.059400
C431	C43	0.226900	0.859000	0.795800
C441	C44	0.254700	0.925100	0.759700
C451	C45	0.365600	0.927800	0.757800
C461	C46	0.456940	0.870920	0.722200
C471	C47	0.566600	0.884900	0.714100
C481	C48	0.660800	0.832900	0.677100
C491	C49	0.352500	0.570900	0.929100
C501	C50	0.353740	0.521720	0.982600
C511	C51	0.337400	0.564700	0.029700
C521	C52	0.346100	0.512000	0.081000
C531	C53	0.344300	0.552900	0.127700
C541	C54	0.331180	0.506540	0.179100
C551	C55	0.540870	0.685860	0.834000
C561	C56	0.537100	0.734500	0.874900
C571	C57	0.645300	0.737400	0.880400
C581	C58	0.694830	0.784540	0.836600
C591	C59	0.795400	0.792600	0.846000
C601	C60	0.847660	0.841180	0.804100
C611	C61	0.213360	0.492280	0.357800
C621	C62	0.170640	0.564020	0.386900
C631	C63	0.082620	0.562360	0.437800
C641	C64	0.055480	0.627140	0.472300
C651	C65	0.961510	0.628280	0.518500
C661	C66	0.941650	0.683500	0.559400
C671	C67	0.118300	0.359000	0.295800
C681	C68	0.060500	0.425100	0.259700
C691	C69	0.948800	0.427800	0.257800
C701	C70	0.949940	0.370920	0.222200
C711	C71	0.834400	0.384900	0.214100
C721	C72	0.829200	0.332900	0.177100
C731	C73	0.852500	0.929100	0.570900
C741	C74	0.858060	0.978280	0.517400
C751	C75	0.931800	0.935300	0.470300
C761	C76	0.939100	0.988000	0.419000
C771	C77	0.024900	0.947100	0.372300
C781	C78	0.016820	0.993460	0.320900
C791	C79	0.060730	0.814140	0.666000
C801	C80	0.146500	0.765500	0.625100
C811	C81	0.263100	0.762600	0.619600
C821	C82	0.315970	0.715460	0.663400
C831	C83	0.434000	0.707400	0.654000
C841	C84	0.492940	0.658820	0.695900
C851	C85	0.063440	0.007720	0.142200
C861	C86	0.121560	0.935980	0.113100
C871	C87	0.082780	0.937640	0.062200
C881	C88	0.154920	0.872860	0.027700
C891	C89	0.108290	0.871720	0.981500
C901	C90	0.184550	0.816500	0.940600
C911	C91	0.773100	0.141000	0.204200
C921	C92	0.745300	0.074900	0.240300
C931	C93	0.634400	0.072200	0.242200
C941	C94	0.543060	0.129080	0.277800
C951	C95	0.433400	0.115100	0.285900
C961	C96	0.339200	0.167100	0.322900
O11	O1	0.605520	0.463400	0.112760
O21	O2	0.689160	0.359420	0.067660
O31	O3	0.590590	0.523910	0.796310
O41	O4	0.756730	0.506430	0.802110
O51	O5	0.544600	0.330470	0.163530
O61	O6	0.373030	0.337710	0.200230
O71	O7	0.193820	0.129880	0.235280
O81	O8	0.066860	0.149770	0.189110
O91	O9	0.754310	0.500790	0.691990
O101	O10	0.782870	0.568700	0.613960
O111	O11	0.155400	0.289750	0.412650
O121	O12	0.985450	0.295890	0.435210
O131	O13	0.789170	0.644300	0.699760
O141	O14	0.929580	0.685540	0.680900
O151	O15	0.084730	0.712740	0.846400
O161	O16	0.264090	0.660590	0.828230
O171	O17	0.181680	0.036600	0.387240
O181	O18	0.116240	0.140580	0.432340
O191	O19	0.910810	0.976090	0.703690
O201	O20	0.065270	0.993570	0.697890
O211	O21	0.038600	0.169530	0.336470
O221	O22	0.910970	0.162290	0.299770
O231	O23	0.558980	0.370120	0.264720
O241	O24	0.405740	0.350230	0.310890
O251	O25	0.947090	0.999210	0.808010
O261	O26	0.965530	0.931300	0.886040
O271	O27	0.857800	0.210250	0.087350
O281	O28	0.716550	0.204110	0.064790
O291	O29	0.133230	0.855700	0.800240
O301	O30	0.296020	0.814460	0.819100
O311	O31	0.643870	0.787260	0.653600
O321	O32	0.752910	0.839410	0.671770
O331	O33	0.394480	0.536600	0.887240
O341	O34	0.310840	0.640580	0.932340
O351	O35	0.409410	0.476090	0.203690
O361	O36	0.243270	0.493570	0.197890
O371	O37	0.455400	0.669530	0.836470
O381	O38	0.626970	0.662290	0.799770
O391	O39	0.806180	0.870120	0.764720
O401	O40	0.933140	0.850230	0.810890
O411	O41	0.245690	0.499210	0.308010
O421	O42	0.217130	0.431300	0.386040
O431	O43	0.844600	0.710250	0.587350
O441	O44	0.014550	0.704110	0.564790
O451	O45	0.210830	0.355700	0.300240
O461	O46	0.070420	0.314460	0.319100
O471	O47	0.915270	0.287260	0.153600
O481	O48	0.735910	0.339410	0.171770
O491	O49	0.818320	0.963400	0.612760
O501	O50	0.883760	0.859420	0.567660
O511	O51	0.089190	0.023910	0.296310
O521	O52	0.934730	0.006430	0.302110
O531	O53	0.961400	0.830470	0.663530
O541	O54	0.089030	0.837710	0.700230
O551	O55	0.441020	0.629880	0.735280
O561	O56	0.594260	0.649770	0.689110
O571	O57	0.052910	0.000790	0.191990
O581	O58	0.034470	0.068700	0.113960
O591	O59	0.142200	0.789750	0.912650
O601	O60	0.283450	0.795890	0.935210
O611	O61	0.866770	0.144300	0.199760
O621	O62	0.703980	0.185540	0.180900
O631	O63	0.356130	0.212740	0.346400
O641	O64	0.247090	0.160590	0.328230
