data_IFEHUY_clean_PM
_symmetry_space_group_name_H-M	'P1'
_cell_length_a	15.483900
_cell_length_b	16.354100
_cell_length_c	16.354100
_cell_angle_alpha	69.476100
_cell_angle_beta	71.603200
_cell_angle_gamma	108.397000
_symmetry_Int_Tables_number 1

loop_
_symmetry_equiv_pos_as_xyz
'x,y,z'

loop_
_atom_site_label
_atom_site_type_symbol
_atom_site_fract_x
_atom_site_fract_y
_atom_site_fract_z
Mn11	Mn1	0.592210	0.684420	0.657790
Mn21	Mn2	0.250000	0.657790	0.657790
Mn31	Mn3	0.907790	0.657790	0.684420
Mn41	Mn4	0.407790	0.315580	0.342210
Mn51	Mn5	0.750000	0.342210	0.342210
Mn61	Mn6	0.092210	0.342210	0.315580
Mn71	Mn7	0.750000	0.592840	0.592840
Mn81	Mn8	0.342840	0.592840	0.814320
Mn91	Mn9	0.157160	0.814320	0.592840
Mn101	Mn10	0.250000	0.407160	0.407160
Mn111	Mn11	0.657160	0.407160	0.185680
Mn121	Mn12	0.842840	0.185680	0.407160
H11	H1	0.617200	0.439300	0.973800
H21	H2	0.591000	0.973800	0.586900
H31	H3	0.177900	0.586900	0.439300
H41	H4	0.909000	0.586900	0.973800
H51	H5	0.322100	0.439300	0.586900
H61	H6	0.882800	0.973800	0.439300
H71	H7	0.382800	0.560700	0.026200
H81	H8	0.409000	0.026200	0.413100
H91	H9	0.822100	0.413100	0.560700
H101	H10	0.091000	0.413100	0.026200
H111	H11	0.677900	0.560700	0.413100
H121	H12	0.117200	0.026200	0.560700
C11	C1	0.576670	0.537980	0.903460
C21	C2	0.662040	0.572590	0.803250
C31	C3	0.568950	0.463620	0.984920
C41	C4	0.507260	0.576580	0.917520
C51	C5	0.480130	0.903460	0.558560
C61	C6	0.465290	0.803250	0.624160
C71	C7	0.553870	0.984920	0.551460
C81	C8	0.424780	0.917520	0.505900
C91	C9	0.038690	0.558560	0.537980
C101	C10	0.089450	0.624160	0.572590
C111	C11	0.105330	0.551460	0.463620
C121	C12	0.930680	0.505900	0.576580
C131	C13	0.019870	0.558560	0.903460
C141	C14	0.034710	0.624160	0.803250
C151	C15	0.946130	0.551460	0.984920
C161	C16	0.075220	0.505900	0.917520
C171	C17	0.461310	0.537980	0.558560
C181	C18	0.410550	0.572590	0.624160
C191	C19	0.394670	0.463620	0.551460
C201	C20	0.569320	0.576580	0.505900
C211	C21	0.923330	0.903460	0.537980
C221	C22	0.837960	0.803250	0.572590
C231	C23	0.931050	0.984920	0.463620
C241	C24	0.992740	0.917520	0.576580
C251	C25	0.423330	0.462020	0.096540
C261	C26	0.337960	0.427410	0.196750
C271	C27	0.431050	0.536380	0.015080
C281	C28	0.492740	0.423420	0.082480
C291	C29	0.519870	0.096540	0.441440
C301	C30	0.534710	0.196750	0.375840
C311	C31	0.446130	0.015080	0.448540
C321	C32	0.575220	0.082480	0.494100
C331	C33	0.961310	0.441440	0.462020
C341	C34	0.910550	0.375840	0.427410
C351	C35	0.894670	0.448540	0.536380
C361	C36	0.069320	0.494100	0.423420
C371	C37	0.980130	0.441440	0.096540
C381	C38	0.965290	0.375840	0.196750
C391	C39	0.053870	0.448540	0.015080
C401	C40	0.924780	0.494100	0.082480
C411	C41	0.538690	0.462020	0.441440
C421	C42	0.589450	0.427410	0.375840
C431	C43	0.605330	0.536380	0.448540
C441	C44	0.430680	0.423420	0.494100
C451	C45	0.076670	0.096540	0.462020
C461	C46	0.162040	0.196750	0.427410
C471	C47	0.068950	0.015080	0.536380
C481	C48	0.007260	0.082480	0.423420
S11	S1	0.514290	0.676010	0.821150
S21	S2	0.335440	0.821160	0.502840
S31	S3	0.838280	0.502840	0.676010
S41	S4	0.164560	0.502840	0.821150
S51	S5	0.661720	0.676010	0.502840
S61	S6	0.985710	0.821150	0.676010
S71	S7	0.485710	0.323990	0.178850
S81	S8	0.664560	0.178850	0.497160
S91	S9	0.161720	0.497160	0.323990
S101	S10	0.835440	0.497160	0.178850
S111	S11	0.338280	0.324000	0.497160
S121	S12	0.014280	0.178840	0.324000
O11	O1	0.639160	0.573400	0.734070
O21	O2	0.750080	0.594650	0.795220
O31	O3	0.373230	0.734070	0.692530
O41	O4	0.545300	0.795220	0.610130
O51	O5	0.065760	0.692530	0.573400
O61	O6	0.155430	0.610130	0.594650
O71	O7	0.126770	0.692530	0.734070
O81	O8	0.954700	0.610130	0.795220
O91	O9	0.434240	0.573400	0.692530
O101	O10	0.344570	0.594650	0.610130
O111	O11	0.860840	0.734070	0.573400
O121	O12	0.749920	0.795220	0.594650
O131	O13	0.360840	0.426600	0.265930
O141	O14	0.249920	0.405350	0.204780
O151	O15	0.626770	0.265930	0.307470
O161	O16	0.454700	0.204780	0.389870
O171	O17	0.934240	0.307470	0.426600
O181	O18	0.844570	0.389870	0.405350
O191	O19	0.873230	0.307470	0.265930
O201	O20	0.045300	0.389870	0.204780
O211	O21	0.565760	0.426600	0.307470
O221	O22	0.655430	0.405350	0.389870
O231	O23	0.139160	0.265930	0.426600
O241	O24	0.250080	0.204780	0.405350
