data_IFEPIT_clean_PM
_symmetry_space_group_name_H-M	'P1'
_cell_length_a	9.242000
_cell_length_b	12.251900
_cell_length_c	14.483500
_cell_angle_alpha	94.953000
_cell_angle_beta	103.207000
_cell_angle_gamma	97.462000
_symmetry_Int_Tables_number 1

loop_
_symmetry_equiv_pos_as_xyz
'x,y,z'

loop_
_atom_site_label
_atom_site_type_symbol
_atom_site_fract_x
_atom_site_fract_y
_atom_site_fract_z
Gd11	Gd1	0.750590	0.253880	0.756860
Gd21	Gd2	0.249410	0.746120	0.243140
Re11	Re1	0.506320	0.613800	0.776130
Re21	Re2	0.358040	0.731430	0.877660
Re31	Re3	0.205040	0.585680	0.728160
Re41	Re4	0.361380	0.686510	0.616460
Re51	Re5	0.515280	0.832150	0.766390
Re61	Re6	0.213620	0.804200	0.717310
Re71	Re7	0.493680	0.386200	0.223870
Re81	Re8	0.641960	0.268570	0.122340
Re91	Re9	0.794960	0.414320	0.271840
Re101	Re10	0.638620	0.313490	0.383540
Re111	Re11	0.484720	0.167850	0.233610
Re121	Re12	0.786380	0.195800	0.282690
Te11	Te1	0.350250	0.512760	0.888980
Te21	Te2	0.661240	0.759790	0.927200
Te31	Te3	0.054140	0.704020	0.828860
Te41	Te4	0.351600	0.467600	0.624700
Te51	Te5	0.664980	0.714300	0.664110
Te61	Te6	0.367570	0.950830	0.868950
Te71	Te7	0.057240	0.656000	0.567120
Te81	Te8	0.374120	0.905640	0.606220
Te91	Te9	0.649750	0.487240	0.111020
Te101	Te10	0.338760	0.240210	0.072800
Te111	Te11	0.945860	0.295980	0.171140
Te121	Te12	0.648400	0.532400	0.375300
Te131	Te13	0.335020	0.285700	0.335890
Te141	Te14	0.632430	0.049170	0.131050
Te151	Te15	0.942760	0.344000	0.432880
Te161	Te16	0.625880	0.094360	0.393780
C11	C1	0.662400	0.506900	0.808800
C21	C2	0.352200	0.753500	0.021700
C31	C3	0.042000	0.447100	0.714600
C41	C4	0.361000	0.672500	0.472900
C51	C5	0.673800	0.974000	0.783200
C61	C6	0.053900	0.909700	0.677100
C71	C7	0.337600	0.493100	0.191200
C81	C8	0.647800	0.246500	0.978300
C91	C9	0.958000	0.552900	0.285400
C101	C10	0.639000	0.327500	0.527100
C111	C11	0.326200	0.026000	0.216800
C121	C12	0.946100	0.090300	0.322900
N11	N1	0.745400	0.443900	0.824100
N21	N2	0.343000	0.762600	0.098300
N31	N3	0.956500	0.369900	0.712300
N41	N4	0.356400	0.670700	0.391400
N51	N5	0.748100	0.058700	0.790700
N61	N6	0.969100	0.968700	0.653800
N71	N7	0.254600	0.556100	0.175900
N81	N8	0.657000	0.237400	0.901700
N91	N9	0.043500	0.630100	0.287700
N101	N10	0.643600	0.329300	0.608600
N111	N11	0.251900	0.941300	0.209300
N121	N12	0.030900	0.031300	0.346200
