data_IGAGAA_clean_PM
_symmetry_space_group_name_H-M	'P1'
_cell_length_a	15.613900
_cell_length_b	18.343900
_cell_length_c	34.336000
_cell_angle_alpha	90.000000
_cell_angle_beta	90.000000
_cell_angle_gamma	90.000000
_symmetry_Int_Tables_number 1

loop_
_symmetry_equiv_pos_as_xyz
'x,y,z'

loop_
_atom_site_label
_atom_site_type_symbol
_atom_site_fract_x
_atom_site_fract_y
_atom_site_fract_z
Co11	Co1	0.503790	0.610400	0.481580
N11	N1	0.676000	0.556800	0.508600
O11	O1	0.832300	0.589200	0.525890
C11	C1	0.720100	0.505500	0.527590
C21	C2	0.809300	0.527200	0.538100
O21	O2	0.740700	0.348300	0.562200
O31	O3	0.600200	0.341600	0.555700
N21	N2	0.588000	0.469200	0.521150
O41	O4	0.854300	0.487300	0.559760
C31	C3	0.670000	0.373800	0.552810
N31	N3	0.595700	0.534800	0.505290
C41	C4	0.664500	0.448800	0.535340
N41	N4	0.831000	0.380200	0.682500
C51	C5	0.809300	0.383400	0.645940
H11	H1	0.753100	0.390900	0.637800
Co21	Co2	0.503790	0.110400	0.981580
N51	N5	0.676000	0.056800	0.008600
O51	O5	0.832300	0.089200	0.025890
C61	C6	0.720100	0.005500	0.027590
C71	C7	0.809300	0.027200	0.038100
O61	O6	0.740700	0.848300	0.062200
O71	O7	0.600200	0.841600	0.055700
N61	N6	0.588000	0.969200	0.021150
O81	O8	0.854300	0.987300	0.059760
C81	C8	0.670000	0.873800	0.052810
N71	N7	0.595700	0.034800	0.005290
C91	C9	0.664500	0.948800	0.035340
N81	N8	0.831000	0.880200	0.182500
C101	C10	0.809300	0.883400	0.145940
H21	H2	0.753100	0.890900	0.137800
Co31	Co3	0.003790	0.610400	0.981580
N91	N9	0.176000	0.556800	0.008600
O91	O9	0.332300	0.589200	0.025890
C111	C11	0.220100	0.505500	0.027590
C121	C12	0.309300	0.527200	0.038100
O101	O10	0.240700	0.348300	0.062200
O111	O11	0.100200	0.341600	0.055700
N101	N10	0.088000	0.469200	0.021150
O121	O12	0.354300	0.487300	0.059760
C131	C13	0.170000	0.373800	0.052810
N111	N11	0.095700	0.534800	0.005290
C141	C14	0.164500	0.448800	0.035340
N121	N12	0.331000	0.380200	0.182500
C151	C15	0.309300	0.383400	0.145940
H31	H3	0.253100	0.390900	0.137800
Co41	Co4	0.003790	0.110400	0.481580
N131	N13	0.176000	0.056800	0.508600
O131	O13	0.332300	0.089200	0.525890
C161	C16	0.220100	0.005500	0.527590
C171	C17	0.309300	0.027200	0.538100
O141	O14	0.240700	0.848300	0.562200
O151	O15	0.100200	0.841600	0.555700
N141	N14	0.088000	0.969200	0.521150
O161	O16	0.354300	0.987300	0.559760
C181	C18	0.170000	0.873800	0.552810
N151	N15	0.095700	0.034800	0.505290
C191	C19	0.164500	0.948800	0.535340
N161	N16	0.331000	0.880200	0.682500
C201	C20	0.309300	0.883400	0.645940
H41	H4	0.253100	0.890900	0.637800
Co51	Co5	0.246210	0.139600	0.481580
N171	N17	0.074000	0.193200	0.508600
O171	O17	0.917700	0.160800	0.525890
C211	C21	0.029900	0.244500	0.527590
C221	C22	0.940700	0.222800	0.538100
O181	O18	0.009300	0.401700	0.562200
O191	O19	0.149800	0.408400	0.555700
N181	N18	0.162000	0.280800	0.521150
O201	O20	0.895700	0.262700	0.559760
C231	C23	0.080000	0.376200	0.552810
N191	N19	0.154300	0.215200	0.505290
C241	C24	0.085500	0.301200	0.535340
N201	N20	0.919000	0.369800	0.682500
C251	C25	0.940700	0.366600	0.645940
H51	H5	0.996900	0.359100	0.637800
Co61	Co6	0.246210	0.639600	0.981580
N211	N21	0.074000	0.693200	0.008600
O211	O21	0.917700	0.660800	0.025890
C261	C26	0.029900	0.744500	0.027590
C271	C27	0.940700	0.722800	0.038100
O221	O22	0.009300	0.901700	0.062200
O231	O23	0.149800	0.908400	0.055700
N221	N22	0.162000	0.780800	0.021150
O241	O24	0.895700	0.762700	0.059760
C281	C28	0.080000	0.876200	0.052810
N231	N23	0.154300	0.715200	0.005290
C291	C29	0.085500	0.801200	0.035340
N241	N24	0.919000	0.869800	0.182500
C301	C30	0.940700	0.866600	0.145940
H61	H6	0.996900	0.859100	0.137800
Co71	Co7	0.746210	0.139600	0.981580
N251	N25	0.574000	0.193200	0.008600
O251	O25	0.417700	0.160800	0.025890
C311	C31	0.529900	0.244500	0.027590
C321	C32	0.440700	0.222800	0.038100
O261	O26	0.509300	0.401700	0.062200
O271	O27	0.649800	0.408400	0.055700
N261	N26	0.662000	0.280800	0.021150
O281	O28	0.395700	0.262700	0.059760
C331	C33	0.580000	0.376200	0.052810
N271	N27	0.654300	0.215200	0.005290
C341	C34	0.585500	0.301200	0.035340
N281	N28	0.419000	0.369800	0.182500
C351	C35	0.440700	0.366600	0.145940
H71	H7	0.496900	0.359100	0.137800
Co81	Co8	0.746210	0.639600	0.481580
N291	N29	0.574000	0.693200	0.508600
O291	O29	0.417700	0.660800	0.525890
C361	C36	0.529900	0.744500	0.527590
C371	C37	0.440700	0.722800	0.538100
O301	O30	0.509300	0.901700	0.562200
O311	O31	0.649800	0.908400	0.555700
N301	N30	0.662000	0.780800	0.521150
O321	O32	0.395700	0.762700	0.559760
C381	C38	0.580000	0.876200	0.552810
N311	N31	0.654300	0.715200	0.505290
C391	C39	0.585500	0.801200	0.535340
N321	N32	0.419000	0.869800	0.682500
C401	C40	0.440700	0.866600	0.645940
H81	H8	0.496900	0.859100	0.637800
Co91	Co9	0.246210	0.610400	0.268420
N331	N33	0.074000	0.556800	0.241400
O331	O33	0.917700	0.589200	0.224110
C411	C41	0.029900	0.505500	0.222410
C421	C42	0.940700	0.527200	0.211900
O341	O34	0.009300	0.348300	0.187800
O351	O35	0.149800	0.341600	0.194300
N341	N34	0.162000	0.469200	0.228850
O361	O36	0.895700	0.487300	0.190240
C431	C43	0.080000	0.373800	0.197190
N351	N35	0.154300	0.534800	0.244710
C441	C44	0.085500	0.448800	0.214660
N361	N36	0.919000	0.380200	0.067500
C451	C45	0.940700	0.383400	0.104060
H91	H9	0.996900	0.390900	0.112200
Co101	Co10	0.246210	0.110400	0.768420
N371	N37	0.074000	0.056800	0.741400
O371	O37	0.917700	0.089200	0.724110
C461	C46	0.029900	0.005500	0.722410
C471	C47	0.940700	0.027200	0.711900
O381	O38	0.009300	0.848300	0.687800
O391	O39	0.149800	0.841600	0.694300
N381	N38	0.162000	0.969200	0.728850
O401	O40	0.895700	0.987300	0.690240
C481	C48	0.080000	0.873800	0.697190
N391	N39	0.154300	0.034800	0.744710
C491	C49	0.085500	0.948800	0.714660
N401	N40	0.919000	0.880200	0.567500
C501	C50	0.940700	0.883400	0.604060
H101	H10	0.996900	0.890900	0.612200
Co111	Co11	0.746210	0.610400	0.768420
N411	N41	0.574000	0.556800	0.741400
O411	O41	0.417700	0.589200	0.724110
C511	C51	0.529900	0.505500	0.722410
C521	C52	0.440700	0.527200	0.711900
O421	O42	0.509300	0.348300	0.687800
O431	O43	0.649800	0.341600	0.694300
N421	N42	0.662000	0.469200	0.728850
O441	O44	0.395700	0.487300	0.690240
C531	C53	0.580000	0.373800	0.697190
N431	N43	0.654300	0.534800	0.744710
C541	C54	0.585500	0.448800	0.714660
N441	N44	0.419000	0.380200	0.567500
C551	C55	0.440700	0.383400	0.604060
H111	H11	0.496900	0.390900	0.612200
Co121	Co12	0.746210	0.110400	0.268420
N451	N45	0.574000	0.056800	0.241400
O451	O45	0.417700	0.089200	0.224110
C561	C56	0.529900	0.005500	0.222410
C571	C57	0.440700	0.027200	0.211900
O461	O46	0.509300	0.848300	0.187800
O471	O47	0.649800	0.841600	0.194300
N461	N46	0.662000	0.969200	0.228850
O481	O48	0.395700	0.987300	0.190240
C581	C58	0.580000	0.873800	0.197190
N471	N47	0.654300	0.034800	0.244710
C591	C59	0.585500	0.948800	0.214660
N481	N48	0.419000	0.880200	0.067500
C601	C60	0.440700	0.883400	0.104060
H121	H12	0.496900	0.890900	0.112200
Co131	Co13	0.503790	0.139600	0.268420
N491	N49	0.676000	0.193200	0.241400
O491	O49	0.832300	0.160800	0.224110
C611	C61	0.720100	0.244500	0.222410
C621	C62	0.809300	0.222800	0.211900
O501	O50	0.740700	0.401700	0.187800
O511	O51	0.600200	0.408400	0.194300
N501	N50	0.588000	0.280800	0.228850
O521	O52	0.854300	0.262700	0.190240
C631	C63	0.670000	0.376200	0.197190
N511	N51	0.595700	0.215200	0.244710
C641	C64	0.664500	0.301200	0.214660
N521	N52	0.831000	0.369800	0.067500
C651	C65	0.809300	0.366600	0.104060
H131	H13	0.753100	0.359100	0.112200
Co141	Co14	0.503790	0.639600	0.768420
N531	N53	0.676000	0.693200	0.741400
O531	O53	0.832300	0.660800	0.724110
C661	C66	0.720100	0.744500	0.722410
C671	C67	0.809300	0.722800	0.711900
O541	O54	0.740700	0.901700	0.687800
O551	O55	0.600200	0.908400	0.694300
N541	N54	0.588000	0.780800	0.728850
O561	O56	0.854300	0.762700	0.690240
C681	C68	0.670000	0.876200	0.697190
N551	N55	0.595700	0.715200	0.744710
C691	C69	0.664500	0.801200	0.714660
N561	N56	0.831000	0.869800	0.567500
C701	C70	0.809300	0.866600	0.604060
H141	H14	0.753100	0.859100	0.612200
Co151	Co15	0.003790	0.139600	0.768420
N571	N57	0.176000	0.193200	0.741400
O571	O57	0.332300	0.160800	0.724110
C711	C71	0.220100	0.244500	0.722410
C721	C72	0.309300	0.222800	0.711900
O581	O58	0.240700	0.401700	0.687800
O591	O59	0.100200	0.408400	0.694300
N581	N58	0.088000	0.280800	0.728850
O601	O60	0.354300	0.262700	0.690240
C731	C73	0.170000	0.376200	0.697190
N591	N59	0.095700	0.215200	0.744710
C741	C74	0.164500	0.301200	0.714660
N601	N60	0.331000	0.369800	0.567500
C751	C75	0.309300	0.366600	0.604060
H151	H15	0.253100	0.359100	0.612200
Co161	Co16	0.003790	0.639600	0.268420
N611	N61	0.176000	0.693200	0.241400
O611	O61	0.332300	0.660800	0.224110
C761	C76	0.220100	0.744500	0.222410
C771	C77	0.309300	0.722800	0.211900
O621	O62	0.240700	0.901700	0.187800
O631	O63	0.100200	0.908400	0.194300
N621	N62	0.088000	0.780800	0.228850
O641	O64	0.354300	0.762700	0.190240
C781	C78	0.170000	0.876200	0.197190
N631	N63	0.095700	0.715200	0.244710
C791	C79	0.164500	0.801200	0.214660
N641	N64	0.331000	0.869800	0.067500
C801	C80	0.309300	0.866600	0.104060
H161	H16	0.253100	0.859100	0.112200
Co171	Co17	0.496210	0.389600	0.518420
N651	N65	0.324000	0.443200	0.491400
O651	O65	0.167700	0.410800	0.474110
C811	C81	0.279900	0.494500	0.472410
C821	C82	0.190700	0.472800	0.461900
O661	O66	0.259300	0.651700	0.437800
O671	O67	0.399800	0.658400	0.444300
N661	N66	0.412000	0.530800	0.478850
O681	O68	0.145700	0.512700	0.440240
C831	C83	0.330000	0.626200	0.447190
N671	N67	0.404300	0.465200	0.494710
C841	C84	0.335500	0.551200	0.464660
N681	N68	0.169000	0.619800	0.317500
C851	C85	0.190700	0.616600	0.354060
H171	H17	0.246900	0.609100	0.362200
Co181	Co18	0.496210	0.889600	0.018420
N691	N69	0.324000	0.943200	0.991400
O691	O69	0.167700	0.910800	0.974110
C861	C86	0.279900	0.994500	0.972410
C871	C87	0.190700	0.972800	0.961900
O701	O70	0.259300	0.151700	0.937800
O711	O71	0.399800	0.158400	0.944300
N701	N70	0.412000	0.030800	0.978850
O721	O72	0.145700	0.012700	0.940240
C881	C88	0.330000	0.126200	0.947190
N711	N71	0.404300	0.965200	0.994710
C891	C89	0.335500	0.051200	0.964660
N721	N72	0.169000	0.119800	0.817500
C901	C90	0.190700	0.116600	0.854060
H181	H18	0.246900	0.109100	0.862200
Co191	Co19	0.996210	0.389600	0.018420
N731	N73	0.824000	0.443200	0.991400
O731	O73	0.667700	0.410800	0.974110
C911	C91	0.779900	0.494500	0.972410
C921	C92	0.690700	0.472800	0.961900
O741	O74	0.759300	0.651700	0.937800
O751	O75	0.899800	0.658400	0.944300
N741	N74	0.912000	0.530800	0.978850
O761	O76	0.645700	0.512700	0.940240
C931	C93	0.830000	0.626200	0.947190
N751	N75	0.904300	0.465200	0.994710
C941	C94	0.835500	0.551200	0.964660
N761	N76	0.669000	0.619800	0.817500
C951	C95	0.690700	0.616600	0.854060
H191	H19	0.746900	0.609100	0.862200
Co201	Co20	0.996210	0.889600	0.518420
N771	N77	0.824000	0.943200	0.491400
O771	O77	0.667700	0.910800	0.474110
C961	C96	0.779900	0.994500	0.472410
C971	C97	0.690700	0.972800	0.461900
O781	O78	0.759300	0.151700	0.437800
O791	O79	0.899800	0.158400	0.444300
N781	N78	0.912000	0.030800	0.478850
O801	O80	0.645700	0.012700	0.440240
C981	C98	0.830000	0.126200	0.447190
N791	N79	0.904300	0.965200	0.494710
C991	C99	0.835500	0.051200	0.464660
N801	N80	0.669000	0.119800	0.317500
C1001	C100	0.690700	0.116600	0.354060
H201	H20	0.746900	0.109100	0.362200
Co211	Co21	0.753790	0.860400	0.518420
N811	N81	0.926000	0.806800	0.491400
O811	O81	0.082300	0.839200	0.474110
C1011	C101	0.970100	0.755500	0.472410
C1021	C102	0.059300	0.777200	0.461900
O821	O82	0.990700	0.598300	0.437800
O831	O83	0.850200	0.591600	0.444300
N821	N82	0.838000	0.719200	0.478850
O841	O84	0.104300	0.737300	0.440240
C1031	C103	0.920000	0.623800	0.447190
N831	N83	0.845700	0.784800	0.494710
C1041	C104	0.914500	0.698800	0.464660
N841	N84	0.081000	0.630200	0.317500
C1051	C105	0.059300	0.633400	0.354060
H211	H21	0.003100	0.640900	0.362200
Co221	Co22	0.753790	0.360400	0.018420
N851	N85	0.926000	0.306800	0.991400
O851	O85	0.082300	0.339200	0.974110
C1061	C106	0.970100	0.255500	0.972410
C1071	C107	0.059300	0.277200	0.961900
O861	O86	0.990700	0.098300	0.937800
O871	O87	0.850200	0.091600	0.944300
N861	N86	0.838000	0.219200	0.978850
O881	O88	0.104300	0.237300	0.940240
C1081	C108	0.920000	0.123800	0.947190
N871	N87	0.845700	0.284800	0.994710
C1091	C109	0.914500	0.198800	0.964660
N881	N88	0.081000	0.130200	0.817500
C1101	C110	0.059300	0.133400	0.854060
H221	H22	0.003100	0.140900	0.862200
Co231	Co23	0.253790	0.860400	0.018420
N891	N89	0.426000	0.806800	0.991400
O891	O89	0.582300	0.839200	0.974110
C1111	C111	0.470100	0.755500	0.972410
C1121	C112	0.559300	0.777200	0.961900
O901	O90	0.490700	0.598300	0.937800
O911	O91	0.350200	0.591600	0.944300
N901	N90	0.338000	0.719200	0.978850
O921	O92	0.604300	0.737300	0.940240
C1131	C113	0.420000	0.623800	0.947190
N911	N91	0.345700	0.784800	0.994710
C1141	C114	0.414500	0.698800	0.964660
N921	N92	0.581000	0.630200	0.817500
C1151	C115	0.559300	0.633400	0.854060
H231	H23	0.503100	0.640900	0.862200
Co241	Co24	0.253790	0.360400	0.518420
N931	N93	0.426000	0.306800	0.491400
O931	O93	0.582300	0.339200	0.474110
C1161	C116	0.470100	0.255500	0.472410
C1171	C117	0.559300	0.277200	0.461900
O941	O94	0.490700	0.098300	0.437800
O951	O95	0.350200	0.091600	0.444300
N941	N94	0.338000	0.219200	0.478850
O961	O96	0.604300	0.237300	0.440240
C1181	C118	0.420000	0.123800	0.447190
N951	N95	0.345700	0.284800	0.494710
C1191	C119	0.414500	0.198800	0.464660
N961	N96	0.581000	0.130200	0.317500
C1201	C120	0.559300	0.133400	0.354060
H241	H24	0.503100	0.140900	0.362200
Co251	Co25	0.753790	0.389600	0.731580
N971	N97	0.926000	0.443200	0.758600
O971	O97	0.082300	0.410800	0.775890
C1211	C121	0.970100	0.494500	0.777590
C1221	C122	0.059300	0.472800	0.788100
O981	O98	0.990700	0.651700	0.812200
O991	O99	0.850200	0.658400	0.805700
N981	N98	0.838000	0.530800	0.771150
O1001	O100	0.104300	0.512700	0.809760
C1231	C123	0.920000	0.626200	0.802810
N991	N99	0.845700	0.465200	0.755290
C1241	C124	0.914500	0.551200	0.785340
N1001	N100	0.081000	0.619800	0.932500
C1251	C125	0.059300	0.616600	0.895940
H251	H25	0.003100	0.609100	0.887800
Co261	Co26	0.753790	0.889600	0.231580
N1011	N101	0.926000	0.943200	0.258600
O1011	O101	0.082300	0.910800	0.275890
C1261	C126	0.970100	0.994500	0.277590
C1271	C127	0.059300	0.972800	0.288100
O1021	O102	0.990700	0.151700	0.312200
O1031	O103	0.850200	0.158400	0.305700
N1021	N102	0.838000	0.030800	0.271150
O1041	O104	0.104300	0.012700	0.309760
C1281	C128	0.920000	0.126200	0.302810
N1031	N103	0.845700	0.965200	0.255290
C1291	C129	0.914500	0.051200	0.285340
N1041	N104	0.081000	0.119800	0.432500
C1301	C130	0.059300	0.116600	0.395940
H261	H26	0.003100	0.109100	0.387800
Co271	Co27	0.253790	0.389600	0.231580
N1051	N105	0.426000	0.443200	0.258600
O1051	O105	0.582300	0.410800	0.275890
C1311	C131	0.470100	0.494500	0.277590
C1321	C132	0.559300	0.472800	0.288100
O1061	O106	0.490700	0.651700	0.312200
O1071	O107	0.350200	0.658400	0.305700
N1061	N106	0.338000	0.530800	0.271150
O1081	O108	0.604300	0.512700	0.309760
C1331	C133	0.420000	0.626200	0.302810
N1071	N107	0.345700	0.465200	0.255290
C1341	C134	0.414500	0.551200	0.285340
N1081	N108	0.581000	0.619800	0.432500
C1351	C135	0.559300	0.616600	0.395940
H271	H27	0.503100	0.609100	0.387800
Co281	Co28	0.253790	0.889600	0.731580
N1091	N109	0.426000	0.943200	0.758600
O1091	O109	0.582300	0.910800	0.775890
C1361	C136	0.470100	0.994500	0.777590
C1371	C137	0.559300	0.972800	0.788100
O1101	O110	0.490700	0.151700	0.812200
O1111	O111	0.350200	0.158400	0.805700
N1101	N110	0.338000	0.030800	0.771150
O1121	O112	0.604300	0.012700	0.809760
C1381	C138	0.420000	0.126200	0.802810
N1111	N111	0.345700	0.965200	0.755290
C1391	C139	0.414500	0.051200	0.785340
N1121	N112	0.581000	0.119800	0.932500
C1401	C140	0.559300	0.116600	0.895940
H281	H28	0.503100	0.109100	0.887800
Co291	Co29	0.496210	0.860400	0.731580
N1131	N113	0.324000	0.806800	0.758600
O1131	O113	0.167700	0.839200	0.775890
C1411	C141	0.279900	0.755500	0.777590
C1421	C142	0.190700	0.777200	0.788100
O1141	O114	0.259300	0.598300	0.812200
O1151	O115	0.399800	0.591600	0.805700
N1141	N114	0.412000	0.719200	0.771150
O1161	O116	0.145700	0.737300	0.809760
C1431	C143	0.330000	0.623800	0.802810
N1151	N115	0.404300	0.784800	0.755290
C1441	C144	0.335500	0.698800	0.785340
N1161	N116	0.169000	0.630200	0.932500
C1451	C145	0.190700	0.633400	0.895940
H291	H29	0.246900	0.640900	0.887800
Co301	Co30	0.496210	0.360400	0.231580
N1171	N117	0.324000	0.306800	0.258600
O1171	O117	0.167700	0.339200	0.275890
C1461	C146	0.279900	0.255500	0.277590
C1471	C147	0.190700	0.277200	0.288100
O1181	O118	0.259300	0.098300	0.312200
O1191	O119	0.399800	0.091600	0.305700
N1181	N118	0.412000	0.219200	0.271150
O1201	O120	0.145700	0.237300	0.309760
C1481	C148	0.330000	0.123800	0.302810
N1191	N119	0.404300	0.284800	0.255290
C1491	C149	0.335500	0.198800	0.285340
N1201	N120	0.169000	0.130200	0.432500
C1501	C150	0.190700	0.133400	0.395940
H301	H30	0.246900	0.140900	0.387800
Co311	Co31	0.996210	0.860400	0.231580
N1211	N121	0.824000	0.806800	0.258600
O1211	O121	0.667700	0.839200	0.275890
C1511	C151	0.779900	0.755500	0.277590
C1521	C152	0.690700	0.777200	0.288100
O1221	O122	0.759300	0.598300	0.312200
O1231	O123	0.899800	0.591600	0.305700
N1221	N122	0.912000	0.719200	0.271150
O1241	O124	0.645700	0.737300	0.309760
C1531	C153	0.830000	0.623800	0.302810
N1231	N123	0.904300	0.784800	0.255290
C1541	C154	0.835500	0.698800	0.285340
N1241	N124	0.669000	0.630200	0.432500
C1551	C155	0.690700	0.633400	0.395940
H311	H31	0.746900	0.640900	0.387800
Co321	Co32	0.996210	0.360400	0.731580
N1251	N125	0.824000	0.306800	0.758600
O1251	O125	0.667700	0.339200	0.775890
C1561	C156	0.779900	0.255500	0.777590
C1571	C157	0.690700	0.277200	0.788100
O1261	O126	0.759300	0.098300	0.812200
O1271	O127	0.899800	0.091600	0.805700
N1261	N126	0.912000	0.219200	0.771150
O1281	O128	0.645700	0.237300	0.809760
C1581	C158	0.830000	0.123800	0.802810
N1271	N127	0.904300	0.284800	0.755290
C1591	C159	0.835500	0.198800	0.785340
N1281	N128	0.669000	0.130200	0.932500
C1601	C160	0.690700	0.133400	0.895940
H321	H32	0.746900	0.140900	0.887800
Co331	Co33	0.875000	0.375000	0.560790
N1291	N129	0.875000	0.375000	0.620900
Co341	Co34	0.875000	0.875000	0.060790
N1301	N130	0.875000	0.875000	0.120900
Co351	Co35	0.375000	0.375000	0.060790
N1311	N131	0.375000	0.375000	0.120900
Co361	Co36	0.375000	0.875000	0.560790
N1321	N132	0.375000	0.875000	0.620900
Co371	Co37	0.875000	0.375000	0.189210
N1331	N133	0.875000	0.375000	0.129100
Co381	Co38	0.875000	0.875000	0.689210
N1341	N134	0.875000	0.875000	0.629100
Co391	Co39	0.375000	0.375000	0.689210
N1351	N135	0.375000	0.375000	0.629100
Co401	Co40	0.375000	0.875000	0.189210
N1361	N136	0.375000	0.875000	0.129100
Co411	Co41	0.125000	0.625000	0.439210
N1371	N137	0.125000	0.625000	0.379100
Co421	Co42	0.125000	0.125000	0.939210
N1381	N138	0.125000	0.125000	0.879100
Co431	Co43	0.625000	0.625000	0.939210
N1391	N139	0.625000	0.625000	0.879100
Co441	Co44	0.625000	0.125000	0.439210
N1401	N140	0.625000	0.125000	0.379100
Co451	Co45	0.125000	0.625000	0.810790
N1411	N141	0.125000	0.625000	0.870900
Co461	Co46	0.125000	0.125000	0.310790
N1421	N142	0.125000	0.125000	0.370900
Co471	Co47	0.625000	0.625000	0.310790
N1431	N143	0.625000	0.625000	0.370900
Co481	Co48	0.625000	0.125000	0.810790
N1441	N144	0.625000	0.125000	0.870900
