data_IGAHED02_clean_PM
_symmetry_space_group_name_H-M	'P1'
_cell_length_a	6.910400
_cell_length_b	7.425300
_cell_length_c	8.254400
_cell_angle_alpha	90.397000
_cell_angle_beta	109.835000
_cell_angle_gamma	93.137000
_symmetry_Int_Tables_number 1

loop_
_symmetry_equiv_pos_as_xyz
'x,y,z'

loop_
_atom_site_label
_atom_site_type_symbol
_atom_site_fract_x
_atom_site_fract_y
_atom_site_fract_z
Co11	Co1	0.000000	0.500000	0.000000
Co21	Co2	0.500000	0.000000	0.000000
H11	H1	0.442000	0.795000	0.547000
H21	H2	0.558000	0.205000	0.453000
C11	C1	0.535600	0.568100	0.666500
C21	C2	0.580400	0.392100	0.642000
C31	C3	0.456100	0.674500	0.524200
C41	C4	0.648000	0.259500	0.784700
C51	C5	0.574500	0.657000	0.839600
C61	C6	0.464400	0.431900	0.333500
C71	C7	0.419600	0.607900	0.358000
C81	C8	0.543900	0.325500	0.475800
C91	C9	0.352000	0.740500	0.215300
C101	C10	0.425500	0.343000	0.160400
O11	O1	0.444100	0.761900	0.850300
O21	O2	0.737000	0.629500	0.962300
O31	O3	0.829300	0.268200	0.888400
O41	O4	0.511700	0.143000	0.787700
O51	O5	0.555900	0.238100	0.149700
O61	O6	0.263000	0.370500	0.037700
O71	O7	0.170700	0.731800	0.111600
O81	O8	0.488300	0.857000	0.212300
