data_IGAHED01_clean_PM
_symmetry_space_group_name_H-M	'P1'
_cell_length_a	6.936200
_cell_length_b	7.455900
_cell_length_c	8.279700
_cell_angle_alpha	90.342000
_cell_angle_beta	109.848000
_cell_angle_gamma	93.161000
_symmetry_Int_Tables_number 1

loop_
_symmetry_equiv_pos_as_xyz
'x,y,z'

loop_
_atom_site_label
_atom_site_type_symbol
_atom_site_fract_x
_atom_site_fract_y
_atom_site_fract_z
Co11	Co1	0.000000	0.000000	0.500000
Co21	Co2	0.500000	0.500000	0.500000
H11	H1	0.575900	0.708800	0.960100
H21	H2	0.424100	0.291200	0.039900
C11	C1	0.647700	0.758900	0.284500
C21	C2	0.580700	0.891900	0.142600
C31	C3	0.536000	0.067700	0.166700
C41	C4	0.575400	0.156300	0.340400
C51	C5	0.545100	0.825900	0.976200
C61	C6	0.352300	0.241100	0.715500
C71	C7	0.419300	0.108100	0.857400
C81	C8	0.464000	0.932300	0.833300
C91	C9	0.424600	0.843700	0.659600
C101	C10	0.454900	0.174100	0.023800
O11	O1	0.830600	0.767500	0.388100
O21	O2	0.512500	0.642400	0.287700
O31	O3	0.735500	0.128300	0.462200
O41	O4	0.443000	0.262000	0.350100
O51	O5	0.169400	0.232500	0.611900
O61	O6	0.487500	0.357600	0.712300
O71	O7	0.264500	0.871700	0.537800
O81	O8	0.557000	0.738000	0.649900
