data_IGINIX01_clean_PM
_symmetry_space_group_name_H-M	'P1'
_cell_length_a	14.090700
_cell_length_b	12.143400
_cell_length_c	14.634500
_cell_angle_alpha	90.000000
_cell_angle_beta	106.053000
_cell_angle_gamma	90.000000
_symmetry_Int_Tables_number 1

loop_
_symmetry_equiv_pos_as_xyz
'x,y,z'

loop_
_atom_site_label
_atom_site_type_symbol
_atom_site_fract_x
_atom_site_fract_y
_atom_site_fract_z
Zn11	Zn1	0.196310	0.243170	0.074260
Zn21	Zn2	0.350120	0.021370	0.156460
O11	O1	0.288400	0.233110	0.976120
O21	O2	0.386730	0.092030	0.041200
O31	O3	0.608580	0.253420	0.672390
O41	O4	0.670700	0.098330	0.750100
O51	O5	0.322970	0.287720	0.175060
O61	O6	0.396550	0.136830	0.253120
O71	O7	0.674590	0.588960	0.515450
O81	O8	0.710460	0.431130	0.596320
N11	N1	0.538130	0.093020	0.844210
N21	N2	0.581020	0.320330	0.461200
C11	C1	0.475920	0.088810	0.898720
H11	H1	0.472800	0.022900	0.932700
C21	C2	0.415480	0.176550	0.908030
C31	C3	0.413400	0.267950	0.850940
H21	H2	0.370900	0.328100	0.852900
C41	C4	0.474740	0.270770	0.790230
H31	H3	0.473100	0.332100	0.749500
C51	C5	0.537910	0.183180	0.790210
C61	C6	0.357200	0.167960	0.981030
C71	C7	0.611790	0.178480	0.732400
C81	C8	0.517300	0.261990	0.394230
H41	H4	0.517600	0.184000	0.399700
C91	C9	0.450380	0.311020	0.316670
C101	C10	0.447590	0.425380	0.310730
H51	H5	0.400700	0.461200	0.260200
C111	C11	0.514400	0.486560	0.379900
H61	H6	0.514500	0.564700	0.377200
C121	C12	0.580950	0.430640	0.452860
C131	C13	0.383610	0.239770	0.241730
C141	C14	0.660550	0.491320	0.526390
Zn31	Zn3	0.303690	0.743170	0.425740
Zn41	Zn4	0.149880	0.521370	0.343540
O91	O9	0.211600	0.733110	0.523880
O101	O10	0.113270	0.592030	0.458800
O111	O11	0.891420	0.753420	0.827610
O121	O12	0.829300	0.598330	0.749900
O131	O13	0.177030	0.787720	0.324940
O141	O14	0.103450	0.636830	0.246880
O151	O15	0.825410	0.088960	0.984550
O161	O16	0.789540	0.931130	0.903680
N31	N3	0.961870	0.593020	0.655790
N41	N4	0.918980	0.820330	0.038800
C151	C15	0.024080	0.588810	0.601280
H71	H7	0.027200	0.522900	0.567300
C161	C16	0.084520	0.676550	0.591970
C171	C17	0.086600	0.767950	0.649060
H81	H8	0.129100	0.828100	0.647100
C181	C18	0.025260	0.770770	0.709770
H91	H9	0.026900	0.832100	0.750500
C191	C19	0.962090	0.683180	0.709790
C201	C20	0.142800	0.667960	0.518970
C211	C21	0.888210	0.678480	0.767600
C221	C22	0.982700	0.761990	0.105770
H101	H10	0.982400	0.684000	0.100300
C231	C23	0.049620	0.811020	0.183330
C241	C24	0.052410	0.925380	0.189270
H111	H11	0.099300	0.961200	0.239800
C251	C25	0.985600	0.986560	0.120100
H121	H12	0.985500	0.064700	0.122800
C261	C26	0.919050	0.930640	0.047140
C271	C27	0.116390	0.739770	0.258270
C281	C28	0.839450	0.991320	0.973610
Zn51	Zn5	0.803690	0.756830	0.925740
Zn61	Zn6	0.649880	0.978630	0.843540
O171	O17	0.711600	0.766890	0.023880
O181	O18	0.613270	0.907970	0.958800
O191	O19	0.391420	0.746580	0.327610
O201	O20	0.329300	0.901670	0.249900
O211	O21	0.677030	0.712280	0.824940
O221	O22	0.603450	0.863170	0.746880
O231	O23	0.325410	0.411040	0.484550
O241	O24	0.289540	0.568870	0.403680
N51	N5	0.461870	0.906980	0.155790
N61	N6	0.418980	0.679670	0.538800
C291	C29	0.524080	0.911190	0.101280
H131	H13	0.527200	0.977100	0.067300
C301	C30	0.584520	0.823450	0.091970
C311	C31	0.586600	0.732050	0.149060
H141	H14	0.629100	0.671900	0.147100
C321	C32	0.525260	0.729230	0.209770
H151	H15	0.526900	0.667900	0.250500
C331	C33	0.462090	0.816820	0.209790
C341	C34	0.642800	0.832040	0.018970
C351	C35	0.388210	0.821520	0.267600
C361	C36	0.482700	0.738010	0.605770
H161	H16	0.482400	0.816000	0.600300
C371	C37	0.549620	0.688980	0.683330
C381	C38	0.552410	0.574620	0.689270
H171	H17	0.599300	0.538800	0.739800
C391	C39	0.485600	0.513440	0.620100
H181	H18	0.485500	0.435300	0.622800
C401	C40	0.419050	0.569360	0.547140
C411	C41	0.616390	0.760230	0.758270
C421	C42	0.339450	0.508680	0.473610
Zn71	Zn7	0.696310	0.256830	0.574260
Zn81	Zn8	0.850120	0.478630	0.656460
O251	O25	0.788400	0.266890	0.476120
O261	O26	0.886730	0.407970	0.541200
O271	O27	0.108580	0.246580	0.172390
O281	O28	0.170700	0.401670	0.250100
O291	O29	0.822970	0.212280	0.675060
O301	O30	0.896550	0.363170	0.753120
O311	O31	0.174590	0.911040	0.015450
O321	O32	0.210460	0.068870	0.096320
N71	N7	0.038130	0.406980	0.344210
N81	N8	0.081020	0.179670	0.961200
C431	C43	0.975920	0.411190	0.398720
H191	H19	0.972800	0.477100	0.432700
C441	C44	0.915480	0.323450	0.408030
C451	C45	0.913400	0.232050	0.350940
H201	H20	0.870900	0.171900	0.352900
C461	C46	0.974740	0.229230	0.290230
H211	H21	0.973100	0.167900	0.249500
C471	C47	0.037910	0.316820	0.290210
C481	C48	0.857200	0.332040	0.481030
C491	C49	0.111790	0.321520	0.232400
C501	C50	0.017300	0.238010	0.894230
H221	H22	0.017600	0.316000	0.899700
C511	C51	0.950380	0.188980	0.816670
C521	C52	0.947590	0.074620	0.810730
H231	H23	0.900700	0.038800	0.760200
C531	C53	0.014400	0.013440	0.879900
H241	H24	0.014500	0.935300	0.877200
C541	C54	0.080950	0.069360	0.952860
C551	C55	0.883610	0.260230	0.741730
C561	C56	0.160550	0.008680	0.026390
