data_IGIZEF_clean_PM
_symmetry_space_group_name_H-M	'P1'
_cell_length_a	22.556100
_cell_length_b	17.436800
_cell_length_c	10.199500
_cell_angle_alpha	90.000000
_cell_angle_beta	109.402000
_cell_angle_gamma	90.000000
_symmetry_Int_Tables_number 1

loop_
_symmetry_equiv_pos_as_xyz
'x,y,z'

loop_
_atom_site_label
_atom_site_type_symbol
_atom_site_fract_x
_atom_site_fract_y
_atom_site_fract_z
Sr11	Sr1	0.338280	0.102700	0.528990
P11	P1	0.476580	0.156000	0.459820
P21	P2	0.609110	0.087300	0.579170
P31	P3	0.194280	0.179050	0.598320
P41	P4	0.191900	0.015260	0.472340
O11	O1	0.456680	0.128890	0.578900
O21	O2	0.457970	0.105580	0.332900
O31	O3	0.449300	0.239790	0.414800
H11	H1	0.414500	0.243500	0.423400
O41	O4	0.601130	0.066880	0.715800
O51	O5	0.594070	0.027820	0.467300
O61	O6	0.678460	0.115790	0.604000
H21	H2	0.692700	0.135100	0.681500
O71	O7	0.259730	0.011370	0.559600
O81	O8	0.163310	0.255860	0.552600
O91	O9	0.205360	0.142820	0.357900
H31	H3	0.213500	0.190000	0.356000
O101	O10	0.172540	0.979650	0.329700
O111	O11	0.165370	0.147850	0.708200
H41	H4	0.176800	0.103500	0.728100
O121	O12	0.149080	0.979170	0.551500
H51	H5	0.160300	0.995200	0.631600
O131	O13	0.265220	0.180410	0.652900
O141	O14	0.575970	0.205950	0.398900
H61	H6	0.565500	0.175500	0.334000
C11	C1	0.561280	0.174130	0.515600
C21	C2	0.577830	0.233880	0.632300
C31	C3	0.168670	0.116800	0.443900
C41	C4	0.097890	0.123020	0.367700
Sr21	Sr2	0.838280	0.602700	0.528990
P51	P5	0.976580	0.656000	0.459820
P61	P6	0.109110	0.587300	0.579170
P71	P7	0.694280	0.679050	0.598320
P81	P8	0.691900	0.515260	0.472340
O151	O15	0.956680	0.628890	0.578900
O161	O16	0.957970	0.605580	0.332900
O171	O17	0.949300	0.739790	0.414800
H71	H7	0.914500	0.743500	0.423400
O181	O18	0.101130	0.566880	0.715800
O191	O19	0.094070	0.527820	0.467300
O201	O20	0.178460	0.615790	0.604000
H81	H8	0.192700	0.635100	0.681500
O211	O21	0.759730	0.511370	0.559600
O221	O22	0.663310	0.755860	0.552600
O231	O23	0.705360	0.642820	0.357900
H91	H9	0.713500	0.690000	0.356000
O241	O24	0.672540	0.479650	0.329700
O251	O25	0.665370	0.647850	0.708200
H101	H10	0.676800	0.603500	0.728100
O261	O26	0.649080	0.479170	0.551500
H111	H11	0.660300	0.495200	0.631600
O271	O27	0.765220	0.680410	0.652900
O281	O28	0.075970	0.705950	0.398900
H121	H12	0.065500	0.675500	0.334000
C51	C5	0.061280	0.674130	0.515600
C61	C6	0.077830	0.733880	0.632300
C71	C7	0.668670	0.616800	0.443900
C81	C8	0.597890	0.623020	0.367700
Sr31	Sr3	0.661720	0.102700	0.971010
P91	P9	0.523420	0.156000	0.040180
P101	P10	0.390890	0.087300	0.920830
P111	P11	0.805720	0.179050	0.901680
P121	P12	0.808100	0.015260	0.027660
O291	O29	0.543320	0.128890	0.921100
O301	O30	0.542030	0.105580	0.167100
O311	O31	0.550700	0.239790	0.085200
H131	H13	0.585500	0.243500	0.076600
O321	O32	0.398870	0.066880	0.784200
O331	O33	0.405930	0.027820	0.032700
O341	O34	0.321540	0.115790	0.896000
H141	H14	0.307300	0.135100	0.818500
O351	O35	0.740270	0.011370	0.940400
O361	O36	0.836690	0.255860	0.947400
O371	O37	0.794640	0.142820	0.142100
H151	H15	0.786500	0.190000	0.144000
O381	O38	0.827460	0.979650	0.170300
O391	O39	0.834630	0.147850	0.791800
H161	H16	0.823200	0.103500	0.771900
O401	O40	0.850920	0.979170	0.948500
H171	H17	0.839700	0.995200	0.868400
O411	O41	0.734780	0.180410	0.847100
O421	O42	0.424030	0.205950	0.101100
H181	H18	0.434500	0.175500	0.166000
C91	C9	0.438720	0.174130	0.984400
C101	C10	0.422170	0.233880	0.867700
C111	C11	0.831330	0.116800	0.056100
C121	C12	0.902110	0.123020	0.132300
Sr41	Sr4	0.161720	0.602700	0.971010
P131	P13	0.023420	0.656000	0.040180
P141	P14	0.890890	0.587300	0.920830
P151	P15	0.305720	0.679050	0.901680
P161	P16	0.308100	0.515260	0.027660
O431	O43	0.043320	0.628890	0.921100
O441	O44	0.042030	0.605580	0.167100
O451	O45	0.050700	0.739790	0.085200
H191	H19	0.085500	0.743500	0.076600
O461	O46	0.898870	0.566880	0.784200
O471	O47	0.905930	0.527820	0.032700
O481	O48	0.821540	0.615790	0.896000
H201	H20	0.807300	0.635100	0.818500
O491	O49	0.240270	0.511370	0.940400
O501	O50	0.336690	0.755860	0.947400
O511	O51	0.294640	0.642820	0.142100
H211	H21	0.286500	0.690000	0.144000
O521	O52	0.327460	0.479650	0.170300
O531	O53	0.334630	0.647850	0.791800
H221	H22	0.323200	0.603500	0.771900
O541	O54	0.350920	0.479170	0.948500
H231	H23	0.339700	0.495200	0.868400
O551	O55	0.234780	0.680410	0.847100
O561	O56	0.924030	0.705950	0.101100
H241	H24	0.934500	0.675500	0.166000
C131	C13	0.938720	0.674130	0.984400
C141	C14	0.922170	0.733880	0.867700
C151	C15	0.331330	0.616800	0.056100
C161	C16	0.402110	0.623020	0.132300
Sr51	Sr5	0.661720	0.897300	0.471010
P171	P17	0.523420	0.844000	0.540180
P181	P18	0.390890	0.912700	0.420830
P191	P19	0.805720	0.820950	0.401680
P201	P20	0.808100	0.984740	0.527660
O571	O57	0.543320	0.871110	0.421100
O581	O58	0.542030	0.894420	0.667100
O591	O59	0.550700	0.760210	0.585200
H251	H25	0.585500	0.756500	0.576600
O601	O60	0.398870	0.933120	0.284200
O611	O61	0.405930	0.972180	0.532700
O621	O62	0.321540	0.884210	0.396000
H261	H26	0.307300	0.864900	0.318500
O631	O63	0.740270	0.988630	0.440400
O641	O64	0.836690	0.744140	0.447400
O651	O65	0.794640	0.857180	0.642100
H271	H27	0.786500	0.810000	0.644000
O661	O66	0.827460	0.020350	0.670300
O671	O67	0.834630	0.852150	0.291800
H281	H28	0.823200	0.896500	0.271900
O681	O68	0.850920	0.020830	0.448500
H291	H29	0.839700	0.004800	0.368400
O691	O69	0.734780	0.819590	0.347100
O701	O70	0.424030	0.794050	0.601100
H301	H30	0.434500	0.824500	0.666000
C171	C17	0.438720	0.825870	0.484400
C181	C18	0.422170	0.766120	0.367700
C191	C19	0.831330	0.883200	0.556100
C201	C20	0.902110	0.876980	0.632300
Sr61	Sr6	0.161720	0.397300	0.471010
P211	P21	0.023420	0.344000	0.540180
P221	P22	0.890890	0.412700	0.420830
P231	P23	0.305720	0.320950	0.401680
P241	P24	0.308100	0.484740	0.527660
O711	O71	0.043320	0.371110	0.421100
O721	O72	0.042030	0.394420	0.667100
O731	O73	0.050700	0.260210	0.585200
H311	H31	0.085500	0.256500	0.576600
O741	O74	0.898870	0.433120	0.284200
O751	O75	0.905930	0.472180	0.532700
O761	O76	0.821540	0.384210	0.396000
H321	H32	0.807300	0.364900	0.318500
O771	O77	0.240270	0.488630	0.440400
O781	O78	0.336690	0.244140	0.447400
O791	O79	0.294640	0.357180	0.642100
H331	H33	0.286500	0.310000	0.644000
O801	O80	0.327460	0.520350	0.670300
O811	O81	0.334630	0.352150	0.291800
H341	H34	0.323200	0.396500	0.271900
O821	O82	0.350920	0.520830	0.448500
H351	H35	0.339700	0.504800	0.368400
O831	O83	0.234780	0.319590	0.347100
O841	O84	0.924030	0.294050	0.601100
H361	H36	0.934500	0.324500	0.666000
C211	C21	0.938720	0.325870	0.484400
C221	C22	0.922170	0.266120	0.367700
C231	C23	0.331330	0.383200	0.556100
C241	C24	0.402110	0.376980	0.632300
Sr71	Sr7	0.338280	0.897300	0.028990
P251	P25	0.476580	0.844000	0.959820
P261	P26	0.609110	0.912700	0.079170
P271	P27	0.194280	0.820950	0.098320
P281	P28	0.191900	0.984740	0.972340
O851	O85	0.456680	0.871110	0.078900
O861	O86	0.457970	0.894420	0.832900
O871	O87	0.449300	0.760210	0.914800
H371	H37	0.414500	0.756500	0.923400
O881	O88	0.601130	0.933120	0.215800
O891	O89	0.594070	0.972180	0.967300
O901	O90	0.678460	0.884210	0.104000
H381	H38	0.692700	0.864900	0.181500
O911	O91	0.259730	0.988630	0.059600
O921	O92	0.163310	0.744140	0.052600
O931	O93	0.205360	0.857180	0.857900
H391	H39	0.213500	0.810000	0.856000
O941	O94	0.172540	0.020350	0.829700
O951	O95	0.165370	0.852150	0.208200
H401	H40	0.176800	0.896500	0.228100
O961	O96	0.149080	0.020830	0.051500
H411	H41	0.160300	0.004800	0.131600
O971	O97	0.265220	0.819590	0.152900
O981	O98	0.575970	0.794050	0.898900
H421	H42	0.565500	0.824500	0.834000
C251	C25	0.561280	0.825870	0.015600
C261	C26	0.577830	0.766120	0.132300
C271	C27	0.168670	0.883200	0.943900
C281	C28	0.097890	0.876980	0.867700
Sr81	Sr8	0.838280	0.397300	0.028990
P291	P29	0.976580	0.344000	0.959820
P301	P30	0.109110	0.412700	0.079170
P311	P31	0.694280	0.320950	0.098320
P321	P32	0.691900	0.484740	0.972340
O991	O99	0.956680	0.371110	0.078900
O1001	O100	0.957970	0.394420	0.832900
O1011	O101	0.949300	0.260210	0.914800
H431	H43	0.914500	0.256500	0.923400
O1021	O102	0.101130	0.433120	0.215800
O1031	O103	0.094070	0.472180	0.967300
O1041	O104	0.178460	0.384210	0.104000
H441	H44	0.192700	0.364900	0.181500
O1051	O105	0.759730	0.488630	0.059600
O1061	O106	0.663310	0.244140	0.052600
O1071	O107	0.705360	0.357180	0.857900
H451	H45	0.713500	0.310000	0.856000
O1081	O108	0.672540	0.520350	0.829700
O1091	O109	0.665370	0.352150	0.208200
H461	H46	0.676800	0.396500	0.228100
O1101	O110	0.649080	0.520830	0.051500
H471	H47	0.660300	0.504800	0.131600
O1111	O111	0.765220	0.319590	0.152900
O1121	O112	0.075970	0.294050	0.898900
H481	H48	0.065500	0.324500	0.834000
C291	C29	0.061280	0.325870	0.015600
C301	C30	0.077830	0.266120	0.132300
C311	C31	0.668670	0.383200	0.943900
C321	C32	0.597890	0.376980	0.867700
Sr91	Sr9	0.500000	0.013850	0.750000
Sr101	Sr10	0.000000	0.513850	0.750000
Sr111	Sr11	0.500000	0.986150	0.250000
Sr121	Sr12	0.000000	0.486150	0.250000
