data_IGUCET_clean_PM
_symmetry_space_group_name_H-M	'P1'
_cell_length_a	13.293000
_cell_length_b	13.782000
_cell_length_c	14.011000
_cell_angle_alpha	90.000000
_cell_angle_beta	90.000000
_cell_angle_gamma	90.000000
_symmetry_Int_Tables_number 1

loop_
_symmetry_equiv_pos_as_xyz
'x,y,z'

loop_
_atom_site_label
_atom_site_type_symbol
_atom_site_fract_x
_atom_site_fract_y
_atom_site_fract_z
Zn11	Zn1	0.371920	0.277030	0.244370
Zn21	Zn2	0.224900	0.631230	0.387230
Zn31	Zn3	0.373340	0.239630	0.494520
Zn41	Zn4	0.258070	0.374170	0.849830
Zn51	Zn5	0.065870	0.240410	0.367320
P11	P1	0.240840	0.392120	0.391040
P21	P2	0.387170	0.281590	0.014270
P31	P3	0.257480	0.110910	0.343270
P41	P4	0.107910	0.737930	0.225980
P51	P5	0.569310	0.258390	0.370840
O11	O1	0.359700	0.364900	0.947100
O21	O2	0.119800	0.651100	0.294600
O31	O3	0.224400	0.496800	0.425000
O41	O4	0.641300	0.341500	0.345600
O51	O5	0.261500	0.005300	0.308300
O61	O6	0.154300	0.129800	0.388400
O71	O7	0.263800	0.331500	0.481400
O81	O8	0.503000	0.291400	0.454700
O91	O9	0.307600	0.199900	0.007000
O101	O10	0.329000	0.388600	0.320600
O111	O11	0.492800	0.243800	0.987000
O121	O12	0.272600	0.176100	0.254900
O131	O13	0.342300	0.126600	0.416000
O141	O14	0.144200	0.356300	0.343300
O151	O15	0.628100	0.167000	0.399800
O161	O16	0.197700	0.807200	0.234500
O171	O17	0.506800	0.236000	0.282400
O181	O18	0.009500	0.788900	0.251700
O191	O19	0.101000	0.699900	0.124700
O201	O20	0.388600	0.320700	0.115900
Zn61	Zn6	0.628080	0.722970	0.244370
Zn71	Zn7	0.775100	0.368770	0.387230
Zn81	Zn8	0.626660	0.760370	0.494520
Zn91	Zn9	0.741930	0.625830	0.849830
Zn101	Zn10	0.934130	0.759590	0.367320
P61	P6	0.759160	0.607880	0.391040
P71	P7	0.612830	0.718410	0.014270
P81	P8	0.742520	0.889090	0.343270
P91	P9	0.892090	0.262070	0.225980
P101	P10	0.430690	0.741610	0.370840
O211	O21	0.640300	0.635100	0.947100
O221	O22	0.880200	0.348900	0.294600
O231	O23	0.775600	0.503200	0.425000
O241	O24	0.358700	0.658500	0.345600
O251	O25	0.738500	0.994700	0.308300
O261	O26	0.845700	0.870200	0.388400
O271	O27	0.736200	0.668500	0.481400
O281	O28	0.497000	0.708600	0.454700
O291	O29	0.692400	0.800100	0.007000
O301	O30	0.671000	0.611400	0.320600
O311	O31	0.507200	0.756200	0.987000
O321	O32	0.727400	0.823900	0.254900
O331	O33	0.657700	0.873400	0.416000
O341	O34	0.855800	0.643700	0.343300
O351	O35	0.371900	0.833000	0.399800
O361	O36	0.802300	0.192800	0.234500
O371	O37	0.493200	0.764000	0.282400
O381	O38	0.990500	0.211100	0.251700
O391	O39	0.899000	0.300100	0.124700
O401	O40	0.611400	0.679300	0.115900
Zn111	Zn11	0.871920	0.222970	0.744370
Zn121	Zn12	0.724900	0.868770	0.887230
Zn131	Zn13	0.873340	0.260370	0.994520
Zn141	Zn14	0.758070	0.125830	0.349830
Zn151	Zn15	0.565870	0.259590	0.867320
P111	P11	0.740840	0.107880	0.891040
P121	P12	0.887170	0.218410	0.514270
P131	P13	0.757480	0.389090	0.843270
P141	P14	0.607910	0.762070	0.725980
P151	P15	0.069310	0.241610	0.870840
O411	O41	0.859700	0.135100	0.447100
O421	O42	0.619800	0.848900	0.794600
O431	O43	0.724400	0.003200	0.925000
O441	O44	0.141300	0.158500	0.845600
O451	O45	0.761500	0.494700	0.808300
O461	O46	0.654300	0.370200	0.888400
O471	O47	0.763800	0.168500	0.981400
O481	O48	0.003000	0.208600	0.954700
O491	O49	0.807600	0.300100	0.507000
O501	O50	0.829000	0.111400	0.820600
O511	O51	0.992800	0.256200	0.487000
O521	O52	0.772600	0.323900	0.754900
O531	O53	0.842300	0.373400	0.916000
O541	O54	0.644200	0.143700	0.843300
O551	O55	0.128100	0.333000	0.899800
O561	O56	0.697700	0.692800	0.734500
O571	O57	0.006800	0.264000	0.782400
O581	O58	0.509500	0.711100	0.751700
O591	O59	0.601000	0.800100	0.624700
O601	O60	0.888600	0.179300	0.615900
Zn161	Zn16	0.128080	0.777030	0.744370
Zn171	Zn17	0.275100	0.131230	0.887230
Zn181	Zn18	0.126660	0.739630	0.994520
Zn191	Zn19	0.241930	0.874170	0.349830
Zn201	Zn20	0.434130	0.740410	0.867320
P161	P16	0.259160	0.892120	0.891040
P171	P17	0.112830	0.781590	0.514270
P181	P18	0.242520	0.610910	0.843270
P191	P19	0.392090	0.237930	0.725980
P201	P20	0.930690	0.758390	0.870840
O611	O61	0.140300	0.864900	0.447100
O621	O62	0.380200	0.151100	0.794600
O631	O63	0.275600	0.996800	0.925000
O641	O64	0.858700	0.841500	0.845600
O651	O65	0.238500	0.505300	0.808300
O661	O66	0.345700	0.629800	0.888400
O671	O67	0.236200	0.831500	0.981400
O681	O68	0.997000	0.791400	0.954700
O691	O69	0.192400	0.699900	0.507000
O701	O70	0.171000	0.888600	0.820600
O711	O71	0.007200	0.743800	0.487000
O721	O72	0.227400	0.676100	0.754900
O731	O73	0.157700	0.626600	0.916000
O741	O74	0.355800	0.856300	0.843300
O751	O75	0.871900	0.667000	0.899800
O761	O76	0.302300	0.307200	0.734500
O771	O77	0.993200	0.736000	0.782400
O781	O78	0.490500	0.288900	0.751700
O791	O79	0.399000	0.199900	0.624700
O801	O80	0.111400	0.820700	0.615900
