data_IGUCIY_clean_PM
_symmetry_space_group_name_H-M	'P1'
_cell_length_a	13.014000
_cell_length_b	23.695000
_cell_length_c	16.214000
_cell_angle_alpha	90.000000
_cell_angle_beta	107.040000
_cell_angle_gamma	90.000000
_symmetry_Int_Tables_number 1

loop_
_symmetry_equiv_pos_as_xyz
'x,y,z'

loop_
_atom_site_label
_atom_site_type_symbol
_atom_site_fract_x
_atom_site_fract_y
_atom_site_fract_z
Sm11	Sm1	0.752300	0.327920	0.677420
Sm21	Sm2	0.311760	0.326120	0.827400
Sm31	Sm3	0.526490	0.578740	0.752900
N11	N1	0.643700	0.316700	0.780300
N21	N2	0.502500	0.311300	0.832400
N31	N3	0.834900	0.290300	0.566900
N41	N4	0.849300	0.242700	0.449600
N51	N5	0.942300	0.349300	0.760200
N61	N6	0.121400	0.341400	0.817600
N71	N7	0.741700	0.424400	0.736600
N81	N8	0.664500	0.505500	0.758500
N91	N9	0.673100	0.390600	0.548600
N101	N10	0.598100	0.417200	0.411200
N111	N11	0.592000	0.269000	0.586300
N121	N12	0.484700	0.196200	0.538000
H11	H1	0.455000	0.162500	0.533600
N131	N13	0.317500	0.425900	0.782900
N141	N14	0.392100	0.508400	0.762600
N151	N15	0.244200	0.233900	0.755200
N161	N16	0.142600	0.155000	0.731100
N171	N17	0.287800	0.336700	0.660900
N181	N18	0.204200	0.349300	0.523600
H21	H2	0.154900	0.345400	0.473500
N191	N19	0.400200	0.651000	0.769300
N201	N20	0.308200	0.732500	0.744000
N211	N21	0.444400	0.580500	0.597900
N221	N22	0.361900	0.613800	0.463000
C11	C1	0.538600	0.305400	0.765400
H31	H3	0.493800	0.294000	0.710500
C21	C2	0.677200	0.328700	0.865800
H41	H4	0.748800	0.337700	0.897900
C31	C3	0.592300	0.325800	0.898400
H51	H5	0.594600	0.332600	0.956600
C41	C4	0.802200	0.247000	0.513400
H61	H6	0.749500	0.220900	0.519600
C51	C5	0.909500	0.317300	0.533700
H71	H7	0.948200	0.350600	0.556200
C61	C6	0.917400	0.288100	0.463900
H81	H8	0.963200	0.297700	0.430000
C71	C7	0.034800	0.328000	0.752200
H91	H9	0.038300	0.305500	0.704500
C81	C8	0.972500	0.377100	0.838800
H101	H10	0.926200	0.396700	0.864600
C91	C9	0.079800	0.371200	0.872000
H111	H11	0.120800	0.385900	0.926100
C101	C10	0.659900	0.448600	0.757500
H121	H12	0.604100	0.427800	0.770400
C111	C11	0.802400	0.469500	0.722600
H131	H13	0.866400	0.466900	0.706000
C121	C12	0.755000	0.518000	0.736500
H141	H14	0.780900	0.555000	0.731600
C131	C13	0.669600	0.384800	0.465300
H151	H15	0.714900	0.359500	0.446800
C141	C14	0.594800	0.430700	0.545900
H161	H16	0.575400	0.445000	0.594000
C151	C15	0.550500	0.446100	0.462200
H171	H17	0.494700	0.473000	0.442500
C161	C16	0.571100	0.215000	0.599800
H181	H18	0.612100	0.192900	0.646900
C171	C17	0.515300	0.284200	0.513500
H191	H19	0.508500	0.320800	0.488500
C181	C18	0.452600	0.242300	0.482400
H201	H20	0.394600	0.242600	0.430600
C191	C19	0.404300	0.457400	0.797900
H211	H21	0.472400	0.444300	0.832300
C201	C20	0.238000	0.459900	0.731800
H221	H22	0.164400	0.449900	0.708700
C211	C21	0.282500	0.509900	0.720100
H231	H23	0.244800	0.540900	0.688000
C221	C22	0.173700	0.201100	0.779200
H241	H24	0.148100	0.210000	0.826800
C231	C23	0.258600	0.206400	0.685000
H251	H25	0.303800	0.218700	0.652000
C241	C24	0.198400	0.158900	0.670200
H261	H26	0.194700	0.132500	0.625300
C251	C25	0.202200	0.326200	0.598500
H271	H27	0.143900	0.304400	0.605100
C261	C26	0.348000	0.372200	0.623700
H281	H28	0.415300	0.388500	0.653600
C271	C27	0.296900	0.379900	0.539500
H291	H29	0.320200	0.402000	0.499400
C281	C28	0.384900	0.701200	0.729500
H301	H30	0.426400	0.713400	0.693500
C291	C29	0.324100	0.650400	0.813000
H311	H31	0.312400	0.620300	0.847900
C301	C30	0.269100	0.699300	0.798500
H321	H32	0.212600	0.709500	0.821900
C311	C31	0.429600	0.624200	0.540200
H331	H33	0.465300	0.659500	0.554500
C321	C32	0.381200	0.539100	0.551600
H341	H34	0.382000	0.498000	0.576000
C331	C33	0.330300	0.558600	0.471700
H351	H35	0.280400	0.537600	0.427900
Sm41	Sm4	0.252300	0.827920	0.677420
Sm51	Sm5	0.811760	0.826120	0.827400
Sm61	Sm6	0.026490	0.078740	0.752900
N231	N23	0.143700	0.816700	0.780300
N241	N24	0.002500	0.811300	0.832400
N251	N25	0.334900	0.790300	0.566900
N261	N26	0.349300	0.742700	0.449600
N271	N27	0.442300	0.849300	0.760200
N281	N28	0.621400	0.841400	0.817600
N291	N29	0.241700	0.924400	0.736600
N301	N30	0.164500	0.005500	0.758500
N311	N31	0.173100	0.890600	0.548600
N321	N32	0.098100	0.917200	0.411200
N331	N33	0.092000	0.769000	0.586300
N341	N34	0.984700	0.696200	0.538000
H361	H36	0.955000	0.662500	0.533600
N351	N35	0.817500	0.925900	0.782900
N361	N36	0.892100	0.008400	0.762600
N371	N37	0.744200	0.733900	0.755200
N381	N38	0.642600	0.655000	0.731100
N391	N39	0.787800	0.836700	0.660900
N401	N40	0.704200	0.849300	0.523600
H371	H37	0.654900	0.845400	0.473500
N411	N41	0.900200	0.151000	0.769300
N421	N42	0.808200	0.232500	0.744000
N431	N43	0.944400	0.080500	0.597900
N441	N44	0.861900	0.113800	0.463000
C341	C34	0.038600	0.805400	0.765400
H381	H38	0.993800	0.794000	0.710500
C351	C35	0.177200	0.828700	0.865800
H391	H39	0.248800	0.837700	0.897900
C361	C36	0.092300	0.825800	0.898400
H401	H40	0.094600	0.832600	0.956600
C371	C37	0.302200	0.747000	0.513400
H411	H41	0.249500	0.720900	0.519600
C381	C38	0.409500	0.817300	0.533700
H421	H42	0.448200	0.850600	0.556200
C391	C39	0.417400	0.788100	0.463900
H431	H43	0.463200	0.797700	0.430000
C401	C40	0.534800	0.828000	0.752200
H441	H44	0.538300	0.805500	0.704500
C411	C41	0.472500	0.877100	0.838800
H451	H45	0.426200	0.896700	0.864600
C421	C42	0.579800	0.871200	0.872000
H461	H46	0.620800	0.885900	0.926100
C431	C43	0.159900	0.948600	0.757500
H471	H47	0.104100	0.927800	0.770400
C441	C44	0.302400	0.969500	0.722600
H481	H48	0.366400	0.966900	0.706000
C451	C45	0.255000	0.018000	0.736500
H491	H49	0.280900	0.055000	0.731600
C461	C46	0.169600	0.884800	0.465300
H501	H50	0.214900	0.859500	0.446800
C471	C47	0.094800	0.930700	0.545900
H511	H51	0.075400	0.945000	0.594000
C481	C48	0.050500	0.946100	0.462200
H521	H52	0.994700	0.973000	0.442500
C491	C49	0.071100	0.715000	0.599800
H531	H53	0.112100	0.692900	0.646900
C501	C50	0.015300	0.784200	0.513500
H541	H54	0.008500	0.820800	0.488500
C511	C51	0.952600	0.742300	0.482400
H551	H55	0.894600	0.742600	0.430600
C521	C52	0.904300	0.957400	0.797900
H561	H56	0.972400	0.944300	0.832300
C531	C53	0.738000	0.959900	0.731800
H571	H57	0.664400	0.949900	0.708700
C541	C54	0.782500	0.009900	0.720100
H581	H58	0.744800	0.040900	0.688000
C551	C55	0.673700	0.701100	0.779200
H591	H59	0.648100	0.710000	0.826800
C561	C56	0.758600	0.706400	0.685000
H601	H60	0.803800	0.718700	0.652000
C571	C57	0.698400	0.658900	0.670200
H611	H61	0.694700	0.632500	0.625300
C581	C58	0.702200	0.826200	0.598500
H621	H62	0.643900	0.804400	0.605100
C591	C59	0.848000	0.872200	0.623700
H631	H63	0.915300	0.888500	0.653600
C601	C60	0.796900	0.879900	0.539500
H641	H64	0.820200	0.902000	0.499400
C611	C61	0.884900	0.201200	0.729500
H651	H65	0.926400	0.213400	0.693500
C621	C62	0.824100	0.150400	0.813000
H661	H66	0.812400	0.120300	0.847900
C631	C63	0.769100	0.199300	0.798500
H671	H67	0.712600	0.209500	0.821900
C641	C64	0.929600	0.124200	0.540200
H681	H68	0.965300	0.159500	0.554500
C651	C65	0.881200	0.039100	0.551600
H691	H69	0.882000	0.998000	0.576000
C661	C66	0.830300	0.058600	0.471700
H701	H70	0.780400	0.037600	0.427900
Sm71	Sm7	0.752300	0.672080	0.177420
Sm81	Sm8	0.311760	0.673880	0.327400
Sm91	Sm9	0.526490	0.421260	0.252900
N451	N45	0.643700	0.683300	0.280300
N461	N46	0.502500	0.688700	0.332400
N471	N47	0.834900	0.709700	0.066900
N481	N48	0.849300	0.757300	0.949600
N491	N49	0.942300	0.650700	0.260200
N501	N50	0.121400	0.658600	0.317600
N511	N51	0.741700	0.575600	0.236600
N521	N52	0.664500	0.494500	0.258500
N531	N53	0.673100	0.609400	0.048600
N541	N54	0.598100	0.582800	0.911200
N551	N55	0.592000	0.731000	0.086300
N561	N56	0.484700	0.803800	0.038000
H711	H71	0.455000	0.837500	0.033600
N571	N57	0.317500	0.574100	0.282900
N581	N58	0.392100	0.491600	0.262600
N591	N59	0.244200	0.766100	0.255200
N601	N60	0.142600	0.845000	0.231100
N611	N61	0.287800	0.663300	0.160900
N621	N62	0.204200	0.650700	0.023600
H721	H72	0.154900	0.654600	0.973500
N631	N63	0.400200	0.349000	0.269300
N641	N64	0.308200	0.267500	0.244000
N651	N65	0.444400	0.419500	0.097900
N661	N66	0.361900	0.386200	0.963000
C671	C67	0.538600	0.694600	0.265400
H731	H73	0.493800	0.706000	0.210500
C681	C68	0.677200	0.671300	0.365800
H741	H74	0.748800	0.662300	0.397900
C691	C69	0.592300	0.674200	0.398400
H751	H75	0.594600	0.667400	0.456600
C701	C70	0.802200	0.753000	0.013400
H761	H76	0.749500	0.779100	0.019600
C711	C71	0.909500	0.682700	0.033700
H771	H77	0.948200	0.649400	0.056200
C721	C72	0.917400	0.711900	0.963900
H781	H78	0.963200	0.702300	0.930000
C731	C73	0.034800	0.672000	0.252200
H791	H79	0.038300	0.694500	0.204500
C741	C74	0.972500	0.622900	0.338800
H801	H80	0.926200	0.603300	0.364600
C751	C75	0.079800	0.628800	0.372000
H811	H81	0.120800	0.614100	0.426100
C761	C76	0.659900	0.551400	0.257500
H821	H82	0.604100	0.572200	0.270400
C771	C77	0.802400	0.530500	0.222600
H831	H83	0.866400	0.533100	0.206000
C781	C78	0.755000	0.482000	0.236500
H841	H84	0.780900	0.445000	0.231600
C791	C79	0.669600	0.615200	0.965300
H851	H85	0.714900	0.640500	0.946800
C801	C80	0.594800	0.569300	0.045900
H861	H86	0.575400	0.555000	0.094000
C811	C81	0.550500	0.553900	0.962200
H871	H87	0.494700	0.527000	0.942500
C821	C82	0.571100	0.785000	0.099800
H881	H88	0.612100	0.807100	0.146900
C831	C83	0.515300	0.715800	0.013500
H891	H89	0.508500	0.679200	0.988500
C841	C84	0.452600	0.757700	0.982400
H901	H90	0.394600	0.757400	0.930600
C851	C85	0.404300	0.542600	0.297900
H911	H91	0.472400	0.555700	0.332300
C861	C86	0.238000	0.540100	0.231800
H921	H92	0.164400	0.550100	0.208700
C871	C87	0.282500	0.490100	0.220100
H931	H93	0.244800	0.459100	0.188000
C881	C88	0.173700	0.798900	0.279200
H941	H94	0.148100	0.790000	0.326800
C891	C89	0.258600	0.793600	0.185000
H951	H95	0.303800	0.781300	0.152000
C901	C90	0.198400	0.841100	0.170200
H961	H96	0.194700	0.867500	0.125300
C911	C91	0.202200	0.673800	0.098500
H971	H97	0.143900	0.695600	0.105100
C921	C92	0.348000	0.627800	0.123700
H981	H98	0.415300	0.611500	0.153600
C931	C93	0.296900	0.620100	0.039500
H991	H99	0.320200	0.598000	0.999400
C941	C94	0.384900	0.298800	0.229500
H1001	H100	0.426400	0.286600	0.193500
C951	C95	0.324100	0.349600	0.313000
H1011	H101	0.312400	0.379700	0.347900
C961	C96	0.269100	0.300700	0.298500
H1021	H102	0.212600	0.290500	0.321900
C971	C97	0.429600	0.375800	0.040200
H1031	H103	0.465300	0.340500	0.054500
C981	C98	0.381200	0.460900	0.051600
H1041	H104	0.382000	0.502000	0.076000
C991	C99	0.330300	0.441400	0.971700
H1051	H105	0.280400	0.462400	0.927900
Sm101	Sm10	0.252300	0.172080	0.177420
Sm111	Sm11	0.811760	0.173880	0.327400
Sm121	Sm12	0.026490	0.921260	0.252900
N671	N67	0.143700	0.183300	0.280300
N681	N68	0.002500	0.188700	0.332400
N691	N69	0.334900	0.209700	0.066900
N701	N70	0.349300	0.257300	0.949600
N711	N71	0.442300	0.150700	0.260200
N721	N72	0.621400	0.158600	0.317600
N731	N73	0.241700	0.075600	0.236600
N741	N74	0.164500	0.994500	0.258500
N751	N75	0.173100	0.109400	0.048600
N761	N76	0.098100	0.082800	0.911200
N771	N77	0.092000	0.231000	0.086300
N781	N78	0.984700	0.303800	0.038000
H1061	H106	0.955000	0.337500	0.033600
N791	N79	0.817500	0.074100	0.282900
N801	N80	0.892100	0.991600	0.262600
N811	N81	0.744200	0.266100	0.255200
N821	N82	0.642600	0.345000	0.231100
N831	N83	0.787800	0.163300	0.160900
N841	N84	0.704200	0.150700	0.023600
H1071	H107	0.654900	0.154600	0.973500
N851	N85	0.900200	0.849000	0.269300
N861	N86	0.808200	0.767500	0.244000
N871	N87	0.944400	0.919500	0.097900
N881	N88	0.861900	0.886200	0.963000
C1001	C100	0.038600	0.194600	0.265400
H1081	H108	0.993800	0.206000	0.210500
C1011	C101	0.177200	0.171300	0.365800
H1091	H109	0.248800	0.162300	0.397900
C1021	C102	0.092300	0.174200	0.398400
H1101	H110	0.094600	0.167400	0.456600
C1031	C103	0.302200	0.253000	0.013400
H1111	H111	0.249500	0.279100	0.019600
C1041	C104	0.409500	0.182700	0.033700
H1121	H112	0.448200	0.149400	0.056200
C1051	C105	0.417400	0.211900	0.963900
H1131	H113	0.463200	0.202300	0.930000
C1061	C106	0.534800	0.172000	0.252200
H1141	H114	0.538300	0.194500	0.204500
C1071	C107	0.472500	0.122900	0.338800
H1151	H115	0.426200	0.103300	0.364600
C1081	C108	0.579800	0.128800	0.372000
H1161	H116	0.620800	0.114100	0.426100
C1091	C109	0.159900	0.051400	0.257500
H1171	H117	0.104100	0.072200	0.270400
C1101	C110	0.302400	0.030500	0.222600
H1181	H118	0.366400	0.033100	0.206000
C1111	C111	0.255000	0.982000	0.236500
H1191	H119	0.280900	0.945000	0.231600
C1121	C112	0.169600	0.115200	0.965300
H1201	H120	0.214900	0.140500	0.946800
C1131	C113	0.094800	0.069300	0.045900
H1211	H121	0.075400	0.055000	0.094000
C1141	C114	0.050500	0.053900	0.962200
H1221	H122	0.994700	0.027000	0.942500
C1151	C115	0.071100	0.285000	0.099800
H1231	H123	0.112100	0.307100	0.146900
C1161	C116	0.015300	0.215800	0.013500
H1241	H124	0.008500	0.179200	0.988500
C1171	C117	0.952600	0.257700	0.982400
H1251	H125	0.894600	0.257400	0.930600
C1181	C118	0.904300	0.042600	0.297900
H1261	H126	0.972400	0.055700	0.332300
C1191	C119	0.738000	0.040100	0.231800
H1271	H127	0.664400	0.050100	0.208700
C1201	C120	0.782500	0.990100	0.220100
H1281	H128	0.744800	0.959100	0.188000
C1211	C121	0.673700	0.298900	0.279200
H1291	H129	0.648100	0.290000	0.326800
C1221	C122	0.758600	0.293600	0.185000
H1301	H130	0.803800	0.281300	0.152000
C1231	C123	0.698400	0.341100	0.170200
H1311	H131	0.694700	0.367500	0.125300
C1241	C124	0.702200	0.173800	0.098500
H1321	H132	0.643900	0.195600	0.105100
C1251	C125	0.848000	0.127800	0.123700
H1331	H133	0.915300	0.111500	0.153600
C1261	C126	0.796900	0.120100	0.039500
H1341	H134	0.820200	0.098000	0.999400
C1271	C127	0.884900	0.798800	0.229500
H1351	H135	0.926400	0.786600	0.193500
C1281	C128	0.824100	0.849600	0.313000
H1361	H136	0.812400	0.879700	0.347900
C1291	C129	0.769100	0.800700	0.298500
H1371	H137	0.712600	0.790500	0.321900
C1301	C130	0.929600	0.875800	0.040200
H1381	H138	0.965300	0.840500	0.054500
C1311	C131	0.881200	0.960900	0.051600
H1391	H139	0.882000	0.002000	0.076000
C1321	C132	0.830300	0.941400	0.971700
H1401	H140	0.780400	0.962400	0.927900
