data_IHIMAP01_clean_PM
_symmetry_space_group_name_H-M	'P1'
_cell_length_a	7.979000
_cell_length_b	12.095000
_cell_length_c	12.297000
_cell_angle_alpha	111.681000
_cell_angle_beta	89.932000
_cell_angle_gamma	100.158000
_symmetry_Int_Tables_number 1

loop_
_symmetry_equiv_pos_as_xyz
'x,y,z'

loop_
_atom_site_label
_atom_site_type_symbol
_atom_site_fract_x
_atom_site_fract_y
_atom_site_fract_z
C11	C1	0.646100	0.424300	0.143500
C21	C2	0.718100	0.311000	0.085500
H11	H1	0.739000	0.277600	0.143700
H21	H2	0.634400	0.251400	0.026200
C31	C3	0.885700	0.333700	0.027700
H31	H3	0.962500	0.402500	0.083900
H41	H4	0.939400	0.263600	0.009300
C41	C4	0.863100	0.358100	0.917200
C51	C5	0.143600	0.423500	0.301900
C61	C6	0.216000	0.307900	0.275500
C71	C7	0.384100	0.330300	0.348800
C81	C8	0.365200	0.360600	0.478100
C91	C9	0.325900	0.865300	0.320800
C101	C10	0.244900	0.974100	0.364100
H51	H5	0.286100	0.027100	0.322900
H61	H6	0.122200	0.949200	0.347400
C111	C11	0.283600	0.042200	0.493500
H71	H7	0.404100	0.078400	0.508000
H81	H8	0.261800	0.985200	0.532700
C121	C12	0.180900	0.141000	0.547100
La11	La1	0.990620	0.645410	0.353920
La21	La2	0.490330	0.645080	0.251040
O11	O1	0.736500	0.515700	0.217400
O21	O2	0.492400	0.424600	0.119100
O31	O3	0.233400	0.515400	0.293800
O41	O4	0.991900	0.426000	0.327200
O51	O5	0.272200	0.779600	0.356700
O61	O6	0.445800	0.857800	0.256900
O71	O7	0.731800	0.393500	0.903200
O81	O8	0.985200	0.345700	0.850000
O91	O9	0.230700	0.219600	0.649900
O101	O10	0.053600	0.146500	0.493800
O111	O11	0.487000	0.349100	0.537700
O121	O12	0.231700	0.397200	0.520200
C131	C13	0.353900	0.575700	0.856500
C141	C14	0.281900	0.689000	0.914500
H91	H9	0.261000	0.722400	0.856300
H101	H10	0.365600	0.748600	0.973800
C151	C15	0.114300	0.666300	0.972300
H111	H11	0.037500	0.597500	0.916100
H121	H12	0.060600	0.736400	0.990700
C161	C16	0.136900	0.641900	0.082800
C171	C17	0.856400	0.576500	0.698100
C181	C18	0.784000	0.692100	0.724500
C191	C19	0.615900	0.669700	0.651200
C201	C20	0.634800	0.639400	0.521900
C211	C21	0.674100	0.134700	0.679200
C221	C22	0.755100	0.025900	0.635900
H131	H13	0.713900	0.972900	0.677100
H141	H14	0.877800	0.050800	0.652600
C231	C23	0.716400	0.957800	0.506500
H151	H15	0.595900	0.921600	0.492000
H161	H16	0.738200	0.014800	0.467300
C241	C24	0.819100	0.859000	0.452900
La31	La3	0.009380	0.354590	0.646080
La41	La4	0.509670	0.354920	0.748960
O131	O13	0.263500	0.484300	0.782600
O141	O14	0.507600	0.575400	0.880900
O151	O15	0.766600	0.484600	0.706200
O161	O16	0.008100	0.574000	0.672800
O171	O17	0.727800	0.220400	0.643300
O181	O18	0.554200	0.142200	0.743100
O191	O19	0.268200	0.606500	0.096800
O201	O20	0.014800	0.654300	0.150000
O211	O21	0.769300	0.780400	0.350100
O221	O22	0.946400	0.853500	0.506200
O231	O23	0.513000	0.650900	0.462300
O241	O24	0.768300	0.602800	0.479800
