data_IJANAJ_clean_PM
_symmetry_space_group_name_H-M	'P1'
_cell_length_a	9.349000
_cell_length_b	10.441000
_cell_length_c	12.177000
_cell_angle_alpha	109.956000
_cell_angle_beta	103.388000
_cell_angle_gamma	90.275000
_symmetry_Int_Tables_number 1

loop_
_symmetry_equiv_pos_as_xyz
'x,y,z'

loop_
_atom_site_label
_atom_site_type_symbol
_atom_site_fract_x
_atom_site_fract_y
_atom_site_fract_z
Zn11	Zn1	0.260550	0.073080	0.486560
Zn21	Zn2	0.739450	0.926920	0.513440
Zn31	Zn3	0.500000	0.500000	0.500000
H11	H1	0.444500	0.082700	0.173200
H21	H2	0.609200	0.067700	0.054900
H31	H3	0.859600	0.117800	0.142000
H41	H4	0.110000	0.176500	0.676000
H51	H5	0.153800	0.274400	0.882100
H61	H6	0.587600	0.287200	0.901500
H71	H7	0.532600	0.191200	0.695300
H81	H8	0.198700	0.317000	0.064400
H91	H9	0.249100	0.391200	0.269000
H101	H10	0.662200	0.483900	0.296900
H111	H11	0.623700	0.404100	0.091500
H121	H12	0.555500	0.917300	0.826800
H131	H13	0.390800	0.932300	0.945100
H141	H14	0.140400	0.882200	0.858000
H151	H15	0.890000	0.823500	0.324000
H161	H16	0.846200	0.725600	0.117900
H171	H17	0.412400	0.712800	0.098500
H181	H18	0.467400	0.808800	0.304700
H191	H19	0.801300	0.683000	0.935600
H201	H20	0.750900	0.608800	0.731000
H211	H21	0.337800	0.516100	0.703100
H221	H22	0.376300	0.595900	0.908500
C11	C1	0.846950	0.159780	0.315030
C21	C2	0.748400	0.173210	0.388080
C31	C3	0.596790	0.149230	0.334240
C41	C4	0.544980	0.104950	0.208940
C51	C5	0.643980	0.094350	0.138160
C61	C6	0.794050	0.122970	0.190060
C71	C7	0.011640	0.176760	0.366150
C81	C8	0.804790	0.213600	0.523200
C91	C9	0.487860	0.173130	0.411280
C101	C10	0.207000	0.198600	0.722060
C111	C11	0.232700	0.257500	0.846220
C121	C12	0.377290	0.291370	0.917410
C131	C13	0.489500	0.265350	0.857830
C141	C14	0.455720	0.206980	0.733610
C151	C15	0.407380	0.349130	0.051440
C161	C16	0.294900	0.348600	0.109630
C171	C17	0.326100	0.394500	0.233260
C181	C18	0.567900	0.447820	0.249770
C191	C19	0.544900	0.400680	0.125240
C201	C20	0.153050	0.840220	0.684970
C211	C21	0.251600	0.826790	0.611920
C221	C22	0.403210	0.850770	0.665760
C231	C23	0.455020	0.895050	0.791060
C241	C24	0.356020	0.905650	0.861840
C251	C25	0.205950	0.877030	0.809940
C261	C26	0.988360	0.823240	0.633850
C271	C27	0.195210	0.786400	0.476800
C281	C28	0.512140	0.826870	0.588720
C291	C29	0.793000	0.801400	0.277940
C301	C30	0.767300	0.742500	0.153780
C311	C31	0.622710	0.708630	0.082590
C321	C32	0.510500	0.734650	0.142170
C331	C33	0.544280	0.793020	0.266390
C341	C34	0.592620	0.650870	0.948560
C351	C35	0.705100	0.651400	0.890370
C361	C36	0.673900	0.605500	0.766740
C371	C37	0.432100	0.552180	0.750230
C381	C38	0.455100	0.599320	0.874760
N11	N1	0.316480	0.172150	0.665850
N21	N2	0.460490	0.443900	0.305620
N31	N3	0.683520	0.827850	0.334150
N41	N4	0.539510	0.556100	0.694380
O11	O1	0.056980	0.112850	0.437580
O21	O2	0.090170	0.244990	0.333520
O31	O3	0.872320	0.328190	0.581560
O41	O4	0.776890	0.129100	0.570690
O51	O5	0.486170	0.287990	0.487330
O61	O6	0.401210	0.069330	0.391900
O71	O7	0.943020	0.887150	0.562420
O81	O8	0.909830	0.755010	0.666480
O91	O9	0.127680	0.671810	0.418440
O101	O10	0.223110	0.870900	0.429310
O111	O11	0.513830	0.712010	0.512670
O121	O12	0.598790	0.930670	0.608100
