data_IJASES_clean_PM
_symmetry_space_group_name_H-M	'P1'
_cell_length_a	8.651400
_cell_length_b	10.153100
_cell_length_c	11.170300
_cell_angle_alpha	65.437000
_cell_angle_beta	71.666000
_cell_angle_gamma	78.421000
_symmetry_Int_Tables_number 1

loop_
_symmetry_equiv_pos_as_xyz
'x,y,z'

loop_
_atom_site_label
_atom_site_type_symbol
_atom_site_fract_x
_atom_site_fract_y
_atom_site_fract_z
Tm11	Tm1	0.132130	0.440280	0.652760
Tm21	Tm2	0.867870	0.559720	0.347240
H11	H1	0.634700	0.112500	0.770800
H21	H2	0.228000	0.072100	0.081800
H31	H3	0.544300	0.353100	0.875600
H41	H4	0.715300	0.618800	0.985200
H51	H5	0.925000	0.780400	0.681900
H61	H6	0.019900	0.027300	0.277700
H71	H7	0.365300	0.887500	0.229200
H81	H8	0.772000	0.927900	0.918200
H91	H9	0.455700	0.646900	0.124400
H101	H10	0.284700	0.381200	0.014800
H111	H11	0.075000	0.219600	0.318100
H121	H12	0.980100	0.972700	0.722300
C11	C1	0.326600	0.231600	0.820400
C21	C2	0.418300	0.112000	0.910600
C31	C3	0.579300	0.067300	0.864000
C41	C4	0.339000	0.043000	0.048200
C51	C5	0.820300	0.461600	0.831200
C61	C6	0.654000	0.482800	0.917400
C71	C7	0.526100	0.412800	0.926300
C81	C8	0.628000	0.570600	0.991300
C91	C9	0.930200	0.766800	0.447300
C101	C10	0.966700	0.885600	0.475900
C111	C11	0.955200	0.869200	0.608000
C121	C12	0.011700	0.016200	0.368100
C131	C13	0.673400	0.768400	0.179600
C141	C14	0.581700	0.888000	0.089400
C151	C15	0.420700	0.932700	0.136000
C161	C16	0.661000	0.957000	0.951800
C171	C17	0.179700	0.538400	0.168800
C181	C18	0.346000	0.517200	0.082600
C191	C19	0.473900	0.587200	0.073700
C201	C20	0.372000	0.429400	0.008700
C211	C21	0.069800	0.233200	0.552700
C221	C22	0.033300	0.114400	0.524100
C231	C23	0.044800	0.130800	0.392000
C241	C24	0.988300	0.983800	0.631900
O11	O1	0.398300	0.298900	0.696000
O21	O2	0.178800	0.265500	0.868800
O31	O3	0.843200	0.381300	0.763600
O41	O4	0.935300	0.523900	0.825000
O51	O5	0.962100	0.634300	0.518700
O61	O6	0.868400	0.799500	0.349800
O71	O7	0.601700	0.701100	0.304000
O81	O8	0.821200	0.734500	0.131200
O91	O9	0.156800	0.618700	0.236400
O101	O10	0.064700	0.476100	0.175000
O111	O11	0.037900	0.365700	0.481300
O121	O12	0.131600	0.200500	0.650200
