data_IJATIW_clean_PM
_symmetry_space_group_name_H-M	'P1'
_cell_length_a	10.391000
_cell_length_b	15.056000
_cell_length_c	10.121000
_cell_angle_alpha	101.363000
_cell_angle_beta	101.115000
_cell_angle_gamma	105.737000
_symmetry_Int_Tables_number 1

loop_
_symmetry_equiv_pos_as_xyz
'x,y,z'

loop_
_atom_site_label
_atom_site_type_symbol
_atom_site_fract_x
_atom_site_fract_y
_atom_site_fract_z
Pr11	Pr1	0.032420	0.194450	0.780120
Pr21	Pr2	0.006390	0.222750	0.289230
O11	O1	0.198900	0.323600	0.227800
O21	O2	0.181200	0.259600	0.007500
O31	O3	0.840700	0.643500	0.238400
O41	O4	0.845000	0.537700	0.050700
O51	O5	0.842200	0.103200	0.856700
O61	O6	0.835800	0.156400	0.072700
O71	O7	0.109300	0.941900	0.689300
O81	O8	0.121800	0.065600	0.857600
O91	O9	0.880700	0.218400	0.593200
O101	O10	0.821900	0.245300	0.387500
O111	O11	0.223800	0.182900	0.681200
O121	O12	0.159000	0.195300	0.469400
N11	N1	0.392700	0.496500	0.347200
N21	N2	0.659000	0.371000	0.969000
N31	N3	0.601100	0.991400	0.667100
N41	N4	0.358000	0.131000	0.058000
N51	N5	0.599500	0.293000	0.318700
N61	N6	0.497000	0.244100	0.797000
C11	C1	0.246200	0.318300	0.123200
C21	C2	0.386600	0.382900	0.136100
C31	C3	0.454900	0.356700	0.034700
H11	H1	0.409500	0.301300	0.962600
C41	C4	0.588600	0.411200	0.039300
C51	C5	0.649700	0.496800	0.145300
C61	C6	0.584600	0.523800	0.242700
H21	H2	0.628300	0.581200	0.311300
C71	C7	0.452700	0.466700	0.242200
C81	C8	0.788800	0.563800	0.144200
C91	C9	0.778200	0.117200	0.946800
C101	C10	0.622600	0.086200	0.901800
C111	C11	0.554100	0.121300	0.996300
H31	H3	0.606400	0.160400	0.084100
C121	C12	0.411500	0.099800	0.963900
C131	C13	0.333500	0.037800	0.833000
C141	C14	0.398200	0.001100	0.739000
H41	H4	0.344800	0.959100	0.653500
C151	C15	0.544600	0.026300	0.770100
C161	C16	0.178700	0.014100	0.792200
C171	C17	0.797500	0.234100	0.501200
C181	C18	0.660900	0.237200	0.523800
C191	C19	0.626700	0.218600	0.643600
H51	H5	0.692600	0.210000	0.711900
C201	C20	0.496600	0.212300	0.664700
C211	C21	0.397100	0.221600	0.560600
C221	C22	0.431000	0.244100	0.443400
H61	H6	0.363800	0.250800	0.374400
C231	C23	0.564400	0.256900	0.426600
C241	C24	0.250700	0.199200	0.571800
Pr31	Pr3	0.967580	0.805550	0.219880
Pr41	Pr4	0.993610	0.777250	0.710770
O131	O13	0.801100	0.676400	0.772200
O141	O14	0.818800	0.740400	0.992500
O151	O15	0.159300	0.356500	0.761600
O161	O16	0.155000	0.462300	0.949300
O171	O17	0.157800	0.896800	0.143300
O181	O18	0.164200	0.843600	0.927300
O191	O19	0.890700	0.058100	0.310700
O201	O20	0.878200	0.934400	0.142400
O211	O21	0.119300	0.781600	0.406800
O221	O22	0.178100	0.754700	0.612500
O231	O23	0.776200	0.817100	0.318800
O241	O24	0.841000	0.804700	0.530600
N71	N7	0.607300	0.503500	0.652800
N81	N8	0.341000	0.629000	0.031000
N91	N9	0.398900	0.008600	0.332900
N101	N10	0.642000	0.869000	0.942000
N111	N11	0.400500	0.707000	0.681300
N121	N12	0.503000	0.755900	0.203000
C251	C25	0.753800	0.681700	0.876800
C261	C26	0.613400	0.617100	0.863900
C271	C27	0.545100	0.643300	0.965300
H71	H7	0.590500	0.698700	0.037400
C281	C28	0.411400	0.588800	0.960700
C291	C29	0.350300	0.503200	0.854700
C301	C30	0.415400	0.476200	0.757300
H81	H8	0.371700	0.418800	0.688700
C311	C31	0.547300	0.533300	0.757800
C321	C32	0.211200	0.436200	0.855800
C331	C33	0.221800	0.882800	0.053200
C341	C34	0.377400	0.913800	0.098200
C351	C35	0.445900	0.878700	0.003700
H91	H9	0.393600	0.839600	0.915900
C361	C36	0.588500	0.900200	0.036100
C371	C37	0.666500	0.962200	0.167000
C381	C38	0.601800	0.998900	0.261000
H101	H10	0.655200	0.040900	0.346500
C391	C39	0.455400	0.973700	0.229900
C401	C40	0.821300	0.985900	0.207800
C411	C41	0.202500	0.765900	0.498800
C421	C42	0.339100	0.762800	0.476200
C431	C43	0.373300	0.781400	0.356400
H111	H11	0.307400	0.790000	0.288100
C441	C44	0.503400	0.787700	0.335300
C451	C45	0.602900	0.778400	0.439400
C461	C46	0.569000	0.755900	0.556600
H121	H12	0.636200	0.749200	0.625600
C471	C47	0.435600	0.743100	0.573400
C481	C48	0.749300	0.800800	0.428200
