data_IJEVEA_clean_PM
_symmetry_space_group_name_H-M	'P1'
_cell_length_a	18.845000
_cell_length_b	29.996000
_cell_length_c	12.410000
_cell_angle_alpha	90.000000
_cell_angle_beta	90.000000
_cell_angle_gamma	90.000000
_symmetry_Int_Tables_number 1

loop_
_symmetry_equiv_pos_as_xyz
'x,y,z'

loop_
_atom_site_label
_atom_site_type_symbol
_atom_site_fract_x
_atom_site_fract_y
_atom_site_fract_z
Cd11	Cd1	0.092190	0.653330	0.560540
Cd21	Cd2	0.176500	0.610200	0.817290
Cd31	Cd3	0.364930	0.614010	0.821890
O11	O1	0.204600	0.677650	0.489100
O21	O2	0.127900	0.644750	0.382200
O31	O3	0.177200	0.627810	0.993400
O41	O4	0.278000	0.651770	0.923300
O51	O5	0.620900	0.667940	0.266300
O61	O6	0.647700	0.718070	0.142800
O71	O7	0.266600	0.610000	0.694500
O81	O8	0.168500	0.588560	0.612200
O91	O9	0.473200	0.647650	0.474900
O101	O10	0.507200	0.598850	0.354400
O111	O11	0.346700	0.561300	0.944100
O121	O12	0.238400	0.547590	0.878900
N11	N1	0.428700	0.565410	0.715100
C11	C1	0.186800	0.664900	0.397000
C21	C2	0.233900	0.672100	0.301900
C31	C3	0.298000	0.695820	0.313000
H11	H1	0.310500	0.707600	0.379700
C41	C4	0.342800	0.701770	0.225000
C51	C5	0.323300	0.684900	0.124600
H21	H2	0.353300	0.688600	0.065800
C61	C6	0.259200	0.662560	0.111900
C71	C7	0.215200	0.656100	0.200600
H31	H3	0.172600	0.640800	0.192100
C81	C8	0.237300	0.646330	0.002300
C91	C9	0.411300	0.727420	0.237500
C101	C10	0.475600	0.705130	0.224000
H41	H4	0.475500	0.675000	0.206000
C111	C11	0.539700	0.727140	0.237100
C121	C12	0.608600	0.703480	0.213000
C131	C13	0.234700	0.595000	0.612000
C141	C14	0.278300	0.584420	0.515400
C151	C15	0.344500	0.604460	0.505300
H51	H5	0.359700	0.624800	0.556900
C161	C16	0.387900	0.594300	0.418600
C171	C17	0.460200	0.615500	0.414200
C181	C18	0.364500	0.564140	0.341100
H61	H6	0.394900	0.556100	0.285300
C191	C19	0.296300	0.545650	0.344800
C201	C20	0.253200	0.555800	0.434000
H71	H7	0.208000	0.543600	0.439200
C211	C21	0.270400	0.519830	0.249200
C221	C22	0.288300	0.538830	0.148700
H81	H8	0.314000	0.565300	0.148000
C231	C23	0.269200	0.519900	0.051200
C241	C24	0.286100	0.544100	0.948900
C251	C25	0.491300	0.575400	0.669200
H91	H9	0.515600	0.600500	0.693400
C261	C26	0.521600	0.550300	0.587600
H101	H10	0.565600	0.558400	0.560000
C271	C27	0.486400	0.512890	0.546500
C281	C28	0.423000	0.501510	0.597200
H111	H11	0.398100	0.476300	0.575300
C291	C29	0.397000	0.527800	0.680700
H121	H12	0.355300	0.518900	0.714600
Cd41	Cd4	0.407810	0.346670	0.560540
Cd51	Cd5	0.323500	0.389800	0.817290
Cd61	Cd6	0.135070	0.385990	0.821890
O131	O13	0.295400	0.322350	0.489100
O141	O14	0.372100	0.355250	0.382200
O151	O15	0.322800	0.372190	0.993400
O161	O16	0.222000	0.348230	0.923300
O171	O17	0.879100	0.332060	0.266300
O181	O18	0.852300	0.281930	0.142800
O191	O19	0.233400	0.390000	0.694500
O201	O20	0.331500	0.411440	0.612200
O211	O21	0.026800	0.352350	0.474900
O221	O22	0.992800	0.401150	0.354400
O231	O23	0.153300	0.438700	0.944100
O241	O24	0.261600	0.452410	0.878900
N21	N2	0.071300	0.434590	0.715100
C301	C30	0.313200	0.335100	0.397000
C311	C31	0.266100	0.327900	0.301900
C321	C32	0.202000	0.304180	0.313000
H131	H13	0.189500	0.292400	0.379700
C331	C33	0.157200	0.298230	0.225000
C341	C34	0.176700	0.315100	0.124600
H141	H14	0.146700	0.311400	0.065800
C351	C35	0.240800	0.337440	0.111900
C361	C36	0.284800	0.343900	0.200600
H151	H15	0.327400	0.359200	0.192100
C371	C37	0.262700	0.353670	0.002300
C381	C38	0.088700	0.272580	0.237500
C391	C39	0.024400	0.294870	0.224000
H161	H16	0.024500	0.325000	0.206000
C401	C40	0.960300	0.272860	0.237100
C411	C41	0.891400	0.296520	0.213000
C421	C42	0.265300	0.405000	0.612000
C431	C43	0.221700	0.415580	0.515400
C441	C44	0.155500	0.395540	0.505300
H171	H17	0.140300	0.375200	0.556900
C451	C45	0.112100	0.405700	0.418600
C461	C46	0.039800	0.384500	0.414200
C471	C47	0.135500	0.435860	0.341100
H181	H18	0.105100	0.443900	0.285300
C481	C48	0.203700	0.454350	0.344800
C491	C49	0.246800	0.444200	0.434000
H191	H19	0.292000	0.456400	0.439200
C501	C50	0.229600	0.480170	0.249200
C511	C51	0.211700	0.461170	0.148700
H201	H20	0.186000	0.434700	0.148000
C521	C52	0.230800	0.480100	0.051200
C531	C53	0.213900	0.455900	0.948900
C541	C54	0.008700	0.424600	0.669200
H211	H21	0.984400	0.399500	0.693400
C551	C55	0.978400	0.449700	0.587600
H221	H22	0.934400	0.441600	0.560000
C561	C56	0.013600	0.487110	0.546500
C571	C57	0.077000	0.498490	0.597200
H231	H23	0.101900	0.523700	0.575300
C581	C58	0.103000	0.472200	0.680700
H241	H24	0.144700	0.481100	0.714600
Cd71	Cd7	0.407810	0.153330	0.939460
Cd81	Cd8	0.323500	0.110200	0.682710
Cd91	Cd9	0.135070	0.114010	0.678110
O251	O25	0.295400	0.177650	0.010900
O261	O26	0.372100	0.144750	0.117800
O271	O27	0.322800	0.127810	0.506600
O281	O28	0.222000	0.151770	0.576700
O291	O29	0.879100	0.167940	0.233700
O301	O30	0.852300	0.218070	0.357200
O311	O31	0.233400	0.110000	0.805500
O321	O32	0.331500	0.088560	0.887800
O331	O33	0.026800	0.147650	0.025100
O341	O34	0.992800	0.098850	0.145600
O351	O35	0.153300	0.061300	0.555900
O361	O36	0.261600	0.047590	0.621100
N31	N3	0.071300	0.065410	0.784900
C591	C59	0.313200	0.164900	0.103000
C601	C60	0.266100	0.172100	0.198100
C611	C61	0.202000	0.195820	0.187000
H251	H25	0.189500	0.207600	0.120300
C621	C62	0.157200	0.201770	0.275000
C631	C63	0.176700	0.184900	0.375400
H261	H26	0.146700	0.188600	0.434200
C641	C64	0.240800	0.162560	0.388100
C651	C65	0.284800	0.156100	0.299400
H271	H27	0.327400	0.140800	0.307900
C661	C66	0.262700	0.146330	0.497700
C671	C67	0.088700	0.227420	0.262500
C681	C68	0.024400	0.205130	0.276000
H281	H28	0.024500	0.175000	0.294000
C691	C69	0.960300	0.227140	0.262900
C701	C70	0.891400	0.203480	0.287000
C711	C71	0.265300	0.095000	0.888000
C721	C72	0.221700	0.084420	0.984600
C731	C73	0.155500	0.104460	0.994700
H291	H29	0.140300	0.124800	0.943100
C741	C74	0.112100	0.094300	0.081400
C751	C75	0.039800	0.115500	0.085800
C761	C76	0.135500	0.064140	0.158900
H301	H30	0.105100	0.056100	0.214700
C771	C77	0.203700	0.045650	0.155200
C781	C78	0.246800	0.055800	0.066000
H311	H31	0.292000	0.043600	0.060800
C791	C79	0.229600	0.019830	0.250800
C801	C80	0.211700	0.038830	0.351300
H321	H32	0.186000	0.065300	0.352000
C811	C81	0.230800	0.019900	0.448800
C821	C82	0.213900	0.044100	0.551100
C831	C83	0.008700	0.075400	0.830800
H331	H33	0.984400	0.100500	0.806600
C841	C84	0.978400	0.050300	0.912400
H341	H34	0.934400	0.058400	0.940000
C851	C85	0.013600	0.012890	0.953500
C861	C86	0.077000	0.001510	0.902800
H351	H35	0.101900	0.976300	0.924700
C871	C87	0.103000	0.027800	0.819300
H361	H36	0.144700	0.018900	0.785400
Cd101	Cd10	0.092190	0.846670	0.939460
Cd111	Cd11	0.176500	0.889800	0.682710
Cd121	Cd12	0.364930	0.885990	0.678110
O371	O37	0.204600	0.822350	0.010900
O381	O38	0.127900	0.855250	0.117800
O391	O39	0.177200	0.872190	0.506600
O401	O40	0.278000	0.848230	0.576700
O411	O41	0.620900	0.832060	0.233700
O421	O42	0.647700	0.781930	0.357200
O431	O43	0.266600	0.890000	0.805500
O441	O44	0.168500	0.911440	0.887800
O451	O45	0.473200	0.852350	0.025100
O461	O46	0.507200	0.901150	0.145600
O471	O47	0.346700	0.938700	0.555900
O481	O48	0.238400	0.952410	0.621100
N41	N4	0.428700	0.934590	0.784900
C881	C88	0.186800	0.835100	0.103000
C891	C89	0.233900	0.827900	0.198100
C901	C90	0.298000	0.804180	0.187000
H371	H37	0.310500	0.792400	0.120300
C911	C91	0.342800	0.798230	0.275000
C921	C92	0.323300	0.815100	0.375400
H381	H38	0.353300	0.811400	0.434200
C931	C93	0.259200	0.837440	0.388100
C941	C94	0.215200	0.843900	0.299400
H391	H39	0.172600	0.859200	0.307900
C951	C95	0.237300	0.853670	0.497700
C961	C96	0.411300	0.772580	0.262500
C971	C97	0.475600	0.794870	0.276000
H401	H40	0.475500	0.825000	0.294000
C981	C98	0.539700	0.772860	0.262900
C991	C99	0.608600	0.796520	0.287000
C1001	C100	0.234700	0.905000	0.888000
C1011	C101	0.278300	0.915580	0.984600
C1021	C102	0.344500	0.895540	0.994700
H411	H41	0.359700	0.875200	0.943100
C1031	C103	0.387900	0.905700	0.081400
C1041	C104	0.460200	0.884500	0.085800
C1051	C105	0.364500	0.935860	0.158900
H421	H42	0.394900	0.943900	0.214700
C1061	C106	0.296300	0.954350	0.155200
C1071	C107	0.253200	0.944200	0.066000
H431	H43	0.208000	0.956400	0.060800
C1081	C108	0.270400	0.980170	0.250800
C1091	C109	0.288300	0.961170	0.351300
H441	H44	0.314000	0.934700	0.352000
C1101	C110	0.269200	0.980100	0.448800
C1111	C111	0.286100	0.955900	0.551100
C1121	C112	0.491300	0.924600	0.830800
H451	H45	0.515600	0.899500	0.806600
C1131	C113	0.521600	0.949700	0.912400
H461	H46	0.565600	0.941600	0.940000
C1141	C114	0.486400	0.987110	0.953500
C1151	C115	0.423000	0.998490	0.902800
H471	H47	0.398100	0.023700	0.924700
C1161	C116	0.397000	0.972200	0.819300
H481	H48	0.355300	0.981100	0.785400
Cd131	Cd13	0.907810	0.346670	0.439460
Cd141	Cd14	0.823500	0.389800	0.182710
Cd151	Cd15	0.635070	0.385990	0.178110
O491	O49	0.795400	0.322350	0.510900
O501	O50	0.872100	0.355250	0.617800
O511	O51	0.822800	0.372190	0.006600
O521	O52	0.722000	0.348230	0.076700
O531	O53	0.379100	0.332060	0.733700
O541	O54	0.352300	0.281930	0.857200
O551	O55	0.733400	0.390000	0.305500
O561	O56	0.831500	0.411440	0.387800
O571	O57	0.526800	0.352350	0.525100
O581	O58	0.492800	0.401150	0.645600
O591	O59	0.653300	0.438700	0.055900
O601	O60	0.761600	0.452410	0.121100
N51	N5	0.571300	0.434590	0.284900
C1171	C117	0.813200	0.335100	0.603000
C1181	C118	0.766100	0.327900	0.698100
C1191	C119	0.702000	0.304180	0.687000
H491	H49	0.689500	0.292400	0.620300
C1201	C120	0.657200	0.298230	0.775000
C1211	C121	0.676700	0.315100	0.875400
H501	H50	0.646700	0.311400	0.934200
C1221	C122	0.740800	0.337440	0.888100
C1231	C123	0.784800	0.343900	0.799400
H511	H51	0.827400	0.359200	0.807900
C1241	C124	0.762700	0.353670	0.997700
C1251	C125	0.588700	0.272580	0.762500
C1261	C126	0.524400	0.294870	0.776000
H521	H52	0.524500	0.325000	0.794000
C1271	C127	0.460300	0.272860	0.762900
C1281	C128	0.391400	0.296520	0.787000
C1291	C129	0.765300	0.405000	0.388000
C1301	C130	0.721700	0.415580	0.484600
C1311	C131	0.655500	0.395540	0.494700
H531	H53	0.640300	0.375200	0.443100
C1321	C132	0.612100	0.405700	0.581400
C1331	C133	0.539800	0.384500	0.585800
C1341	C134	0.635500	0.435860	0.658900
H541	H54	0.605100	0.443900	0.714700
C1351	C135	0.703700	0.454350	0.655200
C1361	C136	0.746800	0.444200	0.566000
H551	H55	0.792000	0.456400	0.560800
C1371	C137	0.729600	0.480170	0.750800
C1381	C138	0.711700	0.461170	0.851300
H561	H56	0.686000	0.434700	0.852000
C1391	C139	0.730800	0.480100	0.948800
C1401	C140	0.713900	0.455900	0.051100
C1411	C141	0.508700	0.424600	0.330800
H571	H57	0.484400	0.399500	0.306600
C1421	C142	0.478400	0.449700	0.412400
H581	H58	0.434400	0.441600	0.440000
C1431	C143	0.513600	0.487110	0.453500
C1441	C144	0.577000	0.498490	0.402800
H591	H59	0.601900	0.523700	0.424700
C1451	C145	0.603000	0.472200	0.319300
H601	H60	0.644700	0.481100	0.285400
Cd161	Cd16	0.592190	0.653330	0.439460
Cd171	Cd17	0.676500	0.610200	0.182710
Cd181	Cd18	0.864930	0.614010	0.178110
O611	O61	0.704600	0.677650	0.510900
O621	O62	0.627900	0.644750	0.617800
O631	O63	0.677200	0.627810	0.006600
O641	O64	0.778000	0.651770	0.076700
O651	O65	0.120900	0.667940	0.733700
O661	O66	0.147700	0.718070	0.857200
O671	O67	0.766600	0.610000	0.305500
O681	O68	0.668500	0.588560	0.387800
O691	O69	0.973200	0.647650	0.525100
O701	O70	0.007200	0.598850	0.645600
O711	O71	0.846700	0.561300	0.055900
O721	O72	0.738400	0.547590	0.121100
N61	N6	0.928700	0.565410	0.284900
C1461	C146	0.686800	0.664900	0.603000
C1471	C147	0.733900	0.672100	0.698100
C1481	C148	0.798000	0.695820	0.687000
H611	H61	0.810500	0.707600	0.620300
C1491	C149	0.842800	0.701770	0.775000
C1501	C150	0.823300	0.684900	0.875400
H621	H62	0.853300	0.688600	0.934200
C1511	C151	0.759200	0.662560	0.888100
C1521	C152	0.715200	0.656100	0.799400
H631	H63	0.672600	0.640800	0.807900
C1531	C153	0.737300	0.646330	0.997700
C1541	C154	0.911300	0.727420	0.762500
C1551	C155	0.975600	0.705130	0.776000
H641	H64	0.975500	0.675000	0.794000
C1561	C156	0.039700	0.727140	0.762900
C1571	C157	0.108600	0.703480	0.787000
C1581	C158	0.734700	0.595000	0.388000
C1591	C159	0.778300	0.584420	0.484600
C1601	C160	0.844500	0.604460	0.494700
H651	H65	0.859700	0.624800	0.443100
C1611	C161	0.887900	0.594300	0.581400
C1621	C162	0.960200	0.615500	0.585800
C1631	C163	0.864500	0.564140	0.658900
H661	H66	0.894900	0.556100	0.714700
C1641	C164	0.796300	0.545650	0.655200
C1651	C165	0.753200	0.555800	0.566000
H671	H67	0.708000	0.543600	0.560800
C1661	C166	0.770400	0.519830	0.750800
C1671	C167	0.788300	0.538830	0.851300
H681	H68	0.814000	0.565300	0.852000
C1681	C168	0.769200	0.519900	0.948800
C1691	C169	0.786100	0.544100	0.051100
C1701	C170	0.991300	0.575400	0.330800
H691	H69	0.015600	0.600500	0.306600
C1711	C171	0.021600	0.550300	0.412400
H701	H70	0.065600	0.558400	0.440000
C1721	C172	0.986400	0.512890	0.453500
C1731	C173	0.923000	0.501510	0.402800
H711	H71	0.898100	0.476300	0.424700
C1741	C174	0.897000	0.527800	0.319300
H721	H72	0.855300	0.518900	0.285400
Cd191	Cd19	0.592190	0.846670	0.060540
Cd201	Cd20	0.676500	0.889800	0.317290
Cd211	Cd21	0.864930	0.885990	0.321890
O731	O73	0.704600	0.822350	0.989100
O741	O74	0.627900	0.855250	0.882200
O751	O75	0.677200	0.872190	0.493400
O761	O76	0.778000	0.848230	0.423300
O771	O77	0.120900	0.832060	0.766300
O781	O78	0.147700	0.781930	0.642800
O791	O79	0.766600	0.890000	0.194500
O801	O80	0.668500	0.911440	0.112200
O811	O81	0.973200	0.852350	0.974900
O821	O82	0.007200	0.901150	0.854400
O831	O83	0.846700	0.938700	0.444100
O841	O84	0.738400	0.952410	0.378900
N71	N7	0.928700	0.934590	0.215100
C1751	C175	0.686800	0.835100	0.897000
C1761	C176	0.733900	0.827900	0.801900
C1771	C177	0.798000	0.804180	0.813000
H731	H73	0.810500	0.792400	0.879700
C1781	C178	0.842800	0.798230	0.725000
C1791	C179	0.823300	0.815100	0.624600
H741	H74	0.853300	0.811400	0.565800
C1801	C180	0.759200	0.837440	0.611900
C1811	C181	0.715200	0.843900	0.700600
H751	H75	0.672600	0.859200	0.692100
C1821	C182	0.737300	0.853670	0.502300
C1831	C183	0.911300	0.772580	0.737500
C1841	C184	0.975600	0.794870	0.724000
H761	H76	0.975500	0.825000	0.706000
C1851	C185	0.039700	0.772860	0.737100
C1861	C186	0.108600	0.796520	0.713000
C1871	C187	0.734700	0.905000	0.112000
C1881	C188	0.778300	0.915580	0.015400
C1891	C189	0.844500	0.895540	0.005300
H771	H77	0.859700	0.875200	0.056900
C1901	C190	0.887900	0.905700	0.918600
C1911	C191	0.960200	0.884500	0.914200
C1921	C192	0.864500	0.935860	0.841100
H781	H78	0.894900	0.943900	0.785300
C1931	C193	0.796300	0.954350	0.844800
C1941	C194	0.753200	0.944200	0.934000
H791	H79	0.708000	0.956400	0.939200
C1951	C195	0.770400	0.980170	0.749200
C1961	C196	0.788300	0.961170	0.648700
H801	H80	0.814000	0.934700	0.648000
C1971	C197	0.769200	0.980100	0.551200
C1981	C198	0.786100	0.955900	0.448900
C1991	C199	0.991300	0.924600	0.169200
H811	H81	0.015600	0.899500	0.193400
C2001	C200	0.021600	0.949700	0.087600
H821	H82	0.065600	0.941600	0.060000
C2011	C201	0.986400	0.987110	0.046500
C2021	C202	0.923000	0.998490	0.097200
H831	H83	0.898100	0.023700	0.075300
C2031	C203	0.897000	0.972200	0.180700
H841	H84	0.855300	0.981100	0.214600
Cd221	Cd22	0.907810	0.153330	0.060540
Cd231	Cd23	0.823500	0.110200	0.317290
Cd241	Cd24	0.635070	0.114010	0.321890
O851	O85	0.795400	0.177650	0.989100
O861	O86	0.872100	0.144750	0.882200
O871	O87	0.822800	0.127810	0.493400
O881	O88	0.722000	0.151770	0.423300
O891	O89	0.379100	0.167940	0.766300
O901	O90	0.352300	0.218070	0.642800
O911	O91	0.733400	0.110000	0.194500
O921	O92	0.831500	0.088560	0.112200
O931	O93	0.526800	0.147650	0.974900
O941	O94	0.492800	0.098850	0.854400
O951	O95	0.653300	0.061300	0.444100
O961	O96	0.761600	0.047590	0.378900
N81	N8	0.571300	0.065410	0.215100
C2041	C204	0.813200	0.164900	0.897000
C2051	C205	0.766100	0.172100	0.801900
C2061	C206	0.702000	0.195820	0.813000
H851	H85	0.689500	0.207600	0.879700
C2071	C207	0.657200	0.201770	0.725000
C2081	C208	0.676700	0.184900	0.624600
H861	H86	0.646700	0.188600	0.565800
C2091	C209	0.740800	0.162560	0.611900
C2101	C210	0.784800	0.156100	0.700600
H871	H87	0.827400	0.140800	0.692100
C2111	C211	0.762700	0.146330	0.502300
C2121	C212	0.588700	0.227420	0.737500
C2131	C213	0.524400	0.205130	0.724000
H881	H88	0.524500	0.175000	0.706000
C2141	C214	0.460300	0.227140	0.737100
C2151	C215	0.391400	0.203480	0.713000
C2161	C216	0.765300	0.095000	0.112000
C2171	C217	0.721700	0.084420	0.015400
C2181	C218	0.655500	0.104460	0.005300
H891	H89	0.640300	0.124800	0.056900
C2191	C219	0.612100	0.094300	0.918600
C2201	C220	0.539800	0.115500	0.914200
C2211	C221	0.635500	0.064140	0.841100
H901	H90	0.605100	0.056100	0.785300
C2221	C222	0.703700	0.045650	0.844800
C2231	C223	0.746800	0.055800	0.934000
H911	H91	0.792000	0.043600	0.939200
C2241	C224	0.729600	0.019830	0.749200
C2251	C225	0.711700	0.038830	0.648700
H921	H92	0.686000	0.065300	0.648000
C2261	C226	0.730800	0.019900	0.551200
C2271	C227	0.713900	0.044100	0.448900
C2281	C228	0.508700	0.075400	0.169200
H931	H93	0.484400	0.100500	0.193400
C2291	C229	0.478400	0.050300	0.087600
H941	H94	0.434400	0.058400	0.060000
C2301	C230	0.513600	0.012890	0.046500
C2311	C231	0.577000	0.001510	0.097200
H951	H95	0.601900	0.976300	0.075300
C2321	C232	0.603000	0.027800	0.180700
H961	H96	0.644700	0.018900	0.214600
