data_IJEXIF_clean_PM
_symmetry_space_group_name_H-M	'P1'
_cell_length_a	16.379000
_cell_length_b	16.361000
_cell_length_c	28.999000
_cell_angle_alpha	90.000000
_cell_angle_beta	90.000000
_cell_angle_gamma	90.000000
_symmetry_Int_Tables_number 1

loop_
_symmetry_equiv_pos_as_xyz
'x,y,z'

loop_
_atom_site_label
_atom_site_type_symbol
_atom_site_fract_x
_atom_site_fract_y
_atom_site_fract_z
O11	O1	0.414710	0.715060	0.721630
C11	C1	0.440610	0.642040	0.728490
C21	C2	0.399750	0.597850	0.767930
C31	C3	0.296520	0.593120	0.827110
C41	C4	0.428300	0.522150	0.782200
H11	H1	0.472500	0.498400	0.767100
C51	C5	0.325150	0.517640	0.841160
H21	H2	0.300100	0.490800	0.865600
C61	C6	0.391510	0.481500	0.818800
C71	C7	0.421680	0.399830	0.833970
O21	O2	0.484830	0.372270	0.813480
O31	O3	0.383430	0.363170	0.865090
O41	O4	0.179720	0.592210	0.876060
Zn11	Zn1	0.540270	0.159910	0.920010
Zn21	Zn2	0.549470	0.277500	0.830720
Zn31	Zn3	0.372890	0.246670	0.882340
O51	O5	0.350220	0.241450	0.948350
O61	O6	0.219530	0.710530	0.846320
O71	O7	0.480110	0.199420	0.865890
O81	O8	0.429050	0.950610	0.074040
C81	C8	0.233470	0.165160	0.071230
O91	O9	0.461000	0.171830	0.970400
C91	C9	0.263330	0.093480	0.091370
H31	H3	0.236300	0.070600	0.116400
C101	C10	0.344130	0.162510	0.016590
C111	C11	0.273190	0.198360	0.033240
H41	H4	0.252200	0.244700	0.018900
C121	C12	0.373600	0.092700	0.037400
H51	H5	0.421700	0.069400	0.026600
C131	C13	0.388130	0.195150	0.975120
C141	C14	0.333290	0.056360	0.074060
O101	O10	0.494260	0.606920	0.706550
C151	C15	0.334000	0.632450	0.790610
H61	H6	0.314600	0.683200	0.781100
O111	O11	0.326750	0.940010	0.123170
C161	C16	0.226370	0.632720	0.852050
C171	C17	0.363610	0.975820	0.093180
C181	C18	0.159540	0.206380	0.091060
O121	O12	0.126660	0.261300	0.067010
O131	O13	0.136130	0.183090	0.130190
H71	H7	0.481000	0.165300	0.844700
O141	O14	0.085290	0.284940	0.221630
C191	C19	0.059390	0.357960	0.228490
C201	C20	0.100250	0.402150	0.267930
C211	C21	0.203480	0.406880	0.327110
C221	C22	0.071700	0.477850	0.282200
H81	H8	0.027500	0.501600	0.267100
C231	C23	0.174850	0.482360	0.341160
H91	H9	0.199900	0.509200	0.365600
C241	C24	0.108490	0.518500	0.318800
C251	C25	0.078320	0.600170	0.333970
O151	O15	0.015170	0.627730	0.313480
O161	O16	0.116570	0.636830	0.365090
O171	O17	0.320280	0.407790	0.376060
Zn41	Zn4	0.959730	0.840090	0.420010
Zn51	Zn5	0.950520	0.722500	0.330720
Zn61	Zn6	0.127110	0.753330	0.382340
O181	O18	0.149780	0.758550	0.448350
O191	O19	0.280470	0.289470	0.346320
O201	O20	0.019890	0.800580	0.365890
O211	O21	0.070950	0.049390	0.574040
C261	C26	0.266530	0.834840	0.571230
O221	O22	0.039000	0.828170	0.470400
C271	C27	0.236670	0.906520	0.591370
H101	H10	0.263700	0.929400	0.616400
C281	C28	0.155870	0.837490	0.516590
C291	C29	0.226810	0.801640	0.533240
H111	H11	0.247800	0.755300	0.518900
C301	C30	0.126400	0.907300	0.537400
H121	H12	0.078300	0.930600	0.526600
C311	C31	0.111870	0.804850	0.475120
C321	C32	0.166710	0.943640	0.574060
O231	O23	0.005740	0.393080	0.206550
C331	C33	0.166000	0.367550	0.290610
H131	H13	0.185400	0.316800	0.281100
O241	O24	0.173250	0.059990	0.623170
C341	C34	0.273630	0.367280	0.352050
C351	C35	0.136390	0.024180	0.593180
C361	C36	0.340460	0.793620	0.591060
O251	O25	0.373340	0.738700	0.567010
O261	O26	0.363870	0.816910	0.630190
H141	H14	0.019000	0.834700	0.344700
O271	O27	0.585290	0.215060	0.778370
C371	C37	0.559390	0.142040	0.771510
C381	C38	0.600250	0.097850	0.732070
C391	C39	0.703480	0.093120	0.672890
C401	C40	0.571700	0.022150	0.717800
H151	H15	0.527500	0.998400	0.732900
C411	C41	0.674850	0.017640	0.658840
H161	H16	0.699900	0.990800	0.634400
C421	C42	0.608490	0.981500	0.681200
C431	C43	0.578320	0.899830	0.666030
O281	O28	0.515170	0.872270	0.686520
O291	O29	0.616570	0.863170	0.634910
O301	O30	0.820280	0.092210	0.623940
Zn71	Zn7	0.459730	0.659910	0.579990
Zn81	Zn8	0.450520	0.777500	0.669280
Zn91	Zn9	0.627110	0.746670	0.617660
O311	O31	0.649780	0.741450	0.551650
O321	O32	0.780470	0.210530	0.653680
O331	O33	0.519890	0.699420	0.634110
O341	O34	0.570950	0.450610	0.425960
C441	C44	0.766530	0.665160	0.428770
O351	O35	0.539000	0.671830	0.529600
C451	C45	0.736670	0.593480	0.408630
H171	H17	0.763700	0.570600	0.383600
C461	C46	0.655870	0.662510	0.483410
C471	C47	0.726810	0.698360	0.466760
H181	H18	0.747800	0.744700	0.481100
C481	C48	0.626400	0.592700	0.462600
H191	H19	0.578300	0.569400	0.473400
C491	C49	0.611870	0.695150	0.524880
C501	C50	0.666710	0.556360	0.425940
O361	O36	0.505740	0.106920	0.793450
C511	C51	0.666000	0.132450	0.709390
H201	H20	0.685400	0.183200	0.718900
O371	O37	0.673250	0.440010	0.376830
C521	C52	0.773630	0.132720	0.647950
C531	C53	0.636390	0.475820	0.406820
C541	C54	0.840460	0.706380	0.408940
O381	O38	0.873340	0.761300	0.432990
O391	O39	0.863870	0.683090	0.369810
H211	H21	0.519000	0.665300	0.655300
O401	O40	0.914710	0.784940	0.278370
C551	C55	0.940610	0.857960	0.271510
C561	C56	0.899750	0.902150	0.232070
C571	C57	0.796520	0.906880	0.172890
C581	C58	0.928300	0.977850	0.217800
H221	H22	0.972500	0.001600	0.232900
C591	C59	0.825150	0.982360	0.158840
H231	H23	0.800100	0.009200	0.134400
C601	C60	0.891510	0.018500	0.181200
C611	C61	0.921680	0.100170	0.166030
O411	O41	0.984830	0.127730	0.186520
O421	O42	0.883430	0.136830	0.134910
O431	O43	0.679720	0.907790	0.123940
Zn101	Zn10	0.040270	0.340090	0.079990
Zn111	Zn11	0.049470	0.222500	0.169280
Zn121	Zn12	0.872890	0.253330	0.117660
O441	O44	0.850220	0.258550	0.051650
O451	O45	0.719530	0.789470	0.153680
O461	O46	0.980110	0.300580	0.134110
O471	O47	0.929050	0.549390	0.925960
C621	C62	0.733470	0.334840	0.928770
O481	O48	0.961000	0.328170	0.029600
C631	C63	0.763330	0.406520	0.908630
H241	H24	0.736300	0.429400	0.883600
C641	C64	0.844130	0.337490	0.983410
C651	C65	0.773190	0.301640	0.966760
H251	H25	0.752200	0.255300	0.981100
C661	C66	0.873600	0.407300	0.962600
H261	H26	0.921700	0.430600	0.973400
C671	C67	0.888130	0.304850	0.024880
C681	C68	0.833290	0.443640	0.925940
O491	O49	0.994260	0.893080	0.293450
C691	C69	0.834000	0.867550	0.209390
H271	H27	0.814600	0.816800	0.218900
O501	O50	0.826750	0.559990	0.876830
C701	C70	0.726370	0.867280	0.147950
C711	C71	0.863610	0.524180	0.906820
C721	C72	0.659540	0.293620	0.908940
O511	O51	0.626660	0.238700	0.932990
O521	O52	0.636130	0.316910	0.869810
H281	H28	0.981000	0.334700	0.155300
O531	O53	0.585290	0.284940	0.278370
C731	C73	0.559390	0.357960	0.271510
C741	C74	0.600250	0.402150	0.232070
C751	C75	0.703480	0.406880	0.172890
C761	C76	0.571700	0.477850	0.217800
H291	H29	0.527500	0.501600	0.232900
C771	C77	0.674850	0.482360	0.158840
H301	H30	0.699900	0.509200	0.134400
C781	C78	0.608490	0.518500	0.181200
C791	C79	0.578320	0.600170	0.166030
O541	O54	0.515170	0.627730	0.186520
O551	O55	0.616570	0.636830	0.134910
O561	O56	0.820280	0.407790	0.123940
Zn131	Zn13	0.459730	0.840090	0.079990
Zn141	Zn14	0.450520	0.722500	0.169280
Zn151	Zn15	0.627110	0.753330	0.117660
O571	O57	0.649780	0.758550	0.051650
O581	O58	0.780470	0.289470	0.153680
O591	O59	0.519890	0.800580	0.134110
O601	O60	0.570950	0.049390	0.925960
C801	C80	0.766530	0.834840	0.928770
O611	O61	0.539000	0.828170	0.029600
C811	C81	0.736670	0.906520	0.908630
H311	H31	0.763700	0.929400	0.883600
C821	C82	0.655870	0.837490	0.983410
C831	C83	0.726810	0.801640	0.966760
H321	H32	0.747800	0.755300	0.981100
C841	C84	0.626400	0.907300	0.962600
H331	H33	0.578300	0.930600	0.973400
C851	C85	0.611870	0.804850	0.024880
C861	C86	0.666710	0.943640	0.925940
O621	O62	0.505740	0.393080	0.293450
C871	C87	0.666000	0.367550	0.209390
H341	H34	0.685400	0.316800	0.218900
O631	O63	0.673250	0.059990	0.876830
C881	C88	0.773630	0.367280	0.147950
C891	C89	0.636390	0.024180	0.906820
C901	C90	0.840460	0.793620	0.908940
O641	O64	0.873340	0.738700	0.932990
O651	O65	0.863870	0.816910	0.869810
H351	H35	0.519000	0.834700	0.155300
O661	O66	0.914710	0.715060	0.778370
C911	C91	0.940610	0.642040	0.771510
C921	C92	0.899750	0.597850	0.732070
C931	C93	0.796520	0.593120	0.672890
C941	C94	0.928300	0.522150	0.717800
H361	H36	0.972500	0.498400	0.732900
C951	C95	0.825150	0.517640	0.658840
H371	H37	0.800100	0.490800	0.634400
C961	C96	0.891510	0.481500	0.681200
C971	C97	0.921680	0.399830	0.666030
O671	O67	0.984830	0.372270	0.686520
O681	O68	0.883430	0.363170	0.634910
O691	O69	0.679720	0.592210	0.623940
Zn161	Zn16	0.040270	0.159910	0.579990
Zn171	Zn17	0.049470	0.277500	0.669280
Zn181	Zn18	0.872890	0.246670	0.617660
O701	O70	0.850220	0.241450	0.551650
O711	O71	0.719530	0.710530	0.653680
O721	O72	0.980110	0.199420	0.634110
O731	O73	0.929050	0.950610	0.425960
C981	C98	0.733470	0.165160	0.428770
O741	O74	0.961000	0.171830	0.529600
C991	C99	0.763330	0.093480	0.408630
H381	H38	0.736300	0.070600	0.383600
C1001	C100	0.844130	0.162510	0.483410
C1011	C101	0.773190	0.198360	0.466760
H391	H39	0.752200	0.244700	0.481100
C1021	C102	0.873600	0.092700	0.462600
H401	H40	0.921700	0.069400	0.473400
C1031	C103	0.888130	0.195150	0.524880
C1041	C104	0.833290	0.056360	0.425940
O751	O75	0.994260	0.606920	0.793450
C1051	C105	0.834000	0.632450	0.709390
H411	H41	0.814600	0.683200	0.718900
O761	O76	0.826750	0.940010	0.376830
C1061	C106	0.726370	0.632720	0.647950
C1071	C107	0.863610	0.975820	0.406820
C1081	C108	0.659540	0.206380	0.408940
O771	O77	0.626660	0.261300	0.432990
O781	O78	0.636130	0.183090	0.369810
H421	H42	0.981000	0.165300	0.655300
O791	O79	0.414710	0.784940	0.221630
C1091	C109	0.440610	0.857960	0.228490
C1101	C110	0.399750	0.902150	0.267930
C1111	C111	0.296520	0.906880	0.327110
C1121	C112	0.428300	0.977850	0.282200
H431	H43	0.472500	0.001600	0.267100
C1131	C113	0.325150	0.982360	0.341160
H441	H44	0.300100	0.009200	0.365600
C1141	C114	0.391510	0.018500	0.318800
C1151	C115	0.421680	0.100170	0.333970
O801	O80	0.484830	0.127730	0.313480
O811	O81	0.383430	0.136830	0.365090
O821	O82	0.179720	0.907790	0.376060
Zn191	Zn19	0.540270	0.340090	0.420010
Zn201	Zn20	0.549470	0.222500	0.330720
Zn211	Zn21	0.372890	0.253330	0.382340
O831	O83	0.350220	0.258550	0.448350
O841	O84	0.219530	0.789470	0.346320
O851	O85	0.480110	0.300580	0.365890
O861	O86	0.429050	0.549390	0.574040
C1161	C116	0.233470	0.334840	0.571230
O871	O87	0.461000	0.328170	0.470400
C1171	C117	0.263330	0.406520	0.591370
H451	H45	0.236300	0.429400	0.616400
C1181	C118	0.344130	0.337490	0.516590
C1191	C119	0.273190	0.301640	0.533240
H461	H46	0.252200	0.255300	0.518900
C1201	C120	0.373600	0.407300	0.537400
H471	H47	0.421700	0.430600	0.526600
C1211	C121	0.388130	0.304850	0.475120
C1221	C122	0.333290	0.443640	0.574060
O881	O88	0.494260	0.893080	0.206550
C1231	C123	0.334000	0.867550	0.290610
H481	H48	0.314600	0.816800	0.281100
O891	O89	0.326750	0.559990	0.623170
C1241	C124	0.226370	0.867280	0.352050
C1251	C125	0.363610	0.524180	0.593180
C1261	C126	0.159540	0.293620	0.591060
O901	O90	0.126660	0.238700	0.567010
O911	O91	0.136130	0.316910	0.630190
H491	H49	0.481000	0.334700	0.344700
O921	O92	0.085290	0.215060	0.721630
C1271	C127	0.059390	0.142040	0.728490
C1281	C128	0.100250	0.097850	0.767930
C1291	C129	0.203480	0.093120	0.827110
C1301	C130	0.071700	0.022150	0.782200
H501	H50	0.027500	0.998400	0.767100
C1311	C131	0.174850	0.017640	0.841160
H511	H51	0.199900	0.990800	0.865600
C1321	C132	0.108490	0.981500	0.818800
C1331	C133	0.078320	0.899830	0.833970
O931	O93	0.015170	0.872270	0.813480
O941	O94	0.116570	0.863170	0.865090
O951	O95	0.320280	0.092210	0.876060
Zn221	Zn22	0.959730	0.659910	0.920010
Zn231	Zn23	0.950520	0.777500	0.830720
Zn241	Zn24	0.127110	0.746670	0.882340
O961	O96	0.149780	0.741450	0.948350
O971	O97	0.280470	0.210530	0.846320
O981	O98	0.019890	0.699420	0.865890
O991	O99	0.070950	0.450610	0.074040
C1341	C134	0.266530	0.665160	0.071230
O1001	O100	0.039000	0.671830	0.970400
C1351	C135	0.236670	0.593480	0.091370
H521	H52	0.263700	0.570600	0.116400
C1361	C136	0.155870	0.662510	0.016590
C1371	C137	0.226810	0.698360	0.033240
H531	H53	0.247800	0.744700	0.018900
C1381	C138	0.126400	0.592700	0.037400
H541	H54	0.078300	0.569400	0.026600
C1391	C139	0.111870	0.695150	0.975120
C1401	C140	0.166710	0.556360	0.074060
O1011	O101	0.005740	0.106920	0.706550
C1411	C141	0.166000	0.132450	0.790610
H551	H55	0.185400	0.183200	0.781100
O1021	O102	0.173250	0.440010	0.123170
C1421	C142	0.273630	0.132720	0.852050
C1431	C143	0.136390	0.475820	0.093180
C1441	C144	0.340460	0.706380	0.091060
O1031	O103	0.373340	0.761300	0.067010
O1041	O104	0.363870	0.683090	0.130190
H561	H56	0.019000	0.665300	0.844700
