data_IJEXIF01_clean_PM
_symmetry_space_group_name_H-M	'P1'
_cell_length_a	16.295000
_cell_length_b	16.295000
_cell_length_c	28.946000
_cell_angle_alpha	90.000000
_cell_angle_beta	90.000000
_cell_angle_gamma	90.000000
_symmetry_Int_Tables_number 1

loop_
_symmetry_equiv_pos_as_xyz
'x,y,z'

loop_
_atom_site_label
_atom_site_type_symbol
_atom_site_fract_x
_atom_site_fract_y
_atom_site_fract_z
C11	C1	0.765180	0.332400	0.571530
C21	C2	0.726260	0.299800	0.533240
H11	H1	0.747500	0.253400	0.518800
C31	C3	0.655770	0.336400	0.516360
C41	C4	0.626230	0.406500	0.537240
H21	H2	0.578300	0.430500	0.526200
C51	C5	0.666500	0.441800	0.574120
C61	C6	0.735400	0.403800	0.591580
H31	H3	0.762100	0.426200	0.617000
C71	C7	0.839200	0.290000	0.591690
C81	C8	0.611600	0.305700	0.474640
C91	C9	0.635500	0.521800	0.592960
C101	C10	0.900400	0.095700	0.768050
C111	C11	0.929030	0.020600	0.782230
H41	H4	0.973700	0.997100	0.767200
C121	C12	0.892230	0.979600	0.818570
C131	C13	0.826120	0.015700	0.841190
H51	H5	0.801200	0.988700	0.865800
C141	C14	0.797400	0.091200	0.827390
C151	C15	0.834410	0.130500	0.790740
H61	H6	0.814600	0.181300	0.781100
C161	C16	0.940900	0.139600	0.729010
C171	C17	0.922500	0.897300	0.833420
C181	C18	0.726800	0.130400	0.852130
O11	O1	0.871840	0.235520	0.567680
O21	O2	0.862640	0.313970	0.630580
O31	O3	0.649760	0.259440	0.447880
O41	O4	0.539180	0.329340	0.469560
O51	O5	0.570560	0.547360	0.574470
O61	O6	0.673740	0.557940	0.623060
O71	O7	0.915240	0.212580	0.722110
O81	O8	0.995050	0.105140	0.706840
O91	O9	0.985650	0.870050	0.813380
O101	O10	0.883170	0.861070	0.864300
O111	O11	0.719410	0.207370	0.846440
O121	O12	0.680180	0.090610	0.876450
O131	O13	0.020020	0.197300	0.634490
H71	H7	0.024600	0.160700	0.658800
Zn11	Zn1	0.959510	0.157870	0.580580
Zn21	Zn2	0.950010	0.275150	0.669670
Zn31	Zn3	0.627130	0.255050	0.381910
C191	C19	0.734820	0.667600	0.071530
C201	C20	0.773740	0.700200	0.033240
H81	H8	0.752500	0.746600	0.018800
C211	C21	0.844230	0.663600	0.016360
C221	C22	0.873770	0.593500	0.037240
H91	H9	0.921700	0.569500	0.026200
C231	C23	0.833500	0.558200	0.074120
C241	C24	0.764600	0.596200	0.091580
H101	H10	0.737900	0.573800	0.117000
C251	C25	0.660800	0.710000	0.091690
C261	C26	0.888400	0.694300	0.974640
C271	C27	0.864500	0.478200	0.092960
C281	C28	0.599600	0.904300	0.268050
C291	C29	0.570970	0.979400	0.282230
H111	H11	0.526300	0.002900	0.267200
C301	C30	0.607770	0.020400	0.318570
C311	C31	0.673880	0.984300	0.341190
H121	H12	0.698800	0.011300	0.365800
C321	C32	0.702600	0.908800	0.327390
C331	C33	0.665590	0.869500	0.290740
H131	H13	0.685400	0.818700	0.281100
C341	C34	0.559100	0.860400	0.229010
C351	C35	0.577500	0.102700	0.333420
C361	C36	0.773200	0.869600	0.352130
O141	O14	0.628160	0.764480	0.067680
O151	O15	0.637360	0.686030	0.130580
O161	O16	0.850240	0.740560	0.947880
O171	O17	0.960820	0.670660	0.969560
O181	O18	0.929440	0.452640	0.074470
O191	O19	0.826260	0.442060	0.123060
O201	O20	0.584760	0.787420	0.222110
O211	O21	0.504950	0.894860	0.206840
O221	O22	0.514350	0.129950	0.313380
O231	O23	0.616830	0.138930	0.364300
O241	O24	0.780590	0.792630	0.346440
O251	O25	0.819820	0.909390	0.376450
O261	O26	0.479980	0.802700	0.134490
H141	H14	0.475400	0.839300	0.158800
Zn41	Zn4	0.540490	0.842130	0.080580
Zn51	Zn5	0.549990	0.724850	0.169670
Zn61	Zn6	0.872870	0.744950	0.881910
C371	C37	0.234820	0.832400	0.928470
C381	C38	0.273740	0.799800	0.966760
H151	H15	0.252500	0.753400	0.981200
C391	C39	0.344230	0.836400	0.983640
C401	C40	0.373770	0.906500	0.962760
H161	H16	0.421700	0.930500	0.973800
C411	C41	0.333500	0.941800	0.925880
C421	C42	0.264600	0.903800	0.908420
H171	H17	0.237900	0.926200	0.883000
C431	C43	0.160800	0.790000	0.908310
C441	C44	0.388400	0.805700	0.025360
C451	C45	0.364500	0.021800	0.907040
C461	C46	0.099600	0.595700	0.731950
C471	C47	0.070970	0.520600	0.717770
H181	H18	0.026300	0.497100	0.732800
C481	C48	0.107770	0.479600	0.681430
C491	C49	0.173880	0.515700	0.658810
H191	H19	0.198800	0.488700	0.634200
C501	C50	0.202600	0.591200	0.672610
C511	C51	0.165590	0.630500	0.709260
H201	H20	0.185400	0.681300	0.718900
C521	C52	0.059100	0.639600	0.770990
C531	C53	0.077500	0.397300	0.666580
C541	C54	0.273200	0.630400	0.647870
O271	O27	0.128160	0.735520	0.932320
O281	O28	0.137360	0.813970	0.869420
O291	O29	0.350240	0.759440	0.052120
O301	O30	0.460820	0.829340	0.030440
O311	O31	0.429440	0.047360	0.925530
O321	O32	0.326260	0.057940	0.876940
O331	O33	0.084760	0.712580	0.777890
O341	O34	0.004950	0.605140	0.793160
O351	O35	0.014350	0.370050	0.686620
O361	O36	0.116830	0.361070	0.635700
O371	O37	0.280590	0.707370	0.653560
O381	O38	0.319820	0.590610	0.623550
O391	O39	0.979980	0.697300	0.865510
H211	H21	0.975400	0.660700	0.841200
Zn71	Zn7	0.040490	0.657870	0.919420
Zn81	Zn8	0.049990	0.775150	0.830330
Zn91	Zn9	0.372870	0.755050	0.118090
C551	C55	0.265180	0.167600	0.428470
C561	C56	0.226260	0.200200	0.466760
H221	H22	0.247500	0.246600	0.481200
C571	C57	0.155770	0.163600	0.483640
C581	C58	0.126230	0.093500	0.462760
H231	H23	0.078300	0.069500	0.473800
C591	C59	0.166500	0.058200	0.425880
C601	C60	0.235400	0.096200	0.408420
H241	H24	0.262100	0.073800	0.383000
C611	C61	0.339200	0.210000	0.408310
C621	C62	0.111600	0.194300	0.525360
C631	C63	0.135500	0.978200	0.407040
C641	C64	0.400400	0.404300	0.231950
C651	C65	0.429030	0.479400	0.217770
H251	H25	0.473700	0.502900	0.232800
C661	C66	0.392230	0.520400	0.181430
C671	C67	0.326120	0.484300	0.158810
H261	H26	0.301200	0.511300	0.134200
C681	C68	0.297400	0.408800	0.172610
C691	C69	0.334410	0.369500	0.209260
H271	H27	0.314600	0.318700	0.218900
C701	C70	0.440900	0.360400	0.270990
C711	C71	0.422500	0.602700	0.166580
C721	C72	0.226800	0.369600	0.147870
O401	O40	0.371840	0.264480	0.432320
O411	O41	0.362640	0.186030	0.369420
O421	O42	0.149760	0.240560	0.552120
O431	O43	0.039180	0.170660	0.530440
O441	O44	0.070560	0.952640	0.425530
O451	O45	0.173740	0.942060	0.376940
O461	O46	0.415240	0.287420	0.277890
O471	O47	0.495050	0.394860	0.293160
O481	O48	0.485650	0.629950	0.186620
O491	O49	0.383170	0.638930	0.135700
O501	O50	0.219410	0.292630	0.153560
O511	O51	0.180180	0.409390	0.123550
O521	O52	0.520020	0.302700	0.365510
H281	H28	0.524600	0.339300	0.341200
Zn101	Zn10	0.459510	0.342130	0.419420
Zn111	Zn11	0.450010	0.224850	0.330330
Zn121	Zn12	0.127130	0.244950	0.618090
C731	C73	0.234820	0.667600	0.428470
C741	C74	0.273740	0.700200	0.466760
H291	H29	0.252500	0.746600	0.481200
C751	C75	0.344230	0.663600	0.483640
C761	C76	0.373770	0.593500	0.462760
H301	H30	0.421700	0.569500	0.473800
C771	C77	0.333500	0.558200	0.425880
C781	C78	0.264600	0.596200	0.408420
H311	H31	0.237900	0.573800	0.383000
C791	C79	0.160800	0.710000	0.408310
C801	C80	0.388400	0.694300	0.525360
C811	C81	0.364500	0.478200	0.407040
C821	C82	0.099600	0.904300	0.231950
C831	C83	0.070970	0.979400	0.217770
H321	H32	0.026300	0.002900	0.232800
C841	C84	0.107770	0.020400	0.181430
C851	C85	0.173880	0.984300	0.158810
H331	H33	0.198800	0.011300	0.134200
C861	C86	0.202600	0.908800	0.172610
C871	C87	0.165590	0.869500	0.209260
H341	H34	0.185400	0.818700	0.218900
C881	C88	0.059100	0.860400	0.270990
C891	C89	0.077500	0.102700	0.166580
C901	C90	0.273200	0.869600	0.147870
O531	O53	0.128160	0.764480	0.432320
O541	O54	0.137360	0.686030	0.369420
O551	O55	0.350240	0.740560	0.552120
O561	O56	0.460820	0.670660	0.530440
O571	O57	0.429440	0.452640	0.425530
O581	O58	0.326260	0.442060	0.376940
O591	O59	0.084760	0.787420	0.277890
O601	O60	0.004950	0.894860	0.293160
O611	O61	0.014350	0.129950	0.186620
O621	O62	0.116830	0.138930	0.135700
O631	O63	0.280590	0.792630	0.153560
O641	O64	0.319820	0.909390	0.123550
O651	O65	0.979980	0.802700	0.365510
H351	H35	0.975400	0.839300	0.341200
Zn131	Zn13	0.040490	0.842130	0.419420
Zn141	Zn14	0.049990	0.724850	0.330330
Zn151	Zn15	0.372870	0.744950	0.618090
C911	C91	0.265180	0.332400	0.928470
C921	C92	0.226260	0.299800	0.966760
H361	H36	0.247500	0.253400	0.981200
C931	C93	0.155770	0.336400	0.983640
C941	C94	0.126230	0.406500	0.962760
H371	H37	0.078300	0.430500	0.973800
C951	C95	0.166500	0.441800	0.925880
C961	C96	0.235400	0.403800	0.908420
H381	H38	0.262100	0.426200	0.883000
C971	C97	0.339200	0.290000	0.908310
C981	C98	0.111600	0.305700	0.025360
C991	C99	0.135500	0.521800	0.907040
C1001	C100	0.400400	0.095700	0.731950
C1011	C101	0.429030	0.020600	0.717770
H391	H39	0.473700	0.997100	0.732800
C1021	C102	0.392230	0.979600	0.681430
C1031	C103	0.326120	0.015700	0.658810
H401	H40	0.301200	0.988700	0.634200
C1041	C104	0.297400	0.091200	0.672610
C1051	C105	0.334410	0.130500	0.709260
H411	H41	0.314600	0.181300	0.718900
C1061	C106	0.440900	0.139600	0.770990
C1071	C107	0.422500	0.897300	0.666580
C1081	C108	0.226800	0.130400	0.647870
O661	O66	0.371840	0.235520	0.932320
O671	O67	0.362640	0.313970	0.869420
O681	O68	0.149760	0.259440	0.052120
O691	O69	0.039180	0.329340	0.030440
O701	O70	0.070560	0.547360	0.925530
O711	O71	0.173740	0.557940	0.876940
O721	O72	0.415240	0.212580	0.777890
O731	O73	0.495050	0.105140	0.793160
O741	O74	0.485650	0.870050	0.686620
O751	O75	0.383170	0.861070	0.635700
O761	O76	0.219410	0.207370	0.653560
O771	O77	0.180180	0.090610	0.623550
O781	O78	0.520020	0.197300	0.865510
H421	H42	0.524600	0.160700	0.841200
Zn161	Zn16	0.459510	0.157870	0.919420
Zn171	Zn17	0.450010	0.275150	0.830330
Zn181	Zn18	0.127130	0.255050	0.118090
C1091	C109	0.765180	0.167600	0.071530
C1101	C110	0.726260	0.200200	0.033240
H431	H43	0.747500	0.246600	0.018800
C1111	C111	0.655770	0.163600	0.016360
C1121	C112	0.626230	0.093500	0.037240
H441	H44	0.578300	0.069500	0.026200
C1131	C113	0.666500	0.058200	0.074120
C1141	C114	0.735400	0.096200	0.091580
H451	H45	0.762100	0.073800	0.117000
C1151	C115	0.839200	0.210000	0.091690
C1161	C116	0.611600	0.194300	0.974640
C1171	C117	0.635500	0.978200	0.092960
C1181	C118	0.900400	0.404300	0.268050
C1191	C119	0.929030	0.479400	0.282230
H461	H46	0.973700	0.502900	0.267200
C1201	C120	0.892230	0.520400	0.318570
C1211	C121	0.826120	0.484300	0.341190
H471	H47	0.801200	0.511300	0.365800
C1221	C122	0.797400	0.408800	0.327390
C1231	C123	0.834410	0.369500	0.290740
H481	H48	0.814600	0.318700	0.281100
C1241	C124	0.940900	0.360400	0.229010
C1251	C125	0.922500	0.602700	0.333420
C1261	C126	0.726800	0.369600	0.352130
O791	O79	0.871840	0.264480	0.067680
O801	O80	0.862640	0.186030	0.130580
O811	O81	0.649760	0.240560	0.947880
O821	O82	0.539180	0.170660	0.969560
O831	O83	0.570560	0.952640	0.074470
O841	O84	0.673740	0.942060	0.123060
O851	O85	0.915240	0.287420	0.222110
O861	O86	0.995050	0.394860	0.206840
O871	O87	0.985650	0.629950	0.313380
O881	O88	0.883170	0.638930	0.364300
O891	O89	0.719410	0.292630	0.346440
O901	O90	0.680180	0.409390	0.376450
O911	O91	0.020020	0.302700	0.134490
H491	H49	0.024600	0.339300	0.158800
Zn191	Zn19	0.959510	0.342130	0.080580
Zn201	Zn20	0.950010	0.224850	0.169670
Zn211	Zn21	0.627130	0.244950	0.881910
C1271	C127	0.734820	0.832400	0.571530
C1281	C128	0.773740	0.799800	0.533240
H501	H50	0.752500	0.753400	0.518800
C1291	C129	0.844230	0.836400	0.516360
C1301	C130	0.873770	0.906500	0.537240
H511	H51	0.921700	0.930500	0.526200
C1311	C131	0.833500	0.941800	0.574120
C1321	C132	0.764600	0.903800	0.591580
H521	H52	0.737900	0.926200	0.617000
C1331	C133	0.660800	0.790000	0.591690
C1341	C134	0.888400	0.805700	0.474640
C1351	C135	0.864500	0.021800	0.592960
C1361	C136	0.599600	0.595700	0.768050
C1371	C137	0.570970	0.520600	0.782230
H531	H53	0.526300	0.497100	0.767200
C1381	C138	0.607770	0.479600	0.818570
C1391	C139	0.673880	0.515700	0.841190
H541	H54	0.698800	0.488700	0.865800
C1401	C140	0.702600	0.591200	0.827390
C1411	C141	0.665590	0.630500	0.790740
H551	H55	0.685400	0.681300	0.781100
C1421	C142	0.559100	0.639600	0.729010
C1431	C143	0.577500	0.397300	0.833420
C1441	C144	0.773200	0.630400	0.852130
O921	O92	0.628160	0.735520	0.567680
O931	O93	0.637360	0.813970	0.630580
O941	O94	0.850240	0.759440	0.447880
O951	O95	0.960820	0.829340	0.469560
O961	O96	0.929440	0.047360	0.574470
O971	O97	0.826260	0.057940	0.623060
O981	O98	0.584760	0.712580	0.722110
O991	O99	0.504950	0.605140	0.706840
O1001	O100	0.514350	0.370050	0.813380
O1011	O101	0.616830	0.361070	0.864300
O1021	O102	0.780590	0.707370	0.846440
O1031	O103	0.819820	0.590610	0.876450
O1041	O104	0.479980	0.697300	0.634490
H561	H56	0.475400	0.660700	0.658800
Zn221	Zn22	0.540490	0.657870	0.580580
Zn231	Zn23	0.549990	0.775150	0.669670
Zn241	Zn24	0.872870	0.755050	0.381910
