data_IJUJEE_clean_PM
_symmetry_space_group_name_H-M	'P1'
_cell_length_a	24.043100
_cell_length_b	9.051600
_cell_length_c	18.759400
_cell_angle_alpha	90.000000
_cell_angle_beta	114.506000
_cell_angle_gamma	90.000000
_symmetry_Int_Tables_number 1

loop_
_symmetry_equiv_pos_as_xyz
'x,y,z'

loop_
_atom_site_label
_atom_site_type_symbol
_atom_site_fract_x
_atom_site_fract_y
_atom_site_fract_z
Er11	Er1	0.457150	0.693340	0.504150
Co11	Co1	0.288230	0.509290	0.162190
O11	O1	0.421500	0.627400	0.376800
O21	O2	0.376800	0.538800	0.258000
O31	O3	0.391200	0.874300	0.445000
O41	O4	0.302900	0.979300	0.425600
O51	O5	0.539600	0.804400	0.481600
O61	O6	0.546800	0.567700	0.496100
O71	O7	0.616400	0.353500	0.459200
O81	O8	0.668300	0.368100	0.387300
N11	N1	0.269800	0.662200	0.230500
N21	N2	0.241500	0.834500	0.293700
N31	N3	0.641200	0.823000	0.448500
H11	H1	0.632400	0.908100	0.461300
N41	N4	0.684000	0.654700	0.404500
C11	C1	0.375900	0.618900	0.311300
C21	C2	0.318900	0.698200	0.296600
C31	C3	0.301700	0.801700	0.336400
C41	C4	0.333900	0.890600	0.406500
C51	C5	0.224800	0.747000	0.231100
C61	C6	0.161900	0.746700	0.168400
H21	H2	0.145300	0.648600	0.162200
H31	H3	0.162800	0.778300	0.120100
H41	H4	0.136800	0.812900	0.182300
C71	C7	0.565500	0.686200	0.479800
C81	C8	0.617000	0.690700	0.456800
C91	C9	0.644600	0.588000	0.430000
C101	C10	0.641900	0.425700	0.424500
C111	C11	0.681000	0.797100	0.417200
C121	C12	0.716600	0.916400	0.400200
H51	H5	0.758300	0.885100	0.416600
H61	H6	0.715400	0.004300	0.428100
H71	H7	0.699100	0.936300	0.345000
Er21	Er2	0.957150	0.193340	0.504150
Co21	Co2	0.788230	0.009290	0.162190
O91	O9	0.921500	0.127400	0.376800
O101	O10	0.876800	0.038800	0.258000
O111	O11	0.891200	0.374300	0.445000
O121	O12	0.802900	0.479300	0.425600
O131	O13	0.039600	0.304400	0.481600
O141	O14	0.046800	0.067700	0.496100
O151	O15	0.116400	0.853500	0.459200
O161	O16	0.168300	0.868100	0.387300
N51	N5	0.769800	0.162200	0.230500
N61	N6	0.741500	0.334500	0.293700
N71	N7	0.141200	0.323000	0.448500
H81	H8	0.132400	0.408100	0.461300
N81	N8	0.184000	0.154700	0.404500
C131	C13	0.875900	0.118900	0.311300
C141	C14	0.818900	0.198200	0.296600
C151	C15	0.801700	0.301700	0.336400
C161	C16	0.833900	0.390600	0.406500
C171	C17	0.724800	0.247000	0.231100
C181	C18	0.661900	0.246700	0.168400
H91	H9	0.645300	0.148600	0.162200
H101	H10	0.662800	0.278300	0.120100
H111	H11	0.636800	0.312900	0.182300
C191	C19	0.065500	0.186200	0.479800
C201	C20	0.117000	0.190700	0.456800
C211	C21	0.144600	0.088000	0.430000
C221	C22	0.141900	0.925700	0.424500
C231	C23	0.181000	0.297100	0.417200
C241	C24	0.216600	0.416400	0.400200
H121	H12	0.258300	0.385100	0.416600
H131	H13	0.215400	0.504300	0.428100
H141	H14	0.199100	0.436300	0.345000
Er31	Er3	0.542850	0.693340	0.995850
Co31	Co3	0.711770	0.509290	0.337810
O171	O17	0.578500	0.627400	0.123200
O181	O18	0.623200	0.538800	0.242000
O191	O19	0.608800	0.874300	0.055000
O201	O20	0.697100	0.979300	0.074400
O211	O21	0.460400	0.804400	0.018400
O221	O22	0.453200	0.567700	0.003900
O231	O23	0.383600	0.353500	0.040800
O241	O24	0.331700	0.368100	0.112700
N91	N9	0.730200	0.662200	0.269500
N101	N10	0.758500	0.834500	0.206300
N111	N11	0.358800	0.823000	0.051500
H151	H15	0.367600	0.908100	0.038700
N121	N12	0.316000	0.654700	0.095500
C251	C25	0.624100	0.618900	0.188700
C261	C26	0.681100	0.698200	0.203400
C271	C27	0.698300	0.801700	0.163600
C281	C28	0.666100	0.890600	0.093500
C291	C29	0.775200	0.747000	0.268900
C301	C30	0.838100	0.746700	0.331600
H161	H16	0.854700	0.648600	0.337800
H171	H17	0.837200	0.778300	0.379900
H181	H18	0.863200	0.812900	0.317700
C311	C31	0.434500	0.686200	0.020200
C321	C32	0.383000	0.690700	0.043200
C331	C33	0.355400	0.588000	0.070000
C341	C34	0.358100	0.425700	0.075500
C351	C35	0.319000	0.797100	0.082800
C361	C36	0.283400	0.916400	0.099800
H191	H19	0.241700	0.885100	0.083400
H201	H20	0.284600	0.004300	0.071900
H211	H21	0.300900	0.936300	0.155000
Er41	Er4	0.042850	0.193340	0.995850
Co41	Co4	0.211770	0.009290	0.337810
O251	O25	0.078500	0.127400	0.123200
O261	O26	0.123200	0.038800	0.242000
O271	O27	0.108800	0.374300	0.055000
O281	O28	0.197100	0.479300	0.074400
O291	O29	0.960400	0.304400	0.018400
O301	O30	0.953200	0.067700	0.003900
O311	O31	0.883600	0.853500	0.040800
O321	O32	0.831700	0.868100	0.112700
N131	N13	0.230200	0.162200	0.269500
N141	N14	0.258500	0.334500	0.206300
N151	N15	0.858800	0.323000	0.051500
H221	H22	0.867600	0.408100	0.038700
N161	N16	0.816000	0.154700	0.095500
C371	C37	0.124100	0.118900	0.188700
C381	C38	0.181100	0.198200	0.203400
C391	C39	0.198300	0.301700	0.163600
C401	C40	0.166100	0.390600	0.093500
C411	C41	0.275200	0.247000	0.268900
C421	C42	0.338100	0.246700	0.331600
H231	H23	0.354700	0.148600	0.337800
H241	H24	0.337200	0.278300	0.379900
H251	H25	0.363200	0.312900	0.317700
C431	C43	0.934500	0.186200	0.020200
C441	C44	0.883000	0.190700	0.043200
C451	C45	0.855400	0.088000	0.070000
C461	C46	0.858100	0.925700	0.075500
C471	C47	0.819000	0.297100	0.082800
C481	C48	0.783400	0.416400	0.099800
H261	H26	0.741700	0.385100	0.083400
H271	H27	0.784600	0.504300	0.071900
H281	H28	0.800900	0.436300	0.155000
Er51	Er5	0.542850	0.306660	0.495850
Co51	Co5	0.711770	0.490710	0.837810
O331	O33	0.578500	0.372600	0.623200
O341	O34	0.623200	0.461200	0.742000
O351	O35	0.608800	0.125700	0.555000
O361	O36	0.697100	0.020700	0.574400
O371	O37	0.460400	0.195600	0.518400
O381	O38	0.453200	0.432300	0.503900
O391	O39	0.383600	0.646500	0.540800
O401	O40	0.331700	0.631900	0.612700
N171	N17	0.730200	0.337800	0.769500
N181	N18	0.758500	0.165500	0.706300
N191	N19	0.358800	0.177000	0.551500
H291	H29	0.367600	0.091900	0.538700
N201	N20	0.316000	0.345300	0.595500
C491	C49	0.624100	0.381100	0.688700
C501	C50	0.681100	0.301800	0.703400
C511	C51	0.698300	0.198300	0.663600
C521	C52	0.666100	0.109400	0.593500
C531	C53	0.775200	0.253000	0.768900
C541	C54	0.838100	0.253300	0.831600
H301	H30	0.854700	0.351400	0.837800
H311	H31	0.837200	0.221700	0.879900
H321	H32	0.863200	0.187100	0.817700
C551	C55	0.434500	0.313800	0.520200
C561	C56	0.383000	0.309300	0.543200
C571	C57	0.355400	0.412000	0.570000
C581	C58	0.358100	0.574300	0.575500
C591	C59	0.319000	0.202900	0.582800
C601	C60	0.283400	0.083600	0.599800
H331	H33	0.241700	0.114900	0.583400
H341	H34	0.284600	0.995700	0.571900
H351	H35	0.300900	0.063700	0.655000
Er61	Er6	0.042850	0.806660	0.495850
Co61	Co6	0.211770	0.990710	0.837810
O411	O41	0.078500	0.872600	0.623200
O421	O42	0.123200	0.961200	0.742000
O431	O43	0.108800	0.625700	0.555000
O441	O44	0.197100	0.520700	0.574400
O451	O45	0.960400	0.695600	0.518400
O461	O46	0.953200	0.932300	0.503900
O471	O47	0.883600	0.146500	0.540800
O481	O48	0.831700	0.131900	0.612700
N211	N21	0.230200	0.837800	0.769500
N221	N22	0.258500	0.665500	0.706300
N231	N23	0.858800	0.677000	0.551500
H361	H36	0.867600	0.591900	0.538700
N241	N24	0.816000	0.845300	0.595500
C611	C61	0.124100	0.881100	0.688700
C621	C62	0.181100	0.801800	0.703400
C631	C63	0.198300	0.698300	0.663600
C641	C64	0.166100	0.609400	0.593500
C651	C65	0.275200	0.753000	0.768900
C661	C66	0.338100	0.753300	0.831600
H371	H37	0.354700	0.851400	0.837800
H381	H38	0.337200	0.721700	0.879900
H391	H39	0.363200	0.687100	0.817700
C671	C67	0.934500	0.813800	0.520200
C681	C68	0.883000	0.809300	0.543200
C691	C69	0.855400	0.912000	0.570000
C701	C70	0.858100	0.074300	0.575500
C711	C71	0.819000	0.702900	0.582800
C721	C72	0.783400	0.583600	0.599800
H401	H40	0.741700	0.614900	0.583400
H411	H41	0.784600	0.495700	0.571900
H421	H42	0.800900	0.563700	0.655000
Er71	Er7	0.457150	0.306660	0.004150
Co71	Co7	0.288230	0.490710	0.662190
O491	O49	0.421500	0.372600	0.876800
O501	O50	0.376800	0.461200	0.758000
O511	O51	0.391200	0.125700	0.945000
O521	O52	0.302900	0.020700	0.925600
O531	O53	0.539600	0.195600	0.981600
O541	O54	0.546800	0.432300	0.996100
O551	O55	0.616400	0.646500	0.959200
O561	O56	0.668300	0.631900	0.887300
N251	N25	0.269800	0.337800	0.730500
N261	N26	0.241500	0.165500	0.793700
N271	N27	0.641200	0.177000	0.948500
H431	H43	0.632400	0.091900	0.961300
N281	N28	0.684000	0.345300	0.904500
C731	C73	0.375900	0.381100	0.811300
C741	C74	0.318900	0.301800	0.796600
C751	C75	0.301700	0.198300	0.836400
C761	C76	0.333900	0.109400	0.906500
C771	C77	0.224800	0.253000	0.731100
C781	C78	0.161900	0.253300	0.668400
H441	H44	0.145300	0.351400	0.662200
H451	H45	0.162800	0.221700	0.620100
H461	H46	0.136800	0.187100	0.682300
C791	C79	0.565500	0.313800	0.979800
C801	C80	0.617000	0.309300	0.956800
C811	C81	0.644600	0.412000	0.930000
C821	C82	0.641900	0.574300	0.924500
C831	C83	0.681000	0.202900	0.917200
C841	C84	0.716600	0.083600	0.900200
H471	H47	0.758300	0.114900	0.916600
H481	H48	0.715400	0.995700	0.928100
H491	H49	0.699100	0.063700	0.845000
Er81	Er8	0.957150	0.806660	0.004150
Co81	Co8	0.788230	0.990710	0.662190
O571	O57	0.921500	0.872600	0.876800
O581	O58	0.876800	0.961200	0.758000
O591	O59	0.891200	0.625700	0.945000
O601	O60	0.802900	0.520700	0.925600
O611	O61	0.039600	0.695600	0.981600
O621	O62	0.046800	0.932300	0.996100
O631	O63	0.116400	0.146500	0.959200
O641	O64	0.168300	0.131900	0.887300
N291	N29	0.769800	0.837800	0.730500
N301	N30	0.741500	0.665500	0.793700
N311	N31	0.141200	0.677000	0.948500
H501	H50	0.132400	0.591900	0.961300
N321	N32	0.184000	0.845300	0.904500
C851	C85	0.875900	0.881100	0.811300
C861	C86	0.818900	0.801800	0.796600
C871	C87	0.801700	0.698300	0.836400
C881	C88	0.833900	0.609400	0.906500
C891	C89	0.724800	0.753000	0.731100
C901	C90	0.661900	0.753300	0.668400
H511	H51	0.645300	0.851400	0.662200
H521	H52	0.662800	0.721700	0.620100
H531	H53	0.636800	0.687100	0.682300
C911	C91	0.065500	0.813800	0.979800
C921	C92	0.117000	0.809300	0.956800
C931	C93	0.144600	0.912000	0.930000
C941	C94	0.141900	0.074300	0.924500
C951	C95	0.181000	0.702900	0.917200
C961	C96	0.216600	0.583600	0.900200
H541	H54	0.258300	0.614900	0.916600
H551	H55	0.215400	0.495700	0.928100
H561	H56	0.199100	0.563700	0.845000
