data_IJUTEM_clean_PM
_symmetry_space_group_name_H-M	'P1'
_cell_length_a	13.842500
_cell_length_b	13.842500
_cell_length_c	20.204200
_cell_angle_alpha	90.000000
_cell_angle_beta	90.000000
_cell_angle_gamma	120.000000
_symmetry_Int_Tables_number 1

loop_
_symmetry_equiv_pos_as_xyz
'x,y,z'

loop_
_atom_site_label
_atom_site_type_symbol
_atom_site_fract_x
_atom_site_fract_y
_atom_site_fract_z
Al11	Al1	0.893670	0.331460	0.824780
Al21	Al2	0.994680	0.225800	0.573710
P11	P1	0.894520	0.333490	0.668730
P21	P2	0.769500	0.995710	0.581620
O11	O1	0.926100	0.327000	0.739200
O21	O2	0.755500	0.225300	0.844900
O31	O3	0.889800	0.087800	0.590300
O41	O4	0.971200	0.316700	0.623300
O51	O5	0.908300	0.461700	0.845000
O61	O6	0.124700	0.240500	0.598600
O71	O7	0.996300	0.264000	0.488900
O81	O8	0.986500	0.306400	0.871900
Al31	Al3	0.668540	0.562210	0.824780
Al41	Al4	0.774200	0.768880	0.573710
P31	P3	0.666510	0.561030	0.668730
P41	P4	0.004290	0.773790	0.581620
O91	O9	0.673000	0.599100	0.739200
O101	O10	0.774700	0.530200	0.844900
O111	O11	0.912200	0.802000	0.590300
O121	O12	0.683300	0.654500	0.623300
O131	O13	0.538300	0.446600	0.845000
O141	O14	0.759500	0.884200	0.598600
O151	O15	0.736000	0.732300	0.488900
O161	O16	0.693600	0.680100	0.871900
Al51	Al5	0.437790	0.106330	0.824780
Al61	Al6	0.231120	0.005320	0.573710
P51	P5	0.438970	0.105480	0.668730
P61	P6	0.226210	0.230500	0.581620
O171	O17	0.400900	0.073900	0.739200
O181	O18	0.469800	0.244500	0.844900
O191	O19	0.198000	0.110200	0.590300
O201	O20	0.345500	0.028800	0.623300
O211	O21	0.553400	0.091700	0.845000
O221	O22	0.115800	0.875300	0.598600
O231	O23	0.267700	0.003700	0.488900
O241	O24	0.319900	0.013500	0.871900
Al71	Al7	0.668540	0.106330	0.675220
Al81	Al8	0.774200	0.005320	0.926290
P71	P7	0.666510	0.105480	0.831270
P81	P8	0.004290	0.230500	0.918380
O251	O25	0.673000	0.073900	0.760800
O261	O26	0.774700	0.244500	0.655100
O271	O27	0.912200	0.110200	0.909700
O281	O28	0.683300	0.028800	0.876700
O291	O29	0.538300	0.091700	0.655000
O301	O30	0.759500	0.875300	0.901400
O311	O31	0.736000	0.003700	0.011100
O321	O32	0.693600	0.013500	0.628100
Al91	Al9	0.437790	0.331460	0.675220
Al101	Al10	0.231120	0.225800	0.926290
P91	P9	0.438970	0.333490	0.831270
P101	P10	0.226210	0.995710	0.918380
O331	O33	0.400900	0.327000	0.760800
O341	O34	0.469800	0.225300	0.655100
O351	O35	0.198000	0.087800	0.909700
O361	O36	0.345500	0.316700	0.876700
O371	O37	0.553400	0.461700	0.655000
O381	O38	0.115800	0.240500	0.901400
O391	O39	0.267700	0.264000	0.011100
O401	O40	0.319900	0.306400	0.628100
Al111	Al11	0.893670	0.562210	0.675220
Al121	Al12	0.994680	0.768880	0.926290
P111	P11	0.894520	0.561030	0.831270
P121	P12	0.769500	0.773790	0.918380
O411	O41	0.926100	0.599100	0.760800
O421	O42	0.755500	0.530200	0.655100
O431	O43	0.889800	0.802000	0.909700
O441	O44	0.971200	0.654500	0.876700
O451	O45	0.908300	0.446600	0.655000
O461	O46	0.124700	0.884200	0.901400
O471	O47	0.996300	0.732300	0.011100
O481	O48	0.986500	0.680100	0.628100
Al131	Al13	0.106330	0.668540	0.175220
Al141	Al14	0.005320	0.774200	0.426290
P131	P13	0.105480	0.666510	0.331270
P141	P14	0.230500	0.004290	0.418380
O491	O49	0.073900	0.673000	0.260800
O501	O50	0.244500	0.774700	0.155100
O511	O51	0.110200	0.912200	0.409700
O521	O52	0.028800	0.683300	0.376700
O531	O53	0.091700	0.538300	0.155000
O541	O54	0.875300	0.759500	0.401400
O551	O55	0.003700	0.736000	0.511100
O561	O56	0.013500	0.693600	0.128100
Al151	Al15	0.331460	0.437790	0.175220
Al161	Al16	0.225800	0.231120	0.426290
P151	P15	0.333490	0.438970	0.331270
P161	P16	0.995710	0.226210	0.418380
O571	O57	0.327000	0.400900	0.260800
O581	O58	0.225300	0.469800	0.155100
O591	O59	0.087800	0.198000	0.409700
O601	O60	0.316700	0.345500	0.376700
O611	O61	0.461700	0.553400	0.155000
O621	O62	0.240500	0.115800	0.401400
O631	O63	0.264000	0.267700	0.511100
O641	O64	0.306400	0.319900	0.128100
Al171	Al17	0.562210	0.893670	0.175220
Al181	Al18	0.768880	0.994680	0.426290
P171	P17	0.561030	0.894520	0.331270
P181	P18	0.773790	0.769500	0.418380
O651	O65	0.599100	0.926100	0.260800
O661	O66	0.530200	0.755500	0.155100
O671	O67	0.802000	0.889800	0.409700
O681	O68	0.654500	0.971200	0.376700
O691	O69	0.446600	0.908300	0.155000
O701	O70	0.884200	0.124700	0.401400
O711	O71	0.732300	0.996300	0.511100
O721	O72	0.680100	0.986500	0.128100
Al191	Al19	0.331460	0.893670	0.324780
Al201	Al20	0.225800	0.994680	0.073710
P191	P19	0.333490	0.894520	0.168730
P201	P20	0.995710	0.769500	0.081620
O731	O73	0.327000	0.926100	0.239200
O741	O74	0.225300	0.755500	0.344900
O751	O75	0.087800	0.889800	0.090300
O761	O76	0.316700	0.971200	0.123300
O771	O77	0.461700	0.908300	0.345000
O781	O78	0.240500	0.124700	0.098600
O791	O79	0.264000	0.996300	0.988900
O801	O80	0.306400	0.986500	0.371900
Al211	Al21	0.562210	0.668540	0.324780
Al221	Al22	0.768880	0.774200	0.073710
P211	P21	0.561030	0.666510	0.168730
P221	P22	0.773790	0.004290	0.081620
O811	O81	0.599100	0.673000	0.239200
O821	O82	0.530200	0.774700	0.344900
O831	O83	0.802000	0.912200	0.090300
O841	O84	0.654500	0.683300	0.123300
O851	O85	0.446600	0.538300	0.345000
O861	O86	0.884200	0.759500	0.098600
O871	O87	0.732300	0.736000	0.988900
O881	O88	0.680100	0.693600	0.371900
Al231	Al23	0.106330	0.437790	0.324780
Al241	Al24	0.005320	0.231120	0.073710
P231	P23	0.105480	0.438970	0.168730
P241	P24	0.230500	0.226210	0.081620
O891	O89	0.073900	0.400900	0.239200
O901	O90	0.244500	0.469800	0.344900
O911	O91	0.110200	0.198000	0.090300
O921	O92	0.028800	0.345500	0.123300
O931	O93	0.091700	0.553400	0.345000
O941	O94	0.875300	0.115800	0.098600
O951	O95	0.003700	0.267700	0.988900
O961	O96	0.013500	0.319900	0.371900
