data_IKEBUV_clean_PM
_symmetry_space_group_name_H-M	'P1'
_cell_length_a	8.401500
_cell_length_b	8.401500
_cell_length_c	12.015000
_cell_angle_alpha	90.000000
_cell_angle_beta	90.000000
_cell_angle_gamma	90.000000
_symmetry_Int_Tables_number 1

loop_
_symmetry_equiv_pos_as_xyz
'x,y,z'

loop_
_atom_site_label
_atom_site_type_symbol
_atom_site_fract_x
_atom_site_fract_y
_atom_site_fract_z
Cu11	Cu1	0.806640	0.402720	0.375120
Cu21	Cu2	0.193360	0.597280	0.875120
Cu31	Cu3	0.597280	0.806640	0.125120
Cu41	Cu4	0.402720	0.193360	0.625120
H11	H1	0.833200	0.028900	0.410300
H21	H2	0.679200	0.937600	0.374600
H31	H3	0.166800	0.971100	0.910300
H41	H4	0.320800	0.062400	0.874600
H51	H5	0.971100	0.833200	0.160300
H61	H6	0.062400	0.679200	0.124600
H71	H7	0.028900	0.166800	0.660300
H81	H8	0.937600	0.320800	0.624600
C11	C1	0.741500	0.111900	0.262500
C21	C2	0.727000	0.042400	0.380000
C31	C3	0.629800	0.141200	0.461500
C41	C4	0.258500	0.888100	0.762500
C51	C5	0.273000	0.957600	0.880000
C61	C6	0.370200	0.858800	0.961500
C71	C7	0.888100	0.741500	0.012500
C81	C8	0.957600	0.727000	0.130000
C91	C9	0.858800	0.629800	0.211500
C101	C10	0.111900	0.258500	0.512500
C111	C11	0.042400	0.273000	0.630000
C121	C12	0.141200	0.370200	0.711500
O11	O1	0.767900	0.259200	0.252900
O21	O2	0.732900	0.021600	0.182300
O31	O3	0.648100	0.288700	0.466200
O41	O4	0.535900	0.066300	0.523300
O51	O5	0.232100	0.740800	0.752900
O61	O6	0.267100	0.978400	0.682300
O71	O7	0.351900	0.711300	0.966200
O81	O8	0.464100	0.933700	0.023300
O91	O9	0.740800	0.767900	0.002900
O101	O10	0.978400	0.732900	0.932300
O111	O11	0.711300	0.648100	0.216200
O121	O12	0.933700	0.535900	0.273300
O131	O13	0.259200	0.232100	0.502900
O141	O14	0.021600	0.267100	0.432300
O151	O15	0.288700	0.351900	0.716200
O161	O16	0.066300	0.464100	0.773300
