data_IKETUN_clean_PM
_symmetry_space_group_name_H-M	'P1'
_cell_length_a	26.353000
_cell_length_b	26.353000
_cell_length_c	26.353000
_cell_angle_alpha	90.000000
_cell_angle_beta	90.000000
_cell_angle_gamma	90.000000
_symmetry_Int_Tables_number 1

loop_
_symmetry_equiv_pos_as_xyz
'x,y,z'

loop_
_atom_site_label
_atom_site_type_symbol
_atom_site_fract_x
_atom_site_fract_y
_atom_site_fract_z
O11	O1	0.243500	0.051300	0.183400
O21	O2	0.243500	0.551300	0.683400
O31	O3	0.743500	0.051300	0.683400
O41	O4	0.743500	0.551300	0.183400
O51	O5	0.756500	0.948700	0.183400
O61	O6	0.756500	0.448700	0.683400
O71	O7	0.256500	0.948700	0.683400
O81	O8	0.256500	0.448700	0.183400
O91	O9	0.756500	0.051300	0.816600
O101	O10	0.756500	0.551300	0.316600
O111	O11	0.256500	0.051300	0.316600
O121	O12	0.256500	0.551300	0.816600
O131	O13	0.243500	0.948700	0.816600
O141	O14	0.243500	0.448700	0.316600
O151	O15	0.743500	0.948700	0.316600
O161	O16	0.743500	0.448700	0.816600
O171	O17	0.183400	0.243500	0.051300
O181	O18	0.183400	0.743500	0.551300
O191	O19	0.683400	0.243500	0.551300
O201	O20	0.683400	0.743500	0.051300
O211	O21	0.183400	0.756500	0.948700
O221	O22	0.183400	0.256500	0.448700
O231	O23	0.683400	0.756500	0.448700
O241	O24	0.683400	0.256500	0.948700
O251	O25	0.816600	0.756500	0.051300
O261	O26	0.816600	0.256500	0.551300
O271	O27	0.316600	0.756500	0.551300
O281	O28	0.316600	0.256500	0.051300
O291	O29	0.816600	0.243500	0.948700
O301	O30	0.816600	0.743500	0.448700
O311	O31	0.316600	0.243500	0.448700
O321	O32	0.316600	0.743500	0.948700
O331	O33	0.051300	0.183400	0.243500
O341	O34	0.051300	0.683400	0.743500
O351	O35	0.551300	0.183400	0.743500
O361	O36	0.551300	0.683400	0.243500
O371	O37	0.948700	0.183400	0.756500
O381	O38	0.948700	0.683400	0.256500
O391	O39	0.448700	0.183400	0.256500
O401	O40	0.448700	0.683400	0.756500
O411	O41	0.051300	0.816600	0.756500
O421	O42	0.051300	0.316600	0.256500
O431	O43	0.551300	0.816600	0.256500
O441	O44	0.551300	0.316600	0.756500
O451	O45	0.948700	0.816600	0.243500
O461	O46	0.948700	0.316600	0.743500
O471	O47	0.448700	0.816600	0.743500
O481	O48	0.448700	0.316600	0.243500
O491	O49	0.051300	0.243500	0.816600
O501	O50	0.051300	0.743500	0.316600
O511	O51	0.551300	0.243500	0.316600
O521	O52	0.551300	0.743500	0.816600
O531	O53	0.948700	0.756500	0.816600
O541	O54	0.948700	0.256500	0.316600
O551	O55	0.448700	0.756500	0.316600
O561	O56	0.448700	0.256500	0.816600
O571	O57	0.051300	0.756500	0.183400
O581	O58	0.051300	0.256500	0.683400
O591	O59	0.551300	0.756500	0.683400
O601	O60	0.551300	0.256500	0.183400
O611	O61	0.948700	0.243500	0.183400
O621	O62	0.948700	0.743500	0.683400
O631	O63	0.448700	0.243500	0.683400
O641	O64	0.448700	0.743500	0.183400
O651	O65	0.243500	0.183400	0.948700
O661	O66	0.243500	0.683400	0.448700
O671	O67	0.743500	0.183400	0.448700
O681	O68	0.743500	0.683400	0.948700
O691	O69	0.756500	0.183400	0.051300
O701	O70	0.756500	0.683400	0.551300
O711	O71	0.256500	0.183400	0.551300
O721	O72	0.256500	0.683400	0.051300
O731	O73	0.756500	0.816600	0.948700
O741	O74	0.756500	0.316600	0.448700
O751	O75	0.256500	0.816600	0.448700
O761	O76	0.256500	0.316600	0.948700
O771	O77	0.243500	0.816600	0.051300
O781	O78	0.243500	0.316600	0.551300
O791	O79	0.743500	0.816600	0.551300
O801	O80	0.743500	0.316600	0.051300
O811	O81	0.183400	0.051300	0.756500
O821	O82	0.183400	0.551300	0.256500
O831	O83	0.683400	0.051300	0.256500
O841	O84	0.683400	0.551300	0.756500
O851	O85	0.183400	0.948700	0.243500
O861	O86	0.183400	0.448700	0.743500
O871	O87	0.683400	0.948700	0.743500
O881	O88	0.683400	0.448700	0.243500
O891	O89	0.816600	0.051300	0.243500
O901	O90	0.816600	0.551300	0.743500
O911	O91	0.316600	0.051300	0.743500
O921	O92	0.316600	0.551300	0.243500
O931	O93	0.816600	0.948700	0.756500
O941	O94	0.816600	0.448700	0.256500
O951	O95	0.316600	0.948700	0.256500
O961	O96	0.316600	0.448700	0.756500
O971	O97	0.756500	0.948700	0.816600
O981	O98	0.756500	0.448700	0.316600
O991	O99	0.256500	0.948700	0.316600
O1001	O100	0.256500	0.448700	0.816600
O1011	O101	0.243500	0.051300	0.816600
O1021	O102	0.243500	0.551300	0.316600
O1031	O103	0.743500	0.051300	0.316600
O1041	O104	0.743500	0.551300	0.816600
O1051	O105	0.243500	0.948700	0.183400
O1061	O106	0.243500	0.448700	0.683400
O1071	O107	0.743500	0.948700	0.683400
O1081	O108	0.743500	0.448700	0.183400
O1091	O109	0.756500	0.051300	0.183400
O1101	O110	0.756500	0.551300	0.683400
O1111	O111	0.256500	0.051300	0.683400
O1121	O112	0.256500	0.551300	0.183400
O1131	O113	0.816600	0.756500	0.948700
O1141	O114	0.816600	0.256500	0.448700
O1151	O115	0.316600	0.756500	0.448700
O1161	O116	0.316600	0.256500	0.948700
O1171	O117	0.816600	0.243500	0.051300
O1181	O118	0.816600	0.743500	0.551300
O1191	O119	0.316600	0.243500	0.551300
O1201	O120	0.316600	0.743500	0.051300
O1211	O121	0.183400	0.243500	0.948700
O1221	O122	0.183400	0.743500	0.448700
O1231	O123	0.683400	0.243500	0.448700
O1241	O124	0.683400	0.743500	0.948700
O1251	O125	0.183400	0.756500	0.051300
O1261	O126	0.183400	0.256500	0.551300
O1271	O127	0.683400	0.756500	0.551300
O1281	O128	0.683400	0.256500	0.051300
O1291	O129	0.948700	0.816600	0.756500
O1301	O130	0.948700	0.316600	0.256500
O1311	O131	0.448700	0.816600	0.256500
O1321	O132	0.448700	0.316600	0.756500
O1331	O133	0.051300	0.816600	0.243500
O1341	O134	0.051300	0.316600	0.743500
O1351	O135	0.551300	0.816600	0.743500
O1361	O136	0.551300	0.316600	0.243500
O1371	O137	0.948700	0.183400	0.243500
O1381	O138	0.948700	0.683400	0.743500
O1391	O139	0.448700	0.183400	0.743500
O1401	O140	0.448700	0.683400	0.243500
O1411	O141	0.051300	0.183400	0.756500
O1421	O142	0.051300	0.683400	0.256500
O1431	O143	0.551300	0.183400	0.256500
O1441	O144	0.551300	0.683400	0.756500
O1451	O145	0.948700	0.756500	0.183400
O1461	O146	0.948700	0.256500	0.683400
O1471	O147	0.448700	0.756500	0.683400
O1481	O148	0.448700	0.256500	0.183400
O1491	O149	0.051300	0.243500	0.183400
O1501	O150	0.051300	0.743500	0.683400
O1511	O151	0.551300	0.243500	0.683400
O1521	O152	0.551300	0.743500	0.183400
O1531	O153	0.948700	0.243500	0.816600
O1541	O154	0.948700	0.743500	0.316600
O1551	O155	0.448700	0.243500	0.316600
O1561	O156	0.448700	0.743500	0.816600
O1571	O157	0.051300	0.756500	0.816600
O1581	O158	0.051300	0.256500	0.316600
O1591	O159	0.551300	0.756500	0.316600
O1601	O160	0.551300	0.256500	0.816600
O1611	O161	0.756500	0.816600	0.051300
O1621	O162	0.756500	0.316600	0.551300
O1631	O163	0.256500	0.816600	0.551300
O1641	O164	0.256500	0.316600	0.051300
O1651	O165	0.243500	0.816600	0.948700
O1661	O166	0.243500	0.316600	0.448700
O1671	O167	0.743500	0.816600	0.448700
O1681	O168	0.743500	0.316600	0.948700
O1691	O169	0.243500	0.183400	0.051300
O1701	O170	0.243500	0.683400	0.551300
O1711	O171	0.743500	0.183400	0.551300
O1721	O172	0.743500	0.683400	0.051300
O1731	O173	0.756500	0.183400	0.948700
O1741	O174	0.756500	0.683400	0.448700
O1751	O175	0.256500	0.183400	0.448700
O1761	O176	0.256500	0.683400	0.948700
O1771	O177	0.816600	0.948700	0.243500
O1781	O178	0.816600	0.448700	0.743500
O1791	O179	0.316600	0.948700	0.743500
O1801	O180	0.316600	0.448700	0.243500
O1811	O181	0.816600	0.051300	0.756500
O1821	O182	0.816600	0.551300	0.256500
O1831	O183	0.316600	0.051300	0.256500
O1841	O184	0.316600	0.551300	0.756500
O1851	O185	0.183400	0.948700	0.756500
O1861	O186	0.183400	0.448700	0.256500
O1871	O187	0.683400	0.948700	0.256500
O1881	O188	0.683400	0.448700	0.756500
O1891	O189	0.183400	0.051300	0.243500
O1901	O190	0.183400	0.551300	0.743500
O1911	O191	0.683400	0.051300	0.743500
O1921	O192	0.683400	0.551300	0.243500
Cu11	Cu1	0.285000	0.000000	0.215000
Cu21	Cu2	0.285000	0.500000	0.715000
Cu31	Cu3	0.715000	0.000000	0.215000
Cu41	Cu4	0.715000	0.500000	0.715000
Cu51	Cu5	0.215000	0.500000	0.215000
Cu61	Cu6	0.715000	0.000000	0.785000
Cu71	Cu7	0.715000	0.500000	0.285000
Cu81	Cu8	0.215000	0.000000	0.285000
Cu91	Cu9	0.285000	0.000000	0.785000
Cu101	Cu10	0.285000	0.500000	0.285000
Cu111	Cu11	0.215000	0.285000	0.000000
Cu121	Cu12	0.215000	0.785000	0.500000
Cu131	Cu13	0.215000	0.715000	0.000000
Cu141	Cu14	0.215000	0.215000	0.500000
Cu151	Cu15	0.785000	0.715000	0.000000
Cu161	Cu16	0.785000	0.215000	0.500000
Cu171	Cu17	0.285000	0.215000	0.000000
Cu181	Cu18	0.785000	0.285000	0.000000
Cu191	Cu19	0.785000	0.785000	0.500000
Cu201	Cu20	0.285000	0.285000	0.500000
Cu211	Cu21	0.000000	0.215000	0.285000
Cu221	Cu22	0.500000	0.215000	0.785000
Cu231	Cu23	0.000000	0.215000	0.715000
Cu241	Cu24	0.500000	0.215000	0.215000
Cu251	Cu25	0.000000	0.785000	0.715000
Cu261	Cu26	0.000000	0.285000	0.215000
Cu271	Cu27	0.500000	0.785000	0.215000
Cu281	Cu28	0.000000	0.785000	0.285000
Cu291	Cu29	0.500000	0.785000	0.785000
Cu301	Cu30	0.500000	0.285000	0.285000
Cu311	Cu31	0.000000	0.285000	0.785000
Cu321	Cu32	0.000000	0.715000	0.785000
Cu331	Cu33	0.500000	0.715000	0.285000
Cu341	Cu34	0.000000	0.715000	0.215000
Cu351	Cu35	0.500000	0.715000	0.715000
Cu361	Cu36	0.500000	0.285000	0.715000
Cu371	Cu37	0.285000	0.715000	0.500000
Cu381	Cu38	0.715000	0.215000	0.000000
Cu391	Cu39	0.715000	0.715000	0.500000
Cu401	Cu40	0.715000	0.785000	0.000000
Cu411	Cu41	0.715000	0.285000	0.500000
Cu421	Cu42	0.285000	0.785000	0.000000
Cu431	Cu43	0.215000	0.000000	0.715000
Cu441	Cu44	0.215000	0.500000	0.785000
Cu451	Cu45	0.785000	0.000000	0.285000
Cu461	Cu46	0.785000	0.500000	0.785000
Cu471	Cu47	0.785000	0.000000	0.715000
Cu481	Cu48	0.785000	0.500000	0.215000
C11	C1	0.198800	0.132900	0.132900
C21	C2	0.198800	0.632900	0.632900
C31	C3	0.698800	0.132900	0.632900
C41	C4	0.698800	0.632900	0.132900
C51	C5	0.801200	0.867100	0.132900
C61	C6	0.801200	0.367100	0.632900
C71	C7	0.301200	0.867100	0.632900
C81	C8	0.301200	0.367100	0.132900
C91	C9	0.801200	0.132900	0.867100
C101	C10	0.801200	0.632900	0.367100
C111	C11	0.301200	0.132900	0.367100
C121	C12	0.301200	0.632900	0.867100
C131	C13	0.198800	0.867100	0.867100
C141	C14	0.198800	0.367100	0.367100
C151	C15	0.698800	0.867100	0.367100
C161	C16	0.698800	0.367100	0.867100
C171	C17	0.132900	0.198800	0.132900
C181	C18	0.132900	0.698800	0.632900
C191	C19	0.632900	0.198800	0.632900
C201	C20	0.632900	0.698800	0.132900
C211	C21	0.132900	0.801200	0.867100
C221	C22	0.132900	0.301200	0.367100
C231	C23	0.632900	0.801200	0.367100
C241	C24	0.632900	0.301200	0.867100
C251	C25	0.867100	0.801200	0.132900
C261	C26	0.867100	0.301200	0.632900
C271	C27	0.367100	0.801200	0.632900
C281	C28	0.367100	0.301200	0.132900
C291	C29	0.867100	0.198800	0.867100
C301	C30	0.867100	0.698800	0.367100
C311	C31	0.367100	0.198800	0.367100
C321	C32	0.367100	0.698800	0.867100
C331	C33	0.132900	0.132900	0.198800
C341	C34	0.132900	0.632900	0.698800
C351	C35	0.632900	0.132900	0.698800
C361	C36	0.632900	0.632900	0.198800
C371	C37	0.867100	0.132900	0.801200
C381	C38	0.867100	0.632900	0.301200
C391	C39	0.367100	0.132900	0.301200
C401	C40	0.367100	0.632900	0.801200
C411	C41	0.132900	0.867100	0.801200
C421	C42	0.132900	0.367100	0.301200
C431	C43	0.632900	0.867100	0.301200
C441	C44	0.632900	0.367100	0.801200
C451	C45	0.867100	0.867100	0.198800
C461	C46	0.867100	0.367100	0.698800
C471	C47	0.367100	0.867100	0.698800
C481	C48	0.367100	0.367100	0.198800
C491	C49	0.132900	0.198800	0.867100
C501	C50	0.132900	0.698800	0.367100
C511	C51	0.632900	0.198800	0.367100
C521	C52	0.632900	0.698800	0.867100
C531	C53	0.867100	0.801200	0.867100
C541	C54	0.867100	0.301200	0.367100
C551	C55	0.367100	0.801200	0.367100
C561	C56	0.367100	0.301200	0.867100
C571	C57	0.132900	0.801200	0.132900
C581	C58	0.132900	0.301200	0.632900
C591	C59	0.632900	0.801200	0.632900
C601	C60	0.632900	0.301200	0.132900
C611	C61	0.867100	0.198800	0.132900
C621	C62	0.867100	0.698800	0.632900
C631	C63	0.367100	0.198800	0.632900
C641	C64	0.367100	0.698800	0.132900
C651	C65	0.198800	0.132900	0.867100
C661	C66	0.198800	0.632900	0.367100
C671	C67	0.698800	0.132900	0.367100
C681	C68	0.698800	0.632900	0.867100
C691	C69	0.801200	0.132900	0.132900
C701	C70	0.801200	0.632900	0.632900
C711	C71	0.301200	0.132900	0.632900
C721	C72	0.301200	0.632900	0.132900
C731	C73	0.801200	0.867100	0.867100
C741	C74	0.801200	0.367100	0.367100
C751	C75	0.301200	0.867100	0.367100
C761	C76	0.301200	0.367100	0.867100
C771	C77	0.198800	0.867100	0.132900
C781	C78	0.198800	0.367100	0.632900
C791	C79	0.698800	0.867100	0.632900
C801	C80	0.698800	0.367100	0.132900
C811	C81	0.132900	0.132900	0.801200
C821	C82	0.132900	0.632900	0.301200
C831	C83	0.632900	0.132900	0.301200
C841	C84	0.632900	0.632900	0.801200
C851	C85	0.132900	0.867100	0.198800
C861	C86	0.132900	0.367100	0.698800
C871	C87	0.632900	0.867100	0.698800
C881	C88	0.632900	0.367100	0.198800
C891	C89	0.867100	0.132900	0.198800
C901	C90	0.867100	0.632900	0.698800
C911	C91	0.367100	0.132900	0.698800
C921	C92	0.367100	0.632900	0.198800
C931	C93	0.867100	0.867100	0.801200
C941	C94	0.867100	0.367100	0.301200
C951	C95	0.367100	0.867100	0.301200
C961	C96	0.367100	0.367100	0.801200
C971	C97	0.202700	0.067700	0.202700
C981	C98	0.175900	0.111900	0.175900
C991	C99	0.202700	0.567700	0.702700
C1001	C100	0.175900	0.611900	0.675900
C1011	C101	0.702700	0.067700	0.702700
C1021	C102	0.675900	0.111900	0.675900
C1031	C103	0.702700	0.567700	0.202700
C1041	C104	0.675900	0.611900	0.175900
C1051	C105	0.797300	0.932300	0.202700
C1061	C106	0.824100	0.888100	0.175900
C1071	C107	0.797300	0.432300	0.702700
C1081	C108	0.824100	0.388100	0.675900
C1091	C109	0.297300	0.932300	0.702700
C1101	C110	0.324100	0.888100	0.675900
C1111	C111	0.297300	0.432300	0.202700
C1121	C112	0.324100	0.388100	0.175900
C1131	C113	0.797300	0.067700	0.797300
C1141	C114	0.824100	0.111900	0.824100
C1151	C115	0.797300	0.567700	0.297300
C1161	C116	0.824100	0.611900	0.324100
C1171	C117	0.297300	0.067700	0.297300
C1181	C118	0.324100	0.111900	0.324100
C1191	C119	0.297300	0.567700	0.797300
C1201	C120	0.324100	0.611900	0.824100
C1211	C121	0.202700	0.932300	0.797300
C1221	C122	0.175900	0.888100	0.824100
C1231	C123	0.202700	0.432300	0.297300
C1241	C124	0.175900	0.388100	0.324100
C1251	C125	0.702700	0.932300	0.297300
C1261	C126	0.675900	0.888100	0.324100
C1271	C127	0.702700	0.432300	0.797300
C1281	C128	0.675900	0.388100	0.824100
C1291	C129	0.202700	0.202700	0.067700
C1301	C130	0.175900	0.175900	0.111900
C1311	C131	0.202700	0.702700	0.567700
C1321	C132	0.175900	0.675900	0.611900
C1331	C133	0.702700	0.202700	0.567700
C1341	C134	0.675900	0.175900	0.611900
C1351	C135	0.702700	0.702700	0.067700
C1361	C136	0.675900	0.675900	0.111900
C1371	C137	0.202700	0.797300	0.932300
C1381	C138	0.175900	0.824100	0.888100
C1391	C139	0.202700	0.297300	0.432300
C1401	C140	0.175900	0.324100	0.388100
C1411	C141	0.702700	0.797300	0.432300
C1421	C142	0.675900	0.824100	0.388100
C1431	C143	0.702700	0.297300	0.932300
C1441	C144	0.675900	0.324100	0.888100
C1451	C145	0.797300	0.797300	0.067700
C1461	C146	0.824100	0.824100	0.111900
C1471	C147	0.797300	0.297300	0.567700
C1481	C148	0.824100	0.324100	0.611900
C1491	C149	0.297300	0.797300	0.567700
C1501	C150	0.324100	0.824100	0.611900
C1511	C151	0.297300	0.297300	0.067700
C1521	C152	0.324100	0.324100	0.111900
C1531	C153	0.797300	0.202700	0.932300
C1541	C154	0.824100	0.175900	0.888100
C1551	C155	0.797300	0.702700	0.432300
C1561	C156	0.824100	0.675900	0.388100
C1571	C157	0.297300	0.202700	0.432300
C1581	C158	0.324100	0.175900	0.388100
C1591	C159	0.297300	0.702700	0.932300
C1601	C160	0.324100	0.675900	0.888100
C1611	C161	0.067700	0.202700	0.202700
C1621	C162	0.111900	0.175900	0.175900
C1631	C163	0.067700	0.702700	0.702700
C1641	C164	0.111900	0.675900	0.675900
C1651	C165	0.567700	0.202700	0.702700
C1661	C166	0.611900	0.175900	0.675900
C1671	C167	0.567700	0.702700	0.202700
C1681	C168	0.611900	0.675900	0.175900
C1691	C169	0.932300	0.202700	0.797300
C1701	C170	0.888100	0.175900	0.824100
C1711	C171	0.932300	0.702700	0.297300
C1721	C172	0.888100	0.675900	0.324100
C1731	C173	0.432300	0.202700	0.297300
C1741	C174	0.388100	0.175900	0.324100
C1751	C175	0.432300	0.702700	0.797300
C1761	C176	0.388100	0.675900	0.824100
C1771	C177	0.067700	0.797300	0.797300
C1781	C178	0.111900	0.824100	0.824100
C1791	C179	0.067700	0.297300	0.297300
C1801	C180	0.111900	0.324100	0.324100
C1811	C181	0.567700	0.797300	0.297300
C1821	C182	0.611900	0.824100	0.324100
C1831	C183	0.567700	0.297300	0.797300
C1841	C184	0.611900	0.324100	0.824100
C1851	C185	0.932300	0.797300	0.202700
C1861	C186	0.888100	0.824100	0.175900
C1871	C187	0.932300	0.297300	0.702700
C1881	C188	0.888100	0.324100	0.675900
C1891	C189	0.432300	0.797300	0.702700
C1901	C190	0.388100	0.824100	0.675900
C1911	C191	0.432300	0.297300	0.202700
C1921	C192	0.388100	0.324100	0.175900
C1931	C193	0.067700	0.202700	0.797300
C1941	C194	0.111900	0.175900	0.824100
C1951	C195	0.067700	0.702700	0.297300
C1961	C196	0.111900	0.675900	0.324100
C1971	C197	0.567700	0.202700	0.297300
C1981	C198	0.611900	0.175900	0.324100
C1991	C199	0.567700	0.702700	0.797300
C2001	C200	0.611900	0.675900	0.824100
C2011	C201	0.932300	0.797300	0.797300
C2021	C202	0.888100	0.824100	0.824100
C2031	C203	0.932300	0.297300	0.297300
C2041	C204	0.888100	0.324100	0.324100
C2051	C205	0.432300	0.797300	0.297300
C2061	C206	0.388100	0.824100	0.324100
C2071	C207	0.432300	0.297300	0.797300
C2081	C208	0.388100	0.324100	0.824100
C2091	C209	0.067700	0.797300	0.202700
C2101	C210	0.111900	0.824100	0.175900
C2111	C211	0.067700	0.297300	0.702700
C2121	C212	0.111900	0.324100	0.675900
C2131	C213	0.567700	0.797300	0.702700
C2141	C214	0.611900	0.824100	0.675900
C2151	C215	0.567700	0.297300	0.202700
C2161	C216	0.611900	0.324100	0.175900
C2171	C217	0.932300	0.202700	0.202700
C2181	C218	0.888100	0.175900	0.175900
C2191	C219	0.932300	0.702700	0.702700
C2201	C220	0.888100	0.675900	0.675900
C2211	C221	0.432300	0.202700	0.702700
C2221	C222	0.388100	0.175900	0.675900
C2231	C223	0.432300	0.702700	0.202700
C2241	C224	0.388100	0.675900	0.175900
C2251	C225	0.202700	0.202700	0.932300
C2261	C226	0.175900	0.175900	0.888100
C2271	C227	0.202700	0.702700	0.432300
C2281	C228	0.175900	0.675900	0.388100
C2291	C229	0.702700	0.202700	0.432300
C2301	C230	0.675900	0.175900	0.388100
C2311	C231	0.702700	0.702700	0.932300
C2321	C232	0.675900	0.675900	0.888100
C2331	C233	0.797300	0.202700	0.067700
C2341	C234	0.824100	0.175900	0.111900
C2351	C235	0.797300	0.702700	0.567700
C2361	C236	0.824100	0.675900	0.611900
C2371	C237	0.297300	0.202700	0.567700
C2381	C238	0.324100	0.175900	0.611900
C2391	C239	0.297300	0.702700	0.067700
C2401	C240	0.324100	0.675900	0.111900
C2411	C241	0.797300	0.797300	0.932300
C2421	C242	0.824100	0.824100	0.888100
C2431	C243	0.797300	0.297300	0.432300
C2441	C244	0.824100	0.324100	0.388100
C2451	C245	0.297300	0.797300	0.432300
C2461	C246	0.324100	0.824100	0.388100
C2471	C247	0.297300	0.297300	0.932300
C2481	C248	0.324100	0.324100	0.888100
C2491	C249	0.202700	0.797300	0.067700
C2501	C250	0.175900	0.824100	0.111900
C2511	C251	0.202700	0.297300	0.567700
C2521	C252	0.175900	0.324100	0.611900
C2531	C253	0.702700	0.797300	0.567700
C2541	C254	0.675900	0.824100	0.611900
C2551	C255	0.702700	0.297300	0.067700
C2561	C256	0.675900	0.324100	0.111900
C2571	C257	0.202700	0.067700	0.797300
C2581	C258	0.175900	0.111900	0.824100
C2591	C259	0.202700	0.567700	0.297300
C2601	C260	0.175900	0.611900	0.324100
C2611	C261	0.702700	0.067700	0.297300
C2621	C262	0.675900	0.111900	0.324100
C2631	C263	0.702700	0.567700	0.797300
C2641	C264	0.675900	0.611900	0.824100
C2651	C265	0.202700	0.932300	0.202700
C2661	C266	0.175900	0.888100	0.175900
C2671	C267	0.202700	0.432300	0.702700
C2681	C268	0.175900	0.388100	0.675900
C2691	C269	0.702700	0.932300	0.702700
C2701	C270	0.675900	0.888100	0.675900
C2711	C271	0.702700	0.432300	0.202700
C2721	C272	0.675900	0.388100	0.175900
C2731	C273	0.797300	0.067700	0.202700
C2741	C274	0.824100	0.111900	0.175900
C2751	C275	0.797300	0.567700	0.702700
C2761	C276	0.824100	0.611900	0.675900
C2771	C277	0.297300	0.067700	0.702700
C2781	C278	0.324100	0.111900	0.675900
C2791	C279	0.297300	0.567700	0.202700
C2801	C280	0.324100	0.611900	0.175900
C2811	C281	0.797300	0.932300	0.797300
C2821	C282	0.824100	0.888100	0.824100
C2831	C283	0.797300	0.432300	0.297300
C2841	C284	0.824100	0.388100	0.324100
C2851	C285	0.297300	0.932300	0.297300
C2861	C286	0.324100	0.888100	0.324100
C2871	C287	0.297300	0.432300	0.797300
C2881	C288	0.324100	0.388100	0.824100
