data_IKETOI_clean_PM
_symmetry_space_group_name_H-M	'P1'
_cell_length_a	6.092200
_cell_length_b	9.963300
_cell_length_c	13.359800
_cell_angle_alpha	68.853000
_cell_angle_beta	81.104000
_cell_angle_gamma	76.848000
_symmetry_Int_Tables_number 1

loop_
_symmetry_equiv_pos_as_xyz
'x,y,z'

loop_
_atom_site_label
_atom_site_type_symbol
_atom_site_fract_x
_atom_site_fract_y
_atom_site_fract_z
Gd11	Gd1	0.832140	0.614290	0.195720
Gd21	Gd2	0.167860	0.385710	0.804290
H11	H1	0.326900	0.047100	0.028100
H21	H2	0.704000	0.324800	0.629700
H31	H3	0.673100	0.952900	0.971900
H41	H4	0.296000	0.675200	0.370300
C11	C1	0.288300	0.766100	0.141000
C21	C2	0.134000	0.893400	0.068700
C31	C3	0.192100	0.029800	0.015200
C41	C4	0.950700	0.382600	0.439500
C51	C5	0.710100	0.444100	0.472800
C61	C6	0.617200	0.397600	0.577600
C71	C7	0.088800	0.439900	0.034500
C81	C8	0.711700	0.233900	0.859000
C91	C9	0.866000	0.106600	0.931300
C101	C10	0.807900	0.970200	0.984800
C111	C11	0.049300	0.617400	0.560500
C121	C12	0.289900	0.555900	0.527200
C131	C13	0.382800	0.602400	0.422400
C141	C14	0.911200	0.560100	0.965500
N11	N1	0.940100	0.863700	0.054200
N21	N2	0.593400	0.546500	0.393300
N31	N3	0.059900	0.136300	0.945800
N41	N4	0.406600	0.453500	0.606700
O11	O1	0.214200	0.649300	0.183700
O21	O2	0.479900	0.783400	0.151400
O31	O3	0.014200	0.431500	0.341800
O41	O4	0.069100	0.290600	0.510200
O51	O5	0.084700	0.429500	0.130300
O61	O6	0.223000	0.361200	0.987300
O71	O7	0.785800	0.350700	0.816300
O81	O8	0.520100	0.216600	0.848600
O91	O9	0.985800	0.568500	0.658200
O101	O10	0.930900	0.709400	0.489800
O111	O11	0.915300	0.570500	0.869700
O121	O12	0.777000	0.638800	0.012700
