data_IKOPIJ_clean_PM
_symmetry_space_group_name_H-M	'P1'
_cell_length_a	27.314000
_cell_length_b	13.126000
_cell_length_c	14.000000
_cell_angle_alpha	90.000000
_cell_angle_beta	96.143000
_cell_angle_gamma	90.000000
_symmetry_Int_Tables_number 1

loop_
_symmetry_equiv_pos_as_xyz
'x,y,z'

loop_
_atom_site_label
_atom_site_type_symbol
_atom_site_fract_x
_atom_site_fract_y
_atom_site_fract_z
Cu11	Cu1	0.210950	0.690400	0.496790
O11	O1	0.189060	0.795600	0.583900
O21	O2	0.255070	0.898600	0.590200
O31	O3	0.251470	0.123200	0.893000
O41	O4	0.186090	0.225400	0.886800
O51	O5	0.094800	0.244100	0.563600
O61	O6	0.057200	0.312000	0.678200
O71	O7	0.960500	0.323000	0.632500
O81	O8	0.928700	0.255100	0.489900
C11	C1	0.211900	0.878100	0.605400
C21	C2	0.186000	0.955400	0.659300
C31	C3	0.210800	0.017000	0.728600
H11	H1	0.244500	0.009500	0.744400
C41	C4	0.184300	0.092200	0.775700
C51	C5	0.134100	0.104100	0.747000
H21	H2	0.117000	0.155300	0.775300
C61	C6	0.108400	0.041900	0.677200
C71	C7	0.134500	0.966500	0.637100
H31	H3	0.117700	0.921300	0.594100
C81	C8	0.210200	0.149700	0.856900
C91	C9	0.054700	0.053500	0.648100
C101	C10	0.025600	0.966100	0.641200
H41	H4	0.040100	0.902600	0.653200
C111	C11	0.974900	0.972600	0.616500
H51	H5	0.955600	0.914600	0.618800
C121	C12	0.954200	0.060300	0.589900
H61	H6	0.921200	0.061900	0.565000
C131	C13	0.981300	0.151000	0.599000
C141	C14	0.032200	0.145500	0.625900
C151	C15	0.062600	0.237900	0.618400
C161	C16	0.954000	0.246000	0.569000
Cu21	Cu2	0.710950	0.190400	0.496790
O91	O9	0.689060	0.295600	0.583900
O101	O10	0.755070	0.398600	0.590200
O111	O11	0.751470	0.623200	0.893000
O121	O12	0.686090	0.725400	0.886800
O131	O13	0.594800	0.744100	0.563600
O141	O14	0.557200	0.812000	0.678200
O151	O15	0.460500	0.823000	0.632500
O161	O16	0.428700	0.755100	0.489900
C171	C17	0.711900	0.378100	0.605400
C181	C18	0.686000	0.455400	0.659300
C191	C19	0.710800	0.517000	0.728600
H71	H7	0.744500	0.509500	0.744400
C201	C20	0.684300	0.592200	0.775700
C211	C21	0.634100	0.604100	0.747000
H81	H8	0.617000	0.655300	0.775300
C221	C22	0.608400	0.541900	0.677200
C231	C23	0.634500	0.466500	0.637100
H91	H9	0.617700	0.421300	0.594100
C241	C24	0.710200	0.649700	0.856900
C251	C25	0.554700	0.553500	0.648100
C261	C26	0.525600	0.466100	0.641200
H101	H10	0.540100	0.402600	0.653200
C271	C27	0.474900	0.472600	0.616500
H111	H11	0.455600	0.414600	0.618800
C281	C28	0.454200	0.560300	0.589900
H121	H12	0.421200	0.561900	0.565000
C291	C29	0.481300	0.651000	0.599000
C301	C30	0.532200	0.645500	0.625900
C311	C31	0.562600	0.737900	0.618400
C321	C32	0.454000	0.746000	0.569000
Cu31	Cu3	0.789050	0.690400	0.003210
O171	O17	0.810940	0.795600	0.916100
O181	O18	0.744930	0.898600	0.909800
O191	O19	0.748530	0.123200	0.607000
O201	O20	0.813910	0.225400	0.613200
O211	O21	0.905200	0.244100	0.936400
O221	O22	0.942800	0.312000	0.821800
O231	O23	0.039500	0.323000	0.867500
O241	O24	0.071300	0.255100	0.010100
C331	C33	0.788100	0.878100	0.894600
C341	C34	0.814000	0.955400	0.840700
C351	C35	0.789200	0.017000	0.771400
H131	H13	0.755500	0.009500	0.755600
C361	C36	0.815700	0.092200	0.724300
C371	C37	0.865900	0.104100	0.753000
H141	H14	0.883000	0.155300	0.724700
C381	C38	0.891600	0.041900	0.822800
C391	C39	0.865500	0.966500	0.862900
H151	H15	0.882300	0.921300	0.905900
C401	C40	0.789800	0.149700	0.643100
C411	C41	0.945300	0.053500	0.851900
C421	C42	0.974400	0.966100	0.858800
H161	H16	0.959900	0.902600	0.846800
C431	C43	0.025100	0.972600	0.883500
H171	H17	0.044400	0.914600	0.881200
C441	C44	0.045800	0.060300	0.910100
H181	H18	0.078800	0.061900	0.935000
C451	C45	0.018700	0.151000	0.901000
C461	C46	0.967800	0.145500	0.874100
C471	C47	0.937400	0.237900	0.881600
C481	C48	0.046000	0.246000	0.931000
Cu41	Cu4	0.289050	0.190400	0.003210
O251	O25	0.310940	0.295600	0.916100
O261	O26	0.244930	0.398600	0.909800
O271	O27	0.248530	0.623200	0.607000
O281	O28	0.313910	0.725400	0.613200
O291	O29	0.405200	0.744100	0.936400
O301	O30	0.442800	0.812000	0.821800
O311	O31	0.539500	0.823000	0.867500
O321	O32	0.571300	0.755100	0.010100
C491	C49	0.288100	0.378100	0.894600
C501	C50	0.314000	0.455400	0.840700
C511	C51	0.289200	0.517000	0.771400
H191	H19	0.255500	0.509500	0.755600
C521	C52	0.315700	0.592200	0.724300
C531	C53	0.365900	0.604100	0.753000
H201	H20	0.383000	0.655300	0.724700
C541	C54	0.391600	0.541900	0.822800
C551	C55	0.365500	0.466500	0.862900
H211	H21	0.382300	0.421300	0.905900
C561	C56	0.289800	0.649700	0.643100
C571	C57	0.445300	0.553500	0.851900
C581	C58	0.474400	0.466100	0.858800
H221	H22	0.459900	0.402600	0.846800
C591	C59	0.525100	0.472600	0.883500
H231	H23	0.544400	0.414600	0.881200
C601	C60	0.545800	0.560300	0.910100
H241	H24	0.578800	0.561900	0.935000
C611	C61	0.518700	0.651000	0.901000
C621	C62	0.467800	0.645500	0.874100
C631	C63	0.437400	0.737900	0.881600
C641	C64	0.546000	0.746000	0.931000
Cu51	Cu5	0.789050	0.309600	0.503210
O331	O33	0.810940	0.204400	0.416100
O341	O34	0.744930	0.101400	0.409800
O351	O35	0.748530	0.876800	0.107000
O361	O36	0.813910	0.774600	0.113200
O371	O37	0.905200	0.755900	0.436400
O381	O38	0.942800	0.688000	0.321800
O391	O39	0.039500	0.677000	0.367500
O401	O40	0.071300	0.744900	0.510100
C651	C65	0.788100	0.121900	0.394600
C661	C66	0.814000	0.044600	0.340700
C671	C67	0.789200	0.983000	0.271400
H251	H25	0.755500	0.990500	0.255600
C681	C68	0.815700	0.907800	0.224300
C691	C69	0.865900	0.895900	0.253000
H261	H26	0.883000	0.844700	0.224700
C701	C70	0.891600	0.958100	0.322800
C711	C71	0.865500	0.033500	0.362900
H271	H27	0.882300	0.078700	0.405900
C721	C72	0.789800	0.850300	0.143100
C731	C73	0.945300	0.946500	0.351900
C741	C74	0.974400	0.033900	0.358800
H281	H28	0.959900	0.097400	0.346800
C751	C75	0.025100	0.027400	0.383500
H291	H29	0.044400	0.085400	0.381200
C761	C76	0.045800	0.939700	0.410100
H301	H30	0.078800	0.938100	0.435000
C771	C77	0.018700	0.849000	0.401000
C781	C78	0.967800	0.854500	0.374100
C791	C79	0.937400	0.762100	0.381600
C801	C80	0.046000	0.754000	0.431000
Cu61	Cu6	0.289050	0.809600	0.503210
O411	O41	0.310940	0.704400	0.416100
O421	O42	0.244930	0.601400	0.409800
O431	O43	0.248530	0.376800	0.107000
O441	O44	0.313910	0.274600	0.113200
O451	O45	0.405200	0.255900	0.436400
O461	O46	0.442800	0.188000	0.321800
O471	O47	0.539500	0.177000	0.367500
O481	O48	0.571300	0.244900	0.510100
C811	C81	0.288100	0.621900	0.394600
C821	C82	0.314000	0.544600	0.340700
C831	C83	0.289200	0.483000	0.271400
H311	H31	0.255500	0.490500	0.255600
C841	C84	0.315700	0.407800	0.224300
C851	C85	0.365900	0.395900	0.253000
H321	H32	0.383000	0.344700	0.224700
C861	C86	0.391600	0.458100	0.322800
C871	C87	0.365500	0.533500	0.362900
H331	H33	0.382300	0.578700	0.405900
C881	C88	0.289800	0.350300	0.143100
C891	C89	0.445300	0.446500	0.351900
C901	C90	0.474400	0.533900	0.358800
H341	H34	0.459900	0.597400	0.346800
C911	C91	0.525100	0.527400	0.383500
H351	H35	0.544400	0.585400	0.381200
C921	C92	0.545800	0.439700	0.410100
H361	H36	0.578800	0.438100	0.435000
C931	C93	0.518700	0.349000	0.401000
C941	C94	0.467800	0.354500	0.374100
C951	C95	0.437400	0.262100	0.381600
C961	C96	0.546000	0.254000	0.431000
Cu71	Cu7	0.210950	0.309600	0.996790
O491	O49	0.189060	0.204400	0.083900
O501	O50	0.255070	0.101400	0.090200
O511	O51	0.251470	0.876800	0.393000
O521	O52	0.186090	0.774600	0.386800
O531	O53	0.094800	0.755900	0.063600
O541	O54	0.057200	0.688000	0.178200
O551	O55	0.960500	0.677000	0.132500
O561	O56	0.928700	0.744900	0.989900
C971	C97	0.211900	0.121900	0.105400
C981	C98	0.186000	0.044600	0.159300
C991	C99	0.210800	0.983000	0.228600
H371	H37	0.244500	0.990500	0.244400
C1001	C100	0.184300	0.907800	0.275700
C1011	C101	0.134100	0.895900	0.247000
H381	H38	0.117000	0.844700	0.275300
C1021	C102	0.108400	0.958100	0.177200
C1031	C103	0.134500	0.033500	0.137100
H391	H39	0.117700	0.078700	0.094100
C1041	C104	0.210200	0.850300	0.356900
C1051	C105	0.054700	0.946500	0.148100
C1061	C106	0.025600	0.033900	0.141200
H401	H40	0.040100	0.097400	0.153200
C1071	C107	0.974900	0.027400	0.116500
H411	H41	0.955600	0.085400	0.118800
C1081	C108	0.954200	0.939700	0.089900
H421	H42	0.921200	0.938100	0.065000
C1091	C109	0.981300	0.849000	0.099000
C1101	C110	0.032200	0.854500	0.125900
C1111	C111	0.062600	0.762100	0.118400
C1121	C112	0.954000	0.754000	0.069000
Cu81	Cu8	0.710950	0.809600	0.996790
O571	O57	0.689060	0.704400	0.083900
O581	O58	0.755070	0.601400	0.090200
O591	O59	0.751470	0.376800	0.393000
O601	O60	0.686090	0.274600	0.386800
O611	O61	0.594800	0.255900	0.063600
O621	O62	0.557200	0.188000	0.178200
O631	O63	0.460500	0.177000	0.132500
O641	O64	0.428700	0.244900	0.989900
C1131	C113	0.711900	0.621900	0.105400
C1141	C114	0.686000	0.544600	0.159300
C1151	C115	0.710800	0.483000	0.228600
H431	H43	0.744500	0.490500	0.244400
C1161	C116	0.684300	0.407800	0.275700
C1171	C117	0.634100	0.395900	0.247000
H441	H44	0.617000	0.344700	0.275300
C1181	C118	0.608400	0.458100	0.177200
C1191	C119	0.634500	0.533500	0.137100
H451	H45	0.617700	0.578700	0.094100
C1201	C120	0.710200	0.350300	0.356900
C1211	C121	0.554700	0.446500	0.148100
C1221	C122	0.525600	0.533900	0.141200
H461	H46	0.540100	0.597400	0.153200
C1231	C123	0.474900	0.527400	0.116500
H471	H47	0.455600	0.585400	0.118800
C1241	C124	0.454200	0.439700	0.089900
H481	H48	0.421200	0.438100	0.065000
C1251	C125	0.481300	0.349000	0.099000
C1261	C126	0.532200	0.354500	0.125900
C1271	C127	0.562600	0.262100	0.118400
C1281	C128	0.454000	0.254000	0.069000
Cu91	Cu9	0.000000	0.323160	0.750000
Cu101	Cu10	0.500000	0.823160	0.750000
Cu111	Cu11	0.000000	0.676840	0.250000
Cu121	Cu12	0.500000	0.176840	0.250000
