data_IKUTOZ_clean_PM
_symmetry_space_group_name_H-M	'P1'
_cell_length_a	10.767300
_cell_length_b	11.020900
_cell_length_c	13.091800
_cell_angle_alpha	105.064000
_cell_angle_beta	94.854000
_cell_angle_gamma	93.847000
_symmetry_Int_Tables_number 1

loop_
_symmetry_equiv_pos_as_xyz
'x,y,z'

loop_
_atom_site_label
_atom_site_type_symbol
_atom_site_fract_x
_atom_site_fract_y
_atom_site_fract_z
Dy11	Dy1	0.030200	0.551280	0.175410
C11	C1	0.995400	0.738800	0.009200
C21	C2	0.011800	0.767100	0.335200
C31	C3	0.232800	0.519200	0.985700
C41	C4	0.998300	0.875000	0.007100
C51	C5	0.004200	0.887600	0.420200
C61	C6	0.371500	0.510000	0.991100
C71	C7	0.108000	0.934900	0.985200
C81	C8	0.050900	0.000700	0.405200
C91	C9	0.425400	0.434600	0.907300
C101	C10	0.221100	0.877000	0.975000
H11	H1	0.224100	0.796300	0.984100
C111	C11	0.099200	0.007600	0.305400
H21	H2	0.099200	0.934700	0.250300
C121	C12	0.447600	0.574000	0.081200
H31	H3	0.411600	0.625300	0.137000
C131	C13	0.324300	0.935600	0.952500
H41	H4	0.396600	0.893900	0.944200
C141	C14	0.144700	0.122000	0.293100
H51	H5	0.175900	0.125400	0.229700
C151	C15	0.325100	0.058800	0.941400
H61	H6	0.397800	0.099100	0.927300
C161	C16	0.144900	0.234500	0.375000
H71	H7	0.178400	0.310800	0.366300
C171	C17	0.219800	0.118300	0.951500
H81	H8	0.220300	0.198800	0.941300
C181	C18	0.095200	0.230700	0.467500
H91	H9	0.091800	0.305700	0.519600
C191	C19	0.892700	0.938000	0.022700
C201	C20	0.951400	0.885500	0.514100
N11	N1	0.351000	0.360000	0.813800
H101	H10	0.385400	0.310000	0.764700
H111	H11	0.271400	0.365400	0.806600
O11	O1	0.009200	0.717300	0.096500
O21	O2	0.911400	0.707200	0.287900
O31	O3	0.188700	0.558100	0.072100
O41	O4	0.977500	0.658700	0.922000
O51	O5	0.116200	0.728800	0.317200
O61	O6	0.172400	0.492500	0.898400
Dy21	Dy2	0.969800	0.448720	0.824590
C211	C21	0.004600	0.261200	0.990800
C221	C22	0.988200	0.232900	0.664800
C231	C23	0.767200	0.480800	0.014300
C241	C24	0.001700	0.125000	0.992900
C251	C25	0.995800	0.112400	0.579800
C261	C26	0.628500	0.490000	0.008900
C271	C27	0.892000	0.065100	0.014800
C281	C28	0.949100	0.999300	0.594800
C291	C29	0.574600	0.565400	0.092700
C301	C30	0.778900	0.123000	0.025000
H121	H12	0.775900	0.203700	0.015900
C311	C31	0.900800	0.992400	0.694600
H131	H13	0.900800	0.065300	0.749700
C321	C32	0.552400	0.426000	0.918800
H141	H14	0.588400	0.374700	0.863000
C331	C33	0.675700	0.064400	0.047500
H151	H15	0.603400	0.106100	0.055800
C341	C34	0.855300	0.878000	0.706900
H161	H16	0.824100	0.874600	0.770300
C351	C35	0.674900	0.941200	0.058600
H171	H17	0.602200	0.900900	0.072700
C361	C36	0.855100	0.765500	0.625000
H181	H18	0.821600	0.689200	0.633700
C371	C37	0.780200	0.881700	0.048500
H191	H19	0.779700	0.801200	0.058700
C381	C38	0.904800	0.769300	0.532500
H201	H20	0.908200	0.694300	0.480400
C391	C39	0.107300	0.062000	0.977300
C401	C40	0.048600	0.114500	0.485900
N21	N2	0.649000	0.640000	0.186200
H211	H21	0.614600	0.690000	0.235300
H221	H22	0.728600	0.634600	0.193400
O71	O7	0.990800	0.282700	0.903500
O81	O8	0.088600	0.292800	0.712100
O91	O9	0.811300	0.441900	0.927900
O101	O10	0.022500	0.341300	0.078000
O111	O11	0.883800	0.271200	0.682800
O121	O12	0.827600	0.507500	0.101600
