data_ILIFUE_clean_PM
_symmetry_space_group_name_H-M	'P1'
_cell_length_a	8.942700
_cell_length_b	10.288000
_cell_length_c	10.288000
_cell_angle_alpha	120.000000
_cell_angle_beta	90.000000
_cell_angle_gamma	90.000000
_symmetry_Int_Tables_number 1

loop_
_symmetry_equiv_pos_as_xyz
'x,y,z'

loop_
_atom_site_label
_atom_site_type_symbol
_atom_site_fract_x
_atom_site_fract_y
_atom_site_fract_z
Ce11	Ce1	0.950120	0.333330	0.666660
Ce21	Ce2	0.049880	0.666670	0.333340
H11	H1	0.562400	0.479900	0.115100
H21	H2	0.720700	0.629800	0.058900
H31	H3	0.562400	0.635200	0.520100
H41	H4	0.720700	0.429100	0.370200
H51	H5	0.562400	0.884900	0.364800
H61	H6	0.720700	0.941100	0.570900
H71	H7	0.437600	0.520100	0.884900
H81	H8	0.279300	0.370200	0.941100
H91	H9	0.437600	0.364800	0.479900
H101	H10	0.279300	0.570900	0.629800
H111	H11	0.437600	0.115100	0.635200
H121	H12	0.279300	0.058900	0.429100
C11	C1	0.843800	0.445500	0.025300
C21	C2	0.566600	0.461900	0.012200
C31	C3	0.715600	0.521000	0.991100
C41	C4	0.843800	0.579800	0.554500
C51	C5	0.566600	0.550300	0.538100
C61	C6	0.715600	0.470100	0.479000
C71	C7	0.843800	0.974700	0.420200
C81	C8	0.566600	0.987800	0.449700
C91	C9	0.715600	0.008900	0.529900
C101	C10	0.156200	0.554500	0.974700
C111	C11	0.433400	0.538100	0.987800
C121	C12	0.284400	0.479000	0.008900
C131	C13	0.156200	0.420200	0.445500
C141	C14	0.433400	0.449700	0.461900
C151	C15	0.284400	0.529900	0.521000
C161	C16	0.156200	0.025300	0.579800
C171	C17	0.433400	0.012200	0.550300
C181	C18	0.284400	0.991100	0.470100
O11	O1	0.559100	0.303500	0.911100
O21	O2	0.921800	0.350900	0.917200
O31	O3	0.862900	0.481300	0.159500
O41	O4	0.734600	0.488000	0.839000
O51	O5	0.559100	0.607600	0.696500
O61	O6	0.921800	0.566300	0.649100
O71	O7	0.862900	0.678200	0.518700
O81	O8	0.734600	0.351000	0.512000
O91	O9	0.559100	0.088900	0.392400
O101	O10	0.921800	0.082800	0.433700
O111	O11	0.862900	0.840500	0.321800
O121	O12	0.734600	0.161000	0.649000
O131	O13	0.440900	0.696500	0.088900
O141	O14	0.078200	0.649100	0.082800
O151	O15	0.137100	0.518700	0.840500
O161	O16	0.265400	0.512000	0.161000
O171	O17	0.440900	0.392400	0.303500
O181	O18	0.078200	0.433700	0.350900
O191	O19	0.137100	0.321800	0.481300
O201	O20	0.265400	0.649000	0.488000
O211	O21	0.440900	0.911100	0.607600
O221	O22	0.078200	0.917200	0.566300
O231	O23	0.137100	0.159500	0.678200
O241	O24	0.265400	0.839000	0.351000
