data_ILIGEP_clean_PM
_symmetry_space_group_name_H-M	'P1'
_cell_length_a	8.902100
_cell_length_b	10.215100
_cell_length_c	10.215100
_cell_angle_alpha	120.000000
_cell_angle_beta	90.000000
_cell_angle_gamma	90.000000
_symmetry_Int_Tables_number 1

loop_
_symmetry_equiv_pos_as_xyz
'x,y,z'

loop_
_atom_site_label
_atom_site_type_symbol
_atom_site_fract_x
_atom_site_fract_y
_atom_site_fract_z
Nd11	Nd1	0.948860	0.333330	0.666660
Nd21	Nd2	0.051140	0.666670	0.333340
H11	H1	0.562900	0.481300	0.116800
H21	H2	0.722000	0.631400	0.060200
H31	H3	0.562900	0.635500	0.518700
H41	H4	0.722000	0.428800	0.368600
H51	H5	0.562900	0.883200	0.364500
H61	H6	0.722000	0.939800	0.571200
H71	H7	0.437100	0.518700	0.883200
H81	H8	0.278000	0.368600	0.939800
H91	H9	0.437100	0.364500	0.481300
H101	H10	0.278000	0.571200	0.631400
H111	H11	0.437100	0.116800	0.635500
H121	H12	0.278000	0.060200	0.428800
C11	C1	0.845000	0.445700	0.025300
C21	C2	0.567400	0.462400	0.012900
C31	C3	0.716800	0.521800	0.991600
C41	C4	0.845000	0.579600	0.554300
C51	C5	0.567400	0.550500	0.537600
C61	C6	0.716800	0.469800	0.478200
C71	C7	0.845000	0.974700	0.420400
C81	C8	0.567400	0.987100	0.449500
C91	C9	0.716800	0.008400	0.530200
C101	C10	0.155000	0.554300	0.974700
C111	C11	0.432600	0.537600	0.987100
C121	C12	0.283200	0.478200	0.008400
C131	C13	0.155000	0.420400	0.445700
C141	C14	0.432600	0.449500	0.462400
C151	C15	0.283200	0.530200	0.521800
C161	C16	0.155000	0.025300	0.579600
C171	C17	0.432600	0.012900	0.550500
C181	C18	0.283200	0.991600	0.469800
O11	O1	0.559200	0.302600	0.912200
O21	O2	0.923600	0.350000	0.916000
O31	O3	0.864600	0.482500	0.160900
O41	O4	0.736700	0.488800	0.838400
O51	O5	0.559200	0.609600	0.697400
O61	O6	0.923600	0.566000	0.650000
O71	O7	0.864600	0.678400	0.517500
O81	O8	0.736700	0.349600	0.511200
O91	O9	0.559200	0.087800	0.390400
O101	O10	0.923600	0.084000	0.434000
O111	O11	0.864600	0.839100	0.321600
O121	O12	0.736700	0.161600	0.650400
O131	O13	0.440800	0.697400	0.087800
O141	O14	0.076400	0.650000	0.084000
O151	O15	0.135400	0.517500	0.839100
O161	O16	0.263300	0.511200	0.161600
O171	O17	0.440800	0.390400	0.302600
O181	O18	0.076400	0.434000	0.350000
O191	O19	0.135400	0.321600	0.482500
O201	O20	0.263300	0.650400	0.488800
O211	O21	0.440800	0.912200	0.609600
O221	O22	0.076400	0.916000	0.566000
O231	O23	0.135400	0.160900	0.678400
O241	O24	0.263300	0.838400	0.349600
