data_ILIGAL_clean_PM
_symmetry_space_group_name_H-M	'P1'
_cell_length_a	8.908400
_cell_length_b	10.218200
_cell_length_c	10.218200
_cell_angle_alpha	120.000000
_cell_angle_beta	90.000000
_cell_angle_gamma	90.000000
_symmetry_Int_Tables_number 1

loop_
_symmetry_equiv_pos_as_xyz
'x,y,z'

loop_
_atom_site_label
_atom_site_type_symbol
_atom_site_fract_x
_atom_site_fract_y
_atom_site_fract_z
Pr11	Pr1	0.948040	0.333330	0.666660
Pr21	Pr2	0.051960	0.666670	0.333340
H11	H1	0.563000	0.482100	0.364800
H21	H2	0.722000	0.631800	0.572700
H31	H3	0.563000	0.882700	0.517900
H41	H4	0.722000	0.940900	0.368200
H51	H5	0.563000	0.635200	0.117300
H61	H6	0.722000	0.427300	0.059100
H71	H7	0.437000	0.517900	0.635200
H81	H8	0.278000	0.368200	0.427300
H91	H9	0.437000	0.117300	0.482100
H101	H10	0.278000	0.059100	0.631800
H111	H11	0.437000	0.364800	0.882700
H121	H12	0.278000	0.572700	0.940900
C11	C1	0.567300	0.462700	0.449400
C21	C2	0.844900	0.445800	0.420800
C31	C3	0.716600	0.522300	0.531300
C41	C4	0.567300	0.986700	0.537300
C51	C5	0.844900	0.975000	0.554200
C61	C6	0.716600	0.009000	0.477700
C71	C7	0.567300	0.550600	0.013300
C81	C8	0.844900	0.579200	0.025000
C91	C9	0.716600	0.468700	0.991000
C101	C10	0.432700	0.537300	0.550600
C111	C11	0.155100	0.554200	0.579200
C121	C12	0.283400	0.477700	0.468700
C131	C13	0.432700	0.013300	0.462700
C141	C14	0.155100	0.025000	0.445800
C151	C15	0.283400	0.991000	0.522300
C161	C16	0.432700	0.449400	0.986700
C171	C17	0.155100	0.420800	0.975000
C181	C18	0.283400	0.531300	0.009000
O11	O1	0.560500	0.302400	0.389900
O21	O2	0.922600	0.349900	0.434100
O31	O3	0.867100	0.482200	0.322500
O41	O4	0.735300	0.488300	0.650800
O51	O5	0.560500	0.087500	0.697600
O61	O6	0.922600	0.084200	0.650100
O71	O7	0.867100	0.840300	0.517800
O81	O8	0.735300	0.162500	0.511700
O91	O9	0.560500	0.610100	0.912500
O101	O10	0.922600	0.565900	0.915800
O111	O11	0.867100	0.677500	0.159700
O121	O12	0.735300	0.349200	0.837500
O131	O13	0.439500	0.697600	0.610100
O141	O14	0.077400	0.650100	0.565900
O151	O15	0.132900	0.517800	0.677500
O161	O16	0.264700	0.511700	0.349200
O171	O17	0.439500	0.912500	0.302400
O181	O18	0.077400	0.915800	0.349900
O191	O19	0.132900	0.159700	0.482200
O201	O20	0.264700	0.837500	0.488300
O211	O21	0.439500	0.389900	0.087500
O221	O22	0.077400	0.434100	0.084200
O231	O23	0.132900	0.322500	0.840300
O241	O24	0.264700	0.650800	0.162500
