data_ILITUT_manual_PM
_symmetry_space_group_name_H-M	'P1'
_cell_length_a	33.328800
_cell_length_b	33.328800
_cell_length_c	27.853000
_cell_angle_alpha	90.000000
_cell_angle_beta	90.000000
_cell_angle_gamma	90.024300
_symmetry_Int_Tables_number 1

loop_
_symmetry_equiv_pos_as_xyz
'x,y,z'

loop_
_atom_site_label
_atom_site_type_symbol
_atom_site_fract_x
_atom_site_fract_y
_atom_site_fract_z
Co11	Co1	0.250370	0.242590	0.749990
Co21	Co2	0.249670	0.257410	0.249990
Co31	Co3	0.000340	0.492530	0.707790
Co41	Co4	0.499690	0.007470	0.207790
Co51	Co5	0.000340	0.492530	0.792210
Co61	Co6	0.499690	0.007470	0.292210
H71	H7	0.359830	0.351170	0.827240
H81	H8	0.411190	0.404090	0.827500
H91	H9	0.500410	0.062280	0.544920
H101	H10	0.000520	0.055780	0.631710
H111	H11	0.140050	0.148980	0.327240
H121	H12	0.088650	0.096100	0.327500
H131	H13	0.000330	0.437720	0.044920
H141	H14	0.500070	0.444220	0.131710
H151	H15	0.140770	0.134080	0.672760
H161	H16	0.089090	0.081460	0.672500
H171	H17	0.999880	0.433780	0.967260
H181	H18	0.000270	0.413150	0.837140
H191	H19	0.027100	0.399980	0.889750
H201	H20	0.473050	0.400040	0.889530
H211	H21	0.359410	0.365770	0.172760
H221	H22	0.411120	0.418360	0.172500
H231	H23	0.499550	0.066210	0.467260
H241	H24	0.499510	0.086850	0.337140
H251	H25	0.472280	0.099820	0.389550
H261	H26	0.026340	0.100160	0.389720
H271	H27	0.140050	0.148980	0.172760
H281	H28	0.088650	0.096100	0.172500
H291	H29	0.000330	0.437720	0.455080
H301	H30	0.500070	0.444220	0.368290
H311	H31	0.359830	0.351170	0.672760
H321	H32	0.411200	0.404090	0.672500
H331	H33	0.500410	0.062280	0.955080
H341	H34	0.000520	0.055780	0.868290
H351	H35	0.359410	0.365770	0.327240
H361	H36	0.411120	0.418360	0.327500
H371	H37	0.499550	0.066210	0.032740
H381	H38	0.499510	0.086850	0.162860
H391	H39	0.472280	0.099820	0.110450
H401	H40	0.026340	0.100160	0.110280
H411	H41	0.140770	0.134080	0.827240
H421	H42	0.089090	0.081460	0.827500
H431	H43	0.999880	0.433780	0.532740
H441	H44	0.000270	0.413150	0.662860
H451	H45	0.027100	0.399980	0.610250
H461	H46	0.473050	0.400040	0.610470
H471	H47	0.358910	0.133020	0.672760
H481	H48	0.411480	0.081320	0.672500
H491	H49	0.141940	0.352270	0.672760
H501	H50	0.089660	0.404250	0.672500
H511	H51	0.141260	0.367130	0.172760
H521	H52	0.088730	0.418860	0.172500
H531	H53	0.357940	0.147580	0.172760
H541	H54	0.410180	0.095570	0.172510
H551	H55	0.358910	0.133020	0.827240
H561	H56	0.411480	0.081320	0.827500
H571	H57	0.141940	0.352270	0.827240
H581	H58	0.089660	0.404250	0.827490
H591	H59	0.141260	0.367130	0.327240
H601	H60	0.088730	0.418860	0.327500
H611	H61	0.357940	0.147580	0.327240
H621	H62	0.410180	0.095570	0.327490
H631	H63	0.402190	0.204070	0.750000
H641	H64	0.404320	0.280710	0.750000
H651	H65	0.288970	0.394410	0.750000
H661	H66	0.212350	0.396550	0.750000
H671	H67	0.097890	0.296150	0.250000
H681	H68	0.095660	0.219510	0.250000
H691	H69	0.210850	0.105640	0.250000
H701	H70	0.287460	0.103400	0.250000
H711	H71	0.288400	0.088640	0.750000
H721	H72	0.211760	0.090770	0.750000
H731	H73	0.096400	0.204520	0.750000
H741	H74	0.098550	0.281160	0.750000
H751	H75	0.211850	0.411410	0.250000
H761	H76	0.288480	0.409180	0.250000
H771	H77	0.403680	0.295270	0.250000
H781	H78	0.401420	0.218630	0.250000
C791	C79	0.370910	0.362620	0.793350
C801	C80	0.400330	0.392930	0.793380
C811	C81	0.000300	0.032280	0.559380
C821	C82	0.000380	0.028550	0.610590
C831	C83	0.128960	0.137550	0.293350
C841	C84	0.099520	0.107250	0.293380
C851	C85	0.500090	0.467720	0.059380
C861	C86	0.499960	0.471450	0.110590
C871	C87	0.129640	0.122680	0.706650
C881	C88	0.100030	0.092540	0.706620
C891	C89	0.000160	0.458270	0.895420
C901	C90	0.000040	0.461360	0.946930
C911	C91	0.000140	0.415990	0.876250
C921	C92	0.370550	0.377160	0.206650
C931	C93	0.400170	0.407280	0.206620
C941	C94	0.499620	0.041730	0.395420
C951	C95	0.499700	0.038640	0.446930
C961	C96	0.499420	0.084010	0.376250
C971	C97	0.128960	0.137550	0.206650
C981	C98	0.099520	0.107250	0.206610
C991	C99	0.500090	0.467720	0.440610
C1001	C100	0.499960	0.471450	0.389410
C1011	C101	0.370910	0.362620	0.706650
C1021	C102	0.400330	0.392930	0.706620
C1031	C103	0.000300	0.032280	0.940620
C1041	C104	0.000380	0.028550	0.889410
C1051	C105	0.370550	0.377160	0.293350
C1061	C106	0.400170	0.407280	0.293380
C1071	C107	0.499620	0.041730	0.104580
C1081	C108	0.499700	0.038640	0.053070
C1091	C109	0.499420	0.084010	0.123750
C1101	C110	0.129640	0.122680	0.793350
C1111	C111	0.100030	0.092540	0.793380
C1121	C112	0.000160	0.458270	0.604580
C1131	C113	0.000040	0.461360	0.553070
C1141	C114	0.000140	0.415990	0.623750
C1151	C115	0.322350	0.168340	0.750000
C1161	C116	0.354830	0.136960	0.750000
C1171	C117	0.415900	0.076860	0.750000
C1181	C118	0.447840	0.045010	0.750000
C1191	C119	0.178390	0.316860	0.750000
C1201	C120	0.145960	0.348270	0.750000
C1211	C121	0.085250	0.408710	0.750000
C1221	C122	0.053340	0.440560	0.750000
C1231	C123	0.177780	0.331760	0.250000
C1241	C124	0.145340	0.363190	0.250000
C1251	C125	0.084310	0.423320	0.250000
C1261	C126	0.052340	0.455140	0.250000
C1271	C127	0.321530	0.183040	0.250000
C1281	C128	0.353920	0.151580	0.250000
C1291	C129	0.414600	0.091110	0.250000
C1301	C130	0.446540	0.059290	0.250000
C1311	C131	0.370290	0.121880	0.706650
C1321	C132	0.400390	0.092240	0.706620
C1331	C133	0.130600	0.363450	0.706650
C1341	C134	0.100670	0.393250	0.706620
C1351	C135	0.000090	0.498460	0.528280
C1361	C136	0.129900	0.378280	0.206650
C1371	C137	0.099820	0.407930	0.206620
C1381	C138	0.369260	0.136390	0.206650
C1391	C139	0.399180	0.106570	0.206620
C1401	C140	0.499950	0.001540	0.028280
C1411	C141	0.370290	0.121880	0.793350
C1421	C142	0.400390	0.092240	0.793380
C1431	C143	0.130600	0.363450	0.793350
C1441	C144	0.100670	0.393250	0.793380
C1451	C145	0.000090	0.498460	0.971710
C1461	C146	0.129900	0.378280	0.293350
C1471	C147	0.099820	0.407930	0.293380
C1481	C148	0.369260	0.136390	0.293350
C1491	C149	0.399180	0.106570	0.293380
C1501	C150	0.499950	0.001540	0.471710
C1511	C151	0.333830	0.211040	0.750000
C1521	C152	0.376090	0.223370	0.750000
C1531	C153	0.377310	0.262650	0.750000
C1541	C154	0.335720	0.276070	0.750000
C1551	C155	0.324610	0.314570	0.750000
C1561	C156	0.281930	0.326040	0.750000
C1571	C157	0.269650	0.368310	0.750000
C1581	C158	0.230380	0.369540	0.750000
C1591	C159	0.216910	0.327950	0.750000
C1601	C160	0.355940	0.347080	0.750000
C1611	C161	0.415570	0.408570	0.750000
C1621	C162	0.447300	0.440590	0.750000
C1631	C163	0.166250	0.289080	0.250000
C1641	C164	0.123970	0.276810	0.250000
C1651	C165	0.122690	0.237530	0.250000
C1661	C166	0.164260	0.224050	0.250000
C1671	C167	0.175320	0.185530	0.250000
C1681	C168	0.217990	0.174000	0.250000
C1691	C169	0.230210	0.131720	0.250000
C1701	C170	0.269480	0.130430	0.250000
C1711	C171	0.283000	0.172000	0.250000
C1721	C172	0.143950	0.153070	0.250000
C1731	C173	0.084280	0.091620	0.250000
C1741	C174	0.052580	0.059560	0.250000
C1751	C175	0.283830	0.157240	0.750000
C1761	C176	0.270370	0.115650	0.750000
C1771	C177	0.231090	0.116870	0.750000
C1781	C178	0.218790	0.159140	0.750000
C1791	C179	0.176100	0.170610	0.750000
C1801	C180	0.165000	0.209120	0.750000
C1811	C181	0.123420	0.222570	0.750000
C1821	C182	0.124650	0.261850	0.750000
C1831	C183	0.166910	0.274160	0.750000
C1841	C184	0.144720	0.138130	0.750000
C1851	C185	0.084690	0.076980	0.750000
C1861	C186	0.052910	0.044970	0.750000
C1871	C187	0.216320	0.342810	0.250000
C1881	C188	0.229840	0.384380	0.250000
C1891	C189	0.269120	0.383100	0.250000
C1901	C190	0.281350	0.340820	0.250000
C1911	C191	0.324030	0.329280	0.250000
C1921	C192	0.335070	0.290760	0.250000
C1931	C193	0.376640	0.277260	0.250000
C1941	C194	0.375360	0.237980	0.250000
C1951	C195	0.333070	0.225730	0.250000
C1961	C196	0.355450	0.361720	0.250000
C1971	C197	0.415520	0.422840	0.250000
C1981	C198	0.447270	0.454880	0.250000
N1991	N199	0.000310	0.492150	0.633910
N2001	N200	0.499730	0.007850	0.133910
N2011	N201	0.000310	0.492150	0.866090
N2021	N202	0.499730	0.007850	0.366090
N2031	N203	0.309450	0.241870	0.750000
N2041	N204	0.251090	0.301670	0.750000
N2051	N205	0.190580	0.258210	0.250000
N2061	N206	0.248860	0.198330	0.250000
N2071	N207	0.249650	0.183500	0.750000
N2081	N208	0.191280	0.243320	0.750000
N2091	N209	0.250470	0.316490	0.250000
N2101	N210	0.308750	0.256600	0.250000
O2111	O211	0.460990	0.454250	0.789820
O2121	O212	0.038920	0.045870	0.289820
O2131	O213	0.039280	0.031280	0.709990
O2141	O214	0.460880	0.468590	0.209990
O2151	O215	0.038920	0.045870	0.210180
O2161	O216	0.460990	0.454250	0.710180
O2171	O217	0.460880	0.468590	0.290010
O2181	O218	0.039280	0.031280	0.790000
O2191	O219	0.461490	0.031340	0.710000
O2201	O220	0.039630	0.454200	0.710180
O2211	O221	0.038660	0.468790	0.210000
O2221	O222	0.460280	0.045680	0.210180
O2231	O223	0.461490	0.031340	0.790000
O2241	O224	0.039630	0.454200	0.789820
O2251	O225	0.038660	0.468790	0.290000
O2261	O226	0.460280	0.045680	0.289820
Co2271	Co227	0.750360	0.242590	0.749990
Co2281	Co228	0.749670	0.257410	0.249990
Co2291	Co229	0.500340	0.492510	0.707790
Co2301	Co230	0.999690	0.007490	0.207790
Co2311	Co231	0.500340	0.492510	0.792210
Co2321	Co232	0.999690	0.007490	0.292210
H2331	H233	0.858690	0.352330	0.827240
H2341	H234	0.910950	0.404350	0.827500
H2351	H235	0.000410	0.062300	0.544920
H2361	H236	0.500520	0.055760	0.631710
H2371	H237	0.641190	0.147830	0.327240
H2381	H238	0.588890	0.095830	0.327500
H2391	H239	0.500320	0.437700	0.044930
H2401	H240	0.000070	0.444240	0.131710
H2411	H241	0.641910	0.132930	0.672760
H2421	H242	0.589340	0.081200	0.672500
H2431	H243	0.499880	0.433770	0.967260
H2441	H244	0.500260	0.413120	0.837150
H2451	H245	0.527100	0.399960	0.889760
H2461	H246	0.973050	0.400060	0.889510
H2471	H247	0.858270	0.366920	0.172760
H2481	H248	0.910860	0.418630	0.172500
H2491	H249	0.999560	0.066230	0.467270
H2501	H250	0.999520	0.086880	0.337150
H2511	H251	0.972290	0.099840	0.389570
H2521	H252	0.526330	0.100140	0.389710
H2531	H253	0.641190	0.147830	0.172760
H2541	H254	0.588890	0.095830	0.172500
H2551	H255	0.500320	0.437700	0.455070
H2561	H256	0.000070	0.444240	0.368290
H2571	H257	0.858690	0.352330	0.672760
H2581	H258	0.910950	0.404350	0.672500
H2591	H259	0.000410	0.062300	0.955080
H2601	H260	0.500520	0.055760	0.868290
H2611	H261	0.858270	0.366920	0.327240
H2621	H262	0.910860	0.418630	0.327500
H2631	H263	0.999560	0.066230	0.032730
H2641	H264	0.999520	0.086880	0.162850
H2651	H265	0.972290	0.099840	0.110430
H2661	H266	0.526330	0.100140	0.110290
H2671	H267	0.641910	0.132930	0.827240
H2681	H268	0.589350	0.081200	0.827500
H2691	H269	0.499880	0.433770	0.532730
H2701	H270	0.500260	0.413120	0.662850
H2711	H271	0.527100	0.399960	0.610240
H2721	H272	0.973050	0.400060	0.610490
H2731	H273	0.860060	0.134170	0.672760
H2741	H274	0.911740	0.081590	0.672500
H2751	H275	0.640790	0.351120	0.672760
H2761	H276	0.589400	0.403970	0.672510
H2771	H277	0.640120	0.365980	0.172760
H2781	H278	0.588460	0.418580	0.172500
H2791	H279	0.859090	0.148730	0.172760
H2801	H280	0.910440	0.095840	0.172510
H2811	H281	0.860060	0.134170	0.827240
H2821	H282	0.911740	0.081590	0.827500
H2831	H283	0.640790	0.351120	0.827240
H2841	H284	0.589400	0.403970	0.827490
H2851	H285	0.640120	0.365980	0.327240
H2861	H286	0.588460	0.418580	0.327500
H2871	H287	0.859090	0.148730	0.327240
H2881	H288	0.910440	0.095840	0.327490
H2891	H289	0.904350	0.204700	0.750000
H2901	H290	0.902150	0.281340	0.750000
H2911	H291	0.788320	0.396580	0.750000
H2921	H292	0.711700	0.394390	0.750000
H2931	H293	0.595730	0.295510	0.250000
H2941	H294	0.597830	0.218870	0.250000
H2951	H295	0.711490	0.103470	0.250000
H2961	H296	0.788110	0.105560	0.250000
H2971	H297	0.789030	0.090810	0.750000
H2981	H298	0.712390	0.088610	0.750000
H2991	H299	0.598560	0.203890	0.750000
H3001	H300	0.596380	0.280530	0.750000
H3011	H301	0.711220	0.409250	0.250000
H3021	H302	0.787850	0.411340	0.250000
H3031	H303	0.901520	0.295900	0.250000
H3041	H304	0.903590	0.219260	0.250000
C3051	C305	0.870020	0.363520	0.793350
C3061	C306	0.899940	0.393340	0.793380
C3071	C307	0.500300	0.032260	0.559380
C3081	C308	0.500380	0.028530	0.610590
C3091	C309	0.629850	0.136640	0.293350
C3101	C310	0.599910	0.106840	0.293390
C3111	C311	0.000090	0.467740	0.059380
C3121	C312	0.999960	0.471470	0.110590
C3131	C313	0.630530	0.121780	0.706650
C3141	C314	0.600430	0.092130	0.706620
C3151	C315	0.500160	0.458250	0.895420
C3161	C316	0.500040	0.461350	0.946930
C3171	C317	0.500140	0.415970	0.876260
C3181	C318	0.869650	0.378060	0.206650
C3191	C319	0.899770	0.407700	0.206620
C3201	C320	0.999630	0.041750	0.395420
C3211	C321	0.999700	0.038650	0.446930
C3221	C322	0.999430	0.084030	0.376260
C3231	C323	0.629850	0.136640	0.206650
C3241	C324	0.599910	0.106840	0.206610
C3251	C325	0.000090	0.467740	0.440620
C3261	C326	0.999960	0.471470	0.389410
C3271	C327	0.870020	0.363520	0.706650
C3281	C328	0.899940	0.393340	0.706620
C3291	C329	0.500300	0.032260	0.940620
C3301	C330	0.500380	0.028530	0.889410
C3311	C331	0.869650	0.378060	0.293350
C3321	C332	0.899770	0.407700	0.293380
C3331	C333	0.999630	0.041750	0.104580
C3341	C334	0.999700	0.038650	0.053070
C3351	C335	0.999430	0.084030	0.123740
C3361	C336	0.630530	0.121780	0.793350
C3371	C337	0.600430	0.092130	0.793380
C3381	C338	0.500160	0.458250	0.604580
C3391	C339	0.500040	0.461350	0.553070
C3401	C340	0.500140	0.415970	0.623740
C3411	C341	0.824680	0.170680	0.750000
C3421	C342	0.856090	0.138230	0.750000
C3431	C343	0.916140	0.077110	0.750000
C3441	C344	0.947890	0.045070	0.750000
C3451	C345	0.676060	0.314520	0.750000
C3461	C346	0.644700	0.347010	0.750000
C3471	C347	0.585010	0.408460	0.750000
C3481	C348	0.553290	0.440490	0.750000
C3491	C349	0.675450	0.329430	0.250000
C3501	C350	0.644080	0.361920	0.250000
C3511	C351	0.584070	0.423070	0.250000
C3521	C352	0.552290	0.455080	0.250000
C3531	C353	0.823870	0.185370	0.250000
C3541	C354	0.855190	0.152850	0.250000
C3551	C355	0.914840	0.091360	0.250000
C3561	C356	0.946600	0.059360	0.250000
C3571	C357	0.871180	0.122790	0.706650
C3581	C358	0.900800	0.092660	0.706620
C3591	C359	0.629700	0.362540	0.706650
C3601	C360	0.600270	0.392830	0.706620
C3611	C361	0.500090	0.498450	0.528280
C3621	C362	0.629000	0.377370	0.206650
C3631	C363	0.599410	0.407510	0.206620
C3641	C364	0.870170	0.137300	0.206650
C3651	C365	0.899580	0.106990	0.206620
C3661	C366	0.999960	0.001550	0.028280
C3671	C367	0.871180	0.122780	0.793350
C3681	C368	0.900800	0.092660	0.793380
C3691	C369	0.629700	0.362540	0.793350
C3701	C370	0.600270	0.392830	0.793380
C3711	C371	0.500090	0.498450	0.971720
C3721	C372	0.629000	0.377370	0.293350
C3731	C373	0.599410	0.407510	0.293380
C3741	C374	0.870170	0.137300	0.293350
C3751	C375	0.899580	0.106990	0.293380
C3761	C376	0.999960	0.001550	0.471720
C3771	C377	0.835750	0.209210	0.750000
C3781	C378	0.877330	0.222710	0.750000
C3791	C379	0.876070	0.261990	0.750000
C3801	C380	0.833790	0.274230	0.750000
C3811	C381	0.822270	0.316910	0.750000
C3821	C382	0.783760	0.327970	0.750000
C3831	C383	0.770300	0.369550	0.750000
C3841	C384	0.731030	0.368300	0.750000
C3851	C385	0.718740	0.326020	0.750000
C3861	C386	0.854680	0.348340	0.750000
C3871	C387	0.915350	0.408810	0.750000
C3881	C388	0.947260	0.440650	0.750000
C3891	C389	0.664330	0.290910	0.250000
C3901	C390	0.622730	0.277470	0.250000
C3911	C391	0.623940	0.238190	0.250000
C3921	C392	0.666200	0.225880	0.250000
C3931	C393	0.677650	0.183190	0.250000
C3941	C394	0.716150	0.172070	0.250000
C3951	C395	0.729560	0.130480	0.250000
C3961	C396	0.768830	0.131680	0.250000
C3971	C397	0.781170	0.173940	0.250000
C3981	C398	0.645200	0.151800	0.250000
C3991	C399	0.584500	0.091370	0.250000
C4001	C400	0.552620	0.059500	0.250000
C4011	C401	0.781980	0.159170	0.750000
C4021	C402	0.769700	0.116890	0.750000
C4031	C403	0.730420	0.115640	0.750000
C4041	C404	0.716950	0.157210	0.750000
C4051	C405	0.678430	0.168280	0.750000
C4061	C406	0.666920	0.210960	0.750000
C4071	C407	0.624650	0.223230	0.750000
C4081	C408	0.623400	0.262510	0.750000
C4091	C409	0.664980	0.276000	0.750000
C4101	C410	0.645970	0.136870	0.750000
C4111	C411	0.584920	0.076740	0.750000
C4121	C412	0.552960	0.044920	0.750000
C4131	C413	0.718160	0.340880	0.250000
C4141	C414	0.730510	0.383130	0.250000
C4151	C415	0.769790	0.384340	0.250000
C4161	C416	0.783200	0.342740	0.250000
C4171	C417	0.821700	0.331620	0.250000
C4181	C418	0.833150	0.288920	0.250000
C4191	C419	0.875410	0.276590	0.250000
C4201	C420	0.876600	0.237310	0.250000
C4211	C421	0.835010	0.223880	0.250000
C4221	C422	0.854200	0.362980	0.250000
C4231	C423	0.915290	0.423080	0.250000
C4241	C424	0.947220	0.454940	0.250000
N4251	N425	0.500300	0.492130	0.633900
N4261	N426	0.999740	0.007870	0.133900
N4271	N427	0.500300	0.492130	0.866090
N4281	N428	0.999740	0.007870	0.366090
N4291	N429	0.809450	0.243360	0.750000
N4301	N430	0.749590	0.301680	0.750000
N4311	N431	0.690580	0.256720	0.250000
N4321	N432	0.750350	0.198320	0.250000
N4331	N433	0.751130	0.183510	0.750000
N4341	N434	0.691270	0.241830	0.750000
N4351	N435	0.748990	0.316490	0.250000
N4361	N436	0.808760	0.258090	0.250000
O4371	O437	0.960980	0.454280	0.789820
O4381	O438	0.538930	0.045850	0.289820
O4391	O439	0.539290	0.031260	0.709990
O4401	O440	0.960870	0.468610	0.209990
O4411	O441	0.538930	0.045850	0.210180
O4421	O442	0.960980	0.454280	0.710180
O4431	O443	0.960870	0.468610	0.290010
O4441	O444	0.539290	0.031260	0.790010
O4451	O445	0.961500	0.031360	0.710000
O4461	O446	0.539610	0.454170	0.710180
O4471	O447	0.538650	0.468760	0.210000
O4481	O448	0.960300	0.045710	0.210180
O4491	O449	0.961500	0.031360	0.790000
O4501	O450	0.539610	0.454170	0.789820
O4511	O451	0.538650	0.468760	0.290000
O4521	O452	0.960300	0.045710	0.289820
Co4531	Co453	0.250360	0.742590	0.749990
Co4541	Co454	0.249660	0.757410	0.249990
Co4551	Co455	0.000340	0.992530	0.707790
Co4561	Co456	0.499690	0.507470	0.207790
Co4571	Co457	0.000340	0.992520	0.792210
Co4581	Co458	0.499690	0.507470	0.292210
H4591	H459	0.358690	0.852320	0.827240
H4601	H460	0.410950	0.904350	0.827500
H4611	H461	0.500380	0.562280	0.544920
H4621	H462	0.000490	0.555780	0.631710
H4631	H463	0.140040	0.648980	0.327240
H4641	H464	0.088640	0.596100	0.327500
H4651	H465	0.000290	0.937720	0.044930
H4661	H466	0.500040	0.944220	0.131710
H4671	H467	0.141910	0.632940	0.672760
H4681	H468	0.089350	0.581210	0.672500
H4691	H469	0.999840	0.933780	0.967260
H4701	H470	0.000250	0.913140	0.837150
H4711	H471	0.027030	0.899950	0.889780
H4721	H472	0.472980	0.900060	0.889490
H4731	H473	0.359410	0.865770	0.172760
H4741	H474	0.411120	0.918360	0.172500
H4751	H475	0.499520	0.566220	0.467270
H4761	H476	0.499500	0.586860	0.337150
H4771	H477	0.472220	0.599800	0.389530
H4781	H478	0.026270	0.600180	0.389740
H4791	H479	0.140040	0.648980	0.172760
H4801	H480	0.088640	0.596100	0.172500
H4811	H481	0.000290	0.937720	0.455070
H4821	H482	0.500040	0.944220	0.368290
H4831	H483	0.358690	0.852320	0.672760
H4841	H484	0.410950	0.904350	0.672500
H4851	H485	0.500380	0.562280	0.955080
H4861	H486	0.000490	0.555780	0.868290
H4871	H487	0.359410	0.865770	0.327240
H4881	H488	0.411120	0.918360	0.327500
H4891	H489	0.499520	0.566220	0.032730
H4901	H490	0.499500	0.586860	0.162850
H4911	H491	0.472220	0.599800	0.110470
H4921	H492	0.026260	0.600180	0.110260
H4931	H493	0.141910	0.632940	0.827240
H4941	H494	0.089350	0.581210	0.827500
H4951	H495	0.999840	0.933780	0.532740
H4961	H496	0.000250	0.913140	0.662850
H4971	H497	0.027030	0.899950	0.610220
H4981	H498	0.472980	0.900060	0.610510
H4991	H499	0.360060	0.634170	0.672760
H5001	H500	0.411740	0.581580	0.672500
H5011	H501	0.140790	0.851120	0.672760
H5021	H502	0.089400	0.903980	0.672510
H5031	H503	0.141260	0.867130	0.172760
H5041	H504	0.088730	0.918860	0.172500
H5051	H505	0.357930	0.647570	0.172760
H5061	H506	0.410180	0.595570	0.172510
H5071	H507	0.360060	0.634160	0.827240
H5081	H508	0.411740	0.581580	0.827500
H5091	H509	0.140790	0.851120	0.827240
H5101	H510	0.089400	0.903980	0.827490
H5111	H511	0.141260	0.867130	0.327240
H5121	H512	0.088730	0.918860	0.327500
H5131	H513	0.357930	0.647580	0.327240
H5141	H514	0.410180	0.595570	0.327490
H5151	H515	0.404350	0.704700	0.750000
H5161	H516	0.402150	0.781340	0.750000
H5171	H517	0.288330	0.896580	0.750000
H5181	H518	0.211710	0.894390	0.750000
H5191	H519	0.097890	0.796150	0.250000
H5201	H520	0.095660	0.719510	0.250000
H5211	H521	0.210840	0.605640	0.250000
H5221	H522	0.287460	0.603390	0.250000
H5231	H523	0.289020	0.590810	0.750000
H5241	H524	0.212390	0.588610	0.750000
H5251	H525	0.098560	0.703890	0.750000
H5261	H526	0.096380	0.780530	0.750000
H5271	H527	0.211850	0.911410	0.250000
H5281	H528	0.288480	0.909180	0.250000
H5291	H529	0.403680	0.795260	0.250000
H5301	H530	0.401420	0.718630	0.250000
C5311	C531	0.370020	0.863510	0.793350
C5321	C532	0.399940	0.893330	0.793390
C5331	C533	0.000280	0.532280	0.559380
C5341	C534	0.000370	0.528550	0.610590
C5351	C535	0.128950	0.637550	0.293350
C5361	C536	0.099510	0.607250	0.293380
C5371	C537	0.500080	0.967720	0.059380
C5381	C538	0.499950	0.971450	0.110590
C5391	C539	0.130540	0.621790	0.706650
C5401	C540	0.100430	0.592140	0.706620
C5411	C541	0.000140	0.958270	0.895420
C5421	C542	0.000010	0.961360	0.946930
C5431	C543	0.000100	0.915980	0.876250
C5441	C544	0.370550	0.877160	0.206650
C5451	C545	0.400170	0.907280	0.206620
C5461	C546	0.499600	0.541730	0.395420
C5471	C547	0.499680	0.538640	0.446930
C5481	C548	0.499380	0.584020	0.376250
C5491	C549	0.128950	0.637550	0.206650
C5501	C550	0.099510	0.607250	0.206610
C5511	C551	0.500080	0.967720	0.440620
C5521	C552	0.499950	0.971450	0.389410
C5531	C553	0.370020	0.863510	0.706650
C5541	C554	0.399940	0.893330	0.706610
C5551	C555	0.000280	0.532280	0.940620
C5561	C556	0.000370	0.528550	0.889410
C5571	C557	0.370550	0.877160	0.293350
C5581	C558	0.400170	0.907280	0.293380
C5591	C559	0.499600	0.541730	0.104580
C5601	C560	0.499680	0.538640	0.053070
C5611	C561	0.499380	0.584020	0.123750
C5621	C562	0.130540	0.621790	0.793350
C5631	C563	0.100440	0.592140	0.793380
C5641	C564	0.000140	0.958270	0.604580
C5651	C565	0.000010	0.961360	0.553070
C5661	C566	0.000100	0.915980	0.623750
C5671	C567	0.324680	0.670670	0.750000
C5681	C568	0.356090	0.638220	0.750000
C5691	C569	0.416140	0.577090	0.750000
C5701	C570	0.447890	0.545060	0.750000
C5711	C571	0.176060	0.814530	0.750000
C5721	C572	0.144690	0.847010	0.750000
C5731	C573	0.085010	0.908470	0.750000
C5741	C574	0.053290	0.940500	0.750000
C5751	C575	0.177780	0.831760	0.250000
C5761	C576	0.145340	0.863190	0.250000
C5771	C577	0.084310	0.923320	0.250000
C5781	C578	0.052340	0.955140	0.250000
C5791	C579	0.321530	0.683040	0.250000
C5801	C580	0.353920	0.651580	0.250000
C5811	C581	0.414600	0.591110	0.250000
C5821	C582	0.446540	0.559290	0.250000
C5831	C583	0.371190	0.622780	0.706650
C5841	C584	0.400800	0.592650	0.706620
C5851	C585	0.129700	0.862550	0.706650
C5861	C586	0.100260	0.892830	0.706620
C5871	C587	0.000090	0.998460	0.528280
C5881	C588	0.129900	0.878280	0.206650
C5891	C589	0.099810	0.907930	0.206620
C5901	C590	0.369260	0.636390	0.206650
C5911	C591	0.399170	0.606570	0.206620
C5921	C592	0.499950	0.501540	0.028280
C5931	C593	0.371180	0.622780	0.793350
C5941	C594	0.400800	0.592650	0.793380
C5951	C595	0.129700	0.862550	0.793350
C5961	C596	0.100260	0.892830	0.793380
C5971	C597	0.000090	0.998460	0.971710
C5981	C598	0.129900	0.878280	0.293350
C5991	C599	0.099810	0.907930	0.293380
C6001	C600	0.369260	0.636390	0.293350
C6011	C601	0.399170	0.606570	0.293380
C6021	C602	0.499950	0.501540	0.471710
C6031	C603	0.335750	0.709200	0.750000
C6041	C604	0.377330	0.722710	0.750000
C6051	C605	0.376070	0.761980	0.750000
C6061	C606	0.333790	0.774230	0.750000
C6071	C607	0.322270	0.816910	0.750000
C6081	C608	0.283760	0.827970	0.750000
C6091	C609	0.270300	0.869550	0.750000
C6101	C610	0.231030	0.868300	0.750000
C6111	C611	0.218740	0.826020	0.750000
C6121	C612	0.354680	0.848340	0.750000
C6131	C613	0.415350	0.908800	0.750000
C6141	C614	0.447260	0.940640	0.750000
C6151	C615	0.166250	0.789070	0.250000
C6161	C616	0.123960	0.776810	0.250000
C6171	C617	0.122690	0.737530	0.250000
C6181	C618	0.164260	0.724050	0.250000
C6191	C619	0.175320	0.685530	0.250000
C6201	C620	0.217980	0.674000	0.250000
C6211	C621	0.230200	0.631720	0.250000
C6221	C622	0.269470	0.630430	0.250000
C6231	C623	0.283000	0.672000	0.250000
C6241	C624	0.143940	0.653070	0.250000
C6251	C625	0.084270	0.591620	0.250000
C6261	C626	0.052580	0.559560	0.250000
C6271	C627	0.281980	0.659170	0.750000
C6281	C628	0.269700	0.616890	0.750000
C6291	C629	0.230420	0.615640	0.750000
C6301	C630	0.216950	0.657210	0.750000
C6311	C631	0.178430	0.668280	0.750000
C6321	C632	0.166920	0.710970	0.750000
C6331	C633	0.124650	0.723230	0.750000
C6341	C634	0.123400	0.762510	0.750000
C6351	C635	0.164980	0.776000	0.750000
C6361	C636	0.145980	0.636880	0.750000
C6371	C637	0.084920	0.576760	0.750000
C6381	C638	0.052960	0.544930	0.750000
C6391	C639	0.216320	0.842810	0.250000
C6401	C640	0.229840	0.884380	0.250000
C6411	C641	0.269120	0.883100	0.250000
C6421	C642	0.281350	0.840820	0.250000
C6431	C643	0.324030	0.829280	0.250000
C6441	C644	0.335070	0.790760	0.250000
C6451	C645	0.376640	0.777250	0.250000
C6461	C646	0.375350	0.737980	0.250000
C6471	C647	0.333070	0.725720	0.250000
C6481	C648	0.355450	0.861720	0.250000
C6491	C649	0.415520	0.922830	0.250000
C6501	C650	0.447270	0.954870	0.250000
N6511	N651	0.000300	0.992140	0.633910
N6521	N652	0.499730	0.507860	0.133910
N6531	N653	0.000300	0.992140	0.866090
N6541	N654	0.499730	0.507860	0.366090
N6551	N655	0.309450	0.743360	0.750000
N6561	N656	0.249590	0.801680	0.750000
N6571	N657	0.190570	0.758210	0.250000
N6581	N658	0.248860	0.698320	0.250000
N6591	N659	0.251130	0.683510	0.750000
N6601	N660	0.191270	0.741830	0.750000
N6611	N661	0.250460	0.816490	0.250000
N6621	N662	0.308750	0.756600	0.250000
O6631	O663	0.460980	0.954260	0.789820
O6641	O664	0.038920	0.545870	0.289820
O6651	O665	0.039290	0.531280	0.709990
O6661	O666	0.460880	0.968590	0.209990
O6671	O667	0.038920	0.545870	0.210180
O6681	O668	0.460980	0.954260	0.710180
O6691	O669	0.460880	0.968590	0.290010
O6701	O670	0.039290	0.531280	0.790010
O6711	O671	0.461500	0.531350	0.710000
O6721	O672	0.039610	0.954180	0.710180
O6731	O673	0.038660	0.968790	0.210000
O6741	O674	0.460280	0.545680	0.210180
O6751	O675	0.461500	0.531350	0.790000
O6761	O676	0.039610	0.954180	0.789820
O6771	O677	0.038660	0.968790	0.290000
O6781	O678	0.460280	0.545680	0.289820
Co6791	Co679	0.750360	0.742590	0.750000
Co6801	Co680	0.749660	0.757410	0.249990
Co6811	Co681	0.500340	0.992510	0.707790
Co6821	Co682	0.999690	0.507490	0.207790
Co6831	Co683	0.500340	0.992510	0.792210
Co6841	Co684	0.999690	0.507490	0.292210
H6851	H685	0.858680	0.852320	0.827240
H6861	H686	0.910940	0.904350	0.827500
H6871	H687	0.000380	0.562300	0.544920
H6881	H688	0.500490	0.555760	0.631710
H6891	H689	0.640040	0.648970	0.327240
H6901	H690	0.588640	0.596090	0.327500
H6911	H691	0.500290	0.937700	0.044920
H6921	H692	0.000040	0.944240	0.131710
H6931	H693	0.641910	0.632930	0.672760
H6941	H694	0.589350	0.581190	0.672500
H6951	H695	0.499840	0.933770	0.967260
H6961	H696	0.500250	0.913130	0.837140
H6971	H697	0.527030	0.899940	0.889780
H6981	H698	0.972980	0.900080	0.889490
H6991	H699	0.859410	0.865780	0.172760
H7001	H700	0.911120	0.918370	0.172500
H7011	H701	0.999520	0.566230	0.467260
H7021	H702	0.999500	0.586870	0.337140
H7031	H703	0.972220	0.599810	0.389530
H7041	H704	0.526270	0.600170	0.389740
H7051	H705	0.640040	0.648970	0.172760
H7061	H706	0.588640	0.596090	0.172500
H7071	H707	0.500290	0.937700	0.455080
H7081	H708	0.000040	0.944240	0.368290
H7091	H709	0.858680	0.852320	0.672760
H7101	H710	0.910940	0.904350	0.672500
H7111	H711	0.000380	0.562300	0.955080
H7121	H712	0.500490	0.555760	0.868290
H7131	H713	0.859410	0.865780	0.327240
H7141	H714	0.911120	0.918370	0.327500
H7151	H715	0.999520	0.566230	0.032740
H7161	H716	0.999500	0.586870	0.162860
H7171	H717	0.972220	0.599810	0.110470
H7181	H718	0.526270	0.600170	0.110250
H7191	H719	0.641910	0.632930	0.827240
H7201	H720	0.589350	0.581190	0.827500
H7211	H721	0.499840	0.933770	0.532740
H7221	H722	0.500250	0.913130	0.662860
H7231	H723	0.527030	0.899940	0.610220
H7241	H724	0.972980	0.900080	0.610510
H7251	H725	0.860060	0.634170	0.672760
H7261	H726	0.911740	0.581590	0.672500
H7271	H727	0.640790	0.851110	0.672760
H7281	H728	0.589400	0.903970	0.672510
H7291	H729	0.641270	0.867120	0.172760
H7301	H730	0.588730	0.918840	0.172500
H7311	H731	0.857940	0.647580	0.172760
H7321	H732	0.910180	0.595580	0.172510
H7331	H733	0.860060	0.634170	0.827240
H7341	H734	0.911740	0.581590	0.827500
H7351	H735	0.640790	0.851110	0.827240
H7361	H736	0.589400	0.903970	0.827490
H7371	H737	0.641270	0.867120	0.327240
H7381	H738	0.588730	0.918850	0.327500
H7391	H739	0.857940	0.647580	0.327240
H7401	H740	0.910180	0.595580	0.327490
H7411	H741	0.904350	0.704710	0.750000
H7421	H742	0.902150	0.781340	0.750000
H7431	H743	0.788320	0.896580	0.750000
H7441	H744	0.711700	0.894380	0.750000
H7451	H745	0.597890	0.796140	0.250000
H7461	H746	0.595660	0.719500	0.250000
H7471	H747	0.710850	0.605640	0.250000
H7481	H748	0.787470	0.603400	0.250000
H7491	H749	0.789020	0.590810	0.750000
H7501	H750	0.712390	0.588610	0.750000
H7511	H751	0.598560	0.703890	0.750000
H7521	H752	0.596380	0.780520	0.750000
H7531	H753	0.711840	0.911410	0.250000
H7541	H754	0.788470	0.909180	0.250000
H7551	H755	0.903680	0.795270	0.250000
H7561	H756	0.901420	0.718630	0.250000
C7571	C757	0.870020	0.863520	0.793350
C7581	C758	0.899930	0.893340	0.793380
C7591	C759	0.500280	0.532260	0.559380
C7601	C760	0.500370	0.528530	0.610590
C7611	C761	0.628950	0.637540	0.293350
C7621	C762	0.599510	0.607240	0.293380
C7631	C763	0.000070	0.967740	0.059380
C7641	C764	0.999950	0.971470	0.110590
C7651	C765	0.630530	0.621780	0.706650
C7661	C766	0.600430	0.592130	0.706620
C7671	C767	0.500140	0.958260	0.895420
C7681	C768	0.500010	0.961350	0.946930
C7691	C769	0.500100	0.915970	0.876250
C7701	C770	0.870550	0.877170	0.206650
C7711	C771	0.900180	0.907290	0.206620
C7721	C772	0.999600	0.541740	0.395420
C7731	C773	0.999680	0.538650	0.446930
C7741	C774	0.999380	0.584030	0.376250
C7751	C775	0.628950	0.637540	0.206650
C7761	C776	0.599510	0.607240	0.206620
C7771	C777	0.000070	0.967740	0.440620
C7781	C778	0.999950	0.971470	0.389410
C7791	C779	0.870020	0.863520	0.706650
C7801	C780	0.899930	0.893340	0.706610
C7811	C781	0.500280	0.532260	0.940620
C7821	C782	0.500370	0.528530	0.889410
C7831	C783	0.870550	0.877170	0.293350
C7841	C784	0.900170	0.907290	0.293380
C7851	C785	0.999600	0.541740	0.104580
C7861	C786	0.999680	0.538650	0.053070
C7871	C787	0.999380	0.584030	0.123750
C7881	C788	0.630530	0.621780	0.793350
C7891	C789	0.600430	0.592130	0.793380
C7901	C790	0.500140	0.958260	0.604580
C7911	C791	0.500010	0.961350	0.553070
C7921	C792	0.500100	0.915970	0.623750
C7931	C793	0.824680	0.670670	0.750000
C7941	C794	0.856090	0.638220	0.750000
C7951	C795	0.916140	0.577110	0.750000
C7961	C796	0.947890	0.545070	0.750000
C7971	C797	0.676050	0.814520	0.750000
C7981	C798	0.644690	0.847010	0.750000
C7991	C799	0.585010	0.908460	0.750000
C8001	C800	0.553290	0.940490	0.750000
C8011	C801	0.677780	0.831760	0.250000
C8021	C802	0.645340	0.863180	0.250000
C8031	C803	0.584310	0.923310	0.250000
C8041	C804	0.552340	0.955120	0.250000
C8051	C805	0.821530	0.683040	0.250000
C8061	C806	0.853920	0.651590	0.250000
C8071	C807	0.914600	0.591120	0.250000
C8081	C808	0.946540	0.559300	0.250000
C8091	C809	0.871180	0.622780	0.706650
C8101	C810	0.900800	0.592660	0.706620
C8111	C811	0.629700	0.862540	0.706650
C8121	C812	0.600260	0.892830	0.706620
C8131	C813	0.500090	0.998450	0.528280
C8141	C814	0.629900	0.878270	0.206650
C8151	C815	0.599810	0.907920	0.206620
C8161	C816	0.869260	0.636400	0.206650
C8171	C817	0.899180	0.606580	0.206620
C8181	C818	0.999950	0.501550	0.028280
C8191	C819	0.871180	0.622780	0.793350
C8201	C820	0.900800	0.592660	0.793380
C8211	C821	0.629700	0.862540	0.793350
C8221	C822	0.600260	0.892830	0.793380
C8231	C823	0.500090	0.998450	0.971720
C8241	C824	0.629900	0.878270	0.293350
C8251	C825	0.599810	0.907920	0.293380
C8261	C826	0.869260	0.636400	0.293350
C8271	C827	0.899180	0.606580	0.293380
C8281	C828	0.999960	0.501550	0.471720
C8291	C829	0.835750	0.709200	0.750000
C8301	C830	0.877320	0.722710	0.750000
C8311	C831	0.876060	0.761990	0.750000
C8321	C832	0.833790	0.774230	0.750000
C8331	C833	0.822270	0.816910	0.750000
C8341	C834	0.783760	0.827970	0.750000
C8351	C835	0.770290	0.869550	0.750000
C8361	C836	0.731020	0.868300	0.750000
C8371	C837	0.718740	0.826020	0.750000
C8381	C838	0.854680	0.848340	0.750000
C8391	C839	0.915340	0.908810	0.750000
C8401	C840	0.947250	0.940650	0.750000
C8411	C841	0.666250	0.789070	0.250000
C8421	C842	0.623970	0.776800	0.250000
C8431	C843	0.622690	0.737530	0.250000
C8441	C844	0.664260	0.724040	0.250000
C8451	C845	0.675320	0.685530	0.250000
C8461	C846	0.717980	0.674000	0.250000
C8471	C847	0.730210	0.631720	0.250000
C8481	C848	0.769480	0.630440	0.250000
C8491	C849	0.783000	0.672000	0.250000
C8501	C850	0.643940	0.653060	0.250000
C8511	C851	0.584270	0.591610	0.250000
C8521	C852	0.552580	0.559550	0.250000
C8531	C853	0.781980	0.659170	0.750000
C8541	C854	0.769700	0.616890	0.750000
C8551	C855	0.730420	0.615630	0.750000
C8561	C856	0.716950	0.657210	0.750000
C8571	C857	0.678430	0.668280	0.750000
C8581	C858	0.666920	0.710960	0.750000
C8591	C859	0.624650	0.723230	0.750000
C8601	C860	0.623400	0.762510	0.750000
C8611	C861	0.664970	0.776000	0.750000
C8621	C862	0.645970	0.636870	0.750000
C8631	C863	0.584920	0.576740	0.750000
C8641	C864	0.552960	0.544910	0.750000
C8651	C865	0.716320	0.842810	0.250000
C8661	C866	0.729840	0.884380	0.250000
C8671	C867	0.769120	0.883100	0.250000
C8681	C868	0.781350	0.840820	0.250000
C8691	C869	0.824030	0.829290	0.250000
C8701	C870	0.835080	0.790760	0.250000
C8711	C871	0.876640	0.777260	0.250000
C8721	C872	0.875360	0.737980	0.250000
C8731	C873	0.833070	0.725730	0.250000
C8741	C874	0.855460	0.861730	0.250000
C8751	C875	0.915520	0.922850	0.250000
C8761	C876	0.947270	0.954890	0.250000
N8771	N877	0.500300	0.992130	0.633910
N8781	N878	0.999730	0.507870	0.133910
N8791	N879	0.500300	0.992130	0.866090
N8801	N880	0.999730	0.507870	0.366090
N8811	N881	0.809450	0.743360	0.750000
N8821	N882	0.749590	0.801670	0.750000
N8831	N883	0.690580	0.758210	0.250000
N8841	N884	0.748860	0.698330	0.250000
N8851	N885	0.751120	0.683510	0.750000
N8861	N886	0.691270	0.741830	0.750000
N8871	N887	0.750470	0.816490	0.250000
N8881	N888	0.808750	0.756600	0.250000
O8891	O889	0.960980	0.954270	0.789820
O8901	O890	0.538920	0.545860	0.289820
O8911	O891	0.539290	0.531260	0.709990
O8921	O892	0.960880	0.968610	0.209990
O8931	O893	0.538920	0.545860	0.210180
O8941	O894	0.960980	0.954270	0.710180
O8951	O895	0.960880	0.968610	0.290010
O8961	O896	0.539290	0.531260	0.790010
O8971	O897	0.961500	0.531360	0.710000
O8981	O898	0.539610	0.954170	0.710180
O8991	O899	0.538660	0.968770	0.210000
O9001	O900	0.960280	0.545690	0.210180
O9011	O901	0.961500	0.531360	0.790000
O9021	O902	0.539610	0.954170	0.789820
O9031	O903	0.538660	0.968770	0.290000
O9041	O904	0.960280	0.545690	0.289820
