data_ILOJEZ_clean_PM
_symmetry_space_group_name_H-M	'P1'
_cell_length_a	10.836000
_cell_length_b	14.962000
_cell_length_c	14.967000
_cell_angle_alpha	90.000000
_cell_angle_beta	92.494000
_cell_angle_gamma	90.000000
_symmetry_Int_Tables_number 1

loop_
_symmetry_equiv_pos_as_xyz
'x,y,z'

loop_
_atom_site_label
_atom_site_type_symbol
_atom_site_fract_x
_atom_site_fract_y
_atom_site_fract_z
Zn11	Zn1	0.429520	0.657610	0.121230
Zn21	Zn2	0.070480	0.157610	0.878770
Zn31	Zn3	0.570480	0.342390	0.878770
Zn41	Zn4	0.929520	0.842390	0.121230
H11	H1	0.251500	0.589800	0.265900
H21	H2	0.471600	0.790500	0.297600
H31	H3	0.430100	0.825800	0.466100
H41	H4	0.363400	0.747800	0.514300
H51	H5	0.210100	0.869400	0.344600
H61	H6	0.047100	0.964500	0.360300
H71	H7	0.082600	0.937200	0.623800
H81	H8	0.240300	0.837300	0.604600
H91	H9	0.835600	0.409700	0.494900
H101	H10	0.756100	0.371800	0.355700
H111	H11	0.024500	0.502800	0.243800
H121	H12	0.104800	0.543000	0.384600
H131	H13	0.879900	0.413100	0.148400
H141	H14	0.767600	0.365900	0.192200
H151	H15	0.565000	0.456100	0.142100
H161	H16	0.702000	0.694900	0.145900
H171	H17	0.345700	0.894600	0.985100
H181	H18	0.248500	0.089800	0.734100
H191	H19	0.028400	0.290500	0.702400
H201	H20	0.069900	0.325800	0.533900
H211	H21	0.136600	0.247800	0.485700
H221	H22	0.289900	0.369400	0.655400
H231	H23	0.452900	0.464500	0.639700
H241	H24	0.417400	0.437200	0.376200
H251	H25	0.259700	0.337300	0.395400
H261	H26	0.664400	0.909700	0.505100
H271	H27	0.743900	0.871800	0.644300
H281	H28	0.475500	0.002800	0.756200
H291	H29	0.395200	0.043000	0.615400
H301	H30	0.620100	0.913100	0.851600
H311	H31	0.732400	0.865900	0.807800
H321	H32	0.935000	0.956100	0.857900
H331	H33	0.798000	0.194900	0.854100
H341	H34	0.154300	0.394600	0.014900
H351	H35	0.748500	0.410200	0.734100
H361	H36	0.528400	0.209500	0.702400
H371	H37	0.569900	0.174200	0.533900
H381	H38	0.636600	0.252200	0.485700
H391	H39	0.789900	0.130600	0.655400
H401	H40	0.952900	0.035500	0.639700
H411	H41	0.917400	0.062800	0.376200
H421	H42	0.759700	0.162700	0.395400
H431	H43	0.164400	0.590300	0.505100
H441	H44	0.243900	0.628200	0.644300
H451	H45	0.975500	0.497200	0.756200
H461	H46	0.895200	0.457000	0.615400
H471	H47	0.120100	0.586900	0.851600
H481	H48	0.232400	0.634100	0.807800
H491	H49	0.435000	0.543900	0.857900
H501	H50	0.298000	0.305100	0.854100
H511	H51	0.654300	0.105400	0.014900
H521	H52	0.751500	0.910200	0.265900
H531	H53	0.971600	0.709500	0.297600
H541	H54	0.930100	0.674200	0.466100
H551	H55	0.863400	0.752200	0.514300
H561	H56	0.710100	0.630600	0.344600
H571	H57	0.547100	0.535500	0.360300
H581	H58	0.582600	0.562800	0.623800
H591	H59	0.740300	0.662700	0.604600
H601	H60	0.335600	0.090300	0.494900
H611	H61	0.256100	0.128200	0.355700
H621	H62	0.524500	0.997200	0.243800
H631	H63	0.604800	0.957000	0.384600
H641	H64	0.379900	0.086900	0.148400
H651	H65	0.267600	0.134100	0.192200
H661	H66	0.065000	0.043900	0.142100
H671	H67	0.202000	0.805100	0.145900
H681	H68	0.845700	0.605400	0.985100
C11	C1	0.294700	0.637700	0.291600
C21	C2	0.414100	0.745700	0.307000
C31	C3	0.357000	0.788300	0.463700
C41	C4	0.245400	0.846600	0.473200
C51	C5	0.185400	0.883500	0.401700
C61	C6	0.088100	0.941700	0.411200
C71	C7	0.050000	0.966800	0.494400
C81	C8	0.107900	0.925200	0.566400
C91	C9	0.203700	0.865400	0.554700
C101	C10	0.975900	0.484700	0.456100
C111	C11	0.873900	0.431100	0.444700
C121	C12	0.826100	0.407800	0.360200
C131	C13	0.877400	0.435400	0.284400
C141	C14	0.983900	0.485000	0.294300
C151	C15	0.032600	0.509400	0.379900
C161	C16	0.817300	0.419800	0.192300
C171	C17	0.619200	0.504100	0.147600
C181	C18	0.695900	0.633100	0.150300
C191	C19	0.524200	0.827300	0.088100
C201	C20	0.517200	0.915200	0.036400
C211	C21	0.611200	0.978000	0.046600
C221	C22	0.408000	0.937100	0.990900
C231	C23	0.738700	0.955400	0.085100
C241	C24	0.205300	0.137700	0.708400
C251	C25	0.085900	0.245700	0.693000
C261	C26	0.143000	0.288300	0.536300
C271	C27	0.254600	0.346600	0.526800
C281	C28	0.314600	0.383500	0.598300
C291	C29	0.411900	0.441700	0.588800
C301	C30	0.450000	0.466800	0.505600
C311	C31	0.392100	0.425200	0.433600
C321	C32	0.296300	0.365400	0.445300
C331	C33	0.524100	0.984700	0.543900
C341	C34	0.626100	0.931100	0.555300
C351	C35	0.673900	0.907800	0.639800
C361	C36	0.622600	0.935400	0.715600
C371	C37	0.516100	0.985000	0.705700
C381	C38	0.467400	0.009400	0.620100
C391	C39	0.682700	0.919800	0.807700
C401	C40	0.880800	0.004100	0.852400
C411	C41	0.804100	0.133100	0.849700
C421	C42	0.975800	0.327300	0.911900
C431	C43	0.982800	0.415200	0.963600
C441	C44	0.888800	0.478000	0.953400
C451	C45	0.092000	0.437100	0.009100
C461	C46	0.761300	0.455400	0.914900
C471	C47	0.705300	0.362300	0.708400
C481	C48	0.585900	0.254300	0.693000
C491	C49	0.643000	0.211700	0.536300
C501	C50	0.754600	0.153400	0.526800
C511	C51	0.814600	0.116500	0.598300
C521	C52	0.911900	0.058300	0.588800
C531	C53	0.950000	0.033200	0.505600
C541	C54	0.892100	0.074800	0.433600
C551	C55	0.796300	0.134600	0.445300
C561	C56	0.024100	0.515300	0.543900
C571	C57	0.126100	0.568900	0.555300
C581	C58	0.173900	0.592200	0.639800
C591	C59	0.122600	0.564600	0.715600
C601	C60	0.016100	0.515000	0.705700
C611	C61	0.967400	0.490600	0.620100
C621	C62	0.182700	0.580200	0.807700
C631	C63	0.380800	0.495900	0.852400
C641	C64	0.304100	0.366900	0.849700
C651	C65	0.475800	0.172700	0.911900
C661	C66	0.482800	0.084800	0.963600
C671	C67	0.388800	0.022000	0.953400
C681	C68	0.592000	0.062900	0.009100
C691	C69	0.261300	0.044600	0.914900
C701	C70	0.794700	0.862300	0.291600
C711	C71	0.914100	0.754300	0.307000
C721	C72	0.857000	0.711700	0.463700
C731	C73	0.745400	0.653400	0.473200
C741	C74	0.685400	0.616500	0.401700
C751	C75	0.588100	0.558300	0.411200
C761	C76	0.550000	0.533200	0.494400
C771	C77	0.607900	0.574800	0.566400
C781	C78	0.703700	0.634600	0.554700
C791	C79	0.475900	0.015300	0.456100
C801	C80	0.373900	0.068900	0.444700
C811	C81	0.326100	0.092200	0.360200
C821	C82	0.377400	0.064600	0.284400
C831	C83	0.483900	0.015000	0.294300
C841	C84	0.532600	0.990600	0.379900
C851	C85	0.317300	0.080200	0.192300
C861	C86	0.119200	0.995900	0.147600
C871	C87	0.195900	0.866900	0.150300
C881	C88	0.024200	0.672700	0.088100
C891	C89	0.017200	0.584800	0.036400
C901	C90	0.111200	0.522000	0.046600
C911	C91	0.908000	0.562900	0.990900
C921	C92	0.238700	0.544600	0.085100
N11	N1	0.379500	0.682800	0.246500
N21	N2	0.275900	0.663800	0.372000
N31	N3	0.355800	0.735100	0.380400
N41	N4	0.588500	0.589000	0.133800
N51	N5	0.791100	0.582000	0.172900
N61	N6	0.739200	0.497700	0.170500
N71	N7	0.120500	0.182800	0.753500
N81	N8	0.224100	0.163800	0.628000
N91	N9	0.144200	0.235100	0.619600
N101	N10	0.911500	0.089000	0.866200
N111	N11	0.708900	0.082000	0.827100
N121	N12	0.760800	0.997700	0.829500
N131	N13	0.620500	0.317200	0.753500
N141	N14	0.724100	0.336200	0.628000
N151	N15	0.644200	0.264900	0.619600
N161	N16	0.411500	0.411000	0.866200
N171	N17	0.208900	0.418000	0.827100
N181	N18	0.260800	0.502300	0.829500
N191	N19	0.879500	0.817200	0.246500
N201	N20	0.775900	0.836200	0.372000
N211	N21	0.855800	0.764900	0.380400
N221	N22	0.088500	0.911000	0.133800
N231	N23	0.291100	0.918000	0.172900
N241	N24	0.239200	0.002300	0.170500
O11	O1	0.463000	0.762200	0.049000
O21	O2	0.577000	0.823000	0.160700
O31	O3	0.785300	0.884800	0.053700
O41	O4	0.788800	0.004800	0.140800
O51	O5	0.037000	0.262200	0.951000
O61	O6	0.923000	0.323000	0.839300
O71	O7	0.714700	0.384800	0.946300
O81	O8	0.711200	0.504800	0.859200
O91	O9	0.537000	0.237800	0.951000
O101	O10	0.423000	0.177000	0.839300
O111	O11	0.214700	0.115200	0.946300
O121	O12	0.211200	0.995200	0.859200
O131	O13	0.963000	0.737800	0.049000
O141	O14	0.077000	0.677000	0.160700
O151	O15	0.285300	0.615200	0.053700
O161	O16	0.288800	0.495200	0.140800
