data_ILOSOS_clean_PM
_symmetry_space_group_name_H-M	'P1'
_cell_length_a	13.294000
_cell_length_b	25.171000
_cell_length_c	13.626000
_cell_angle_alpha	90.000000
_cell_angle_beta	104.600000
_cell_angle_gamma	90.000000
_symmetry_Int_Tables_number 1

loop_
_symmetry_equiv_pos_as_xyz
'x,y,z'

loop_
_atom_site_label
_atom_site_type_symbol
_atom_site_fract_x
_atom_site_fract_y
_atom_site_fract_z
Cu11	Cu1	0.541750	0.245660	0.717010
Cu21	Cu2	0.569410	0.208190	0.976960
S11	S1	0.460900	0.388390	0.710800
S21	S2	0.461700	0.563450	0.531500
S31	S3	0.807600	0.240200	0.869800
S41	S4	0.134700	0.236000	0.942500
N11	N1	0.523300	0.299300	0.823100
N21	N2	0.555400	0.285900	0.922700
N31	N3	0.549500	0.327500	0.979600
N41	N4	0.510600	0.367200	0.913300
N51	N5	0.455200	0.655500	0.636500
N61	N6	0.472000	0.670600	0.734900
N71	N7	0.495400	0.629900	0.793600
N81	N8	0.495000	0.587700	0.732700
N91	N9	0.674900	0.265300	0.685100
N101	N10	0.685600	0.290800	0.600600
N111	N11	0.778700	0.306900	0.608500
N121	N12	0.832500	0.291000	0.701600
N131	N13	0.335700	0.211000	0.949300
N141	N14	0.428800	0.216800	0.014500
N151	N15	0.418900	0.243700	0.094200
N161	N16	0.316400	0.252200	0.080400
C11	C1	0.497800	0.349500	0.819000
C21	C2	0.321300	0.386000	0.687000
H11	H1	0.302400	0.373400	0.747200
H21	H2	0.293600	0.361200	0.632400
C31	C3	0.275300	0.439300	0.659300
H31	H3	0.200200	0.435700	0.640000
H41	H4	0.293100	0.461800	0.719100
C41	C4	0.309300	0.468100	0.572100
H51	H5	0.384600	0.468500	0.587600
H61	H6	0.284200	0.448000	0.510000
C51	C5	0.268800	0.526200	0.553900
H71	H7	0.281800	0.544700	0.618300
H81	H8	0.194400	0.525800	0.524600
C61	C6	0.320800	0.555400	0.484500
H91	H9	0.306800	0.536600	0.420400
H101	H10	0.289500	0.590300	0.471500
C71	C7	0.467800	0.603600	0.635900
C81	C8	0.495600	0.418800	0.953000
H111	H11	0.437900	0.436200	0.907700
H121	H12	0.481700	0.414900	0.018400
H131	H13	0.557300	0.439800	0.959300
C91	C9	0.517300	0.535700	0.775700
H141	H14	0.537100	0.512800	0.727500
H151	H15	0.573100	0.537900	0.836000
H161	H16	0.456500	0.521700	0.792400
C101	C10	0.769300	0.265800	0.747000
C111	C11	0.791300	0.168500	0.841000
H171	H17	0.749800	0.152900	0.882500
H181	H18	0.753100	0.164300	0.770400
C121	C12	0.878600	0.142300	0.855000
H191	H19	0.911000	0.152700	0.802100
H201	H20	0.860800	0.105000	0.844800
C131	C13	0.961200	0.146200	0.954500
H211	H21	0.945000	0.121800	0.003400
H221	H22	0.962000	0.181900	0.981400
C141	C14	0.076400	0.131900	0.937000
H231	H23	0.125800	0.128500	0.002600
H241	H24	0.072600	0.097800	0.902800
C151	C15	0.113000	0.171000	0.878700
H251	H25	0.062700	0.175000	0.813800
H261	H26	0.177700	0.158800	0.865800
C161	C16	0.268100	0.232000	0.990800
C171	C17	0.946800	0.301800	0.735400
H271	H27	0.970400	0.296400	0.807200
H281	H28	0.960200	0.337800	0.719400
H291	H29	0.983100	0.278100	0.701000
C181	C18	0.277100	0.281500	0.154300
H301	H30	0.211200	0.267100	0.157600
H311	H31	0.325400	0.278700	0.219600
H321	H32	0.268700	0.318200	0.134600
Cu31	Cu3	0.458250	0.745660	0.782990
Cu41	Cu4	0.430590	0.708190	0.523040
S51	S5	0.539100	0.888390	0.789200
S61	S6	0.538300	0.063450	0.968500
S71	S7	0.192400	0.740200	0.630200
S81	S8	0.865300	0.736000	0.557500
N171	N17	0.476700	0.799300	0.676900
N181	N18	0.444600	0.785900	0.577300
N191	N19	0.450500	0.827500	0.520400
N201	N20	0.489400	0.867200	0.586700
N211	N21	0.544800	0.155500	0.863500
N221	N22	0.528000	0.170600	0.765100
N231	N23	0.504600	0.129900	0.706400
N241	N24	0.505000	0.087700	0.767300
N251	N25	0.325100	0.765300	0.814900
N261	N26	0.314400	0.790800	0.899400
N271	N27	0.221300	0.806900	0.891500
N281	N28	0.167500	0.791000	0.798400
N291	N29	0.664300	0.711000	0.550700
N301	N30	0.571200	0.716800	0.485500
N311	N31	0.581100	0.743700	0.405800
N321	N32	0.683600	0.752200	0.419600
C191	C19	0.502200	0.849500	0.681000
C201	C20	0.678700	0.886000	0.813000
H331	H33	0.697600	0.873400	0.752800
H341	H34	0.706400	0.861200	0.867600
C211	C21	0.724700	0.939300	0.840700
H351	H35	0.799800	0.935700	0.860000
H361	H36	0.706900	0.961800	0.780900
C221	C22	0.690700	0.968100	0.927900
H371	H37	0.615400	0.968500	0.912400
H381	H38	0.715800	0.948000	0.990000
C231	C23	0.731200	0.026200	0.946100
H391	H39	0.718200	0.044700	0.881700
H401	H40	0.805600	0.025800	0.975400
C241	C24	0.679200	0.055400	0.015500
H411	H41	0.693200	0.036600	0.079600
H421	H42	0.710500	0.090300	0.028500
C251	C25	0.532200	0.103600	0.864100
C261	C26	0.504400	0.918800	0.547000
H431	H43	0.562100	0.936200	0.592300
H441	H44	0.518300	0.914900	0.481600
H451	H45	0.442700	0.939800	0.540700
C271	C27	0.482700	0.035700	0.724300
H461	H46	0.462900	0.012800	0.772500
H471	H47	0.426900	0.037900	0.664000
H481	H48	0.543500	0.021700	0.707600
C281	C28	0.230700	0.765800	0.753000
C291	C29	0.208700	0.668500	0.659000
H491	H49	0.250200	0.652900	0.617500
H501	H50	0.246900	0.664300	0.729600
C301	C30	0.121400	0.642300	0.645000
H511	H51	0.089000	0.652700	0.697900
H521	H52	0.139200	0.605000	0.655200
C311	C31	0.038800	0.646200	0.545500
H531	H53	0.055000	0.621800	0.496600
H541	H54	0.038000	0.681900	0.518600
C321	C32	0.923600	0.631900	0.563000
H551	H55	0.874200	0.628500	0.497400
H561	H56	0.927400	0.597800	0.597200
C331	C33	0.887000	0.671000	0.621300
H571	H57	0.937300	0.675000	0.686200
H581	H58	0.822300	0.658800	0.634200
C341	C34	0.731900	0.732000	0.509200
C351	C35	0.053200	0.801800	0.764600
H591	H59	0.029600	0.796400	0.692800
H601	H60	0.039800	0.837800	0.780600
H611	H61	0.016900	0.778100	0.799000
C361	C36	0.722900	0.781500	0.345700
H621	H62	0.788800	0.767100	0.342400
H631	H63	0.674600	0.778700	0.280400
H641	H64	0.731300	0.818200	0.365400
Cu51	Cu5	0.458250	0.754340	0.282990
Cu61	Cu6	0.430590	0.791810	0.023040
S91	S9	0.539100	0.611610	0.289200
S101	S10	0.538300	0.436550	0.468500
S111	S11	0.192400	0.759800	0.130200
S121	S12	0.865300	0.764000	0.057500
N331	N33	0.476700	0.700700	0.176900
N341	N34	0.444600	0.714100	0.077300
N351	N35	0.450500	0.672500	0.020400
N361	N36	0.489400	0.632800	0.086700
N371	N37	0.544800	0.344500	0.363500
N381	N38	0.528000	0.329400	0.265100
N391	N39	0.504600	0.370100	0.206400
N401	N40	0.505000	0.412300	0.267300
N411	N41	0.325100	0.734700	0.314900
N421	N42	0.314400	0.709200	0.399400
N431	N43	0.221300	0.693100	0.391500
N441	N44	0.167500	0.709000	0.298400
N451	N45	0.664300	0.789000	0.050700
N461	N46	0.571200	0.783200	0.985500
N471	N47	0.581100	0.756300	0.905800
N481	N48	0.683600	0.747800	0.919600
C371	C37	0.502200	0.650500	0.181000
C381	C38	0.678700	0.614000	0.313000
H651	H65	0.697600	0.626600	0.252800
H661	H66	0.706400	0.638800	0.367600
C391	C39	0.724700	0.560700	0.340700
H671	H67	0.799800	0.564300	0.360000
H681	H68	0.706900	0.538200	0.280900
C401	C40	0.690700	0.531900	0.427900
H691	H69	0.615400	0.531500	0.412400
H701	H70	0.715800	0.552000	0.490000
C411	C41	0.731200	0.473800	0.446100
H711	H71	0.718200	0.455300	0.381700
H721	H72	0.805600	0.474200	0.475400
C421	C42	0.679200	0.444600	0.515500
H731	H73	0.693200	0.463400	0.579600
H741	H74	0.710500	0.409700	0.528500
C431	C43	0.532200	0.396400	0.364100
C441	C44	0.504400	0.581200	0.047000
H751	H75	0.562100	0.563800	0.092300
H761	H76	0.518300	0.585100	0.981600
H771	H77	0.442700	0.560200	0.040700
C451	C45	0.482700	0.464300	0.224300
H781	H78	0.462900	0.487200	0.272500
H791	H79	0.426900	0.462100	0.164000
H801	H80	0.543500	0.478300	0.207600
C461	C46	0.230700	0.734200	0.253000
C471	C47	0.208700	0.831500	0.159000
H811	H81	0.250200	0.847100	0.117500
H821	H82	0.246900	0.835700	0.229600
C481	C48	0.121400	0.857700	0.145000
H831	H83	0.089000	0.847300	0.197900
H841	H84	0.139200	0.895000	0.155200
C491	C49	0.038800	0.853800	0.045500
H851	H85	0.055000	0.878200	0.996600
H861	H86	0.038000	0.818100	0.018600
C501	C50	0.923600	0.868100	0.063000
H871	H87	0.874200	0.871500	0.997400
H881	H88	0.927400	0.902200	0.097200
C511	C51	0.887000	0.829000	0.121300
H891	H89	0.937300	0.825000	0.186200
H901	H90	0.822300	0.841200	0.134200
C521	C52	0.731900	0.768000	0.009200
C531	C53	0.053200	0.698200	0.264600
H911	H91	0.029600	0.703600	0.192800
H921	H92	0.039800	0.662200	0.280600
H931	H93	0.016900	0.721900	0.299000
C541	C54	0.722900	0.718500	0.845700
H941	H94	0.788800	0.732900	0.842400
H951	H95	0.674600	0.721300	0.780400
H961	H96	0.731300	0.681800	0.865400
Cu71	Cu7	0.541750	0.254340	0.217010
Cu81	Cu8	0.569410	0.291810	0.476960
S131	S13	0.460900	0.111610	0.210800
S141	S14	0.461700	0.936550	0.031500
S151	S15	0.807600	0.259800	0.369800
S161	S16	0.134700	0.264000	0.442500
N491	N49	0.523300	0.200700	0.323100
N501	N50	0.555400	0.214100	0.422700
N511	N51	0.549500	0.172500	0.479600
N521	N52	0.510600	0.132800	0.413300
N531	N53	0.455200	0.844500	0.136500
N541	N54	0.472000	0.829400	0.234900
N551	N55	0.495400	0.870100	0.293600
N561	N56	0.495000	0.912300	0.232700
N571	N57	0.674900	0.234700	0.185100
N581	N58	0.685600	0.209200	0.100600
N591	N59	0.778700	0.193100	0.108500
N601	N60	0.832500	0.209000	0.201600
N611	N61	0.335700	0.289000	0.449300
N621	N62	0.428800	0.283200	0.514500
N631	N63	0.418900	0.256300	0.594200
N641	N64	0.316400	0.247800	0.580400
C551	C55	0.497800	0.150500	0.319000
C561	C56	0.321300	0.114000	0.187000
H971	H97	0.302400	0.126600	0.247200
H981	H98	0.293600	0.138800	0.132400
C571	C57	0.275300	0.060700	0.159300
H991	H99	0.200200	0.064300	0.140000
H1001	H100	0.293100	0.038200	0.219100
C581	C58	0.309300	0.031900	0.072100
H1011	H101	0.384600	0.031500	0.087600
H1021	H102	0.284200	0.052000	0.010000
C591	C59	0.268800	0.973800	0.053900
H1031	H103	0.281800	0.955300	0.118300
H1041	H104	0.194400	0.974200	0.024600
C601	C60	0.320800	0.944600	0.984500
H1051	H105	0.306800	0.963400	0.920400
H1061	H106	0.289500	0.909700	0.971500
C611	C61	0.467800	0.896400	0.135900
C621	C62	0.495600	0.081200	0.453000
H1071	H107	0.437900	0.063800	0.407700
H1081	H108	0.481700	0.085100	0.518400
H1091	H109	0.557300	0.060200	0.459300
C631	C63	0.517300	0.964300	0.275700
H1101	H110	0.537100	0.987200	0.227500
H1111	H111	0.573100	0.962100	0.336000
H1121	H112	0.456500	0.978300	0.292400
C641	C64	0.769300	0.234200	0.247000
C651	C65	0.791300	0.331500	0.341000
H1131	H113	0.749800	0.347100	0.382500
H1141	H114	0.753100	0.335700	0.270400
C661	C66	0.878600	0.357700	0.355000
H1151	H115	0.911000	0.347300	0.302100
H1161	H116	0.860800	0.395000	0.344800
C671	C67	0.961200	0.353800	0.454500
H1171	H117	0.945000	0.378200	0.503400
H1181	H118	0.962000	0.318100	0.481400
C681	C68	0.076400	0.368100	0.437000
H1191	H119	0.125800	0.371500	0.502600
H1201	H120	0.072600	0.402200	0.402800
C691	C69	0.113000	0.329000	0.378700
H1211	H121	0.062700	0.325000	0.313800
H1221	H122	0.177700	0.341200	0.365800
C701	C70	0.268100	0.268000	0.490800
C711	C71	0.946800	0.198200	0.235400
H1231	H123	0.970400	0.203600	0.307200
H1241	H124	0.960200	0.162200	0.219400
H1251	H125	0.983100	0.221900	0.201000
C721	C72	0.277100	0.218500	0.654300
H1261	H126	0.211200	0.232900	0.657600
H1271	H127	0.325400	0.221300	0.719600
H1281	H128	0.268700	0.181800	0.634600
