data_ILOTOT_clean_PM
_symmetry_space_group_name_H-M	'P1'
_cell_length_a	10.530500
_cell_length_b	13.842000
_cell_length_c	14.136100
_cell_angle_alpha	60.685900
_cell_angle_beta	82.605200
_cell_angle_gamma	74.758900
_symmetry_Int_Tables_number 1

loop_
_symmetry_equiv_pos_as_xyz
'x,y,z'

loop_
_atom_site_label
_atom_site_type_symbol
_atom_site_fract_x
_atom_site_fract_y
_atom_site_fract_z
Co11	Co1	0.250000	0.582830	0.834340
Co21	Co2	0.750000	0.417170	0.165660
Co31	Co3	0.500000	0.500000	0.000000
Co41	Co4	0.000000	0.500000	0.000000
H11	H1	0.265200	0.700100	0.140000
H21	H2	0.150900	0.823400	0.206200
H31	H3	0.701900	0.734200	0.753000
H41	H4	0.420100	0.819300	0.544000
H51	H5	0.831800	0.882800	0.041400
H61	H6	0.944400	0.756900	0.979400
H71	H7	0.824400	0.843700	0.614200
H81	H8	0.542200	0.928000	0.402000
H91	H9	0.888400	0.094300	0.272600
H101	H10	0.818900	0.122900	0.167400
H111	H11	0.985100	0.907100	0.294000
H121	H12	0.034600	0.003600	0.189200
H131	H13	0.713700	0.964600	0.285400
H141	H14	0.660500	0.076800	0.295400
H151	H15	0.234800	0.159900	0.140000
H161	H16	0.349100	0.970400	0.206200
H171	H17	0.798100	0.512800	0.753000
H181	H18	0.079900	0.636700	0.544000
H191	H19	0.668200	0.075800	0.041400
H201	H20	0.555600	0.263700	0.979400
H211	H21	0.675600	0.542100	0.614200
H221	H22	0.957800	0.670000	0.402000
H231	H23	0.611600	0.633100	0.272600
H241	H24	0.681100	0.709700	0.167400
H251	H25	0.514900	0.798900	0.294000
H261	H26	0.465400	0.807200	0.189200
H271	H27	0.786300	0.750000	0.285400
H281	H28	0.839500	0.627800	0.295400
H291	H29	0.734800	0.299900	0.860000
H301	H30	0.849100	0.176600	0.793800
H311	H31	0.298100	0.265800	0.247000
H321	H32	0.579900	0.180700	0.456000
H331	H33	0.168200	0.117200	0.958600
H341	H34	0.055600	0.243100	0.020600
H351	H35	0.175600	0.156300	0.385800
H361	H36	0.457800	0.072000	0.598000
H371	H37	0.111600	0.905700	0.727400
H381	H38	0.181100	0.877100	0.832600
H391	H39	0.014900	0.092900	0.706000
H401	H40	0.965400	0.996400	0.810800
H411	H41	0.286300	0.035400	0.714600
H421	H42	0.339500	0.923200	0.704600
H431	H43	0.765200	0.840100	0.860000
H441	H44	0.650900	0.029600	0.793800
H451	H45	0.201900	0.487200	0.247000
H461	H46	0.920100	0.363300	0.456000
H471	H47	0.331800	0.924200	0.958600
H481	H48	0.444400	0.736300	0.020600
H491	H49	0.324400	0.457900	0.385800
H501	H50	0.042200	0.330000	0.598000
H511	H51	0.388400	0.366900	0.727400
H521	H52	0.318900	0.290300	0.832600
H531	H53	0.485100	0.201100	0.706000
H541	H54	0.534600	0.192800	0.810800
H551	H55	0.213700	0.250000	0.714600
H561	H56	0.160500	0.372200	0.704600
C11	C1	0.118500	0.717840	0.051120
C21	C2	0.980200	0.866900	0.127200
C31	C3	0.474100	0.688690	0.752820
C41	C4	0.178000	0.737240	0.119720
C51	C5	0.110200	0.811480	0.159440
C61	C6	0.695600	0.895630	0.492340
C71	C7	0.548100	0.765130	0.662740
C81	C8	0.669900	0.773290	0.682420
C91	C9	0.193100	0.645790	0.003020
C101	C10	0.501900	0.823600	0.557800
C111	C11	0.919200	0.846280	0.061040
C121	C12	0.986900	0.771380	0.023240
C131	C13	0.743800	0.837930	0.599740
C141	C14	0.574900	0.888940	0.472320
C151	C15	0.851200	0.061940	0.238320
C161	C16	0.958400	0.972910	0.224180
C171	C17	0.736800	0.015270	0.305860
C181	C18	0.381500	0.231040	0.051120
C191	C19	0.519800	0.005900	0.127200
C201	C20	0.025900	0.558490	0.752820
C211	C21	0.322000	0.143040	0.119720
C221	C22	0.389800	0.029080	0.159440
C231	C23	0.804400	0.612030	0.492340
C241	C24	0.951900	0.572130	0.662740
C251	C25	0.830100	0.544290	0.682420
C261	C26	0.306900	0.351190	0.003020
C271	C27	0.998100	0.618600	0.557800
C281	C28	0.580800	0.092680	0.061040
C291	C29	0.513100	0.205380	0.023240
C301	C30	0.756200	0.562330	0.599740
C311	C31	0.925100	0.638740	0.472320
C321	C32	0.648800	0.699740	0.238320
C331	C33	0.541600	0.802910	0.224180
C341	C34	0.763200	0.678870	0.305860
C351	C35	0.881500	0.282160	0.948880
C361	C36	0.019800	0.133100	0.872800
C371	C37	0.525900	0.311310	0.247180
C381	C38	0.822000	0.262760	0.880280
C391	C39	0.889800	0.188520	0.840560
C401	C40	0.304400	0.104370	0.507660
C411	C41	0.451900	0.234870	0.337260
C421	C42	0.330100	0.226710	0.317580
C431	C43	0.806900	0.354210	0.996980
C441	C44	0.498100	0.176400	0.442200
C451	C45	0.080800	0.153720	0.938960
C461	C46	0.013100	0.228620	0.976760
C471	C47	0.256200	0.162070	0.400260
C481	C48	0.425100	0.111060	0.527680
C491	C49	0.148800	0.938060	0.761680
C501	C50	0.041600	0.027090	0.775820
C511	C51	0.263200	0.984730	0.694140
C521	C52	0.618500	0.768960	0.948880
C531	C53	0.480200	0.994100	0.872800
C541	C54	0.974100	0.441510	0.247180
C551	C55	0.678000	0.856960	0.880280
C561	C56	0.610200	0.970920	0.840560
C571	C57	0.195600	0.387970	0.507660
C581	C58	0.048100	0.427870	0.337260
C591	C59	0.169900	0.455710	0.317580
C601	C60	0.693100	0.648810	0.996980
C611	C61	0.001900	0.381400	0.442200
C621	C62	0.419200	0.907320	0.938960
C631	C63	0.486900	0.794620	0.976760
C641	C64	0.243800	0.437670	0.400260
C651	C65	0.074900	0.361260	0.527680
C661	C66	0.351200	0.300260	0.761680
C671	C67	0.458400	0.197090	0.775820
C681	C68	0.236800	0.321130	0.694140
O11	O1	0.527300	0.624130	0.843540
O21	O2	0.130100	0.629000	0.941880
O31	O3	0.314400	0.608270	0.018100
O41	O4	0.360100	0.691370	0.732060
O51	O5	0.904500	0.942250	0.158700
O61	O6	0.779000	0.954520	0.416360
O71	O7	0.972700	0.532330	0.843540
O81	O8	0.369900	0.429120	0.941880
O91	O9	0.185600	0.373630	0.018100
O101	O10	0.139900	0.576570	0.732060
O111	O11	0.595500	0.899050	0.158700
O121	O12	0.721000	0.629120	0.416360
O131	O13	0.472700	0.375870	0.156460
O141	O14	0.869900	0.371000	0.058120
O151	O15	0.685600	0.391730	0.981900
O161	O16	0.639900	0.308630	0.267940
O171	O17	0.095500	0.057750	0.841300
O181	O18	0.221000	0.045480	0.583640
O191	O19	0.027300	0.467670	0.156460
O201	O20	0.630100	0.570880	0.058120
O211	O21	0.814400	0.626370	0.981900
O221	O22	0.860100	0.423430	0.267940
O231	O23	0.404500	0.100950	0.841300
O241	O24	0.279000	0.370880	0.583640
