data_ILUHUT_clean_PM
_symmetry_space_group_name_H-M	'P1'
_cell_length_a	15.234800
_cell_length_b	15.499700
_cell_length_c	15.499700
_cell_angle_alpha	120.000000
_cell_angle_beta	90.000000
_cell_angle_gamma	90.000000
_symmetry_Int_Tables_number 1

loop_
_symmetry_equiv_pos_as_xyz
'x,y,z'

loop_
_atom_site_label
_atom_site_type_symbol
_atom_site_fract_x
_atom_site_fract_y
_atom_site_fract_z
Pr11	Pr1	0.250000	0.333330	0.666660
Pr21	Pr2	0.250000	0.666670	0.333340
Pr31	Pr3	0.750000	0.666670	0.333340
Pr41	Pr4	0.750000	0.333330	0.666660
Co11	Co1	0.500000	0.000000	0.500000
Co21	Co2	0.500000	0.500000	0.000000
Co31	Co3	0.500000	0.500000	0.500000
Co41	Co4	0.000000	0.500000	0.500000
Co51	Co5	0.000000	0.500000	0.000000
Co61	Co6	0.000000	0.000000	0.500000
H11	H1	0.344300	0.053500	0.766500
H21	H2	0.344300	0.713000	0.946500
H31	H3	0.344300	0.233500	0.287000
H41	H4	0.344300	0.946500	0.233500
H51	H5	0.344300	0.287000	0.053500
H61	H6	0.344300	0.766500	0.713000
H71	H7	0.155700	0.287000	0.233500
H81	H8	0.155700	0.766500	0.053500
H91	H9	0.155700	0.946500	0.713000
H101	H10	0.155700	0.713000	0.766500
H111	H11	0.155700	0.233500	0.946500
H121	H12	0.155700	0.053500	0.287000
H131	H13	0.655700	0.946500	0.233500
H141	H14	0.655700	0.287000	0.053500
H151	H15	0.655700	0.766500	0.713000
H161	H16	0.655700	0.053500	0.766500
H171	H17	0.655700	0.713000	0.946500
H181	H18	0.655700	0.233500	0.287000
H191	H19	0.844300	0.713000	0.766500
H201	H20	0.844300	0.233500	0.946500
H211	H21	0.844300	0.053500	0.287000
H221	H22	0.844300	0.287000	0.233500
H231	H23	0.844300	0.766500	0.053500
H241	H24	0.844300	0.946500	0.713000
H251	H25	0.250000	0.100400	0.899600
H261	H26	0.250000	0.799200	0.899600
H271	H27	0.250000	0.100400	0.200800
H281	H28	0.250000	0.899600	0.100400
H291	H29	0.250000	0.200800	0.100400
H301	H30	0.250000	0.899600	0.799200
H311	H31	0.750000	0.899600	0.100400
H321	H32	0.750000	0.200800	0.100400
H331	H33	0.750000	0.899600	0.799200
H341	H34	0.750000	0.100400	0.899600
H351	H35	0.750000	0.799200	0.899600
H361	H36	0.750000	0.100400	0.200800
C11	C1	0.361200	0.134500	0.646800
C21	C2	0.303700	0.159200	0.735600
C31	C3	0.305900	0.106700	0.785700
C41	C4	0.361200	0.512300	0.865500
C51	C5	0.303700	0.576400	0.840800
C61	C6	0.305900	0.679000	0.893300
C71	C7	0.361200	0.353200	0.487700
C81	C8	0.303700	0.264400	0.423600
C91	C9	0.305900	0.214300	0.321000
C101	C10	0.361200	0.865500	0.353200
C111	C11	0.303700	0.840800	0.264400
C121	C12	0.305900	0.893300	0.214300
C131	C13	0.361200	0.487700	0.134500
C141	C14	0.303700	0.423600	0.159200
C151	C15	0.305900	0.321000	0.106700
C161	C16	0.361200	0.646800	0.512300
C171	C17	0.303700	0.735600	0.576400
C181	C18	0.305900	0.785700	0.679000
C191	C19	0.138800	0.487700	0.353200
C201	C20	0.196300	0.423600	0.264400
C211	C21	0.194100	0.321000	0.214300
C221	C22	0.138800	0.646800	0.134500
C231	C23	0.196300	0.735600	0.159200
C241	C24	0.194100	0.785700	0.106700
C251	C25	0.138800	0.865500	0.512300
C261	C26	0.196300	0.840800	0.576400
C271	C27	0.194100	0.893300	0.679000
C281	C28	0.138800	0.512300	0.646800
C291	C29	0.196300	0.576400	0.735600
C301	C30	0.194100	0.679000	0.785700
C311	C31	0.138800	0.353200	0.865500
C321	C32	0.196300	0.264400	0.840800
C331	C33	0.194100	0.214300	0.893300
C341	C34	0.138800	0.134500	0.487700
C351	C35	0.196300	0.159200	0.423600
C361	C36	0.194100	0.106700	0.321000
C371	C37	0.638800	0.865500	0.353200
C381	C38	0.696300	0.840800	0.264400
C391	C39	0.694100	0.893300	0.214300
C401	C40	0.638800	0.487700	0.134500
C411	C41	0.696300	0.423600	0.159200
C421	C42	0.694100	0.321000	0.106700
C431	C43	0.638800	0.646800	0.512300
C441	C44	0.696300	0.735600	0.576400
C451	C45	0.694100	0.785700	0.679000
C461	C46	0.638800	0.134500	0.646800
C471	C47	0.696300	0.159200	0.735600
C481	C48	0.694100	0.106700	0.785700
C491	C49	0.638800	0.512300	0.865500
C501	C50	0.696300	0.576400	0.840800
C511	C51	0.694100	0.679000	0.893300
C521	C52	0.638800	0.353200	0.487700
C531	C53	0.696300	0.264400	0.423600
C541	C54	0.694100	0.214300	0.321000
C551	C55	0.861200	0.512300	0.646800
C561	C56	0.803700	0.576400	0.735600
C571	C57	0.805900	0.679000	0.785700
C581	C58	0.861200	0.353200	0.865500
C591	C59	0.803700	0.264400	0.840800
C601	C60	0.805900	0.214300	0.893300
C611	C61	0.861200	0.134500	0.487700
C621	C62	0.803700	0.159200	0.423600
C631	C63	0.805900	0.106700	0.321000
C641	C64	0.861200	0.487700	0.353200
C651	C65	0.803700	0.423600	0.264400
C661	C66	0.805900	0.321000	0.214300
C671	C67	0.861200	0.646800	0.134500
C681	C68	0.803700	0.735600	0.159200
C691	C69	0.805900	0.785700	0.106700
C701	C70	0.861200	0.865500	0.512300
C711	C71	0.803700	0.840800	0.576400
C721	C72	0.805900	0.893300	0.679000
C731	C73	0.250000	0.135050	0.864950
C741	C74	0.250000	0.729900	0.864950
C751	C75	0.250000	0.135050	0.270100
C761	C76	0.250000	0.864950	0.135050
C771	C77	0.250000	0.270100	0.135050
C781	C78	0.250000	0.864950	0.729900
C791	C79	0.750000	0.864950	0.135050
C801	C80	0.750000	0.270100	0.135050
C811	C81	0.750000	0.864950	0.729900
C821	C82	0.750000	0.135050	0.864950
C831	C83	0.750000	0.729900	0.864950
C841	C84	0.750000	0.135050	0.270100
N11	N1	0.250000	0.237100	0.762900
N21	N2	0.250000	0.525800	0.762900
N31	N3	0.250000	0.237100	0.474200
N41	N4	0.250000	0.762900	0.237100
N51	N5	0.250000	0.474200	0.237100
N61	N6	0.250000	0.762900	0.525800
N71	N7	0.750000	0.762900	0.237100
N81	N8	0.750000	0.474200	0.237100
N91	N9	0.750000	0.762900	0.525800
N101	N10	0.750000	0.237100	0.762900
N111	N11	0.750000	0.525800	0.762900
N121	N12	0.750000	0.237100	0.474200
O11	O1	0.359170	0.195300	0.614010
O21	O2	0.405800	0.057600	0.612600
O31	O3	0.359170	0.418710	0.804700
O41	O4	0.405800	0.555000	0.942400
O51	O5	0.359170	0.385990	0.581290
O61	O6	0.405800	0.387400	0.445000
O71	O7	0.359170	0.804700	0.385990
O81	O8	0.405800	0.942400	0.387400
O91	O9	0.359170	0.581290	0.195300
O101	O10	0.405800	0.445000	0.057600
O111	O11	0.359170	0.614010	0.418710
O121	O12	0.405800	0.612600	0.555000
O131	O13	0.140830	0.581290	0.385990
O141	O14	0.094200	0.445000	0.387400
O151	O15	0.140830	0.614010	0.195300
O161	O16	0.094200	0.612600	0.057600
O171	O17	0.140830	0.804700	0.418710
O181	O18	0.094200	0.942400	0.555000
O191	O19	0.140830	0.418710	0.614010
O201	O20	0.094200	0.555000	0.612600
O211	O21	0.140830	0.385990	0.804700
O221	O22	0.094200	0.387400	0.942400
O231	O23	0.140830	0.195300	0.581290
O241	O24	0.094200	0.057600	0.445000
O251	O25	0.640830	0.804700	0.385990
O261	O26	0.594200	0.942400	0.387400
O271	O27	0.640830	0.581290	0.195300
O281	O28	0.594200	0.445000	0.057600
O291	O29	0.640830	0.614010	0.418710
O301	O30	0.594200	0.612600	0.555000
O311	O31	0.640830	0.195300	0.614010
O321	O32	0.594200	0.057600	0.612600
O331	O33	0.640830	0.418710	0.804700
O341	O34	0.594200	0.555000	0.942400
O351	O35	0.640830	0.385990	0.581290
O361	O36	0.594200	0.387400	0.445000
O371	O37	0.859170	0.418710	0.614010
O381	O38	0.905800	0.555000	0.612600
O391	O39	0.859170	0.385990	0.804700
O401	O40	0.905800	0.387400	0.942400
O411	O41	0.859170	0.195300	0.581290
O421	O42	0.905800	0.057600	0.445000
O431	O43	0.859170	0.581290	0.385990
O441	O44	0.905800	0.445000	0.387400
O451	O45	0.859170	0.614010	0.195300
O461	O46	0.905800	0.612600	0.057600
O471	O47	0.859170	0.804700	0.418710
O481	O48	0.905800	0.942400	0.555000
