data_IMEDOV_clean_PM
_symmetry_space_group_name_H-M	'P1'
_cell_length_a	46.618000
_cell_length_b	15.159000
_cell_length_c	27.704000
_cell_angle_alpha	90.000000
_cell_angle_beta	107.721000
_cell_angle_gamma	90.000000
_symmetry_Int_Tables_number 1

loop_
_symmetry_equiv_pos_as_xyz
'x,y,z'

loop_
_atom_site_label
_atom_site_type_symbol
_atom_site_fract_x
_atom_site_fract_y
_atom_site_fract_z
C11	C1	0.907720	0.833800	0.286940
O11	O1	0.995770	0.123780	0.033960
H11	H1	0.991700	0.115300	0.060300
Ni11	Ni1	0.879200	0.409980	0.446570
N11	N1	0.919380	0.910100	0.269920
N21	N2	0.841910	0.578200	0.533870
N31	N3	0.201690	0.803000	0.133280
N41	N4	0.240130	0.522400	0.034030
N51	N5	0.987080	0.893700	0.133150
N61	N6	0.918490	0.238200	0.365490
N71	N7	0.891380	0.313600	0.502350
N81	N8	0.872640	0.608400	0.338330
N91	N9	0.046770	0.017600	0.022700
O21	O2	0.917320	0.484170	0.486720
H21	H2	0.912600	0.536100	0.487400
O31	O3	0.206470	0.765100	0.507970
H31	H3	0.207900	0.771500	0.538000
C21	C2	0.860200	0.807700	0.580720
H41	H4	0.875100	0.849800	0.582900
C31	C3	0.008890	0.833800	0.130040
H51	H5	0.016600	0.787100	0.152000
N101	N10	0.228530	0.733400	0.423010
C41	C4	0.853550	0.071500	0.533080
H61	H6	0.849300	0.081200	0.498500
C51	C5	0.897090	0.752100	0.354430
H71	H7	0.897600	0.748000	0.388200
N111	N11	0.000870	0.930200	0.065510
N121	N12	0.854490	0.474500	0.487570
N131	N13	0.867570	0.501800	0.389320
N141	N14	0.247710	0.387500	0.008990
N151	N15	0.904710	0.345000	0.408440
C61	C6	0.127200	0.867800	0.043390
H81	H8	0.112000	0.845000	0.016200
C71	C7	0.917780	0.302200	0.541930
H91	H9	0.934900	0.337100	0.547700
C81	C8	0.914910	0.232700	0.570890
H101	H10	0.929400	0.211800	0.599600
N161	N16	0.764800	0.964300	0.753500
N171	N17	0.747020	0.955900	0.817800
C91	C9	0.771200	0.926700	0.800840
H111	H11	0.787400	0.890900	0.817600
C101	C10	0.873400	0.250400	0.508290
H121	H12	0.854000	0.241400	0.486900
C111	C11	0.942550	0.295900	0.381900
H131	H13	0.961200	0.291000	0.376300
C121	C12	0.741290	0.005600	0.744730
H141	H14	0.733200	0.035500	0.714300
C131	C13	0.941320	0.978800	0.210790
H151	H15	0.932300	0.031600	0.215200
C141	C14	0.254440	0.532500	0.998230
H161	H16	0.260100	0.585200	0.986500
C151	C15	0.234920	0.762100	0.382100
H171	H17	0.252400	0.792600	0.382800
C161	C16	0.837630	0.438100	0.515820
H181	H18	0.832200	0.378900	0.515000
C171	C17	0.223900	0.745700	0.070700
H191	H19	0.226200	0.803400	0.061100
C181	C18	0.891270	0.116100	0.313070
H201	H20	0.873100	0.144700	0.309700
C191	C19	0.819610	0.868600	0.693940
H211	H21	0.832800	0.821200	0.698800
C201	C20	0.201430	0.691100	0.404680
H221	H22	0.191400	0.663300	0.424800
C211	C21	0.847070	0.562400	0.313000
H231	H23	0.834200	0.573500	0.280600
C221	C22	0.933620	0.360900	0.407910
H241	H24	0.945300	0.409000	0.423000
C231	C23	0.236150	0.759000	0.271650
H251	H25	0.255000	0.746400	0.294400
C241	C24	0.814470	0.763600	0.596180
H261	H26	0.798500	0.775400	0.608600
C251	C25	0.176040	0.853900	0.104520
C261	C26	0.016870	0.856900	0.088320
H271	H27	0.031100	0.827500	0.076900
C271	C27	0.896190	0.271900	0.382200
H281	H28	0.877200	0.246500	0.375900
C281	C28	0.958440	0.975600	0.177650
H291	H29	0.961100	0.026400	0.160600
C291	C29	0.883800	0.568900	0.383600
H301	H30	0.901200	0.587400	0.408200
C301	C30	0.856480	0.559700	0.499130
H311	H31	0.866400	0.601300	0.485400
C311	C31	0.230010	0.591600	0.059470
C321	C32	0.210870	0.729300	0.108700
C331	C33	0.840260	0.662000	0.556090
C341	C34	0.236530	0.434900	0.039450
H321	H32	0.227300	0.410700	0.061800
C351	C35	0.862200	0.726100	0.559620
H331	H33	0.878400	0.713900	0.547700
C361	C36	0.873120	0.127700	0.567820
C371	C37	0.908470	0.827200	0.337340
H341	H34	0.916600	0.872900	0.359800
C381	C38	0.895380	0.765400	0.253990
H351	H35	0.894400	0.769900	0.220100
C391	C39	0.147360	0.987200	0.099740
H361	H36	0.145500	0.043900	0.111100
C401	C40	0.233440	0.676200	0.047200
H371	H37	0.242500	0.688100	0.022300
C411	C41	0.945480	0.111900	0.345940
H381	H38	0.963500	0.137100	0.365200
C421	C42	0.217000	0.574200	0.096310
H391	H39	0.214500	0.516200	0.105200
C431	C43	0.846830	0.986200	0.602130
C441	C44	0.844450	0.497700	0.345000
H401	H40	0.829000	0.456200	0.337800
C451	C45	0.884480	0.690900	0.270960
H411	H41	0.876700	0.645000	0.248600
C461	C46	0.191000	0.694900	0.352530
H421	H42	0.173200	0.671300	0.331200
C471	C47	0.945430	0.031900	0.322190
H431	H43	0.963600	0.003900	0.324700
C481	C48	0.783830	0.951500	0.720140
C491	C49	0.173660	0.939200	0.120390
H441	H44	0.189700	0.964700	0.145000
C501	C50	0.233000	0.774300	0.220690
H451	H45	0.249800	0.772200	0.209300
C511	C51	0.835890	0.827300	0.598760
C521	C52	0.816630	0.681100	0.574970
H461	H46	0.802000	0.638500	0.573500
C531	C53	0.879210	0.113500	0.619000
H471	H47	0.892100	0.151300	0.642100
C541	C54	0.258800	0.448500	0.983010
H481	H48	0.268000	0.435100	0.958500
C551	C55	0.840360	0.000800	0.550580
H491	H49	0.827200	0.963400	0.527600
C561	C56	0.207460	0.643300	0.120540
H501	H50	0.198500	0.630700	0.145500
C571	C57	0.798860	0.999000	0.648970
H511	H51	0.797700	0.039500	0.623200
C581	C58	0.180090	0.800700	0.205330
H521	H52	0.161300	0.815900	0.183400
C591	C59	0.782090	0.011900	0.681740
H531	H53	0.769700	0.061100	0.678100
C601	C60	0.817360	0.926300	0.654240
C611	C61	0.210970	0.762700	0.287980
C621	C62	0.728000	0.006000	0.780180
H541	H54	0.710100	0.033300	0.779900
C631	C63	0.918360	0.154600	0.340860
C641	C64	0.866140	0.042800	0.636100
H551	H55	0.870400	0.033200	0.670700
C651	C65	0.830010	0.500300	0.544860
H561	H56	0.819000	0.492100	0.567500
C661	C66	0.802600	0.880000	0.726440
H571	H57	0.803900	0.839700	0.752300
C671	C67	0.183490	0.786100	0.255560
H581	H58	0.167100	0.792200	0.267700
C681	C68	0.153310	0.819100	0.065410
H591	H59	0.155300	0.762800	0.053500
C691	C69	0.204670	0.792700	0.186780
C701	C70	0.891570	0.034600	0.290430
H601	H60	0.873500	0.008000	0.272300
N181	N18	0.212620	0.741100	0.339000
N191	N19	0.834180	0.911800	0.619850
C711	C71	0.885090	0.684100	0.321440
C721	C72	0.937560	0.904600	0.237340
C731	C73	0.968320	0.823600	0.197040
H611	H61	0.977400	0.771000	0.192500
C741	C74	0.918590	0.993100	0.294760
C751	C75	0.971370	0.898000	0.169970
C761	C76	0.061150	0.098500	0.028630
H621	H62	0.051500	0.153100	0.024100
C771	C77	0.951720	0.827300	0.231000
H631	H63	0.950100	0.777500	0.249600
C781	C78	0.982810	0.949800	0.093720
H641	H64	0.969100	0.996100	0.086900
N201	N20	0.886860	0.199300	0.550010
N211	N21	0.095950	0.995400	0.044500
C791	C79	0.068200	0.957600	0.032100
H651	H65	0.064800	0.897000	0.030500
C801	C80	0.091590	0.086100	0.042150
H661	H66	0.106400	0.129500	0.048500
C811	C81	0.124300	0.949800	0.062430
C821	C82	0.407720	0.333800	0.286940
O41	O4	0.495770	0.623780	0.033960
H671	H67	0.491700	0.615300	0.060300
Ni21	Ni2	0.379200	0.909980	0.446570
N221	N22	0.419380	0.410100	0.269920
N231	N23	0.341910	0.078200	0.533870
N241	N24	0.701690	0.303000	0.133280
N251	N25	0.740130	0.022400	0.034030
N261	N26	0.487080	0.393700	0.133150
N271	N27	0.418490	0.738200	0.365490
N281	N28	0.391380	0.813600	0.502350
N291	N29	0.372640	0.108400	0.338330
N301	N30	0.546770	0.517600	0.022700
O51	O5	0.417320	0.984170	0.486720
H681	H68	0.412600	0.036100	0.487400
O61	O6	0.706470	0.265100	0.507970
H691	H69	0.707900	0.271500	0.538000
C831	C83	0.360200	0.307700	0.580720
H701	H70	0.375100	0.349800	0.582900
C841	C84	0.508890	0.333800	0.130040
H711	H71	0.516600	0.287100	0.152000
N311	N31	0.728530	0.233400	0.423010
C851	C85	0.353550	0.571500	0.533080
H721	H72	0.349300	0.581200	0.498500
C861	C86	0.397090	0.252100	0.354430
H731	H73	0.397600	0.248000	0.388200
N321	N32	0.500870	0.430200	0.065510
N331	N33	0.354490	0.974500	0.487570
N341	N34	0.367570	0.001800	0.389320
N351	N35	0.747710	0.887500	0.008990
N361	N36	0.404710	0.845000	0.408440
C871	C87	0.627200	0.367800	0.043390
H741	H74	0.612000	0.345000	0.016200
C881	C88	0.417780	0.802200	0.541930
H751	H75	0.434900	0.837100	0.547700
C891	C89	0.414910	0.732700	0.570890
H761	H76	0.429400	0.711800	0.599600
N371	N37	0.264800	0.464300	0.753500
N381	N38	0.247020	0.455900	0.817800
C901	C90	0.271200	0.426700	0.800840
H771	H77	0.287400	0.390900	0.817600
C911	C91	0.373400	0.750400	0.508290
H781	H78	0.354000	0.741400	0.486900
C921	C92	0.442550	0.795900	0.381900
H791	H79	0.461200	0.791000	0.376300
C931	C93	0.241290	0.505600	0.744730
H801	H80	0.233200	0.535500	0.714300
C941	C94	0.441320	0.478800	0.210790
H811	H81	0.432300	0.531600	0.215200
C951	C95	0.754440	0.032500	0.998230
H821	H82	0.760100	0.085200	0.986500
C961	C96	0.734920	0.262100	0.382100
H831	H83	0.752400	0.292600	0.382800
C971	C97	0.337630	0.938100	0.515820
H841	H84	0.332200	0.878900	0.515000
C981	C98	0.723900	0.245700	0.070700
H851	H85	0.726200	0.303400	0.061100
C991	C99	0.391270	0.616100	0.313070
H861	H86	0.373100	0.644700	0.309700
C1001	C100	0.319610	0.368600	0.693940
H871	H87	0.332800	0.321200	0.698800
C1011	C101	0.701430	0.191100	0.404680
H881	H88	0.691400	0.163300	0.424800
C1021	C102	0.347070	0.062400	0.313000
H891	H89	0.334200	0.073500	0.280600
C1031	C103	0.433620	0.860900	0.407910
H901	H90	0.445300	0.909000	0.423000
C1041	C104	0.736150	0.259000	0.271650
H911	H91	0.755000	0.246400	0.294400
C1051	C105	0.314470	0.263600	0.596180
H921	H92	0.298500	0.275400	0.608600
C1061	C106	0.676040	0.353900	0.104520
C1071	C107	0.516870	0.356900	0.088320
H931	H93	0.531100	0.327500	0.076900
C1081	C108	0.396190	0.771900	0.382200
H941	H94	0.377200	0.746500	0.375900
C1091	C109	0.458440	0.475600	0.177650
H951	H95	0.461100	0.526400	0.160600
C1101	C110	0.383800	0.068900	0.383600
H961	H96	0.401200	0.087400	0.408200
C1111	C111	0.356480	0.059700	0.499130
H971	H97	0.366400	0.101300	0.485400
C1121	C112	0.730010	0.091600	0.059470
C1131	C113	0.710870	0.229300	0.108700
C1141	C114	0.340260	0.162000	0.556090
C1151	C115	0.736530	0.934900	0.039450
H981	H98	0.727300	0.910700	0.061800
C1161	C116	0.362200	0.226100	0.559620
H991	H99	0.378400	0.213900	0.547700
C1171	C117	0.373120	0.627700	0.567820
C1181	C118	0.408470	0.327200	0.337340
H1001	H100	0.416600	0.372900	0.359800
C1191	C119	0.395380	0.265400	0.253990
H1011	H101	0.394400	0.269900	0.220100
C1201	C120	0.647360	0.487200	0.099740
H1021	H102	0.645500	0.543900	0.111100
C1211	C121	0.733440	0.176200	0.047200
H1031	H103	0.742500	0.188100	0.022300
C1221	C122	0.445480	0.611900	0.345940
H1041	H104	0.463500	0.637100	0.365200
C1231	C123	0.717000	0.074200	0.096310
H1051	H105	0.714500	0.016200	0.105200
C1241	C124	0.346830	0.486200	0.602130
C1251	C125	0.344450	0.997700	0.345000
H1061	H106	0.329000	0.956200	0.337800
C1261	C126	0.384480	0.190900	0.270960
H1071	H107	0.376700	0.145000	0.248600
C1271	C127	0.691000	0.194900	0.352530
H1081	H108	0.673200	0.171300	0.331200
C1281	C128	0.445430	0.531900	0.322190
H1091	H109	0.463600	0.503900	0.324700
C1291	C129	0.283830	0.451500	0.720140
C1301	C130	0.673660	0.439200	0.120390
H1101	H110	0.689700	0.464700	0.145000
C1311	C131	0.733000	0.274300	0.220690
H1111	H111	0.749800	0.272200	0.209300
C1321	C132	0.335890	0.327300	0.598760
C1331	C133	0.316630	0.181100	0.574970
H1121	H112	0.302000	0.138500	0.573500
C1341	C134	0.379210	0.613500	0.619000
H1131	H113	0.392100	0.651300	0.642100
C1351	C135	0.758800	0.948500	0.983010
H1141	H114	0.768000	0.935100	0.958500
C1361	C136	0.340360	0.500800	0.550580
H1151	H115	0.327200	0.463400	0.527600
C1371	C137	0.707460	0.143300	0.120540
H1161	H116	0.698500	0.130700	0.145500
C1381	C138	0.298860	0.499000	0.648970
H1171	H117	0.297700	0.539500	0.623200
C1391	C139	0.680090	0.300700	0.205330
H1181	H118	0.661300	0.315900	0.183400
C1401	C140	0.282090	0.511900	0.681740
H1191	H119	0.269700	0.561100	0.678100
C1411	C141	0.317360	0.426300	0.654240
C1421	C142	0.710970	0.262700	0.287980
C1431	C143	0.228000	0.506000	0.780180
H1201	H120	0.210100	0.533300	0.779900
C1441	C144	0.418360	0.654600	0.340860
C1451	C145	0.366140	0.542800	0.636100
H1211	H121	0.370400	0.533200	0.670700
C1461	C146	0.330010	0.000300	0.544860
H1221	H122	0.319000	0.992100	0.567500
C1471	C147	0.302600	0.380000	0.726440
H1231	H123	0.303900	0.339700	0.752300
C1481	C148	0.683490	0.286100	0.255560
H1241	H124	0.667100	0.292200	0.267700
C1491	C149	0.653310	0.319100	0.065410
H1251	H125	0.655300	0.262800	0.053500
C1501	C150	0.704670	0.292700	0.186780
C1511	C151	0.391570	0.534600	0.290430
H1261	H126	0.373500	0.508000	0.272300
N391	N39	0.712620	0.241100	0.339000
N401	N40	0.334180	0.411800	0.619850
C1521	C152	0.385090	0.184100	0.321440
C1531	C153	0.437560	0.404600	0.237340
C1541	C154	0.468320	0.323600	0.197040
H1271	H127	0.477400	0.271000	0.192500
C1551	C155	0.418590	0.493100	0.294760
C1561	C156	0.471370	0.398000	0.169970
C1571	C157	0.561150	0.598500	0.028630
H1281	H128	0.551500	0.653100	0.024100
C1581	C158	0.451720	0.327300	0.231000
H1291	H129	0.450100	0.277500	0.249600
C1591	C159	0.482810	0.449800	0.093720
H1301	H130	0.469100	0.496100	0.086900
N411	N41	0.386860	0.699300	0.550010
N421	N42	0.595950	0.495400	0.044500
C1601	C160	0.568200	0.457600	0.032100
H1311	H131	0.564800	0.397000	0.030500
C1611	C161	0.591590	0.586100	0.042150
H1321	H132	0.606400	0.629500	0.048500
C1621	C162	0.624300	0.449800	0.062430
C1631	C163	0.092280	0.833800	0.213060
O71	O7	0.004230	0.123780	0.466040
H1331	H133	0.008300	0.115300	0.439700
Ni31	Ni3	0.120800	0.409980	0.053430
N431	N43	0.080620	0.910100	0.230080
N441	N44	0.158090	0.578200	0.966130
N451	N45	0.798310	0.803000	0.366720
N461	N46	0.759870	0.522400	0.465970
N471	N47	0.012920	0.893700	0.366850
N481	N48	0.081510	0.238200	0.134510
N491	N49	0.108620	0.313600	0.997650
N501	N50	0.127360	0.608400	0.161670
N511	N51	0.953230	0.017600	0.477300
O81	O8	0.082680	0.484170	0.013280
H1341	H134	0.087400	0.536100	0.012600
O91	O9	0.793530	0.765100	0.992030
H1351	H135	0.792100	0.771500	0.962000
C1641	C164	0.139800	0.807700	0.919280
H1361	H136	0.124900	0.849800	0.917100
C1651	C165	0.991110	0.833800	0.369960
H1371	H137	0.983400	0.787100	0.348000
N521	N52	0.771470	0.733400	0.076990
C1661	C166	0.146450	0.071500	0.966920
H1381	H138	0.150700	0.081200	0.001500
C1671	C167	0.102910	0.752100	0.145570
H1391	H139	0.102400	0.748000	0.111800
N531	N53	0.999130	0.930200	0.434490
N541	N54	0.145510	0.474500	0.012430
N551	N55	0.132430	0.501800	0.110680
N561	N56	0.752290	0.387500	0.491010
N571	N57	0.095290	0.345000	0.091560
C1681	C168	0.872800	0.867800	0.456610
H1401	H140	0.888000	0.845000	0.483800
C1691	C169	0.082220	0.302200	0.958070
H1411	H141	0.065100	0.337100	0.952300
C1701	C170	0.085090	0.232700	0.929110
H1421	H142	0.070600	0.211800	0.900400
N581	N58	0.235200	0.964300	0.746500
N591	N59	0.252980	0.955900	0.682200
C1711	C171	0.228800	0.926700	0.699160
H1431	H143	0.212600	0.890900	0.682400
C1721	C172	0.126600	0.250400	0.991710
H1441	H144	0.146000	0.241400	0.013100
C1731	C173	0.057450	0.295900	0.118100
H1451	H145	0.038800	0.291000	0.123700
C1741	C174	0.258710	0.005600	0.755270
H1461	H146	0.266800	0.035500	0.785700
C1751	C175	0.058680	0.978800	0.289210
H1471	H147	0.067700	0.031600	0.284800
C1761	C176	0.745560	0.532500	0.501770
H1481	H148	0.739900	0.585200	0.513500
C1771	C177	0.765080	0.762100	0.117900
H1491	H149	0.747600	0.792600	0.117200
C1781	C178	0.162370	0.438100	0.984180
H1501	H150	0.167800	0.378900	0.985000
C1791	C179	0.776100	0.745700	0.429300
H1511	H151	0.773800	0.803400	0.438900
C1801	C180	0.108730	0.116100	0.186930
H1521	H152	0.126900	0.144700	0.190300
C1811	C181	0.180390	0.868600	0.806060
H1531	H153	0.167200	0.821200	0.801200
C1821	C182	0.798570	0.691100	0.095320
H1541	H154	0.808600	0.663300	0.075200
C1831	C183	0.152930	0.562400	0.187000
H1551	H155	0.165800	0.573500	0.219400
C1841	C184	0.066380	0.360900	0.092090
H1561	H156	0.054700	0.409000	0.077000
C1851	C185	0.763850	0.759000	0.228350
H1571	H157	0.745000	0.746400	0.205600
C1861	C186	0.185530	0.763600	0.903820
H1581	H158	0.201500	0.775400	0.891400
C1871	C187	0.823960	0.853900	0.395480
C1881	C188	0.983130	0.856900	0.411680
H1591	H159	0.968900	0.827500	0.423100
C1891	C189	0.103810	0.271900	0.117800
H1601	H160	0.122800	0.246500	0.124100
C1901	C190	0.041560	0.975600	0.322350
H1611	H161	0.038900	0.026400	0.339400
C1911	C191	0.116200	0.568900	0.116400
H1621	H162	0.098800	0.587400	0.091800
C1921	C192	0.143520	0.559700	0.000870
H1631	H163	0.133600	0.601300	0.014600
C1931	C193	0.769990	0.591600	0.440530
C1941	C194	0.789130	0.729300	0.391300
C1951	C195	0.159740	0.662000	0.943910
C1961	C196	0.763470	0.434900	0.460550
H1641	H164	0.772700	0.410700	0.438200
C1971	C197	0.137800	0.726100	0.940380
H1651	H165	0.121600	0.713900	0.952300
C1981	C198	0.126880	0.127700	0.932180
C1991	C199	0.091530	0.827200	0.162660
H1661	H166	0.083400	0.872900	0.140200
C2001	C200	0.104620	0.765400	0.246010
H1671	H167	0.105600	0.769900	0.279900
C2011	C201	0.852640	0.987200	0.400260
H1681	H168	0.854500	0.043900	0.388900
C2021	C202	0.766560	0.676200	0.452800
H1691	H169	0.757500	0.688100	0.477700
C2031	C203	0.054520	0.111900	0.154060
H1701	H170	0.036500	0.137100	0.134800
C2041	C204	0.783000	0.574200	0.403690
H1711	H171	0.785500	0.516200	0.394800
C2051	C205	0.153170	0.986200	0.897870
C2061	C206	0.155550	0.497700	0.155000
H1721	H172	0.171000	0.456200	0.162200
C2071	C207	0.115520	0.690900	0.229040
H1731	H173	0.123300	0.645000	0.251400
C2081	C208	0.809000	0.694900	0.147470
H1741	H174	0.826800	0.671300	0.168800
C2091	C209	0.054570	0.031900	0.177810
H1751	H175	0.036400	0.003900	0.175300
C2101	C210	0.216170	0.951500	0.779860
C2111	C211	0.826340	0.939200	0.379610
H1761	H176	0.810300	0.964700	0.355000
C2121	C212	0.767000	0.774300	0.279310
H1771	H177	0.750200	0.772200	0.290700
C2131	C213	0.164110	0.827300	0.901240
C2141	C214	0.183370	0.681100	0.925030
H1781	H178	0.198000	0.638500	0.926500
C2151	C215	0.120790	0.113500	0.881000
H1791	H179	0.107900	0.151300	0.857900
C2161	C216	0.741200	0.448500	0.516990
H1801	H180	0.732000	0.435100	0.541500
C2171	C217	0.159640	0.000800	0.949420
H1811	H181	0.172800	0.963400	0.972400
C2181	C218	0.792540	0.643300	0.379460
H1821	H182	0.801500	0.630700	0.354500
C2191	C219	0.201140	0.999000	0.851030
H1831	H183	0.202300	0.039500	0.876800
C2201	C220	0.819910	0.800700	0.294670
H1841	H184	0.838700	0.815900	0.316600
C2211	C221	0.217910	0.011900	0.818260
H1851	H185	0.230300	0.061100	0.821900
C2221	C222	0.182640	0.926300	0.845760
C2231	C223	0.789030	0.762700	0.212020
C2241	C224	0.272000	0.006000	0.719820
H1861	H186	0.289900	0.033300	0.720100
C2251	C225	0.081640	0.154600	0.159140
C2261	C226	0.133860	0.042800	0.863900
H1871	H187	0.129600	0.033200	0.829300
C2271	C227	0.169990	0.500300	0.955140
H1881	H188	0.181000	0.492100	0.932500
C2281	C228	0.197400	0.880000	0.773560
H1891	H189	0.196100	0.839700	0.747700
C2291	C229	0.816510	0.786100	0.244440
H1901	H190	0.832900	0.792200	0.232300
C2301	C230	0.846690	0.819100	0.434590
H1911	H191	0.844700	0.762800	0.446500
C2311	C231	0.795330	0.792700	0.313220
C2321	C232	0.108430	0.034600	0.209570
H1921	H192	0.126500	0.008000	0.227700
N601	N60	0.787380	0.741100	0.161000
N611	N61	0.165820	0.911800	0.880150
C2331	C233	0.114910	0.684100	0.178560
C2341	C234	0.062440	0.904600	0.262660
C2351	C235	0.031680	0.823600	0.302960
H1931	H193	0.022600	0.771000	0.307500
C2361	C236	0.081410	0.993100	0.205240
C2371	C237	0.028630	0.898000	0.330030
C2381	C238	0.938850	0.098500	0.471370
H1941	H194	0.948500	0.153100	0.475900
C2391	C239	0.048280	0.827300	0.269000
H1951	H195	0.049900	0.777500	0.250400
C2401	C240	0.017190	0.949800	0.406280
H1961	H196	0.030900	0.996100	0.413100
N621	N62	0.113140	0.199300	0.949990
N631	N63	0.904050	0.995400	0.455500
C2411	C241	0.931800	0.957600	0.467900
H1971	H197	0.935200	0.897000	0.469500
C2421	C242	0.908410	0.086100	0.457850
H1981	H198	0.893600	0.129500	0.451500
C2431	C243	0.875700	0.949800	0.437570
C2441	C244	0.592280	0.333800	0.213060
O101	O10	0.504230	0.623780	0.466040
H1991	H199	0.508300	0.615300	0.439700
Ni41	Ni4	0.620800	0.909980	0.053430
N641	N64	0.580620	0.410100	0.230080
N651	N65	0.658090	0.078200	0.966130
N661	N66	0.298310	0.303000	0.366720
N671	N67	0.259870	0.022400	0.465970
N681	N68	0.512920	0.393700	0.366850
N691	N69	0.581510	0.738200	0.134510
N701	N70	0.608620	0.813600	0.997650
N711	N71	0.627360	0.108400	0.161670
N721	N72	0.453230	0.517600	0.477300
O111	O11	0.582680	0.984170	0.013280
H2001	H200	0.587400	0.036100	0.012600
O121	O12	0.293530	0.265100	0.992030
H2011	H201	0.292100	0.271500	0.962000
C2451	C245	0.639800	0.307700	0.919280
H2021	H202	0.624900	0.349800	0.917100
C2461	C246	0.491110	0.333800	0.369960
H2031	H203	0.483400	0.287100	0.348000
N731	N73	0.271470	0.233400	0.076990
C2471	C247	0.646450	0.571500	0.966920
H2041	H204	0.650700	0.581200	0.001500
C2481	C248	0.602910	0.252100	0.145570
H2051	H205	0.602400	0.248000	0.111800
N741	N74	0.499130	0.430200	0.434490
N751	N75	0.645510	0.974500	0.012430
N761	N76	0.632430	0.001800	0.110680
N771	N77	0.252290	0.887500	0.491010
N781	N78	0.595290	0.845000	0.091560
C2491	C249	0.372800	0.367800	0.456610
H2061	H206	0.388000	0.345000	0.483800
C2501	C250	0.582220	0.802200	0.958070
H2071	H207	0.565100	0.837100	0.952300
C2511	C251	0.585090	0.732700	0.929110
H2081	H208	0.570600	0.711800	0.900400
N791	N79	0.735200	0.464300	0.746500
N801	N80	0.752980	0.455900	0.682200
C2521	C252	0.728800	0.426700	0.699160
H2091	H209	0.712600	0.390900	0.682400
C2531	C253	0.626600	0.750400	0.991710
H2101	H210	0.646000	0.741400	0.013100
C2541	C254	0.557450	0.795900	0.118100
H2111	H211	0.538800	0.791000	0.123700
C2551	C255	0.758710	0.505600	0.755270
H2121	H212	0.766800	0.535500	0.785700
C2561	C256	0.558680	0.478800	0.289210
H2131	H213	0.567700	0.531600	0.284800
C2571	C257	0.245560	0.032500	0.501770
H2141	H214	0.239900	0.085200	0.513500
C2581	C258	0.265080	0.262100	0.117900
H2151	H215	0.247600	0.292600	0.117200
C2591	C259	0.662370	0.938100	0.984180
H2161	H216	0.667800	0.878900	0.985000
C2601	C260	0.276100	0.245700	0.429300
H2171	H217	0.273800	0.303400	0.438900
C2611	C261	0.608730	0.616100	0.186930
H2181	H218	0.626900	0.644700	0.190300
C2621	C262	0.680390	0.368600	0.806060
H2191	H219	0.667200	0.321200	0.801200
C2631	C263	0.298570	0.191100	0.095320
H2201	H220	0.308600	0.163300	0.075200
C2641	C264	0.652930	0.062400	0.187000
H2211	H221	0.665800	0.073500	0.219400
C2651	C265	0.566380	0.860900	0.092090
H2221	H222	0.554700	0.909000	0.077000
C2661	C266	0.263850	0.259000	0.228350
H2231	H223	0.245000	0.246400	0.205600
C2671	C267	0.685530	0.263600	0.903820
H2241	H224	0.701500	0.275400	0.891400
C2681	C268	0.323960	0.353900	0.395480
C2691	C269	0.483130	0.356900	0.411680
H2251	H225	0.468900	0.327500	0.423100
C2701	C270	0.603810	0.771900	0.117800
H2261	H226	0.622800	0.746500	0.124100
C2711	C271	0.541560	0.475600	0.322350
H2271	H227	0.538900	0.526400	0.339400
C2721	C272	0.616200	0.068900	0.116400
H2281	H228	0.598800	0.087400	0.091800
C2731	C273	0.643520	0.059700	0.000870
H2291	H229	0.633600	0.101300	0.014600
C2741	C274	0.269990	0.091600	0.440530
C2751	C275	0.289130	0.229300	0.391300
C2761	C276	0.659740	0.162000	0.943910
C2771	C277	0.263470	0.934900	0.460550
H2301	H230	0.272700	0.910700	0.438200
C2781	C278	0.637800	0.226100	0.940380
H2311	H231	0.621600	0.213900	0.952300
C2791	C279	0.626880	0.627700	0.932180
C2801	C280	0.591530	0.327200	0.162660
H2321	H232	0.583400	0.372900	0.140200
C2811	C281	0.604620	0.265400	0.246010
H2331	H233	0.605600	0.269900	0.279900
C2821	C282	0.352640	0.487200	0.400260
H2341	H234	0.354500	0.543900	0.388900
C2831	C283	0.266560	0.176200	0.452800
H2351	H235	0.257500	0.188100	0.477700
C2841	C284	0.554520	0.611900	0.154060
H2361	H236	0.536500	0.637100	0.134800
C2851	C285	0.283000	0.074200	0.403690
H2371	H237	0.285500	0.016200	0.394800
C2861	C286	0.653170	0.486200	0.897870
C2871	C287	0.655550	0.997700	0.155000
H2381	H238	0.671000	0.956200	0.162200
C2881	C288	0.615520	0.190900	0.229040
H2391	H239	0.623300	0.145000	0.251400
C2891	C289	0.309000	0.194900	0.147470
H2401	H240	0.326800	0.171300	0.168800
C2901	C290	0.554570	0.531900	0.177810
H2411	H241	0.536400	0.503900	0.175300
C2911	C291	0.716170	0.451500	0.779860
C2921	C292	0.326340	0.439200	0.379610
H2421	H242	0.310300	0.464700	0.355000
C2931	C293	0.267000	0.274300	0.279310
H2431	H243	0.250200	0.272200	0.290700
C2941	C294	0.664110	0.327300	0.901240
C2951	C295	0.683370	0.181100	0.925030
H2441	H244	0.698000	0.138500	0.926500
C2961	C296	0.620790	0.613500	0.881000
H2451	H245	0.607900	0.651300	0.857900
C2971	C297	0.241200	0.948500	0.516990
H2461	H246	0.232000	0.935100	0.541500
C2981	C298	0.659640	0.500800	0.949420
H2471	H247	0.672800	0.463400	0.972400
C2991	C299	0.292540	0.143300	0.379460
H2481	H248	0.301500	0.130700	0.354500
C3001	C300	0.701140	0.499000	0.851030
H2491	H249	0.702300	0.539500	0.876800
C3011	C301	0.319910	0.300700	0.294670
H2501	H250	0.338700	0.315900	0.316600
C3021	C302	0.717910	0.511900	0.818260
H2511	H251	0.730300	0.561100	0.821900
C3031	C303	0.682640	0.426300	0.845760
C3041	C304	0.289030	0.262700	0.212020
C3051	C305	0.772000	0.506000	0.719820
H2521	H252	0.789900	0.533300	0.720100
C3061	C306	0.581640	0.654600	0.159140
C3071	C307	0.633860	0.542800	0.863900
H2531	H253	0.629600	0.533200	0.829300
C3081	C308	0.669990	0.000300	0.955140
H2541	H254	0.681000	0.992100	0.932500
C3091	C309	0.697400	0.380000	0.773560
H2551	H255	0.696100	0.339700	0.747700
C3101	C310	0.316510	0.286100	0.244440
H2561	H256	0.332900	0.292200	0.232300
C3111	C311	0.346690	0.319100	0.434590
H2571	H257	0.344700	0.262800	0.446500
C3121	C312	0.295330	0.292700	0.313220
C3131	C313	0.608430	0.534600	0.209570
H2581	H258	0.626500	0.508000	0.227700
N811	N81	0.287380	0.241100	0.161000
N821	N82	0.665820	0.411800	0.880150
C3141	C314	0.614910	0.184100	0.178560
C3151	C315	0.562440	0.404600	0.262660
C3161	C316	0.531680	0.323600	0.302960
H2591	H259	0.522600	0.271000	0.307500
C3171	C317	0.581410	0.493100	0.205240
C3181	C318	0.528630	0.398000	0.330030
C3191	C319	0.438850	0.598500	0.471370
H2601	H260	0.448500	0.653100	0.475900
C3201	C320	0.548280	0.327300	0.269000
H2611	H261	0.549900	0.277500	0.250400
C3211	C321	0.517190	0.449800	0.406280
H2621	H262	0.530900	0.496100	0.413100
N831	N83	0.613140	0.699300	0.949990
N841	N84	0.404050	0.495400	0.455500
C3221	C322	0.431800	0.457600	0.467900
H2631	H263	0.435200	0.397000	0.469500
C3231	C323	0.408410	0.586100	0.457850
H2641	H264	0.393600	0.629500	0.451500
C3241	C324	0.375700	0.449800	0.437570
C3251	C325	0.092280	0.166200	0.713060
O131	O13	0.004230	0.876220	0.966040
H2651	H265	0.008300	0.884700	0.939700
Ni51	Ni5	0.120800	0.590020	0.553430
N851	N85	0.080620	0.089900	0.730080
N861	N86	0.158090	0.421800	0.466130
N871	N87	0.798310	0.197000	0.866720
N881	N88	0.759870	0.477600	0.965970
N891	N89	0.012920	0.106300	0.866850
N901	N90	0.081510	0.761800	0.634510
N911	N91	0.108620	0.686400	0.497650
N921	N92	0.127360	0.391600	0.661670
N931	N93	0.953230	0.982400	0.977300
O141	O14	0.082680	0.515830	0.513280
H2661	H266	0.087400	0.463900	0.512600
O151	O15	0.793530	0.234900	0.492030
H2671	H267	0.792100	0.228500	0.462000
C3261	C326	0.139800	0.192300	0.419280
H2681	H268	0.124900	0.150200	0.417100
C3271	C327	0.991110	0.166200	0.869960
H2691	H269	0.983400	0.212900	0.848000
N941	N94	0.771470	0.266600	0.576990
C3281	C328	0.146450	0.928500	0.466920
H2701	H270	0.150700	0.918800	0.501500
C3291	C329	0.102910	0.247900	0.645570
H2711	H271	0.102400	0.252000	0.611800
N951	N95	0.999130	0.069800	0.934490
N961	N96	0.145510	0.525500	0.512430
N971	N97	0.132430	0.498200	0.610680
N981	N98	0.752290	0.612500	0.991010
N991	N99	0.095290	0.655000	0.591560
C3301	C330	0.872800	0.132200	0.956610
H2721	H272	0.888000	0.155000	0.983800
C3311	C331	0.082220	0.697800	0.458070
H2731	H273	0.065100	0.662900	0.452300
C3321	C332	0.085090	0.767300	0.429110
H2741	H274	0.070600	0.788200	0.400400
N1001	N100	0.235200	0.035700	0.246500
N1011	N101	0.252980	0.044100	0.182200
C3331	C333	0.228800	0.073300	0.199160
H2751	H275	0.212600	0.109100	0.182400
C3341	C334	0.126600	0.749600	0.491710
H2761	H276	0.146000	0.758600	0.513100
C3351	C335	0.057450	0.704100	0.618100
H2771	H277	0.038800	0.709000	0.623700
C3361	C336	0.258710	0.994400	0.255270
H2781	H278	0.266800	0.964500	0.285700
C3371	C337	0.058680	0.021200	0.789210
H2791	H279	0.067700	0.968400	0.784800
C3381	C338	0.745560	0.467500	0.001770
H2801	H280	0.739900	0.414800	0.013500
C3391	C339	0.765080	0.237900	0.617900
H2811	H281	0.747600	0.207400	0.617200
C3401	C340	0.162370	0.561900	0.484180
H2821	H282	0.167800	0.621100	0.485000
C3411	C341	0.776100	0.254300	0.929300
H2831	H283	0.773800	0.196600	0.938900
C3421	C342	0.108730	0.883900	0.686930
H2841	H284	0.126900	0.855300	0.690300
C3431	C343	0.180390	0.131400	0.306060
H2851	H285	0.167200	0.178800	0.301200
C3441	C344	0.798570	0.308900	0.595320
H2861	H286	0.808600	0.336700	0.575200
C3451	C345	0.152930	0.437600	0.687000
H2871	H287	0.165800	0.426500	0.719400
C3461	C346	0.066380	0.639100	0.592090
H2881	H288	0.054700	0.591000	0.577000
C3471	C347	0.763850	0.241000	0.728350
H2891	H289	0.745000	0.253600	0.705600
C3481	C348	0.185530	0.236400	0.403820
H2901	H290	0.201500	0.224600	0.391400
C3491	C349	0.823960	0.146100	0.895480
C3501	C350	0.983130	0.143100	0.911680
H2911	H291	0.968900	0.172500	0.923100
C3511	C351	0.103810	0.728100	0.617800
H2921	H292	0.122800	0.753500	0.624100
C3521	C352	0.041560	0.024400	0.822350
H2931	H293	0.038900	0.973600	0.839400
C3531	C353	0.116200	0.431100	0.616400
H2941	H294	0.098800	0.412600	0.591800
C3541	C354	0.143520	0.440300	0.500870
H2951	H295	0.133600	0.398700	0.514600
C3551	C355	0.769990	0.408400	0.940530
C3561	C356	0.789130	0.270700	0.891300
C3571	C357	0.159740	0.338000	0.443910
C3581	C358	0.763470	0.565100	0.960550
H2961	H296	0.772700	0.589300	0.938200
C3591	C359	0.137800	0.273900	0.440380
H2971	H297	0.121600	0.286100	0.452300
C3601	C360	0.126880	0.872300	0.432180
C3611	C361	0.091530	0.172800	0.662660
H2981	H298	0.083400	0.127100	0.640200
C3621	C362	0.104620	0.234600	0.746010
H2991	H299	0.105600	0.230100	0.779900
C3631	C363	0.852640	0.012800	0.900260
H3001	H300	0.854500	0.956100	0.888900
C3641	C364	0.766560	0.323800	0.952800
H3011	H301	0.757500	0.311900	0.977700
C3651	C365	0.054520	0.888100	0.654060
H3021	H302	0.036500	0.862900	0.634800
C3661	C366	0.783000	0.425800	0.903690
H3031	H303	0.785500	0.483800	0.894800
C3671	C367	0.153170	0.013800	0.397870
C3681	C368	0.155550	0.502300	0.655000
H3041	H304	0.171000	0.543800	0.662200
C3691	C369	0.115520	0.309100	0.729040
H3051	H305	0.123300	0.355000	0.751400
C3701	C370	0.809000	0.305100	0.647470
H3061	H306	0.826800	0.328700	0.668800
C3711	C371	0.054570	0.968100	0.677810
H3071	H307	0.036400	0.996100	0.675300
C3721	C372	0.216170	0.048500	0.279860
C3731	C373	0.826340	0.060800	0.879610
H3081	H308	0.810300	0.035300	0.855000
C3741	C374	0.767000	0.225700	0.779310
H3091	H309	0.750200	0.227800	0.790700
C3751	C375	0.164110	0.172700	0.401240
C3761	C376	0.183370	0.318900	0.425030
H3101	H310	0.198000	0.361500	0.426500
C3771	C377	0.120790	0.886500	0.381000
H3111	H311	0.107900	0.848700	0.357900
C3781	C378	0.741200	0.551500	0.016990
H3121	H312	0.732000	0.564900	0.041500
C3791	C379	0.159640	0.999200	0.449420
H3131	H313	0.172800	0.036600	0.472400
C3801	C380	0.792540	0.356700	0.879460
H3141	H314	0.801500	0.369300	0.854500
C3811	C381	0.201140	0.001000	0.351030
H3151	H315	0.202300	0.960500	0.376800
C3821	C382	0.819910	0.199300	0.794670
H3161	H316	0.838700	0.184100	0.816600
C3831	C383	0.217910	0.988100	0.318260
H3171	H317	0.230300	0.938900	0.321900
C3841	C384	0.182640	0.073700	0.345760
C3851	C385	0.789030	0.237300	0.712020
C3861	C386	0.272000	0.994000	0.219820
H3181	H318	0.289900	0.966700	0.220100
C3871	C387	0.081640	0.845400	0.659140
C3881	C388	0.133860	0.957200	0.363900
H3191	H319	0.129600	0.966800	0.329300
C3891	C389	0.169990	0.499700	0.455140
H3201	H320	0.181000	0.507900	0.432500
C3901	C390	0.197400	0.120000	0.273560
H3211	H321	0.196100	0.160300	0.247700
C3911	C391	0.816510	0.213900	0.744440
H3221	H322	0.832900	0.207800	0.732300
C3921	C392	0.846690	0.180900	0.934590
H3231	H323	0.844700	0.237200	0.946500
C3931	C393	0.795330	0.207300	0.813220
C3941	C394	0.108430	0.965400	0.709570
H3241	H324	0.126500	0.992000	0.727700
N1021	N102	0.787380	0.258900	0.661000
N1031	N103	0.165820	0.088200	0.380150
C3951	C395	0.114910	0.315900	0.678560
C3961	C396	0.062440	0.095400	0.762660
C3971	C397	0.031680	0.176400	0.802960
H3251	H325	0.022600	0.229000	0.807500
C3981	C398	0.081410	0.006900	0.705240
C3991	C399	0.028630	0.102000	0.830030
C4001	C400	0.938850	0.901500	0.971370
H3261	H326	0.948500	0.846900	0.975900
C4011	C401	0.048280	0.172700	0.769000
H3271	H327	0.049900	0.222500	0.750400
C4021	C402	0.017190	0.050200	0.906280
H3281	H328	0.030900	0.003900	0.913100
N1041	N104	0.113140	0.800700	0.449990
N1051	N105	0.904050	0.004600	0.955500
C4031	C403	0.931800	0.042400	0.967900
H3291	H329	0.935200	0.103000	0.969500
C4041	C404	0.908410	0.913900	0.957850
H3301	H330	0.893600	0.870500	0.951500
C4051	C405	0.875700	0.050200	0.937570
C4061	C406	0.592280	0.666200	0.713060
O161	O16	0.504230	0.376220	0.966040
H3311	H331	0.508300	0.384700	0.939700
Ni61	Ni6	0.620800	0.090020	0.553430
N1061	N106	0.580620	0.589900	0.730080
N1071	N107	0.658090	0.921800	0.466130
N1081	N108	0.298310	0.697000	0.866720
N1091	N109	0.259870	0.977600	0.965970
N1101	N110	0.512920	0.606300	0.866850
N1111	N111	0.581510	0.261800	0.634510
N1121	N112	0.608620	0.186400	0.497650
N1131	N113	0.627360	0.891600	0.661670
N1141	N114	0.453230	0.482400	0.977300
O171	O17	0.582680	0.015830	0.513280
H3321	H332	0.587400	0.963900	0.512600
O181	O18	0.293530	0.734900	0.492030
H3331	H333	0.292100	0.728500	0.462000
C4071	C407	0.639800	0.692300	0.419280
H3341	H334	0.624900	0.650200	0.417100
C4081	C408	0.491110	0.666200	0.869960
H3351	H335	0.483400	0.712900	0.848000
N1151	N115	0.271470	0.766600	0.576990
C4091	C409	0.646450	0.428500	0.466920
H3361	H336	0.650700	0.418800	0.501500
C4101	C410	0.602910	0.747900	0.645570
H3371	H337	0.602400	0.752000	0.611800
N1161	N116	0.499130	0.569800	0.934490
N1171	N117	0.645510	0.025500	0.512430
N1181	N118	0.632430	0.998200	0.610680
N1191	N119	0.252290	0.112500	0.991010
N1201	N120	0.595290	0.155000	0.591560
C4111	C411	0.372800	0.632200	0.956610
H3381	H338	0.388000	0.655000	0.983800
C4121	C412	0.582220	0.197800	0.458070
H3391	H339	0.565100	0.162900	0.452300
C4131	C413	0.585090	0.267300	0.429110
H3401	H340	0.570600	0.288200	0.400400
N1211	N121	0.735200	0.535700	0.246500
N1221	N122	0.752980	0.544100	0.182200
C4141	C414	0.728800	0.573300	0.199160
H3411	H341	0.712600	0.609100	0.182400
C4151	C415	0.626600	0.249600	0.491710
H3421	H342	0.646000	0.258600	0.513100
C4161	C416	0.557450	0.204100	0.618100
H3431	H343	0.538800	0.209000	0.623700
C4171	C417	0.758710	0.494400	0.255270
H3441	H344	0.766800	0.464500	0.285700
C4181	C418	0.558680	0.521200	0.789210
H3451	H345	0.567700	0.468400	0.784800
C4191	C419	0.245560	0.967500	0.001770
H3461	H346	0.239900	0.914800	0.013500
C4201	C420	0.265080	0.737900	0.617900
H3471	H347	0.247600	0.707400	0.617200
C4211	C421	0.662370	0.061900	0.484180
H3481	H348	0.667800	0.121100	0.485000
C4221	C422	0.276100	0.754300	0.929300
H3491	H349	0.273800	0.696600	0.938900
C4231	C423	0.608730	0.383900	0.686930
H3501	H350	0.626900	0.355300	0.690300
C4241	C424	0.680390	0.631400	0.306060
H3511	H351	0.667200	0.678800	0.301200
C4251	C425	0.298570	0.808900	0.595320
H3521	H352	0.308600	0.836700	0.575200
C4261	C426	0.652930	0.937600	0.687000
H3531	H353	0.665800	0.926500	0.719400
C4271	C427	0.566380	0.139100	0.592090
H3541	H354	0.554700	0.091000	0.577000
C4281	C428	0.263850	0.741000	0.728350
H3551	H355	0.245000	0.753600	0.705600
C4291	C429	0.685530	0.736400	0.403820
H3561	H356	0.701500	0.724600	0.391400
C4301	C430	0.323960	0.646100	0.895480
C4311	C431	0.483130	0.643100	0.911680
H3571	H357	0.468900	0.672500	0.923100
C4321	C432	0.603810	0.228100	0.617800
H3581	H358	0.622800	0.253500	0.624100
C4331	C433	0.541560	0.524400	0.822350
H3591	H359	0.538900	0.473600	0.839400
C4341	C434	0.616200	0.931100	0.616400
H3601	H360	0.598800	0.912600	0.591800
C4351	C435	0.643520	0.940300	0.500870
H3611	H361	0.633600	0.898700	0.514600
C4361	C436	0.269990	0.908400	0.940530
C4371	C437	0.289130	0.770700	0.891300
C4381	C438	0.659740	0.838000	0.443910
C4391	C439	0.263470	0.065100	0.960550
H3621	H362	0.272700	0.089300	0.938200
C4401	C440	0.637800	0.773900	0.440380
H3631	H363	0.621600	0.786100	0.452300
C4411	C441	0.626880	0.372300	0.432180
C4421	C442	0.591530	0.672800	0.662660
H3641	H364	0.583400	0.627100	0.640200
C4431	C443	0.604620	0.734600	0.746010
H3651	H365	0.605600	0.730100	0.779900
C4441	C444	0.352640	0.512800	0.900260
H3661	H366	0.354500	0.456100	0.888900
C4451	C445	0.266560	0.823800	0.952800
H3671	H367	0.257500	0.811900	0.977700
C4461	C446	0.554520	0.388100	0.654060
H3681	H368	0.536500	0.362900	0.634800
C4471	C447	0.283000	0.925800	0.903690
H3691	H369	0.285500	0.983800	0.894800
C4481	C448	0.653170	0.513800	0.397870
C4491	C449	0.655550	0.002300	0.655000
H3701	H370	0.671000	0.043800	0.662200
C4501	C450	0.615520	0.809100	0.729040
H3711	H371	0.623300	0.855000	0.751400
C4511	C451	0.309000	0.805100	0.647470
H3721	H372	0.326800	0.828700	0.668800
C4521	C452	0.554570	0.468100	0.677810
H3731	H373	0.536400	0.496100	0.675300
C4531	C453	0.716170	0.548500	0.279860
C4541	C454	0.326340	0.560800	0.879610
H3741	H374	0.310300	0.535300	0.855000
C4551	C455	0.267000	0.725700	0.779310
H3751	H375	0.250200	0.727800	0.790700
C4561	C456	0.664110	0.672700	0.401240
C4571	C457	0.683370	0.818900	0.425030
H3761	H376	0.698000	0.861500	0.426500
C4581	C458	0.620790	0.386500	0.381000
H3771	H377	0.607900	0.348700	0.357900
C4591	C459	0.241200	0.051500	0.016990
H3781	H378	0.232000	0.064900	0.041500
C4601	C460	0.659640	0.499200	0.449420
H3791	H379	0.672800	0.536600	0.472400
C4611	C461	0.292540	0.856700	0.879460
H3801	H380	0.301500	0.869300	0.854500
C4621	C462	0.701140	0.501000	0.351030
H3811	H381	0.702300	0.460500	0.376800
C4631	C463	0.319910	0.699300	0.794670
H3821	H382	0.338700	0.684100	0.816600
C4641	C464	0.717910	0.488100	0.318260
H3831	H383	0.730300	0.438900	0.321900
C4651	C465	0.682640	0.573700	0.345760
C4661	C466	0.289030	0.737300	0.712020
C4671	C467	0.772000	0.494000	0.219820
H3841	H384	0.789900	0.466700	0.220100
C4681	C468	0.581640	0.345400	0.659140
C4691	C469	0.633860	0.457200	0.363900
H3851	H385	0.629600	0.466800	0.329300
C4701	C470	0.669990	0.999700	0.455140
H3861	H386	0.681000	0.007900	0.432500
C4711	C471	0.697400	0.620000	0.273560
H3871	H387	0.696100	0.660300	0.247700
C4721	C472	0.316510	0.713900	0.744440
H3881	H388	0.332900	0.707800	0.732300
C4731	C473	0.346690	0.680900	0.934590
H3891	H389	0.344700	0.737200	0.946500
C4741	C474	0.295330	0.707300	0.813220
C4751	C475	0.608430	0.465400	0.709570
H3901	H390	0.626500	0.492000	0.727700
N1231	N123	0.287380	0.758900	0.661000
N1241	N124	0.665820	0.588200	0.380150
C4761	C476	0.614910	0.815900	0.678560
C4771	C477	0.562440	0.595400	0.762660
C4781	C478	0.531680	0.676400	0.802960
H3911	H391	0.522600	0.729000	0.807500
C4791	C479	0.581410	0.506900	0.705240
C4801	C480	0.528630	0.602000	0.830030
C4811	C481	0.438850	0.401500	0.971370
H3921	H392	0.448500	0.346900	0.975900
C4821	C482	0.548280	0.672700	0.769000
H3931	H393	0.549900	0.722500	0.750400
C4831	C483	0.517190	0.550200	0.906280
H3941	H394	0.530900	0.503900	0.913100
N1251	N125	0.613140	0.300700	0.449990
N1261	N126	0.404050	0.504600	0.955500
C4841	C484	0.431800	0.542400	0.967900
H3951	H395	0.435200	0.603000	0.969500
C4851	C485	0.408410	0.413900	0.957850
H3961	H396	0.393600	0.370500	0.951500
C4861	C486	0.375700	0.550200	0.937570
C4871	C487	0.907720	0.166200	0.786940
O191	O19	0.995770	0.876220	0.533960
H3971	H397	0.991700	0.884700	0.560300
Ni71	Ni7	0.879200	0.590020	0.946570
N1271	N127	0.919380	0.089900	0.769920
N1281	N128	0.841910	0.421800	0.033870
N1291	N129	0.201690	0.197000	0.633280
N1301	N130	0.240130	0.477600	0.534030
N1311	N131	0.987080	0.106300	0.633150
N1321	N132	0.918490	0.761800	0.865490
N1331	N133	0.891380	0.686400	0.002350
N1341	N134	0.872640	0.391600	0.838330
N1351	N135	0.046770	0.982400	0.522700
O201	O20	0.917320	0.515830	0.986720
H3981	H398	0.912600	0.463900	0.987400
O211	O21	0.206470	0.234900	0.007970
H3991	H399	0.207900	0.228500	0.038000
C4881	C488	0.860200	0.192300	0.080720
H4001	H400	0.875100	0.150200	0.082900
C4891	C489	0.008890	0.166200	0.630040
H4011	H401	0.016600	0.212900	0.652000
N1361	N136	0.228530	0.266600	0.923010
C4901	C490	0.853550	0.928500	0.033080
H4021	H402	0.849300	0.918800	0.998500
C4911	C491	0.897090	0.247900	0.854430
H4031	H403	0.897600	0.252000	0.888200
N1371	N137	0.000870	0.069800	0.565510
N1381	N138	0.854490	0.525500	0.987570
N1391	N139	0.867570	0.498200	0.889320
N1401	N140	0.247710	0.612500	0.508990
N1411	N141	0.904710	0.655000	0.908440
C4921	C492	0.127200	0.132200	0.543390
H4041	H404	0.112000	0.155000	0.516200
C4931	C493	0.917780	0.697800	0.041930
H4051	H405	0.934900	0.662900	0.047700
C4941	C494	0.914910	0.767300	0.070890
H4061	H406	0.929400	0.788200	0.099600
N1421	N142	0.764800	0.035700	0.253500
N1431	N143	0.747020	0.044100	0.317800
C4951	C495	0.771200	0.073300	0.300840
H4071	H407	0.787400	0.109100	0.317600
C4961	C496	0.873400	0.749600	0.008290
H4081	H408	0.854000	0.758600	0.986900
C4971	C497	0.942550	0.704100	0.881900
H4091	H409	0.961200	0.709000	0.876300
C4981	C498	0.741290	0.994400	0.244730
H4101	H410	0.733200	0.964500	0.214300
C4991	C499	0.941320	0.021200	0.710790
H4111	H411	0.932300	0.968400	0.715200
C5001	C500	0.254440	0.467500	0.498230
H4121	H412	0.260100	0.414800	0.486500
C5011	C501	0.234920	0.237900	0.882100
H4131	H413	0.252400	0.207400	0.882800
C5021	C502	0.837630	0.561900	0.015820
H4141	H414	0.832200	0.621100	0.015000
C5031	C503	0.223900	0.254300	0.570700
H4151	H415	0.226200	0.196600	0.561100
C5041	C504	0.891270	0.883900	0.813070
H4161	H416	0.873100	0.855300	0.809700
C5051	C505	0.819610	0.131400	0.193940
H4171	H417	0.832800	0.178800	0.198800
C5061	C506	0.201430	0.308900	0.904680
H4181	H418	0.191400	0.336700	0.924800
C5071	C507	0.847070	0.437600	0.813000
H4191	H419	0.834200	0.426500	0.780600
C5081	C508	0.933620	0.639100	0.907910
H4201	H420	0.945300	0.591000	0.923000
C5091	C509	0.236150	0.241000	0.771650
H4211	H421	0.255000	0.253600	0.794400
C5101	C510	0.814470	0.236400	0.096180
H4221	H422	0.798500	0.224600	0.108600
C5111	C511	0.176040	0.146100	0.604520
C5121	C512	0.016870	0.143100	0.588320
H4231	H423	0.031100	0.172500	0.576900
C5131	C513	0.896190	0.728100	0.882200
H4241	H424	0.877200	0.753500	0.875900
C5141	C514	0.958440	0.024400	0.677650
H4251	H425	0.961100	0.973600	0.660600
C5151	C515	0.883800	0.431100	0.883600
H4261	H426	0.901200	0.412600	0.908200
C5161	C516	0.856480	0.440300	0.999130
H4271	H427	0.866400	0.398700	0.985400
C5171	C517	0.230010	0.408400	0.559470
C5181	C518	0.210870	0.270700	0.608700
C5191	C519	0.840260	0.338000	0.056090
C5201	C520	0.236530	0.565100	0.539450
H4281	H428	0.227300	0.589300	0.561800
C5211	C521	0.862200	0.273900	0.059620
H4291	H429	0.878400	0.286100	0.047700
C5221	C522	0.873120	0.872300	0.067820
C5231	C523	0.908470	0.172800	0.837340
H4301	H430	0.916600	0.127100	0.859800
C5241	C524	0.895380	0.234600	0.753990
H4311	H431	0.894400	0.230100	0.720100
C5251	C525	0.147360	0.012800	0.599740
H4321	H432	0.145500	0.956100	0.611100
C5261	C526	0.233440	0.323800	0.547200
H4331	H433	0.242500	0.311900	0.522300
C5271	C527	0.945480	0.888100	0.845940
H4341	H434	0.963500	0.862900	0.865200
C5281	C528	0.217000	0.425800	0.596310
H4351	H435	0.214500	0.483800	0.605200
C5291	C529	0.846830	0.013800	0.102130
C5301	C530	0.844450	0.502300	0.845000
H4361	H436	0.829000	0.543800	0.837800
C5311	C531	0.884480	0.309100	0.770960
H4371	H437	0.876700	0.355000	0.748600
C5321	C532	0.191000	0.305100	0.852530
H4381	H438	0.173200	0.328700	0.831200
C5331	C533	0.945430	0.968100	0.822190
H4391	H439	0.963600	0.996100	0.824700
C5341	C534	0.783830	0.048500	0.220140
C5351	C535	0.173660	0.060800	0.620390
H4401	H440	0.189700	0.035300	0.645000
C5361	C536	0.233000	0.225700	0.720690
H4411	H441	0.249800	0.227800	0.709300
C5371	C537	0.835890	0.172700	0.098760
C5381	C538	0.816630	0.318900	0.074970
H4421	H442	0.802000	0.361500	0.073500
C5391	C539	0.879210	0.886500	0.119000
H4431	H443	0.892100	0.848700	0.142100
C5401	C540	0.258800	0.551500	0.483010
H4441	H444	0.268000	0.564900	0.458500
C5411	C541	0.840360	0.999200	0.050580
H4451	H445	0.827200	0.036600	0.027600
C5421	C542	0.207460	0.356700	0.620540
H4461	H446	0.198500	0.369300	0.645500
C5431	C543	0.798860	0.001000	0.148970
H4471	H447	0.797700	0.960500	0.123200
C5441	C544	0.180090	0.199300	0.705330
H4481	H448	0.161300	0.184100	0.683400
C5451	C545	0.782090	0.988100	0.181740
H4491	H449	0.769700	0.938900	0.178100
C5461	C546	0.817360	0.073700	0.154240
C5471	C547	0.210970	0.237300	0.787980
C5481	C548	0.728000	0.994000	0.280180
H4501	H450	0.710100	0.966700	0.279900
C5491	C549	0.918360	0.845400	0.840860
C5501	C550	0.866140	0.957200	0.136100
H4511	H451	0.870400	0.966800	0.170700
C5511	C551	0.830010	0.499700	0.044860
H4521	H452	0.819000	0.507900	0.067500
C5521	C552	0.802600	0.120000	0.226440
H4531	H453	0.803900	0.160300	0.252300
C5531	C553	0.183490	0.213900	0.755560
H4541	H454	0.167100	0.207800	0.767700
C5541	C554	0.153310	0.180900	0.565410
H4551	H455	0.155300	0.237200	0.553500
C5551	C555	0.204670	0.207300	0.686780
C5561	C556	0.891570	0.965400	0.790430
H4561	H456	0.873500	0.992000	0.772300
N1441	N144	0.212620	0.258900	0.839000
N1451	N145	0.834180	0.088200	0.119850
C5571	C557	0.885090	0.315900	0.821440
C5581	C558	0.937560	0.095400	0.737340
C5591	C559	0.968320	0.176400	0.697040
H4571	H457	0.977400	0.229000	0.692500
C5601	C560	0.918590	0.006900	0.794760
C5611	C561	0.971370	0.102000	0.669970
C5621	C562	0.061150	0.901500	0.528630
H4581	H458	0.051500	0.846900	0.524100
C5631	C563	0.951720	0.172700	0.731000
H4591	H459	0.950100	0.222500	0.749600
C5641	C564	0.982810	0.050200	0.593720
H4601	H460	0.969100	0.003900	0.586900
N1461	N146	0.886860	0.800700	0.050010
N1471	N147	0.095950	0.004600	0.544500
C5651	C565	0.068200	0.042400	0.532100
H4611	H461	0.064800	0.103000	0.530500
C5661	C566	0.091590	0.913900	0.542150
H4621	H462	0.106400	0.870500	0.548500
C5671	C567	0.124300	0.050200	0.562430
C5681	C568	0.407720	0.666200	0.786940
O221	O22	0.495770	0.376220	0.533960
H4631	H463	0.491700	0.384700	0.560300
Ni81	Ni8	0.379200	0.090020	0.946570
N1481	N148	0.419380	0.589900	0.769920
N1491	N149	0.341910	0.921800	0.033870
N1501	N150	0.701690	0.697000	0.633280
N1511	N151	0.740130	0.977600	0.534030
N1521	N152	0.487080	0.606300	0.633150
N1531	N153	0.418490	0.261800	0.865490
N1541	N154	0.391380	0.186400	0.002350
N1551	N155	0.372640	0.891600	0.838330
N1561	N156	0.546770	0.482400	0.522700
O231	O23	0.417320	0.015830	0.986720
H4641	H464	0.412600	0.963900	0.987400
O241	O24	0.706470	0.734900	0.007970
H4651	H465	0.707900	0.728500	0.038000
C5691	C569	0.360200	0.692300	0.080720
H4661	H466	0.375100	0.650200	0.082900
C5701	C570	0.508890	0.666200	0.630040
H4671	H467	0.516600	0.712900	0.652000
N1571	N157	0.728530	0.766600	0.923010
C5711	C571	0.353550	0.428500	0.033080
H4681	H468	0.349300	0.418800	0.998500
C5721	C572	0.397090	0.747900	0.854430
H4691	H469	0.397600	0.752000	0.888200
N1581	N158	0.500870	0.569800	0.565510
N1591	N159	0.354490	0.025500	0.987570
N1601	N160	0.367570	0.998200	0.889320
N1611	N161	0.747710	0.112500	0.508990
N1621	N162	0.404710	0.155000	0.908440
C5731	C573	0.627200	0.632200	0.543390
H4701	H470	0.612000	0.655000	0.516200
C5741	C574	0.417780	0.197800	0.041930
H4711	H471	0.434900	0.162900	0.047700
C5751	C575	0.414910	0.267300	0.070890
H4721	H472	0.429400	0.288200	0.099600
N1631	N163	0.264800	0.535700	0.253500
N1641	N164	0.247020	0.544100	0.317800
C5761	C576	0.271200	0.573300	0.300840
H4731	H473	0.287400	0.609100	0.317600
C5771	C577	0.373400	0.249600	0.008290
H4741	H474	0.354000	0.258600	0.986900
C5781	C578	0.442550	0.204100	0.881900
H4751	H475	0.461200	0.209000	0.876300
C5791	C579	0.241290	0.494400	0.244730
H4761	H476	0.233200	0.464500	0.214300
C5801	C580	0.441320	0.521200	0.710790
H4771	H477	0.432300	0.468400	0.715200
C5811	C581	0.754440	0.967500	0.498230
H4781	H478	0.760100	0.914800	0.486500
C5821	C582	0.734920	0.737900	0.882100
H4791	H479	0.752400	0.707400	0.882800
C5831	C583	0.337630	0.061900	0.015820
H4801	H480	0.332200	0.121100	0.015000
C5841	C584	0.723900	0.754300	0.570700
H4811	H481	0.726200	0.696600	0.561100
C5851	C585	0.391270	0.383900	0.813070
H4821	H482	0.373100	0.355300	0.809700
C5861	C586	0.319610	0.631400	0.193940
H4831	H483	0.332800	0.678800	0.198800
C5871	C587	0.701430	0.808900	0.904680
H4841	H484	0.691400	0.836700	0.924800
C5881	C588	0.347070	0.937600	0.813000
H4851	H485	0.334200	0.926500	0.780600
C5891	C589	0.433620	0.139100	0.907910
H4861	H486	0.445300	0.091000	0.923000
C5901	C590	0.736150	0.741000	0.771650
H4871	H487	0.755000	0.753600	0.794400
C5911	C591	0.314470	0.736400	0.096180
H4881	H488	0.298500	0.724600	0.108600
C5921	C592	0.676040	0.646100	0.604520
C5931	C593	0.516870	0.643100	0.588320
H4891	H489	0.531100	0.672500	0.576900
C5941	C594	0.396190	0.228100	0.882200
H4901	H490	0.377200	0.253500	0.875900
C5951	C595	0.458440	0.524400	0.677650
H4911	H491	0.461100	0.473600	0.660600
C5961	C596	0.383800	0.931100	0.883600
H4921	H492	0.401200	0.912600	0.908200
C5971	C597	0.356480	0.940300	0.999130
H4931	H493	0.366400	0.898700	0.985400
C5981	C598	0.730010	0.908400	0.559470
C5991	C599	0.710870	0.770700	0.608700
C6001	C600	0.340260	0.838000	0.056090
C6011	C601	0.736530	0.065100	0.539450
H4941	H494	0.727300	0.089300	0.561800
C6021	C602	0.362200	0.773900	0.059620
H4951	H495	0.378400	0.786100	0.047700
C6031	C603	0.373120	0.372300	0.067820
C6041	C604	0.408470	0.672800	0.837340
H4961	H496	0.416600	0.627100	0.859800
C6051	C605	0.395380	0.734600	0.753990
H4971	H497	0.394400	0.730100	0.720100
C6061	C606	0.647360	0.512800	0.599740
H4981	H498	0.645500	0.456100	0.611100
C6071	C607	0.733440	0.823800	0.547200
H4991	H499	0.742500	0.811900	0.522300
C6081	C608	0.445480	0.388100	0.845940
H5001	H500	0.463500	0.362900	0.865200
C6091	C609	0.717000	0.925800	0.596310
H5011	H501	0.714500	0.983800	0.605200
C6101	C610	0.346830	0.513800	0.102130
C6111	C611	0.344450	0.002300	0.845000
H5021	H502	0.329000	0.043800	0.837800
C6121	C612	0.384480	0.809100	0.770960
H5031	H503	0.376700	0.855000	0.748600
C6131	C613	0.691000	0.805100	0.852530
H5041	H504	0.673200	0.828700	0.831200
C6141	C614	0.445430	0.468100	0.822190
H5051	H505	0.463600	0.496100	0.824700
C6151	C615	0.283830	0.548500	0.220140
C6161	C616	0.673660	0.560800	0.620390
H5061	H506	0.689700	0.535300	0.645000
C6171	C617	0.733000	0.725700	0.720690
H5071	H507	0.749800	0.727800	0.709300
C6181	C618	0.335890	0.672700	0.098760
C6191	C619	0.316630	0.818900	0.074970
H5081	H508	0.302000	0.861500	0.073500
C6201	C620	0.379210	0.386500	0.119000
H5091	H509	0.392100	0.348700	0.142100
C6211	C621	0.758800	0.051500	0.483010
H5101	H510	0.768000	0.064900	0.458500
C6221	C622	0.340360	0.499200	0.050580
H5111	H511	0.327200	0.536600	0.027600
C6231	C623	0.707460	0.856700	0.620540
H5121	H512	0.698500	0.869300	0.645500
C6241	C624	0.298860	0.501000	0.148970
H5131	H513	0.297700	0.460500	0.123200
C6251	C625	0.680090	0.699300	0.705330
H5141	H514	0.661300	0.684100	0.683400
C6261	C626	0.282090	0.488100	0.181740
H5151	H515	0.269700	0.438900	0.178100
C6271	C627	0.317360	0.573700	0.154240
C6281	C628	0.710970	0.737300	0.787980
C6291	C629	0.228000	0.494000	0.280180
H5161	H516	0.210100	0.466700	0.279900
C6301	C630	0.418360	0.345400	0.840860
C6311	C631	0.366140	0.457200	0.136100
H5171	H517	0.370400	0.466800	0.170700
C6321	C632	0.330010	0.999700	0.044860
H5181	H518	0.319000	0.007900	0.067500
C6331	C633	0.302600	0.620000	0.226440
H5191	H519	0.303900	0.660300	0.252300
C6341	C634	0.683490	0.713900	0.755560
H5201	H520	0.667100	0.707800	0.767700
C6351	C635	0.653310	0.680900	0.565410
H5211	H521	0.655300	0.737200	0.553500
C6361	C636	0.704670	0.707300	0.686780
C6371	C637	0.391570	0.465400	0.790430
H5221	H522	0.373500	0.492000	0.772300
N1651	N165	0.712620	0.758900	0.839000
N1661	N166	0.334180	0.588200	0.119850
C6381	C638	0.385090	0.815900	0.821440
C6391	C639	0.437560	0.595400	0.737340
C6401	C640	0.468320	0.676400	0.697040
H5231	H523	0.477400	0.729000	0.692500
C6411	C641	0.418590	0.506900	0.794760
C6421	C642	0.471370	0.602000	0.669970
C6431	C643	0.561150	0.401500	0.528630
H5241	H524	0.551500	0.346900	0.524100
C6441	C644	0.451720	0.672700	0.731000
H5251	H525	0.450100	0.722500	0.749600
C6451	C645	0.482810	0.550200	0.593720
H5261	H526	0.469100	0.503900	0.586900
N1671	N167	0.386860	0.300700	0.050010
N1681	N168	0.595950	0.504600	0.544500
C6461	C646	0.568200	0.542400	0.532100
H5271	H527	0.564800	0.603000	0.530500
C6471	C647	0.591590	0.413900	0.542150
H5281	H528	0.606400	0.370500	0.548500
C6481	C648	0.624300	0.550200	0.562430
Ni91	Ni9	0.000000	0.000000	0.000000
Ni101	Ni10	0.500000	0.500000	0.000000
Ni111	Ni11	0.000000	0.000000	0.500000
Ni121	Ni12	0.500000	0.500000	0.500000
Ni131	Ni13	0.250000	0.750000	0.500000
Ni141	Ni14	0.750000	0.750000	0.000000
Ni151	Ni15	0.750000	0.250000	0.500000
Ni161	Ni16	0.250000	0.250000	0.000000
