data_INAMUG_clean_PM
_symmetry_space_group_name_H-M	'P1'
_cell_length_a	11.166000
_cell_length_b	11.638000
_cell_length_c	20.950000
_cell_angle_alpha	96.250000
_cell_angle_beta	90.680000
_cell_angle_gamma	108.490000
_symmetry_Int_Tables_number 1

loop_
_symmetry_equiv_pos_as_xyz
'x,y,z'

loop_
_atom_site_label
_atom_site_type_symbol
_atom_site_fract_x
_atom_site_fract_y
_atom_site_fract_z
Co11	Co1	0.865520	0.520780	0.759370
Co21	Co2	0.134480	0.479220	0.240630
Co31	Co3	0.000000	0.000000	0.500000
Co41	Co4	0.500000	0.500000	0.000000
H11	H1	0.127200	0.674400	0.961600
H21	H2	0.903100	0.353500	0.565100
H31	H3	0.672600	0.131500	0.629600
H41	H4	0.793900	0.114100	0.544200
H51	H5	0.912100	0.877800	0.621400
H61	H6	0.249500	0.053900	0.810100
H71	H7	0.238600	0.183900	0.830000
H81	H8	0.243500	0.142800	0.696300
H91	H9	0.441800	0.263000	0.650300
H101	H10	0.109800	0.604500	0.846600
H111	H11	0.246000	0.866800	0.696700
H121	H12	0.044900	0.732900	0.690600
H131	H13	0.036100	0.019400	0.817700
H141	H14	0.055000	0.008600	0.743400
H151	H15	0.482500	0.890900	0.820400
H161	H16	0.429100	0.993300	0.803100
H171	H17	0.517000	0.846600	0.712500
H181	H18	0.462400	0.948200	0.694800
H191	H19	0.632100	0.099300	0.745200
H201	H20	0.681800	0.004100	0.775200
H211	H21	0.790800	0.886200	0.708100
H221	H22	0.801400	0.592200	0.196100
H231	H23	0.735800	0.592400	0.092800
H241	H24	0.393500	0.396600	0.125000
H251	H25	0.449700	0.389300	0.229100
H261	H26	0.765300	0.532600	0.307900
H271	H27	0.519900	0.458200	0.344000
H281	H28	0.547100	0.337900	0.317800
H291	H29	0.676500	0.499900	0.425400
H301	H30	0.715600	0.387200	0.397300
H311	H31	0.658700	0.238100	0.470100
H321	H32	0.514800	0.118800	0.531900
H331	H33	0.270300	0.279700	0.497700
H341	H34	0.407700	0.405400	0.435700
H351	H35	0.038200	0.177800	0.681400
H361	H36	0.908300	0.354800	0.860700
H371	H37	0.309800	0.741900	0.859700
H381	H38	0.975200	0.345800	0.678400
H391	H39	0.975800	0.190700	0.869400
H401	H40	0.646700	0.387100	0.659500
H411	H41	0.666800	0.357900	0.842300
H421	H42	0.461000	0.231800	0.838100
H431	H43	0.872800	0.325600	0.038400
H441	H44	0.096900	0.646500	0.434900
H451	H45	0.327400	0.868500	0.370400
H461	H46	0.206100	0.885900	0.455800
H471	H47	0.087900	0.122200	0.378600
H481	H48	0.750500	0.946100	0.189900
H491	H49	0.761400	0.816100	0.170000
H501	H50	0.756500	0.857200	0.303700
H511	H51	0.558200	0.737000	0.349700
H521	H52	0.890200	0.395500	0.153400
H531	H53	0.754000	0.133200	0.303300
H541	H54	0.955100	0.267100	0.309400
H551	H55	0.963900	0.980600	0.182300
H561	H56	0.945000	0.991400	0.256600
H571	H57	0.517500	0.109100	0.179600
H581	H58	0.570900	0.006700	0.196900
H591	H59	0.483000	0.153400	0.287500
H601	H60	0.537600	0.051800	0.305200
H611	H61	0.367900	0.900700	0.254800
H621	H62	0.318200	0.995900	0.224800
H631	H63	0.209200	0.113800	0.291900
H641	H64	0.198600	0.407800	0.803900
H651	H65	0.264200	0.407600	0.907200
H661	H66	0.606500	0.603400	0.875000
H671	H67	0.550300	0.610700	0.770900
H681	H68	0.234700	0.467400	0.692100
H691	H69	0.480100	0.541800	0.656000
H701	H70	0.452900	0.662100	0.682200
H711	H71	0.323500	0.500100	0.574600
H721	H72	0.284400	0.612800	0.602700
H731	H73	0.341300	0.761900	0.529900
H741	H74	0.485200	0.881200	0.468100
H751	H75	0.729700	0.720300	0.502300
H761	H76	0.592300	0.594600	0.564300
H771	H77	0.961800	0.822200	0.318600
H781	H78	0.091700	0.645200	0.139300
H791	H79	0.690200	0.258100	0.140300
H801	H80	0.024800	0.654200	0.321600
H811	H81	0.024200	0.809300	0.130600
H821	H82	0.353300	0.612900	0.340500
H831	H83	0.333200	0.642100	0.157700
H841	H84	0.539000	0.768200	0.161900
C11	C1	0.727420	0.415900	0.972860
C21	C2	0.869920	0.457230	0.983840
C31	C3	0.947190	0.561580	0.959730
C41	C4	0.898490	0.621100	0.908830
C51	C5	0.076150	0.603900	0.976850
C61	C6	0.884320	0.562100	0.616430
C71	C7	0.946010	0.532690	0.556220
C81	C8	0.029600	0.758270	0.535210
C91	C9	0.006020	0.622560	0.517150
C101	C10	0.941900	0.412340	0.538640
C111	C11	0.720700	0.079300	0.629140
C121	C12	0.794800	0.069000	0.578100
C131	C13	0.863800	0.930000	0.623180
C141	C14	0.219000	0.116600	0.795800
C151	C15	0.286400	0.160700	0.736270
C161	C16	0.424500	0.234290	0.743780
C171	C17	0.485200	0.281800	0.690250
C181	C18	0.136700	0.659200	0.816520
C191	C19	0.220000	0.815800	0.728520
C201	C20	0.099200	0.733600	0.724740
C211	C21	0.074100	0.064500	0.782780
C221	C22	0.303200	0.822500	0.779830
C231	C23	0.435300	0.913900	0.787580
C241	C24	0.509200	0.925500	0.727840
C251	C25	0.639500	0.018100	0.737490
C261	C26	0.718400	0.011430	0.679920
C271	C27	0.791000	0.934700	0.675620
C281	C28	0.717500	0.551200	0.182810
C291	C29	0.677400	0.551100	0.120560
C301	C30	0.477000	0.436200	0.139500
C311	C31	0.510100	0.431600	0.202460
C321	C32	0.633600	0.490230	0.226200
C331	C33	0.681700	0.491300	0.293970
C341	C34	0.585900	0.420800	0.338100
C351	C35	0.644500	0.417500	0.403420
C361	C36	0.551600	0.337800	0.445330
C371	C37	0.580400	0.249500	0.475070
C381	C38	0.492800	0.177700	0.512330
C391	C39	0.350000	0.271600	0.492600
C401	C40	0.432300	0.347500	0.454870
C411	C41	0.014600	0.213700	0.718900
C421	C42	0.936800	0.320100	0.824350
C431	C43	0.019100	0.165640	0.776840
C441	C44	0.258300	0.741300	0.824430
C451	C45	0.975200	0.314300	0.717350
C461	C46	0.977000	0.220700	0.829900
C471	C47	0.608800	0.356300	0.696050
C481	C48	0.620700	0.339200	0.803210
C491	C49	0.496100	0.263100	0.801150
C501	C50	0.272580	0.584100	0.027140
C511	C51	0.130080	0.542770	0.016160
C521	C52	0.052810	0.438420	0.040270
C531	C53	0.101510	0.378900	0.091170
C541	C54	0.923850	0.396100	0.023150
C551	C55	0.115680	0.437900	0.383570
C561	C56	0.053990	0.467310	0.443780
C571	C57	0.970400	0.241730	0.464790
C581	C58	0.993980	0.377440	0.482850
C591	C59	0.058100	0.587660	0.461360
C601	C60	0.279300	0.920700	0.370860
C611	C61	0.205200	0.931000	0.421900
C621	C62	0.136200	0.070000	0.376820
C631	C63	0.781000	0.883400	0.204200
C641	C64	0.713600	0.839300	0.263730
C651	C65	0.575500	0.765710	0.256220
C661	C66	0.514800	0.718200	0.309750
C671	C67	0.863300	0.340800	0.183480
C681	C68	0.780000	0.184200	0.271480
C691	C69	0.900800	0.266400	0.275260
C701	C70	0.925900	0.935500	0.217220
C711	C71	0.696800	0.177500	0.220170
C721	C72	0.564700	0.086100	0.212420
C731	C73	0.490800	0.074500	0.272160
C741	C74	0.360500	0.981900	0.262510
C751	C75	0.281600	0.988570	0.320080
C761	C76	0.209000	0.065300	0.324380
C771	C77	0.282500	0.448800	0.817190
C781	C78	0.322600	0.448900	0.879440
C791	C79	0.523000	0.563800	0.860500
C801	C80	0.489900	0.568400	0.797540
C811	C81	0.366400	0.509770	0.773800
C821	C82	0.318300	0.508700	0.706030
C831	C83	0.414100	0.579200	0.661900
C841	C84	0.355500	0.582500	0.596580
C851	C85	0.448400	0.662200	0.554670
C861	C86	0.419600	0.750500	0.524930
C871	C87	0.507200	0.822300	0.487670
C881	C88	0.650000	0.728400	0.507400
C891	C89	0.567700	0.652500	0.545130
C901	C90	0.985400	0.786300	0.281100
C911	C91	0.063200	0.679900	0.175650
C921	C92	0.980900	0.834360	0.223160
C931	C93	0.741700	0.258700	0.175570
C941	C94	0.024800	0.685700	0.282650
C951	C95	0.023000	0.779300	0.170100
C961	C96	0.391200	0.643700	0.303950
C971	C97	0.379300	0.660800	0.196790
C981	C98	0.503900	0.736900	0.198850
N11	N1	0.056040	0.654580	0.767840
N21	N2	0.868100	0.997130	0.574820
N31	N3	0.557800	0.494330	0.097850
N41	N4	0.378900	0.187800	0.521880
N51	N5	0.936730	0.369200	0.769420
N61	N6	0.677800	0.386830	0.752150
N71	N7	0.943960	0.345420	0.232160
N81	N8	0.131900	0.002870	0.425180
N91	N9	0.442200	0.505670	0.902150
N101	N10	0.621100	0.812200	0.478120
N111	N11	0.063270	0.630800	0.230580
N121	N12	0.322200	0.613170	0.247850
O11	O1	0.850310	0.552260	0.858580
O21	O2	0.914330	0.733050	0.918920
O31	O3	0.678930	0.499580	0.972750
O41	O4	0.668320	0.304560	0.966330
O51	O5	0.881180	0.494460	0.660510
O61	O6	0.841710	0.649150	0.619700
O71	O7	0.972280	0.809990	0.501510
O81	O8	0.111390	0.809970	0.579280
O91	O9	0.149690	0.447740	0.141420
O101	O10	0.085670	0.266950	0.081080
O111	O11	0.321070	0.500420	0.027250
O121	O12	0.331680	0.695440	0.033670
O131	O13	0.118820	0.505540	0.339490
O141	O14	0.158290	0.350850	0.380300
O151	O15	0.027720	0.190010	0.498490
O161	O16	0.888610	0.190030	0.420720
