data_INARUM_clean_PM
_symmetry_space_group_name_H-M	'P1'
_cell_length_a	11.360500
_cell_length_b	18.312000
_cell_length_c	12.446300
_cell_angle_alpha	90.000000
_cell_angle_beta	108.491000
_cell_angle_gamma	90.000000
_symmetry_Int_Tables_number 1

loop_
_symmetry_equiv_pos_as_xyz
'x,y,z'

loop_
_atom_site_label
_atom_site_type_symbol
_atom_site_fract_x
_atom_site_fract_y
_atom_site_fract_z
Zn11	Zn1	0.266290	0.478200	0.909060
Zn21	Zn2	0.082760	0.327570	0.440640
O11	O1	0.368300	0.476840	0.810300
O21	O2	0.454000	0.373400	0.893100
O31	O3	0.641100	0.487030	0.939900
O41	O4	0.816400	0.472290	0.897200
O51	O5	0.775200	0.459600	0.497300
O61	O6	0.619700	0.407000	0.382500
O71	O7	0.250400	0.364660	0.485600
O81	O8	0.273600	0.338300	0.664800
N11	N1	0.870500	0.453790	0.173700
N21	N2	0.975300	0.445760	0.142600
N31	N3	0.000300	0.383530	0.301100
N41	N4	0.065400	0.398280	0.952300
N51	N5	0.172600	0.389380	0.924800
N61	N6	0.092100	0.280580	0.927700
N71	N7	0.674000	0.430900	0.474600
C11	C1	0.889300	0.416500	0.267800
H11	H1	0.832000	0.413300	0.306900
C21	C2	0.050300	0.403900	0.220600
H21	H2	0.128900	0.389900	0.220400
C31	C3	0.020700	0.332500	0.953200
H31	H3	0.947900	0.322600	0.969600
C41	C4	0.185600	0.318900	0.910600
H41	H4	0.250900	0.298300	0.891300
C51	C5	0.312200	0.363700	0.591500
C61	C6	0.441100	0.395100	0.622000
C71	C7	0.497500	0.399400	0.537300
H51	H5	0.455300	0.384400	0.463700
C81	C8	0.616600	0.426100	0.564600
C91	C9	0.683300	0.447800	0.671800
H61	H6	0.764400	0.464400	0.688200
C101	C10	0.625800	0.444200	0.756400
C111	C11	0.504000	0.419600	0.731400
C121	C12	0.437200	0.421800	0.820000
C131	C13	0.702300	0.470100	0.874500
Zn31	Zn3	0.733710	0.978200	0.590940
Zn41	Zn4	0.917240	0.827570	0.059360
O91	O9	0.631700	0.976840	0.689700
O101	O10	0.546000	0.873400	0.606900
O111	O11	0.358900	0.987030	0.560100
O121	O12	0.183600	0.972290	0.602800
O131	O13	0.224800	0.959600	0.002700
O141	O14	0.380300	0.907000	0.117500
O151	O15	0.749600	0.864660	0.014400
O161	O16	0.726400	0.838300	0.835200
N81	N8	0.129500	0.953790	0.326300
N91	N9	0.024700	0.945760	0.357400
N101	N10	0.999700	0.883530	0.198900
N111	N11	0.934600	0.898280	0.547700
N121	N12	0.827400	0.889380	0.575200
N131	N13	0.907900	0.780580	0.572300
N141	N14	0.326000	0.930900	0.025400
C141	C14	0.110700	0.916500	0.232200
H71	H7	0.168000	0.913300	0.193100
C151	C15	0.949700	0.903900	0.279400
H81	H8	0.871100	0.889900	0.279600
C161	C16	0.979300	0.832500	0.546800
H91	H9	0.052100	0.822600	0.530400
C171	C17	0.814400	0.818900	0.589400
H101	H10	0.749100	0.798300	0.608700
C181	C18	0.687800	0.863700	0.908500
C191	C19	0.558900	0.895100	0.878000
C201	C20	0.502500	0.899400	0.962700
H111	H11	0.544700	0.884400	0.036300
C211	C21	0.383400	0.926100	0.935400
C221	C22	0.316700	0.947800	0.828200
H121	H12	0.235600	0.964400	0.811800
C231	C23	0.374200	0.944200	0.743600
C241	C24	0.496000	0.919600	0.768600
C251	C25	0.562800	0.921800	0.680000
C261	C26	0.297700	0.970100	0.625500
Zn51	Zn5	0.733710	0.521800	0.090940
Zn61	Zn6	0.917240	0.672430	0.559360
O171	O17	0.631700	0.523160	0.189700
O181	O18	0.546000	0.626600	0.106900
O191	O19	0.358900	0.512970	0.060100
O201	O20	0.183600	0.527710	0.102800
O211	O21	0.224800	0.540400	0.502700
O221	O22	0.380300	0.593000	0.617500
O231	O23	0.749600	0.635340	0.514400
O241	O24	0.726400	0.661700	0.335200
N151	N15	0.129500	0.546210	0.826300
N161	N16	0.024700	0.554240	0.857400
N171	N17	0.999700	0.616470	0.698900
N181	N18	0.934600	0.601720	0.047700
N191	N19	0.827400	0.610620	0.075200
N201	N20	0.907900	0.719420	0.072300
N211	N21	0.326000	0.569100	0.525400
C271	C27	0.110700	0.583500	0.732200
H131	H13	0.168000	0.586700	0.693100
C281	C28	0.949700	0.596100	0.779400
H141	H14	0.871100	0.610100	0.779600
C291	C29	0.979300	0.667500	0.046800
H151	H15	0.052100	0.677400	0.030400
C301	C30	0.814400	0.681100	0.089400
H161	H16	0.749100	0.701700	0.108700
C311	C31	0.687800	0.636300	0.408500
C321	C32	0.558900	0.604900	0.378000
C331	C33	0.502500	0.600600	0.462700
H171	H17	0.544700	0.615600	0.536300
C341	C34	0.383400	0.573900	0.435400
C351	C35	0.316700	0.552200	0.328200
H181	H18	0.235600	0.535600	0.311800
C361	C36	0.374200	0.555800	0.243600
C371	C37	0.496000	0.580400	0.268600
C381	C38	0.562800	0.578200	0.180000
C391	C39	0.297700	0.529900	0.125500
Zn71	Zn7	0.266290	0.021800	0.409060
Zn81	Zn8	0.082760	0.172430	0.940640
O251	O25	0.368300	0.023160	0.310300
O261	O26	0.454000	0.126600	0.393100
O271	O27	0.641100	0.012970	0.439900
O281	O28	0.816400	0.027710	0.397200
O291	O29	0.775200	0.040400	0.997300
O301	O30	0.619700	0.093000	0.882500
O311	O31	0.250400	0.135340	0.985600
O321	O32	0.273600	0.161700	0.164800
N221	N22	0.870500	0.046210	0.673700
N231	N23	0.975300	0.054240	0.642600
N241	N24	0.000300	0.116470	0.801100
N251	N25	0.065400	0.101720	0.452300
N261	N26	0.172600	0.110620	0.424800
N271	N27	0.092100	0.219420	0.427700
N281	N28	0.674000	0.069100	0.974600
C401	C40	0.889300	0.083500	0.767800
H191	H19	0.832000	0.086700	0.806900
C411	C41	0.050300	0.096100	0.720600
H201	H20	0.128900	0.110100	0.720400
C421	C42	0.020700	0.167500	0.453200
H211	H21	0.947900	0.177400	0.469600
C431	C43	0.185600	0.181100	0.410600
H221	H22	0.250900	0.201700	0.391300
C441	C44	0.312200	0.136300	0.091500
C451	C45	0.441100	0.104900	0.122000
C461	C46	0.497500	0.100600	0.037300
H231	H23	0.455300	0.115600	0.963700
C471	C47	0.616600	0.073900	0.064600
C481	C48	0.683300	0.052200	0.171800
H241	H24	0.764400	0.035600	0.188200
C491	C49	0.625800	0.055800	0.256400
C501	C50	0.504000	0.080400	0.231400
C511	C51	0.437200	0.078200	0.320000
C521	C52	0.702300	0.029900	0.374500
Zn91	Zn9	0.000000	0.500000	0.000000
Zn101	Zn10	0.000000	0.000000	0.500000
