data_INESIE_clean_PM
_symmetry_space_group_name_H-M	'P1'
_cell_length_a	10.728000
_cell_length_b	13.790000
_cell_length_c	19.576000
_cell_angle_alpha	90.000000
_cell_angle_beta	90.000000
_cell_angle_gamma	104.490000
_symmetry_Int_Tables_number 1

loop_
_symmetry_equiv_pos_as_xyz
'x,y,z'

loop_
_atom_site_label
_atom_site_type_symbol
_atom_site_fract_x
_atom_site_fract_y
_atom_site_fract_z
Ni11	Ni1	0.754090	0.204760	0.974390
Ni21	Ni2	0.594940	0.360620	0.881750
Ni31	Ni3	0.245910	0.295240	0.474390
Ni41	Ni4	0.405060	0.139380	0.381750
Ni51	Ni5	0.245910	0.795240	0.025610
Ni61	Ni6	0.405060	0.639380	0.118250
Ni71	Ni7	0.754090	0.704760	0.525610
Ni81	Ni8	0.594940	0.860620	0.618250
H11	H1	0.682000	0.904600	0.910300
H21	H2	0.594300	0.748500	0.863200
H31	H3	0.560900	0.733200	0.747700
H41	H4	0.692400	0.020500	0.723400
H51	H5	0.130200	0.948300	0.806000
H61	H6	0.112400	0.828500	0.888100
H71	H7	0.400800	0.993900	0.987500
H81	H8	0.288500	0.098200	0.815400
H91	H9	0.840400	0.461800	0.119600
H101	H10	0.848000	0.604700	0.183700
H111	H11	0.673900	0.672000	0.187200
H121	H12	0.488200	0.471700	0.059000
H131	H13	0.302000	0.338600	0.032800
H141	H14	0.220700	0.193100	0.970700
H151	H15	0.006300	0.145100	0.944700
H161	H16	0.948200	0.381200	0.035200
H171	H17	0.318000	0.595400	0.410300
H181	H18	0.405700	0.751500	0.363200
H191	H19	0.439100	0.766800	0.247700
H201	H20	0.307600	0.479500	0.223400
H211	H21	0.869800	0.551700	0.306000
H221	H22	0.887600	0.671500	0.388100
H231	H23	0.599200	0.506100	0.487500
H241	H24	0.711500	0.401800	0.315400
H251	H25	0.159600	0.038200	0.619600
H261	H26	0.152000	0.895300	0.683700
H271	H27	0.326100	0.828000	0.687200
H281	H28	0.511800	0.028300	0.559000
H291	H29	0.698000	0.161400	0.532800
H301	H30	0.779300	0.306900	0.470700
H311	H31	0.993700	0.354900	0.444700
H321	H32	0.051800	0.118800	0.535200
H331	H33	0.318000	0.095400	0.089700
H341	H34	0.405700	0.251500	0.136800
H351	H35	0.439100	0.266800	0.252300
H361	H36	0.307600	0.979500	0.276600
H371	H37	0.869800	0.051700	0.194000
H381	H38	0.887600	0.171500	0.111900
H391	H39	0.599200	0.006100	0.012500
H401	H40	0.711500	0.901800	0.184600
H411	H41	0.159600	0.538200	0.880400
H421	H42	0.152000	0.395300	0.816300
H431	H43	0.326100	0.328000	0.812800
H441	H44	0.511800	0.528300	0.941000
H451	H45	0.698000	0.661400	0.967200
H461	H46	0.779300	0.806900	0.029300
H471	H47	0.993700	0.854900	0.055300
H481	H48	0.051800	0.618800	0.964800
H491	H49	0.682000	0.404600	0.589700
H501	H50	0.594300	0.248500	0.636800
H511	H51	0.560900	0.233200	0.752300
H521	H52	0.692400	0.520500	0.776600
H531	H53	0.130200	0.448300	0.694000
H541	H54	0.112400	0.328500	0.611900
H551	H55	0.400800	0.493900	0.512500
H561	H56	0.288500	0.598200	0.684600
H571	H57	0.840400	0.961800	0.380400
H581	H58	0.848000	0.104700	0.316300
H591	H59	0.673900	0.172000	0.312800
H601	H60	0.488200	0.971700	0.441000
H611	H61	0.302000	0.838600	0.467200
H621	H62	0.220700	0.693100	0.529300
H631	H63	0.006300	0.645100	0.555300
H641	H64	0.948200	0.881200	0.464800
C11	C1	0.752200	0.084000	0.848490
C21	C2	0.698700	0.980100	0.820790
C31	C3	0.667500	0.897600	0.863500
C41	C4	0.616500	0.804900	0.835500
C51	C5	0.596600	0.796300	0.766100
C61	C6	0.674200	0.964900	0.752020
C71	C7	0.186500	0.959200	0.842900
C81	C8	0.177800	0.887100	0.891800
C91	C9	0.347200	0.984000	0.949440
C101	C10	0.282700	0.047500	0.847500
C111	C11	0.367300	0.059500	0.901640
C121	C12	0.477700	0.150100	0.909650
C131	C13	0.649800	0.364600	0.033130
C141	C14	0.660200	0.449900	0.082240
C151	C15	0.770700	0.490600	0.120200
C161	C16	0.774600	0.575100	0.158800
C171	C17	0.670000	0.615600	0.160400
C181	C18	0.560800	0.497000	0.085620
C191	C19	0.174400	0.471200	0.081200
C201	C20	0.131300	0.374600	0.041860
C211	C21	0.215000	0.318700	0.021700
C221	C22	0.166500	0.232200	0.984900
C231	C23	0.037300	0.203500	0.969600
C241	C24	0.003700	0.342000	0.022960
C251	C25	0.247800	0.416000	0.348490
C261	C26	0.301300	0.519900	0.320790
C271	C27	0.332500	0.602400	0.363500
C281	C28	0.383500	0.695100	0.335500
C291	C29	0.403400	0.703700	0.266100
C301	C30	0.325800	0.535100	0.252020
C311	C31	0.813500	0.540800	0.342900
C321	C32	0.822200	0.612900	0.391800
C331	C33	0.652800	0.516000	0.449440
C341	C34	0.717300	0.452500	0.347500
C351	C35	0.632700	0.440500	0.401640
C361	C36	0.522300	0.349900	0.409650
C371	C37	0.350200	0.135400	0.533130
C381	C38	0.339800	0.050100	0.582240
C391	C39	0.229300	0.009400	0.620200
C401	C40	0.225400	0.924900	0.658800
C411	C41	0.330000	0.884400	0.660400
C421	C42	0.439200	0.003000	0.585620
C431	C43	0.825600	0.028800	0.581200
C441	C44	0.868700	0.125400	0.541860
C451	C45	0.785000	0.181300	0.521700
C461	C46	0.833500	0.267800	0.484900
C471	C47	0.962700	0.296500	0.469600
C481	C48	0.996300	0.158000	0.522960
C491	C49	0.247800	0.916000	0.151510
C501	C50	0.301300	0.019900	0.179210
C511	C51	0.332500	0.102400	0.136500
C521	C52	0.383500	0.195100	0.164500
C531	C53	0.403400	0.203700	0.233900
C541	C54	0.325800	0.035100	0.247980
C551	C55	0.813500	0.040800	0.157100
C561	C56	0.822200	0.112900	0.108200
C571	C57	0.652800	0.016000	0.050560
C581	C58	0.717300	0.952500	0.152500
C591	C59	0.632700	0.940500	0.098360
C601	C60	0.522300	0.849900	0.090350
C611	C61	0.350200	0.635400	0.966870
C621	C62	0.339800	0.550100	0.917760
C631	C63	0.229300	0.509400	0.879800
C641	C64	0.225400	0.424900	0.841200
C651	C65	0.330000	0.384400	0.839600
C661	C66	0.439200	0.503000	0.914380
C671	C67	0.825600	0.528800	0.918800
C681	C68	0.868700	0.625400	0.958140
C691	C69	0.785000	0.681300	0.978300
C701	C70	0.833500	0.767800	0.015100
C711	C71	0.962700	0.796500	0.030400
C721	C72	0.996300	0.658000	0.977040
C731	C73	0.752200	0.584000	0.651510
C741	C74	0.698700	0.480100	0.679210
C751	C75	0.667500	0.397600	0.636500
C761	C76	0.616500	0.304900	0.664500
C771	C77	0.596600	0.296300	0.733900
C781	C78	0.674200	0.464900	0.747980
C791	C79	0.186500	0.459200	0.657100
C801	C80	0.177800	0.387100	0.608200
C811	C81	0.347200	0.484000	0.550560
C821	C82	0.282700	0.547500	0.652500
C831	C83	0.367300	0.559500	0.598360
C841	C84	0.477700	0.650100	0.590350
C851	C85	0.649800	0.864600	0.466870
C861	C86	0.660200	0.949900	0.417760
C871	C87	0.770700	0.990600	0.379800
C881	C88	0.774600	0.075100	0.341200
C891	C89	0.670000	0.115600	0.339600
C901	C90	0.560800	0.997000	0.414380
C911	C91	0.174400	0.971200	0.418800
C921	C92	0.131300	0.874600	0.458140
C931	C93	0.215000	0.818700	0.478300
C941	C94	0.166500	0.732200	0.515100
C951	C95	0.037300	0.703500	0.530400
C961	C96	0.003700	0.842000	0.477040
N11	N1	0.625600	0.874740	0.724180
N21	N2	0.257400	0.897740	0.945350
N31	N3	0.562300	0.576930	0.124550
N41	N4	0.955000	0.257290	0.988510
N51	N5	0.374400	0.625260	0.224180
N61	N6	0.742600	0.602260	0.445350
N71	N7	0.437700	0.923070	0.624550
N81	N8	0.045000	0.242710	0.488510
N91	N9	0.374400	0.125260	0.275820
N101	N10	0.742600	0.102260	0.054650
N111	N11	0.437700	0.423070	0.875450
N121	N12	0.045000	0.742710	0.011490
N131	N13	0.625600	0.374740	0.775820
N141	N14	0.257400	0.397740	0.554650
N151	N15	0.562300	0.076930	0.375450
N161	N16	0.955000	0.757290	0.511490
O11	O1	0.776100	0.090380	0.911260
O21	O2	0.764700	0.155740	0.807560
O31	O3	0.557900	0.145210	0.955000
O41	O4	0.478900	0.221850	0.869810
O51	O5	0.565100	0.355360	0.987620
O61	O6	0.728900	0.312230	0.040250
O71	O7	0.092700	0.518830	0.094400
O81	O8	0.291200	0.496990	0.097740
O91	O9	0.760000	0.302150	0.890520
O101	O10	0.223900	0.409620	0.411260
O111	O11	0.235300	0.344260	0.307560
O121	O12	0.442100	0.354790	0.455000
O131	O13	0.521100	0.278150	0.369810
O141	O14	0.434900	0.144640	0.487620
O151	O15	0.271100	0.187770	0.540250
O161	O16	0.907300	0.981170	0.594400
O171	O17	0.708800	0.003010	0.597740
O181	O18	0.240000	0.197850	0.390520
O191	O19	0.223900	0.909620	0.088740
O201	O20	0.235300	0.844260	0.192440
O211	O21	0.442100	0.854790	0.045000
O221	O22	0.521100	0.778150	0.130190
O231	O23	0.434900	0.644640	0.012380
O241	O24	0.271100	0.687770	0.959750
O251	O25	0.907300	0.481170	0.905600
O261	O26	0.708800	0.503010	0.902260
O271	O27	0.240000	0.697850	0.109480
O281	O28	0.776100	0.590380	0.588740
O291	O29	0.764700	0.655740	0.692440
O301	O30	0.557900	0.645210	0.545000
O311	O31	0.478900	0.721850	0.630190
O321	O32	0.565100	0.855360	0.512380
O331	O33	0.728900	0.812230	0.459750
O341	O34	0.092700	0.018830	0.405600
O351	O35	0.291200	0.996990	0.402260
O361	O36	0.760000	0.802150	0.609480
