data_INIDAL_clean_PM
_symmetry_space_group_name_H-M	'P1'
_cell_length_a	16.020600
_cell_length_b	10.107000
_cell_length_c	18.533000
_cell_angle_alpha	90.000000
_cell_angle_beta	90.000000
_cell_angle_gamma	90.000000
_symmetry_Int_Tables_number 1

loop_
_symmetry_equiv_pos_as_xyz
'x,y,z'

loop_
_atom_site_label
_atom_site_type_symbol
_atom_site_fract_x
_atom_site_fract_y
_atom_site_fract_z
Ga11	Ga1	0.038400	0.681680	0.282050
Ga21	Ga2	0.849710	0.833230	0.324000
Ga31	Ga3	0.009140	0.652380	0.092280
P11	P1	0.060940	0.378500	0.316040
P21	P2	0.183860	0.648300	0.168420
P31	P3	0.011950	0.857900	0.422630
F11	F1	0.003100	0.588500	0.195200
F21	F2	0.919900	0.669200	0.310500
O11	O1	0.059100	0.524000	0.339300
O21	O2	0.143700	0.350500	0.276300
O31	O3	0.986600	0.346100	0.268100
O41	O4	0.059900	0.295800	0.385700
O51	O5	0.151200	0.689600	0.242600
O61	O6	0.207800	0.501600	0.167400
O71	O7	0.121800	0.679700	0.107400
O81	O8	0.261600	0.728600	0.149600
O91	O9	0.065200	0.784400	0.366800
O101	O10	0.920200	0.871700	0.400300
O111	O11	0.017700	0.783700	0.494200
O121	O12	0.047900	0.998400	0.432000
Ga41	Ga4	0.461600	0.318320	0.782050
Ga51	Ga5	0.650290	0.166770	0.824000
Ga61	Ga6	0.490860	0.347620	0.592280
P41	P4	0.439060	0.621500	0.816040
P51	P5	0.316140	0.351700	0.668420
P61	P6	0.488050	0.142100	0.922630
F31	F3	0.496900	0.411500	0.695200
F41	F4	0.580100	0.330800	0.810500
O131	O13	0.440900	0.476000	0.839300
O141	O14	0.356300	0.649500	0.776300
O151	O15	0.513400	0.653900	0.768100
O161	O16	0.440100	0.704200	0.885700
O171	O17	0.348800	0.310400	0.742600
O181	O18	0.292200	0.498400	0.667400
O191	O19	0.378200	0.320300	0.607400
O201	O20	0.238400	0.271400	0.649600
O211	O21	0.434800	0.215600	0.866800
O221	O22	0.579800	0.128300	0.900300
O231	O23	0.482300	0.216300	0.994200
O241	O24	0.452100	0.001600	0.932000
Ga71	Ga7	0.961600	0.181680	0.217950
Ga81	Ga8	0.150290	0.333230	0.176000
Ga91	Ga9	0.990860	0.152380	0.407720
P71	P7	0.939060	0.878500	0.183960
P81	P8	0.816140	0.148300	0.331580
P91	P9	0.988050	0.357900	0.077370
F51	F5	0.996900	0.088500	0.304800
F61	F6	0.080100	0.169200	0.189500
O251	O25	0.940900	0.024000	0.160700
O261	O26	0.856300	0.850500	0.223700
O271	O27	0.013400	0.846100	0.231900
O281	O28	0.940100	0.795800	0.114300
O291	O29	0.848800	0.189600	0.257400
O301	O30	0.792200	0.001600	0.332600
O311	O31	0.878200	0.179700	0.392600
O321	O32	0.738400	0.228600	0.350400
O331	O33	0.934800	0.284400	0.133200
O341	O34	0.079800	0.371700	0.099700
O351	O35	0.982300	0.283700	0.005800
O361	O36	0.952100	0.498400	0.068000
Ga101	Ga10	0.538400	0.818320	0.717950
Ga111	Ga11	0.349710	0.666770	0.676000
Ga121	Ga12	0.509140	0.847620	0.907720
P101	P10	0.560940	0.121500	0.683960
P111	P11	0.683860	0.851700	0.831580
P121	P12	0.511950	0.642100	0.577370
F71	F7	0.503100	0.911500	0.804800
F81	F8	0.419900	0.830800	0.689500
O371	O37	0.559100	0.976000	0.660700
O381	O38	0.643700	0.149500	0.723700
O391	O39	0.486600	0.153900	0.731900
O401	O40	0.559900	0.204200	0.614300
O411	O41	0.651200	0.810400	0.757400
O421	O42	0.707800	0.998400	0.832600
O431	O43	0.621800	0.820300	0.892600
O441	O44	0.761600	0.771400	0.850400
O451	O45	0.565200	0.715600	0.633200
O461	O46	0.420200	0.628300	0.599700
O471	O47	0.517700	0.716300	0.505800
O481	O48	0.547900	0.501600	0.568000
Ga131	Ga13	0.961600	0.318320	0.717950
Ga141	Ga14	0.150290	0.166770	0.676000
Ga151	Ga15	0.990860	0.347620	0.907720
P131	P13	0.939060	0.621500	0.683960
P141	P14	0.816140	0.351700	0.831580
P151	P15	0.988050	0.142100	0.577370
F91	F9	0.996900	0.411500	0.804800
F101	F10	0.080100	0.330800	0.689500
O491	O49	0.940900	0.476000	0.660700
O501	O50	0.856300	0.649500	0.723700
O511	O51	0.013400	0.653900	0.731900
O521	O52	0.940100	0.704200	0.614300
O531	O53	0.848800	0.310400	0.757400
O541	O54	0.792200	0.498400	0.832600
O551	O55	0.878200	0.320300	0.892600
O561	O56	0.738400	0.271400	0.850400
O571	O57	0.934800	0.215600	0.633200
O581	O58	0.079800	0.128300	0.599700
O591	O59	0.982300	0.216300	0.505800
O601	O60	0.952100	0.001600	0.568000
Ga161	Ga16	0.538400	0.681680	0.217950
Ga171	Ga17	0.349710	0.833230	0.176000
Ga181	Ga18	0.509140	0.652380	0.407720
P161	P16	0.560940	0.378500	0.183960
P171	P17	0.683860	0.648300	0.331580
P181	P18	0.511950	0.857900	0.077370
F111	F11	0.503100	0.588500	0.304800
F121	F12	0.419900	0.669200	0.189500
O611	O61	0.559100	0.524000	0.160700
O621	O62	0.643700	0.350500	0.223700
O631	O63	0.486600	0.346100	0.231900
O641	O64	0.559900	0.295800	0.114300
O651	O65	0.651200	0.689600	0.257400
O661	O66	0.707800	0.501600	0.332600
O671	O67	0.621800	0.679700	0.392600
O681	O68	0.761600	0.728600	0.350400
O691	O69	0.565200	0.784400	0.133200
O701	O70	0.420200	0.871700	0.099700
O711	O71	0.517700	0.783700	0.005800
O721	O72	0.547900	0.998400	0.068000
Ga191	Ga19	0.038400	0.818320	0.782050
Ga201	Ga20	0.849710	0.666770	0.824000
Ga211	Ga21	0.009140	0.847620	0.592280
P191	P19	0.060940	0.121500	0.816040
P201	P20	0.183860	0.851700	0.668420
P211	P21	0.011950	0.642100	0.922630
F131	F13	0.003100	0.911500	0.695200
F141	F14	0.919900	0.830800	0.810500
O731	O73	0.059100	0.976000	0.839300
O741	O74	0.143700	0.149500	0.776300
O751	O75	0.986600	0.153900	0.768100
O761	O76	0.059900	0.204200	0.885700
O771	O77	0.151200	0.810400	0.742600
O781	O78	0.207800	0.998400	0.667400
O791	O79	0.121800	0.820300	0.607400
O801	O80	0.261600	0.771400	0.649600
O811	O81	0.065200	0.715600	0.866800
O821	O82	0.920200	0.628300	0.900300
O831	O83	0.017700	0.716300	0.994200
O841	O84	0.047900	0.501600	0.932000
Ga221	Ga22	0.461600	0.181680	0.282050
Ga231	Ga23	0.650290	0.333230	0.324000
Ga241	Ga24	0.490860	0.152380	0.092280
P221	P22	0.439060	0.878500	0.316040
P231	P23	0.316140	0.148300	0.168420
P241	P24	0.488050	0.357900	0.422630
F151	F15	0.496900	0.088500	0.195200
F161	F16	0.580100	0.169200	0.310500
O851	O85	0.440900	0.024000	0.339300
O861	O86	0.356300	0.850500	0.276300
O871	O87	0.513400	0.846100	0.268100
O881	O88	0.440100	0.795800	0.385700
O891	O89	0.348800	0.189600	0.242600
O901	O90	0.292200	0.001600	0.167400
O911	O91	0.378200	0.179700	0.107400
O921	O92	0.238400	0.228600	0.149600
O931	O93	0.434800	0.284400	0.366800
O941	O94	0.579800	0.371700	0.400300
O951	O95	0.482300	0.283700	0.494200
O961	O96	0.452100	0.498400	0.432000
