data_INIGET_clean_PM
_symmetry_space_group_name_H-M	'P1'
_cell_length_a	8.986400
_cell_length_b	27.788500
_cell_length_c	10.953000
_cell_angle_alpha	90.000000
_cell_angle_beta	99.196000
_cell_angle_gamma	90.000000
_symmetry_Int_Tables_number 1

loop_
_symmetry_equiv_pos_as_xyz
'x,y,z'

loop_
_atom_site_label
_atom_site_type_symbol
_atom_site_fract_x
_atom_site_fract_y
_atom_site_fract_z
Mo11	Mo1	0.585690	0.649030	0.874050
O11	O1	0.669370	0.183960	0.413400
O21	O2	0.430900	0.615830	0.906570
N11	N1	0.371600	0.572320	0.133990
C11	C1	0.338000	0.527010	0.160400
H11	H1	0.251400	0.513300	0.116200
C21	C2	0.424700	0.499320	0.249600
H21	H2	0.397700	0.467600	0.262100
C31	C3	0.552400	0.519000	0.320700
C41	C4	0.585800	0.566480	0.295100
H31	H3	0.669100	0.581600	0.340600
C51	C5	0.495300	0.591080	0.202400
H41	H4	0.521400	0.622600	0.186200
C61	C6	0.653700	0.490930	0.416200
C71	C7	0.650200	0.440840	0.414200
H51	H5	0.581400	0.424700	0.355800
C81	C8	0.721200	0.335970	0.389300
H61	H6	0.704700	0.352500	0.314600
C91	C9	0.716700	0.286100	0.389400
H71	H7	0.691400	0.269500	0.315200
Mo21	Mo2	0.085690	0.149030	0.374050
O31	O3	0.169370	0.683960	0.913400
O41	O4	0.930900	0.115830	0.406570
N21	N2	0.871600	0.072320	0.633990
C101	C10	0.838000	0.027010	0.660400
H81	H8	0.751400	0.013300	0.616200
C111	C11	0.924700	0.999320	0.749600
H91	H9	0.897700	0.967600	0.762100
C121	C12	0.052400	0.019000	0.820700
C131	C13	0.085800	0.066480	0.795100
H101	H10	0.169100	0.081600	0.840600
C141	C14	0.995300	0.091080	0.702400
H111	H11	0.021400	0.122600	0.686200
C151	C15	0.153700	0.990930	0.916200
C161	C16	0.150200	0.940840	0.914200
H121	H12	0.081400	0.924700	0.855800
C171	C17	0.221200	0.835970	0.889300
H131	H13	0.204700	0.852500	0.814600
C181	C18	0.216700	0.786100	0.889400
H141	H14	0.191400	0.769500	0.815200
Mo31	Mo3	0.914310	0.649030	0.125950
O51	O5	0.830630	0.183960	0.586600
O61	O6	0.069100	0.615830	0.093430
N31	N3	0.128400	0.572320	0.866010
C191	C19	0.162000	0.527010	0.839600
H151	H15	0.248600	0.513300	0.883800
C201	C20	0.075300	0.499320	0.750400
H161	H16	0.102300	0.467600	0.737900
C211	C21	0.947600	0.519000	0.679300
C221	C22	0.914200	0.566480	0.704900
H171	H17	0.830900	0.581600	0.659400
C231	C23	0.004700	0.591080	0.797600
H181	H18	0.978600	0.622600	0.813800
C241	C24	0.846300	0.490930	0.583800
C251	C25	0.849800	0.440840	0.585800
H191	H19	0.918600	0.424700	0.644200
C261	C26	0.778800	0.335970	0.610700
H201	H20	0.795300	0.352500	0.685400
C271	C27	0.783300	0.286100	0.610600
H211	H21	0.808600	0.269500	0.684800
Mo41	Mo4	0.414310	0.149030	0.625950
O71	O7	0.330630	0.683960	0.086600
O81	O8	0.569100	0.115830	0.593430
N41	N4	0.628400	0.072320	0.366010
C281	C28	0.662000	0.027010	0.339600
H221	H22	0.748600	0.013300	0.383800
C291	C29	0.575300	0.999320	0.250400
H231	H23	0.602300	0.967600	0.237900
C301	C30	0.447600	0.019000	0.179300
C311	C31	0.414200	0.066480	0.204900
H241	H24	0.330900	0.081600	0.159400
C321	C32	0.504700	0.091080	0.297600
H251	H25	0.478600	0.122600	0.313800
C331	C33	0.346300	0.990930	0.083800
C341	C34	0.349800	0.940840	0.085800
H261	H26	0.418600	0.924700	0.144200
C351	C35	0.278800	0.835970	0.110700
H271	H27	0.295300	0.852500	0.185400
C361	C36	0.283300	0.786100	0.110600
H281	H28	0.308600	0.769500	0.184800
Ni11	Ni1	0.250000	0.617220	0.000000
Ni21	Ni2	0.750000	0.117220	0.500000
O91	O9	0.750000	0.637990	0.000000
O101	O10	0.250000	0.137990	0.500000
N51	N5	0.750000	0.515900	0.500000
C371	C37	0.750000	0.414990	0.500000
C381	C38	0.750000	0.361610	0.500000
C391	C39	0.750000	0.260700	0.500000
C401	C40	0.750000	0.206690	0.500000
N61	N6	0.250000	0.015900	0.000000
C411	C41	0.250000	0.914990	0.000000
C421	C42	0.250000	0.861610	0.000000
C431	C43	0.250000	0.760700	0.000000
C441	C44	0.250000	0.706690	0.000000
Mo51	Mo5	0.414310	0.350970	0.125950
O111	O11	0.330630	0.816040	0.586600
O121	O12	0.569100	0.384170	0.093430
N71	N7	0.628400	0.427680	0.866010
C451	C45	0.662000	0.472990	0.839600
H291	H29	0.748600	0.486700	0.883800
C461	C46	0.575300	0.500680	0.750400
H301	H30	0.602300	0.532400	0.737900
C471	C47	0.447600	0.481000	0.679300
C481	C48	0.414200	0.433520	0.704900
H311	H31	0.330900	0.418400	0.659400
C491	C49	0.504700	0.408920	0.797600
H321	H32	0.478600	0.377400	0.813800
C501	C50	0.346300	0.509070	0.583800
C511	C51	0.349800	0.559160	0.585800
H331	H33	0.418600	0.575300	0.644200
C521	C52	0.278800	0.664030	0.610700
H341	H34	0.295300	0.647500	0.685400
C531	C53	0.283300	0.713900	0.610600
H351	H35	0.308600	0.730500	0.684800
Mo61	Mo6	0.914310	0.850970	0.625950
O131	O13	0.830630	0.316040	0.086600
O141	O14	0.069100	0.884170	0.593430
N81	N8	0.128400	0.927680	0.366010
C541	C54	0.162000	0.972990	0.339600
H361	H36	0.248600	0.986700	0.383800
C551	C55	0.075300	0.000680	0.250400
H371	H37	0.102300	0.032400	0.237900
C561	C56	0.947600	0.981000	0.179300
C571	C57	0.914200	0.933520	0.204900
H381	H38	0.830900	0.918400	0.159400
C581	C58	0.004700	0.908920	0.297600
H391	H39	0.978600	0.877400	0.313800
C591	C59	0.846300	0.009070	0.083800
C601	C60	0.849800	0.059160	0.085800
H401	H40	0.918600	0.075300	0.144200
C611	C61	0.778800	0.164030	0.110700
H411	H41	0.795300	0.147500	0.185400
C621	C62	0.783300	0.213900	0.110600
H421	H42	0.808600	0.230500	0.184800
Mo71	Mo7	0.085690	0.350970	0.874050
O151	O15	0.169370	0.816040	0.413400
O161	O16	0.930900	0.384170	0.906570
N91	N9	0.871600	0.427680	0.133990
C631	C63	0.838000	0.472990	0.160400
H431	H43	0.751400	0.486700	0.116200
C641	C64	0.924700	0.500680	0.249600
H441	H44	0.897700	0.532400	0.262100
C651	C65	0.052400	0.481000	0.320700
C661	C66	0.085800	0.433520	0.295100
H451	H45	0.169100	0.418400	0.340600
C671	C67	0.995300	0.408920	0.202400
H461	H46	0.021400	0.377400	0.186200
C681	C68	0.153700	0.509070	0.416200
C691	C69	0.150200	0.559160	0.414200
H471	H47	0.081400	0.575300	0.355800
C701	C70	0.221200	0.664030	0.389300
H481	H48	0.204700	0.647500	0.314600
C711	C71	0.216700	0.713900	0.389400
H491	H49	0.191400	0.730500	0.315200
Mo81	Mo8	0.585690	0.850970	0.374050
O171	O17	0.669370	0.316040	0.913400
O181	O18	0.430900	0.884170	0.406570
N101	N10	0.371600	0.927680	0.633990
C721	C72	0.338000	0.972990	0.660400
H501	H50	0.251400	0.986700	0.616200
C731	C73	0.424700	0.000680	0.749600
H511	H51	0.397700	0.032400	0.762100
C741	C74	0.552400	0.981000	0.820700
C751	C75	0.585800	0.933520	0.795100
H521	H52	0.669100	0.918400	0.840600
C761	C76	0.495300	0.908920	0.702400
H531	H53	0.521400	0.877400	0.686200
C771	C77	0.653700	0.009070	0.916200
C781	C78	0.650200	0.059160	0.914200
H541	H54	0.581400	0.075300	0.855800
C791	C79	0.721200	0.164030	0.889300
H551	H55	0.704700	0.147500	0.814600
C801	C80	0.716700	0.213900	0.889400
H561	H56	0.691400	0.230500	0.815200
Ni31	Ni3	0.750000	0.382780	0.000000
Ni41	Ni4	0.250000	0.882780	0.500000
O191	O19	0.250000	0.362010	0.000000
O201	O20	0.750000	0.862010	0.500000
N111	N11	0.250000	0.484100	0.500000
C811	C81	0.250000	0.585010	0.500000
C821	C82	0.250000	0.638390	0.500000
C831	C83	0.250000	0.739300	0.500000
C841	C84	0.250000	0.793310	0.500000
N121	N12	0.750000	0.984100	0.000000
C851	C85	0.750000	0.085010	0.000000
C861	C86	0.750000	0.138390	0.000000
C871	C87	0.750000	0.239300	0.000000
C881	C88	0.750000	0.293310	0.000000
