data_INIQUR_clean_PM
_symmetry_space_group_name_H-M	'P1'
_cell_length_a	14.021600
_cell_length_b	14.021600
_cell_length_c	16.681000
_cell_angle_alpha	80.931000
_cell_angle_beta	80.931000
_cell_angle_gamma	61.527400
_symmetry_Int_Tables_number 1

loop_
_symmetry_equiv_pos_as_xyz
'x,y,z'

loop_
_atom_site_label
_atom_site_type_symbol
_atom_site_fract_x
_atom_site_fract_y
_atom_site_fract_z
Fe11	Fe1	0.838520	0.780840	0.418540
Fe21	Fe2	0.219160	0.161480	0.081460
Fe31	Fe3	0.161480	0.219160	0.581460
Fe41	Fe4	0.780840	0.838520	0.918540
Ni11	Ni1	0.954210	0.590690	0.693270
Ni21	Ni2	0.409310	0.045790	0.806730
Ni31	Ni3	0.045790	0.409310	0.306730
Ni41	Ni4	0.590690	0.954210	0.193270
Ni51	Ni5	0.105950	0.894050	0.250000
Ni61	Ni6	0.894050	0.105950	0.750000
H11	H1	0.076300	0.669500	0.717900
H21	H2	0.134700	0.594300	0.648000
H31	H3	0.219700	0.545700	0.773600
H41	H4	0.225000	0.453400	0.729800
H51	H5	0.195200	0.429800	0.860600
H61	H6	0.090700	0.541300	0.859600
H71	H7	0.055500	0.405700	0.895800
H81	H8	0.109200	0.359400	0.812600
H91	H9	0.922600	0.521600	0.857700
H101	H10	0.895900	0.433300	0.882500
H111	H11	0.946900	0.370300	0.805500
H121	H12	0.758500	0.528100	0.838900
H131	H13	0.793300	0.415500	0.809600
H141	H14	0.684000	0.579400	0.729700
H151	H15	0.771200	0.478400	0.686800
H161	H16	0.753700	0.674300	0.675500
H171	H17	0.816500	0.584700	0.615900
H181	H18	0.221800	0.931000	0.329700
H191	H19	0.175000	0.862200	0.387700
H201	H20	0.140600	0.044400	0.394900
H211	H21	0.084700	0.979700	0.447000
H221	H22	0.007800	0.156200	0.369800
H231	H23	0.951600	0.094200	0.425600
H241	H24	0.863600	0.116200	0.341000
H251	H25	0.917500	0.180900	0.286100
H261	H26	0.330500	0.923700	0.782100
H271	H27	0.405700	0.865300	0.852000
H281	H28	0.454300	0.780300	0.726400
H291	H29	0.546600	0.775000	0.770200
H301	H30	0.570200	0.804800	0.639400
H311	H31	0.458700	0.909300	0.640400
H321	H32	0.594300	0.944500	0.604200
H331	H33	0.640600	0.890800	0.687400
H341	H34	0.478400	0.077400	0.642300
H351	H35	0.566700	0.104100	0.617500
H361	H36	0.629700	0.053100	0.694500
H371	H37	0.471900	0.241500	0.661100
H381	H38	0.584500	0.206700	0.690400
H391	H39	0.420600	0.316000	0.770300
H401	H40	0.521600	0.228800	0.813200
H411	H41	0.325700	0.246300	0.824500
H421	H42	0.415300	0.183500	0.884100
H431	H43	0.069000	0.778200	0.170300
H441	H44	0.137800	0.825000	0.112300
H451	H45	0.955600	0.859400	0.105100
H461	H46	0.020300	0.915300	0.053000
H471	H47	0.843800	0.992200	0.130200
H481	H48	0.905800	0.048400	0.074400
H491	H49	0.883800	0.136400	0.159000
H501	H50	0.819100	0.082500	0.213900
H511	H51	0.923700	0.330500	0.282100
H521	H52	0.865300	0.405700	0.352000
H531	H53	0.780300	0.454300	0.226400
H541	H54	0.775000	0.546600	0.270200
H551	H55	0.804800	0.570200	0.139400
H561	H56	0.909300	0.458700	0.140400
H571	H57	0.944500	0.594300	0.104200
H581	H58	0.890800	0.640600	0.187400
H591	H59	0.077400	0.478400	0.142300
H601	H60	0.104100	0.566700	0.117500
H611	H61	0.053100	0.629700	0.194500
H621	H62	0.241500	0.471900	0.161100
H631	H63	0.206700	0.584500	0.190400
H641	H64	0.316000	0.420600	0.270300
H651	H65	0.228800	0.521600	0.313200
H661	H66	0.246300	0.325700	0.324500
H671	H67	0.183500	0.415300	0.384100
H681	H68	0.778200	0.069000	0.670300
H691	H69	0.825000	0.137800	0.612300
H701	H70	0.859400	0.955600	0.605100
H711	H71	0.915300	0.020300	0.553000
H721	H72	0.992200	0.843800	0.630200
H731	H73	0.048400	0.905800	0.574400
H741	H74	0.136400	0.883800	0.659000
H751	H75	0.082500	0.819100	0.713900
H761	H76	0.669500	0.076300	0.217900
H771	H77	0.594300	0.134700	0.148000
H781	H78	0.545700	0.219700	0.273600
H791	H79	0.453400	0.225000	0.229800
H801	H80	0.429800	0.195200	0.360600
H811	H81	0.541300	0.090700	0.359600
H821	H82	0.405700	0.055500	0.395800
H831	H83	0.359400	0.109200	0.312600
H841	H84	0.521600	0.922600	0.357700
H851	H85	0.433300	0.895900	0.382500
H861	H86	0.370300	0.946900	0.305500
H871	H87	0.528100	0.758500	0.338900
H881	H88	0.415500	0.793300	0.309600
H891	H89	0.579400	0.684000	0.229700
H901	H90	0.478400	0.771200	0.186800
H911	H91	0.674300	0.753700	0.175500
H921	H92	0.584700	0.816500	0.115900
H931	H93	0.931000	0.221800	0.829700
H941	H94	0.862200	0.175000	0.887700
H951	H95	0.044400	0.140600	0.894900
H961	H96	0.979700	0.084700	0.947000
H971	H97	0.156200	0.007800	0.869800
H981	H98	0.094200	0.951600	0.925600
H991	H99	0.116200	0.863600	0.841000
H1001	H100	0.180900	0.917500	0.786100
C11	C1	0.901400	0.728800	0.521200
C21	C2	0.958500	0.802300	0.365600
C31	C3	0.914800	0.634400	0.387200
C41	C4	0.765200	0.930400	0.445500
C51	C5	0.716600	0.755000	0.465100
C61	C6	0.771500	0.832900	0.318300
C71	C7	0.175000	0.515000	0.758000
C81	C8	0.141000	0.481000	0.827000
C91	C9	0.072000	0.432000	0.839000
C101	C10	0.895300	0.443300	0.818000
C111	C11	0.794000	0.486000	0.799000
C121	C12	0.761600	0.535600	0.722000
C131	C13	0.088600	0.018600	0.391000
C141	C14	0.992700	0.094700	0.374300
C151	C15	0.936300	0.108700	0.310100
C161	C16	0.271200	0.098600	0.978800
C171	C17	0.197700	0.041500	0.134400
C181	C18	0.365600	0.085200	0.112800
C191	C19	0.069600	0.234800	0.054500
C201	C20	0.245000	0.283400	0.034900
C211	C21	0.167100	0.228500	0.181700
C221	C22	0.485000	0.825000	0.742000
C231	C23	0.519000	0.859000	0.673000
C241	C24	0.568000	0.928000	0.661000
C251	C25	0.556700	0.104700	0.682000
C261	C26	0.514000	0.206000	0.701000
C271	C27	0.464400	0.238400	0.778000
C281	C28	0.981400	0.911400	0.109000
C291	C29	0.905300	0.007300	0.125700
C301	C30	0.891300	0.063700	0.189900
C311	C31	0.098600	0.271200	0.478800
C321	C32	0.041500	0.197700	0.634400
C331	C33	0.085200	0.365600	0.612800
C341	C34	0.234800	0.069600	0.554500
C351	C35	0.283400	0.245000	0.534900
C361	C36	0.228500	0.167100	0.681700
C371	C37	0.825000	0.485000	0.242000
C381	C38	0.859000	0.519000	0.173000
C391	C39	0.928000	0.568000	0.161000
C401	C40	0.104700	0.556700	0.182000
C411	C41	0.206000	0.514000	0.201000
C421	C42	0.238400	0.464400	0.278000
C431	C43	0.911400	0.981400	0.609000
C441	C44	0.007300	0.905300	0.625700
C451	C45	0.063700	0.891300	0.689900
C461	C46	0.728800	0.901400	0.021200
C471	C47	0.802300	0.958500	0.865600
C481	C48	0.634400	0.914800	0.887200
C491	C49	0.930400	0.765200	0.945500
C501	C50	0.755000	0.716600	0.965100
C511	C51	0.832900	0.771500	0.818300
C521	C52	0.515000	0.175000	0.258000
C531	C53	0.481000	0.141000	0.327000
C541	C54	0.432000	0.072000	0.339000
C551	C55	0.443300	0.895300	0.318000
C561	C56	0.486000	0.794000	0.299000
C571	C57	0.535600	0.761600	0.222000
C581	C58	0.018600	0.088600	0.891000
C591	C59	0.094700	0.992700	0.874300
C601	C60	0.108700	0.936300	0.810100
N11	N1	0.936200	0.691600	0.582800
N21	N2	0.027700	0.818900	0.329000
N31	N3	0.961000	0.547800	0.366600
N41	N4	0.723700	0.020900	0.457500
N51	N5	0.646900	0.733500	0.490000
N61	N6	0.724600	0.867000	0.260600
N71	N7	0.098400	0.596600	0.700300
N81	N8	0.969100	0.488300	0.804800
N91	N9	0.807500	0.598500	0.672400
N101	N10	0.156000	0.927400	0.349400
N111	N11	0.308400	0.063800	0.917200
N121	N12	0.181100	0.972300	0.171000
N131	N13	0.452200	0.039000	0.133400
N141	N14	0.979100	0.276300	0.042500
N151	N15	0.266500	0.353100	0.010000
N161	N16	0.133000	0.275400	0.239400
N171	N17	0.403400	0.901600	0.799700
N181	N18	0.511700	0.030900	0.695200
N191	N19	0.401500	0.192500	0.827600
N201	N20	0.072600	0.844000	0.150600
N211	N21	0.063800	0.308400	0.417200
N221	N22	0.972300	0.181100	0.671000
N231	N23	0.039000	0.452200	0.633400
N241	N24	0.276300	0.979100	0.542500
N251	N25	0.353100	0.266500	0.510000
N261	N26	0.275400	0.133000	0.739400
N271	N27	0.901600	0.403400	0.299700
N281	N28	0.030900	0.511700	0.195200
N291	N29	0.192500	0.401500	0.327600
N301	N30	0.844000	0.072600	0.650600
N311	N31	0.691600	0.936200	0.082800
N321	N32	0.818900	0.027700	0.829000
N331	N33	0.547800	0.961000	0.866600
N341	N34	0.020900	0.723700	0.957500
N351	N35	0.733500	0.646900	0.990000
N361	N36	0.867000	0.724600	0.760600
N371	N37	0.596600	0.098400	0.200300
N381	N38	0.488300	0.969100	0.304800
N391	N39	0.598500	0.807500	0.172400
N401	N40	0.927400	0.156000	0.849400
N411	N41	0.958400	0.041600	0.250000
N421	N42	0.041600	0.958400	0.750000
