data_INIXOT_clean_PM
_symmetry_space_group_name_H-M	'P1'
_cell_length_a	9.446200
_cell_length_b	9.446200
_cell_length_c	15.759000
_cell_angle_alpha	90.000000
_cell_angle_beta	90.000000
_cell_angle_gamma	120.000000
_symmetry_Int_Tables_number 1

loop_
_symmetry_equiv_pos_as_xyz
'x,y,z'

loop_
_atom_site_label
_atom_site_type_symbol
_atom_site_fract_x
_atom_site_fract_y
_atom_site_fract_z
P11	P1	0.169960	0.387040	0.919150
O11	O1	0.021900	0.211900	0.934470
O21	O2	0.180200	0.415500	0.820870
O31	O3	0.139900	0.514500	0.958440
O41	O4	0.318300	0.383900	0.951540
P21	P2	0.612960	0.782920	0.252480
O51	O5	0.788100	0.810000	0.267800
O61	O6	0.584500	0.764700	0.154200
O71	O7	0.485500	0.625400	0.291770
O81	O8	0.616100	0.934400	0.284870
P31	P3	0.217080	0.830040	0.585820
O91	O9	0.190000	0.978100	0.601140
O101	O10	0.235300	0.819800	0.487540
O111	O11	0.374600	0.860100	0.625110
O121	O12	0.065600	0.681700	0.618210
P41	P4	0.830040	0.612960	0.419150
O131	O13	0.978100	0.788100	0.434470
O141	O14	0.819800	0.584500	0.320870
O151	O15	0.860100	0.485500	0.458440
O161	O16	0.681700	0.616100	0.451540
P51	P5	0.387040	0.217080	0.752480
O171	O17	0.211900	0.190000	0.767800
O181	O18	0.415500	0.235300	0.654200
O191	O19	0.514500	0.374600	0.791770
O201	O20	0.383900	0.065600	0.784870
P61	P6	0.782920	0.169960	0.085820
O211	O21	0.810000	0.021900	0.101140
O221	O22	0.764700	0.180200	0.987540
O231	O23	0.625400	0.139900	0.125110
O241	O24	0.934400	0.318300	0.118210
P71	P7	0.387040	0.169960	0.414180
O251	O25	0.211900	0.021900	0.398860
O261	O26	0.415500	0.180200	0.512460
O271	O27	0.514500	0.139900	0.374890
O281	O28	0.383900	0.318300	0.381790
P81	P8	0.782920	0.612960	0.080850
O291	O29	0.810000	0.788100	0.065530
O301	O30	0.764700	0.584500	0.179130
O311	O31	0.625400	0.485500	0.041560
O321	O32	0.934400	0.616100	0.048460
P91	P9	0.830040	0.217080	0.747520
O331	O33	0.978100	0.190000	0.732200
O341	O34	0.819800	0.235300	0.845800
O351	O35	0.860100	0.374600	0.708230
O361	O36	0.681700	0.065600	0.715130
P101	P10	0.612960	0.830040	0.914180
O371	O37	0.788100	0.978100	0.898860
O381	O38	0.584500	0.819800	0.012460
O391	O39	0.485500	0.860100	0.874890
O401	O40	0.616100	0.681700	0.881790
P111	P11	0.217080	0.387040	0.580850
O411	O41	0.190000	0.211900	0.565530
O421	O42	0.235300	0.415500	0.679130
O431	O43	0.374600	0.514500	0.541560
O441	O44	0.065600	0.383900	0.548460
P121	P12	0.169960	0.782920	0.247520
O451	O45	0.021900	0.810000	0.232200
O461	O46	0.180200	0.764700	0.345800
O471	O47	0.139900	0.625400	0.208230
O481	O48	0.318300	0.934400	0.215130
Mg11	Mg1	0.551640	0.448360	0.916670
Mg21	Mg2	0.551640	0.103290	0.250000
Mg31	Mg3	0.896710	0.448360	0.583330
Mg41	Mg4	0.448360	0.551640	0.416670
Mg51	Mg5	0.448360	0.896710	0.750000
Mg61	Mg6	0.103290	0.551640	0.083330
B11	B1	0.151000	0.302000	0.750000
B21	B2	0.698000	0.849000	0.083330
B31	B3	0.151000	0.849000	0.416670
B41	B4	0.849000	0.698000	0.250000
B51	B5	0.302000	0.151000	0.583330
B61	B6	0.849000	0.151000	0.916670
