data_INURIS_clean_PM
_symmetry_space_group_name_H-M	'P1'
_cell_length_a	11.919900
_cell_length_b	31.224600
_cell_length_c	31.224600
_cell_angle_alpha	61.594300
_cell_angle_beta	82.689400
_cell_angle_gamma	97.310600
_symmetry_Int_Tables_number 1

loop_
_symmetry_equiv_pos_as_xyz
'x,y,z'

loop_
_atom_site_label
_atom_site_type_symbol
_atom_site_fract_x
_atom_site_fract_y
_atom_site_fract_z
Cu11	Cu1	0.119620	0.768480	0.210320
Cu21	Cu2	0.880210	0.716650	0.272310
Cu31	Cu3	0.304390	0.505780	0.275910
Cu41	Cu4	0.379830	0.720040	0.504240
Cu51	Cu5	0.329940	0.210320	0.021200
Cu61	Cu6	0.152520	0.272310	0.011040
Cu71	Cu7	0.580300	0.275910	0.218310
Cu81	Cu8	0.884070	0.504240	0.775720
Cu91	Cu9	0.351140	0.021200	0.768480
Cu101	Cu10	0.163560	0.011040	0.716650
Cu111	Cu11	0.798610	0.218310	0.505780
Cu121	Cu12	0.659790	0.775720	0.720040
Cu131	Cu13	0.880380	0.231520	0.789680
Cu141	Cu14	0.119790	0.283350	0.727690
Cu151	Cu15	0.695610	0.494220	0.724090
Cu161	Cu16	0.620170	0.279960	0.495760
Cu171	Cu17	0.670060	0.789680	0.978800
Cu181	Cu18	0.847480	0.727690	0.988960
Cu191	Cu19	0.419700	0.724090	0.781690
Cu201	Cu20	0.115930	0.495760	0.224280
Cu211	Cu21	0.648860	0.978800	0.231520
Cu221	Cu22	0.836440	0.988960	0.283350
Cu231	Cu23	0.201390	0.781690	0.494220
Cu241	Cu24	0.340210	0.224280	0.279960
H11	H1	0.724400	0.847200	0.018800
H21	H2	0.742000	0.902000	0.046600
H31	H3	0.581000	0.909100	0.092700
H41	H4	0.404800	0.861300	0.109400
H51	H5	0.160600	0.729500	0.089800
H61	H6	0.150800	0.680400	0.054200
H71	H7	0.318500	0.676100	0.011200
H81	H8	0.493800	0.723900	0.998700
H91	H9	0.773900	0.760000	0.202500
H101	H10	0.645100	0.796500	0.156200
H111	H11	0.464500	0.749800	0.167100
H121	H12	0.414700	0.667600	0.222300
H131	H13	0.516000	0.518700	0.362600
H141	H14	0.645700	0.487400	0.410200
H151	H15	0.827700	0.538600	0.393300
H161	H16	0.871700	0.618800	0.332500
H171	H17	0.458500	0.479900	0.235000
H181	H18	0.621700	0.464700	0.203000
H191	H19	0.742800	0.423100	0.253500
H201	H20	0.696500	0.392900	0.336700
H211	H21	0.432300	0.382100	0.481600
H221	H22	0.274800	0.403100	0.509800
H231	H23	0.161000	0.447000	0.455000
H241	H24	0.210100	0.472100	0.372700
H251	H25	0.302100	0.661900	0.467700
H261	H26	0.262400	0.603200	0.445600
H271	H27	0.410500	0.587100	0.401900
H281	H28	0.595800	0.630200	0.381400
H291	H29	0.878900	0.758100	0.391100
H301	H30	0.909900	0.808200	0.423800
H311	H31	0.757500	0.820400	0.467500
H321	H32	0.573200	0.779600	0.481600
H331	H33	0.051900	0.831500	0.258100
H341	H34	0.057000	0.784300	0.308100
H351	H35	0.937100	0.797000	0.297100
H361	H36	0.058100	0.694800	0.178400
H371	H37	0.927300	0.696900	0.179000
H381	H38	0.962600	0.654100	0.224400
H391	H39	0.093900	0.390600	0.303200
H401	H40	0.164100	0.396100	0.340200
H411	H41	0.227400	0.392700	0.295100
H421	H42	0.196200	0.606700	0.174000
H431	H43	0.326900	0.610900	0.177300
H441	H44	0.235500	0.610100	0.218500
H451	H45	0.743200	0.018800	0.134000
H461	H46	0.788600	0.046600	0.051400
H471	H47	0.673700	0.092700	0.998200
H481	H48	0.514200	0.109400	0.029300
H491	H49	0.250400	0.089800	0.180700
H501	H50	0.205000	0.054200	0.265400
H511	H51	0.329700	0.011200	0.312700
H521	H52	0.492500	0.998700	0.277400
H531	H53	0.976400	0.202500	0.037500
H541	H54	0.801300	0.156200	0.047300
H551	H55	0.631600	0.167100	0.083100
H561	H56	0.637000	0.222300	0.110100
H571	H57	0.878600	0.362600	0.118700
H581	H58	0.055900	0.410200	0.102400
H591	H59	0.221000	0.393300	0.068100
H601	H60	0.204200	0.332500	0.048700
H611	H61	0.693500	0.235000	0.285100
H621	H62	0.824700	0.203000	0.332300
H631	H63	0.996300	0.253500	0.323400
H641	H64	0.033200	0.336700	0.270400
H651	H65	0.913900	0.481600	0.136300
H661	H66	0.784600	0.509800	0.087100
H671	H67	0.616000	0.455000	0.098000
H681	H68	0.582800	0.372700	0.155200
H691	H69	0.769800	0.467700	0.870400
H701	H70	0.708000	0.445600	0.951200
H711	H71	0.812400	0.401900	0.011000
H721	H72	0.977200	0.381400	0.988400
H731	H73	0.270000	0.391100	0.850800
H741	H74	0.333700	0.423800	0.768000
H751	H75	0.225000	0.467500	0.712100
H761	H76	0.054800	0.481600	0.738800
H771	H77	0.310000	0.258100	0.910400
H781	H78	0.365100	0.308100	0.907600
H791	H79	0.234200	0.297100	0.905900
H801	H80	0.236500	0.178400	0.126800
H811	H81	0.106300	0.179000	0.124100
H821	H82	0.187000	0.224400	0.121500
H831	H83	0.397100	0.303200	0.306200
H841	H84	0.504300	0.340200	0.263700
H851	H85	0.522500	0.295100	0.312200
H861	H86	0.370200	0.174000	0.219300
H871	H87	0.504200	0.177300	0.211800
H881	H88	0.454000	0.218500	0.171400
H891	H89	0.877200	0.134000	0.847200
H901	H90	0.840000	0.051400	0.902000
H911	H91	0.671900	0.998200	0.909100
H921	H92	0.543500	0.029300	0.861300
H931	H93	0.431100	0.180700	0.729500
H941	H94	0.470400	0.265400	0.680400
H951	H95	0.642400	0.312700	0.676100
H961	H96	0.769900	0.277400	0.723900
H971	H97	0.013900	0.037500	0.760000
H981	H98	0.848600	0.047300	0.796500
H991	H99	0.714700	0.083100	0.749800
H1001	H100	0.747100	0.110100	0.667600
H1011	H101	0.997300	0.118700	0.518700
H1021	H102	0.158300	0.102400	0.487400
H1031	H103	0.289100	0.068100	0.538600
H1041	H104	0.252900	0.048700	0.618800
H1051	H105	0.978600	0.285100	0.479900
H1061	H106	0.157000	0.332300	0.464700
H1071	H107	0.319700	0.323400	0.423100
H1081	H108	0.303600	0.270400	0.392900
H1091	H109	0.050200	0.136300	0.382100
H1101	H110	0.871700	0.087100	0.403100
H1111	H111	0.714000	0.098000	0.447000
H1121	H112	0.738000	0.155200	0.472100
H1131	H113	0.640200	0.870400	0.661900
H1141	H114	0.659200	0.951200	0.603200
H1151	H115	0.823400	0.011000	0.587100
H1161	H116	0.965600	0.988400	0.630200
H1171	H117	0.120800	0.850800	0.758100
H1181	H118	0.101700	0.768000	0.808200
H1191	H119	0.937100	0.712100	0.820400
H1201	H120	0.793600	0.738800	0.779600
H1211	H121	0.220400	0.910400	0.831500
H1221	H122	0.272700	0.907600	0.784300
H1231	H123	0.140100	0.905900	0.797000
H1241	H124	0.363300	0.126800	0.694800
H1251	H125	0.230400	0.124100	0.696900
H1261	H126	0.308500	0.121500	0.654100
H1271	H127	0.703300	0.306200	0.390600
H1281	H128	0.768000	0.263700	0.396100
H1291	H129	0.834700	0.312200	0.392700
H1301	H130	0.589500	0.219300	0.606700
H1311	H131	0.716000	0.211800	0.610900
H1321	H132	0.625400	0.171400	0.610100
H1331	H133	0.275600	0.152800	0.981200
H1341	H134	0.258000	0.098000	0.953400
H1351	H135	0.419000	0.090900	0.907300
H1361	H136	0.595200	0.138700	0.890600
H1371	H137	0.839400	0.270500	0.910200
H1381	H138	0.849200	0.319600	0.945800
H1391	H139	0.681500	0.323900	0.988800
H1401	H140	0.506200	0.276100	0.001300
H1411	H141	0.226100	0.240000	0.797500
H1421	H142	0.354900	0.203500	0.843800
H1431	H143	0.535500	0.250200	0.832900
H1441	H144	0.585300	0.332400	0.777700
H1451	H145	0.484000	0.481300	0.637400
H1461	H146	0.354300	0.512600	0.589800
H1471	H147	0.172300	0.461400	0.606700
H1481	H148	0.128300	0.381200	0.667500
H1491	H149	0.541500	0.520100	0.765000
H1501	H150	0.378300	0.535300	0.797000
H1511	H151	0.257200	0.576900	0.746500
H1521	H152	0.303500	0.607100	0.663300
H1531	H153	0.567700	0.617900	0.518400
H1541	H154	0.725200	0.596900	0.490200
H1551	H155	0.839000	0.553000	0.545000
H1561	H156	0.789900	0.527900	0.627300
H1571	H157	0.697900	0.338100	0.532300
H1581	H158	0.737600	0.396800	0.554400
H1591	H159	0.589500	0.412900	0.598100
H1601	H160	0.404200	0.369800	0.618600
H1611	H161	0.121100	0.241900	0.608900
H1621	H162	0.090100	0.191800	0.576200
H1631	H163	0.242500	0.179600	0.532500
H1641	H164	0.426800	0.220400	0.518400
H1651	H165	0.948100	0.168500	0.741900
H1661	H166	0.943000	0.215700	0.691900
H1671	H167	0.062900	0.203000	0.702900
H1681	H168	0.941900	0.305200	0.821600
H1691	H169	0.072700	0.303100	0.821000
H1701	H170	0.037400	0.345900	0.775600
H1711	H171	0.906100	0.609400	0.696800
H1721	H172	0.835900	0.603900	0.659800
H1731	H173	0.772600	0.607300	0.704900
H1741	H174	0.803800	0.393300	0.826000
H1751	H175	0.673100	0.389100	0.822700
H1761	H176	0.764500	0.389900	0.781500
H1771	H177	0.256800	0.981200	0.866000
H1781	H178	0.211400	0.953400	0.948600
H1791	H179	0.326300	0.907300	0.001800
H1801	H180	0.485800	0.890600	0.970700
H1811	H181	0.749600	0.910200	0.819300
H1821	H182	0.795000	0.945800	0.734600
H1831	H183	0.670300	0.988800	0.687300
H1841	H184	0.507500	0.001300	0.722600
H1851	H185	0.023600	0.797500	0.962500
H1861	H186	0.198700	0.843800	0.952700
H1871	H187	0.368400	0.832900	0.916900
H1881	H188	0.363000	0.777700	0.889900
H1891	H189	0.121400	0.637400	0.881300
H1901	H190	0.944100	0.589800	0.897600
H1911	H191	0.779000	0.606700	0.931900
H1921	H192	0.795800	0.667500	0.951300
H1931	H193	0.306500	0.765000	0.714900
H1941	H194	0.175300	0.797000	0.667700
H1951	H195	0.003700	0.746500	0.676600
H1961	H196	0.966800	0.663300	0.729600
H1971	H197	0.086100	0.518400	0.863700
H1981	H198	0.215400	0.490200	0.912900
H1991	H199	0.384000	0.545000	0.902000
H2001	H200	0.417200	0.627300	0.844800
H2011	H201	0.230200	0.532300	0.129600
H2021	H202	0.292000	0.554400	0.048800
H2031	H203	0.187600	0.598100	0.989000
H2041	H204	0.022800	0.618600	0.011600
H2051	H205	0.730000	0.608900	0.149200
H2061	H206	0.666300	0.576200	0.232000
H2071	H207	0.775000	0.532500	0.287900
H2081	H208	0.945200	0.518400	0.261200
H2091	H209	0.690000	0.741900	0.089600
H2101	H210	0.634900	0.691900	0.092400
H2111	H211	0.765800	0.702900	0.094100
H2121	H212	0.763500	0.821600	0.873200
H2131	H213	0.893700	0.821000	0.875900
H2141	H214	0.813000	0.775600	0.878500
H2151	H215	0.602900	0.696800	0.693800
H2161	H216	0.495700	0.659800	0.736300
H2171	H217	0.477500	0.704900	0.687800
H2181	H218	0.629800	0.826000	0.780700
H2191	H219	0.495800	0.822700	0.788200
H2201	H220	0.546000	0.781500	0.828600
H2211	H221	0.122800	0.866000	0.152800
H2221	H222	0.160000	0.948600	0.098000
H2231	H223	0.328100	0.001800	0.090900
H2241	H224	0.456500	0.970700	0.138700
H2251	H225	0.568900	0.819300	0.270500
H2261	H226	0.529600	0.734600	0.319600
H2271	H227	0.357600	0.687300	0.323900
H2281	H228	0.230100	0.722600	0.276100
H2291	H229	0.986100	0.962500	0.240000
H2301	H230	0.151400	0.952700	0.203500
H2311	H231	0.285300	0.916900	0.250200
H2321	H232	0.252900	0.889900	0.332400
H2331	H233	0.002700	0.881300	0.481300
H2341	H234	0.841700	0.897600	0.512600
H2351	H235	0.710900	0.931900	0.461400
H2361	H236	0.747100	0.951300	0.381200
H2371	H237	0.021400	0.714900	0.520100
H2381	H238	0.843000	0.667700	0.535300
H2391	H239	0.680300	0.676600	0.576900
H2401	H240	0.696400	0.729600	0.607100
H2411	H241	0.949800	0.863700	0.617900
H2421	H242	0.128300	0.912900	0.596900
H2431	H243	0.286000	0.902000	0.553000
H2441	H244	0.262000	0.844800	0.527900
H2451	H245	0.359800	0.129600	0.338100
H2461	H246	0.340800	0.048800	0.396800
H2471	H247	0.176600	0.989000	0.412900
H2481	H248	0.034400	0.011600	0.369800
H2491	H249	0.879200	0.149200	0.241900
H2501	H250	0.898300	0.232000	0.191800
H2511	H251	0.062900	0.287900	0.179600
H2521	H252	0.206400	0.261200	0.220400
H2531	H253	0.779600	0.089600	0.168500
H2541	H254	0.727300	0.092400	0.215700
H2551	H255	0.859900	0.094100	0.203000
H2561	H256	0.636700	0.873200	0.305200
H2571	H257	0.769600	0.875900	0.303100
H2581	H258	0.691500	0.878500	0.345900
H2591	H259	0.296700	0.693800	0.609400
H2601	H260	0.232000	0.736300	0.603900
H2611	H261	0.165300	0.687800	0.607300
H2621	H262	0.410500	0.780700	0.393300
H2631	H263	0.284000	0.788200	0.389100
H2641	H264	0.374600	0.828600	0.389900
C11	C1	0.549350	0.818950	0.046200
C21	C2	0.659340	0.849650	0.036730
C31	C3	0.669790	0.882080	0.053410
C41	C4	0.572220	0.886420	0.081360
C51	C5	0.468010	0.857950	0.091320
C61	C6	0.451760	0.822420	0.074840
C71	C7	0.344410	0.791740	0.084810
C81	C8	0.239400	0.792420	0.117020
C91	C9	0.334240	0.759390	0.065270
C101	C10	0.227720	0.729080	0.071320
C111	C11	0.221810	0.699390	0.050660
C121	C12	0.323110	0.697440	0.024110
C131	C13	0.428030	0.725780	0.016690
C141	C14	0.436310	0.758370	0.036740
C151	C15	0.673620	0.690280	0.244320
C161	C16	0.701630	0.740970	0.207680
C171	C17	0.625240	0.762780	0.179660
C181	C18	0.516340	0.734440	0.186120
C191	C19	0.486400	0.685800	0.219200
C201	C20	0.563460	0.661270	0.249990
C211	C21	0.534540	0.610960	0.286440
C221	C22	0.420810	0.578970	0.292640
C231	C23	0.611030	0.589780	0.316890
C241	C24	0.587020	0.539330	0.356170
C251	C25	0.663970	0.520530	0.384320
C261	C26	0.773740	0.551610	0.374390
C271	C27	0.799780	0.599210	0.338170
C281	C28	0.720420	0.620780	0.308020
C291	C29	0.475790	0.446460	0.307790
C301	C30	0.505630	0.462860	0.255970
C311	C31	0.602990	0.453680	0.237010
C321	C32	0.675490	0.428070	0.267500
C331	C33	0.648520	0.410750	0.316690
C341	C34	0.548190	0.418980	0.339110
C351	C35	0.518070	0.402250	0.389940
C361	C36	0.588750	0.371020	0.424470
C371	C37	0.421050	0.414040	0.408690
C381	C38	0.388430	0.400000	0.459510
C391	C39	0.294540	0.412350	0.476330
C401	C40	0.226400	0.439250	0.443050
C411	C41	0.255100	0.453920	0.394120
C421	C42	0.353410	0.441890	0.375160
C431	C43	0.476820	0.682410	0.440450
C441	C44	0.362080	0.655420	0.451080
C451	C45	0.338070	0.620840	0.437530
C461	C46	0.427590	0.611110	0.410940
C471	C47	0.537810	0.636830	0.398800
C481	C48	0.566140	0.673640	0.412420
C491	C49	0.678720	0.701340	0.400280
C501	C50	0.774760	0.696290	0.367510
C511	C51	0.703000	0.734480	0.417880
C521	C52	0.816840	0.761480	0.409660
C531	C53	0.834900	0.791660	0.428560
C541	C54	0.743000	0.798710	0.455410
C551	C55	0.633540	0.774280	0.463860
C561	C56	0.608960	0.740680	0.446400
C571	C57	0.013700	0.797670	0.282470
C581	C58	0.984470	0.688670	0.199060
C591	C59	0.166670	0.405040	0.306030
C601	C60	0.248580	0.597360	0.196220
C611	C61	0.595550	0.046200	0.134850
C621	C62	0.696070	0.036730	0.113620
C631	C63	0.723200	0.053410	0.064510
C641	C64	0.653580	0.081360	0.032220
C651	C65	0.559330	0.091320	0.050730
C661	C66	0.526600	0.074840	0.102740
C671	C67	0.429220	0.084810	0.123450
C681	C68	0.356420	0.117020	0.090560
C691	C69	0.399510	0.065270	0.175340
C701	C70	0.299040	0.071320	0.199600
C711	C71	0.272470	0.050660	0.249950
C721	C72	0.347220	0.024110	0.278450
C731	C73	0.444720	0.016690	0.257530
C741	C74	0.473050	0.036740	0.204890
C751	C75	0.917940	0.244320	0.065400
C761	C76	0.909310	0.207680	0.051350
C771	C77	0.804900	0.179660	0.057560
C781	C78	0.702460	0.186120	0.079440
C791	C79	0.705600	0.219200	0.095000
C801	C80	0.813450	0.249990	0.088740
C811	C81	0.820980	0.286440	0.102600
C821	C82	0.713450	0.292640	0.128390
C831	C83	0.927920	0.316890	0.093330
C841	C84	0.943190	0.356170	0.104500
C851	C85	0.048290	0.384320	0.095150
C861	C86	0.148130	0.374390	0.074000
C871	C87	0.137950	0.338170	0.062620
C881	C88	0.028440	0.308020	0.071200
C891	C89	0.783580	0.307790	0.245750
C901	C90	0.761600	0.255970	0.281170
C911	C91	0.840000	0.237010	0.309310
C921	C92	0.942990	0.267500	0.304430
C931	C93	0.965210	0.316690	0.272560
C941	C94	0.887300	0.339110	0.241910
C951	C95	0.908010	0.389940	0.207810
C961	C96	0.013220	0.424470	0.204510
C971	C97	0.829740	0.408690	0.177270
C981	C98	0.847940	0.459510	0.140490
C991	C99	0.770870	0.476330	0.111320
C1001	C100	0.669450	0.443050	0.117700
C1011	C101	0.649220	0.394120	0.151960
C1021	C102	0.728570	0.375160	0.182950
C1031	C103	0.917270	0.440450	0.877140
C1041	C104	0.813160	0.451080	0.893500
C1051	C105	0.775600	0.437530	0.941630
C1061	C106	0.838530	0.410940	0.977950
C1071	C107	0.936610	0.398800	0.964370
C1081	C108	0.978560	0.412420	0.913940
C1091	C109	0.079000	0.400280	0.898380
C1101	C110	0.142270	0.367510	0.936200
C1111	C111	0.120880	0.417880	0.847640
C1121	C112	0.226500	0.409660	0.828860
C1131	C113	0.263460	0.428560	0.779780
C1141	C114	0.198410	0.455410	0.745880
C1151	C115	0.097400	0.463860	0.761860
C1161	C116	0.055360	0.446400	0.812920
C1171	C117	0.296170	0.282470	0.919860
C1181	C118	0.183530	0.199060	0.112270
C1191	C119	0.472700	0.306030	0.288930
C1201	C120	0.444800	0.196220	0.206420
C1211	C121	0.730400	0.134850	0.818950
C1221	C122	0.809690	0.113620	0.849650
C1231	C123	0.787710	0.064510	0.882080
C1241	C124	0.685800	0.032220	0.886420
C1251	C125	0.610060	0.050730	0.857950
C1261	C126	0.629340	0.102740	0.822420
C1271	C127	0.552670	0.123450	0.791740
C1281	C128	0.446980	0.090560	0.792420
C1291	C129	0.574850	0.175340	0.759390
C1301	C130	0.498640	0.199600	0.729080
C1311	C131	0.522420	0.249950	0.699390
C1321	C132	0.625670	0.278450	0.697440
C1331	C133	0.702250	0.257530	0.725780
C1341	C134	0.677940	0.204890	0.758370
C1351	C135	0.983340	0.065400	0.690280
C1361	C136	0.960660	0.051350	0.740970
C1371	C137	0.862460	0.057560	0.762780
C1381	C138	0.781900	0.079440	0.734440
C1391	C139	0.800600	0.095000	0.685800
C1401	C140	0.902190	0.088740	0.661270
C1411	C141	0.923580	0.102600	0.610960
C1421	C142	0.841840	0.128390	0.578970
C1431	C143	0.021250	0.093330	0.589780
C1441	C144	0.047690	0.104500	0.539330
C1451	C145	0.143440	0.095150	0.520530
C1461	C146	0.222130	0.074000	0.551610
C1471	C147	0.200570	0.062620	0.599210
C1481	C148	0.099640	0.071200	0.620780
C1491	C149	0.029330	0.245750	0.446460
C1501	C150	0.042770	0.281170	0.462860
C1511	C151	0.149310	0.309310	0.453680
C1521	C152	0.247420	0.304430	0.428070
C1531	C153	0.237770	0.272560	0.410750
C1541	C154	0.129210	0.241910	0.418980
C1551	C155	0.115820	0.207810	0.402250
C1561	C156	0.217730	0.204510	0.371020
C1571	C157	0.007010	0.177270	0.414040
C1581	C158	0.988430	0.140490	0.400000
C1591	C159	0.882190	0.111320	0.412350
C1601	C160	0.787150	0.117700	0.439250
C1611	C161	0.801180	0.151960	0.453920
C1621	C162	0.911520	0.182950	0.441890
C1631	C163	0.794410	0.877140	0.682410
C1641	C164	0.706660	0.893500	0.655420
C1651	C165	0.717230	0.941630	0.620840
C1661	C166	0.816480	0.977950	0.611110
C1671	C167	0.900980	0.964370	0.636830
C1681	C168	0.892500	0.913940	0.673640
C1691	C169	0.977380	0.898380	0.701340
C1701	C170	0.078470	0.936200	0.696290
C1711	C171	0.968520	0.847640	0.734480
C1721	C172	0.055360	0.828860	0.761480
C1731	C173	0.043240	0.779780	0.791660
C1741	C174	0.944290	0.745880	0.798710
C1751	C175	0.859260	0.761860	0.774280
C1761	C176	0.868280	0.812920	0.740680
C1771	C177	0.216030	0.919860	0.797670
C1781	C178	0.295800	0.112270	0.688670
C1791	C179	0.761630	0.288930	0.405040
C1801	C180	0.651220	0.206420	0.597360
C1811	C181	0.450650	0.181050	0.953800
C1821	C182	0.340660	0.150350	0.963270
C1831	C183	0.330210	0.117920	0.946590
C1841	C184	0.427780	0.113580	0.918640
C1851	C185	0.531990	0.142050	0.908680
C1861	C186	0.548240	0.177580	0.925160
C1871	C187	0.655590	0.208260	0.915190
C1881	C188	0.760600	0.207580	0.882980
C1891	C189	0.665760	0.240610	0.934730
C1901	C190	0.772280	0.270920	0.928680
C1911	C191	0.778190	0.300610	0.949340
C1921	C192	0.676890	0.302560	0.975890
C1931	C193	0.571970	0.274220	0.983310
C1941	C194	0.563690	0.241630	0.963260
C1951	C195	0.326380	0.309720	0.755680
C1961	C196	0.298370	0.259030	0.792320
C1971	C197	0.374760	0.237220	0.820340
C1981	C198	0.483660	0.265560	0.813880
C1991	C199	0.513600	0.314200	0.780800
C2001	C200	0.436540	0.338730	0.750010
C2011	C201	0.465460	0.389040	0.713560
C2021	C202	0.579190	0.421030	0.707360
C2031	C203	0.388970	0.410220	0.683110
C2041	C204	0.412980	0.460670	0.643830
C2051	C205	0.336030	0.479470	0.615680
C2061	C206	0.226260	0.448390	0.625610
C2071	C207	0.200220	0.400790	0.661830
C2081	C208	0.279580	0.379220	0.691980
C2091	C209	0.524210	0.553540	0.692210
C2101	C210	0.494370	0.537140	0.744030
C2111	C211	0.397010	0.546320	0.762990
C2121	C212	0.324510	0.571930	0.732500
C2131	C213	0.351480	0.589250	0.683310
C2141	C214	0.451810	0.581020	0.660890
C2151	C215	0.481930	0.597750	0.610060
C2161	C216	0.411250	0.628980	0.575530
C2171	C217	0.578950	0.585960	0.591310
C2181	C218	0.611570	0.600000	0.540490
C2191	C219	0.705460	0.587650	0.523670
C2201	C220	0.773600	0.560750	0.556950
C2211	C221	0.744900	0.546080	0.605880
C2221	C222	0.646590	0.558110	0.624840
C2231	C223	0.523180	0.317590	0.559550
C2241	C224	0.637920	0.344580	0.548920
C2251	C225	0.661930	0.379160	0.562470
C2261	C226	0.572410	0.388890	0.589060
C2271	C227	0.462190	0.363170	0.601200
C2281	C228	0.433860	0.326360	0.587580
C2291	C229	0.321280	0.298660	0.599720
C2301	C230	0.225240	0.303710	0.632490
C2311	C231	0.297000	0.265520	0.582120
C2321	C232	0.183160	0.238520	0.590340
C2331	C233	0.165100	0.208340	0.571440
C2341	C234	0.257000	0.201290	0.544590
C2351	C235	0.366460	0.225720	0.536140
C2361	C236	0.391040	0.259320	0.553600
C2371	C237	0.986300	0.202330	0.717530
C2381	C238	0.015530	0.311330	0.800940
C2391	C239	0.833330	0.594960	0.693970
C2401	C240	0.751420	0.402640	0.803780
C2411	C241	0.404450	0.953800	0.865150
C2421	C242	0.303930	0.963270	0.886380
C2431	C243	0.276800	0.946590	0.935490
C2441	C244	0.346420	0.918640	0.967780
C2451	C245	0.440670	0.908680	0.949270
C2461	C246	0.473400	0.925160	0.897260
C2471	C247	0.570780	0.915190	0.876550
C2481	C248	0.643580	0.882980	0.909440
C2491	C249	0.600490	0.934730	0.824660
C2501	C250	0.700960	0.928680	0.800400
C2511	C251	0.727530	0.949340	0.750050
C2521	C252	0.652780	0.975890	0.721550
C2531	C253	0.555280	0.983310	0.742470
C2541	C254	0.526950	0.963260	0.795110
C2551	C255	0.082060	0.755680	0.934600
C2561	C256	0.090690	0.792320	0.948650
C2571	C257	0.195100	0.820340	0.942440
C2581	C258	0.297540	0.813880	0.920560
C2591	C259	0.294400	0.780800	0.905000
C2601	C260	0.186550	0.750010	0.911260
C2611	C261	0.179020	0.713560	0.897400
C2621	C262	0.286550	0.707360	0.871610
C2631	C263	0.072080	0.683110	0.906670
C2641	C264	0.056810	0.643830	0.895500
C2651	C265	0.951710	0.615680	0.904850
C2661	C266	0.851870	0.625610	0.926000
C2671	C267	0.862050	0.661830	0.937380
C2681	C268	0.971560	0.691980	0.928800
C2691	C269	0.216420	0.692210	0.754250
C2701	C270	0.238400	0.744030	0.718830
C2711	C271	0.160000	0.762990	0.690690
C2721	C272	0.057010	0.732500	0.695570
C2731	C273	0.034790	0.683310	0.727440
C2741	C274	0.112700	0.660890	0.758090
C2751	C275	0.091990	0.610060	0.792190
C2761	C276	0.986780	0.575530	0.795490
C2771	C277	0.170260	0.591310	0.822730
C2781	C278	0.152060	0.540490	0.859510
C2791	C279	0.229130	0.523670	0.888680
C2801	C280	0.330550	0.556950	0.882300
C2811	C281	0.350780	0.605880	0.848040
C2821	C282	0.271430	0.624840	0.817050
C2831	C283	0.082730	0.559550	0.122860
C2841	C284	0.186840	0.548920	0.106500
C2851	C285	0.224400	0.562470	0.058370
C2861	C286	0.161470	0.589060	0.022050
C2871	C287	0.063390	0.601200	0.035630
C2881	C288	0.021440	0.587580	0.086060
C2891	C289	0.921000	0.599720	0.101620
C2901	C290	0.857730	0.632490	0.063800
C2911	C291	0.879120	0.582120	0.152360
C2921	C292	0.773500	0.590340	0.171140
C2931	C293	0.736540	0.571440	0.220220
C2941	C294	0.801590	0.544590	0.254120
C2951	C295	0.902600	0.536140	0.238140
C2961	C296	0.944640	0.553600	0.187080
C2971	C297	0.703830	0.717530	0.080140
C2981	C298	0.816470	0.800940	0.887730
C2991	C299	0.527300	0.693970	0.711070
C3001	C300	0.555200	0.803780	0.793580
C3011	C301	0.269600	0.865150	0.181050
C3021	C302	0.190310	0.886380	0.150350
C3031	C303	0.212290	0.935490	0.117920
C3041	C304	0.314200	0.967780	0.113580
C3051	C305	0.389940	0.949270	0.142050
C3061	C306	0.370660	0.897260	0.177580
C3071	C307	0.447330	0.876550	0.208260
C3081	C308	0.553020	0.909440	0.207580
C3091	C309	0.425150	0.824660	0.240610
C3101	C310	0.501360	0.800400	0.270920
C3111	C311	0.477580	0.750050	0.300610
C3121	C312	0.374330	0.721550	0.302560
C3131	C313	0.297750	0.742470	0.274220
C3141	C314	0.322060	0.795110	0.241630
C3151	C315	0.016660	0.934600	0.309720
C3161	C316	0.039340	0.948650	0.259030
C3171	C317	0.137540	0.942440	0.237220
C3181	C318	0.218100	0.920560	0.265560
C3191	C319	0.199400	0.905000	0.314200
C3201	C320	0.097810	0.911260	0.338730
C3211	C321	0.076420	0.897400	0.389040
C3221	C322	0.158160	0.871610	0.421030
C3231	C323	0.978750	0.906670	0.410220
C3241	C324	0.952310	0.895500	0.460670
C3251	C325	0.856560	0.904850	0.479470
C3261	C326	0.777870	0.926000	0.448390
C3271	C327	0.799430	0.937380	0.400790
C3281	C328	0.900360	0.928800	0.379220
C3291	C329	0.970670	0.754250	0.553540
C3301	C330	0.957230	0.718830	0.537140
C3311	C331	0.850690	0.690690	0.546320
C3321	C332	0.752580	0.695570	0.571930
C3331	C333	0.762230	0.727440	0.589250
C3341	C334	0.870790	0.758090	0.581020
C3351	C335	0.884180	0.792190	0.597750
C3361	C336	0.782270	0.795490	0.628980
C3371	C337	0.992990	0.822730	0.585960
C3381	C338	0.011570	0.859510	0.600000
C3391	C339	0.117810	0.888680	0.587650
C3401	C340	0.212850	0.882300	0.560750
C3411	C341	0.198820	0.848040	0.546080
C3421	C342	0.088480	0.817050	0.558110
C3431	C343	0.205590	0.122860	0.317590
C3441	C344	0.293340	0.106500	0.344580
C3451	C345	0.282770	0.058370	0.379160
C3461	C346	0.183520	0.022050	0.388890
C3471	C347	0.099020	0.035630	0.363170
C3481	C348	0.107500	0.086060	0.326360
C3491	C349	0.022620	0.101620	0.298660
C3501	C350	0.921530	0.063800	0.303710
C3511	C351	0.031480	0.152360	0.265520
C3521	C352	0.944640	0.171140	0.238520
C3531	C353	0.956760	0.220220	0.208340
C3541	C354	0.055710	0.254120	0.201290
C3551	C355	0.140740	0.238140	0.225720
C3561	C356	0.131720	0.187080	0.259320
C3571	C357	0.783970	0.080140	0.202330
C3581	C358	0.704200	0.887730	0.311330
C3591	C359	0.238370	0.711070	0.594960
C3601	C360	0.348780	0.793580	0.402640
N11	N1	0.541680	0.787520	0.027280
N21	N2	0.748470	0.669410	0.272800
N31	N3	0.380490	0.457850	0.325480
N41	N4	0.500000	0.715250	0.456250
N51	N5	0.568960	0.027280	0.185200
N61	N6	0.021270	0.272800	0.057790
N71	N7	0.705970	0.325480	0.216670
N81	N8	0.956250	0.456250	0.828500
N91	N9	0.754160	0.185200	0.787520
N101	N10	0.079060	0.057790	0.669410
N111	N11	0.922640	0.216670	0.457850
N121	N12	0.784750	0.828500	0.715250
N131	N13	0.458320	0.212480	0.972720
N141	N14	0.251530	0.330590	0.727200
N151	N15	0.619510	0.542150	0.674520
N161	N16	0.500000	0.284750	0.543750
N171	N17	0.431040	0.972720	0.814800
N181	N18	0.978730	0.727200	0.942210
N191	N19	0.294030	0.674520	0.783330
N201	N20	0.043750	0.543750	0.171500
N211	N21	0.245840	0.814800	0.212480
N221	N22	0.920940	0.942210	0.330590
N231	N23	0.077360	0.783330	0.542150
N241	N24	0.215250	0.171500	0.284750
O11	O1	0.228030	0.761510	0.163120
O21	O2	0.178570	0.821340	0.098030
O31	O3	0.424690	0.559770	0.264800
O41	O4	0.337720	0.572500	0.323340
O51	O5	0.555920	0.324670	0.440910
O61	O6	0.668780	0.391270	0.433830
O71	O7	0.777580	0.722760	0.321020
O81	O8	0.841160	0.668890	0.386010
O91	O9	0.006140	0.768300	0.258980
O101	O10	0.992160	0.717990	0.221510
O111	O11	0.188200	0.456960	0.276260
O121	O12	0.229560	0.544370	0.224290
O131	O13	0.391150	0.163120	0.075370
O141	O14	0.276600	0.098030	0.080630
O151	O15	0.689490	0.264800	0.175430
O161	O16	0.661060	0.323340	0.104160
O171	O17	0.996830	0.440910	0.234420
O181	O18	0.102610	0.433830	0.174900
O191	O19	0.098600	0.321020	0.956220
O201	O20	0.227170	0.386010	0.945100
O211	O21	0.265120	0.258980	0.972720
O221	O22	0.213670	0.221510	0.060500
O231	O23	0.464460	0.276260	0.266780
O241	O24	0.453850	0.224290	0.231340
O251	O25	0.466520	0.075370	0.761510
O261	O26	0.357230	0.080630	0.821340
O271	O27	0.864920	0.175430	0.559770
O281	O28	0.765220	0.104160	0.572500
O291	O29	0.231250	0.234420	0.324670
O301	O30	0.277510	0.174900	0.391270
O311	O31	0.054820	0.956220	0.722760
O321	O32	0.172270	0.945100	0.668890
O331	O33	0.237840	0.972720	0.768300
O341	O34	0.274170	0.060500	0.717990
O351	O35	0.731240	0.266780	0.456960
O361	O36	0.685190	0.231340	0.544370
O371	O37	0.771970	0.238490	0.836880
O381	O38	0.821430	0.178660	0.901970
O391	O39	0.575310	0.440230	0.735200
O401	O40	0.662280	0.427500	0.676660
O411	O41	0.444080	0.675330	0.559090
O421	O42	0.331220	0.608730	0.566170
O431	O43	0.222420	0.277240	0.678980
O441	O44	0.158840	0.331110	0.613990
O451	O45	0.993860	0.231700	0.741020
O461	O46	0.007840	0.282010	0.778490
O471	O47	0.811800	0.543040	0.723740
O481	O48	0.770440	0.455630	0.775710
O491	O49	0.608850	0.836880	0.924630
O501	O50	0.723400	0.901970	0.919370
O511	O51	0.310510	0.735200	0.824570
O521	O52	0.338940	0.676660	0.895840
O531	O53	0.003170	0.559090	0.765580
O541	O54	0.897390	0.566170	0.825100
O551	O55	0.901400	0.678980	0.043780
O561	O56	0.772830	0.613990	0.054900
O571	O57	0.734880	0.741020	0.027280
O581	O58	0.786330	0.778490	0.939500
O591	O59	0.535540	0.723740	0.733220
O601	O60	0.546150	0.775710	0.768660
O611	O61	0.533480	0.924630	0.238490
O621	O62	0.642770	0.919370	0.178660
O631	O63	0.135080	0.824570	0.440230
O641	O64	0.234780	0.895840	0.427500
O651	O65	0.768750	0.765580	0.675330
O661	O66	0.722490	0.825100	0.608730
O671	O67	0.945180	0.043780	0.277240
O681	O68	0.827730	0.054900	0.331110
O691	O69	0.762160	0.027280	0.231700
O701	O70	0.725830	0.939500	0.282010
O711	O71	0.268760	0.733220	0.543040
O721	O72	0.314810	0.768660	0.455630
