data_IPIFAP_clean_PM
_symmetry_space_group_name_H-M	'P1'
_cell_length_a	11.346000
_cell_length_b	11.759000
_cell_length_c	11.963000
_cell_angle_alpha	119.437000
_cell_angle_beta	90.000000
_cell_angle_gamma	90.000000
_symmetry_Int_Tables_number 1

loop_
_symmetry_equiv_pos_as_xyz
'x,y,z'

loop_
_atom_site_label
_atom_site_type_symbol
_atom_site_fract_x
_atom_site_fract_y
_atom_site_fract_z
Ag11	Ag1	0.524920	0.141130	0.492620
Ag21	Ag2	0.024920	0.858870	0.507380
Ag31	Ag3	0.024920	0.351490	0.492620
Ag41	Ag4	0.524920	0.648510	0.507380
Ag51	Ag5	0.701760	0.173920	0.000000
Ag61	Ag6	0.201760	0.826080	0.000000
H11	H1	0.818800	0.086800	0.571400
H21	H2	0.775100	0.957800	0.451800
H31	H3	0.581200	0.870900	0.457200
H41	H4	0.502500	0.945100	0.580200
H51	H5	0.571200	0.142100	0.760200
H61	H6	0.695600	0.198500	0.756600
H71	H7	0.666400	0.871200	0.781000
H81	H8	0.553500	0.945200	0.774800
H91	H9	0.862000	0.957800	0.775000
H101	H10	0.872600	0.086400	0.766600
H111	H11	0.792500	0.759300	0.592800
H121	H12	0.758400	0.758200	0.465200
H131	H13	0.318800	0.913200	0.428600
H141	H14	0.275100	0.042200	0.548200
H151	H15	0.081200	0.129100	0.542800
H161	H16	0.002500	0.054900	0.419800
H171	H17	0.071200	0.857900	0.239800
H181	H18	0.195600	0.801500	0.243400
H191	H19	0.166400	0.128800	0.219000
H201	H20	0.053500	0.054800	0.225200
H211	H21	0.362000	0.042200	0.225000
H221	H22	0.372600	0.913600	0.233400
H231	H23	0.292500	0.240700	0.407200
H241	H24	0.258400	0.241800	0.534800
H251	H25	0.318800	0.484600	0.571400
H261	H26	0.275100	0.494000	0.451800
H271	H27	0.081200	0.586300	0.457200
H281	H28	0.002500	0.635100	0.580200
H291	H29	0.071200	0.618100	0.760200
H301	H30	0.195600	0.558100	0.756600
H311	H31	0.166400	0.909800	0.781000
H321	H32	0.053500	0.829600	0.774800
H331	H33	0.362000	0.817200	0.775000
H341	H34	0.372600	0.680200	0.766600
H351	H35	0.292500	0.833500	0.592800
H361	H36	0.258400	0.707000	0.465200
H371	H37	0.818800	0.515400	0.428600
H381	H38	0.775100	0.506000	0.548200
H391	H39	0.581200	0.413700	0.542800
H401	H40	0.502500	0.364900	0.419800
H411	H41	0.571200	0.381900	0.239800
H421	H42	0.695600	0.441900	0.243400
H431	H43	0.666400	0.090200	0.219000
H441	H44	0.553500	0.170400	0.225200
H451	H45	0.862000	0.182800	0.225000
H461	H46	0.872600	0.319800	0.233400
H471	H47	0.792500	0.166500	0.407200
H481	H48	0.758400	0.293000	0.534800
C11	C1	0.773600	0.007600	0.544800
C21	C2	0.583000	0.922310	0.550220
C31	C3	0.651400	0.118540	0.729480
C41	C4	0.633900	0.921970	0.744340
C51	C5	0.826400	0.007680	0.738960
C61	C6	0.757600	0.810580	0.557960
C71	C7	0.273600	0.992400	0.455200
C81	C8	0.083000	0.077690	0.449780
C91	C9	0.151400	0.881460	0.270520
C101	C10	0.133900	0.078030	0.255660
C111	C11	0.326400	0.992320	0.261040
C121	C12	0.257600	0.189420	0.442040
C131	C13	0.273600	0.537200	0.544800
C141	C14	0.083000	0.627910	0.550220
C151	C15	0.151400	0.610940	0.729480
C161	C16	0.133900	0.822370	0.744340
C171	C17	0.326400	0.731280	0.738960
C181	C18	0.257600	0.747380	0.557960
C191	C19	0.773600	0.462800	0.455200
C201	C20	0.583000	0.372090	0.449780
C211	C21	0.651400	0.389060	0.270520
C221	C22	0.633900	0.177630	0.255660
C231	C23	0.826400	0.268720	0.261040
C241	C24	0.757600	0.252620	0.442040
N11	N1	0.650900	0.042320	0.588440
N21	N2	0.705100	0.043380	0.787600
N31	N3	0.634200	0.842600	0.603000
N41	N4	0.829200	0.929750	0.597500
N51	N5	0.150900	0.957680	0.411560
N61	N6	0.205100	0.956620	0.212400
N71	N7	0.134200	0.157400	0.397000
N81	N8	0.329200	0.070250	0.402500
N91	N9	0.150900	0.546120	0.588440
N101	N10	0.205100	0.744220	0.787600
N111	N11	0.134200	0.760400	0.603000
N121	N12	0.329200	0.667750	0.597500
N131	N13	0.650900	0.453880	0.411560
N141	N14	0.705100	0.255780	0.212400
N151	N15	0.634200	0.239600	0.397000
N161	N16	0.829200	0.332250	0.402500
