data_IPOWOA_clean_PM
_symmetry_space_group_name_H-M	'P1'
_cell_length_a	8.397100
_cell_length_b	9.525700
_cell_length_c	27.130000
_cell_angle_alpha	83.107000
_cell_angle_beta	81.097300
_cell_angle_gamma	63.847600
_symmetry_Int_Tables_number 1

loop_
_symmetry_equiv_pos_as_xyz
'x,y,z'

loop_
_atom_site_label
_atom_site_type_symbol
_atom_site_fract_x
_atom_site_fract_y
_atom_site_fract_z
Cu11	Cu1	0.393960	0.864470	0.775590
Cu21	Cu2	0.047210	0.289260	0.581820
Cu31	Cu3	0.034020	0.635530	0.724410
Cu41	Cu4	0.918290	0.210740	0.918180
Cu51	Cu5	0.606040	0.135530	0.224410
Cu61	Cu6	0.952790	0.710740	0.418180
Cu71	Cu7	0.965980	0.364470	0.275590
Cu81	Cu8	0.081710	0.789260	0.081820
Cu91	Cu9	0.737890	0.250000	0.750000
Cu101	Cu10	0.262110	0.750000	0.250000
H11	H1	0.463300	0.697200	0.691400
H21	H2	0.531200	0.595900	0.617700
H31	H3	0.756000	0.558600	0.558000
H41	H4	0.520400	0.785300	0.549100
H51	H5	0.442200	0.017700	0.577700
H61	H6	0.347600	0.860200	0.627400
H71	H7	0.708900	0.062100	0.549700
H81	H8	0.851900	0.802800	0.808600
H91	H9	0.744800	0.904100	0.882300
H101	H10	0.872600	0.941400	0.942000
H111	H11	0.854800	0.714700	0.950900
H121	H12	0.037600	0.482300	0.922300
H131	H13	0.835200	0.639800	0.872600
H141	H14	0.320700	0.437900	0.950300
H151	H15	0.536700	0.302800	0.308600
H161	H16	0.468800	0.404100	0.382300
H171	H17	0.244000	0.441400	0.442000
H181	H18	0.479600	0.214700	0.450900
H191	H19	0.557800	0.982300	0.422300
H201	H20	0.652400	0.139800	0.372600
H211	H21	0.291100	0.937900	0.450300
H221	H22	0.148100	0.197200	0.191400
H231	H23	0.255200	0.095900	0.117700
H241	H24	0.127400	0.058600	0.058000
H251	H25	0.145200	0.285300	0.049100
H261	H26	0.962400	0.517700	0.077700
H271	H27	0.164800	0.360200	0.127400
H281	H28	0.679300	0.562100	0.049700
C11	C1	0.548240	0.725770	0.668550
C21	C2	0.633840	0.598670	0.629850
C31	C3	0.738980	0.635000	0.581840
C41	C4	0.621400	0.797430	0.558570
C51	C5	0.534490	0.931090	0.595130
C61	C6	0.434170	0.882680	0.641380
C71	C7	0.684800	0.721910	0.700890
C81	C8	0.725810	0.437260	0.655920
C91	C9	0.925670	0.620140	0.586520
C101	C10	0.712740	0.835470	0.509050
C111	C11	0.647650	0.000630	0.611870
C121	C12	0.317550	0.022820	0.672880
C131	C13	0.942560	0.774230	0.831450
C141	C14	0.862360	0.901330	0.870150
C151	C15	0.955820	0.865000	0.918160
C161	C16	0.977400	0.702570	0.941430
C171	C17	0.060710	0.568910	0.904870
C181	C18	0.958230	0.617320	0.858620
C191	C19	0.107600	0.778090	0.799110
C201	C20	0.818990	0.062740	0.844080
C211	C21	0.132330	0.879860	0.913480
C221	C22	0.057260	0.664530	0.990950
C231	C23	0.260150	0.499370	0.888130
C241	C24	0.013250	0.477180	0.827120
C251	C25	0.451760	0.274230	0.331450
C261	C26	0.366160	0.401330	0.370150
C271	C27	0.261020	0.365000	0.418160
C281	C28	0.378600	0.202570	0.441430
C291	C29	0.465510	0.068910	0.404870
C301	C30	0.565830	0.117320	0.358620
C311	C31	0.315200	0.278090	0.299110
C321	C32	0.274190	0.562740	0.344080
C331	C33	0.074330	0.379860	0.413480
C341	C34	0.287260	0.164530	0.490950
C351	C35	0.352350	0.999370	0.388130
C361	C36	0.682450	0.977180	0.327120
C371	C37	0.057440	0.225770	0.168550
C381	C38	0.137640	0.098670	0.129850
C391	C39	0.044180	0.135000	0.081840
C401	C40	0.022600	0.297430	0.058570
C411	C41	0.939290	0.431090	0.095130
C421	C42	0.041770	0.382680	0.141380
C431	C43	0.892400	0.221910	0.200890
C441	C44	0.181010	0.937260	0.155920
C451	C45	0.867670	0.120140	0.086520
C461	C46	0.942740	0.335470	0.009050
C471	C47	0.739850	0.500630	0.111870
C481	C48	0.986750	0.522820	0.172880
O11	O1	0.633230	0.792770	0.740970
O21	O2	0.847930	0.639180	0.687360
O31	O3	0.659850	0.422340	0.699360
O41	O4	0.850160	0.324080	0.633000
O51	O5	0.054850	0.483210	0.589490
O61	O6	0.948750	0.740880	0.584020
O71	O7	0.786040	0.727400	0.479120
O81	O8	0.706430	0.970700	0.499240
O91	O9	0.711370	0.081790	0.578070
O101	O10	0.663190	0.998380	0.655640
O111	O11	0.248670	0.154300	0.650160
O121	O12	0.280790	0.003580	0.720040
O131	O13	0.166970	0.707230	0.759030
O141	O14	0.174470	0.860820	0.812640
O151	O15	0.781550	0.077660	0.800640
O161	O16	0.807240	0.175920	0.867000
O171	O17	0.127550	0.016790	0.910510
O181	O18	0.273650	0.759120	0.915980
O191	O19	0.992560	0.772600	0.020880
O201	O20	0.176370	0.529300	0.000760
O211	O21	0.371230	0.418210	0.921930
O221	O22	0.317210	0.501620	0.844360
O231	O23	0.053130	0.345700	0.849840
O241	O24	0.004410	0.496420	0.779960
O251	O25	0.366770	0.207230	0.259030
O261	O26	0.152070	0.360820	0.312640
O271	O27	0.340150	0.577660	0.300640
O281	O28	0.149840	0.675920	0.367000
O291	O29	0.945150	0.516790	0.410510
O301	O30	0.051250	0.259120	0.415980
O311	O31	0.213960	0.272600	0.520880
O321	O32	0.293570	0.029300	0.500760
O331	O33	0.288630	0.918210	0.421930
O341	O34	0.336810	0.001620	0.344360
O351	O35	0.751330	0.845700	0.349840
O361	O36	0.719210	0.996420	0.279960
O371	O37	0.833030	0.292770	0.240970
O381	O38	0.825530	0.139180	0.187360
O391	O39	0.218450	0.922340	0.199360
O401	O40	0.192760	0.824080	0.133000
O411	O41	0.872450	0.983210	0.089490
O421	O42	0.726350	0.240880	0.084020
O431	O43	0.007440	0.227400	0.979120
O441	O44	0.823630	0.470700	0.999240
O451	O45	0.628770	0.581790	0.078070
O461	O46	0.682790	0.498380	0.155640
O471	O47	0.946870	0.654300	0.150160
O481	O48	0.995590	0.503580	0.220040
