data_IQABEJ_clean_PM
_symmetry_space_group_name_H-M	'P1'
_cell_length_a	9.481000
_cell_length_b	15.126000
_cell_length_c	15.232000
_cell_angle_alpha	64.815000
_cell_angle_beta	78.717000
_cell_angle_gamma	78.977000
_symmetry_Int_Tables_number 1

loop_
_symmetry_equiv_pos_as_xyz
'x,y,z'

loop_
_atom_site_label
_atom_site_type_symbol
_atom_site_fract_x
_atom_site_fract_y
_atom_site_fract_z
Co11	Co1	0.089690	0.397440	0.008430
Co21	Co2	0.592890	0.007260	0.398880
Co31	Co3	0.800150	0.421100	0.185810
Co41	Co4	0.298000	0.185470	0.419060
Co51	Co5	0.243750	0.091280	0.907500
S11	S1	0.959500	0.433600	0.800130
S21	S2	0.464100	0.797700	0.435380
O11	O1	0.088200	0.258500	0.005600
O21	O2	0.033700	0.153400	0.953400
O31	O3	0.033500	0.365900	0.757100
O41	O4	0.055100	0.454700	0.852600
O51	O5	0.889600	0.521700	0.732200
O61	O6	0.388600	0.484900	0.854400
O71	O7	0.313700	0.357300	0.987800
O81	O8	0.545900	0.953700	0.153900
O91	O9	0.594800	0.003700	0.262100
O101	O10	0.556700	0.852900	0.456500
O111	O11	0.541400	0.755400	0.367900
O121	O12	0.392800	0.728600	0.522500
O131	O13	0.892700	0.854000	0.487500
O141	O14	0.818100	0.987600	0.359400
O151	O15	0.877500	0.454100	0.040800
H11	H1	0.809200	0.445000	0.005500
O161	O16	0.377700	0.039600	0.453600
H21	H2	0.310800	0.002800	0.445000
N11	N1	0.108400	0.331900	0.156800
N21	N2	0.986800	0.327000	0.224500
N31	N3	0.172900	0.239100	0.304100
N41	N4	0.488700	0.223800	0.326200
N51	N5	0.606800	0.155900	0.332100
N61	N6	0.675200	0.305500	0.238800
C11	C1	0.031400	0.271700	0.309700
H31	H3	0.970300	0.256600	0.368600
C21	C2	0.215300	0.278000	0.207300
H41	H4	0.309900	0.268100	0.178900
C31	C3	0.716300	0.207500	0.279000
H51	H5	0.811100	0.178900	0.270700
C41	C4	0.531500	0.310600	0.270900
H61	H6	0.469700	0.369400	0.255500
C51	C5	0.853600	0.279000	0.964400
C61	C6	0.822100	0.370300	0.890600
C71	C7	0.678700	0.412200	0.877600
H71	H7	0.658900	0.472300	0.825800
C81	C8	0.565700	0.363200	0.942900
C91	C9	0.596100	0.272700	0.019400
H81	H8	0.521300	0.240200	0.063800
C101	C10	0.738400	0.231600	0.028900
H91	H9	0.758100	0.170700	0.079600
C111	C11	0.003300	0.226000	0.973500
C121	C12	0.409800	0.406600	0.926500
C131	C13	0.359100	0.960600	0.279300
C141	C14	0.325500	0.887300	0.372600
C151	C15	0.181600	0.877800	0.413200
H101	H10	0.160300	0.827700	0.474200
C161	C16	0.069500	0.941300	0.364700
C171	C17	0.101600	0.015900	0.274000
H111	H11	0.027400	0.059500	0.240700
C181	C18	0.245500	0.025100	0.233000
H121	H12	0.266100	0.076300	0.172500
C191	C19	0.512300	0.973800	0.229300
C201	C20	0.914300	0.926400	0.407900
Co61	Co6	0.910310	0.602560	0.991570
Co71	Co7	0.407110	0.992740	0.601120
Co81	Co8	0.199850	0.578900	0.814190
Co91	Co9	0.702000	0.814530	0.580940
Co101	Co10	0.756250	0.908720	0.092500
S31	S3	0.040500	0.566400	0.199870
S41	S4	0.535900	0.202300	0.564620
O171	O17	0.911800	0.741500	0.994400
O181	O18	0.966300	0.846600	0.046600
O191	O19	0.966500	0.634100	0.242900
O201	O20	0.944900	0.545300	0.147400
O211	O21	0.110400	0.478300	0.267800
O221	O22	0.611400	0.515100	0.145600
O231	O23	0.686300	0.642700	0.012200
O241	O24	0.454100	0.046300	0.846100
O251	O25	0.405200	0.996300	0.737900
O261	O26	0.443300	0.147100	0.543500
O271	O27	0.458600	0.244600	0.632100
O281	O28	0.607200	0.271400	0.477500
O291	O29	0.107300	0.146000	0.512500
O301	O30	0.181900	0.012400	0.640600
O311	O31	0.122500	0.545900	0.959200
H131	H13	0.190800	0.555000	0.994500
O321	O32	0.622300	0.960400	0.546400
H141	H14	0.689200	0.997200	0.555000
N71	N7	0.891600	0.668100	0.843200
N81	N8	0.013200	0.673000	0.775500
N91	N9	0.827100	0.760900	0.695900
N101	N10	0.511300	0.776200	0.673800
N111	N11	0.393200	0.844100	0.667900
N121	N12	0.324800	0.694500	0.761200
C211	C21	0.968600	0.728300	0.690300
H151	H15	0.029700	0.743400	0.631400
C221	C22	0.784700	0.722000	0.792700
H161	H16	0.690100	0.731900	0.821100
C231	C23	0.283700	0.792500	0.721000
H171	H17	0.188900	0.821100	0.729300
C241	C24	0.468500	0.689400	0.729100
H181	H18	0.530300	0.630600	0.744500
C251	C25	0.146400	0.721000	0.035600
C261	C26	0.177900	0.629700	0.109400
C271	C27	0.321300	0.587800	0.122400
H191	H19	0.341100	0.527700	0.174200
C281	C28	0.434300	0.636800	0.057100
C291	C29	0.403900	0.727300	0.980600
H201	H20	0.478700	0.759800	0.936200
C301	C30	0.261600	0.768400	0.971100
H211	H21	0.241900	0.829300	0.920400
C311	C31	0.996700	0.774000	0.026500
C321	C32	0.590200	0.593400	0.073500
C331	C33	0.640900	0.039400	0.720700
C341	C34	0.674500	0.112700	0.627400
C351	C35	0.818400	0.122200	0.586800
H221	H22	0.839700	0.172300	0.525800
C361	C36	0.930500	0.058700	0.635300
C371	C37	0.898400	0.984100	0.726000
H231	H23	0.972600	0.940500	0.759300
C381	C38	0.754500	0.974900	0.767000
H241	H24	0.733900	0.923700	0.827500
C391	C39	0.487700	0.026200	0.770700
C401	C40	0.085700	0.073600	0.592100
