data_IQEKOG_clean_PM
_symmetry_space_group_name_H-M	'P1'
_cell_length_a	18.087000
_cell_length_b	24.867000
_cell_length_c	17.611000
_cell_angle_alpha	90.000000
_cell_angle_beta	90.000000
_cell_angle_gamma	90.000000
_symmetry_Int_Tables_number 1

loop_
_symmetry_equiv_pos_as_xyz
'x,y,z'

loop_
_atom_site_label
_atom_site_type_symbol
_atom_site_fract_x
_atom_site_fract_y
_atom_site_fract_z
Zn11	Zn1	0.036420	0.564370	0.185930
Zn21	Zn2	0.937140	0.318040	0.240360
C11	C1	0.024700	0.517100	0.341900
C21	C2	0.835300	0.183900	0.268300
C31	C3	0.985000	0.438400	0.178600
C41	C4	0.038000	0.441000	0.972300
H11	H1	0.081000	0.447300	0.942600
C51	C5	0.915600	0.417700	0.978900
H21	H2	0.870400	0.408300	0.954800
C61	C6	0.093900	0.132600	0.300500
C71	C7	0.966700	0.390200	0.367500
C81	C8	0.029600	0.168300	0.290900
C91	C9	0.978200	0.422300	0.298500
C101	C10	0.023900	0.222800	0.276000
C111	C11	0.004100	0.474100	0.288400
C121	C12	0.913100	0.189200	0.276800
C131	C13	0.981500	0.432500	0.094400
C141	C14	0.043700	0.443400	0.049700
H31	H3	0.089400	0.452500	0.072900
C151	C15	0.917400	0.418000	0.057700
H41	H4	0.874700	0.408200	0.086000
C161	C16	0.711700	0.177500	0.313800
H51	H5	0.681200	0.175500	0.357600
C171	C17	0.080200	0.264400	0.265900
C181	C18	0.799800	0.183900	0.203000
H61	H6	0.828900	0.184800	0.158100
C191	C19	0.721400	0.182800	0.193500
H71	H7	0.700200	0.186300	0.144400
C201	C20	0.786200	0.180400	0.323900
H81	H8	0.804300	0.180000	0.374600
N11	N1	0.965100	0.400000	0.228200
N21	N2	0.009300	0.484200	0.211800
N31	N3	0.959600	0.148200	0.292400
N41	N4	0.951800	0.236400	0.266200
N51	N5	0.681200	0.177200	0.250100
N61	N6	0.972200	0.429600	0.935500
O11	O1	0.946900	0.342200	0.359600
O21	O2	0.977800	0.412600	0.432000
O31	O3	0.045000	0.560900	0.316900
O41	O4	0.017600	0.507400	0.413400
H91	H9	0.972600	0.503400	0.423900
O51	O5	0.080600	0.084500	0.308500
O61	O6	0.158600	0.153500	0.300900
O71	O7	0.063200	0.310100	0.246200
O81	O8	0.148700	0.251000	0.278100
H101	H10	0.170900	0.248000	0.236400
Zn31	Zn3	0.463580	0.935630	0.185930
Zn41	Zn4	0.562860	0.181960	0.240360
C211	C21	0.475300	0.982900	0.341900
C221	C22	0.664700	0.316100	0.268300
C231	C23	0.515000	0.061600	0.178600
C241	C24	0.462000	0.059000	0.972300
H111	H11	0.419000	0.052700	0.942600
C251	C25	0.584400	0.082300	0.978900
H121	H12	0.629600	0.091700	0.954800
C261	C26	0.406100	0.367400	0.300500
C271	C27	0.533300	0.109800	0.367500
C281	C28	0.470400	0.331700	0.290900
C291	C29	0.521800	0.077700	0.298500
C301	C30	0.476100	0.277200	0.276000
C311	C31	0.495900	0.025900	0.288400
C321	C32	0.586900	0.310800	0.276800
C331	C33	0.518500	0.067500	0.094400
C341	C34	0.456300	0.056600	0.049700
H131	H13	0.410600	0.047500	0.072900
C351	C35	0.582600	0.082000	0.057700
H141	H14	0.625300	0.091800	0.086000
C361	C36	0.788300	0.322500	0.313800
H151	H15	0.818800	0.324500	0.357600
C371	C37	0.419800	0.235600	0.265900
C381	C38	0.700200	0.316100	0.203000
H161	H16	0.671100	0.315200	0.158100
C391	C39	0.778600	0.317200	0.193500
H171	H17	0.799800	0.313700	0.144400
C401	C40	0.713800	0.319600	0.323900
H181	H18	0.695700	0.320000	0.374600
N71	N7	0.534900	0.100000	0.228200
N81	N8	0.490700	0.015800	0.211800
N91	N9	0.540400	0.351800	0.292400
N101	N10	0.548200	0.263600	0.266200
N111	N11	0.818800	0.322800	0.250100
N121	N12	0.527800	0.070400	0.935500
O91	O9	0.553100	0.157800	0.359600
O101	O10	0.522200	0.087400	0.432000
O111	O11	0.455000	0.939100	0.316900
O121	O12	0.482400	0.992600	0.413400
H191	H19	0.527400	0.996600	0.423900
O131	O13	0.419400	0.415500	0.308500
O141	O14	0.341400	0.346500	0.300900
O151	O15	0.436800	0.189900	0.246200
O161	O16	0.351300	0.249000	0.278100
H201	H20	0.329100	0.252000	0.236400
Zn51	Zn5	0.963580	0.064370	0.314070
Zn61	Zn6	0.062860	0.818040	0.259640
C411	C41	0.975300	0.017100	0.158100
C421	C42	0.164700	0.683900	0.231700
C431	C43	0.015000	0.938400	0.321400
C441	C44	0.962000	0.941000	0.527700
H211	H21	0.919000	0.947300	0.557400
C451	C45	0.084400	0.917700	0.521100
H221	H22	0.129600	0.908300	0.545200
C461	C46	0.906100	0.632600	0.199500
C471	C47	0.033300	0.890200	0.132500
C481	C48	0.970400	0.668300	0.209100
C491	C49	0.021800	0.922300	0.201500
C501	C50	0.976100	0.722800	0.224000
C511	C51	0.995900	0.974100	0.211600
C521	C52	0.086900	0.689200	0.223200
C531	C53	0.018500	0.932500	0.405600
C541	C54	0.956300	0.943400	0.450300
H231	H23	0.910600	0.952500	0.427100
C551	C55	0.082600	0.918000	0.442300
H241	H24	0.125300	0.908200	0.414000
C561	C56	0.288300	0.677500	0.186200
H251	H25	0.318800	0.675500	0.142400
C571	C57	0.919800	0.764400	0.234100
C581	C58	0.200200	0.683900	0.297000
H261	H26	0.171100	0.684800	0.341900
C591	C59	0.278600	0.682800	0.306500
H271	H27	0.299800	0.686300	0.355600
C601	C60	0.213800	0.680400	0.176100
H281	H28	0.195700	0.680000	0.125400
N131	N13	0.034900	0.900000	0.271800
N141	N14	0.990700	0.984200	0.288200
N151	N15	0.040400	0.648200	0.207600
N161	N16	0.048200	0.736400	0.233800
N171	N17	0.318800	0.677200	0.249900
N181	N18	0.027800	0.929600	0.564500
O171	O17	0.053100	0.842200	0.140400
O181	O18	0.022200	0.912600	0.068000
O191	O19	0.955000	0.060900	0.183100
O201	O20	0.982400	0.007400	0.086600
H291	H29	0.027400	0.003400	0.076100
O211	O21	0.919400	0.584500	0.191500
O221	O22	0.841400	0.653500	0.199100
O231	O23	0.936800	0.810100	0.253800
O241	O24	0.851300	0.751000	0.221900
H301	H30	0.829100	0.748000	0.263600
Zn71	Zn7	0.536420	0.435630	0.314070
Zn81	Zn8	0.437140	0.681960	0.259640
C611	C61	0.524700	0.482900	0.158100
C621	C62	0.335300	0.816100	0.231700
C631	C63	0.485000	0.561600	0.321400
C641	C64	0.538000	0.559000	0.527700
H311	H31	0.581000	0.552700	0.557400
C651	C65	0.415600	0.582300	0.521100
H321	H32	0.370400	0.591700	0.545200
C661	C66	0.593900	0.867400	0.199500
C671	C67	0.466700	0.609800	0.132500
C681	C68	0.529600	0.831700	0.209100
C691	C69	0.478200	0.577700	0.201500
C701	C70	0.523900	0.777200	0.224000
C711	C71	0.504100	0.525900	0.211600
C721	C72	0.413100	0.810800	0.223200
C731	C73	0.481500	0.567500	0.405600
C741	C74	0.543700	0.556600	0.450300
H331	H33	0.589400	0.547500	0.427100
C751	C75	0.417400	0.582000	0.442300
H341	H34	0.374700	0.591800	0.414000
C761	C76	0.211700	0.822500	0.186200
H351	H35	0.181200	0.824500	0.142400
C771	C77	0.580200	0.735600	0.234100
C781	C78	0.299800	0.816100	0.297000
H361	H36	0.328900	0.815200	0.341900
C791	C79	0.221400	0.817200	0.306500
H371	H37	0.200200	0.813700	0.355600
C801	C80	0.286200	0.819600	0.176100
H381	H38	0.304300	0.820000	0.125400
N191	N19	0.465100	0.600000	0.271800
N201	N20	0.509300	0.515800	0.288200
N211	N21	0.459600	0.851800	0.207600
N221	N22	0.451800	0.763600	0.233800
N231	N23	0.181200	0.822800	0.249900
N241	N24	0.472200	0.570400	0.564500
O251	O25	0.446900	0.657800	0.140400
O261	O26	0.477800	0.587400	0.068000
O271	O27	0.545000	0.439100	0.183100
O281	O28	0.517600	0.492600	0.086600
H391	H39	0.472600	0.496600	0.076100
O291	O29	0.580600	0.915500	0.191500
O301	O30	0.658600	0.846500	0.199100
O311	O31	0.563200	0.689900	0.253800
O321	O32	0.648700	0.749000	0.221900
H401	H40	0.670900	0.752000	0.263600
Zn91	Zn9	0.963580	0.435630	0.814070
Zn101	Zn10	0.062860	0.681960	0.759640
C811	C81	0.975300	0.482900	0.658100
C821	C82	0.164700	0.816100	0.731700
C831	C83	0.015000	0.561600	0.821400
C841	C84	0.962000	0.559000	0.027700
H411	H41	0.919000	0.552700	0.057400
C851	C85	0.084400	0.582300	0.021100
H421	H42	0.129600	0.591700	0.045200
C861	C86	0.906100	0.867400	0.699500
C871	C87	0.033300	0.609800	0.632500
C881	C88	0.970400	0.831700	0.709100
C891	C89	0.021800	0.577700	0.701500
C901	C90	0.976100	0.777200	0.724000
C911	C91	0.995900	0.525900	0.711600
C921	C92	0.086900	0.810800	0.723200
C931	C93	0.018500	0.567500	0.905600
C941	C94	0.956300	0.556600	0.950300
H431	H43	0.910600	0.547500	0.927100
C951	C95	0.082600	0.582000	0.942300
H441	H44	0.125300	0.591800	0.914000
C961	C96	0.288300	0.822500	0.686200
H451	H45	0.318800	0.824500	0.642400
C971	C97	0.919800	0.735600	0.734100
C981	C98	0.200200	0.816100	0.797000
H461	H46	0.171100	0.815200	0.841900
C991	C99	0.278600	0.817200	0.806500
H471	H47	0.299800	0.813700	0.855600
C1001	C100	0.213800	0.819600	0.676100
H481	H48	0.195700	0.820000	0.625400
N251	N25	0.034900	0.600000	0.771800
N261	N26	0.990700	0.515800	0.788200
N271	N27	0.040400	0.851800	0.707600
N281	N28	0.048200	0.763600	0.733800
N291	N29	0.318800	0.822800	0.749900
N301	N30	0.027800	0.570400	0.064500
O331	O33	0.053100	0.657800	0.640400
O341	O34	0.022200	0.587400	0.568000
O351	O35	0.955000	0.439100	0.683100
O361	O36	0.982400	0.492600	0.586600
H491	H49	0.027400	0.496600	0.576100
O371	O37	0.919400	0.915500	0.691500
O381	O38	0.841400	0.846500	0.699100
O391	O39	0.936800	0.689900	0.753800
O401	O40	0.851300	0.749000	0.721900
H501	H50	0.829100	0.752000	0.763600
Zn111	Zn11	0.536420	0.064370	0.814070
Zn121	Zn12	0.437140	0.818040	0.759640
C1011	C101	0.524700	0.017100	0.658100
C1021	C102	0.335300	0.683900	0.731700
C1031	C103	0.485000	0.938400	0.821400
C1041	C104	0.538000	0.941000	0.027700
H511	H51	0.581000	0.947300	0.057400
C1051	C105	0.415600	0.917700	0.021100
H521	H52	0.370400	0.908300	0.045200
C1061	C106	0.593900	0.632600	0.699500
C1071	C107	0.466700	0.890200	0.632500
C1081	C108	0.529600	0.668300	0.709100
C1091	C109	0.478200	0.922300	0.701500
C1101	C110	0.523900	0.722800	0.724000
C1111	C111	0.504100	0.974100	0.711600
C1121	C112	0.413100	0.689200	0.723200
C1131	C113	0.481500	0.932500	0.905600
C1141	C114	0.543700	0.943400	0.950300
H531	H53	0.589400	0.952500	0.927100
C1151	C115	0.417400	0.918000	0.942300
H541	H54	0.374700	0.908200	0.914000
C1161	C116	0.211700	0.677500	0.686200
H551	H55	0.181200	0.675500	0.642400
C1171	C117	0.580200	0.764400	0.734100
C1181	C118	0.299800	0.683900	0.797000
H561	H56	0.328900	0.684800	0.841900
C1191	C119	0.221400	0.682800	0.806500
H571	H57	0.200200	0.686300	0.855600
C1201	C120	0.286200	0.680400	0.676100
H581	H58	0.304300	0.680000	0.625400
N311	N31	0.465100	0.900000	0.771800
N321	N32	0.509300	0.984200	0.788200
N331	N33	0.459600	0.648200	0.707600
N341	N34	0.451800	0.736400	0.733800
N351	N35	0.181200	0.677200	0.749900
N361	N36	0.472200	0.929600	0.064500
O411	O41	0.446900	0.842200	0.640400
O421	O42	0.477800	0.912600	0.568000
O431	O43	0.545000	0.060900	0.683100
O441	O44	0.517600	0.007400	0.586600
H591	H59	0.472600	0.003400	0.576100
O451	O45	0.580600	0.584500	0.691500
O461	O46	0.658600	0.653500	0.699100
O471	O47	0.563200	0.810100	0.753800
O481	O48	0.648700	0.751000	0.721900
H601	H60	0.670900	0.748000	0.763600
Zn131	Zn13	0.036420	0.935630	0.685930
Zn141	Zn14	0.937140	0.181960	0.740360
C1211	C121	0.024700	0.982900	0.841900
C1221	C122	0.835300	0.316100	0.768300
C1231	C123	0.985000	0.061600	0.678600
C1241	C124	0.038000	0.059000	0.472300
H611	H61	0.081000	0.052700	0.442600
C1251	C125	0.915600	0.082300	0.478900
H621	H62	0.870400	0.091700	0.454800
C1261	C126	0.093900	0.367400	0.800500
C1271	C127	0.966700	0.109800	0.867500
C1281	C128	0.029600	0.331700	0.790900
C1291	C129	0.978200	0.077700	0.798500
C1301	C130	0.023900	0.277200	0.776000
C1311	C131	0.004100	0.025900	0.788400
C1321	C132	0.913100	0.310800	0.776800
C1331	C133	0.981500	0.067500	0.594400
C1341	C134	0.043700	0.056600	0.549700
H631	H63	0.089400	0.047500	0.572900
C1351	C135	0.917400	0.082000	0.557700
H641	H64	0.874700	0.091800	0.586000
C1361	C136	0.711700	0.322500	0.813800
H651	H65	0.681200	0.324500	0.857600
C1371	C137	0.080200	0.235600	0.765900
C1381	C138	0.799800	0.316100	0.703000
H661	H66	0.828900	0.315200	0.658100
C1391	C139	0.721400	0.317200	0.693500
H671	H67	0.700200	0.313700	0.644400
C1401	C140	0.786200	0.319600	0.823900
H681	H68	0.804300	0.320000	0.874600
N371	N37	0.965100	0.100000	0.728200
N381	N38	0.009300	0.015800	0.711800
N391	N39	0.959600	0.351800	0.792400
N401	N40	0.951800	0.263600	0.766200
N411	N41	0.681200	0.322800	0.750100
N421	N42	0.972200	0.070400	0.435500
O491	O49	0.946900	0.157800	0.859600
O501	O50	0.977800	0.087400	0.932000
O511	O51	0.045000	0.939100	0.816900
O521	O52	0.017600	0.992600	0.913400
H691	H69	0.972600	0.996600	0.923900
O531	O53	0.080600	0.415500	0.808500
O541	O54	0.158600	0.346500	0.800900
O551	O55	0.063200	0.189900	0.746200
O561	O56	0.148700	0.249000	0.778100
H701	H70	0.170900	0.252000	0.736400
Zn151	Zn15	0.463580	0.564370	0.685930
Zn161	Zn16	0.562860	0.318040	0.740360
C1411	C141	0.475300	0.517100	0.841900
C1421	C142	0.664700	0.183900	0.768300
C1431	C143	0.515000	0.438400	0.678600
C1441	C144	0.462000	0.441000	0.472300
H711	H71	0.419000	0.447300	0.442600
C1451	C145	0.584400	0.417700	0.478900
H721	H72	0.629600	0.408300	0.454800
C1461	C146	0.406100	0.132600	0.800500
C1471	C147	0.533300	0.390200	0.867500
C1481	C148	0.470400	0.168300	0.790900
C1491	C149	0.521800	0.422300	0.798500
C1501	C150	0.476100	0.222800	0.776000
C1511	C151	0.495900	0.474100	0.788400
C1521	C152	0.586900	0.189200	0.776800
C1531	C153	0.518500	0.432500	0.594400
C1541	C154	0.456300	0.443400	0.549700
H731	H73	0.410600	0.452500	0.572900
C1551	C155	0.582600	0.418000	0.557700
H741	H74	0.625300	0.408200	0.586000
C1561	C156	0.788300	0.177500	0.813800
H751	H75	0.818800	0.175500	0.857600
C1571	C157	0.419800	0.264400	0.765900
C1581	C158	0.700200	0.183900	0.703000
H761	H76	0.671100	0.184800	0.658100
C1591	C159	0.778600	0.182800	0.693500
H771	H77	0.799800	0.186300	0.644400
C1601	C160	0.713800	0.180400	0.823900
H781	H78	0.695700	0.180000	0.874600
N431	N43	0.534900	0.400000	0.728200
N441	N44	0.490700	0.484200	0.711800
N451	N45	0.540400	0.148200	0.792400
N461	N46	0.548200	0.236400	0.766200
N471	N47	0.818800	0.177200	0.750100
N481	N48	0.527800	0.429600	0.435500
O571	O57	0.553100	0.342200	0.859600
O581	O58	0.522200	0.412600	0.932000
O591	O59	0.455000	0.560900	0.816900
O601	O60	0.482400	0.507400	0.913400
H791	H79	0.527400	0.503400	0.923900
O611	O61	0.419400	0.084500	0.808500
O621	O62	0.341400	0.153500	0.800900
O631	O63	0.436800	0.310100	0.746200
O641	O64	0.351300	0.251000	0.778100
H801	H80	0.329100	0.248000	0.736400
