data_IQEKUM_clean_PM
_symmetry_space_group_name_H-M	'P1'
_cell_length_a	18.206000
_cell_length_b	18.320000
_cell_length_c	14.765000
_cell_angle_alpha	90.000000
_cell_angle_beta	92.161000
_cell_angle_gamma	90.000000
_symmetry_Int_Tables_number 1

loop_
_symmetry_equiv_pos_as_xyz
'x,y,z'

loop_
_atom_site_label
_atom_site_type_symbol
_atom_site_fract_x
_atom_site_fract_y
_atom_site_fract_z
Zn11	Zn1	0.327350	0.261520	0.774480
C11	C1	0.154100	0.301400	0.802400
C21	C2	0.149800	0.283200	0.898000
C31	C3	0.170300	0.215200	0.930800
H11	H1	0.181900	0.177400	0.889700
C41	C4	0.131100	0.334500	0.962500
H21	H2	0.114600	0.381300	0.943200
C51	C5	0.173800	0.201900	0.022100
H31	H3	0.187700	0.154600	0.043000
C61	C6	0.136000	0.319100	0.051800
H41	H4	0.123200	0.355700	0.093900
C71	C7	0.199300	0.311900	0.670700
C81	C8	0.130400	0.340400	0.666200
C91	C9	0.085300	0.373100	0.591000
C101	C10	0.255500	0.307600	0.602700
C111	C11	0.410900	0.397200	0.765500
C121	C12	0.462000	0.338400	0.755400
C131	C13	0.475700	0.033300	0.677200
H51	H5	0.459200	0.007400	0.624500
C141	C14	0.473400	0.108600	0.674600
H61	H6	0.454000	0.133500	0.622500
N11	N1	0.158200	0.253500	0.083200
N21	N2	0.215300	0.286700	0.755700
N31	N3	0.100800	0.334700	0.751000
N41	N4	0.439600	0.268100	0.756600
O11	O1	0.113900	0.381700	0.516300
O21	O2	0.020000	0.388300	0.608500
O31	O3	0.241900	0.334100	0.522800
H71	H7	0.200900	0.355300	0.521600
O41	O4	0.316000	0.279300	0.624500
O51	O5	0.345200	0.380700	0.779900
O61	O6	0.433300	0.463500	0.760100
Zn21	Zn2	0.827350	0.761520	0.774480
C151	C15	0.654100	0.801400	0.802400
C161	C16	0.649800	0.783200	0.898000
C171	C17	0.670300	0.715200	0.930800
H81	H8	0.681900	0.677400	0.889700
C181	C18	0.631100	0.834500	0.962500
H91	H9	0.614600	0.881300	0.943200
C191	C19	0.673800	0.701900	0.022100
H101	H10	0.687700	0.654600	0.043000
C201	C20	0.636000	0.819100	0.051800
H111	H11	0.623200	0.855700	0.093900
C211	C21	0.699300	0.811900	0.670700
C221	C22	0.630400	0.840400	0.666200
C231	C23	0.585300	0.873100	0.591000
C241	C24	0.755500	0.807600	0.602700
C251	C25	0.910900	0.897200	0.765500
C261	C26	0.962000	0.838400	0.755400
C271	C27	0.975700	0.533300	0.677200
H121	H12	0.959200	0.507400	0.624500
C281	C28	0.973400	0.608600	0.674600
H131	H13	0.954000	0.633500	0.622500
N51	N5	0.658200	0.753500	0.083200
N61	N6	0.715300	0.786700	0.755700
N71	N7	0.600800	0.834700	0.751000
N81	N8	0.939600	0.768100	0.756600
O71	O7	0.613900	0.881700	0.516300
O81	O8	0.520000	0.888300	0.608500
O91	O9	0.741900	0.834100	0.522800
H141	H14	0.700900	0.855300	0.521600
O101	O10	0.816000	0.779300	0.624500
O111	O11	0.845200	0.880700	0.779900
O121	O12	0.933300	0.963500	0.760100
Zn31	Zn3	0.672650	0.261520	0.725520
C291	C29	0.845900	0.301400	0.697600
C301	C30	0.850200	0.283200	0.602000
C311	C31	0.829700	0.215200	0.569200
H151	H15	0.818100	0.177400	0.610300
C321	C32	0.868900	0.334500	0.537500
H161	H16	0.885400	0.381300	0.556800
C331	C33	0.826200	0.201900	0.477900
H171	H17	0.812300	0.154600	0.457000
C341	C34	0.864000	0.319100	0.448200
H181	H18	0.876800	0.355700	0.406100
C351	C35	0.800700	0.311900	0.829300
C361	C36	0.869600	0.340400	0.833800
C371	C37	0.914700	0.373100	0.909000
C381	C38	0.744500	0.307600	0.897300
C391	C39	0.589100	0.397200	0.734500
C401	C40	0.538000	0.338400	0.744600
C411	C41	0.524300	0.033300	0.822800
H191	H19	0.540800	0.007400	0.875500
C421	C42	0.526600	0.108600	0.825400
H201	H20	0.546000	0.133500	0.877500
N91	N9	0.841800	0.253500	0.416800
N101	N10	0.784700	0.286700	0.744300
N111	N11	0.899200	0.334700	0.749000
N121	N12	0.560400	0.268100	0.743400
O131	O13	0.886100	0.381700	0.983700
O141	O14	0.980000	0.388300	0.891500
O151	O15	0.758100	0.334100	0.977200
H211	H21	0.799100	0.355300	0.978400
O161	O16	0.684000	0.279300	0.875500
O171	O17	0.654800	0.380700	0.720100
O181	O18	0.566700	0.463500	0.739900
Zn41	Zn4	0.172650	0.761520	0.725520
C431	C43	0.345900	0.801400	0.697600
C441	C44	0.350200	0.783200	0.602000
C451	C45	0.329700	0.715200	0.569200
H221	H22	0.318100	0.677400	0.610300
C461	C46	0.368900	0.834500	0.537500
H231	H23	0.385400	0.881300	0.556800
C471	C47	0.326200	0.701900	0.477900
H241	H24	0.312300	0.654600	0.457000
C481	C48	0.364000	0.819100	0.448200
H251	H25	0.376800	0.855700	0.406100
C491	C49	0.300700	0.811900	0.829300
C501	C50	0.369600	0.840400	0.833800
C511	C51	0.414700	0.873100	0.909000
C521	C52	0.244500	0.807600	0.897300
C531	C53	0.089100	0.897200	0.734500
C541	C54	0.038000	0.838400	0.744600
C551	C55	0.024300	0.533300	0.822800
H261	H26	0.040800	0.507400	0.875500
C561	C56	0.026600	0.608600	0.825400
H271	H27	0.046000	0.633500	0.877500
N131	N13	0.341800	0.753500	0.416800
N141	N14	0.284700	0.786700	0.744300
N151	N15	0.399200	0.834700	0.749000
N161	N16	0.060400	0.768100	0.743400
O191	O19	0.386100	0.881700	0.983700
O201	O20	0.480000	0.888300	0.891500
O211	O21	0.258100	0.834100	0.977200
H281	H28	0.299100	0.855300	0.978400
O221	O22	0.184000	0.779300	0.875500
O231	O23	0.154800	0.880700	0.720100
O241	O24	0.066700	0.963500	0.739900
Zn51	Zn5	0.672650	0.738480	0.225520
C571	C57	0.845900	0.698600	0.197600
C581	C58	0.850200	0.716800	0.102000
C591	C59	0.829700	0.784800	0.069200
H291	H29	0.818100	0.822600	0.110300
C601	C60	0.868900	0.665500	0.037500
H301	H30	0.885400	0.618700	0.056800
C611	C61	0.826200	0.798100	0.977900
H311	H31	0.812300	0.845400	0.957000
C621	C62	0.864000	0.680900	0.948200
H321	H32	0.876800	0.644300	0.906100
C631	C63	0.800700	0.688100	0.329300
C641	C64	0.869600	0.659600	0.333800
C651	C65	0.914700	0.626900	0.409000
C661	C66	0.744500	0.692400	0.397300
C671	C67	0.589100	0.602800	0.234500
C681	C68	0.538000	0.661600	0.244600
C691	C69	0.524300	0.966700	0.322800
H331	H33	0.540800	0.992600	0.375500
C701	C70	0.526600	0.891400	0.325400
H341	H34	0.546000	0.866500	0.377500
N171	N17	0.841800	0.746500	0.916800
N181	N18	0.784700	0.713300	0.244300
N191	N19	0.899200	0.665300	0.249000
N201	N20	0.560400	0.731900	0.243400
O251	O25	0.886100	0.618300	0.483700
O261	O26	0.980000	0.611700	0.391500
O271	O27	0.758100	0.665900	0.477200
H351	H35	0.799100	0.644700	0.478400
O281	O28	0.684000	0.720700	0.375500
O291	O29	0.654800	0.619300	0.220100
O301	O30	0.566700	0.536500	0.239900
Zn61	Zn6	0.172650	0.238480	0.225520
C711	C71	0.345900	0.198600	0.197600
C721	C72	0.350200	0.216800	0.102000
C731	C73	0.329700	0.284800	0.069200
H361	H36	0.318100	0.322600	0.110300
C741	C74	0.368900	0.165500	0.037500
H371	H37	0.385400	0.118700	0.056800
C751	C75	0.326200	0.298100	0.977900
H381	H38	0.312300	0.345400	0.957000
C761	C76	0.364000	0.180900	0.948200
H391	H39	0.376800	0.144300	0.906100
C771	C77	0.300700	0.188100	0.329300
C781	C78	0.369600	0.159600	0.333800
C791	C79	0.414700	0.126900	0.409000
C801	C80	0.244500	0.192400	0.397300
C811	C81	0.089100	0.102800	0.234500
C821	C82	0.038000	0.161600	0.244600
C831	C83	0.024300	0.466700	0.322800
H401	H40	0.040800	0.492600	0.375500
C841	C84	0.026600	0.391400	0.325400
H411	H41	0.046000	0.366500	0.377500
N211	N21	0.341800	0.246500	0.916800
N221	N22	0.284700	0.213300	0.244300
N231	N23	0.399200	0.165300	0.249000
N241	N24	0.060400	0.231900	0.243400
O311	O31	0.386100	0.118300	0.483700
O321	O32	0.480000	0.111700	0.391500
O331	O33	0.258100	0.165900	0.477200
H421	H42	0.299100	0.144700	0.478400
O341	O34	0.184000	0.220700	0.375500
O351	O35	0.154800	0.119300	0.220100
O361	O36	0.066700	0.036500	0.239900
Zn71	Zn7	0.327350	0.738480	0.274480
C851	C85	0.154100	0.698600	0.302400
C861	C86	0.149800	0.716800	0.398000
C871	C87	0.170300	0.784800	0.430800
H431	H43	0.181900	0.822600	0.389700
C881	C88	0.131100	0.665500	0.462500
H441	H44	0.114600	0.618700	0.443200
C891	C89	0.173800	0.798100	0.522100
H451	H45	0.187700	0.845400	0.543000
C901	C90	0.136000	0.680900	0.551800
H461	H46	0.123200	0.644300	0.593900
C911	C91	0.199300	0.688100	0.170700
C921	C92	0.130400	0.659600	0.166200
C931	C93	0.085300	0.626900	0.091000
C941	C94	0.255500	0.692400	0.102700
C951	C95	0.410900	0.602800	0.265500
C961	C96	0.462000	0.661600	0.255400
C971	C97	0.475700	0.966700	0.177200
H471	H47	0.459200	0.992600	0.124500
C981	C98	0.473400	0.891400	0.174600
H481	H48	0.454000	0.866500	0.122500
N251	N25	0.158200	0.746500	0.583200
N261	N26	0.215300	0.713300	0.255700
N271	N27	0.100800	0.665300	0.251000
N281	N28	0.439600	0.731900	0.256600
O371	O37	0.113900	0.618300	0.016300
O381	O38	0.020000	0.611700	0.108500
O391	O39	0.241900	0.665900	0.022800
H491	H49	0.200900	0.644700	0.021600
O401	O40	0.316000	0.720700	0.124500
O411	O41	0.345200	0.619300	0.279900
O421	O42	0.433300	0.536500	0.260100
Zn81	Zn8	0.827350	0.238480	0.274480
C991	C99	0.654100	0.198600	0.302400
C1001	C100	0.649800	0.216800	0.398000
C1011	C101	0.670300	0.284800	0.430800
H501	H50	0.681900	0.322600	0.389700
C1021	C102	0.631100	0.165500	0.462500
H511	H51	0.614600	0.118700	0.443200
C1031	C103	0.673800	0.298100	0.522100
H521	H52	0.687700	0.345400	0.543000
C1041	C104	0.636000	0.180900	0.551800
H531	H53	0.623200	0.144300	0.593900
C1051	C105	0.699300	0.188100	0.170700
C1061	C106	0.630400	0.159600	0.166200
C1071	C107	0.585300	0.126900	0.091000
C1081	C108	0.755500	0.192400	0.102700
C1091	C109	0.910900	0.102800	0.265500
C1101	C110	0.962000	0.161600	0.255400
C1111	C111	0.975700	0.466700	0.177200
H541	H54	0.959200	0.492600	0.124500
C1121	C112	0.973400	0.391400	0.174600
H551	H55	0.954000	0.366500	0.122500
N291	N29	0.658200	0.246500	0.583200
N301	N30	0.715300	0.213300	0.255700
N311	N31	0.600800	0.165300	0.251000
N321	N32	0.939600	0.231900	0.256600
O431	O43	0.613900	0.118300	0.016300
O441	O44	0.520000	0.111700	0.108500
O451	O45	0.741900	0.165900	0.022800
H561	H56	0.700900	0.144700	0.021600
O461	O46	0.816000	0.220700	0.124500
O471	O47	0.845200	0.119300	0.279900
O481	O48	0.933300	0.036500	0.260100
Zn91	Zn9	0.000000	0.381730	0.750000
Zn101	Zn10	0.500000	0.881730	0.750000
Zn111	Zn11	0.000000	0.618270	0.250000
Zn121	Zn12	0.500000	0.118270	0.250000
C1131	C113	0.500000	0.227400	0.750000
C1141	C114	0.500000	0.147200	0.750000
N331	N33	0.500000	0.994100	0.750000
C1151	C115	0.000000	0.727400	0.750000
C1161	C116	0.000000	0.647200	0.750000
N341	N34	0.000000	0.494100	0.750000
C1171	C117	0.500000	0.772600	0.250000
C1181	C118	0.500000	0.852800	0.250000
N351	N35	0.500000	0.005900	0.250000
C1191	C119	0.000000	0.272600	0.250000
C1201	C120	0.000000	0.352800	0.250000
N361	N36	0.000000	0.505900	0.250000
