data_IQILIF_clean_PM
_symmetry_space_group_name_H-M	'P1'
_cell_length_a	32.079100
_cell_length_b	11.904800
_cell_length_c	37.738400
_cell_angle_alpha	90.000000
_cell_angle_beta	99.269000
_cell_angle_gamma	90.000000
_symmetry_Int_Tables_number 1

loop_
_symmetry_equiv_pos_as_xyz
'x,y,z'

loop_
_atom_site_label
_atom_site_type_symbol
_atom_site_fract_x
_atom_site_fract_y
_atom_site_fract_z
Bi11	Bi1	0.246820	0.315810	0.304930
C11	C1	0.005400	0.844400	0.042820
C21	C2	0.965800	0.811000	0.043410
C31	C3	0.097200	0.930500	0.112650
H11	H1	0.124800	0.902700	0.121200
C41	C4	0.071600	0.875000	0.085320
H21	H2	0.082200	0.810000	0.075200
C51	C5	0.030930	0.911100	0.072200
C61	C6	0.017650	0.007900	0.087230
H31	H3	0.990100	0.035800	0.078600
C71	C7	0.042650	0.065200	0.114050
H41	H4	0.032400	0.132000	0.123400
C81	C8	0.082980	0.026700	0.127750
C91	C9	0.110160	0.084300	0.157570
C101	C10	0.104900	0.199800	0.165240
H51	H5	0.083700	0.242500	0.150600
C111	C11	0.130070	0.249800	0.193430
H61	H6	0.125900	0.327100	0.198200
C121	C12	0.161460	0.191000	0.215310
C131	C13	0.167500	0.078200	0.208050
H71	H7	0.189200	0.037200	0.222700
C141	C14	0.142400	0.025400	0.179900
H81	H8	0.146800	0.948100	0.175500
C151	C15	0.188010	0.245500	0.246390
O11	O1	0.219190	0.189800	0.263450
O21	O2	0.179700	0.342900	0.256070
C161	C16	0.060700	0.681500	0.976590
H91	H9	0.064600	0.605800	0.969800
C171	C17	0.035490	0.704700	0.002300
H101	H10	0.022100	0.644700	0.012700
C181	C18	0.029450	0.813700	0.013120
C191	C19	0.049770	0.899600	0.997230
H111	H11	0.046700	0.975200	0.004500
C201	C20	0.074090	0.876600	0.971410
H121	H12	0.087000	0.936600	0.960700
C211	C21	0.080180	0.767100	0.960690
C221	C22	0.108410	0.744300	0.933640
C231	C23	0.140400	0.665100	0.940550
H131	H13	0.142900	0.620400	0.961700
C241	C24	0.168700	0.650800	0.916630
H141	H14	0.191100	0.598100	0.921700
C251	C25	0.164250	0.713600	0.885360
C261	C26	0.131900	0.788800	0.877830
H151	H15	0.128400	0.830100	0.856000
C271	C27	0.104000	0.805000	0.901940
H161	H16	0.081800	0.858200	0.896700
C281	C28	0.195980	0.699600	0.860180
O31	O3	0.189440	0.748400	0.830320
O41	O4	0.228210	0.640900	0.869650
C291	C29	0.892700	0.595200	0.993570
H171	H17	0.876100	0.534300	0.999700
C301	C30	0.915700	0.657900	0.020250
H181	H18	0.914900	0.639500	0.044600
C311	C31	0.940310	0.747800	0.012380
C321	C32	0.939140	0.775500	0.976680
H191	H19	0.954600	0.838700	0.970600
C331	C33	0.915800	0.712700	0.949630
H201	H20	0.915300	0.733700	0.925300
C341	C34	0.893200	0.619800	0.957610
C351	C35	0.870130	0.543300	0.929370
C361	C36	0.869900	0.428700	0.935790
H211	H21	0.884400	0.400000	0.957900
C371	C37	0.849100	0.355600	0.910640
H221	H22	0.849900	0.277100	0.915300
C381	C38	0.827040	0.396300	0.878280
C391	C39	0.827100	0.510600	0.871890
H231	H23	0.812300	0.539200	0.849900
C401	C40	0.848600	0.584500	0.897070
H241	H24	0.848400	0.662800	0.892200
C411	C41	0.804240	0.313400	0.852840
O51	O5	0.774510	0.350300	0.828510
O61	O6	0.813510	0.211700	0.855210
C421	C42	0.941920	0.817400	0.139020
H251	H25	0.956200	0.803100	0.162700
C431	C43	0.963620	0.805300	0.110070
H261	H26	0.992100	0.780000	0.114200
C441	C44	0.944290	0.829600	0.075320
C451	C45	0.902250	0.860900	0.070000
H271	H27	0.888200	0.875200	0.046300
C461	C46	0.880000	0.872000	0.098850
H281	H28	0.851200	0.894700	0.094500
C471	C47	0.899700	0.850200	0.133910
C481	C48	0.875600	0.855000	0.164130
C491	C49	0.842500	0.930100	0.164040
H291	H29	0.836700	0.983300	0.145100
C501	C50	0.817600	0.929200	0.190970
H301	H30	0.795600	0.982600	0.190700
C511	C51	0.825120	0.850200	0.218260
C521	C52	0.858970	0.776900	0.219190
H311	H31	0.865400	0.725500	0.238600
C531	C53	0.883500	0.778200	0.192040
H321	H32	0.905900	0.725800	0.192600
C541	C54	0.796530	0.842800	0.246140
O71	O7	0.806820	0.777100	0.272300
O81	O8	0.763940	0.901300	0.242450
K11	K1	0.204170	0.551080	0.234110
Bi21	Bi2	0.746820	0.815810	0.304930
C551	C55	0.505400	0.344400	0.042820
C561	C56	0.465800	0.311000	0.043410
C571	C57	0.597200	0.430500	0.112650
H331	H33	0.624800	0.402700	0.121200
C581	C58	0.571600	0.375000	0.085320
H341	H34	0.582200	0.310000	0.075200
C591	C59	0.530930	0.411100	0.072200
C601	C60	0.517650	0.507900	0.087230
H351	H35	0.490100	0.535800	0.078600
C611	C61	0.542650	0.565200	0.114050
H361	H36	0.532400	0.632000	0.123400
C621	C62	0.582980	0.526700	0.127750
C631	C63	0.610160	0.584300	0.157570
C641	C64	0.604900	0.699800	0.165240
H371	H37	0.583700	0.742500	0.150600
C651	C65	0.630070	0.749800	0.193430
H381	H38	0.625900	0.827100	0.198200
C661	C66	0.661460	0.691000	0.215310
C671	C67	0.667500	0.578200	0.208050
H391	H39	0.689200	0.537200	0.222700
C681	C68	0.642400	0.525400	0.179900
H401	H40	0.646800	0.448100	0.175500
C691	C69	0.688010	0.745500	0.246390
O91	O9	0.719190	0.689800	0.263450
O101	O10	0.679700	0.842900	0.256070
C701	C70	0.560700	0.181500	0.976590
H411	H41	0.564600	0.105800	0.969800
C711	C71	0.535490	0.204700	0.002300
H421	H42	0.522100	0.144700	0.012700
C721	C72	0.529450	0.313700	0.013120
C731	C73	0.549770	0.399600	0.997230
H431	H43	0.546700	0.475200	0.004500
C741	C74	0.574090	0.376600	0.971410
H441	H44	0.587000	0.436600	0.960700
C751	C75	0.580180	0.267100	0.960690
C761	C76	0.608410	0.244300	0.933640
C771	C77	0.640400	0.165100	0.940550
H451	H45	0.642900	0.120400	0.961700
C781	C78	0.668700	0.150800	0.916630
H461	H46	0.691100	0.098100	0.921700
C791	C79	0.664250	0.213600	0.885360
C801	C80	0.631900	0.288800	0.877830
H471	H47	0.628400	0.330100	0.856000
C811	C81	0.604000	0.305000	0.901940
H481	H48	0.581800	0.358200	0.896700
C821	C82	0.695980	0.199600	0.860180
O111	O11	0.689440	0.248400	0.830320
O121	O12	0.728210	0.140900	0.869650
C831	C83	0.392700	0.095200	0.993570
H491	H49	0.376100	0.034300	0.999700
C841	C84	0.415700	0.157900	0.020250
H501	H50	0.414900	0.139500	0.044600
C851	C85	0.440310	0.247800	0.012380
C861	C86	0.439140	0.275500	0.976680
H511	H51	0.454600	0.338700	0.970600
C871	C87	0.415800	0.212700	0.949630
H521	H52	0.415300	0.233700	0.925300
C881	C88	0.393200	0.119800	0.957610
C891	C89	0.370130	0.043300	0.929370
C901	C90	0.369900	0.928700	0.935790
H531	H53	0.384400	0.900000	0.957900
C911	C91	0.349100	0.855600	0.910640
H541	H54	0.349900	0.777100	0.915300
C921	C92	0.327040	0.896300	0.878280
C931	C93	0.327100	0.010600	0.871890
H551	H55	0.312300	0.039200	0.849900
C941	C94	0.348600	0.084500	0.897070
H561	H56	0.348400	0.162800	0.892200
C951	C95	0.304240	0.813400	0.852840
O131	O13	0.274510	0.850300	0.828510
O141	O14	0.313510	0.711700	0.855210
C961	C96	0.441920	0.317400	0.139020
H571	H57	0.456200	0.303100	0.162700
C971	C97	0.463620	0.305300	0.110070
H581	H58	0.492100	0.280000	0.114200
C981	C98	0.444290	0.329600	0.075320
C991	C99	0.402250	0.360900	0.070000
H591	H59	0.388200	0.375200	0.046300
C1001	C100	0.380000	0.372000	0.098850
H601	H60	0.351200	0.394700	0.094500
C1011	C101	0.399700	0.350200	0.133910
C1021	C102	0.375600	0.355000	0.164130
C1031	C103	0.342500	0.430100	0.164040
H611	H61	0.336700	0.483300	0.145100
C1041	C104	0.317600	0.429200	0.190970
H621	H62	0.295600	0.482600	0.190700
C1051	C105	0.325120	0.350200	0.218260
C1061	C106	0.358970	0.276900	0.219190
H631	H63	0.365400	0.225500	0.238600
C1071	C107	0.383500	0.278200	0.192040
H641	H64	0.405900	0.225800	0.192600
C1081	C108	0.296530	0.342800	0.246140
O151	O15	0.306820	0.277100	0.272300
O161	O16	0.263940	0.401300	0.242450
K21	K2	0.704170	0.051080	0.234110
Bi31	Bi3	0.753180	0.315810	0.195070
C1091	C109	0.994600	0.844400	0.457180
C1101	C110	0.034200	0.811000	0.456590
C1111	C111	0.902800	0.930500	0.387350
H651	H65	0.875200	0.902700	0.378800
C1121	C112	0.928400	0.875000	0.414680
H661	H66	0.917800	0.810000	0.424800
C1131	C113	0.969070	0.911100	0.427800
C1141	C114	0.982350	0.007900	0.412770
H671	H67	0.009900	0.035800	0.421400
C1151	C115	0.957350	0.065200	0.385950
H681	H68	0.967600	0.132000	0.376600
C1161	C116	0.917020	0.026700	0.372250
C1171	C117	0.889840	0.084300	0.342430
C1181	C118	0.895100	0.199800	0.334760
H691	H69	0.916300	0.242500	0.349400
C1191	C119	0.869930	0.249800	0.306570
H701	H70	0.874100	0.327100	0.301800
C1201	C120	0.838540	0.191000	0.284690
C1211	C121	0.832500	0.078200	0.291950
H711	H71	0.810800	0.037200	0.277300
C1221	C122	0.857600	0.025400	0.320100
H721	H72	0.853200	0.948100	0.324500
C1231	C123	0.811990	0.245500	0.253610
O171	O17	0.780810	0.189800	0.236550
O181	O18	0.820300	0.342900	0.243930
C1241	C124	0.939300	0.681500	0.523410
H731	H73	0.935400	0.605800	0.530200
C1251	C125	0.964510	0.704700	0.497700
H741	H74	0.977900	0.644700	0.487300
C1261	C126	0.970550	0.813700	0.486880
C1271	C127	0.950230	0.899600	0.502770
H751	H75	0.953300	0.975200	0.495500
C1281	C128	0.925910	0.876600	0.528590
H761	H76	0.913000	0.936600	0.539300
C1291	C129	0.919820	0.767100	0.539310
C1301	C130	0.891590	0.744300	0.566360
C1311	C131	0.859600	0.665100	0.559450
H771	H77	0.857100	0.620400	0.538300
C1321	C132	0.831300	0.650800	0.583370
H781	H78	0.808900	0.598100	0.578300
C1331	C133	0.835750	0.713600	0.614640
C1341	C134	0.868100	0.788800	0.622170
H791	H79	0.871600	0.830100	0.644000
C1351	C135	0.896000	0.805000	0.598060
H801	H80	0.918200	0.858200	0.603300
C1361	C136	0.804020	0.699600	0.639820
O191	O19	0.810560	0.748400	0.669680
O201	O20	0.771790	0.640900	0.630350
C1371	C137	0.107300	0.595200	0.506430
H811	H81	0.123900	0.534300	0.500300
C1381	C138	0.084300	0.657900	0.479750
H821	H82	0.085100	0.639500	0.455400
C1391	C139	0.059690	0.747800	0.487620
C1401	C140	0.060860	0.775500	0.523320
H831	H83	0.045400	0.838700	0.529400
C1411	C141	0.084200	0.712700	0.550370
H841	H84	0.084700	0.733700	0.574700
C1421	C142	0.106800	0.619800	0.542390
C1431	C143	0.129870	0.543300	0.570630
C1441	C144	0.130100	0.428700	0.564210
H851	H85	0.115600	0.400000	0.542100
C1451	C145	0.150900	0.355600	0.589360
H861	H86	0.150100	0.277100	0.584700
C1461	C146	0.172960	0.396300	0.621720
C1471	C147	0.172900	0.510600	0.628110
H871	H87	0.187700	0.539200	0.650100
C1481	C148	0.151400	0.584500	0.602930
H881	H88	0.151600	0.662800	0.607800
C1491	C149	0.195760	0.313400	0.647160
O211	O21	0.225490	0.350300	0.671490
O221	O22	0.186490	0.211700	0.644790
C1501	C150	0.058080	0.817400	0.360980
H891	H89	0.043800	0.803100	0.337300
C1511	C151	0.036380	0.805300	0.389930
H901	H90	0.007900	0.780000	0.385800
C1521	C152	0.055710	0.829600	0.424680
C1531	C153	0.097750	0.860900	0.430000
H911	H91	0.111800	0.875200	0.453700
C1541	C154	0.120000	0.872000	0.401150
H921	H92	0.148800	0.894700	0.405500
C1551	C155	0.100300	0.850200	0.366090
C1561	C156	0.124400	0.855000	0.335870
C1571	C157	0.157500	0.930100	0.335960
H931	H93	0.163300	0.983300	0.354900
C1581	C158	0.182400	0.929200	0.309030
H941	H94	0.204400	0.982600	0.309300
C1591	C159	0.174880	0.850200	0.281740
C1601	C160	0.141030	0.776900	0.280810
H951	H95	0.134600	0.725500	0.261400
C1611	C161	0.116500	0.778200	0.307960
H961	H96	0.094100	0.725800	0.307400
C1621	C162	0.203470	0.842800	0.253860
O231	O23	0.193180	0.777100	0.227700
O241	O24	0.236060	0.901300	0.257550
K31	K3	0.795830	0.551080	0.265890
Bi41	Bi4	0.253180	0.815810	0.195070
C1631	C163	0.494600	0.344400	0.457180
C1641	C164	0.534200	0.311000	0.456590
C1651	C165	0.402800	0.430500	0.387350
H971	H97	0.375200	0.402700	0.378800
C1661	C166	0.428400	0.375000	0.414680
H981	H98	0.417800	0.310000	0.424800
C1671	C167	0.469070	0.411100	0.427800
C1681	C168	0.482350	0.507900	0.412770
H991	H99	0.509900	0.535800	0.421400
C1691	C169	0.457350	0.565200	0.385950
H1001	H100	0.467600	0.632000	0.376600
C1701	C170	0.417020	0.526700	0.372250
C1711	C171	0.389840	0.584300	0.342430
C1721	C172	0.395100	0.699800	0.334760
H1011	H101	0.416300	0.742500	0.349400
C1731	C173	0.369930	0.749800	0.306570
H1021	H102	0.374100	0.827100	0.301800
C1741	C174	0.338540	0.691000	0.284690
C1751	C175	0.332500	0.578200	0.291950
H1031	H103	0.310800	0.537200	0.277300
C1761	C176	0.357600	0.525400	0.320100
H1041	H104	0.353200	0.448100	0.324500
C1771	C177	0.311990	0.745500	0.253610
O251	O25	0.280810	0.689800	0.236550
O261	O26	0.320300	0.842900	0.243930
C1781	C178	0.439300	0.181500	0.523410
H1051	H105	0.435400	0.105800	0.530200
C1791	C179	0.464510	0.204700	0.497700
H1061	H106	0.477900	0.144700	0.487300
C1801	C180	0.470550	0.313700	0.486880
C1811	C181	0.450230	0.399600	0.502770
H1071	H107	0.453300	0.475200	0.495500
C1821	C182	0.425910	0.376600	0.528590
H1081	H108	0.413000	0.436600	0.539300
C1831	C183	0.419820	0.267100	0.539310
C1841	C184	0.391590	0.244300	0.566360
C1851	C185	0.359600	0.165100	0.559450
H1091	H109	0.357100	0.120400	0.538300
C1861	C186	0.331300	0.150800	0.583370
H1101	H110	0.308900	0.098100	0.578300
C1871	C187	0.335750	0.213600	0.614640
C1881	C188	0.368100	0.288800	0.622170
H1111	H111	0.371600	0.330100	0.644000
C1891	C189	0.396000	0.305000	0.598060
H1121	H112	0.418200	0.358200	0.603300
C1901	C190	0.304020	0.199600	0.639820
O271	O27	0.310560	0.248400	0.669680
O281	O28	0.271790	0.140900	0.630350
C1911	C191	0.607300	0.095200	0.506430
H1131	H113	0.623900	0.034300	0.500300
C1921	C192	0.584300	0.157900	0.479750
H1141	H114	0.585100	0.139500	0.455400
C1931	C193	0.559690	0.247800	0.487620
C1941	C194	0.560860	0.275500	0.523320
H1151	H115	0.545400	0.338700	0.529400
C1951	C195	0.584200	0.212700	0.550370
H1161	H116	0.584700	0.233700	0.574700
C1961	C196	0.606800	0.119800	0.542390
C1971	C197	0.629870	0.043300	0.570630
C1981	C198	0.630100	0.928700	0.564210
H1171	H117	0.615600	0.900000	0.542100
C1991	C199	0.650900	0.855600	0.589360
H1181	H118	0.650100	0.777100	0.584700
C2001	C200	0.672960	0.896300	0.621720
C2011	C201	0.672900	0.010600	0.628110
H1191	H119	0.687700	0.039200	0.650100
C2021	C202	0.651400	0.084500	0.602930
H1201	H120	0.651600	0.162800	0.607800
C2031	C203	0.695760	0.813400	0.647160
O291	O29	0.725490	0.850300	0.671490
O301	O30	0.686490	0.711700	0.644790
C2041	C204	0.558080	0.317400	0.360980
H1211	H121	0.543800	0.303100	0.337300
C2051	C205	0.536380	0.305300	0.389930
H1221	H122	0.507900	0.280000	0.385800
C2061	C206	0.555710	0.329600	0.424680
C2071	C207	0.597750	0.360900	0.430000
H1231	H123	0.611800	0.375200	0.453700
C2081	C208	0.620000	0.372000	0.401150
H1241	H124	0.648800	0.394700	0.405500
C2091	C209	0.600300	0.350200	0.366090
C2101	C210	0.624400	0.355000	0.335870
C2111	C211	0.657500	0.430100	0.335960
H1251	H125	0.663300	0.483300	0.354900
C2121	C212	0.682400	0.429200	0.309030
H1261	H126	0.704400	0.482600	0.309300
C2131	C213	0.674880	0.350200	0.281740
C2141	C214	0.641030	0.276900	0.280810
H1271	H127	0.634600	0.225500	0.261400
C2151	C215	0.616500	0.278200	0.307960
H1281	H128	0.594100	0.225800	0.307400
C2161	C216	0.703470	0.342800	0.253860
O311	O31	0.693180	0.277100	0.227700
O321	O32	0.736060	0.401300	0.257550
K41	K4	0.295830	0.051080	0.265890
Bi51	Bi5	0.753180	0.684190	0.695070
C2171	C217	0.994600	0.155600	0.957180
C2181	C218	0.034200	0.189000	0.956590
C2191	C219	0.902800	0.069500	0.887350
H1291	H129	0.875200	0.097300	0.878800
C2201	C220	0.928400	0.125000	0.914680
H1301	H130	0.917800	0.190000	0.924800
C2211	C221	0.969070	0.088900	0.927800
C2221	C222	0.982350	0.992100	0.912770
H1311	H131	0.009900	0.964200	0.921400
C2231	C223	0.957350	0.934800	0.885950
H1321	H132	0.967600	0.868000	0.876600
C2241	C224	0.917020	0.973300	0.872250
C2251	C225	0.889840	0.915700	0.842430
C2261	C226	0.895100	0.800200	0.834760
H1331	H133	0.916300	0.757500	0.849400
C2271	C227	0.869930	0.750200	0.806570
H1341	H134	0.874100	0.672900	0.801800
C2281	C228	0.838540	0.809000	0.784690
C2291	C229	0.832500	0.921800	0.791950
H1351	H135	0.810800	0.962800	0.777300
C2301	C230	0.857600	0.974600	0.820100
H1361	H136	0.853200	0.051900	0.824500
C2311	C231	0.811990	0.754500	0.753610
O331	O33	0.780810	0.810200	0.736550
O341	O34	0.820300	0.657100	0.743930
C2321	C232	0.939300	0.318500	0.023410
H1371	H137	0.935400	0.394200	0.030200
C2331	C233	0.964510	0.295300	0.997700
H1381	H138	0.977900	0.355300	0.987300
C2341	C234	0.970550	0.186300	0.986880
C2351	C235	0.950230	0.100400	0.002770
H1391	H139	0.953300	0.024800	0.995500
C2361	C236	0.925910	0.123400	0.028590
H1401	H140	0.913000	0.063400	0.039300
C2371	C237	0.919820	0.232900	0.039310
C2381	C238	0.891590	0.255700	0.066360
C2391	C239	0.859600	0.334900	0.059450
H1411	H141	0.857100	0.379600	0.038300
C2401	C240	0.831300	0.349200	0.083370
H1421	H142	0.808900	0.401900	0.078300
C2411	C241	0.835750	0.286400	0.114640
C2421	C242	0.868100	0.211200	0.122170
H1431	H143	0.871600	0.169900	0.144000
C2431	C243	0.896000	0.195000	0.098060
H1441	H144	0.918200	0.141800	0.103300
C2441	C244	0.804020	0.300400	0.139820
O351	O35	0.810560	0.251600	0.169680
O361	O36	0.771790	0.359100	0.130350
C2451	C245	0.107300	0.404800	0.006430
H1451	H145	0.123900	0.465700	0.000300
C2461	C246	0.084300	0.342100	0.979750
H1461	H146	0.085100	0.360500	0.955400
C2471	C247	0.059690	0.252200	0.987620
C2481	C248	0.060860	0.224500	0.023320
H1471	H147	0.045400	0.161300	0.029400
C2491	C249	0.084200	0.287300	0.050370
H1481	H148	0.084700	0.266300	0.074700
C2501	C250	0.106800	0.380200	0.042390
C2511	C251	0.129870	0.456700	0.070630
C2521	C252	0.130100	0.571300	0.064210
H1491	H149	0.115600	0.600000	0.042100
C2531	C253	0.150900	0.644400	0.089360
H1501	H150	0.150100	0.722900	0.084700
C2541	C254	0.172960	0.603700	0.121720
C2551	C255	0.172900	0.489400	0.128110
H1511	H151	0.187700	0.460800	0.150100
C2561	C256	0.151400	0.415500	0.102930
H1521	H152	0.151600	0.337200	0.107800
C2571	C257	0.195760	0.686600	0.147160
O371	O37	0.225490	0.649700	0.171490
O381	O38	0.186490	0.788300	0.144790
C2581	C258	0.058080	0.182600	0.860980
H1531	H153	0.043800	0.196900	0.837300
C2591	C259	0.036380	0.194700	0.889930
H1541	H154	0.007900	0.220000	0.885800
C2601	C260	0.055710	0.170400	0.924680
C2611	C261	0.097750	0.139100	0.930000
H1551	H155	0.111800	0.124800	0.953700
C2621	C262	0.120000	0.128000	0.901150
H1561	H156	0.148800	0.105300	0.905500
C2631	C263	0.100300	0.149800	0.866090
C2641	C264	0.124400	0.145000	0.835870
C2651	C265	0.157500	0.069900	0.835960
H1571	H157	0.163300	0.016700	0.854900
C2661	C266	0.182400	0.070800	0.809030
H1581	H158	0.204400	0.017400	0.809300
C2671	C267	0.174880	0.149800	0.781740
C2681	C268	0.141030	0.223100	0.780810
H1591	H159	0.134600	0.274500	0.761400
C2691	C269	0.116500	0.221800	0.807960
H1601	H160	0.094100	0.274200	0.807400
C2701	C270	0.203470	0.157200	0.753860
O391	O39	0.193180	0.222900	0.727700
O401	O40	0.236060	0.098700	0.757550
K51	K5	0.795830	0.448920	0.765890
Bi61	Bi6	0.253180	0.184190	0.695070
C2711	C271	0.494600	0.655600	0.957180
C2721	C272	0.534200	0.689000	0.956590
C2731	C273	0.402800	0.569500	0.887350
H1611	H161	0.375200	0.597300	0.878800
C2741	C274	0.428400	0.625000	0.914680
H1621	H162	0.417800	0.690000	0.924800
C2751	C275	0.469070	0.588900	0.927800
C2761	C276	0.482350	0.492100	0.912770
H1631	H163	0.509900	0.464200	0.921400
C2771	C277	0.457350	0.434800	0.885950
H1641	H164	0.467600	0.368000	0.876600
C2781	C278	0.417020	0.473300	0.872250
C2791	C279	0.389840	0.415700	0.842430
C2801	C280	0.395100	0.300200	0.834760
H1651	H165	0.416300	0.257500	0.849400
C2811	C281	0.369930	0.250200	0.806570
H1661	H166	0.374100	0.172900	0.801800
C2821	C282	0.338540	0.309000	0.784690
C2831	C283	0.332500	0.421800	0.791950
H1671	H167	0.310800	0.462800	0.777300
C2841	C284	0.357600	0.474600	0.820100
H1681	H168	0.353200	0.551900	0.824500
C2851	C285	0.311990	0.254500	0.753610
O411	O41	0.280810	0.310200	0.736550
O421	O42	0.320300	0.157100	0.743930
C2861	C286	0.439300	0.818500	0.023410
H1691	H169	0.435400	0.894200	0.030200
C2871	C287	0.464510	0.795300	0.997700
H1701	H170	0.477900	0.855300	0.987300
C2881	C288	0.470550	0.686300	0.986880
C2891	C289	0.450230	0.600400	0.002770
H1711	H171	0.453300	0.524800	0.995500
C2901	C290	0.425910	0.623400	0.028590
H1721	H172	0.413000	0.563400	0.039300
C2911	C291	0.419820	0.732900	0.039310
C2921	C292	0.391590	0.755700	0.066360
C2931	C293	0.359600	0.834900	0.059450
H1731	H173	0.357100	0.879600	0.038300
C2941	C294	0.331300	0.849200	0.083370
H1741	H174	0.308900	0.901900	0.078300
C2951	C295	0.335750	0.786400	0.114640
C2961	C296	0.368100	0.711200	0.122170
H1751	H175	0.371600	0.669900	0.144000
C2971	C297	0.396000	0.695000	0.098060
H1761	H176	0.418200	0.641800	0.103300
C2981	C298	0.304020	0.800400	0.139820
O431	O43	0.310560	0.751600	0.169680
O441	O44	0.271790	0.859100	0.130350
C2991	C299	0.607300	0.904800	0.006430
H1771	H177	0.623900	0.965700	0.000300
C3001	C300	0.584300	0.842100	0.979750
H1781	H178	0.585100	0.860500	0.955400
C3011	C301	0.559690	0.752200	0.987620
C3021	C302	0.560860	0.724500	0.023320
H1791	H179	0.545400	0.661300	0.029400
C3031	C303	0.584200	0.787300	0.050370
H1801	H180	0.584700	0.766300	0.074700
C3041	C304	0.606800	0.880200	0.042390
C3051	C305	0.629870	0.956700	0.070630
C3061	C306	0.630100	0.071300	0.064210
H1811	H181	0.615600	0.100000	0.042100
C3071	C307	0.650900	0.144400	0.089360
H1821	H182	0.650100	0.222900	0.084700
C3081	C308	0.672960	0.103700	0.121720
C3091	C309	0.672900	0.989400	0.128110
H1831	H183	0.687700	0.960800	0.150100
C3101	C310	0.651400	0.915500	0.102930
H1841	H184	0.651600	0.837200	0.107800
C3111	C311	0.695760	0.186600	0.147160
O451	O45	0.725490	0.149700	0.171490
O461	O46	0.686490	0.288300	0.144790
C3121	C312	0.558080	0.682600	0.860980
H1851	H185	0.543800	0.696900	0.837300
C3131	C313	0.536380	0.694700	0.889930
H1861	H186	0.507900	0.720000	0.885800
C3141	C314	0.555710	0.670400	0.924680
C3151	C315	0.597750	0.639100	0.930000
H1871	H187	0.611800	0.624800	0.953700
C3161	C316	0.620000	0.628000	0.901150
H1881	H188	0.648800	0.605300	0.905500
C3171	C317	0.600300	0.649800	0.866090
C3181	C318	0.624400	0.645000	0.835870
C3191	C319	0.657500	0.569900	0.835960
H1891	H189	0.663300	0.516700	0.854900
C3201	C320	0.682400	0.570800	0.809030
H1901	H190	0.704400	0.517400	0.809300
C3211	C321	0.674880	0.649800	0.781740
C3221	C322	0.641030	0.723100	0.780810
H1911	H191	0.634600	0.774500	0.761400
C3231	C323	0.616500	0.721800	0.807960
H1921	H192	0.594100	0.774200	0.807400
C3241	C324	0.703470	0.657200	0.753860
O471	O47	0.693180	0.722900	0.727700
O481	O48	0.736060	0.598700	0.757550
K61	K6	0.295830	0.948920	0.765890
Bi71	Bi7	0.246820	0.684190	0.804930
C3251	C325	0.005400	0.155600	0.542820
C3261	C326	0.965800	0.189000	0.543410
C3271	C327	0.097200	0.069500	0.612650
H1931	H193	0.124800	0.097300	0.621200
C3281	C328	0.071600	0.125000	0.585320
H1941	H194	0.082200	0.190000	0.575200
C3291	C329	0.030930	0.088900	0.572200
C3301	C330	0.017650	0.992100	0.587230
H1951	H195	0.990100	0.964200	0.578600
C3311	C331	0.042650	0.934800	0.614050
H1961	H196	0.032400	0.868000	0.623400
C3321	C332	0.082980	0.973300	0.627750
C3331	C333	0.110160	0.915700	0.657570
C3341	C334	0.104900	0.800200	0.665240
H1971	H197	0.083700	0.757500	0.650600
C3351	C335	0.130070	0.750200	0.693430
H1981	H198	0.125900	0.672900	0.698200
C3361	C336	0.161460	0.809000	0.715310
C3371	C337	0.167500	0.921800	0.708050
H1991	H199	0.189200	0.962800	0.722700
C3381	C338	0.142400	0.974600	0.679900
H2001	H200	0.146800	0.051900	0.675500
C3391	C339	0.188010	0.754500	0.746390
O491	O49	0.219190	0.810200	0.763450
O501	O50	0.179700	0.657100	0.756070
C3401	C340	0.060700	0.318500	0.476590
H2011	H201	0.064600	0.394200	0.469800
C3411	C341	0.035490	0.295300	0.502300
H2021	H202	0.022100	0.355300	0.512700
C3421	C342	0.029450	0.186300	0.513120
C3431	C343	0.049770	0.100400	0.497230
H2031	H203	0.046700	0.024800	0.504500
C3441	C344	0.074090	0.123400	0.471410
H2041	H204	0.087000	0.063400	0.460700
C3451	C345	0.080180	0.232900	0.460690
C3461	C346	0.108410	0.255700	0.433640
C3471	C347	0.140400	0.334900	0.440550
H2051	H205	0.142900	0.379600	0.461700
C3481	C348	0.168700	0.349200	0.416630
H2061	H206	0.191100	0.401900	0.421700
C3491	C349	0.164250	0.286400	0.385360
C3501	C350	0.131900	0.211200	0.377830
H2071	H207	0.128400	0.169900	0.356000
C3511	C351	0.104000	0.195000	0.401940
H2081	H208	0.081800	0.141800	0.396700
C3521	C352	0.195980	0.300400	0.360180
O511	O51	0.189440	0.251600	0.330320
O521	O52	0.228210	0.359100	0.369650
C3531	C353	0.892700	0.404800	0.493570
H2091	H209	0.876100	0.465700	0.499700
C3541	C354	0.915700	0.342100	0.520250
H2101	H210	0.914900	0.360500	0.544600
C3551	C355	0.940310	0.252200	0.512380
C3561	C356	0.939140	0.224500	0.476680
H2111	H211	0.954600	0.161300	0.470600
C3571	C357	0.915800	0.287300	0.449630
H2121	H212	0.915300	0.266300	0.425300
C3581	C358	0.893200	0.380200	0.457610
C3591	C359	0.870130	0.456700	0.429370
C3601	C360	0.869900	0.571300	0.435790
H2131	H213	0.884400	0.600000	0.457900
C3611	C361	0.849100	0.644400	0.410640
H2141	H214	0.849900	0.722900	0.415300
C3621	C362	0.827040	0.603700	0.378280
C3631	C363	0.827100	0.489400	0.371890
H2151	H215	0.812300	0.460800	0.349900
C3641	C364	0.848600	0.415500	0.397070
H2161	H216	0.848400	0.337200	0.392200
C3651	C365	0.804240	0.686600	0.352840
O531	O53	0.774510	0.649700	0.328510
O541	O54	0.813510	0.788300	0.355210
C3661	C366	0.941920	0.182600	0.639020
H2171	H217	0.956200	0.196900	0.662700
C3671	C367	0.963620	0.194700	0.610070
H2181	H218	0.992100	0.220000	0.614200
C3681	C368	0.944290	0.170400	0.575320
C3691	C369	0.902250	0.139100	0.570000
H2191	H219	0.888200	0.124800	0.546300
C3701	C370	0.880000	0.128000	0.598850
H2201	H220	0.851200	0.105300	0.594500
C3711	C371	0.899700	0.149800	0.633910
C3721	C372	0.875600	0.145000	0.664130
C3731	C373	0.842500	0.069900	0.664040
H2211	H221	0.836700	0.016700	0.645100
C3741	C374	0.817600	0.070800	0.690970
H2221	H222	0.795600	0.017400	0.690700
C3751	C375	0.825120	0.149800	0.718260
C3761	C376	0.858970	0.223100	0.719190
H2231	H223	0.865400	0.274500	0.738600
C3771	C377	0.883500	0.221800	0.692040
H2241	H224	0.905900	0.274200	0.692600
C3781	C378	0.796530	0.157200	0.746140
O551	O55	0.806820	0.222900	0.772300
O561	O56	0.763940	0.098700	0.742450
K71	K7	0.204170	0.448920	0.734110
Bi81	Bi8	0.746820	0.184190	0.804930
C3791	C379	0.505400	0.655600	0.542820
C3801	C380	0.465800	0.689000	0.543410
C3811	C381	0.597200	0.569500	0.612650
H2251	H225	0.624800	0.597300	0.621200
C3821	C382	0.571600	0.625000	0.585320
H2261	H226	0.582200	0.690000	0.575200
C3831	C383	0.530930	0.588900	0.572200
C3841	C384	0.517650	0.492100	0.587230
H2271	H227	0.490100	0.464200	0.578600
C3851	C385	0.542650	0.434800	0.614050
H2281	H228	0.532400	0.368000	0.623400
C3861	C386	0.582980	0.473300	0.627750
C3871	C387	0.610160	0.415700	0.657570
C3881	C388	0.604900	0.300200	0.665240
H2291	H229	0.583700	0.257500	0.650600
C3891	C389	0.630070	0.250200	0.693430
H2301	H230	0.625900	0.172900	0.698200
C3901	C390	0.661460	0.309000	0.715310
C3911	C391	0.667500	0.421800	0.708050
H2311	H231	0.689200	0.462800	0.722700
C3921	C392	0.642400	0.474600	0.679900
H2321	H232	0.646800	0.551900	0.675500
C3931	C393	0.688010	0.254500	0.746390
O571	O57	0.719190	0.310200	0.763450
O581	O58	0.679700	0.157100	0.756070
C3941	C394	0.560700	0.818500	0.476590
H2331	H233	0.564600	0.894200	0.469800
C3951	C395	0.535490	0.795300	0.502300
H2341	H234	0.522100	0.855300	0.512700
C3961	C396	0.529450	0.686300	0.513120
C3971	C397	0.549770	0.600400	0.497230
H2351	H235	0.546700	0.524800	0.504500
C3981	C398	0.574090	0.623400	0.471410
H2361	H236	0.587000	0.563400	0.460700
C3991	C399	0.580180	0.732900	0.460690
C4001	C400	0.608410	0.755700	0.433640
C4011	C401	0.640400	0.834900	0.440550
H2371	H237	0.642900	0.879600	0.461700
C4021	C402	0.668700	0.849200	0.416630
H2381	H238	0.691100	0.901900	0.421700
C4031	C403	0.664250	0.786400	0.385360
C4041	C404	0.631900	0.711200	0.377830
H2391	H239	0.628400	0.669900	0.356000
C4051	C405	0.604000	0.695000	0.401940
H2401	H240	0.581800	0.641800	0.396700
C4061	C406	0.695980	0.800400	0.360180
O591	O59	0.689440	0.751600	0.330320
O601	O60	0.728210	0.859100	0.369650
C4071	C407	0.392700	0.904800	0.493570
H2411	H241	0.376100	0.965700	0.499700
C4081	C408	0.415700	0.842100	0.520250
H2421	H242	0.414900	0.860500	0.544600
C4091	C409	0.440310	0.752200	0.512380
C4101	C410	0.439140	0.724500	0.476680
H2431	H243	0.454600	0.661300	0.470600
C4111	C411	0.415800	0.787300	0.449630
H2441	H244	0.415300	0.766300	0.425300
C4121	C412	0.393200	0.880200	0.457610
C4131	C413	0.370130	0.956700	0.429370
C4141	C414	0.369900	0.071300	0.435790
H2451	H245	0.384400	0.100000	0.457900
C4151	C415	0.349100	0.144400	0.410640
H2461	H246	0.349900	0.222900	0.415300
C4161	C416	0.327040	0.103700	0.378280
C4171	C417	0.327100	0.989400	0.371890
H2471	H247	0.312300	0.960800	0.349900
C4181	C418	0.348600	0.915500	0.397070
H2481	H248	0.348400	0.837200	0.392200
C4191	C419	0.304240	0.186600	0.352840
O611	O61	0.274510	0.149700	0.328510
O621	O62	0.313510	0.288300	0.355210
C4201	C420	0.441920	0.682600	0.639020
H2491	H249	0.456200	0.696900	0.662700
C4211	C421	0.463620	0.694700	0.610070
H2501	H250	0.492100	0.720000	0.614200
C4221	C422	0.444290	0.670400	0.575320
C4231	C423	0.402250	0.639100	0.570000
H2511	H251	0.388200	0.624800	0.546300
C4241	C424	0.380000	0.628000	0.598850
H2521	H252	0.351200	0.605300	0.594500
C4251	C425	0.399700	0.649800	0.633910
C4261	C426	0.375600	0.645000	0.664130
C4271	C427	0.342500	0.569900	0.664040
H2531	H253	0.336700	0.516700	0.645100
C4281	C428	0.317600	0.570800	0.690970
H2541	H254	0.295600	0.517400	0.690700
C4291	C429	0.325120	0.649800	0.718260
C4301	C430	0.358970	0.723100	0.719190
H2551	H255	0.365400	0.774500	0.738600
C4311	C431	0.383500	0.721800	0.692040
H2561	H256	0.405900	0.774200	0.692600
C4321	C432	0.296530	0.657200	0.746140
O631	O63	0.306820	0.722900	0.772300
O641	O64	0.263940	0.598700	0.742450
K81	K8	0.704170	0.948920	0.734110
