data_IQIPAZ_clean_PM
_symmetry_space_group_name_H-M	'P1'
_cell_length_a	9.997000
_cell_length_b	13.144200
_cell_length_c	16.458000
_cell_angle_alpha	101.096000
_cell_angle_beta	92.796000
_cell_angle_gamma	96.030000
_symmetry_Int_Tables_number 1

loop_
_symmetry_equiv_pos_as_xyz
'x,y,z'

loop_
_atom_site_label
_atom_site_type_symbol
_atom_site_fract_x
_atom_site_fract_y
_atom_site_fract_z
Mn11	Mn1	0.117030	0.259820	0.738110
Mn21	Mn2	0.083600	0.867580	0.761760
Mn31	Mn3	0.460140	0.222980	0.258790
Mn41	Mn4	0.623230	0.369860	0.757570
Mn51	Mn5	0.882970	0.740180	0.261890
Mn61	Mn6	0.916400	0.132420	0.238240
Mn71	Mn7	0.539860	0.777020	0.741210
Mn81	Mn8	0.376770	0.630140	0.242430
H11	H1	0.405400	0.399000	0.006600
H21	H2	0.137500	0.093500	0.995500
H31	H3	0.944700	0.664400	0.492800
H41	H4	0.454600	0.848800	0.546300
H51	H5	0.687400	0.382700	0.954400
H61	H6	0.669100	0.443300	0.098600
H71	H7	0.851900	0.457800	0.182600
H81	H8	0.044400	0.407700	0.137400
H91	H9	0.064500	0.350000	0.998700
H101	H10	0.113800	0.867300	0.961200
H111	H11	0.110900	0.927900	0.107400
H121	H12	0.299900	0.939100	0.192000
H131	H13	0.497000	0.920000	0.147500
H141	H14	0.516500	0.868400	0.999900
H151	H15	0.594600	0.601000	0.993400
H161	H16	0.862500	0.906500	0.004500
H171	H17	0.055300	0.335600	0.507200
H181	H18	0.545400	0.151200	0.453700
H191	H19	0.312600	0.617300	0.045600
H201	H20	0.330900	0.556700	0.901400
H211	H21	0.148100	0.542200	0.817400
H221	H22	0.955600	0.592300	0.862600
H231	H23	0.935500	0.650000	0.001300
H241	H24	0.886200	0.132700	0.038800
H251	H25	0.889100	0.072100	0.892600
H261	H26	0.700100	0.060900	0.808000
H271	H27	0.503000	0.080000	0.852500
H281	H28	0.483500	0.131600	0.000100
C11	C1	0.235000	0.180500	0.925400
C21	C2	0.317000	0.273900	0.927800
C31	C3	0.355600	0.338100	0.005200
C41	C4	0.317700	0.311100	0.079500
C51	C5	0.236600	0.217000	0.076200
C61	C6	0.195200	0.154700	0.999300
C71	C7	0.188800	0.104600	0.846000
C81	C8	0.371000	0.314500	0.853700
C91	C9	0.360700	0.391200	0.157900
C101	C10	0.180800	0.178600	0.150200
C111	C11	0.001800	0.575000	0.573200
C121	C12	0.036000	0.475200	0.576100
C131	C13	0.966500	0.599000	0.496900
C141	C14	0.988800	0.653400	0.651900
C151	C15	0.079200	0.449500	0.658500
C161	C16	0.440000	0.910500	0.443300
C171	C17	0.466600	0.006000	0.418300
C181	C18	0.474600	0.906200	0.525500
C191	C19	0.377700	0.812500	0.385000
C201	C20	0.424400	0.016400	0.331300
C211	C21	0.878900	0.362700	0.960600
C221	C22	0.757500	0.389300	0.989800
C231	C23	0.749700	0.423500	0.074100
C241	C24	0.975300	0.404500	0.100800
C251	C25	0.988600	0.370500	0.017500
C261	C26	0.893700	0.324100	0.867200
C271	C27	0.323200	0.866400	0.968600
C281	C28	0.198300	0.881700	0.999200
C291	C29	0.190400	0.910900	0.083800
C301	C30	0.421900	0.908900	0.107600
C311	C31	0.436000	0.881100	0.023400
C321	C32	0.338600	0.832000	0.876200
C331	C33	0.765000	0.819500	0.074600
C341	C34	0.683000	0.726100	0.072200
C351	C35	0.644400	0.661900	0.994800
C361	C36	0.682300	0.688900	0.920500
C371	C37	0.763400	0.783000	0.923800
C381	C38	0.804800	0.845300	0.000700
C391	C39	0.811200	0.895400	0.154000
C401	C40	0.629000	0.685500	0.146300
C411	C41	0.639300	0.608800	0.842100
C421	C42	0.819200	0.821400	0.849800
C431	C43	0.998200	0.425000	0.426800
C441	C44	0.964000	0.524800	0.423900
C451	C45	0.033500	0.401000	0.503100
C461	C46	0.011200	0.346600	0.348100
C471	C47	0.920800	0.550500	0.341500
C481	C48	0.560000	0.089500	0.556700
C491	C49	0.533400	0.994000	0.581700
C501	C50	0.525400	0.093800	0.474500
C511	C51	0.622300	0.187500	0.615000
C521	C52	0.575600	0.983600	0.668700
C531	C53	0.121100	0.637300	0.039400
C541	C54	0.242500	0.610700	0.010200
C551	C55	0.250300	0.576500	0.925900
C561	C56	0.024700	0.595500	0.899200
C571	C57	0.011400	0.629500	0.982500
C581	C58	0.106300	0.675900	0.132800
C591	C59	0.676800	0.133600	0.031400
C601	C60	0.801700	0.118300	0.000800
C611	C61	0.809600	0.089100	0.916200
C621	C62	0.578100	0.091100	0.892400
C631	C63	0.564000	0.118900	0.976600
C641	C64	0.661400	0.168000	0.123800
N11	N1	0.857100	0.430300	0.126800
N21	N2	0.300800	0.923400	0.135100
N31	N3	0.142900	0.569700	0.873200
N41	N4	0.699200	0.076600	0.864900
O11	O1	0.213800	0.131800	0.778080
O21	O2	0.130500	0.017300	0.851440
O31	O3	0.291900	0.353000	0.808610
O41	O4	0.494200	0.313500	0.846470
O51	O5	0.339300	0.482000	0.154760
O61	O6	0.416500	0.365400	0.219160
O71	O7	0.055100	0.164700	0.148530
O81	O8	0.259000	0.157500	0.204980
O91	O9	0.072700	0.734200	0.665900
O101	O10	0.894200	0.634900	0.695380
O111	O11	0.150800	0.518000	0.709760
O121	O12	0.038200	0.359700	0.668770
O131	O13	0.451600	0.769600	0.331600
O141	O14	0.259900	0.778000	0.394860
O151	O15	0.321000	0.961100	0.296720
O161	O16	0.497700	0.080700	0.298830
O171	O17	0.793000	0.318300	0.819230
O181	O18	0.007700	0.300900	0.849440
O191	O19	0.234700	0.805100	0.828810
O201	O20	0.456600	0.830100	0.855950
O211	O21	0.786200	0.868200	0.221920
O221	O22	0.869500	0.982700	0.148560
O231	O23	0.708100	0.647000	0.191390
O241	O24	0.505800	0.686500	0.153530
O251	O25	0.660700	0.518000	0.845240
O261	O26	0.583500	0.634600	0.780840
O271	O27	0.944900	0.835300	0.851470
O281	O28	0.741000	0.842500	0.795020
O291	O29	0.927300	0.265800	0.334100
O301	O30	0.105800	0.365100	0.304620
O311	O31	0.849200	0.482000	0.290240
O321	O32	0.961800	0.640300	0.331230
O331	O33	0.548400	0.230400	0.668400
O341	O34	0.740100	0.222000	0.605140
O351	O35	0.679000	0.038900	0.703280
O361	O36	0.502300	0.919300	0.701170
O371	O37	0.207000	0.681700	0.180770
O381	O38	0.992300	0.699100	0.150560
O391	O39	0.765300	0.194900	0.171190
O401	O40	0.543400	0.169900	0.144050
