data_IQOJEF_clean_PM
_symmetry_space_group_name_H-M	'P1'
_cell_length_a	14.223200
_cell_length_b	26.539500
_cell_length_c	19.467000
_cell_angle_alpha	90.000000
_cell_angle_beta	107.701000
_cell_angle_gamma	90.000000
_symmetry_Int_Tables_number 1

loop_
_symmetry_equiv_pos_as_xyz
'x,y,z'

loop_
_atom_site_label
_atom_site_type_symbol
_atom_site_fract_x
_atom_site_fract_y
_atom_site_fract_z
C11	C1	0.808700	0.424800	0.124430
C21	C2	0.716500	0.395370	0.107700
C31	C3	0.690800	0.360240	0.053000
H11	H1	0.733400	0.354600	0.025700
C41	C4	0.605000	0.333570	0.037500
H21	H2	0.589900	0.310400	0.999800
C51	C5	0.540000	0.340580	0.077370
C61	C6	0.565400	0.375270	0.133300
H31	H3	0.523500	0.380500	0.161200
C71	C7	0.651900	0.401890	0.147720
H41	H4	0.667700	0.425000	0.185400
C81	C8	0.131500	0.393620	0.148230
C91	C9	0.215800	0.373000	0.125510
C101	C10	0.253400	0.325980	0.148700
H51	H5	0.226600	0.307100	0.178400
C111	C11	0.331800	0.306520	0.127600
H61	H6	0.357800	0.275000	0.143900
C121	C12	0.370300	0.333930	0.082900
C131	C13	0.333500	0.380830	0.061000
H71	H7	0.360300	0.399800	0.031300
C141	C14	0.256800	0.400330	0.082400
H81	H8	0.232800	0.432400	0.067300
C151	C15	0.416600	0.034480	0.923690
H91	H9	0.428600	0.005100	0.951000
C161	C16	0.425200	0.079540	0.959290
H101	H10	0.443600	0.080300	0.009400
C171	C17	0.406300	0.124040	0.920160
C181	C18	0.379100	0.119660	0.846340
H111	H11	0.364300	0.148300	0.817600
C191	C19	0.373800	0.072750	0.814900
H121	H12	0.356300	0.071000	0.764900
C201	C20	0.416400	0.173210	0.957260
C211	C21	0.494700	0.181960	0.019120
H131	H13	0.539800	0.156300	0.037700
C221	C22	0.506900	0.227970	0.053500
H141	H14	0.560700	0.233300	0.094300
C231	C23	0.439300	0.266280	0.027500
C241	C24	0.359800	0.257120	0.968300
H151	H15	0.313000	0.282300	0.951300
C251	C25	0.348000	0.211650	0.933400
H161	H16	0.293300	0.206400	0.893200
C261	C26	0.916900	0.565930	0.126000
H171	H17	0.876700	0.557500	0.154000
C271	C27	0.913500	0.614450	0.101300
H181	H18	0.871600	0.637700	0.112600
C281	C28	0.972420	0.629070	0.059260
C291	C29	0.032900	0.591470	0.045710
H191	H19	0.074200	0.598800	0.018000
C301	C30	0.032100	0.544380	0.072510
H201	H20	0.073900	0.520400	0.062700
C311	C31	0.969200	0.680410	0.028760
C321	C32	0.919500	0.720040	0.050350
H211	H21	0.890400	0.714500	0.086400
C331	C33	0.912900	0.766730	0.019500
H221	H22	0.879700	0.792300	0.035200
C341	C34	0.954600	0.776430	0.965810
C351	C35	0.003900	0.738110	0.943520
H231	H23	0.032200	0.743900	0.907100
C361	C36	0.011300	0.690930	0.975130
H241	H24	0.045600	0.665700	0.959800
C371	C37	0.563000	0.914400	0.848000
C381	C38	0.664900	0.892650	0.870720
C391	C39	0.676100	0.842950	0.864300
H251	H25	0.620200	0.823100	0.845600
C401	C40	0.766500	0.820330	0.884000
H261	H26	0.771100	0.785700	0.878600
C411	C41	0.850300	0.848060	0.911580
C421	C42	0.841800	0.898690	0.919580
H271	H27	0.897600	0.918600	0.938400
C431	C43	0.747900	0.920040	0.898900
H281	H28	0.742100	0.954600	0.904800
C441	C44	0.271700	0.913060	0.865700
C451	C45	0.185350	0.888280	0.881560
C461	C46	0.091200	0.892000	0.833620
H291	H29	0.081400	0.908700	0.790000
C471	C47	0.011400	0.871120	0.849860
H301	H30	0.948400	0.874000	0.817300
C481	C48	0.024790	0.846000	0.914340
C491	C49	0.119400	0.841930	0.961820
H311	H31	0.129600	0.824500	0.004900
C501	C50	0.198700	0.863460	0.945790
H321	H32	0.261500	0.861100	0.978700
C511	C51	0.991000	0.477270	0.308340
H331	H33	0.923100	0.481900	0.296000
C521	C52	0.145500	0.471730	0.371300
H341	H34	0.203900	0.471100	0.409300
C531	C53	0.135400	0.464890	0.301600
H351	H35	0.187300	0.459200	0.282800
C541	C54	0.085200	0.520900	0.491380
H361	H36	0.142100	0.534800	0.485200
C551	C55	0.025400	0.490050	0.439210
C561	C56	0.940300	0.469140	0.447300
H371	H37	0.900600	0.448500	0.411500
C571	C57	0.290500	0.952470	0.649880
H381	H38	0.233200	0.939600	0.656800
C581	C58	0.306700	0.957580	0.586030
H391	H39	0.263100	0.949500	0.541100
C591	C59	0.434900	0.983420	0.671140
H401	H40	0.497100	0.996500	0.694700
C601	C60	0.399200	0.006180	0.481310
H411	H41	0.331100	0.010300	0.468800
C611	C61	0.450700	0.988150	0.548770
C621	C62	0.551600	0.981960	0.567330
H421	H42	0.586400	0.969800	0.612700
N11	N1	0.392140	0.030120	0.851940
N21	N2	0.450540	0.314050	0.061890
N31	N3	0.974170	0.530370	0.112480
N41	N4	0.944600	0.824310	0.932590
N51	N5	0.038440	0.467440	0.261650
N61	N6	0.051830	0.479860	0.375500
N71	N7	0.371780	0.969280	0.703750
N81	N8	0.399520	0.976840	0.599480
O11	O1	0.870970	0.415550	0.092950
O21	O2	0.823600	0.460040	0.171010
O31	O3	0.099690	0.436940	0.124330
O41	O4	0.096070	0.368610	0.187960
O51	O5	0.263780	0.924560	0.800800
O61	O6	0.348260	0.922260	0.915960
O71	O7	0.550300	0.957400	0.859360
O81	O8	0.490800	0.890540	0.817000
Zn11	Zn1	0.393330	0.958180	0.810700
Zn21	Zn2	0.986040	0.458560	0.154390
C631	C63	0.191300	0.575200	0.875570
C641	C64	0.283500	0.604630	0.892300
C651	C65	0.309200	0.639760	0.947000
H431	H43	0.266600	0.645400	0.974300
C661	C66	0.395000	0.666430	0.962500
H441	H44	0.410100	0.689600	0.000200
C671	C67	0.460000	0.659420	0.922630
C681	C68	0.434600	0.624730	0.866700
H451	H45	0.476500	0.619500	0.838800
C691	C69	0.348100	0.598110	0.852280
H461	H46	0.332300	0.575000	0.814600
C701	C70	0.868500	0.606380	0.851770
C711	C71	0.784200	0.627000	0.874490
C721	C72	0.746600	0.674020	0.851300
H471	H47	0.773400	0.692900	0.821600
C731	C73	0.668200	0.693480	0.872400
H481	H48	0.642200	0.725000	0.856100
C741	C74	0.629700	0.666070	0.917100
C751	C75	0.666500	0.619170	0.939000
H491	H49	0.639700	0.600200	0.968700
C761	C76	0.743200	0.599670	0.917600
H501	H50	0.767200	0.567600	0.932700
C771	C77	0.583400	0.965520	0.076310
H511	H51	0.571400	0.994900	0.049000
C781	C78	0.574800	0.920460	0.040710
H521	H52	0.556400	0.919700	0.990600
C791	C79	0.593700	0.875960	0.079840
C801	C80	0.620900	0.880340	0.153660
H531	H53	0.635700	0.851700	0.182400
C811	C81	0.626200	0.927250	0.185100
H541	H54	0.643700	0.929000	0.235100
C821	C82	0.583600	0.826790	0.042740
C831	C83	0.505300	0.818040	0.980880
H551	H55	0.460200	0.843700	0.962300
C841	C84	0.493100	0.772030	0.946500
H561	H56	0.439300	0.766700	0.905700
C851	C85	0.560700	0.733720	0.972500
C861	C86	0.640200	0.742880	0.031700
H571	H57	0.687000	0.717700	0.048700
C871	C87	0.652000	0.788350	0.066600
H581	H58	0.706700	0.793600	0.106800
C881	C88	0.083100	0.434070	0.874000
H591	H59	0.123300	0.442500	0.846000
C891	C89	0.086500	0.385550	0.898700
H601	H60	0.128400	0.362300	0.887400
C901	C90	0.027580	0.370930	0.940740
C911	C91	0.967100	0.408530	0.954290
H611	H61	0.925800	0.401200	0.982000
C921	C92	0.967900	0.455620	0.927490
H621	H62	0.926100	0.479600	0.937300
C931	C93	0.030800	0.319590	0.971240
C941	C94	0.080500	0.279960	0.949650
H631	H63	0.109600	0.285500	0.913600
C951	C95	0.087100	0.233270	0.980500
H641	H64	0.120300	0.207700	0.964800
C961	C96	0.045400	0.223570	0.034190
C971	C97	0.996100	0.261890	0.056480
H651	H65	0.967800	0.256100	0.092900
C981	C98	0.988700	0.309070	0.024870
H661	H66	0.954400	0.334300	0.040200
C991	C99	0.437000	0.085600	0.152000
C1001	C100	0.335100	0.107350	0.129280
C1011	C101	0.323900	0.157050	0.135700
H671	H67	0.379800	0.176900	0.154400
C1021	C102	0.233500	0.179670	0.116000
H681	H68	0.228900	0.214300	0.121400
C1031	C103	0.149700	0.151940	0.088420
C1041	C104	0.158200	0.101310	0.080420
H691	H69	0.102400	0.081400	0.061600
C1051	C105	0.252100	0.079960	0.101100
H701	H70	0.257900	0.045400	0.095200
C1061	C106	0.728300	0.086940	0.134300
C1071	C107	0.814650	0.111720	0.118440
C1081	C108	0.908800	0.108000	0.166380
H711	H71	0.918600	0.091300	0.210000
C1091	C109	0.988600	0.128880	0.150140
H721	H72	0.051600	0.126000	0.182700
C1101	C110	0.975210	0.154000	0.085660
C1111	C111	0.880600	0.158070	0.038180
H731	H73	0.870400	0.175500	0.995100
C1121	C112	0.801300	0.136540	0.054210
H741	H74	0.738500	0.138900	0.021300
C1131	C113	0.009000	0.522730	0.691660
H751	H75	0.076900	0.518100	0.704000
C1141	C114	0.854500	0.528270	0.628700
H761	H76	0.796100	0.528900	0.590700
C1151	C115	0.864600	0.535110	0.698400
H771	H77	0.812700	0.540800	0.717200
C1161	C116	0.914800	0.479100	0.508620
H781	H78	0.857900	0.465200	0.514800
C1171	C117	0.974600	0.509950	0.560790
C1181	C118	0.059700	0.530860	0.552700
H791	H79	0.099400	0.551500	0.588500
C1191	C119	0.709500	0.047530	0.350120
H801	H80	0.766800	0.060400	0.343200
C1201	C120	0.693300	0.042420	0.413970
H811	H81	0.736900	0.050500	0.458900
C1211	C121	0.565100	0.016580	0.328860
H821	H82	0.502900	0.003500	0.305300
C1221	C122	0.600800	0.993820	0.518690
H831	H83	0.668900	0.989700	0.531200
C1231	C123	0.549300	0.011850	0.451230
C1241	C124	0.448400	0.018040	0.432670
H841	H84	0.413600	0.030200	0.387300
N91	N9	0.607860	0.969880	0.148060
N101	N10	0.549460	0.685950	0.938110
N111	N11	0.025830	0.469630	0.887520
N121	N12	0.055400	0.175690	0.067410
N131	N13	0.961560	0.532560	0.738350
N141	N14	0.948170	0.520140	0.624500
N151	N15	0.628220	0.030720	0.296250
N161	N16	0.600480	0.023160	0.400520
O91	O9	0.129030	0.584450	0.907050
O101	O10	0.176400	0.539960	0.828990
O111	O11	0.900310	0.563060	0.875670
O121	O12	0.903930	0.631390	0.812040
O131	O13	0.736220	0.075440	0.199200
O141	O14	0.651740	0.077740	0.084040
O151	O15	0.449700	0.042600	0.140640
O161	O16	0.509200	0.109460	0.183000
Zn31	Zn3	0.606670	0.041820	0.189300
Zn41	Zn4	0.013960	0.541440	0.845610
C1251	C125	0.191300	0.924800	0.375570
C1261	C126	0.283500	0.895370	0.392300
C1271	C127	0.309200	0.860240	0.447000
H851	H85	0.266600	0.854600	0.474300
C1281	C128	0.395000	0.833570	0.462500
H861	H86	0.410100	0.810400	0.500200
C1291	C129	0.460000	0.840580	0.422630
C1301	C130	0.434600	0.875270	0.366700
H871	H87	0.476500	0.880500	0.338800
C1311	C131	0.348100	0.901890	0.352280
H881	H88	0.332300	0.925000	0.314600
C1321	C132	0.868500	0.893620	0.351770
C1331	C133	0.784200	0.873000	0.374490
C1341	C134	0.746600	0.825980	0.351300
H891	H89	0.773400	0.807100	0.321600
C1351	C135	0.668200	0.806520	0.372400
H901	H90	0.642200	0.775000	0.356100
C1361	C136	0.629700	0.833930	0.417100
C1371	C137	0.666500	0.880830	0.439000
H911	H91	0.639700	0.899800	0.468700
C1381	C138	0.743200	0.900330	0.417600
H921	H92	0.767200	0.932400	0.432700
C1391	C139	0.583400	0.534480	0.576310
H931	H93	0.571400	0.505100	0.549000
C1401	C140	0.574800	0.579540	0.540710
H941	H94	0.556400	0.580300	0.490600
C1411	C141	0.593700	0.624040	0.579840
C1421	C142	0.620900	0.619660	0.653660
H951	H95	0.635700	0.648300	0.682400
C1431	C143	0.626200	0.572750	0.685100
H961	H96	0.643700	0.571000	0.735100
C1441	C144	0.583600	0.673210	0.542740
C1451	C145	0.505300	0.681960	0.480880
H971	H97	0.460200	0.656300	0.462300
C1461	C146	0.493100	0.727970	0.446500
H981	H98	0.439300	0.733300	0.405700
C1471	C147	0.560700	0.766280	0.472500
C1481	C148	0.640200	0.757120	0.531700
H991	H99	0.687000	0.782300	0.548700
C1491	C149	0.652000	0.711650	0.566600
H1001	H100	0.706700	0.706400	0.606800
C1501	C150	0.083100	0.065930	0.374000
H1011	H101	0.123300	0.057500	0.346000
C1511	C151	0.086500	0.114450	0.398700
H1021	H102	0.128400	0.137700	0.387400
C1521	C152	0.027580	0.129070	0.440740
C1531	C153	0.967100	0.091470	0.454290
H1031	H103	0.925800	0.098800	0.482000
C1541	C154	0.967900	0.044380	0.427490
H1041	H104	0.926100	0.020400	0.437300
C1551	C155	0.030800	0.180410	0.471240
C1561	C156	0.080500	0.220040	0.449650
H1051	H105	0.109600	0.214500	0.413600
C1571	C157	0.087100	0.266730	0.480500
H1061	H106	0.120300	0.292300	0.464800
C1581	C158	0.045400	0.276430	0.534190
C1591	C159	0.996100	0.238110	0.556480
H1071	H107	0.967800	0.243900	0.592900
C1601	C160	0.988700	0.190930	0.524870
H1081	H108	0.954400	0.165700	0.540200
C1611	C161	0.437000	0.414400	0.652000
C1621	C162	0.335100	0.392650	0.629280
C1631	C163	0.323900	0.342950	0.635700
H1091	H109	0.379800	0.323100	0.654400
C1641	C164	0.233500	0.320330	0.616000
H1101	H110	0.228900	0.285700	0.621400
C1651	C165	0.149700	0.348060	0.588420
C1661	C166	0.158200	0.398690	0.580420
H1111	H111	0.102400	0.418600	0.561600
C1671	C167	0.252100	0.420040	0.601100
H1121	H112	0.257900	0.454600	0.595200
C1681	C168	0.728300	0.413060	0.634300
C1691	C169	0.814650	0.388280	0.618440
C1701	C170	0.908800	0.392000	0.666380
H1131	H113	0.918600	0.408700	0.710000
C1711	C171	0.988600	0.371120	0.650140
H1141	H114	0.051600	0.374000	0.682700
C1721	C172	0.975210	0.346000	0.585660
C1731	C173	0.880600	0.341930	0.538180
H1151	H115	0.870400	0.324500	0.495100
C1741	C174	0.801300	0.363460	0.554210
H1161	H116	0.738500	0.361100	0.521300
C1751	C175	0.009000	0.977270	0.191660
H1171	H117	0.076900	0.981900	0.204000
C1761	C176	0.854500	0.971730	0.128700
H1181	H118	0.796100	0.971100	0.090700
C1771	C177	0.864600	0.964890	0.198400
H1191	H119	0.812700	0.959200	0.217200
C1781	C178	0.914800	0.020900	0.008620
H1201	H120	0.857900	0.034800	0.014800
C1791	C179	0.974600	0.990050	0.060790
C1801	C180	0.059700	0.969140	0.052700
H1211	H121	0.099400	0.948500	0.088500
C1811	C181	0.709500	0.452470	0.850120
H1221	H122	0.766800	0.439600	0.843200
C1821	C182	0.693300	0.457580	0.913970
H1231	H123	0.736900	0.449500	0.958900
C1831	C183	0.565100	0.483420	0.828860
H1241	H124	0.502900	0.496500	0.805300
C1841	C184	0.600800	0.506180	0.018690
H1251	H125	0.668900	0.510300	0.031200
C1851	C185	0.549300	0.488150	0.951230
C1861	C186	0.448400	0.481960	0.932670
H1261	H126	0.413600	0.469800	0.887300
N171	N17	0.607860	0.530120	0.648060
N181	N18	0.549460	0.814050	0.438110
N191	N19	0.025830	0.030370	0.387520
N201	N20	0.055400	0.324310	0.567410
N211	N21	0.961560	0.967440	0.238350
N221	N22	0.948170	0.979860	0.124500
N231	N23	0.628220	0.469280	0.796250
N241	N24	0.600480	0.476840	0.900520
O171	O17	0.129030	0.915550	0.407050
O181	O18	0.176400	0.960040	0.328990
O191	O19	0.900310	0.936940	0.375670
O201	O20	0.903930	0.868610	0.312040
O211	O21	0.736220	0.424560	0.699200
O221	O22	0.651740	0.422260	0.584040
O231	O23	0.449700	0.457400	0.640640
O241	O24	0.509200	0.390540	0.683000
Zn51	Zn5	0.606670	0.458180	0.689300
Zn61	Zn6	0.013960	0.958560	0.345610
C1871	C187	0.808700	0.075200	0.624430
C1881	C188	0.716500	0.104630	0.607700
C1891	C189	0.690800	0.139760	0.553000
H1271	H127	0.733400	0.145400	0.525700
C1901	C190	0.605000	0.166430	0.537500
H1281	H128	0.589900	0.189600	0.499800
C1911	C191	0.540000	0.159420	0.577370
C1921	C192	0.565400	0.124730	0.633300
H1291	H129	0.523500	0.119500	0.661200
C1931	C193	0.651900	0.098110	0.647720
H1301	H130	0.667700	0.075000	0.685400
C1941	C194	0.131500	0.106380	0.648230
C1951	C195	0.215800	0.127000	0.625510
C1961	C196	0.253400	0.174020	0.648700
H1311	H131	0.226600	0.192900	0.678400
C1971	C197	0.331800	0.193480	0.627600
H1321	H132	0.357800	0.225000	0.643900
C1981	C198	0.370300	0.166070	0.582900
C1991	C199	0.333500	0.119170	0.561000
H1331	H133	0.360300	0.100200	0.531300
C2001	C200	0.256800	0.099670	0.582400
H1341	H134	0.232800	0.067600	0.567300
C2011	C201	0.416600	0.465520	0.423690
H1351	H135	0.428600	0.494900	0.451000
C2021	C202	0.425200	0.420460	0.459290
H1361	H136	0.443600	0.419700	0.509400
C2031	C203	0.406300	0.375960	0.420160
C2041	C204	0.379100	0.380340	0.346340
H1371	H137	0.364300	0.351700	0.317600
C2051	C205	0.373800	0.427250	0.314900
H1381	H138	0.356300	0.429000	0.264900
C2061	C206	0.416400	0.326790	0.457260
C2071	C207	0.494700	0.318040	0.519120
H1391	H139	0.539800	0.343700	0.537700
C2081	C208	0.506900	0.272030	0.553500
H1401	H140	0.560700	0.266700	0.594300
C2091	C209	0.439300	0.233720	0.527500
C2101	C210	0.359800	0.242880	0.468300
H1411	H141	0.313000	0.217700	0.451300
C2111	C211	0.348000	0.288350	0.433400
H1421	H142	0.293300	0.293600	0.393200
C2121	C212	0.916900	0.934070	0.626000
H1431	H143	0.876700	0.942500	0.654000
C2131	C213	0.913500	0.885550	0.601300
H1441	H144	0.871600	0.862300	0.612600
C2141	C214	0.972420	0.870930	0.559260
C2151	C215	0.032900	0.908530	0.545710
H1451	H145	0.074200	0.901200	0.518000
C2161	C216	0.032100	0.955620	0.572510
H1461	H146	0.073900	0.979600	0.562700
C2171	C217	0.969200	0.819590	0.528760
C2181	C218	0.919500	0.779960	0.550350
H1471	H147	0.890400	0.785500	0.586400
C2191	C219	0.912900	0.733270	0.519500
H1481	H148	0.879700	0.707700	0.535200
C2201	C220	0.954600	0.723570	0.465810
C2211	C221	0.003900	0.761890	0.443520
H1491	H149	0.032200	0.756100	0.407100
C2221	C222	0.011300	0.809070	0.475130
H1501	H150	0.045600	0.834300	0.459800
C2231	C223	0.563000	0.585600	0.348000
C2241	C224	0.664900	0.607350	0.370720
C2251	C225	0.676100	0.657050	0.364300
H1511	H151	0.620200	0.676900	0.345600
C2261	C226	0.766500	0.679670	0.384000
H1521	H152	0.771100	0.714300	0.378600
C2271	C227	0.850300	0.651940	0.411580
C2281	C228	0.841800	0.601310	0.419580
H1531	H153	0.897600	0.581400	0.438400
C2291	C229	0.747900	0.579960	0.398900
H1541	H154	0.742100	0.545400	0.404800
C2301	C230	0.271700	0.586940	0.365700
C2311	C231	0.185350	0.611720	0.381560
C2321	C232	0.091200	0.608000	0.333620
H1551	H155	0.081400	0.591300	0.290000
C2331	C233	0.011400	0.628880	0.349860
H1561	H156	0.948400	0.626000	0.317300
C2341	C234	0.024790	0.654000	0.414340
C2351	C235	0.119400	0.658070	0.461820
H1571	H157	0.129600	0.675500	0.504900
C2361	C236	0.198700	0.636540	0.445790
H1581	H158	0.261500	0.638900	0.478700
C2371	C237	0.991000	0.022730	0.808340
H1591	H159	0.923100	0.018100	0.796000
C2381	C238	0.145500	0.028270	0.871300
H1601	H160	0.203900	0.028900	0.909300
C2391	C239	0.135400	0.035110	0.801600
H1611	H161	0.187300	0.040800	0.782800
C2401	C240	0.085200	0.979100	0.991380
H1621	H162	0.142100	0.965200	0.985200
C2411	C241	0.025400	0.009950	0.939210
C2421	C242	0.940300	0.030860	0.947300
H1631	H163	0.900600	0.051500	0.911500
C2431	C243	0.290500	0.547530	0.149880
H1641	H164	0.233200	0.560400	0.156800
C2441	C244	0.306700	0.542420	0.086030
H1651	H165	0.263100	0.550500	0.041100
C2451	C245	0.434900	0.516580	0.171140
H1661	H166	0.497100	0.503500	0.194700
C2461	C246	0.399200	0.493820	0.981310
H1671	H167	0.331100	0.489700	0.968800
C2471	C247	0.450700	0.511850	0.048770
C2481	C248	0.551600	0.518040	0.067330
H1681	H168	0.586400	0.530200	0.112700
N251	N25	0.392140	0.469880	0.351940
N261	N26	0.450540	0.185950	0.561890
N271	N27	0.974170	0.969630	0.612480
N281	N28	0.944600	0.675690	0.432590
N291	N29	0.038440	0.032560	0.761650
N301	N30	0.051830	0.020140	0.875500
N311	N31	0.371780	0.530720	0.203750
N321	N32	0.399520	0.523160	0.099480
O251	O25	0.870970	0.084450	0.592950
O261	O26	0.823600	0.039960	0.671010
O271	O27	0.099690	0.063060	0.624330
O281	O28	0.096070	0.131390	0.687960
O291	O29	0.263780	0.575440	0.300800
O301	O30	0.348260	0.577740	0.415960
O311	O31	0.550300	0.542600	0.359360
O321	O32	0.490800	0.609460	0.317000
Zn71	Zn7	0.393330	0.541820	0.310700
Zn81	Zn8	0.986040	0.041440	0.654390
