data_IQUCOO_clean_PM
_symmetry_space_group_name_H-M	'P1'
_cell_length_a	10.717000
_cell_length_b	23.114000
_cell_length_c	10.070000
_cell_angle_alpha	90.000000
_cell_angle_beta	104.780000
_cell_angle_gamma	90.000000
_symmetry_Int_Tables_number 1

loop_
_symmetry_equiv_pos_as_xyz
'x,y,z'

loop_
_atom_site_label
_atom_site_type_symbol
_atom_site_fract_x
_atom_site_fract_y
_atom_site_fract_z
O11	O1	0.660370	0.294370	0.851790
H11	H1	0.689800	0.268400	0.813400
O21	O2	0.537680	0.222720	0.896660
O31	O3	0.281160	0.262070	0.225340
O41	O4	0.185110	0.348150	0.216140
C11	C1	0.574460	0.273850	0.905200
C21	C2	0.511440	0.316180	0.979600
C31	C3	0.534370	0.374780	0.970500
H21	H2	0.593700	0.387400	0.923500
C41	C4	0.469270	0.415080	0.031000
C51	C5	0.360870	0.336730	0.114490
C61	C6	0.425680	0.297410	0.052600
H31	H3	0.411500	0.258000	0.060100
C71	C7	0.381550	0.395620	0.102800
H41	H4	0.337000	0.422200	0.142800
C81	C8	0.267160	0.315390	0.191500
C91	C9	0.490030	0.475290	0.011800
O51	O5	0.160370	0.794370	0.851790
H51	H5	0.189800	0.768400	0.813400
O61	O6	0.037680	0.722720	0.896660
O71	O7	0.781160	0.762070	0.225340
O81	O8	0.685110	0.848150	0.216140
C101	C10	0.074460	0.773850	0.905200
C111	C11	0.011440	0.816180	0.979600
C121	C12	0.034370	0.874780	0.970500
H61	H6	0.093700	0.887400	0.923500
C131	C13	0.969270	0.915080	0.031000
C141	C14	0.860870	0.836730	0.114490
C151	C15	0.925680	0.797410	0.052600
H71	H7	0.911500	0.758000	0.060100
C161	C16	0.881550	0.895620	0.102800
H81	H8	0.837000	0.922200	0.142800
C171	C17	0.767160	0.815390	0.191500
C181	C18	0.990030	0.975290	0.011800
O91	O9	0.339630	0.294370	0.648210
H91	H9	0.310200	0.268400	0.686600
O101	O10	0.462320	0.222720	0.603340
O111	O11	0.718840	0.262070	0.274660
O121	O12	0.814890	0.348150	0.283860
C191	C19	0.425540	0.273850	0.594800
C201	C20	0.488560	0.316180	0.520400
C211	C21	0.465630	0.374780	0.529500
H101	H10	0.406300	0.387400	0.576500
C221	C22	0.530730	0.415080	0.469000
C231	C23	0.639130	0.336730	0.385510
C241	C24	0.574320	0.297410	0.447400
H111	H11	0.588500	0.258000	0.439900
C251	C25	0.618450	0.395620	0.397200
H121	H12	0.663000	0.422200	0.357200
C261	C26	0.732840	0.315390	0.308500
C271	C27	0.509970	0.475290	0.488200
O131	O13	0.839630	0.794370	0.648210
H131	H13	0.810200	0.768400	0.686600
O141	O14	0.962320	0.722720	0.603340
O151	O15	0.218840	0.762070	0.274660
O161	O16	0.314890	0.848150	0.283860
C281	C28	0.925540	0.773850	0.594800
C291	C29	0.988560	0.816180	0.520400
C301	C30	0.965630	0.874780	0.529500
H141	H14	0.906300	0.887400	0.576500
C311	C31	0.030730	0.915080	0.469000
C321	C32	0.139130	0.836730	0.385510
C331	C33	0.074320	0.797410	0.447400
H151	H15	0.088500	0.758000	0.439900
C341	C34	0.118450	0.895620	0.397200
H161	H16	0.163000	0.922200	0.357200
C351	C35	0.232840	0.815390	0.308500
C361	C36	0.009970	0.975290	0.488200
O171	O17	0.339630	0.705630	0.148210
H171	H17	0.310200	0.731600	0.186600
O181	O18	0.462320	0.777280	0.103340
O191	O19	0.718840	0.737930	0.774660
O201	O20	0.814890	0.651850	0.783860
C371	C37	0.425540	0.726150	0.094800
C381	C38	0.488560	0.683820	0.020400
C391	C39	0.465630	0.625220	0.029500
H181	H18	0.406300	0.612600	0.076500
C401	C40	0.530730	0.584920	0.969000
C411	C41	0.639130	0.663270	0.885510
C421	C42	0.574320	0.702590	0.947400
H191	H19	0.588500	0.742000	0.939900
C431	C43	0.618450	0.604380	0.897200
H201	H20	0.663000	0.577800	0.857200
C441	C44	0.732840	0.684610	0.808500
C451	C45	0.509970	0.524710	0.988200
O211	O21	0.839630	0.205630	0.148210
H211	H21	0.810200	0.231600	0.186600
O221	O22	0.962320	0.277280	0.103340
O231	O23	0.218840	0.237930	0.774660
O241	O24	0.314890	0.151850	0.783860
C461	C46	0.925540	0.226150	0.094800
C471	C47	0.988560	0.183820	0.020400
C481	C48	0.965630	0.125220	0.029500
H221	H22	0.906300	0.112600	0.076500
C491	C49	0.030730	0.084920	0.969000
C501	C50	0.139130	0.163270	0.885510
C511	C51	0.074320	0.202590	0.947400
H231	H23	0.088500	0.242000	0.939900
C521	C52	0.118450	0.104380	0.897200
H241	H24	0.163000	0.077800	0.857200
C531	C53	0.232840	0.184610	0.808500
C541	C54	0.009970	0.024710	0.988200
O251	O25	0.660370	0.705630	0.351790
H251	H25	0.689800	0.731600	0.313400
O261	O26	0.537680	0.777280	0.396660
O271	O27	0.281160	0.737930	0.725340
O281	O28	0.185110	0.651850	0.716140
C551	C55	0.574460	0.726150	0.405200
C561	C56	0.511440	0.683820	0.479600
C571	C57	0.534370	0.625220	0.470500
H261	H26	0.593700	0.612600	0.423500
C581	C58	0.469270	0.584920	0.531000
C591	C59	0.360870	0.663270	0.614490
C601	C60	0.425680	0.702590	0.552600
H271	H27	0.411500	0.742000	0.560100
C611	C61	0.381550	0.604380	0.602800
H281	H28	0.337000	0.577800	0.642800
C621	C62	0.267160	0.684610	0.691500
C631	C63	0.490030	0.524710	0.511800
O291	O29	0.160370	0.205630	0.351790
H291	H29	0.189800	0.231600	0.313400
O301	O30	0.037680	0.277280	0.396660
O311	O31	0.781160	0.237930	0.725340
O321	O32	0.685110	0.151850	0.716140
C641	C64	0.074460	0.226150	0.405200
C651	C65	0.011440	0.183820	0.479600
C661	C66	0.034370	0.125220	0.470500
H301	H30	0.093700	0.112600	0.423500
C671	C67	0.969270	0.084920	0.531000
C681	C68	0.860870	0.163270	0.614490
C691	C69	0.925680	0.202590	0.552600
H311	H31	0.911500	0.242000	0.560100
C701	C70	0.881550	0.104380	0.602800
H321	H32	0.837000	0.077800	0.642800
C711	C71	0.767160	0.184610	0.691500
C721	C72	0.990030	0.024710	0.511800
Mg11	Mg1	0.500000	0.157860	0.750000
Mg21	Mg2	0.000000	0.657860	0.750000
Mg31	Mg3	0.500000	0.842140	0.250000
Mg41	Mg4	0.000000	0.342140	0.250000
