data_IQUNAJ01_clean_PM
_symmetry_space_group_name_H-M	'P1'
_cell_length_a	8.920600
_cell_length_b	9.258200
_cell_length_c	9.258200
_cell_angle_alpha	76.579200
_cell_angle_beta	61.199000
_cell_angle_gamma	61.199000
_symmetry_Int_Tables_number 1

loop_
_symmetry_equiv_pos_as_xyz
'x,y,z'

loop_
_atom_site_label
_atom_site_type_symbol
_atom_site_fract_x
_atom_site_fract_y
_atom_site_fract_z
K11	K1	0.625000	0.750000	0.750000
K21	K2	0.375000	0.250000	0.250000
Y11	Y1	0.125000	0.750000	0.750000
Y21	Y2	0.875000	0.250000	0.250000
C11	C1	0.556300	0.521500	0.525700
C21	C2	0.103500	0.978500	0.974300
C31	C3	0.082000	0.474300	0.021500
C41	C4	0.077800	0.025700	0.478500
C51	C5	0.443700	0.478500	0.474300
C61	C6	0.896500	0.021500	0.025700
C71	C7	0.918000	0.525700	0.978500
C81	C8	0.922200	0.974300	0.521500
O11	O1	0.463000	0.627100	0.636500
O21	O2	0.180400	0.951500	0.555100
O31	O3	0.226600	0.872900	0.863500
O41	O4	0.187000	0.548500	0.944900
O51	O5	0.099500	0.363500	0.127100
O61	O6	0.735500	0.444900	0.451500
O71	O7	0.090100	0.136500	0.372900
O81	O8	0.131900	0.055100	0.048500
O91	O9	0.537000	0.372900	0.363500
O101	O10	0.819600	0.048500	0.444900
O111	O11	0.773400	0.127100	0.136500
O121	O12	0.813000	0.451500	0.055100
O131	O13	0.900500	0.636500	0.872900
O141	O14	0.264500	0.555100	0.548500
O151	O15	0.909900	0.863500	0.627100
O161	O16	0.868100	0.944900	0.951500
