data_IQUNAJ_clean_PM
_symmetry_space_group_name_H-M	'P1'
_cell_length_a	8.904000
_cell_length_b	9.246600
_cell_length_c	9.246600
_cell_angle_alpha	76.595900
_cell_angle_beta	61.218300
_cell_angle_gamma	61.218300
_symmetry_Int_Tables_number 1

loop_
_symmetry_equiv_pos_as_xyz
'x,y,z'

loop_
_atom_site_label
_atom_site_type_symbol
_atom_site_fract_x
_atom_site_fract_y
_atom_site_fract_z
K11	K1	0.875000	0.250000	0.250000
K21	K2	0.125000	0.750000	0.750000
Y11	Y1	0.625000	0.750000	0.750000
Y21	Y2	0.375000	0.250000	0.250000
C11	C1	0.578500	0.478500	0.025500
C21	C2	0.582500	0.021500	0.474500
C31	C3	0.604000	0.974500	0.978500
C41	C4	0.057000	0.525500	0.521500
C51	C5	0.421500	0.521500	0.974500
C61	C6	0.417500	0.978500	0.525500
C71	C7	0.396000	0.025500	0.021500
C81	C8	0.943000	0.474500	0.478500
O11	O1	0.691900	0.543600	0.940600
O21	O2	0.608700	0.353400	0.118000
O31	O3	0.676100	0.956400	0.559400
O41	O4	0.580100	0.146600	0.382000
O51	O5	0.632500	0.059400	0.043600
O61	O6	0.726700	0.882000	0.853400
O71	O7	0.235500	0.440600	0.456400
O81	O8	0.962100	0.618000	0.646600
O91	O9	0.308100	0.456400	0.059400
O101	O10	0.391300	0.646600	0.882000
O111	O11	0.323900	0.043600	0.440600
O121	O12	0.419900	0.853400	0.618000
O131	O13	0.367500	0.940600	0.956400
O141	O14	0.273300	0.118000	0.146600
O151	O15	0.764500	0.559400	0.543600
O161	O16	0.037900	0.382000	0.353400
