data_IRAJIV_clean_PM
_symmetry_space_group_name_H-M	'P1'
_cell_length_a	13.342200
_cell_length_b	13.342200
_cell_length_c	17.868700
_cell_angle_alpha	90.000000
_cell_angle_beta	90.000000
_cell_angle_gamma	120.000000
_symmetry_Int_Tables_number 1

loop_
_symmetry_equiv_pos_as_xyz
'x,y,z'

loop_
_atom_site_label
_atom_site_type_symbol
_atom_site_fract_x
_atom_site_fract_y
_atom_site_fract_z
Ga11	Ga1	0.859580	0.567370	0.460330
P11	P1	0.974560	0.813420	0.371090
H11	H1	0.036700	0.806100	0.347200
P21	P2	0.872530	0.367840	0.553540
H21	H2	0.829700	0.323800	0.597800
O11	O1	0.925500	0.859800	0.311100
O21	O2	0.028500	0.893400	0.438700
O31	O3	0.830300	0.451900	0.536100
O41	O4	0.719800	0.567400	0.491700
O51	O5	0.000500	0.572600	0.426400
O61	O6	0.774900	0.450600	0.382600
O71	O7	0.881100	0.692100	0.392300
Ga21	Ga2	0.432630	0.292210	0.460330
P31	P3	0.186580	0.161140	0.371090
H31	H3	0.193900	0.230600	0.347200
P41	P4	0.632160	0.504690	0.553540
H41	H4	0.676200	0.505900	0.597800
O81	O8	0.140200	0.065700	0.311100
O91	O9	0.106600	0.135100	0.438700
O101	O10	0.548100	0.378400	0.536100
O111	O11	0.432600	0.152400	0.491700
O121	O12	0.427400	0.427900	0.426400
O131	O13	0.549400	0.324300	0.382600
O141	O14	0.307900	0.189000	0.392300
Ga31	Ga3	0.707790	0.140420	0.460330
P51	P5	0.838860	0.025440	0.371090
H51	H5	0.769400	0.963300	0.347200
P61	P6	0.495310	0.127470	0.553540
H61	H6	0.494100	0.170300	0.597800
O151	O15	0.934300	0.074500	0.311100
O161	O16	0.864900	0.971500	0.438700
O171	O17	0.621600	0.169700	0.536100
O181	O18	0.847600	0.280200	0.491700
O191	O19	0.572100	0.999500	0.426400
O201	O20	0.675700	0.225100	0.382600
O211	O21	0.811000	0.118900	0.392300
Ga41	Ga4	0.567370	0.859580	0.039670
P71	P7	0.813420	0.974560	0.128910
H71	H7	0.806100	0.036700	0.152800
P81	P8	0.367840	0.872530	0.946460
H81	H8	0.323800	0.829700	0.902200
O221	O22	0.859800	0.925500	0.188900
O231	O23	0.893400	0.028500	0.061300
O241	O24	0.451900	0.830300	0.963900
O251	O25	0.567400	0.719800	0.008300
O261	O26	0.572600	0.000500	0.073600
O271	O27	0.450600	0.774900	0.117400
O281	O28	0.692100	0.881100	0.107700
Ga51	Ga5	0.292210	0.432630	0.039670
P91	P9	0.161140	0.186580	0.128910
H91	H9	0.230600	0.193900	0.152800
P101	P10	0.504690	0.632160	0.946460
H101	H10	0.505900	0.676200	0.902200
O291	O29	0.065700	0.140200	0.188900
O301	O30	0.135100	0.106600	0.061300
O311	O31	0.378400	0.548100	0.963900
O321	O32	0.152400	0.432600	0.008300
O331	O33	0.427900	0.427400	0.073600
O341	O34	0.324300	0.549400	0.117400
O351	O35	0.189000	0.307900	0.107700
Ga61	Ga6	0.140420	0.707790	0.039670
P111	P11	0.025440	0.838860	0.128910
H111	H11	0.963300	0.769400	0.152800
P121	P12	0.127470	0.495310	0.946460
H121	H12	0.170300	0.494100	0.902200
O361	O36	0.074500	0.934300	0.188900
O371	O37	0.971500	0.864900	0.061300
O381	O38	0.169700	0.621600	0.963900
O391	O39	0.280200	0.847600	0.008300
O401	O40	0.999500	0.572100	0.073600
O411	O41	0.225100	0.675700	0.117400
O421	O42	0.118900	0.811000	0.107700
Ga71	Ga7	0.140420	0.432630	0.539670
P131	P13	0.025440	0.186580	0.628910
H131	H13	0.963300	0.193900	0.652800
P141	P14	0.127470	0.632160	0.446460
H141	H14	0.170300	0.676200	0.402200
O431	O43	0.074500	0.140200	0.688900
O441	O44	0.971500	0.106600	0.561300
O451	O45	0.169700	0.548100	0.463900
O461	O46	0.280200	0.432600	0.508300
O471	O47	0.999500	0.427400	0.573600
O481	O48	0.225100	0.549400	0.617400
O491	O49	0.118900	0.307900	0.607700
Ga81	Ga8	0.567370	0.707790	0.539670
P151	P15	0.813420	0.838860	0.628910
H151	H15	0.806100	0.769400	0.652800
P161	P16	0.367840	0.495310	0.446460
H161	H16	0.323800	0.494100	0.402200
O501	O50	0.859800	0.934300	0.688900
O511	O51	0.893400	0.864900	0.561300
O521	O52	0.451900	0.621600	0.463900
O531	O53	0.567400	0.847600	0.508300
O541	O54	0.572600	0.572100	0.573600
O551	O55	0.450600	0.675700	0.617400
O561	O56	0.692100	0.811000	0.607700
Ga91	Ga9	0.292210	0.859580	0.539670
P171	P17	0.161140	0.974560	0.628910
H171	H17	0.230600	0.036700	0.652800
P181	P18	0.504690	0.872530	0.446460
H181	H18	0.505900	0.829700	0.402200
O571	O57	0.065700	0.925500	0.688900
O581	O58	0.135100	0.028500	0.561300
O591	O59	0.378400	0.830300	0.463900
O601	O60	0.152400	0.719800	0.508300
O611	O61	0.427900	0.000500	0.573600
O621	O62	0.324300	0.774900	0.617400
O631	O63	0.189000	0.881100	0.607700
Ga101	Ga10	0.432630	0.140420	0.960330
P191	P19	0.186580	0.025440	0.871090
H191	H19	0.193900	0.963300	0.847200
P201	P20	0.632160	0.127470	0.053540
H201	H20	0.676200	0.170300	0.097800
O641	O64	0.140200	0.074500	0.811100
O651	O65	0.106600	0.971500	0.938700
O661	O66	0.548100	0.169700	0.036100
O671	O67	0.432600	0.280200	0.991700
O681	O68	0.427400	0.999500	0.926400
O691	O69	0.549400	0.225100	0.882600
O701	O70	0.307900	0.118900	0.892300
Ga111	Ga11	0.707790	0.567370	0.960330
P211	P21	0.838860	0.813420	0.871090
H211	H21	0.769400	0.806100	0.847200
P221	P22	0.495310	0.367840	0.053540
H221	H22	0.494100	0.323800	0.097800
O711	O71	0.934300	0.859800	0.811100
O721	O72	0.864900	0.893400	0.938700
O731	O73	0.621600	0.451900	0.036100
O741	O74	0.847600	0.567400	0.991700
O751	O75	0.572100	0.572600	0.926400
O761	O76	0.675700	0.450600	0.882600
O771	O77	0.811000	0.692100	0.892300
Ga121	Ga12	0.859580	0.292210	0.960330
P231	P23	0.974560	0.161140	0.871090
H231	H23	0.036700	0.230600	0.847200
P241	P24	0.872530	0.504690	0.053540
H241	H24	0.829700	0.505900	0.097800
O781	O78	0.925500	0.065700	0.811100
O791	O79	0.028500	0.135100	0.938700
O801	O80	0.830300	0.378400	0.036100
O811	O81	0.719800	0.152400	0.991700
O821	O82	0.000500	0.427900	0.926400
O831	O83	0.774900	0.324300	0.882600
O841	O84	0.881100	0.189000	0.892300
Ga131	Ga13	0.000000	0.000000	0.250000
Ga141	Ga14	0.000000	0.000000	0.750000
Ga151	Ga15	0.000000	0.000000	0.500000
Ga161	Ga16	0.000000	0.000000	0.000000
P251	P25	0.666670	0.333330	0.362900
H251	H25	0.666670	0.333330	0.308100
P261	P26	0.333330	0.666670	0.137100
H261	H26	0.333330	0.666670	0.191900
P271	P27	0.333330	0.666670	0.637100
H271	H27	0.333330	0.666670	0.691900
P281	P28	0.666670	0.333330	0.862900
H281	H28	0.666670	0.333330	0.808100
