data_IREKUN_clean_PM
_symmetry_space_group_name_H-M	'P1'
_cell_length_a	10.861000
_cell_length_b	6.391400
_cell_length_c	17.003000
_cell_angle_alpha	90.000000
_cell_angle_beta	105.828000
_cell_angle_gamma	90.000000
_symmetry_Int_Tables_number 1

loop_
_symmetry_equiv_pos_as_xyz
'x,y,z'

loop_
_atom_site_label
_atom_site_type_symbol
_atom_site_fract_x
_atom_site_fract_y
_atom_site_fract_z
Zn11	Zn1	0.469150	0.998080	0.084380
O11	O1	0.344500	0.532300	0.049900
O21	O2	0.276000	0.860800	0.034600
O31	O3	0.359700	0.627900	0.344600
O41	O4	0.382500	0.960700	0.380800
O51	O5	0.555100	0.809400	0.016700
H11	H1	0.646900	0.809400	0.044600
C11	C1	0.256600	0.670100	0.036000
C21	C2	0.123500	0.583700	0.019900
C31	C3	0.036400	0.652700	0.062000
C41	C4	0.913600	0.568900	0.039200
H21	H2	0.853900	0.618000	0.065000
C51	C5	0.076100	0.802300	0.131100
C61	C6	0.018700	0.993600	0.131000
H31	H3	0.949400	0.030900	0.087600
C71	C7	0.063700	0.131000	0.195300
H41	H4	0.025300	0.261300	0.194600
C81	C8	0.165500	0.075600	0.260400
H51	H5	0.196600	0.170900	0.302400
C91	C9	0.222000	0.880400	0.264100
C101	C10	0.175600	0.744200	0.198400
H61	H6	0.211900	0.612000	0.199600
C111	C11	0.330600	0.815400	0.335300
Zn21	Zn2	0.530850	0.498080	0.415620
O61	O6	0.655500	0.032300	0.450100
O71	O7	0.724000	0.360800	0.465400
O81	O8	0.640300	0.127900	0.155400
O91	O9	0.617500	0.460700	0.119200
O101	O10	0.444900	0.309400	0.483300
H71	H7	0.353100	0.309400	0.455400
C121	C12	0.743400	0.170100	0.464000
C131	C13	0.876500	0.083700	0.480100
C141	C14	0.963600	0.152700	0.438000
C151	C15	0.086400	0.068900	0.460800
H81	H8	0.146100	0.118000	0.435000
C161	C16	0.923900	0.302300	0.368900
C171	C17	0.981300	0.493600	0.369000
H91	H9	0.050600	0.530900	0.412400
C181	C18	0.936300	0.631000	0.304700
H101	H10	0.974700	0.761300	0.305400
C191	C19	0.834500	0.575600	0.239600
H111	H11	0.803400	0.670900	0.197600
C201	C20	0.778000	0.380400	0.235900
C211	C21	0.824400	0.244200	0.301600
H121	H12	0.788100	0.112000	0.300400
C221	C22	0.669400	0.315400	0.164700
Zn31	Zn3	0.530850	0.001920	0.915620
O111	O11	0.655500	0.467700	0.950100
O121	O12	0.724000	0.139200	0.965400
O131	O13	0.640300	0.372100	0.655400
O141	O14	0.617500	0.039300	0.619200
O151	O15	0.444900	0.190600	0.983300
H131	H13	0.353100	0.190600	0.955400
C231	C23	0.743400	0.329900	0.964000
C241	C24	0.876500	0.416300	0.980100
C251	C25	0.963600	0.347300	0.938000
C261	C26	0.086400	0.431100	0.960800
H141	H14	0.146100	0.382000	0.935000
C271	C27	0.923900	0.197700	0.868900
C281	C28	0.981300	0.006400	0.869000
H151	H15	0.050600	0.969100	0.912400
C291	C29	0.936300	0.869000	0.804700
H161	H16	0.974700	0.738700	0.805400
C301	C30	0.834500	0.924400	0.739600
H171	H17	0.803400	0.829100	0.697600
C311	C31	0.778000	0.119600	0.735900
C321	C32	0.824400	0.255800	0.801600
H181	H18	0.788100	0.388000	0.800400
C331	C33	0.669400	0.184600	0.664700
Zn41	Zn4	0.469150	0.501920	0.584380
O161	O16	0.344500	0.967700	0.549900
O171	O17	0.276000	0.639200	0.534600
O181	O18	0.359700	0.872100	0.844600
O191	O19	0.382500	0.539300	0.880800
O201	O20	0.555100	0.690600	0.516700
H191	H19	0.646900	0.690600	0.544600
C341	C34	0.256600	0.829900	0.536000
C351	C35	0.123500	0.916300	0.519900
C361	C36	0.036400	0.847300	0.562000
C371	C37	0.913600	0.931100	0.539200
H201	H20	0.853900	0.882000	0.565000
C381	C38	0.076100	0.697700	0.631100
C391	C39	0.018700	0.506400	0.631000
H211	H21	0.949400	0.469100	0.587600
C401	C40	0.063700	0.369000	0.695300
H221	H22	0.025300	0.238700	0.694600
C411	C41	0.165500	0.424400	0.760400
H231	H23	0.196600	0.329100	0.802400
C421	C42	0.222000	0.619600	0.764100
C431	C43	0.175600	0.755800	0.698400
H241	H24	0.211900	0.888000	0.699600
C441	C44	0.330600	0.684600	0.835300
Zn51	Zn5	0.500000	0.500000	0.000000
Zn61	Zn6	0.500000	0.000000	0.500000
