data_IRORUE_clean_PM
_symmetry_space_group_name_H-M	'P1'
_cell_length_a	22.759100
_cell_length_b	11.131200
_cell_length_c	11.681000
_cell_angle_alpha	90.000000
_cell_angle_beta	111.652000
_cell_angle_gamma	90.000000
_symmetry_Int_Tables_number 1

loop_
_symmetry_equiv_pos_as_xyz
'x,y,z'

loop_
_atom_site_label
_atom_site_type_symbol
_atom_site_fract_x
_atom_site_fract_y
_atom_site_fract_z
C11	C1	0.208440	0.889270	0.988840
H11	H1	0.206400	0.915500	0.062900
C21	C2	0.169640	0.795750	0.927580
H21	H2	0.142300	0.760300	0.960200
C31	C3	0.171890	0.755100	0.816610
C41	C4	0.212480	0.813830	0.770410
C51	C5	0.249750	0.907390	0.838560
H31	H3	0.276600	0.946300	0.806900
C61	C6	0.217580	0.779650	0.649710
C71	C7	0.130620	0.650110	0.751960
C81	C8	0.421600	0.197200	0.311400
H41	H4	0.427900	0.116800	0.334100
C91	C9	0.455500	0.283000	0.395800
H51	H5	0.483800	0.259900	0.473000
C101	C10	0.446770	0.403700	0.364200
C111	C11	0.404720	0.429800	0.249500
H61	H6	0.397800	0.509300	0.223500
C121	C12	0.372550	0.339500	0.172000
H71	H7	0.343200	0.360900	0.095200
C131	C13	0.478750	0.505500	0.444800
N11	N1	0.249050	0.944270	0.946590
N21	N2	0.380560	0.223870	0.199600
O11	O1	0.079340	0.674150	0.667450
O21	O2	0.149520	0.548020	0.790760
O31	O3	0.195710	0.680260	0.604980
O41	O4	0.242190	0.855020	0.602310
Mn11	Mn1	0.320210	0.083830	0.062810
H81	H8	0.473900	0.592000	0.431000
C141	C14	0.708440	0.389270	0.988840
H91	H9	0.706400	0.415500	0.062900
C151	C15	0.669640	0.295750	0.927580
H101	H10	0.642300	0.260300	0.960200
C161	C16	0.671890	0.255100	0.816610
C171	C17	0.712480	0.313830	0.770410
C181	C18	0.749750	0.407390	0.838560
H111	H11	0.776600	0.446300	0.806900
C191	C19	0.717580	0.279650	0.649710
C201	C20	0.630620	0.150110	0.751960
C211	C21	0.921600	0.697200	0.311400
H121	H12	0.927900	0.616800	0.334100
C221	C22	0.955500	0.783000	0.395800
H131	H13	0.983800	0.759900	0.473000
C231	C23	0.946770	0.903700	0.364200
C241	C24	0.904720	0.929800	0.249500
H141	H14	0.897800	0.009300	0.223500
C251	C25	0.872550	0.839500	0.172000
H151	H15	0.843200	0.860900	0.095200
C261	C26	0.978750	0.005500	0.444800
N31	N3	0.749050	0.444270	0.946590
N41	N4	0.880560	0.723870	0.199600
O51	O5	0.579340	0.174150	0.667450
O61	O6	0.649520	0.048020	0.790760
O71	O7	0.695710	0.180260	0.604980
O81	O8	0.742190	0.355020	0.602310
Mn21	Mn2	0.820210	0.583830	0.062810
H161	H16	0.973900	0.092000	0.431000
C271	C27	0.791560	0.889270	0.511160
H171	H17	0.793600	0.915500	0.437100
C281	C28	0.830360	0.795750	0.572420
H181	H18	0.857700	0.760300	0.539800
C291	C29	0.828110	0.755100	0.683390
C301	C30	0.787520	0.813830	0.729590
C311	C31	0.750250	0.907390	0.661440
H191	H19	0.723400	0.946300	0.693100
C321	C32	0.782420	0.779650	0.850290
C331	C33	0.869380	0.650110	0.748040
C341	C34	0.578400	0.197200	0.188600
H201	H20	0.572100	0.116800	0.165900
C351	C35	0.544500	0.283000	0.104200
H211	H21	0.516200	0.259900	0.027000
C361	C36	0.553230	0.403700	0.135800
C371	C37	0.595280	0.429800	0.250500
H221	H22	0.602200	0.509300	0.276500
C381	C38	0.627450	0.339500	0.328000
H231	H23	0.656800	0.360900	0.404800
C391	C39	0.521250	0.505500	0.055200
N51	N5	0.750950	0.944270	0.553410
N61	N6	0.619440	0.223870	0.300400
O91	O9	0.920660	0.674150	0.832550
O101	O10	0.850480	0.548020	0.709240
O111	O11	0.804290	0.680260	0.895020
O121	O12	0.757810	0.855020	0.897690
Mn31	Mn3	0.679790	0.083830	0.437190
H241	H24	0.526100	0.592000	0.069000
C401	C40	0.291560	0.389270	0.511160
H251	H25	0.293600	0.415500	0.437100
C411	C41	0.330360	0.295750	0.572420
H261	H26	0.357700	0.260300	0.539800
C421	C42	0.328110	0.255100	0.683390
C431	C43	0.287520	0.313830	0.729590
C441	C44	0.250250	0.407390	0.661440
H271	H27	0.223400	0.446300	0.693100
C451	C45	0.282420	0.279650	0.850290
C461	C46	0.369380	0.150110	0.748040
C471	C47	0.078400	0.697200	0.188600
H281	H28	0.072100	0.616800	0.165900
C481	C48	0.044500	0.783000	0.104200
H291	H29	0.016200	0.759900	0.027000
C491	C49	0.053230	0.903700	0.135800
C501	C50	0.095280	0.929800	0.250500
H301	H30	0.102200	0.009300	0.276500
C511	C51	0.127450	0.839500	0.328000
H311	H31	0.156800	0.860900	0.404800
C521	C52	0.021250	0.005500	0.055200
N71	N7	0.250950	0.444270	0.553410
N81	N8	0.119440	0.723870	0.300400
O131	O13	0.420660	0.174150	0.832550
O141	O14	0.350480	0.048020	0.709240
O151	O15	0.304290	0.180260	0.895020
O161	O16	0.257810	0.355020	0.897690
Mn41	Mn4	0.179790	0.583830	0.437190
H321	H32	0.026100	0.092000	0.069000
C531	C53	0.791560	0.110730	0.011160
H331	H33	0.793600	0.084500	0.937100
C541	C54	0.830360	0.204250	0.072420
H341	H34	0.857700	0.239700	0.039800
C551	C55	0.828110	0.244900	0.183390
C561	C56	0.787520	0.186170	0.229590
C571	C57	0.750250	0.092610	0.161440
H351	H35	0.723400	0.053700	0.193100
C581	C58	0.782420	0.220350	0.350290
C591	C59	0.869380	0.349890	0.248040
C601	C60	0.578400	0.802800	0.688600
H361	H36	0.572100	0.883200	0.665900
C611	C61	0.544500	0.717000	0.604200
H371	H37	0.516200	0.740100	0.527000
C621	C62	0.553230	0.596300	0.635800
C631	C63	0.595280	0.570200	0.750500
H381	H38	0.602200	0.490700	0.776500
C641	C64	0.627450	0.660500	0.828000
H391	H39	0.656800	0.639100	0.904800
C651	C65	0.521250	0.494500	0.555200
N91	N9	0.750950	0.055730	0.053410
N101	N10	0.619440	0.776130	0.800400
O171	O17	0.920660	0.325850	0.332550
O181	O18	0.850480	0.451980	0.209240
O191	O19	0.804290	0.319740	0.395020
O201	O20	0.757810	0.144980	0.397690
Mn51	Mn5	0.679790	0.916170	0.937190
H401	H40	0.526100	0.408000	0.569000
C661	C66	0.291560	0.610730	0.011160
H411	H41	0.293600	0.584500	0.937100
C671	C67	0.330360	0.704250	0.072420
H421	H42	0.357700	0.739700	0.039800
C681	C68	0.328110	0.744900	0.183390
C691	C69	0.287520	0.686170	0.229590
C701	C70	0.250250	0.592610	0.161440
H431	H43	0.223400	0.553700	0.193100
C711	C71	0.282420	0.720350	0.350290
C721	C72	0.369380	0.849890	0.248040
C731	C73	0.078400	0.302800	0.688600
H441	H44	0.072100	0.383200	0.665900
C741	C74	0.044500	0.217000	0.604200
H451	H45	0.016200	0.240100	0.527000
C751	C75	0.053230	0.096300	0.635800
C761	C76	0.095280	0.070200	0.750500
H461	H46	0.102200	0.990700	0.776500
C771	C77	0.127450	0.160500	0.828000
H471	H47	0.156800	0.139100	0.904800
C781	C78	0.021250	0.994500	0.555200
N111	N11	0.250950	0.555730	0.053410
N121	N12	0.119440	0.276130	0.800400
O211	O21	0.420660	0.825850	0.332550
O221	O22	0.350480	0.951980	0.209240
O231	O23	0.304290	0.819740	0.395020
O241	O24	0.257810	0.644980	0.397690
Mn61	Mn6	0.179790	0.416170	0.937190
H481	H48	0.026100	0.908000	0.569000
C791	C79	0.208440	0.110730	0.488840
H491	H49	0.206400	0.084500	0.562900
C801	C80	0.169640	0.204250	0.427580
H501	H50	0.142300	0.239700	0.460200
C811	C81	0.171890	0.244900	0.316610
C821	C82	0.212480	0.186170	0.270410
C831	C83	0.249750	0.092610	0.338560
H511	H51	0.276600	0.053700	0.306900
C841	C84	0.217580	0.220350	0.149710
C851	C85	0.130620	0.349890	0.251960
C861	C86	0.421600	0.802800	0.811400
H521	H52	0.427900	0.883200	0.834100
C871	C87	0.455500	0.717000	0.895800
H531	H53	0.483800	0.740100	0.973000
C881	C88	0.446770	0.596300	0.864200
C891	C89	0.404720	0.570200	0.749500
H541	H54	0.397800	0.490700	0.723500
C901	C90	0.372550	0.660500	0.672000
H551	H55	0.343200	0.639100	0.595200
C911	C91	0.478750	0.494500	0.944800
N131	N13	0.249050	0.055730	0.446590
N141	N14	0.380560	0.776130	0.699600
O251	O25	0.079340	0.325850	0.167450
O261	O26	0.149520	0.451980	0.290760
O271	O27	0.195710	0.319740	0.104980
O281	O28	0.242190	0.144980	0.102310
Mn71	Mn7	0.320210	0.916170	0.562810
H561	H56	0.473900	0.408000	0.931000
C921	C92	0.708440	0.610730	0.488840
H571	H57	0.706400	0.584500	0.562900
C931	C93	0.669640	0.704250	0.427580
H581	H58	0.642300	0.739700	0.460200
C941	C94	0.671890	0.744900	0.316610
C951	C95	0.712480	0.686170	0.270410
C961	C96	0.749750	0.592610	0.338560
H591	H59	0.776600	0.553700	0.306900
C971	C97	0.717580	0.720350	0.149710
C981	C98	0.630620	0.849890	0.251960
C991	C99	0.921600	0.302800	0.811400
H601	H60	0.927900	0.383200	0.834100
C1001	C100	0.955500	0.217000	0.895800
H611	H61	0.983800	0.240100	0.973000
C1011	C101	0.946770	0.096300	0.864200
C1021	C102	0.904720	0.070200	0.749500
H621	H62	0.897800	0.990700	0.723500
C1031	C103	0.872550	0.160500	0.672000
H631	H63	0.843200	0.139100	0.595200
C1041	C104	0.978750	0.994500	0.944800
N151	N15	0.749050	0.555730	0.446590
N161	N16	0.880560	0.276130	0.699600
O291	O29	0.579340	0.825850	0.167450
O301	O30	0.649520	0.951980	0.290760
O311	O31	0.695710	0.819740	0.104980
O321	O32	0.742190	0.644980	0.102310
Mn81	Mn8	0.820210	0.416170	0.562810
H641	H64	0.973900	0.908000	0.931000
