data_IROROY_clean_PM
_symmetry_space_group_name_H-M	'P1'
_cell_length_a	7.629700
_cell_length_b	26.807900
_cell_length_c	15.092200
_cell_angle_alpha	90.000000
_cell_angle_beta	90.838000
_cell_angle_gamma	90.000000
_symmetry_Int_Tables_number 1

loop_
_symmetry_equiv_pos_as_xyz
'x,y,z'

loop_
_atom_site_label
_atom_site_type_symbol
_atom_site_fract_x
_atom_site_fract_y
_atom_site_fract_z
C11	C1	0.012700	0.094090	0.527300
C21	C2	0.869200	0.106450	0.460600
C31	C3	0.905600	0.123500	0.376500
C41	C4	0.766000	0.136650	0.321700
H11	H1	0.790600	0.147000	0.264400
C51	C5	0.564000	0.119520	0.428400
H21	H2	0.448300	0.118600	0.447000
C61	C6	0.694800	0.104550	0.486300
H31	H3	0.666700	0.093200	0.542600
C71	C7	0.088100	0.128410	0.339100
C81	C8	0.433800	0.050950	0.178300
H41	H4	0.409100	0.044000	0.237200
C91	C9	0.452500	0.011510	0.120300
H51	H5	0.438100	0.978900	0.140100
C101	C10	0.492900	0.020640	0.032300
C111	C11	0.516200	0.070100	0.008300
H61	H6	0.547200	0.078200	0.950700
C121	C12	0.493100	0.107260	0.070600
H71	H7	0.509100	0.140200	0.053200
N11	N1	0.597700	0.135470	0.346000
N21	N2	0.449300	0.098460	0.154000
O11	O1	0.984200	0.060840	0.584190
O21	O2	0.150700	0.119130	0.525500
O31	O3	0.174900	0.090840	0.324100
O41	O4	0.137600	0.171810	0.321600
Cd11	Cd1	0.383200	0.164740	0.244870
C131	C13	0.987300	0.905910	0.472700
C141	C14	0.130800	0.893550	0.539400
C151	C15	0.094400	0.876500	0.623500
C161	C16	0.234000	0.863350	0.678300
H81	H8	0.209400	0.853000	0.735600
C171	C17	0.436000	0.880480	0.571600
H91	H9	0.551700	0.881400	0.553000
C181	C18	0.305200	0.895450	0.513700
H101	H10	0.333300	0.906800	0.457400
C191	C19	0.911900	0.871590	0.660900
C201	C20	0.566200	0.949050	0.821700
H111	H11	0.590900	0.956000	0.762800
C211	C21	0.547500	0.988490	0.879700
H121	H12	0.561900	0.021100	0.859900
C221	C22	0.507100	0.979360	0.967700
C231	C23	0.483800	0.929900	0.991700
H131	H13	0.452800	0.921800	0.049300
C241	C24	0.506900	0.892740	0.929400
H141	H14	0.490900	0.859800	0.946800
N31	N3	0.402300	0.864530	0.654000
N41	N4	0.550700	0.901540	0.846000
O51	O5	0.015800	0.939160	0.415810
O61	O6	0.849300	0.880870	0.474500
O71	O7	0.825100	0.909160	0.675900
O81	O8	0.862400	0.828190	0.678400
Cd21	Cd2	0.616800	0.835260	0.755130
C251	C25	0.056800	0.198940	0.721000
H151	H15	0.171500	0.210700	0.721000
C261	C26	0.921300	0.232940	0.722100
H161	H16	0.945400	0.266900	0.724300
C271	C27	0.749000	0.216440	0.720000
C281	C28	0.719600	0.165070	0.721800
C291	C29	0.864200	0.133690	0.722700
H171	H17	0.844900	0.099500	0.725500
C301	C30	0.543500	0.140230	0.712600
C311	C31	0.605100	0.254990	0.721000
C321	C32	0.148900	0.075960	0.869700
H181	H18	0.189900	0.108600	0.866900
C331	C33	0.089500	0.058930	0.949600
H191	H19	0.088600	0.079900	0.998700
C341	C34	0.030500	0.009890	0.956500
C351	C35	0.036900	0.981200	0.880800
H201	H20	0.001800	0.948000	0.882200
C361	C36	0.095800	0.001990	0.802500
H211	H21	0.096400	0.982300	0.751800
N51	N5	0.029700	0.149960	0.719800
N61	N6	0.151400	0.048880	0.796800
O91	O9	0.620200	0.291750	0.671000
O101	O10	0.483800	0.251060	0.774600
O111	O11	0.515700	0.101330	0.754500
O121	O12	0.436600	0.157440	0.658400
Cd31	Cd3	0.241690	0.090310	0.670640
C371	C37	0.943200	0.801060	0.279000
H221	H22	0.828500	0.789300	0.279000
C381	C38	0.078700	0.767060	0.277900
H231	H23	0.054600	0.733100	0.275700
C391	C39	0.251000	0.783560	0.280000
C401	C40	0.280400	0.834930	0.278200
C411	C41	0.135800	0.866310	0.277300
H241	H24	0.155100	0.900500	0.274500
C421	C42	0.456500	0.859770	0.287400
C431	C43	0.394900	0.745010	0.279000
C441	C44	0.851100	0.924040	0.130300
H251	H25	0.810100	0.891400	0.133100
C451	C45	0.910500	0.941070	0.050400
H261	H26	0.911400	0.920100	0.001300
C461	C46	0.969500	0.990110	0.043500
C471	C47	0.963100	0.018800	0.119200
H271	H27	0.998200	0.052000	0.117800
C481	C48	0.904200	0.998010	0.197500
H281	H28	0.903600	0.017700	0.248200
N71	N7	0.970300	0.850040	0.280200
N81	N8	0.848600	0.951120	0.203200
O131	O13	0.379800	0.708250	0.329000
O141	O14	0.516200	0.748940	0.225400
O151	O15	0.484300	0.898670	0.245500
O161	O16	0.563400	0.842560	0.341600
Cd41	Cd4	0.758310	0.909690	0.329360
C491	C49	0.987300	0.594090	0.972700
C501	C50	0.130800	0.606450	0.039400
C511	C51	0.094400	0.623500	0.123500
C521	C52	0.234000	0.636650	0.178300
H291	H29	0.209400	0.647000	0.235600
C531	C53	0.436000	0.619520	0.071600
H301	H30	0.551700	0.618600	0.053000
C541	C54	0.305200	0.604550	0.013700
H311	H31	0.333300	0.593200	0.957400
C551	C55	0.911900	0.628410	0.160900
C561	C56	0.566200	0.550950	0.321700
H321	H32	0.590900	0.544000	0.262800
C571	C57	0.547500	0.511510	0.379700
H331	H33	0.561900	0.478900	0.359900
C581	C58	0.507100	0.520640	0.467700
C591	C59	0.483800	0.570100	0.491700
H341	H34	0.452800	0.578200	0.549300
C601	C60	0.506900	0.607260	0.429400
H351	H35	0.490900	0.640200	0.446800
N91	N9	0.402300	0.635470	0.154000
N101	N10	0.550700	0.598460	0.346000
O171	O17	0.015800	0.560840	0.915810
O181	O18	0.849300	0.619130	0.974500
O191	O19	0.825100	0.590840	0.175900
O201	O20	0.862400	0.671810	0.178400
Cd51	Cd5	0.616800	0.664740	0.255130
C611	C61	0.012700	0.405910	0.027300
C621	C62	0.869200	0.393550	0.960600
C631	C63	0.905600	0.376500	0.876500
C641	C64	0.766000	0.363350	0.821700
H361	H36	0.790600	0.353000	0.764400
C651	C65	0.564000	0.380480	0.928400
H371	H37	0.448300	0.381400	0.947000
C661	C66	0.694800	0.395450	0.986300
H381	H38	0.666700	0.406800	0.042600
C671	C67	0.088100	0.371590	0.839100
C681	C68	0.433800	0.449050	0.678300
H391	H39	0.409100	0.456000	0.737200
C691	C69	0.452500	0.488490	0.620300
H401	H40	0.438100	0.521100	0.640100
C701	C70	0.492900	0.479360	0.532300
C711	C71	0.516200	0.429900	0.508300
H411	H41	0.547200	0.421800	0.450700
C721	C72	0.493100	0.392740	0.570600
H421	H42	0.509100	0.359800	0.553200
N111	N11	0.597700	0.364530	0.846000
N121	N12	0.449300	0.401540	0.654000
O211	O21	0.984200	0.439160	0.084190
O221	O22	0.150700	0.380870	0.025500
O231	O23	0.174900	0.409160	0.824100
O241	O24	0.137600	0.328190	0.821600
Cd61	Cd6	0.383200	0.335260	0.744870
C731	C73	0.943200	0.698940	0.779000
H431	H43	0.828500	0.710700	0.779000
C741	C74	0.078700	0.732940	0.777900
H441	H44	0.054600	0.766900	0.775700
C751	C75	0.251000	0.716440	0.780000
C761	C76	0.280400	0.665070	0.778200
C771	C77	0.135800	0.633690	0.777300
H451	H45	0.155100	0.599500	0.774500
C781	C78	0.456500	0.640230	0.787400
C791	C79	0.394900	0.754990	0.779000
C801	C80	0.851100	0.575960	0.630300
H461	H46	0.810100	0.608600	0.633100
C811	C81	0.910500	0.558930	0.550400
H471	H47	0.911400	0.579900	0.501300
C821	C82	0.969500	0.509890	0.543500
C831	C83	0.963100	0.481200	0.619200
H481	H48	0.998200	0.448000	0.617800
C841	C84	0.904200	0.501990	0.697500
H491	H49	0.903600	0.482300	0.748200
N131	N13	0.970300	0.649960	0.780200
N141	N14	0.848600	0.548880	0.703200
O251	O25	0.379800	0.791750	0.829000
O261	O26	0.516200	0.751060	0.725400
O271	O27	0.484300	0.601330	0.745500
O281	O28	0.563400	0.657440	0.841600
Cd71	Cd7	0.758310	0.590310	0.829360
C851	C85	0.056800	0.301060	0.221000
H501	H50	0.171500	0.289300	0.221000
C861	C86	0.921300	0.267060	0.222100
H511	H51	0.945400	0.233100	0.224300
C871	C87	0.749000	0.283560	0.220000
C881	C88	0.719600	0.334930	0.221800
C891	C89	0.864200	0.366310	0.222700
H521	H52	0.844900	0.400500	0.225500
C901	C90	0.543500	0.359770	0.212600
C911	C91	0.605100	0.245010	0.221000
C921	C92	0.148900	0.424040	0.369700
H531	H53	0.189900	0.391400	0.366900
C931	C93	0.089500	0.441070	0.449600
H541	H54	0.088600	0.420100	0.498700
C941	C94	0.030500	0.490110	0.456500
C951	C95	0.036900	0.518800	0.380800
H551	H55	0.001800	0.552000	0.382200
C961	C96	0.095800	0.498010	0.302500
H561	H56	0.096400	0.517700	0.251800
N151	N15	0.029700	0.350040	0.219800
N161	N16	0.151400	0.451120	0.296800
O291	O29	0.620200	0.208250	0.171000
O301	O30	0.483800	0.248940	0.274600
O311	O31	0.515700	0.398670	0.254500
O321	O32	0.436600	0.342560	0.158400
Cd81	Cd8	0.241690	0.409690	0.170640
