data_IROVAO_clean_PM
_symmetry_space_group_name_H-M	'P1'
_cell_length_a	9.461700
_cell_length_b	11.277200
_cell_length_c	11.348900
_cell_angle_alpha	79.254000
_cell_angle_beta	65.726000
_cell_angle_gamma	80.143000
_symmetry_Int_Tables_number 1

loop_
_symmetry_equiv_pos_as_xyz
'x,y,z'

loop_
_atom_site_label
_atom_site_type_symbol
_atom_site_fract_x
_atom_site_fract_y
_atom_site_fract_z
U11	U1	0.698500	0.444310	0.047710
U21	U2	0.279620	0.968500	0.026270
P11	P1	0.634600	0.619000	0.759600
P21	P2	0.552100	0.750800	0.984300
P31	P3	0.011900	0.206300	0.956800
O11	O1	0.380600	0.737700	0.008900
O21	O2	0.622100	0.653200	0.060400
O31	O3	0.203700	0.509400	0.818400
P41	P4	0.083600	0.460500	0.786500
O41	O4	0.544500	0.880400	0.015100
O51	O5	0.915600	0.499600	0.873500
O61	O6	0.610000	0.516700	0.875500
O71	O7	0.880100	0.286200	0.045900
O81	O8	0.125600	0.145700	0.020300
O91	O9	0.474900	0.645700	0.749400
O101	O10	0.946100	0.113700	0.918400
O111	O11	0.766900	0.594000	0.633200
O121	O12	0.111100	0.504300	0.645100
C11	C1	0.670900	0.748000	0.813000
H11	H1	0.780200	0.742200	0.798200
H21	H2	0.646100	0.822400	0.763400
C21	C2	0.115100	0.299300	0.803300
H31	H3	0.225800	0.277400	0.781900
H41	H4	0.092300	0.273800	0.736500
U31	U3	0.301500	0.555690	0.952290
U41	U4	0.720380	0.031500	0.973730
P51	P5	0.365400	0.381000	0.240400
P61	P6	0.447900	0.249200	0.015700
P71	P7	0.988100	0.793700	0.043200
O131	O13	0.619400	0.262300	0.991100
O141	O14	0.377900	0.346800	0.939600
O151	O15	0.796300	0.490600	0.181600
P81	P8	0.916400	0.539500	0.213500
O161	O16	0.455500	0.119600	0.984900
O171	O17	0.084400	0.500400	0.126500
O181	O18	0.390000	0.483300	0.124500
O191	O19	0.119900	0.713800	0.954100
O201	O20	0.874400	0.854300	0.979700
O211	O21	0.525100	0.354300	0.250600
O221	O22	0.053900	0.886300	0.081600
O231	O23	0.233100	0.406000	0.366800
O241	O24	0.888900	0.495700	0.354900
C31	C3	0.329100	0.252000	0.187000
H51	H5	0.219800	0.257800	0.201800
H61	H6	0.353900	0.177600	0.236600
C41	C4	0.884900	0.700700	0.196700
H71	H7	0.774200	0.722600	0.218100
H81	H8	0.907700	0.726200	0.263500
U51	U5	0.000000	0.500000	0.500000
