data_ISIMUT_clean_PM
_symmetry_space_group_name_H-M	'P1'
_cell_length_a	9.326500
_cell_length_b	9.658700
_cell_length_c	11.763100
_cell_angle_alpha	75.363000
_cell_angle_beta	78.555000
_cell_angle_gamma	87.178000
_symmetry_Int_Tables_number 1

loop_
_symmetry_equiv_pos_as_xyz
'x,y,z'

loop_
_atom_site_label
_atom_site_type_symbol
_atom_site_fract_x
_atom_site_fract_y
_atom_site_fract_z
Zn11	Zn1	0.554610	0.114950	0.111630
O11	O1	0.925700	0.602600	0.377600
O21	O2	0.643000	0.296700	0.092730
N11	N1	0.287700	0.029800	0.450200
O31	O3	0.742800	0.192300	0.248400
C11	C1	0.687400	0.568700	0.122900
H11	H1	0.633100	0.563000	0.066000
N21	N2	0.427800	0.040600	0.272800
C21	C2	0.796400	0.708900	0.225900
H21	H2	0.816100	0.797300	0.237400
C31	C3	0.713700	0.701600	0.141700
C41	C4	0.824300	0.453700	0.273700
H31	H3	0.861900	0.370800	0.317400
C51	C5	0.967800	0.475400	0.455200
H41	H4	0.039500	0.422600	0.410900
H51	H5	0.883700	0.414400	0.494400
C61	C6	0.742100	0.446000	0.189000
C71	C7	0.850000	0.585200	0.292900
C81	C8	0.343800	0.895800	0.451500
H61	H6	0.326500	0.815000	0.515100
C91	C9	0.709000	0.299000	0.177700
C101	C10	0.340900	0.115000	0.340700
C111	C11	0.428700	0.903100	0.343300
H71	H7	0.480100	0.826800	0.319700
C121	C12	0.318800	0.271500	0.307200
C131	C13	0.173900	0.066700	0.544700
C141	C14	0.371100	0.356300	0.371200
H81	H8	0.414400	0.312700	0.436000
C151	C15	0.242700	0.485800	0.177900
H91	H9	0.199100	0.530700	0.113600
C161	C16	0.254900	0.333700	0.212000
H101	H10	0.219800	0.277600	0.169800
C171	C17	0.359200	0.503100	0.339700
H111	H11	0.392100	0.559400	0.382800
C181	C18	0.296700	0.563400	0.241900
H121	H12	0.291000	0.662700	0.218300
C191	C19	0.029000	0.980300	0.562000
C201	C20	0.645700	0.833900	0.077400
O41	O4	0.677900	0.950600	0.094900
O51	O5	0.562100	0.819200	0.012800
C211	C21	0.980700	0.934000	0.491500
Zn21	Zn2	0.445390	0.885050	0.888370
O61	O6	0.074300	0.397400	0.622400
O71	O7	0.357000	0.703300	0.907270
N31	N3	0.712300	0.970200	0.549800
O81	O8	0.257200	0.807700	0.751600
C221	C22	0.312600	0.431300	0.877100
H131	H13	0.366900	0.437000	0.934000
N41	N4	0.572200	0.959400	0.727200
C231	C23	0.203600	0.291100	0.774100
H141	H14	0.183900	0.202700	0.762600
C241	C24	0.286300	0.298400	0.858300
C251	C25	0.175700	0.546300	0.726300
H151	H15	0.138100	0.629200	0.682600
C261	C26	0.032200	0.524600	0.544800
H161	H16	0.960500	0.577400	0.589100
H171	H17	0.116300	0.585600	0.505600
C271	C27	0.257900	0.554000	0.811000
C281	C28	0.150000	0.414800	0.707100
C291	C29	0.656200	0.104200	0.548500
H181	H18	0.673500	0.185000	0.484900
C301	C30	0.291000	0.701000	0.822300
C311	C31	0.659100	0.885000	0.659300
C321	C32	0.571300	0.096900	0.656700
H191	H19	0.519900	0.173200	0.680300
C331	C33	0.681200	0.728500	0.692800
C341	C34	0.826100	0.933300	0.455300
C351	C35	0.628900	0.643700	0.628800
H201	H20	0.585600	0.687300	0.564000
C361	C36	0.757300	0.514200	0.822100
H211	H21	0.800900	0.469300	0.886400
C371	C37	0.745100	0.666300	0.788000
H221	H22	0.780200	0.722400	0.830200
C381	C38	0.640800	0.496900	0.660300
H231	H23	0.607900	0.440600	0.617200
C391	C39	0.703300	0.436600	0.758100
H241	H24	0.709000	0.337300	0.781700
C401	C40	0.971000	0.019700	0.438000
C411	C41	0.354300	0.166100	0.922600
O91	O9	0.322100	0.049400	0.905100
O101	O10	0.437900	0.180800	0.987200
C421	C42	0.019300	0.066000	0.508500
