data_ISUXAW_clean_PM
_symmetry_space_group_name_H-M	'P1'
_cell_length_a	6.881100
_cell_length_b	18.351000
_cell_length_c	18.407000
_cell_angle_alpha	110.120000
_cell_angle_beta	90.000000
_cell_angle_gamma	90.000000
_symmetry_Int_Tables_number 1

loop_
_symmetry_equiv_pos_as_xyz
'x,y,z'

loop_
_atom_site_label
_atom_site_type_symbol
_atom_site_fract_x
_atom_site_fract_y
_atom_site_fract_z
Dy11	Dy1	0.776880	0.626470	0.623050
Dy21	Dy2	0.747530	0.624600	0.104140
Dy31	Dy3	0.276880	0.873530	0.876950
Dy41	Dy4	0.247530	0.875400	0.395860
Dy51	Dy5	0.223120	0.373530	0.376950
Dy61	Dy6	0.252470	0.375400	0.895860
Dy71	Dy7	0.723120	0.126470	0.123050
Dy81	Dy8	0.752470	0.124600	0.604140
H11	H1	0.512800	0.625900	0.897700
H21	H2	0.732200	0.416600	0.762600
H31	H3	0.593000	0.726400	0.410500
H41	H4	0.798600	0.506600	0.331100
H51	H5	0.012800	0.874100	0.602300
H61	H6	0.232200	0.083400	0.737400
H71	H7	0.093000	0.773600	0.089500
H81	H8	0.298600	0.993400	0.168900
H91	H9	0.487200	0.374100	0.102300
H101	H10	0.267800	0.583400	0.237400
H111	H11	0.407000	0.273600	0.589500
H121	H12	0.201400	0.493400	0.668900
H131	H13	0.987200	0.125900	0.397700
H141	H14	0.767800	0.916600	0.262600
H151	H15	0.907000	0.226400	0.910500
H161	H16	0.701400	0.006600	0.831100
C11	C1	0.587400	0.616500	0.789100
C21	C2	0.566000	0.593300	0.851500
C31	C3	0.628200	0.517800	0.842800
C41	C4	0.698800	0.467700	0.769700
C51	C5	0.716300	0.495800	0.711100
C61	C6	0.533500	0.697500	0.789500
C71	C7	0.627100	0.492000	0.910800
C81	C8	0.795600	0.450200	0.630200
C91	C9	0.645500	0.680700	0.295300
C101	C10	0.636700	0.682600	0.370900
C111	C11	0.695600	0.616800	0.385400
C121	C12	0.762500	0.551900	0.322600
C131	C13	0.774100	0.555600	0.249100
C141	C14	0.580000	0.747100	0.270900
C151	C15	0.695600	0.616400	0.466600
C161	C16	0.855000	0.490800	0.176000
C171	C17	0.087400	0.883500	0.710900
C181	C18	0.066000	0.906700	0.648500
C191	C19	0.128200	0.982200	0.657200
C201	C20	0.198800	0.032300	0.730300
C211	C21	0.216300	0.004200	0.788900
C221	C22	0.033500	0.802500	0.710500
C231	C23	0.127100	0.008000	0.589200
C241	C24	0.295600	0.049800	0.869800
C251	C25	0.145500	0.819300	0.204700
C261	C26	0.136700	0.817400	0.129100
C271	C27	0.195600	0.883200	0.114600
C281	C28	0.262500	0.948100	0.177400
C291	C29	0.274100	0.944400	0.250900
C301	C30	0.080000	0.752900	0.229100
C311	C31	0.195600	0.883600	0.033400
C321	C32	0.355000	0.009200	0.324000
C331	C33	0.412600	0.383500	0.210900
C341	C34	0.434000	0.406700	0.148500
C351	C35	0.371800	0.482200	0.157200
C361	C36	0.301200	0.532300	0.230300
C371	C37	0.283700	0.504200	0.288900
C381	C38	0.466500	0.302500	0.210500
C391	C39	0.372900	0.508000	0.089200
C401	C40	0.204400	0.549800	0.369800
C411	C41	0.354500	0.319300	0.704700
C421	C42	0.363300	0.317400	0.629100
C431	C43	0.304400	0.383200	0.614600
C441	C44	0.237500	0.448100	0.677400
C451	C45	0.225900	0.444400	0.750900
C461	C46	0.420000	0.252900	0.729100
C471	C47	0.304400	0.383600	0.533400
C481	C48	0.145000	0.509200	0.824000
C491	C49	0.912600	0.116500	0.289100
C501	C50	0.934000	0.093300	0.351500
C511	C51	0.871800	0.017800	0.342800
C521	C52	0.801200	0.967700	0.269700
C531	C53	0.783700	0.995800	0.211100
C541	C54	0.966500	0.197500	0.289500
C551	C55	0.872900	0.992000	0.410800
C561	C56	0.704400	0.950200	0.130200
C571	C57	0.854500	0.180700	0.795300
C581	C58	0.863300	0.182600	0.870900
C591	C59	0.804400	0.116800	0.885400
C601	C60	0.737500	0.051900	0.822600
C611	C61	0.725900	0.055600	0.749100
C621	C62	0.920000	0.247100	0.770900
C631	C63	0.804400	0.116400	0.966600
C641	C64	0.645000	0.990800	0.676000
N11	N1	0.668100	0.570200	0.720500
N21	N2	0.715300	0.618100	0.235400
N31	N3	0.168100	0.929800	0.779500
N41	N4	0.215300	0.881900	0.264600
N51	N5	0.331900	0.429800	0.279500
N61	N6	0.284700	0.381900	0.764600
N71	N7	0.831900	0.070200	0.220500
N81	N8	0.784700	0.118100	0.735400
O11	O1	0.425900	0.740930	0.841790
O21	O2	0.608100	0.714000	0.734490
O31	O3	0.684700	0.540140	0.974740
O41	O4	0.573900	0.421740	0.897910
O51	O5	0.818800	0.378310	0.608970
O61	O6	0.832500	0.490650	0.588580
O71	O7	0.510300	0.806990	0.323180
O81	O8	0.600200	0.737400	0.200050
O91	O9	0.714900	0.552730	0.476300
O101	O10	0.684000	0.681300	0.524510
O111	O11	0.914300	0.428260	0.180200
O121	O12	0.854500	0.506210	0.114660
O131	O13	0.925900	0.759070	0.658210
O141	O14	0.108100	0.786000	0.765510
O151	O15	0.184700	0.959860	0.525260
O161	O16	0.073900	0.078260	0.602090
O171	O17	0.318800	0.121690	0.891030
O181	O18	0.332500	0.009350	0.911420
O191	O19	0.010300	0.693010	0.176820
O201	O20	0.100200	0.762600	0.299950
O211	O21	0.214900	0.947270	0.023700
O221	O22	0.184000	0.818700	0.975490
O231	O23	0.414300	0.071740	0.319800
O241	O24	0.354500	0.993790	0.385340
O251	O25	0.574100	0.259070	0.158210
O261	O26	0.391900	0.286000	0.265510
O271	O27	0.315300	0.459860	0.025260
O281	O28	0.426100	0.578260	0.102090
O291	O29	0.181200	0.621690	0.391030
O301	O30	0.167500	0.509350	0.411420
O311	O31	0.489700	0.193010	0.676820
O321	O32	0.399800	0.262600	0.799950
O331	O33	0.285100	0.447270	0.523700
O341	O34	0.316000	0.318700	0.475490
O351	O35	0.085700	0.571740	0.819800
O361	O36	0.145500	0.493790	0.885340
O371	O37	0.074100	0.240930	0.341790
O381	O38	0.891900	0.214000	0.234490
O391	O39	0.815300	0.040140	0.474740
O401	O40	0.926100	0.921740	0.397910
O411	O41	0.681200	0.878310	0.108970
O421	O42	0.667500	0.990650	0.088580
O431	O43	0.989700	0.306990	0.823180
O441	O44	0.899800	0.237400	0.700050
O451	O45	0.785100	0.052730	0.976300
O461	O46	0.816000	0.181300	0.024510
O471	O47	0.585700	0.928260	0.680200
O481	O48	0.645500	0.006210	0.614660
