data_ITANUM_clean_PM
_symmetry_space_group_name_H-M	'P1'
_cell_length_a	13.504000
_cell_length_b	7.444700
_cell_length_c	8.205900
_cell_angle_alpha	90.000000
_cell_angle_beta	90.000000
_cell_angle_gamma	90.000000
_symmetry_Int_Tables_number 1

loop_
_symmetry_equiv_pos_as_xyz
'x,y,z'

loop_
_atom_site_label
_atom_site_type_symbol
_atom_site_fract_x
_atom_site_fract_y
_atom_site_fract_z
Cu11	Cu1	0.435120	0.152080	0.037850
Cu21	Cu2	0.066630	0.150930	0.145660
N11	N1	0.293000	0.168800	0.080400
C11	C1	0.208900	0.170100	0.110700
N21	N2	0.459700	0.506400	0.846800
C21	C2	0.485500	0.421100	0.955100
N31	N3	0.462800	0.999700	0.847600
C31	C3	0.483500	0.913600	0.736300
Cu31	Cu3	0.564880	0.847920	0.537850
Cu41	Cu4	0.933370	0.849070	0.645660
N41	N4	0.707000	0.831200	0.580400
C41	C4	0.791100	0.829900	0.610700
N51	N5	0.540300	0.493600	0.346800
C51	C5	0.514500	0.578900	0.455100
N61	N6	0.537200	0.000300	0.347600
C61	C6	0.516500	0.086400	0.236300
Cu51	Cu5	0.935120	0.347920	0.037850
Cu61	Cu6	0.566630	0.349070	0.145660
N71	N7	0.793000	0.331200	0.080400
C71	C7	0.708900	0.329900	0.110700
N81	N8	0.959700	0.993600	0.846800
C81	C8	0.985500	0.078900	0.955100
N91	N9	0.962800	0.500300	0.847600
C91	C9	0.983500	0.586400	0.736300
Cu71	Cu7	0.064880	0.652080	0.537850
Cu81	Cu8	0.433370	0.650930	0.645660
N101	N10	0.207000	0.668800	0.580400
C101	C10	0.291100	0.670100	0.610700
N111	N11	0.040300	0.006400	0.346800
C111	C11	0.014500	0.921100	0.455100
N121	N12	0.037200	0.499700	0.347600
C121	C12	0.016500	0.413600	0.236300
