data_ITIBET_clean_PM
_symmetry_space_group_name_H-M	'P1'
_cell_length_a	9.315000
_cell_length_b	13.200000
_cell_length_c	15.455000
_cell_angle_alpha	90.000000
_cell_angle_beta	106.816000
_cell_angle_gamma	90.000000
_symmetry_Int_Tables_number 1

loop_
_symmetry_equiv_pos_as_xyz
'x,y,z'

loop_
_atom_site_label
_atom_site_type_symbol
_atom_site_fract_x
_atom_site_fract_y
_atom_site_fract_z
Cd11	Cd1	0.571470	0.873760	0.110810
Cd21	Cd2	0.644160	0.398740	0.438750
Cd31	Cd3	0.744990	0.584030	0.256850
Cd41	Cd4	0.928530	0.373760	0.889190
Cd51	Cd5	0.855840	0.898740	0.561250
Cd61	Cd6	0.755010	0.084030	0.743150
Cd71	Cd7	0.428530	0.126240	0.889190
Cd81	Cd8	0.355840	0.601260	0.561250
Cd91	Cd9	0.255010	0.415970	0.743150
Cd101	Cd10	0.071470	0.626240	0.110810
Cd111	Cd11	0.144160	0.101260	0.438750
Cd121	Cd12	0.244990	0.915970	0.256850
C11	C1	0.782300	0.892100	0.979200
C21	C2	0.451200	0.706200	0.406300
C31	C3	0.840800	0.803200	0.037600
C41	C4	0.967800	0.926800	0.883500
C51	C5	0.539500	0.774600	0.267100
C61	C6	0.515500	0.703200	0.336100
C71	C7	0.835100	0.940400	0.915300
C81	C8	0.381600	0.788500	0.448100
C91	C9	0.717700	0.392100	0.020800
C101	C10	0.048800	0.206200	0.593700
C111	C11	0.659200	0.303200	0.962400
C121	C12	0.532200	0.426800	0.116500
C131	C13	0.960500	0.274600	0.732900
C141	C14	0.984500	0.203200	0.663900
C151	C15	0.664900	0.440400	0.084700
C161	C16	0.118400	0.288500	0.551900
C171	C17	0.217700	0.107900	0.020800
C181	C18	0.548800	0.293800	0.593700
C191	C19	0.159200	0.196800	0.962400
C201	C20	0.032200	0.073200	0.116500
C211	C21	0.460500	0.225400	0.732900
C221	C22	0.484500	0.296800	0.663900
C231	C23	0.164900	0.059600	0.084700
C241	C24	0.618400	0.211500	0.551900
C251	C25	0.282300	0.607900	0.979200
C261	C26	0.951200	0.793800	0.406300
C271	C27	0.340800	0.696800	0.037600
C281	C28	0.467800	0.573200	0.883500
C291	C29	0.039500	0.725400	0.267100
C301	C30	0.015500	0.796800	0.336100
C311	C31	0.335100	0.559600	0.915300
C321	C32	0.881600	0.711500	0.448100
N11	N1	0.738300	0.016400	0.880400
N21	N2	0.630700	0.014300	0.921400
N31	N3	0.656600	0.939600	0.983300
N41	N4	0.540500	0.556500	0.401000
N51	N5	0.570500	0.608800	0.335500
N61	N6	0.468700	0.614200	0.444700
N71	N7	0.761700	0.516400	0.119600
N81	N8	0.869300	0.514300	0.078600
N91	N9	0.843400	0.439600	0.016700
N101	N10	0.959500	0.056500	0.599000
N111	N11	0.929500	0.108800	0.664500
N121	N12	0.031300	0.114200	0.555300
N131	N13	0.261700	0.983600	0.119600
N141	N14	0.369300	0.985700	0.078600
N151	N15	0.343400	0.060400	0.016700
N161	N16	0.459500	0.443500	0.599000
N171	N17	0.429500	0.391200	0.664500
N181	N18	0.531300	0.385800	0.555300
N191	N19	0.238300	0.483600	0.880400
N201	N20	0.130700	0.485700	0.921400
N211	N21	0.156600	0.560400	0.983300
N221	N22	0.040500	0.943500	0.401000
N231	N23	0.070500	0.891200	0.335500
N241	N24	0.968700	0.885800	0.444700
Cl11	Cl1	0.805420	0.401330	0.329890
Cl21	Cl2	0.694580	0.901330	0.670110
Cl31	Cl3	0.194580	0.598670	0.670110
Cl41	Cl4	0.305420	0.098670	0.329890
O11	O1	0.630500	0.746000	0.225200
O21	O2	0.472400	0.857500	0.250700
O31	O3	0.055100	0.850100	0.914000
O41	O4	0.949700	0.755700	0.021800
O51	O5	0.389300	0.877400	0.420700
O61	O6	0.781100	0.779100	0.096400
O71	O7	0.995500	0.987500	0.830700
O81	O8	0.321600	0.763200	0.507400
O91	O9	0.869500	0.246000	0.774800
O101	O10	0.027600	0.357500	0.749300
O111	O11	0.444900	0.350100	0.086000
O121	O12	0.550300	0.255700	0.978200
O131	O13	0.110700	0.377400	0.579300
O141	O14	0.718900	0.279100	0.903600
O151	O15	0.504500	0.487500	0.169300
O161	O16	0.178400	0.263200	0.492600
O171	O17	0.369500	0.254000	0.774800
O181	O18	0.527600	0.142500	0.749300
O191	O19	0.944900	0.149900	0.086000
O201	O20	0.050300	0.244300	0.978200
O211	O21	0.610700	0.122600	0.579300
O221	O22	0.218900	0.220900	0.903600
O231	O23	0.004500	0.012500	0.169300
O241	O24	0.678400	0.236800	0.492600
O251	O25	0.130500	0.754000	0.225200
O261	O26	0.972400	0.642500	0.250700
O271	O27	0.555100	0.649900	0.914000
O281	O28	0.449700	0.744300	0.021800
O291	O29	0.889300	0.622600	0.420700
O301	O30	0.281100	0.720900	0.096400
O311	O31	0.495500	0.512500	0.830700
O321	O32	0.821600	0.736800	0.507400
