data_ITIWUE_charged_PM
_symmetry_space_group_name_H-M	'P1'
_cell_length_a	15.877400
_cell_length_b	15.877400
_cell_length_c	21.542000
_cell_angle_alpha	90.000000
_cell_angle_beta	90.000000
_cell_angle_gamma	90.000000
_symmetry_Int_Tables_number 1

loop_
_symmetry_equiv_pos_as_xyz
'x,y,z'

loop_
_atom_site_label
_atom_site_type_symbol
_atom_site_fract_x
_atom_site_fract_y
_atom_site_fract_z
Cd11	Cd1	0.058840	0.941160	0.750000
Cd21	Cd2	0.941160	0.058840	0.250000
Cd31	Cd3	0.558840	0.558840	0.000000
Cd41	Cd4	0.441160	0.441160	0.500000
H11	H1	0.389100	0.461600	0.651500
H21	H2	0.286100	0.411300	0.718200
H31	H3	0.256200	0.212700	0.602100
H41	H4	0.358300	0.271500	0.539200
H51	H5	0.201700	0.346300	0.783000
H61	H6	0.088100	0.298400	0.837000
H71	H7	0.994600	0.199800	0.793500
H81	H8	0.137800	0.197600	0.637300
H91	H9	0.878100	0.954200	0.540500
H101	H10	0.767100	0.933100	0.472800
H111	H11	0.664500	0.037300	0.459200
H121	H12	0.776200	0.175100	0.594600
H131	H13	0.606800	0.155400	0.432700
H141	H14	0.513400	0.268700	0.423700
H151	H15	0.553700	0.336700	0.594800
H161	H16	0.649100	0.229800	0.610600
H171	H17	0.908400	0.261400	0.653900
H181	H18	0.966700	0.251900	0.600500
H191	H19	0.610900	0.538400	0.151500
H201	H20	0.713900	0.588700	0.218200
H211	H21	0.743800	0.787300	0.102100
H221	H22	0.641700	0.728500	0.039200
H231	H23	0.798300	0.653700	0.283000
H241	H24	0.911900	0.701600	0.337000
H251	H25	0.005400	0.800200	0.293500
H261	H26	0.862200	0.802400	0.137300
H271	H27	0.121900	0.045800	0.040500
H281	H28	0.232900	0.066900	0.972800
H291	H29	0.335500	0.962700	0.959200
H301	H30	0.223800	0.824900	0.094600
H311	H31	0.393200	0.844600	0.932700
H321	H32	0.486600	0.731300	0.923700
H331	H33	0.446300	0.663300	0.094800
H341	H34	0.350900	0.770200	0.110600
H351	H35	0.091600	0.738600	0.153900
H361	H36	0.033300	0.748100	0.100500
H371	H37	0.038400	0.889100	0.901500
H381	H38	0.088700	0.786100	0.968200
H391	H39	0.287300	0.756200	0.852100
H401	H40	0.228500	0.858300	0.789200
H411	H41	0.153700	0.701700	0.033000
H421	H42	0.201600	0.588100	0.087000
H431	H43	0.300200	0.494600	0.043500
H441	H44	0.302400	0.637800	0.887300
H451	H45	0.545800	0.378100	0.790500
H461	H46	0.566900	0.267100	0.722800
H471	H47	0.462700	0.164500	0.709200
H481	H48	0.324900	0.276200	0.844600
H491	H49	0.344600	0.106800	0.682700
H501	H50	0.231300	0.013400	0.673700
H511	H51	0.163300	0.053700	0.844800
H521	H52	0.270200	0.149100	0.860600
H531	H53	0.238600	0.408400	0.903900
H541	H54	0.248100	0.466700	0.850500
H551	H55	0.961600	0.110900	0.401500
H561	H56	0.911300	0.213900	0.468200
H571	H57	0.712700	0.243800	0.352100
H581	H58	0.771500	0.141700	0.289200
H591	H59	0.846300	0.298300	0.533000
H601	H60	0.798400	0.411900	0.587000
H611	H61	0.699800	0.505400	0.543500
H621	H62	0.697600	0.362200	0.387300
H631	H63	0.454200	0.621900	0.290500
H641	H64	0.433100	0.732900	0.222800
H651	H65	0.537300	0.835500	0.209200
H661	H66	0.675100	0.723800	0.344600
H671	H67	0.655400	0.893200	0.182700
H681	H68	0.768700	0.986600	0.173700
H691	H69	0.836700	0.946300	0.344800
H701	H70	0.729800	0.850900	0.360600
H711	H71	0.761400	0.591600	0.403900
H721	H72	0.751900	0.533300	0.350500
H731	H73	0.110900	0.961600	0.598500
H741	H74	0.213900	0.911300	0.531800
H751	H75	0.243800	0.712700	0.647900
H761	H76	0.141700	0.771500	0.710800
H771	H77	0.298300	0.846300	0.467000
H781	H78	0.411900	0.798400	0.413000
H791	H79	0.505400	0.699800	0.456500
H801	H80	0.362200	0.697600	0.612700
H811	H81	0.621900	0.454200	0.709500
H821	H82	0.732900	0.433100	0.777200
H831	H83	0.835500	0.537300	0.790800
H841	H84	0.723800	0.675100	0.655400
H851	H85	0.893200	0.655400	0.817300
H861	H86	0.986600	0.768700	0.826300
H871	H87	0.946300	0.836700	0.655200
H881	H88	0.850900	0.729800	0.639400
H891	H89	0.591600	0.761400	0.596100
H901	H90	0.533300	0.751900	0.649500
H911	H91	0.889100	0.038400	0.098500
H921	H92	0.786100	0.088700	0.031800
H931	H93	0.756200	0.287300	0.147900
H941	H94	0.858300	0.228500	0.210800
H951	H95	0.701700	0.153700	0.967000
H961	H96	0.588100	0.201600	0.913000
H971	H97	0.494600	0.300200	0.956500
H981	H98	0.637800	0.302400	0.112700
H991	H99	0.378100	0.545800	0.209500
H1001	H100	0.267100	0.566900	0.277200
H1011	H101	0.164500	0.462700	0.290800
H1021	H102	0.276200	0.324900	0.155400
H1031	H103	0.106800	0.344600	0.317300
H1041	H104	0.013400	0.231300	0.326300
H1051	H105	0.053700	0.163300	0.155200
H1061	H106	0.149100	0.270200	0.139400
H1071	H107	0.408400	0.238600	0.096100
H1081	H108	0.466700	0.248100	0.149500
H1091	H109	0.461600	0.389100	0.348500
H1101	H110	0.411300	0.286100	0.281800
H1111	H111	0.212700	0.256200	0.397900
H1121	H112	0.271500	0.358300	0.460800
H1131	H113	0.346300	0.201700	0.217000
H1141	H114	0.298400	0.088100	0.163000
H1151	H115	0.199800	0.994600	0.206500
H1161	H116	0.197600	0.137800	0.362700
H1171	H117	0.954200	0.878100	0.459500
H1181	H118	0.933100	0.767100	0.527200
H1191	H119	0.037300	0.664500	0.540800
H1201	H120	0.175100	0.776200	0.405400
H1211	H121	0.155400	0.606800	0.567300
H1221	H122	0.268700	0.513400	0.576300
H1231	H123	0.336700	0.553700	0.405200
H1241	H124	0.229800	0.649100	0.389400
H1251	H125	0.261400	0.908400	0.346100
H1261	H126	0.251900	0.966700	0.399500
H1271	H127	0.538400	0.610900	0.848500
H1281	H128	0.588700	0.713900	0.781800
H1291	H129	0.787300	0.743800	0.897900
H1301	H130	0.728500	0.641700	0.960800
H1311	H131	0.653700	0.798300	0.717000
H1321	H132	0.701600	0.911900	0.663000
H1331	H133	0.800200	0.005400	0.706500
H1341	H134	0.802400	0.862200	0.862700
H1351	H135	0.045800	0.121900	0.959500
H1361	H136	0.066900	0.232900	0.027200
H1371	H137	0.962700	0.335500	0.040800
H1381	H138	0.824900	0.223800	0.905400
H1391	H139	0.844600	0.393200	0.067300
H1401	H140	0.731300	0.486600	0.076300
H1411	H141	0.663300	0.446300	0.905200
H1421	H142	0.770200	0.350900	0.889400
H1431	H143	0.738600	0.091600	0.846100
H1441	H144	0.748100	0.033300	0.899500
C11	C1	0.359900	0.411600	0.640400
C21	C2	0.298000	0.381800	0.680800
C31	C3	0.253800	0.308800	0.666200
C41	C4	0.280300	0.265500	0.612700
C51	C5	0.342000	0.301000	0.575600
C61	C6	0.182200	0.277400	0.702800
C71	C7	0.165100	0.306300	0.764300
C81	C8	0.097900	0.277900	0.796200
C91	C9	0.042100	0.219000	0.770800
C101	C10	0.058300	0.189200	0.710900
C111	C11	0.127700	0.218500	0.677900
C121	C12	0.003000	0.126100	0.680500
C131	C13	0.907600	0.075100	0.618300
C141	C14	0.837000	0.066700	0.574100
C151	C15	0.834700	0.995100	0.537400
C161	C16	0.769600	0.983400	0.496700
C171	C17	0.707100	0.044000	0.489900
C181	C18	0.707300	0.114100	0.528000
C191	C19	0.774200	0.125900	0.569500
C201	C20	0.641400	0.180400	0.521700
C211	C21	0.598400	0.192400	0.466800
C221	C22	0.541700	0.260500	0.462100
C231	C23	0.565700	0.299700	0.561300
C241	C24	0.622700	0.236300	0.571300
C251	C25	0.640100	0.588400	0.140400
C261	C26	0.702000	0.618200	0.180800
C271	C27	0.746200	0.691200	0.166200
C281	C28	0.719700	0.734500	0.112700
C291	C29	0.658000	0.699000	0.075600
C301	C30	0.817800	0.722600	0.202800
C311	C31	0.834900	0.693700	0.264300
C321	C32	0.902100	0.722100	0.296200
C331	C33	0.957900	0.781000	0.270800
C341	C34	0.941700	0.810800	0.210900
C351	C35	0.872300	0.781500	0.177900
C361	C36	0.997000	0.873900	0.180500
C371	C37	0.092400	0.924900	0.118300
C381	C38	0.163000	0.933300	0.074100
C391	C39	0.165300	0.004900	0.037400
C401	C40	0.230400	0.016600	0.996700
C411	C41	0.292900	0.956000	0.989900
C421	C42	0.292700	0.885900	0.028000
C431	C43	0.225800	0.874100	0.069500
C441	C44	0.358600	0.819600	0.021700
C451	C45	0.401600	0.807600	0.966800
C461	C46	0.458300	0.739500	0.962100
C471	C47	0.434300	0.700300	0.061300
C481	C48	0.377300	0.763700	0.071300
C491	C49	0.088400	0.859900	0.890400
C501	C50	0.118200	0.798000	0.930800
C511	C51	0.191200	0.753800	0.916200
C521	C52	0.234500	0.780300	0.862700
C531	C53	0.199000	0.842000	0.825600
C541	C54	0.222600	0.682200	0.952800
C551	C55	0.193700	0.665100	0.014300
C561	C56	0.222100	0.597900	0.046200
C571	C57	0.281000	0.542100	0.020800
C581	C58	0.310800	0.558300	0.960900
C591	C59	0.281500	0.627700	0.927900
C601	C60	0.373900	0.503000	0.930500
C611	C61	0.424900	0.407600	0.868300
C621	C62	0.433300	0.337000	0.824100
C631	C63	0.504900	0.334700	0.787400
C641	C64	0.516600	0.269600	0.746700
C651	C65	0.456000	0.207100	0.739900
C661	C66	0.385900	0.207300	0.778000
C671	C67	0.374100	0.274200	0.819500
C681	C68	0.319600	0.141400	0.771700
C691	C69	0.307600	0.098400	0.716800
C701	C70	0.239500	0.041700	0.712100
C711	C71	0.200300	0.065700	0.811300
C721	C72	0.263700	0.122700	0.821300
C731	C73	0.911600	0.140100	0.390400
C741	C74	0.881800	0.202000	0.430800
C751	C75	0.808800	0.246200	0.416200
C761	C76	0.765500	0.219700	0.362700
C771	C77	0.801000	0.158000	0.325600
C781	C78	0.777400	0.317800	0.452800
C791	C79	0.806300	0.334900	0.514300
C801	C80	0.777900	0.402100	0.546200
C811	C81	0.719000	0.457900	0.520800
C821	C82	0.689200	0.441700	0.460900
C831	C83	0.718500	0.372300	0.427900
C841	C84	0.626100	0.497000	0.430500
C851	C85	0.575100	0.592400	0.368300
C861	C86	0.566700	0.663000	0.324100
C871	C87	0.495100	0.665300	0.287400
C881	C88	0.483400	0.730400	0.246700
C891	C89	0.544000	0.792900	0.239900
C901	C90	0.614100	0.792700	0.278000
C911	C91	0.625900	0.725800	0.319500
C921	C92	0.680400	0.858600	0.271700
C931	C93	0.692400	0.901600	0.216800
C941	C94	0.760500	0.958300	0.212100
C951	C95	0.799700	0.934300	0.311300
C961	C96	0.736300	0.877300	0.321300
C971	C97	0.140100	0.911600	0.609600
C981	C98	0.202000	0.881800	0.569200
C991	C99	0.246200	0.808800	0.583800
C1001	C100	0.219700	0.765500	0.637300
C1011	C101	0.158000	0.801000	0.674400
C1021	C102	0.317800	0.777400	0.547200
C1031	C103	0.334900	0.806300	0.485700
C1041	C104	0.402100	0.777900	0.453800
C1051	C105	0.457900	0.719000	0.479200
C1061	C106	0.441700	0.689200	0.539100
C1071	C107	0.372300	0.718500	0.572100
C1081	C108	0.497000	0.626100	0.569500
C1091	C109	0.592400	0.575100	0.631700
C1101	C110	0.663000	0.566700	0.675900
C1111	C111	0.665300	0.495100	0.712600
C1121	C112	0.730400	0.483400	0.753300
C1131	C113	0.792900	0.544000	0.760100
C1141	C114	0.792700	0.614100	0.722000
C1151	C115	0.725800	0.625900	0.680500
C1161	C116	0.858600	0.680400	0.728300
C1171	C117	0.901600	0.692400	0.783200
C1181	C118	0.958300	0.760500	0.787900
C1191	C119	0.934300	0.799700	0.688700
C1201	C120	0.877300	0.736300	0.678700
C1211	C121	0.859900	0.088400	0.109600
C1221	C122	0.798000	0.118200	0.069200
C1231	C123	0.753800	0.191200	0.083800
C1241	C124	0.780300	0.234500	0.137300
C1251	C125	0.842000	0.199000	0.174400
C1261	C126	0.682200	0.222600	0.047200
C1271	C127	0.665100	0.193700	0.985700
C1281	C128	0.597900	0.222100	0.953800
C1291	C129	0.542100	0.281000	0.979200
C1301	C130	0.558300	0.310800	0.039100
C1311	C131	0.627700	0.281500	0.072100
C1321	C132	0.503000	0.373900	0.069500
C1331	C133	0.407600	0.424900	0.131700
C1341	C134	0.337000	0.433300	0.175900
C1351	C135	0.334700	0.504900	0.212600
C1361	C136	0.269600	0.516600	0.253300
C1371	C137	0.207100	0.456000	0.260100
C1381	C138	0.207300	0.385900	0.222000
C1391	C139	0.274200	0.374100	0.180500
C1401	C140	0.141400	0.319600	0.228300
C1411	C141	0.098400	0.307600	0.283200
C1421	C142	0.041700	0.239500	0.287900
C1431	C143	0.065700	0.200300	0.188700
C1441	C144	0.122700	0.263700	0.178700
C1451	C145	0.411600	0.359900	0.359600
C1461	C146	0.381800	0.298000	0.319200
C1471	C147	0.308800	0.253800	0.333800
C1481	C148	0.265500	0.280300	0.387300
C1491	C149	0.301000	0.342000	0.424400
C1501	C150	0.277400	0.182200	0.297200
C1511	C151	0.306300	0.165100	0.235700
C1521	C152	0.277900	0.097900	0.203800
C1531	C153	0.219000	0.042100	0.229200
C1541	C154	0.189200	0.058300	0.289100
C1551	C155	0.218500	0.127700	0.322100
C1561	C156	0.126100	0.003000	0.319500
C1571	C157	0.075100	0.907600	0.381700
C1581	C158	0.066700	0.837000	0.425900
C1591	C159	0.995100	0.834700	0.462600
C1601	C160	0.983400	0.769600	0.503300
C1611	C161	0.044000	0.707100	0.510100
C1621	C162	0.114100	0.707300	0.472000
C1631	C163	0.125900	0.774200	0.430500
C1641	C164	0.180400	0.641400	0.478300
C1651	C165	0.192400	0.598400	0.533200
C1661	C166	0.260500	0.541700	0.537900
C1671	C167	0.299700	0.565700	0.438700
C1681	C168	0.236300	0.622700	0.428700
C1691	C169	0.588400	0.640100	0.859600
C1701	C170	0.618200	0.702000	0.819200
C1711	C171	0.691200	0.746200	0.833800
C1721	C172	0.734500	0.719700	0.887300
C1731	C173	0.699000	0.658000	0.924400
C1741	C174	0.722600	0.817800	0.797200
C1751	C175	0.693700	0.834900	0.735700
C1761	C176	0.722100	0.902100	0.703800
C1771	C177	0.781000	0.957900	0.729200
C1781	C178	0.810800	0.941700	0.789100
C1791	C179	0.781500	0.872300	0.822100
C1801	C180	0.873900	0.997000	0.819500
C1811	C181	0.924900	0.092400	0.881700
C1821	C182	0.933300	0.163000	0.925900
C1831	C183	0.004900	0.165300	0.962600
C1841	C184	0.016600	0.230400	0.003300
C1851	C185	0.956000	0.292900	0.010100
C1861	C186	0.885900	0.292700	0.972000
C1871	C187	0.874100	0.225800	0.930500
C1881	C188	0.819600	0.358600	0.978300
C1891	C189	0.807600	0.401600	0.033200
C1901	C190	0.739500	0.458300	0.037900
C1911	C191	0.700300	0.434300	0.938700
C1921	C192	0.763700	0.377300	0.928700
N11	N1	0.007100	0.043500	0.683100
N21	N2	0.946100	0.011400	0.644600
N31	N3	0.941700	0.147500	0.640000
N41	N4	0.921600	0.229100	0.620400
N51	N5	0.380300	0.374400	0.587800
N61	N6	0.525800	0.312900	0.507200
N71	N7	0.992900	0.956500	0.183100
N81	N8	0.053900	0.988600	0.144600
N91	N9	0.058300	0.852500	0.140000
N101	N10	0.078400	0.770900	0.120400
N111	N11	0.619700	0.625600	0.087800
N121	N12	0.474200	0.687100	0.007200
N131	N13	0.456500	0.507100	0.933100
N141	N14	0.488600	0.446100	0.894600
N151	N15	0.352500	0.441700	0.890000
N161	N16	0.270900	0.421600	0.870400
N171	N17	0.125600	0.880300	0.837800
N181	N18	0.187100	0.025800	0.757200
N191	N19	0.543500	0.492900	0.433100
N201	N20	0.511400	0.553900	0.394600
N211	N21	0.647500	0.558300	0.390000
N221	N22	0.729100	0.578400	0.370400
N231	N23	0.874400	0.119700	0.337800
N241	N24	0.812900	0.974200	0.257200
N251	N25	0.492900	0.543500	0.566900
N261	N26	0.553900	0.511400	0.605400
N271	N27	0.558300	0.647500	0.610000
N281	N28	0.578400	0.729100	0.629600
N291	N29	0.119700	0.874400	0.662200
N301	N30	0.974200	0.812900	0.742800
N311	N31	0.507100	0.456500	0.066900
N321	N32	0.446100	0.488600	0.105400
N331	N33	0.441700	0.352500	0.110000
N341	N34	0.421600	0.270900	0.129600
N351	N35	0.880300	0.125600	0.162200
N361	N36	0.025800	0.187100	0.242800
N371	N37	0.043500	0.007100	0.316900
N381	N38	0.011400	0.946100	0.355400
N391	N39	0.147500	0.941700	0.360000
N401	N40	0.229100	0.921600	0.379600
N411	N41	0.374400	0.380300	0.412200
N421	N42	0.312900	0.525800	0.492800
N431	N43	0.956500	0.992900	0.816900
N441	N44	0.988600	0.053900	0.855400
N451	N45	0.852500	0.058300	0.860000
N461	N46	0.770900	0.078400	0.879600
N471	N47	0.625600	0.619700	0.912200
N481	N48	0.687100	0.474200	0.992800
Cl11	Cl1	0.881230	0.881230	0.000000
O11	O1	0.818500	0.888100	0.038800
O21	O2	0.942500	0.856000	0.035600
O31	O3	0.888100	0.818500	0.961200
O41	O4	0.856000	0.942500	0.964400
Cl21	Cl2	0.118770	0.118770	0.500000
O51	O5	0.181500	0.111900	0.538800
O61	O6	0.057500	0.144000	0.535600
O71	O7	0.111900	0.181500	0.461200
O81	O8	0.144000	0.057500	0.464400
Cl31	Cl3	0.618770	0.381230	0.250000
O91	O9	0.611900	0.318500	0.288800
O101	O10	0.644000	0.442500	0.285600
O111	O11	0.681500	0.388100	0.211200
O121	O12	0.557500	0.356000	0.214400
Cl41	Cl4	0.381230	0.618770	0.750000
O131	O13	0.388100	0.681500	0.788800
O141	O14	0.356000	0.557500	0.785600
O151	O15	0.318500	0.611900	0.711200
O161	O16	0.442500	0.644000	0.714400
