data_ITIWEO_clean_PM
_symmetry_space_group_name_H-M	'P1'
_cell_length_a	15.950600
_cell_length_b	15.950600
_cell_length_c	21.125000
_cell_angle_alpha	90.000000
_cell_angle_beta	90.000000
_cell_angle_gamma	90.000000
_symmetry_Int_Tables_number 1

loop_
_symmetry_equiv_pos_as_xyz
'x,y,z'

loop_
_atom_site_label
_atom_site_type_symbol
_atom_site_fract_x
_atom_site_fract_y
_atom_site_fract_z
C11	C1	0.037500	0.242900	0.785700
H11	H1	0.005300	0.237600	0.823300
C21	C2	0.091300	0.309800	0.781400
H21	H2	0.095100	0.349500	0.814800
C31	C3	0.140100	0.318200	0.727500
C41	C4	0.127600	0.259900	0.680800
H31	H3	0.157600	0.263200	0.642000
C51	C5	0.069100	0.194700	0.691400
H41	H4	0.060400	0.154700	0.658800
C61	C6	0.207400	0.382700	0.722200
C71	C7	0.208100	0.454600	0.761100
H51	H5	0.166100	0.460400	0.792700
C81	C8	0.267700	0.516500	0.754700
H61	H6	0.263300	0.567000	0.778200
C91	C9	0.334500	0.504100	0.713300
H71	H7	0.377600	0.545100	0.710100
C101	C10	0.338300	0.432300	0.676800
C111	C11	0.275000	0.372300	0.681600
H81	H8	0.278300	0.323100	0.656400
C121	C12	0.406800	0.423500	0.633900
C131	C13	0.504400	0.375300	0.570300
C141	C14	0.560300	0.310600	0.539500
C151	C15	0.542000	0.279700	0.480400
H91	H9	0.494400	0.299800	0.458100
C161	C16	0.593700	0.218500	0.453000
H101	H10	0.581200	0.196700	0.412300
C171	C17	0.662300	0.190700	0.485700
H111	H11	0.698500	0.150300	0.467100
C181	C18	0.679600	0.221900	0.547500
C191	C19	0.630100	0.286100	0.571400
H121	H12	0.645100	0.312900	0.609900
C201	C20	0.751800	0.190400	0.583300
C211	C21	0.794700	0.117800	0.569300
H131	H13	0.781200	0.087100	0.532100
C221	C22	0.856700	0.089700	0.608700
H141	H14	0.885200	0.039700	0.597100
C231	C23	0.846900	0.199400	0.672000
H151	H15	0.867600	0.230000	0.707300
C241	C24	0.782500	0.236600	0.635000
H161	H16	0.761000	0.290600	0.644800
N11	N1	0.027500	0.187000	0.742600
N21	N2	0.446300	0.487400	0.607100
N31	N3	0.507300	0.456500	0.567100
N41	N4	0.446000	0.352900	0.611500
N51	N5	0.424000	0.271700	0.631000
H171	H17	0.446100	0.234200	0.603200
H181	H18	0.445100	0.261800	0.670300
N61	N6	0.879400	0.126300	0.660800
C251	C25	0.962500	0.757100	0.285700
H191	H19	0.994700	0.762400	0.323300
C261	C26	0.908700	0.690200	0.281400
H201	H20	0.904900	0.650500	0.314800
C271	C27	0.859900	0.681800	0.227500
C281	C28	0.872400	0.740100	0.180800
H211	H21	0.842400	0.736800	0.142000
C291	C29	0.930900	0.805300	0.191400
H221	H22	0.939600	0.845300	0.158800
C301	C30	0.792600	0.617300	0.222200
C311	C31	0.791900	0.545400	0.261100
H231	H23	0.833900	0.539600	0.292700
C321	C32	0.732300	0.483500	0.254700
H241	H24	0.736700	0.433000	0.278200
C331	C33	0.665500	0.495900	0.213300
H251	H25	0.622400	0.454900	0.210100
C341	C34	0.661700	0.567700	0.176800
C351	C35	0.725000	0.627700	0.181600
H261	H26	0.721700	0.676900	0.156400
C361	C36	0.593200	0.576500	0.133900
C371	C37	0.495600	0.624700	0.070300
C381	C38	0.439700	0.689400	0.039500
C391	C39	0.458000	0.720300	0.980400
H271	H27	0.505600	0.700200	0.958100
C401	C40	0.406300	0.781500	0.953000
H281	H28	0.418800	0.803300	0.912300
C411	C41	0.337700	0.809300	0.985700
H291	H29	0.301500	0.849700	0.967100
C421	C42	0.320400	0.778100	0.047500
C431	C43	0.369900	0.713900	0.071400
H301	H30	0.354900	0.687100	0.109900
C441	C44	0.248200	0.809600	0.083300
C451	C45	0.205300	0.882200	0.069300
H311	H31	0.218800	0.912900	0.032100
C461	C46	0.143300	0.910300	0.108700
H321	H32	0.114800	0.960300	0.097100
C471	C47	0.153100	0.800600	0.172000
H331	H33	0.132400	0.770000	0.207300
C481	C48	0.217500	0.763400	0.135000
H341	H34	0.239000	0.709400	0.144800
N71	N7	0.972500	0.813000	0.242600
N81	N8	0.553700	0.512600	0.107100
N91	N9	0.492700	0.543500	0.067100
N101	N10	0.554000	0.647100	0.111500
N111	N11	0.576000	0.728300	0.131000
H351	H35	0.553900	0.765800	0.103200
H361	H36	0.554900	0.738200	0.170300
N121	N12	0.120600	0.873700	0.160800
C491	C49	0.257100	0.537500	0.035700
H371	H37	0.262400	0.505300	0.073300
C501	C50	0.190200	0.591300	0.031400
H381	H38	0.150500	0.595100	0.064800
C511	C51	0.181800	0.640100	0.977500
C521	C52	0.240100	0.627600	0.930800
H391	H39	0.236800	0.657600	0.892000
C531	C53	0.305300	0.569100	0.941400
H401	H40	0.345300	0.560400	0.908800
C541	C54	0.117300	0.707400	0.972200
C551	C55	0.045400	0.708100	0.011100
H411	H41	0.039600	0.666100	0.042700
C561	C56	0.983500	0.767700	0.004700
H421	H42	0.933000	0.763300	0.028200
C571	C57	0.995900	0.834500	0.963300
H431	H43	0.954900	0.877600	0.960100
C581	C58	0.067700	0.838300	0.926800
C591	C59	0.127700	0.775000	0.931600
H441	H44	0.176900	0.778300	0.906400
C601	C60	0.076500	0.906800	0.883900
C611	C61	0.124700	0.004400	0.820300
C621	C62	0.189400	0.060300	0.789500
C631	C63	0.220300	0.042000	0.730400
H451	H45	0.200200	0.994400	0.708100
C641	C64	0.281500	0.093700	0.703000
H461	H46	0.303300	0.081200	0.662300
C651	C65	0.309300	0.162300	0.735700
H471	H47	0.349700	0.198500	0.717100
C661	C66	0.278100	0.179600	0.797500
C671	C67	0.213900	0.130100	0.821400
H481	H48	0.187100	0.145100	0.859900
C681	C68	0.309600	0.251800	0.833300
C691	C69	0.382200	0.294700	0.819300
H491	H49	0.412900	0.281200	0.782100
C701	C70	0.410300	0.356700	0.858700
H501	H50	0.460300	0.385200	0.847100
C711	C71	0.300600	0.346900	0.922000
H511	H51	0.270000	0.367600	0.957300
C721	C72	0.263400	0.282500	0.885000
H521	H52	0.209400	0.261000	0.894800
N131	N13	0.313000	0.527500	0.992600
N141	N14	0.012600	0.946300	0.857100
N151	N15	0.043500	0.007300	0.817100
N161	N16	0.147100	0.946000	0.861500
N171	N17	0.228300	0.924000	0.881000
H531	H53	0.265800	0.946100	0.853200
H541	H54	0.238200	0.945100	0.920300
N181	N18	0.373700	0.379400	0.910800
C731	C73	0.742900	0.462500	0.535700
H551	H55	0.737600	0.494700	0.573300
C741	C74	0.809800	0.408700	0.531400
H561	H56	0.849500	0.404900	0.564800
C751	C75	0.818200	0.359900	0.477500
C761	C76	0.759900	0.372400	0.430800
H571	H57	0.763200	0.342400	0.392000
C771	C77	0.694700	0.430900	0.441400
H581	H58	0.654700	0.439600	0.408800
C781	C78	0.882700	0.292600	0.472200
C791	C79	0.954600	0.291900	0.511100
H591	H59	0.960400	0.333900	0.542700
C801	C80	0.016500	0.232300	0.504700
H601	H60	0.067000	0.236700	0.528200
C811	C81	0.004100	0.165500	0.463300
H611	H61	0.045100	0.122400	0.460100
C821	C82	0.932300	0.161700	0.426800
C831	C83	0.872300	0.225000	0.431600
H621	H62	0.823100	0.221700	0.406400
C841	C84	0.923500	0.093200	0.383900
C851	C85	0.875300	0.995600	0.320300
C861	C86	0.810600	0.939700	0.289500
C871	C87	0.779700	0.958000	0.230400
H631	H63	0.799800	0.005600	0.208100
C881	C88	0.718500	0.906300	0.203000
H641	H64	0.696700	0.918800	0.162300
C891	C89	0.690700	0.837700	0.235700
H651	H65	0.650300	0.801500	0.217100
C901	C90	0.721900	0.820400	0.297500
C911	C91	0.786100	0.869900	0.321400
H661	H66	0.812900	0.854900	0.359900
C921	C92	0.690400	0.748200	0.333300
C931	C93	0.617800	0.705300	0.319300
H671	H67	0.587100	0.718800	0.282100
C941	C94	0.589700	0.643300	0.358700
H681	H68	0.539700	0.614800	0.347100
C951	C95	0.699400	0.653100	0.422000
H691	H69	0.730000	0.632400	0.457300
C961	C96	0.736600	0.717500	0.385000
H701	H70	0.790600	0.739000	0.394800
N191	N19	0.687000	0.472500	0.492600
N201	N20	0.987400	0.053700	0.357100
N211	N21	0.956500	0.992700	0.317100
N221	N22	0.852900	0.054000	0.361500
N231	N23	0.771700	0.076000	0.381000
H711	H71	0.734200	0.053900	0.353200
H721	H72	0.761800	0.054900	0.420300
N241	N24	0.626300	0.620600	0.410800
C971	C97	0.462500	0.742900	0.464300
H731	H73	0.494700	0.737600	0.426700
C981	C98	0.408700	0.809800	0.468600
H741	H74	0.404900	0.849500	0.435200
C991	C99	0.359900	0.818200	0.522500
C1001	C100	0.372400	0.759900	0.569200
H751	H75	0.342400	0.763200	0.608000
C1011	C101	0.430900	0.694700	0.558600
H761	H76	0.439600	0.654700	0.591200
C1021	C102	0.292600	0.882700	0.527800
C1031	C103	0.291900	0.954600	0.488900
H771	H77	0.333900	0.960400	0.457300
C1041	C104	0.232300	0.016500	0.495300
H781	H78	0.236700	0.067000	0.471800
C1051	C105	0.165500	0.004100	0.536700
H791	H79	0.122400	0.045100	0.539900
C1061	C106	0.161700	0.932300	0.573200
C1071	C107	0.225000	0.872300	0.568400
H801	H80	0.221700	0.823100	0.593600
C1081	C108	0.093200	0.923500	0.616100
C1091	C109	0.995600	0.875300	0.679700
C1101	C110	0.939700	0.810600	0.710500
C1111	C111	0.958000	0.779700	0.769600
H811	H81	0.005600	0.799800	0.791900
C1121	C112	0.906300	0.718500	0.797000
H821	H82	0.918800	0.696700	0.837700
C1131	C113	0.837700	0.690700	0.764300
H831	H83	0.801500	0.650300	0.782900
C1141	C114	0.820400	0.721900	0.702500
C1151	C115	0.869900	0.786100	0.678600
H841	H84	0.854900	0.812900	0.640100
C1161	C116	0.748200	0.690400	0.666700
C1171	C117	0.705300	0.617800	0.680700
H851	H85	0.718800	0.587100	0.717900
C1181	C118	0.643300	0.589700	0.641300
H861	H86	0.614800	0.539700	0.652900
C1191	C119	0.653100	0.699400	0.578000
H871	H87	0.632400	0.730000	0.542700
C1201	C120	0.717500	0.736600	0.615000
H881	H88	0.739000	0.790600	0.605200
N251	N25	0.472500	0.687000	0.507400
N261	N26	0.053700	0.987400	0.642900
N271	N27	0.992700	0.956500	0.682900
N281	N28	0.054000	0.852900	0.638500
N291	N29	0.076000	0.771700	0.619000
H891	H89	0.053900	0.734200	0.646800
H901	H90	0.054900	0.761800	0.579700
N301	N30	0.620600	0.626300	0.589200
C1211	C121	0.537500	0.257100	0.964300
H911	H91	0.505300	0.262400	0.926700
C1221	C122	0.591300	0.190200	0.968600
H921	H92	0.595100	0.150500	0.935200
C1231	C123	0.640100	0.181800	0.022500
C1241	C124	0.627600	0.240100	0.069200
H931	H93	0.657600	0.236800	0.108000
C1251	C125	0.569100	0.305300	0.058600
H941	H94	0.560400	0.345300	0.091200
C1261	C126	0.707400	0.117300	0.027800
C1271	C127	0.708100	0.045400	0.988900
H951	H95	0.666100	0.039600	0.957300
C1281	C128	0.767700	0.983500	0.995300
H961	H96	0.763300	0.933000	0.971800
C1291	C129	0.834500	0.995900	0.036700
H971	H97	0.877600	0.954900	0.039900
C1301	C130	0.838300	0.067700	0.073200
C1311	C131	0.775000	0.127700	0.068400
H981	H98	0.778300	0.176900	0.093600
C1321	C132	0.906800	0.076500	0.116100
C1331	C133	0.004400	0.124700	0.179700
C1341	C134	0.060300	0.189400	0.210500
C1351	C135	0.042000	0.220300	0.269600
H991	H99	0.994400	0.200200	0.291900
C1361	C136	0.093700	0.281500	0.297000
H1001	H100	0.081200	0.303300	0.337700
C1371	C137	0.162300	0.309300	0.264300
H1011	H101	0.198500	0.349700	0.282900
C1381	C138	0.179600	0.278100	0.202500
C1391	C139	0.130100	0.213900	0.178600
H1021	H102	0.145100	0.187100	0.140100
C1401	C140	0.251800	0.309600	0.166700
C1411	C141	0.294700	0.382200	0.180700
H1031	H103	0.281200	0.412900	0.217900
C1421	C142	0.356700	0.410300	0.141300
H1041	H104	0.385200	0.460300	0.152900
C1431	C143	0.346900	0.300600	0.078000
H1051	H105	0.367600	0.270000	0.042700
C1441	C144	0.282500	0.263400	0.115000
H1061	H106	0.261000	0.209400	0.105200
N311	N31	0.527500	0.313000	0.007400
N321	N32	0.946300	0.012600	0.142900
N331	N33	0.007300	0.043500	0.182900
N341	N34	0.946000	0.147100	0.138500
N351	N35	0.924000	0.228300	0.119000
H1071	H107	0.946100	0.265800	0.146800
H1081	H108	0.945100	0.238200	0.079700
N361	N36	0.379400	0.373700	0.089200
C1451	C145	0.242900	0.037500	0.214300
H1091	H109	0.237600	0.005300	0.176700
C1461	C146	0.309800	0.091300	0.218600
H1101	H110	0.349500	0.095100	0.185200
C1471	C147	0.318200	0.140100	0.272500
C1481	C148	0.259900	0.127600	0.319200
H1111	H111	0.263200	0.157600	0.358000
C1491	C149	0.194700	0.069100	0.308600
H1121	H112	0.154700	0.060400	0.341200
C1501	C150	0.382700	0.207400	0.277800
C1511	C151	0.454600	0.208100	0.238900
H1131	H113	0.460400	0.166100	0.207300
C1521	C152	0.516500	0.267700	0.245300
H1141	H114	0.567000	0.263300	0.221800
C1531	C153	0.504100	0.334500	0.286700
H1151	H115	0.545100	0.377600	0.289900
C1541	C154	0.432300	0.338300	0.323200
C1551	C155	0.372300	0.275000	0.318400
H1161	H116	0.323100	0.278300	0.343600
C1561	C156	0.423500	0.406800	0.366100
C1571	C157	0.375300	0.504400	0.429700
C1581	C158	0.310600	0.560300	0.460500
C1591	C159	0.279700	0.542000	0.519600
H1171	H117	0.299800	0.494400	0.541900
C1601	C160	0.218500	0.593700	0.547000
H1181	H118	0.196700	0.581200	0.587700
C1611	C161	0.190700	0.662300	0.514300
H1191	H119	0.150300	0.698500	0.532900
C1621	C162	0.221900	0.679600	0.452500
C1631	C163	0.286100	0.630100	0.428600
H1201	H120	0.312900	0.645100	0.390100
C1641	C164	0.190400	0.751800	0.416700
C1651	C165	0.117800	0.794700	0.430700
H1211	H121	0.087100	0.781200	0.467900
C1661	C166	0.089700	0.856700	0.391300
H1221	H122	0.039700	0.885200	0.402900
C1671	C167	0.199400	0.846900	0.328000
H1231	H123	0.230000	0.867600	0.292700
C1681	C168	0.236600	0.782500	0.365000
H1241	H124	0.290600	0.761000	0.355200
N371	N37	0.187000	0.027500	0.257400
N381	N38	0.487400	0.446300	0.392900
N391	N39	0.456500	0.507300	0.432900
N401	N40	0.352900	0.446000	0.388500
N411	N41	0.271700	0.424000	0.369000
H1251	H125	0.234200	0.446100	0.396800
H1261	H126	0.261800	0.445100	0.329700
N421	N42	0.126300	0.879400	0.339200
C1691	C169	0.757100	0.962500	0.714300
H1271	H127	0.762400	0.994700	0.676700
C1701	C170	0.690200	0.908700	0.718600
H1281	H128	0.650500	0.904900	0.685200
C1711	C171	0.681800	0.859900	0.772500
C1721	C172	0.740100	0.872400	0.819200
H1291	H129	0.736800	0.842400	0.858000
C1731	C173	0.805300	0.930900	0.808600
H1301	H130	0.845300	0.939600	0.841200
C1741	C174	0.617300	0.792600	0.777800
C1751	C175	0.545400	0.791900	0.738900
H1311	H131	0.539600	0.833900	0.707300
C1761	C176	0.483500	0.732300	0.745300
H1321	H132	0.433000	0.736700	0.721800
C1771	C177	0.495900	0.665500	0.786700
H1331	H133	0.454900	0.622400	0.789900
C1781	C178	0.567700	0.661700	0.823200
C1791	C179	0.627700	0.725000	0.818400
H1341	H134	0.676900	0.721700	0.843600
C1801	C180	0.576500	0.593200	0.866100
C1811	C181	0.624700	0.495600	0.929700
C1821	C182	0.689400	0.439700	0.960500
C1831	C183	0.720300	0.458000	0.019600
H1351	H135	0.700200	0.505600	0.041900
C1841	C184	0.781500	0.406300	0.047000
H1361	H136	0.803300	0.418800	0.087700
C1851	C185	0.809300	0.337700	0.014300
H1371	H137	0.849700	0.301500	0.032900
C1861	C186	0.778100	0.320400	0.952500
C1871	C187	0.713900	0.369900	0.928600
H1381	H138	0.687100	0.354900	0.890100
C1881	C188	0.809600	0.248200	0.916700
C1891	C189	0.882200	0.205300	0.930700
H1391	H139	0.912900	0.218800	0.967900
C1901	C190	0.910300	0.143300	0.891300
H1401	H140	0.960300	0.114800	0.902900
C1911	C191	0.800600	0.153100	0.828000
H1411	H141	0.770000	0.132400	0.792700
C1921	C192	0.763400	0.217500	0.865000
H1421	H142	0.709400	0.239000	0.855200
N431	N43	0.813000	0.972500	0.757400
N441	N44	0.512600	0.553700	0.892900
N451	N45	0.543500	0.492700	0.932900
N461	N46	0.647100	0.554000	0.888500
N471	N47	0.728300	0.576000	0.869000
H1431	H143	0.765800	0.553900	0.896800
H1441	H144	0.738200	0.554900	0.829700
N481	N48	0.873700	0.120600	0.839200
Cd11	Cd1	0.940530	0.059470	0.750000
Cd21	Cd2	0.059470	0.940530	0.250000
Cd31	Cd3	0.440530	0.440530	0.000000
Cd41	Cd4	0.559470	0.559470	0.500000
