data_ITIXAM_clean_PM
_symmetry_space_group_name_H-M	'P1'
_cell_length_a	18.420200
_cell_length_b	9.551000
_cell_length_c	33.879000
_cell_angle_alpha	90.000000
_cell_angle_beta	92.718000
_cell_angle_gamma	90.000000
_symmetry_Int_Tables_number 1

loop_
_symmetry_equiv_pos_as_xyz
'x,y,z'

loop_
_atom_site_label
_atom_site_type_symbol
_atom_site_fract_x
_atom_site_fract_y
_atom_site_fract_z
Mn11	Mn1	0.479870	0.647250	0.028270
C11	C1	0.610700	0.831500	0.050900
C21	C2	0.666000	0.871000	0.083300
C31	C3	0.717600	0.971600	0.076700
H11	H1	0.717200	0.016200	0.052300
C41	C4	0.769800	0.007800	0.105300
H21	H2	0.805400	0.073100	0.100000
C51	C5	0.768200	0.945600	0.141800
C61	C6	0.716000	0.846000	0.149500
H31	H3	0.715100	0.805000	0.174300
C71	C7	0.665800	0.807800	0.120100
H41	H4	0.631500	0.739200	0.125000
C81	C8	0.987100	0.810800	0.449900
C91	C9	0.968800	0.805100	0.407800
C101	C10	0.983900	0.916300	0.382600
H51	H5	0.007400	0.995200	0.393000
C111	C11	0.965200	0.912400	0.343300
H61	H6	0.976000	0.986900	0.326900
C121	C12	0.929400	0.793700	0.328100
C131	C13	0.915100	0.682800	0.351700
H71	H7	0.892400	0.603500	0.341100
C141	C14	0.934100	0.688100	0.391000
H81	H8	0.923700	0.612200	0.407000
C151	C15	0.569000	0.851900	0.418800
C161	C16	0.598300	0.911300	0.382000
C171	C17	0.620600	0.821600	0.352900
H91	H9	0.613300	0.725800	0.355500
C181	C18	0.654000	0.873300	0.319800
H101	H10	0.667800	0.813100	0.299900
C191	C19	0.666200	0.015600	0.317000
C201	C20	0.640700	0.105900	0.345000
H111	H11	0.646300	0.202100	0.342000
C211	C21	0.606900	0.053900	0.377500
H121	H12	0.589900	0.115000	0.396300
C221	C22	0.815300	0.961500	0.208900
C231	C23	0.868900	0.886900	0.229200
H131	H13	0.907200	0.847000	0.216300
C241	C24	0.863900	0.873200	0.269100
C251	C25	0.807800	0.931900	0.289200
H141	H14	0.805600	0.921000	0.316400
C261	C26	0.755700	0.006200	0.268100
C271	C27	0.758600	0.024300	0.227700
H151	H15	0.723600	0.076700	0.213600
O11	O1	0.598500	0.918900	0.024410
O21	O2	0.582000	0.710900	0.053110
O31	O3	0.010100	0.925100	0.465400
O41	O4	0.975300	0.708100	0.472580
O51	O5	0.565000	0.721200	0.421200
O61	O6	0.551600	0.931300	0.446100
O71	O7	0.824100	0.982500	0.168570
O81	O8	0.915500	0.783700	0.287720
O91	O9	0.699400	0.075300	0.285300
Mn21	Mn2	0.979870	0.147250	0.028270
C281	C28	0.110700	0.331500	0.050900
C291	C29	0.166000	0.371000	0.083300
C301	C30	0.217600	0.471600	0.076700
H161	H16	0.217200	0.516200	0.052300
C311	C31	0.269800	0.507800	0.105300
H171	H17	0.305400	0.573100	0.100000
C321	C32	0.268200	0.445600	0.141800
C331	C33	0.216000	0.346000	0.149500
H181	H18	0.215100	0.305000	0.174300
C341	C34	0.165800	0.307800	0.120100
H191	H19	0.131500	0.239200	0.125000
C351	C35	0.487100	0.310800	0.449900
C361	C36	0.468800	0.305100	0.407800
C371	C37	0.483900	0.416300	0.382600
H201	H20	0.507400	0.495200	0.393000
C381	C38	0.465200	0.412400	0.343300
H211	H21	0.476000	0.486900	0.326900
C391	C39	0.429400	0.293700	0.328100
C401	C40	0.415100	0.182800	0.351700
H221	H22	0.392400	0.103500	0.341100
C411	C41	0.434100	0.188100	0.391000
H231	H23	0.423700	0.112200	0.407000
C421	C42	0.069000	0.351900	0.418800
C431	C43	0.098300	0.411300	0.382000
C441	C44	0.120600	0.321600	0.352900
H241	H24	0.113300	0.225800	0.355500
C451	C45	0.154000	0.373300	0.319800
H251	H25	0.167800	0.313100	0.299900
C461	C46	0.166200	0.515600	0.317000
C471	C47	0.140700	0.605900	0.345000
H261	H26	0.146300	0.702100	0.342000
C481	C48	0.106900	0.553900	0.377500
H271	H27	0.089900	0.615000	0.396300
C491	C49	0.315300	0.461500	0.208900
C501	C50	0.368900	0.386900	0.229200
H281	H28	0.407200	0.347000	0.216300
C511	C51	0.363900	0.373200	0.269100
C521	C52	0.307800	0.431900	0.289200
H291	H29	0.305600	0.421000	0.316400
C531	C53	0.255700	0.506200	0.268100
C541	C54	0.258600	0.524300	0.227700
H301	H30	0.223600	0.576700	0.213600
O101	O10	0.098500	0.418900	0.024410
O111	O11	0.082000	0.210900	0.053110
O121	O12	0.510100	0.425100	0.465400
O131	O13	0.475300	0.208100	0.472580
O141	O14	0.065000	0.221200	0.421200
O151	O15	0.051600	0.431300	0.446100
O161	O16	0.324100	0.482500	0.168570
O171	O17	0.415500	0.283700	0.287720
O181	O18	0.199400	0.575300	0.285300
Mn31	Mn3	0.520130	0.647250	0.471730
C551	C55	0.389300	0.831500	0.449100
C561	C56	0.334000	0.871000	0.416700
C571	C57	0.282400	0.971600	0.423300
H311	H31	0.282800	0.016200	0.447700
C581	C58	0.230200	0.007800	0.394700
H321	H32	0.194600	0.073100	0.400000
C591	C59	0.231800	0.945600	0.358200
C601	C60	0.284000	0.846000	0.350500
H331	H33	0.284900	0.805000	0.325700
C611	C61	0.334200	0.807800	0.379900
H341	H34	0.368500	0.739200	0.375000
C621	C62	0.012900	0.810800	0.050100
C631	C63	0.031200	0.805100	0.092200
C641	C64	0.016100	0.916300	0.117400
H351	H35	0.992600	0.995200	0.107000
C651	C65	0.034800	0.912400	0.156700
H361	H36	0.024000	0.986900	0.173100
C661	C66	0.070600	0.793700	0.171900
C671	C67	0.084900	0.682800	0.148300
H371	H37	0.107600	0.603500	0.158900
C681	C68	0.065900	0.688100	0.109000
H381	H38	0.076300	0.612200	0.093000
C691	C69	0.431000	0.851900	0.081200
C701	C70	0.401700	0.911300	0.118000
C711	C71	0.379400	0.821600	0.147100
H391	H39	0.386700	0.725800	0.144500
C721	C72	0.346000	0.873300	0.180200
H401	H40	0.332200	0.813100	0.200100
C731	C73	0.333800	0.015600	0.183000
C741	C74	0.359300	0.105900	0.155000
H411	H41	0.353700	0.202100	0.158000
C751	C75	0.393100	0.053900	0.122500
H421	H42	0.410100	0.115000	0.103700
C761	C76	0.184700	0.961500	0.291100
C771	C77	0.131100	0.886900	0.270800
H431	H43	0.092800	0.847000	0.283700
C781	C78	0.136100	0.873200	0.230900
C791	C79	0.192200	0.931900	0.210800
H441	H44	0.194400	0.921000	0.183600
C801	C80	0.244300	0.006200	0.231900
C811	C81	0.241400	0.024300	0.272300
H451	H45	0.276400	0.076700	0.286400
O191	O19	0.401500	0.918900	0.475590
O201	O20	0.418000	0.710900	0.446890
O211	O21	0.989900	0.925100	0.034600
O221	O22	0.024700	0.708100	0.027420
O231	O23	0.435000	0.721200	0.078800
O241	O24	0.448400	0.931300	0.053900
O251	O25	0.175900	0.982500	0.331430
O261	O26	0.084500	0.783700	0.212280
O271	O27	0.300600	0.075300	0.214700
Mn41	Mn4	0.020130	0.147250	0.471730
C821	C82	0.889300	0.331500	0.449100
C831	C83	0.834000	0.371000	0.416700
C841	C84	0.782400	0.471600	0.423300
H461	H46	0.782800	0.516200	0.447700
C851	C85	0.730200	0.507800	0.394700
H471	H47	0.694600	0.573100	0.400000
C861	C86	0.731800	0.445600	0.358200
C871	C87	0.784000	0.346000	0.350500
H481	H48	0.784900	0.305000	0.325700
C881	C88	0.834200	0.307800	0.379900
H491	H49	0.868500	0.239200	0.375000
C891	C89	0.512900	0.310800	0.050100
C901	C90	0.531200	0.305100	0.092200
C911	C91	0.516100	0.416300	0.117400
H501	H50	0.492600	0.495200	0.107000
C921	C92	0.534800	0.412400	0.156700
H511	H51	0.524000	0.486900	0.173100
C931	C93	0.570600	0.293700	0.171900
C941	C94	0.584900	0.182800	0.148300
H521	H52	0.607600	0.103500	0.158900
C951	C95	0.565900	0.188100	0.109000
H531	H53	0.576300	0.112200	0.093000
C961	C96	0.931000	0.351900	0.081200
C971	C97	0.901700	0.411300	0.118000
C981	C98	0.879400	0.321600	0.147100
H541	H54	0.886700	0.225800	0.144500
C991	C99	0.846000	0.373300	0.180200
H551	H55	0.832200	0.313100	0.200100
C1001	C100	0.833800	0.515600	0.183000
C1011	C101	0.859300	0.605900	0.155000
H561	H56	0.853700	0.702100	0.158000
C1021	C102	0.893100	0.553900	0.122500
H571	H57	0.910100	0.615000	0.103700
C1031	C103	0.684700	0.461500	0.291100
C1041	C104	0.631100	0.386900	0.270800
H581	H58	0.592800	0.347000	0.283700
C1051	C105	0.636100	0.373200	0.230900
C1061	C106	0.692200	0.431900	0.210800
H591	H59	0.694400	0.421000	0.183600
C1071	C107	0.744300	0.506200	0.231900
C1081	C108	0.741400	0.524300	0.272300
H601	H60	0.776400	0.576700	0.286400
O281	O28	0.901500	0.418900	0.475590
O291	O29	0.918000	0.210900	0.446890
O301	O30	0.489900	0.425100	0.034600
O311	O31	0.524700	0.208100	0.027420
O321	O32	0.935000	0.221200	0.078800
O331	O33	0.948400	0.431300	0.053900
O341	O34	0.675900	0.482500	0.331430
O351	O35	0.584500	0.283700	0.212280
O361	O36	0.800600	0.575300	0.214700
Mn51	Mn5	0.520130	0.352750	0.971730
C1091	C109	0.389300	0.168500	0.949100
C1101	C110	0.334000	0.129000	0.916700
C1111	C111	0.282400	0.028400	0.923300
H611	H61	0.282800	0.983800	0.947700
C1121	C112	0.230200	0.992200	0.894700
H621	H62	0.194600	0.926900	0.900000
C1131	C113	0.231800	0.054400	0.858200
C1141	C114	0.284000	0.154000	0.850500
H631	H63	0.284900	0.195000	0.825700
C1151	C115	0.334200	0.192200	0.879900
H641	H64	0.368500	0.260800	0.875000
C1161	C116	0.012900	0.189200	0.550100
C1171	C117	0.031200	0.194900	0.592200
C1181	C118	0.016100	0.083700	0.617400
H651	H65	0.992600	0.004800	0.607000
C1191	C119	0.034800	0.087600	0.656700
H661	H66	0.024000	0.013100	0.673100
C1201	C120	0.070600	0.206300	0.671900
C1211	C121	0.084900	0.317200	0.648300
H671	H67	0.107600	0.396500	0.658900
C1221	C122	0.065900	0.311900	0.609000
H681	H68	0.076300	0.387800	0.593000
C1231	C123	0.431000	0.148100	0.581200
C1241	C124	0.401700	0.088700	0.618000
C1251	C125	0.379400	0.178400	0.647100
H691	H69	0.386700	0.274200	0.644500
C1261	C126	0.346000	0.126700	0.680200
H701	H70	0.332200	0.186900	0.700100
C1271	C127	0.333800	0.984400	0.683000
C1281	C128	0.359300	0.894100	0.655000
H711	H71	0.353700	0.797900	0.658000
C1291	C129	0.393100	0.946100	0.622500
H721	H72	0.410100	0.885000	0.603700
C1301	C130	0.184700	0.038500	0.791100
C1311	C131	0.131100	0.113100	0.770800
H731	H73	0.092800	0.153000	0.783700
C1321	C132	0.136100	0.126800	0.730900
C1331	C133	0.192200	0.068100	0.710800
H741	H74	0.194400	0.079000	0.683600
C1341	C134	0.244300	0.993800	0.731900
C1351	C135	0.241400	0.975700	0.772300
H751	H75	0.276400	0.923300	0.786400
O371	O37	0.401500	0.081100	0.975590
O381	O38	0.418000	0.289100	0.946890
O391	O39	0.989900	0.074900	0.534600
O401	O40	0.024700	0.291900	0.527420
O411	O41	0.435000	0.278800	0.578800
O421	O42	0.448400	0.068700	0.553900
O431	O43	0.175900	0.017500	0.831430
O441	O44	0.084500	0.216300	0.712280
O451	O45	0.300600	0.924700	0.714700
Mn61	Mn6	0.020130	0.852750	0.971730
C1361	C136	0.889300	0.668500	0.949100
C1371	C137	0.834000	0.629000	0.916700
C1381	C138	0.782400	0.528400	0.923300
H761	H76	0.782800	0.483800	0.947700
C1391	C139	0.730200	0.492200	0.894700
H771	H77	0.694600	0.426900	0.900000
C1401	C140	0.731800	0.554400	0.858200
C1411	C141	0.784000	0.654000	0.850500
H781	H78	0.784900	0.695000	0.825700
C1421	C142	0.834200	0.692200	0.879900
H791	H79	0.868500	0.760800	0.875000
C1431	C143	0.512900	0.689200	0.550100
C1441	C144	0.531200	0.694900	0.592200
C1451	C145	0.516100	0.583700	0.617400
H801	H80	0.492600	0.504800	0.607000
C1461	C146	0.534800	0.587600	0.656700
H811	H81	0.524000	0.513100	0.673100
C1471	C147	0.570600	0.706300	0.671900
C1481	C148	0.584900	0.817200	0.648300
H821	H82	0.607600	0.896500	0.658900
C1491	C149	0.565900	0.811900	0.609000
H831	H83	0.576300	0.887800	0.593000
C1501	C150	0.931000	0.648100	0.581200
C1511	C151	0.901700	0.588700	0.618000
C1521	C152	0.879400	0.678400	0.647100
H841	H84	0.886700	0.774200	0.644500
C1531	C153	0.846000	0.626700	0.680200
H851	H85	0.832200	0.686900	0.700100
C1541	C154	0.833800	0.484400	0.683000
C1551	C155	0.859300	0.394100	0.655000
H861	H86	0.853700	0.297900	0.658000
C1561	C156	0.893100	0.446100	0.622500
H871	H87	0.910100	0.385000	0.603700
C1571	C157	0.684700	0.538500	0.791100
C1581	C158	0.631100	0.613100	0.770800
H881	H88	0.592800	0.653000	0.783700
C1591	C159	0.636100	0.626800	0.730900
C1601	C160	0.692200	0.568100	0.710800
H891	H89	0.694400	0.579000	0.683600
C1611	C161	0.744300	0.493800	0.731900
C1621	C162	0.741400	0.475700	0.772300
H901	H90	0.776400	0.423300	0.786400
O461	O46	0.901500	0.581100	0.975590
O471	O47	0.918000	0.789100	0.946890
O481	O48	0.489900	0.574900	0.534600
O491	O49	0.524700	0.791900	0.527420
O501	O50	0.935000	0.778800	0.578800
O511	O51	0.948400	0.568700	0.553900
O521	O52	0.675900	0.517500	0.831430
O531	O53	0.584500	0.716300	0.712280
O541	O54	0.800600	0.424700	0.714700
Mn71	Mn7	0.479870	0.352750	0.528270
C1631	C163	0.610700	0.168500	0.550900
C1641	C164	0.666000	0.129000	0.583300
C1651	C165	0.717600	0.028400	0.576700
H911	H91	0.717200	0.983800	0.552300
C1661	C166	0.769800	0.992200	0.605300
H921	H92	0.805400	0.926900	0.600000
C1671	C167	0.768200	0.054400	0.641800
C1681	C168	0.716000	0.154000	0.649500
H931	H93	0.715100	0.195000	0.674300
C1691	C169	0.665800	0.192200	0.620100
H941	H94	0.631500	0.260800	0.625000
C1701	C170	0.987100	0.189200	0.949900
C1711	C171	0.968800	0.194900	0.907800
C1721	C172	0.983900	0.083700	0.882600
H951	H95	0.007400	0.004800	0.893000
C1731	C173	0.965200	0.087600	0.843300
H961	H96	0.976000	0.013100	0.826900
C1741	C174	0.929400	0.206300	0.828100
C1751	C175	0.915100	0.317200	0.851700
H971	H97	0.892400	0.396500	0.841100
C1761	C176	0.934100	0.311900	0.891000
H981	H98	0.923700	0.387800	0.907000
C1771	C177	0.569000	0.148100	0.918800
C1781	C178	0.598300	0.088700	0.882000
C1791	C179	0.620600	0.178400	0.852900
H991	H99	0.613300	0.274200	0.855500
C1801	C180	0.654000	0.126700	0.819800
H1001	H100	0.667800	0.186900	0.799900
C1811	C181	0.666200	0.984400	0.817000
C1821	C182	0.640700	0.894100	0.845000
H1011	H101	0.646300	0.797900	0.842000
C1831	C183	0.606900	0.946100	0.877500
H1021	H102	0.589900	0.885000	0.896300
C1841	C184	0.815300	0.038500	0.708900
C1851	C185	0.868900	0.113100	0.729200
H1031	H103	0.907200	0.153000	0.716300
C1861	C186	0.863900	0.126800	0.769100
C1871	C187	0.807800	0.068100	0.789200
H1041	H104	0.805600	0.079000	0.816400
C1881	C188	0.755700	0.993800	0.768100
C1891	C189	0.758600	0.975700	0.727700
H1051	H105	0.723600	0.923300	0.713600
O551	O55	0.598500	0.081100	0.524410
O561	O56	0.582000	0.289100	0.553110
O571	O57	0.010100	0.074900	0.965400
O581	O58	0.975300	0.291900	0.972580
O591	O59	0.565000	0.278800	0.921200
O601	O60	0.551600	0.068700	0.946100
O611	O61	0.824100	0.017500	0.668570
O621	O62	0.915500	0.216300	0.787720
O631	O63	0.699400	0.924700	0.785300
Mn81	Mn8	0.979870	0.852750	0.528270
C1901	C190	0.110700	0.668500	0.550900
C1911	C191	0.166000	0.629000	0.583300
C1921	C192	0.217600	0.528400	0.576700
H1061	H106	0.217200	0.483800	0.552300
C1931	C193	0.269800	0.492200	0.605300
H1071	H107	0.305400	0.426900	0.600000
C1941	C194	0.268200	0.554400	0.641800
C1951	C195	0.216000	0.654000	0.649500
H1081	H108	0.215100	0.695000	0.674300
C1961	C196	0.165800	0.692200	0.620100
H1091	H109	0.131500	0.760800	0.625000
C1971	C197	0.487100	0.689200	0.949900
C1981	C198	0.468800	0.694900	0.907800
C1991	C199	0.483900	0.583700	0.882600
H1101	H110	0.507400	0.504800	0.893000
C2001	C200	0.465200	0.587600	0.843300
H1111	H111	0.476000	0.513100	0.826900
C2011	C201	0.429400	0.706300	0.828100
C2021	C202	0.415100	0.817200	0.851700
H1121	H112	0.392400	0.896500	0.841100
C2031	C203	0.434100	0.811900	0.891000
H1131	H113	0.423700	0.887800	0.907000
C2041	C204	0.069000	0.648100	0.918800
C2051	C205	0.098300	0.588700	0.882000
C2061	C206	0.120600	0.678400	0.852900
H1141	H114	0.113300	0.774200	0.855500
C2071	C207	0.154000	0.626700	0.819800
H1151	H115	0.167800	0.686900	0.799900
C2081	C208	0.166200	0.484400	0.817000
C2091	C209	0.140700	0.394100	0.845000
H1161	H116	0.146300	0.297900	0.842000
C2101	C210	0.106900	0.446100	0.877500
H1171	H117	0.089900	0.385000	0.896300
C2111	C211	0.315300	0.538500	0.708900
C2121	C212	0.368900	0.613100	0.729200
H1181	H118	0.407200	0.653000	0.716300
C2131	C213	0.363900	0.626800	0.769100
C2141	C214	0.307800	0.568100	0.789200
H1191	H119	0.305600	0.579000	0.816400
C2151	C215	0.255700	0.493800	0.768100
C2161	C216	0.258600	0.475700	0.727700
H1201	H120	0.223600	0.423300	0.713600
O641	O64	0.098500	0.581100	0.524410
O651	O65	0.082000	0.789100	0.553110
O661	O66	0.510100	0.574900	0.965400
O671	O67	0.475300	0.791900	0.972580
O681	O68	0.065000	0.778800	0.921200
O691	O69	0.051600	0.568700	0.946100
O701	O70	0.324100	0.517500	0.668570
O711	O71	0.415500	0.716300	0.787720
O721	O72	0.199400	0.424700	0.785300
Mn91	Mn9	0.500000	0.000000	0.000000
Mn101	Mn10	0.000000	0.500000	0.000000
Mn111	Mn11	0.500000	0.000000	0.500000
Mn121	Mn12	0.000000	0.500000	0.500000
