data_IVARUT_clean_PM
_symmetry_space_group_name_H-M	'P1'
_cell_length_a	11.335600
_cell_length_b	12.151300
_cell_length_c	12.861100
_cell_angle_alpha	87.543000
_cell_angle_beta	68.761000
_cell_angle_gamma	71.799000
_symmetry_Int_Tables_number 1

loop_
_symmetry_equiv_pos_as_xyz
'x,y,z'

loop_
_atom_site_label
_atom_site_type_symbol
_atom_site_fract_x
_atom_site_fract_y
_atom_site_fract_z
Cd11	Cd1	0.652520	0.217550	0.709920
Cd21	Cd2	0.347480	0.782450	0.290080
H11	H1	0.586300	0.983800	0.782800
H21	H2	0.423700	0.914000	0.901200
H31	H3	0.235100	0.231000	0.061700
H41	H4	0.400900	0.293100	0.939000
H51	H5	0.136600	0.083400	0.130000
H61	H6	0.236900	0.956500	0.107800
H71	H7	0.061500	0.882200	0.129400
H81	H8	0.962500	0.009900	0.153000
H91	H9	0.003400	0.150200	0.017400
H101	H10	0.128600	0.113700	0.905400
H111	H11	0.879800	0.987300	0.376200
H121	H12	0.955900	0.903200	0.443900
H131	H13	0.785500	0.824300	0.519400
H141	H14	0.817700	0.821600	0.390200
H151	H15	0.560000	0.891700	0.634800
H161	H16	0.661600	0.008700	0.330100
H171	H17	0.692400	0.439600	0.977100
H181	H18	0.746900	0.501400	0.869500
H191	H19	0.890000	0.300400	0.932800
H201	H20	0.945700	0.351800	0.818700
H211	H21	0.887200	0.378600	0.097500
H221	H22	0.015400	0.531400	0.820300
H231	H23	0.552300	0.222100	0.507500
H241	H24	0.411800	0.332400	0.425800
H251	H25	0.272300	0.577300	0.676000
H261	H26	0.416800	0.460500	0.751800
H271	H27	0.285500	0.565100	0.416300
H281	H28	0.183800	0.620400	0.535500
H291	H29	0.110200	0.410000	0.615900
H301	H30	0.007200	0.535800	0.635900
H311	H31	0.000500	0.652100	0.482000
H321	H32	0.099500	0.603400	0.359800
H331	H33	0.413700	0.016200	0.217200
H341	H34	0.576300	0.086000	0.098800
H351	H35	0.764900	0.769000	0.938300
H361	H36	0.599100	0.706900	0.061000
H371	H37	0.863400	0.916600	0.870000
H381	H38	0.763100	0.043500	0.892200
H391	H39	0.938500	0.117800	0.870600
H401	H40	0.037500	0.990100	0.847000
H411	H41	0.996600	0.849800	0.982600
H421	H42	0.871400	0.886300	0.094600
H431	H43	0.120200	0.012700	0.623800
H441	H44	0.044100	0.096800	0.556100
H451	H45	0.214500	0.175700	0.480600
H461	H46	0.182300	0.178400	0.609800
H471	H47	0.440000	0.108300	0.365200
H481	H48	0.338400	0.991300	0.669900
H491	H49	0.307600	0.560400	0.022900
H501	H50	0.253100	0.498600	0.130500
H511	H51	0.110000	0.699600	0.067200
H521	H52	0.054300	0.648200	0.181300
H531	H53	0.112800	0.621400	0.902500
H541	H54	0.984600	0.468600	0.179700
H551	H55	0.447700	0.777900	0.492500
H561	H56	0.588200	0.667600	0.574200
H571	H57	0.727700	0.422700	0.324000
H581	H58	0.583200	0.539500	0.248200
H591	H59	0.714500	0.434900	0.583700
H601	H60	0.816200	0.379600	0.464500
H611	H61	0.889800	0.590000	0.384100
H621	H62	0.992800	0.464200	0.364100
H631	H63	0.999500	0.347900	0.518000
H641	H64	0.900500	0.396600	0.640200
C11	C1	0.514000	0.034400	0.838920
C21	C2	0.416500	0.991700	0.909950
C31	C3	0.308100	0.065300	0.994210
C41	C4	0.304900	0.179400	0.004700
C51	C5	0.405000	0.216200	0.930900
C61	C6	0.198400	0.022400	0.072000
C71	C7	0.020600	0.948000	0.094810
C81	C8	0.061000	0.086800	0.960660
C91	C9	0.806600	0.043700	0.542290
C101	C10	0.868400	0.950700	0.446100
C111	C11	0.781000	0.872700	0.458000
C121	C12	0.635800	0.938510	0.479000
C131	C13	0.536600	0.935200	0.579900
C141	C14	0.597200	0.004700	0.398700
C151	C15	0.703600	0.358900	0.836200
C161	C16	0.752700	0.426100	0.899500
C171	C17	0.886800	0.372300	0.896400
C181	C18	0.942700	0.442200	0.949700
C191	C19	0.933300	0.427200	0.056700
C201	C20	0.009300	0.517600	0.893500
C211	C21	0.495400	0.294900	0.541800
C221	C22	0.411100	0.360700	0.492200
C231	C23	0.325000	0.469200	0.541360
C241	C24	0.328900	0.505100	0.639800
C251	C25	0.416300	0.434300	0.685100
C261	C26	0.232500	0.547720	0.489300
C271	C27	0.053700	0.466740	0.584230
C281	C28	0.047000	0.582440	0.431180
C291	C29	0.486000	0.965600	0.161080
C301	C30	0.583500	0.008300	0.090050
C311	C31	0.691900	0.934700	0.005790
C321	C32	0.695100	0.820600	0.995300
C331	C33	0.595000	0.783800	0.069100
C341	C34	0.801600	0.977600	0.928000
C351	C35	0.979400	0.052000	0.905190
C361	C36	0.939000	0.913200	0.039340
C371	C37	0.193400	0.956300	0.457710
C381	C38	0.131600	0.049300	0.553900
C391	C39	0.219000	0.127300	0.542000
C401	C40	0.364200	0.061490	0.521000
C411	C41	0.463400	0.064800	0.420100
C421	C42	0.402800	0.995300	0.601300
C431	C43	0.296400	0.641100	0.163800
C441	C44	0.247300	0.573900	0.100500
C451	C45	0.113200	0.627700	0.103600
C461	C46	0.057300	0.557800	0.050300
C471	C47	0.066700	0.572800	0.943300
C481	C48	0.990700	0.482400	0.106500
C491	C49	0.504600	0.705100	0.458200
C501	C50	0.588900	0.639300	0.507800
C511	C51	0.675000	0.530800	0.458640
C521	C52	0.671100	0.494900	0.360200
C531	C53	0.583700	0.565700	0.314900
C541	C54	0.767500	0.452280	0.510700
C551	C55	0.946300	0.533260	0.415770
C561	C56	0.953000	0.417560	0.568820
N11	N1	0.508450	0.145650	0.847530
N21	N2	0.125260	0.987830	0.012280
N31	N3	0.500360	0.329830	0.637170
N41	N4	0.136260	0.496150	0.476630
N51	N5	0.491550	0.854350	0.152470
N61	N6	0.874740	0.012170	0.987720
N71	N7	0.499640	0.670170	0.362830
N81	N8	0.863740	0.503850	0.523370
O11	O1	0.780350	0.149340	0.521950
O21	O2	0.778370	0.015220	0.641370
O31	O3	0.782110	0.262280	0.784430
O41	O4	0.589550	0.402110	0.833080
O51	O5	0.219650	0.850660	0.478050
O61	O6	0.221630	0.984780	0.358630
O71	O7	0.217890	0.737720	0.215570
O81	O8	0.410450	0.597890	0.166920
