data_IVEQAC_clean_PM
_symmetry_space_group_name_H-M	'P1'
_cell_length_a	19.415000
_cell_length_b	7.071000
_cell_length_c	11.483000
_cell_angle_alpha	90.000000
_cell_angle_beta	92.780000
_cell_angle_gamma	90.000000
_symmetry_Int_Tables_number 1

loop_
_symmetry_equiv_pos_as_xyz
'x,y,z'

loop_
_atom_site_label
_atom_site_type_symbol
_atom_site_fract_x
_atom_site_fract_y
_atom_site_fract_z
O11	O1	0.331000	0.182000	0.629000
O21	O2	0.304000	0.158000	0.367000
C11	C1	0.504000	0.178000	0.433000
N11	N1	0.261000	0.195000	0.878000
C21	C2	0.320000	0.270000	0.959000
C31	C3	0.202000	0.111000	0.949000
O31	O3	0.831000	0.682000	0.629000
O41	O4	0.804000	0.658000	0.367000
C41	C4	0.004000	0.678000	0.433000
N21	N2	0.761000	0.695000	0.878000
C51	C5	0.820000	0.770000	0.959000
C61	C6	0.702000	0.611000	0.949000
O51	O5	0.669000	0.182000	0.371000
O61	O6	0.696000	0.158000	0.633000
C71	C7	0.496000	0.178000	0.567000
N31	N3	0.739000	0.195000	0.122000
C81	C8	0.680000	0.270000	0.041000
C91	C9	0.798000	0.111000	0.051000
O71	O7	0.169000	0.682000	0.371000
O81	O8	0.196000	0.658000	0.633000
C101	C10	0.996000	0.678000	0.567000
N41	N4	0.239000	0.695000	0.122000
C111	C11	0.180000	0.770000	0.041000
C121	C12	0.298000	0.611000	0.051000
O91	O9	0.669000	0.818000	0.371000
O101	O10	0.696000	0.842000	0.633000
C131	C13	0.496000	0.822000	0.567000
N51	N5	0.739000	0.805000	0.122000
C141	C14	0.680000	0.730000	0.041000
C151	C15	0.798000	0.889000	0.051000
O111	O11	0.169000	0.318000	0.371000
O121	O12	0.196000	0.342000	0.633000
C161	C16	0.996000	0.322000	0.567000
N61	N6	0.239000	0.305000	0.122000
C171	C17	0.180000	0.230000	0.041000
C181	C18	0.298000	0.389000	0.051000
O131	O13	0.331000	0.818000	0.629000
O141	O14	0.304000	0.842000	0.367000
C191	C19	0.504000	0.822000	0.433000
N71	N7	0.261000	0.805000	0.878000
C201	C20	0.320000	0.730000	0.959000
C211	C21	0.202000	0.889000	0.949000
O151	O15	0.831000	0.318000	0.629000
O161	O16	0.804000	0.342000	0.367000
C221	C22	0.004000	0.322000	0.433000
N81	N8	0.761000	0.305000	0.878000
C231	C23	0.820000	0.230000	0.959000
C241	C24	0.702000	0.389000	0.949000
Ti11	Ti1	0.250000	0.250000	0.500000
Ti21	Ti2	0.750000	0.250000	0.500000
Ti31	Ti3	0.750000	0.750000	0.500000
Ti41	Ti4	0.250000	0.750000	0.500000
P11	P1	0.343000	0.000000	0.701000
P21	P2	0.320000	0.000000	0.297000
O171	O17	0.223000	0.000000	0.532000
O181	O18	0.419000	0.000000	0.740000
O191	O19	0.287000	0.000000	0.175000
N91	N9	0.469000	0.000000	0.381000
C251	C25	0.411000	0.000000	0.273000
C261	C26	0.294000	0.000000	0.827000
P31	P3	0.843000	0.500000	0.701000
P41	P4	0.820000	0.500000	0.297000
O201	O20	0.723000	0.500000	0.532000
O211	O21	0.919000	0.500000	0.740000
O221	O22	0.787000	0.500000	0.175000
N101	N10	0.969000	0.500000	0.381000
C271	C27	0.911000	0.500000	0.273000
C281	C28	0.794000	0.500000	0.827000
P51	P5	0.657000	0.000000	0.299000
P61	P6	0.680000	0.000000	0.703000
O231	O23	0.777000	0.000000	0.468000
O241	O24	0.581000	0.000000	0.260000
O251	O25	0.713000	0.000000	0.825000
N111	N11	0.531000	0.000000	0.619000
C291	C29	0.589000	0.000000	0.727000
C301	C30	0.706000	0.000000	0.173000
P71	P7	0.157000	0.500000	0.299000
P81	P8	0.180000	0.500000	0.703000
O261	O26	0.277000	0.500000	0.468000
O271	O27	0.081000	0.500000	0.260000
O281	O28	0.213000	0.500000	0.825000
N121	N12	0.031000	0.500000	0.619000
C311	C31	0.089000	0.500000	0.727000
C321	C32	0.206000	0.500000	0.173000
