data_IVILEG_clean_PM
_symmetry_space_group_name_H-M	'P1'
_cell_length_a	32.144600
_cell_length_b	32.144600
_cell_length_c	10.980800
_cell_angle_alpha	90.000000
_cell_angle_beta	90.000000
_cell_angle_gamma	90.000000
_symmetry_Int_Tables_number 1

loop_
_symmetry_equiv_pos_as_xyz
'x,y,z'

loop_
_atom_site_label
_atom_site_type_symbol
_atom_site_fract_x
_atom_site_fract_y
_atom_site_fract_z
Zn11	Zn1	0.283840	0.716090	0.607550
N11	N1	0.275380	0.855860	0.880100
O11	O1	0.418500	0.799950	0.088100
N21	N2	0.256320	0.810670	0.721400
N31	N3	0.343880	0.843700	0.017600
H11	H1	0.327500	0.864700	0.023200
H21	H2	0.365000	0.841700	0.065100
O21	O2	0.656820	0.157200	0.679100
C11	C1	0.245200	0.847900	0.782600
H31	H3	0.222500	0.864600	0.763900
O31	O3	0.681200	0.181600	0.504500
C21	C2	0.658800	0.155600	0.567500
C31	C3	0.335290	0.809430	0.922100
C41	C4	0.299620	0.820030	0.857600
C51	C5	0.286480	0.795410	0.760900
N41	N4	0.309010	0.760180	0.728700
C61	C6	0.344680	0.749570	0.793200
H41	H4	0.359800	0.726000	0.771600
N51	N5	0.357820	0.774200	0.889800
C71	C7	0.599600	0.111100	0.540100
H51	H5	0.588800	0.124100	0.608900
C81	C8	0.575900	0.082000	0.477300
H61	H6	0.549200	0.075500	0.504100
C91	C9	0.592000	0.062700	0.374400
C101	C10	0.631800	0.072400	0.334300
H71	H7	0.642600	0.059500	0.265400
C111	C11	0.655500	0.101500	0.397000
H81	H8	0.682200	0.108100	0.370200
C121	C12	0.639400	0.120900	0.500000
O41	O4	0.458700	0.795900	0.928600
C131	C13	0.450000	0.814200	0.029000
C141	C14	0.474100	0.847200	0.082000
C151	C15	0.464100	0.863300	0.195700
H91	H9	0.443000	0.851300	0.241600
C161	C16	0.485600	0.897500	0.241000
H101	H10	0.478900	0.908300	0.317000
C171	C17	0.517200	0.915500	0.172400
C181	C18	0.527200	0.899400	0.058700
H111	H11	0.548300	0.911500	0.012800
C191	C19	0.505700	0.865300	0.013500
H121	H12	0.512400	0.854500	0.937400
C201	C20	0.568400	0.029200	0.314200
C211	C21	0.541300	0.951000	0.214000
C221	C22	0.549600	0.961800	0.334000
C231	C23	0.562500	0.028800	0.187000
C241	C24	0.560700	0.997600	0.400000
H131	H13	0.562600	0.000000	0.484400
C251	C25	0.542800	0.990900	0.157000
H141	H14	0.527800	0.992200	0.084400
C261	C26	0.573600	0.063800	0.099000
H151	H15	0.603400	0.064200	0.092500
H161	H16	0.561800	0.056600	0.021400
H171	H17	0.563800	0.090800	0.122900
C271	C27	0.553100	0.926200	0.402000
H181	H18	0.536300	0.931800	0.472600
H191	H19	0.581200	0.920900	0.427200
H201	H20	0.542400	0.902300	0.360300
Zn21	Zn2	0.216160	0.783910	0.607550
N61	N6	0.224620	0.644140	0.880100
O51	O5	0.081500	0.700050	0.088100
N71	N7	0.243680	0.689330	0.721400
N81	N8	0.156120	0.656300	0.017600
H211	H21	0.172500	0.635300	0.023200
H221	H22	0.135000	0.658300	0.065100
O61	O6	0.843180	0.342800	0.679100
C281	C28	0.254800	0.652100	0.782600
H231	H23	0.277500	0.635400	0.763900
O71	O7	0.818800	0.318400	0.504500
C291	C29	0.841200	0.344400	0.567500
C301	C30	0.164710	0.690570	0.922100
C311	C31	0.200380	0.679970	0.857600
C321	C32	0.213520	0.704590	0.760900
N91	N9	0.190990	0.739820	0.728700
C331	C33	0.155320	0.750430	0.793200
H241	H24	0.140200	0.774000	0.771600
N101	N10	0.142180	0.725800	0.889800
C341	C34	0.900400	0.388900	0.540100
H251	H25	0.911200	0.375900	0.608900
C351	C35	0.924100	0.418000	0.477300
H261	H26	0.950800	0.424500	0.504100
C361	C36	0.908000	0.437300	0.374400
C371	C37	0.868200	0.427600	0.334300
H271	H27	0.857400	0.440500	0.265400
C381	C38	0.844500	0.398500	0.397000
H281	H28	0.817800	0.391900	0.370200
C391	C39	0.860600	0.379100	0.500000
O81	O8	0.041300	0.704100	0.928600
C401	C40	0.050000	0.685800	0.029000
C411	C41	0.025900	0.652800	0.082000
C421	C42	0.035900	0.636700	0.195700
H291	H29	0.057000	0.648700	0.241600
C431	C43	0.014400	0.602500	0.241000
H301	H30	0.021100	0.591700	0.317000
C441	C44	0.982800	0.584500	0.172400
C451	C45	0.972800	0.600600	0.058700
H311	H31	0.951700	0.588500	0.012800
C461	C46	0.994300	0.634700	0.013500
H321	H32	0.987600	0.645500	0.937400
C471	C47	0.931600	0.470800	0.314200
C481	C48	0.958700	0.549000	0.214000
C491	C49	0.950400	0.538200	0.334000
C501	C50	0.937500	0.471200	0.187000
C511	C51	0.939300	0.502400	0.400000
H331	H33	0.937400	0.500000	0.484400
C521	C52	0.957200	0.509100	0.157000
H341	H34	0.972200	0.507800	0.084400
C531	C53	0.926400	0.436200	0.099000
H351	H35	0.896600	0.435800	0.092500
H361	H36	0.938200	0.443400	0.021400
H371	H37	0.936200	0.409200	0.122900
C541	C54	0.946900	0.573800	0.402000
H381	H38	0.963700	0.568200	0.472600
H391	H39	0.918800	0.579100	0.427200
H401	H40	0.957600	0.597700	0.360300
Zn31	Zn3	0.216160	0.716090	0.392450
N111	N11	0.224620	0.855860	0.119900
O91	O9	0.081500	0.799950	0.911900
N121	N12	0.243680	0.810670	0.278600
N131	N13	0.156120	0.843700	0.982400
H411	H41	0.172500	0.864700	0.976800
H421	H42	0.135000	0.841700	0.934900
O101	O10	0.843180	0.157200	0.320900
C551	C55	0.254800	0.847900	0.217400
H431	H43	0.277500	0.864600	0.236100
O111	O11	0.818800	0.181600	0.495500
C561	C56	0.841200	0.155600	0.432500
C571	C57	0.164710	0.809430	0.077900
C581	C58	0.200380	0.820030	0.142400
C591	C59	0.213520	0.795410	0.239100
N141	N14	0.190990	0.760180	0.271300
C601	C60	0.155320	0.749570	0.206800
H441	H44	0.140200	0.726000	0.228400
N151	N15	0.142180	0.774200	0.110200
C611	C61	0.900400	0.111100	0.459900
H451	H45	0.911200	0.124100	0.391100
C621	C62	0.924100	0.082000	0.522700
H461	H46	0.950800	0.075500	0.495900
C631	C63	0.908000	0.062700	0.625600
C641	C64	0.868200	0.072400	0.665700
H471	H47	0.857400	0.059500	0.734600
C651	C65	0.844500	0.101500	0.603000
H481	H48	0.817800	0.108100	0.629800
C661	C66	0.860600	0.120900	0.500000
O121	O12	0.041300	0.795900	0.071400
C671	C67	0.050000	0.814200	0.971000
C681	C68	0.025900	0.847200	0.918000
C691	C69	0.035900	0.863300	0.804300
H491	H49	0.057000	0.851300	0.758400
C701	C70	0.014400	0.897500	0.759000
H501	H50	0.021100	0.908300	0.683000
C711	C71	0.982800	0.915500	0.827600
C721	C72	0.972800	0.899400	0.941300
H511	H51	0.951700	0.911500	0.987200
C731	C73	0.994300	0.865300	0.986500
H521	H52	0.987600	0.854500	0.062600
C741	C74	0.931600	0.029200	0.685800
C751	C75	0.958700	0.951000	0.786000
C761	C76	0.950400	0.961800	0.666000
C771	C77	0.937500	0.028800	0.813000
C781	C78	0.939300	0.997600	0.600000
H531	H53	0.937400	0.000000	0.515600
C791	C79	0.957200	0.990900	0.843000
H541	H54	0.972200	0.992200	0.915600
C801	C80	0.926400	0.063800	0.901000
H551	H55	0.896600	0.064200	0.907500
H561	H56	0.938200	0.056600	0.978600
H571	H57	0.936200	0.090800	0.877100
C811	C81	0.946900	0.926200	0.598000
H581	H58	0.963700	0.931800	0.527400
H591	H59	0.918800	0.920900	0.572800
H601	H60	0.957600	0.902300	0.639700
Zn41	Zn4	0.283840	0.783910	0.392450
N161	N16	0.275380	0.644140	0.119900
O131	O13	0.418500	0.700050	0.911900
N171	N17	0.256320	0.689330	0.278600
N181	N18	0.343880	0.656300	0.982400
H611	H61	0.327500	0.635300	0.976800
H621	H62	0.365000	0.658300	0.934900
O141	O14	0.656820	0.342800	0.320900
C821	C82	0.245200	0.652100	0.217400
H631	H63	0.222500	0.635400	0.236100
O151	O15	0.681200	0.318400	0.495500
C831	C83	0.658800	0.344400	0.432500
C841	C84	0.335290	0.690570	0.077900
C851	C85	0.299620	0.679970	0.142400
C861	C86	0.286480	0.704590	0.239100
N191	N19	0.309010	0.739820	0.271300
C871	C87	0.344680	0.750430	0.206800
H641	H64	0.359800	0.774000	0.228400
N201	N20	0.357820	0.725800	0.110200
C881	C88	0.599600	0.388900	0.459900
H651	H65	0.588800	0.375900	0.391100
C891	C89	0.575900	0.418000	0.522700
H661	H66	0.549200	0.424500	0.495900
C901	C90	0.592000	0.437300	0.625600
C911	C91	0.631800	0.427600	0.665700
H671	H67	0.642600	0.440500	0.734600
C921	C92	0.655500	0.398500	0.603000
H681	H68	0.682200	0.391900	0.629800
C931	C93	0.639400	0.379100	0.500000
O161	O16	0.458700	0.704100	0.071400
C941	C94	0.450000	0.685800	0.971000
C951	C95	0.474100	0.652800	0.918000
C961	C96	0.464100	0.636700	0.804300
H691	H69	0.443000	0.648700	0.758400
C971	C97	0.485600	0.602500	0.759000
H701	H70	0.478900	0.591700	0.683000
C981	C98	0.517200	0.584500	0.827600
C991	C99	0.527200	0.600600	0.941300
H711	H71	0.548300	0.588500	0.987200
C1001	C100	0.505700	0.634700	0.986500
H721	H72	0.512400	0.645500	0.062600
C1011	C101	0.568400	0.470800	0.685800
C1021	C102	0.541300	0.549000	0.786000
C1031	C103	0.549600	0.538200	0.666000
C1041	C104	0.562500	0.471200	0.813000
C1051	C105	0.560700	0.502400	0.600000
H731	H73	0.562600	0.500000	0.515600
C1061	C106	0.542800	0.509100	0.843000
H741	H74	0.527800	0.507800	0.915600
C1071	C107	0.573600	0.436200	0.901000
H751	H75	0.603400	0.435800	0.907500
H761	H76	0.561800	0.443400	0.978600
H771	H77	0.563800	0.409200	0.877100
C1081	C108	0.553100	0.573800	0.598000
H781	H78	0.536300	0.568200	0.527400
H791	H79	0.581200	0.579100	0.572800
H801	H80	0.542400	0.597700	0.639700
Zn51	Zn5	0.716160	0.283910	0.392450
N211	N21	0.724620	0.144140	0.119900
O171	O17	0.581500	0.200050	0.911900
N221	N22	0.743680	0.189330	0.278600
N231	N23	0.656120	0.156300	0.982400
H811	H81	0.672500	0.135300	0.976800
H821	H82	0.635000	0.158300	0.934900
O181	O18	0.343180	0.842800	0.320900
C1091	C109	0.754800	0.152100	0.217400
H831	H83	0.777500	0.135400	0.236100
O191	O19	0.318800	0.818400	0.495500
C1101	C110	0.341200	0.844400	0.432500
C1111	C111	0.664710	0.190570	0.077900
C1121	C112	0.700380	0.179970	0.142400
C1131	C113	0.713520	0.204590	0.239100
N241	N24	0.690990	0.239820	0.271300
C1141	C114	0.655320	0.250430	0.206800
H841	H84	0.640200	0.274000	0.228400
N251	N25	0.642180	0.225800	0.110200
C1151	C115	0.400400	0.888900	0.459900
H851	H85	0.411200	0.875900	0.391100
C1161	C116	0.424100	0.918000	0.522700
H861	H86	0.450800	0.924500	0.495900
C1171	C117	0.408000	0.937300	0.625600
C1181	C118	0.368200	0.927600	0.665700
H871	H87	0.357400	0.940500	0.734600
C1191	C119	0.344500	0.898500	0.603000
H881	H88	0.317800	0.891900	0.629800
C1201	C120	0.360600	0.879100	0.500000
O201	O20	0.541300	0.204100	0.071400
C1211	C121	0.550000	0.185800	0.971000
C1221	C122	0.525900	0.152800	0.918000
C1231	C123	0.535900	0.136700	0.804300
H891	H89	0.557000	0.148700	0.758400
C1241	C124	0.514400	0.102500	0.759000
H901	H90	0.521100	0.091700	0.683000
C1251	C125	0.482800	0.084500	0.827600
C1261	C126	0.472800	0.100600	0.941300
H911	H91	0.451700	0.088500	0.987200
C1271	C127	0.494300	0.134700	0.986500
H921	H92	0.487600	0.145500	0.062600
C1281	C128	0.431600	0.970800	0.685800
C1291	C129	0.458700	0.049000	0.786000
C1301	C130	0.450400	0.038200	0.666000
C1311	C131	0.437500	0.971200	0.813000
C1321	C132	0.439300	0.002400	0.600000
H931	H93	0.437400	0.000000	0.515600
C1331	C133	0.457200	0.009100	0.843000
H941	H94	0.472200	0.007800	0.915600
C1341	C134	0.426400	0.936200	0.901000
H951	H95	0.396600	0.935800	0.907500
H961	H96	0.438200	0.943400	0.978600
H971	H97	0.436200	0.909200	0.877100
C1351	C135	0.446900	0.073800	0.598000
H981	H98	0.463700	0.068200	0.527400
H991	H99	0.418800	0.079100	0.572800
H1001	H100	0.457600	0.097700	0.639700
Zn61	Zn6	0.783840	0.216090	0.392450
N261	N26	0.775380	0.355860	0.119900
O211	O21	0.918500	0.299950	0.911900
N271	N27	0.756320	0.310670	0.278600
N281	N28	0.843880	0.343700	0.982400
H1011	H101	0.827500	0.364700	0.976800
H1021	H102	0.865000	0.341700	0.934900
O221	O22	0.156820	0.657200	0.320900
C1361	C136	0.745200	0.347900	0.217400
H1031	H103	0.722500	0.364600	0.236100
O231	O23	0.181200	0.681600	0.495500
C1371	C137	0.158800	0.655600	0.432500
C1381	C138	0.835290	0.309430	0.077900
C1391	C139	0.799620	0.320030	0.142400
C1401	C140	0.786480	0.295410	0.239100
N291	N29	0.809010	0.260180	0.271300
C1411	C141	0.844680	0.249570	0.206800
H1041	H104	0.859800	0.226000	0.228400
N301	N30	0.857820	0.274200	0.110200
C1421	C142	0.099600	0.611100	0.459900
H1051	H105	0.088800	0.624100	0.391100
C1431	C143	0.075900	0.582000	0.522700
H1061	H106	0.049200	0.575500	0.495900
C1441	C144	0.092000	0.562700	0.625600
C1451	C145	0.131800	0.572400	0.665700
H1071	H107	0.142600	0.559500	0.734600
C1461	C146	0.155500	0.601500	0.603000
H1081	H108	0.182200	0.608100	0.629800
C1471	C147	0.139400	0.620900	0.500000
O241	O24	0.958700	0.295900	0.071400
C1481	C148	0.950000	0.314200	0.971000
C1491	C149	0.974100	0.347200	0.918000
C1501	C150	0.964100	0.363300	0.804300
H1091	H109	0.943000	0.351300	0.758400
C1511	C151	0.985600	0.397500	0.759000
H1101	H110	0.978900	0.408300	0.683000
C1521	C152	0.017200	0.415500	0.827600
C1531	C153	0.027200	0.399400	0.941300
H1111	H111	0.048300	0.411500	0.987200
C1541	C154	0.005700	0.365300	0.986500
H1121	H112	0.012400	0.354500	0.062600
C1551	C155	0.068400	0.529200	0.685800
C1561	C156	0.041300	0.451000	0.786000
C1571	C157	0.049600	0.461800	0.666000
C1581	C158	0.062500	0.528800	0.813000
C1591	C159	0.060700	0.497600	0.600000
H1131	H113	0.062600	0.500000	0.515600
C1601	C160	0.042800	0.490900	0.843000
H1141	H114	0.027800	0.492200	0.915600
C1611	C161	0.073600	0.563800	0.901000
H1151	H115	0.103400	0.564200	0.907500
H1161	H116	0.061800	0.556600	0.978600
H1171	H117	0.063800	0.590800	0.877100
C1621	C162	0.053100	0.426200	0.598000
H1181	H118	0.036300	0.431800	0.527400
H1191	H119	0.081200	0.420900	0.572800
H1201	H120	0.042400	0.402300	0.639700
Zn71	Zn7	0.783840	0.283910	0.607550
N311	N31	0.775380	0.144140	0.880100
O251	O25	0.918500	0.200050	0.088100
N321	N32	0.756320	0.189330	0.721400
N331	N33	0.843880	0.156300	0.017600
H1211	H121	0.827500	0.135300	0.023200
H1221	H122	0.865000	0.158300	0.065100
O261	O26	0.156820	0.842800	0.679100
C1631	C163	0.745200	0.152100	0.782600
H1231	H123	0.722500	0.135400	0.763900
O271	O27	0.181200	0.818400	0.504500
C1641	C164	0.158800	0.844400	0.567500
C1651	C165	0.835290	0.190570	0.922100
C1661	C166	0.799620	0.179970	0.857600
C1671	C167	0.786480	0.204590	0.760900
N341	N34	0.809010	0.239820	0.728700
C1681	C168	0.844680	0.250430	0.793200
H1241	H124	0.859800	0.274000	0.771600
N351	N35	0.857820	0.225800	0.889800
C1691	C169	0.099600	0.888900	0.540100
H1251	H125	0.088800	0.875900	0.608900
C1701	C170	0.075900	0.918000	0.477300
H1261	H126	0.049200	0.924500	0.504100
C1711	C171	0.092000	0.937300	0.374400
C1721	C172	0.131800	0.927600	0.334300
H1271	H127	0.142600	0.940500	0.265400
C1731	C173	0.155500	0.898500	0.397000
H1281	H128	0.182200	0.891900	0.370200
C1741	C174	0.139400	0.879100	0.500000
O281	O28	0.958700	0.204100	0.928600
C1751	C175	0.950000	0.185800	0.029000
C1761	C176	0.974100	0.152800	0.082000
C1771	C177	0.964100	0.136700	0.195700
H1291	H129	0.943000	0.148700	0.241600
C1781	C178	0.985600	0.102500	0.241000
H1301	H130	0.978900	0.091700	0.317000
C1791	C179	0.017200	0.084500	0.172400
C1801	C180	0.027200	0.100600	0.058700
H1311	H131	0.048300	0.088500	0.012800
C1811	C181	0.005700	0.134700	0.013500
H1321	H132	0.012400	0.145500	0.937400
C1821	C182	0.068400	0.970800	0.314200
C1831	C183	0.041300	0.049000	0.214000
C1841	C184	0.049600	0.038200	0.334000
C1851	C185	0.062500	0.971200	0.187000
C1861	C186	0.060700	0.002400	0.400000
H1331	H133	0.062600	0.000000	0.484400
C1871	C187	0.042800	0.009100	0.157000
H1341	H134	0.027800	0.007800	0.084400
C1881	C188	0.073600	0.936200	0.099000
H1351	H135	0.103400	0.935800	0.092500
H1361	H136	0.061800	0.943400	0.021400
H1371	H137	0.063800	0.909200	0.122900
C1891	C189	0.053100	0.073800	0.402000
H1381	H138	0.036300	0.068200	0.472600
H1391	H139	0.081200	0.079100	0.427200
H1401	H140	0.042400	0.097700	0.360300
Zn81	Zn8	0.716160	0.216090	0.607550
N361	N36	0.724620	0.355860	0.880100
O291	O29	0.581500	0.299950	0.088100
N371	N37	0.743680	0.310670	0.721400
N381	N38	0.656120	0.343700	0.017600
H1411	H141	0.672500	0.364700	0.023200
H1421	H142	0.635000	0.341700	0.065100
O301	O30	0.343180	0.657200	0.679100
C1901	C190	0.754800	0.347900	0.782600
H1431	H143	0.777500	0.364600	0.763900
O311	O31	0.318800	0.681600	0.504500
C1911	C191	0.341200	0.655600	0.567500
C1921	C192	0.664710	0.309430	0.922100
C1931	C193	0.700380	0.320030	0.857600
C1941	C194	0.713520	0.295410	0.760900
N391	N39	0.690990	0.260180	0.728700
C1951	C195	0.655320	0.249570	0.793200
H1441	H144	0.640200	0.226000	0.771600
N401	N40	0.642180	0.274200	0.889800
C1961	C196	0.400400	0.611100	0.540100
H1451	H145	0.411200	0.624100	0.608900
C1971	C197	0.424100	0.582000	0.477300
H1461	H146	0.450800	0.575500	0.504100
C1981	C198	0.408000	0.562700	0.374400
C1991	C199	0.368200	0.572400	0.334300
H1471	H147	0.357400	0.559500	0.265400
C2001	C200	0.344500	0.601500	0.397000
H1481	H148	0.317800	0.608100	0.370200
C2011	C201	0.360600	0.620900	0.500000
O321	O32	0.541300	0.295900	0.928600
C2021	C202	0.550000	0.314200	0.029000
C2031	C203	0.525900	0.347200	0.082000
C2041	C204	0.535900	0.363300	0.195700
H1491	H149	0.557000	0.351300	0.241600
C2051	C205	0.514400	0.397500	0.241000
H1501	H150	0.521100	0.408300	0.317000
C2061	C206	0.482800	0.415500	0.172400
C2071	C207	0.472800	0.399400	0.058700
H1511	H151	0.451700	0.411500	0.012800
C2081	C208	0.494300	0.365300	0.013500
H1521	H152	0.487600	0.354500	0.937400
C2091	C209	0.431600	0.529200	0.314200
C2101	C210	0.458700	0.451000	0.214000
C2111	C211	0.450400	0.461800	0.334000
C2121	C212	0.437500	0.528800	0.187000
C2131	C213	0.439300	0.497600	0.400000
H1531	H153	0.437400	0.500000	0.484400
C2141	C214	0.457200	0.490900	0.157000
H1541	H154	0.472200	0.492200	0.084400
C2151	C215	0.426400	0.563800	0.099000
H1551	H155	0.396600	0.564200	0.092500
H1561	H156	0.438200	0.556600	0.021400
H1571	H157	0.436200	0.590800	0.122900
C2161	C216	0.446900	0.426200	0.402000
H1581	H158	0.463700	0.431800	0.472600
H1591	H159	0.418800	0.420900	0.427200
H1601	H160	0.457600	0.402300	0.360300
Zn91	Zn9	0.250000	0.899310	0.000000
Zn101	Zn10	0.250000	0.600690	0.000000
Zn111	Zn11	0.750000	0.100690	0.000000
Zn121	Zn12	0.750000	0.399310	0.000000
Zn131	Zn13	0.399300	0.750000	0.000000
Zn141	Zn14	0.100700	0.750000	0.000000
Zn151	Zn15	0.600700	0.250000	0.000000
Zn161	Zn16	0.899300	0.250000	0.000000
O331	O33	0.250000	0.750000	0.500000
O341	O34	0.750000	0.250000	0.500000
