data_IVIXIW_clean_PM
_symmetry_space_group_name_H-M	'P1'
_cell_length_a	3.808300
_cell_length_b	12.476000
_cell_length_c	13.090000
_cell_angle_alpha	76.757000
_cell_angle_beta	84.649000
_cell_angle_gamma	86.809000
_symmetry_Int_Tables_number 1

loop_
_symmetry_equiv_pos_as_xyz
'x,y,z'

loop_
_atom_site_label
_atom_site_type_symbol
_atom_site_fract_x
_atom_site_fract_y
_atom_site_fract_z
Ag11	Ag1	0.161610	0.918780	0.595410
O11	O1	0.397900	0.951200	0.413300
O21	O2	0.334800	0.771800	0.470700
N11	N1	0.926700	0.007600	0.042500
N21	N2	0.885000	0.787500	0.717800
C11	C1	0.637100	0.835100	0.301800
C21	C2	0.697900	0.924300	0.216700
H11	H1	0.615500	0.994500	0.222300
C31	C3	0.880100	0.909400	0.123900
C41	C4	0.009500	0.804600	0.115600
H21	H2	0.136300	0.794400	0.054100
C51	C5	0.947900	0.717100	0.198700
H31	H3	0.031500	0.647000	0.192900
C61	C6	0.761500	0.730900	0.292200
H41	H4	0.720800	0.670400	0.347900
C71	C7	0.443200	0.851900	0.402500
C81	C8	0.855300	0.786600	0.821400
H51	H5	0.924800	0.848200	0.842000
C91	C9	0.728700	0.700300	0.897900
H61	H6	0.711800	0.704500	0.968300
C101	C10	0.625100	0.605900	0.870300
C111	C11	0.648700	0.607500	0.763400
H71	H7	0.576200	0.547700	0.740500
C121	C12	0.780900	0.698600	0.691000
H81	H8	0.797400	0.697300	0.620000
C131	C13	0.496600	0.508700	0.948400
H91	H9	0.401200	0.454200	0.922600
Ag21	Ag2	0.838390	0.081220	0.404590
O31	O3	0.602100	0.048800	0.586700
O41	O4	0.665200	0.228200	0.529300
N31	N3	0.073300	0.992400	0.957500
N41	N4	0.115000	0.212500	0.282200
C141	C14	0.362900	0.164900	0.698200
C151	C15	0.302100	0.075700	0.783300
H101	H10	0.384500	0.005500	0.777700
C161	C16	0.119900	0.090600	0.876100
C171	C17	0.990500	0.195400	0.884400
H111	H11	0.863700	0.205600	0.945900
C181	C18	0.052100	0.282900	0.801300
H121	H12	0.968500	0.353000	0.807100
C191	C19	0.238500	0.269100	0.707800
H131	H13	0.279200	0.329600	0.652100
C201	C20	0.556800	0.148100	0.597500
C211	C21	0.144700	0.213400	0.178600
H141	H14	0.075200	0.151800	0.158000
C221	C22	0.271300	0.299700	0.102100
H151	H15	0.288200	0.295500	0.031700
C231	C23	0.374900	0.394100	0.129700
C241	C24	0.351300	0.392500	0.236600
H161	H16	0.423800	0.452300	0.259500
C251	C25	0.219100	0.301400	0.309000
H171	H17	0.202600	0.302700	0.380000
C261	C26	0.503400	0.491300	0.051600
H181	H18	0.598800	0.545800	0.077400
