data_IWAYUA_clean_PM
_symmetry_space_group_name_H-M	'P1'
_cell_length_a	28.778000
_cell_length_b	28.778000
_cell_length_c	28.778000
_cell_angle_alpha	90.000000
_cell_angle_beta	90.000000
_cell_angle_gamma	90.000000
_symmetry_Int_Tables_number 1

loop_
_symmetry_equiv_pos_as_xyz
'x,y,z'

loop_
_atom_site_label
_atom_site_type_symbol
_atom_site_fract_x
_atom_site_fract_y
_atom_site_fract_z
O11	O1	0.300260	0.507410	0.123430
C11	C1	0.296650	0.462500	0.127480
O21	O2	0.256480	0.443250	0.125590
O31	O3	0.333910	0.439270	0.131850
O41	O4	0.300260	0.007410	0.623430
C21	C2	0.296650	0.962500	0.627480
O51	O5	0.256480	0.943250	0.625590
O61	O6	0.333910	0.939270	0.631850
O71	O7	0.800260	0.507410	0.623430
C31	C3	0.796650	0.462500	0.627480
O81	O8	0.756480	0.443250	0.625590
O91	O9	0.833910	0.439270	0.631850
O101	O10	0.800260	0.007410	0.123430
C41	C4	0.796650	0.962500	0.127480
O111	O11	0.756480	0.943250	0.125590
O121	O12	0.833910	0.939270	0.131850
O131	O13	0.949740	0.242590	0.623430
C51	C5	0.953350	0.287500	0.627480
O141	O14	0.993520	0.306750	0.625590
O151	O15	0.916090	0.310730	0.631850
O161	O16	0.949740	0.742590	0.123430
C61	C6	0.953350	0.787500	0.127480
O171	O17	0.993520	0.806750	0.125590
O181	O18	0.916090	0.810730	0.131850
O191	O19	0.449740	0.242590	0.123430
C71	C7	0.453350	0.287500	0.127480
O201	O20	0.493520	0.306750	0.125590
O211	O21	0.416090	0.310730	0.131850
O221	O22	0.449740	0.742590	0.623430
C81	C8	0.453350	0.787500	0.627480
O231	O23	0.493520	0.806750	0.625590
O241	O24	0.416090	0.810730	0.631850
O251	O25	0.449740	0.007410	0.126570
C91	C9	0.453350	0.962500	0.122520
O261	O26	0.493520	0.943250	0.124410
O271	O27	0.416090	0.939270	0.118150
O281	O28	0.449740	0.507410	0.626570
C101	C10	0.453350	0.462500	0.622520
O291	O29	0.493520	0.443250	0.624410
O301	O30	0.416090	0.439270	0.618150
O311	O31	0.949740	0.007410	0.626570
C111	C11	0.953350	0.962500	0.622520
O321	O32	0.993520	0.943250	0.624410
O331	O33	0.916090	0.939270	0.618150
O341	O34	0.949740	0.507410	0.126570
C121	C12	0.953350	0.462500	0.122520
O351	O35	0.993520	0.443250	0.124410
O361	O36	0.916090	0.439270	0.118150
O371	O37	0.800260	0.742590	0.626570
C131	C13	0.796650	0.787500	0.622520
O381	O38	0.756480	0.806750	0.624410
O391	O39	0.833910	0.810730	0.618150
O401	O40	0.800260	0.242590	0.126570
C141	C14	0.796650	0.287500	0.122520
O411	O41	0.756480	0.306750	0.124410
O421	O42	0.833910	0.310730	0.118150
O431	O43	0.300260	0.742590	0.126570
C151	C15	0.296650	0.787500	0.122520
O441	O44	0.256480	0.806750	0.124410
O451	O45	0.333910	0.810730	0.118150
O461	O46	0.300260	0.242590	0.626570
C161	C16	0.296650	0.287500	0.622520
O471	O47	0.256480	0.306750	0.624410
O481	O48	0.333910	0.310730	0.618150
O491	O49	0.123430	0.300260	0.507410
C171	C17	0.127480	0.296650	0.462500
O501	O50	0.125590	0.256480	0.443250
O511	O51	0.131850	0.333910	0.439270
O521	O52	0.123430	0.800260	0.007410
C181	C18	0.127480	0.796650	0.962500
O531	O53	0.125590	0.756480	0.943250
O541	O54	0.131850	0.833910	0.939270
O551	O55	0.623430	0.300260	0.007410
C191	C19	0.627480	0.296650	0.962500
O561	O56	0.625590	0.256480	0.943250
O571	O57	0.631850	0.333910	0.939270
O581	O58	0.623430	0.800260	0.507410
C201	C20	0.627480	0.796650	0.462500
O591	O59	0.625590	0.756480	0.443250
O601	O60	0.631850	0.833910	0.439270
O611	O61	0.623430	0.949740	0.242590
C211	C21	0.627480	0.953350	0.287500
O621	O62	0.625590	0.993520	0.306750
O631	O63	0.631850	0.916090	0.310730
O641	O64	0.623430	0.449740	0.742590
C221	C22	0.627480	0.453350	0.787500
O651	O65	0.625590	0.493520	0.806750
O661	O66	0.631850	0.416090	0.810730
O671	O67	0.123430	0.949740	0.742590
C231	C23	0.127480	0.953350	0.787500
O681	O68	0.125590	0.993520	0.806750
O691	O69	0.131850	0.916090	0.810730
O701	O70	0.123430	0.449740	0.242590
C241	C24	0.127480	0.453350	0.287500
O711	O71	0.125590	0.493520	0.306750
O721	O72	0.131850	0.416090	0.310730
O731	O73	0.126570	0.449740	0.007410
C251	C25	0.122520	0.453350	0.962500
O741	O74	0.124410	0.493520	0.943250
O751	O75	0.118150	0.416090	0.939270
O761	O76	0.126570	0.949740	0.507410
C261	C26	0.122520	0.953350	0.462500
O771	O77	0.124410	0.993520	0.443250
O781	O78	0.118150	0.916090	0.439270
O791	O79	0.626570	0.449740	0.507410
C271	C27	0.622520	0.453350	0.462500
O801	O80	0.624410	0.493520	0.443250
O811	O81	0.618150	0.416090	0.439270
O821	O82	0.626570	0.949740	0.007410
C281	C28	0.622520	0.953350	0.962500
O831	O83	0.624410	0.993520	0.943250
O841	O84	0.618150	0.916090	0.939270
O851	O85	0.626570	0.800260	0.742590
C291	C29	0.622520	0.796650	0.787500
O861	O86	0.624410	0.756480	0.806750
O871	O87	0.618150	0.833910	0.810730
O881	O88	0.626570	0.300260	0.242590
C301	C30	0.622520	0.296650	0.287500
O891	O89	0.624410	0.256480	0.306750
O901	O90	0.618150	0.333910	0.310730
O911	O91	0.126570	0.800260	0.242590
C311	C31	0.122520	0.796650	0.287500
O921	O92	0.124410	0.756480	0.306750
O931	O93	0.118150	0.833910	0.310730
O941	O94	0.126570	0.300260	0.742590
C321	C32	0.122520	0.296650	0.787500
O951	O95	0.124410	0.256480	0.806750
O961	O96	0.118150	0.333910	0.810730
O971	O97	0.507410	0.123430	0.300260
C331	C33	0.462500	0.127480	0.296650
O981	O98	0.443250	0.125590	0.256480
O991	O99	0.439270	0.131850	0.333910
O1001	O100	0.507410	0.623430	0.800260
C341	C34	0.462500	0.627480	0.796650
O1011	O101	0.443250	0.625590	0.756480
O1021	O102	0.439270	0.631850	0.833910
O1031	O103	0.007410	0.123430	0.800260
C351	C35	0.962500	0.127480	0.796650
O1041	O104	0.943250	0.125590	0.756480
O1051	O105	0.939270	0.131850	0.833910
O1061	O106	0.007410	0.623430	0.300260
C361	C36	0.962500	0.627480	0.296650
O1071	O107	0.943250	0.625590	0.256480
O1081	O108	0.939270	0.631850	0.333910
O1091	O109	0.242590	0.623430	0.949740
C371	C37	0.287500	0.627480	0.953350
O1101	O110	0.306750	0.625590	0.993520
O1111	O111	0.310730	0.631850	0.916090
O1121	O112	0.242590	0.123430	0.449740
C381	C38	0.287500	0.127480	0.453350
O1131	O113	0.306750	0.125590	0.493520
O1141	O114	0.310730	0.131850	0.416090
O1151	O115	0.742590	0.623430	0.449740
C391	C39	0.787500	0.627480	0.453350
O1161	O116	0.806750	0.625590	0.493520
O1171	O117	0.810730	0.631850	0.416090
O1181	O118	0.742590	0.123430	0.949740
C401	C40	0.787500	0.127480	0.953350
O1191	O119	0.806750	0.125590	0.993520
O1201	O120	0.810730	0.131850	0.916090
O1211	O121	0.007410	0.126570	0.449740
C411	C41	0.962500	0.122520	0.453350
O1221	O122	0.943250	0.124410	0.493520
O1231	O123	0.939270	0.118150	0.416090
O1241	O124	0.007410	0.626570	0.949740
C421	C42	0.962500	0.622520	0.953350
O1251	O125	0.943250	0.624410	0.993520
O1261	O126	0.939270	0.618150	0.916090
O1271	O127	0.507410	0.126570	0.949740
C431	C43	0.462500	0.122520	0.953350
O1281	O128	0.443250	0.124410	0.993520
O1291	O129	0.439270	0.118150	0.916090
O1301	O130	0.507410	0.626570	0.449740
C441	C44	0.462500	0.622520	0.453350
O1311	O131	0.443250	0.624410	0.493520
O1321	O132	0.439270	0.618150	0.416090
O1331	O133	0.742590	0.626570	0.800260
C451	C45	0.787500	0.622520	0.796650
O1341	O134	0.806750	0.624410	0.756480
O1351	O135	0.810730	0.618150	0.833910
O1361	O136	0.742590	0.126570	0.300260
C461	C46	0.787500	0.122520	0.296650
O1371	O137	0.806750	0.124410	0.256480
O1381	O138	0.810730	0.118150	0.333910
O1391	O139	0.242590	0.626570	0.300260
C471	C47	0.287500	0.622520	0.296650
O1401	O140	0.306750	0.624410	0.256480
O1411	O141	0.310730	0.618150	0.333910
O1421	O142	0.242590	0.126570	0.800260
C481	C48	0.287500	0.122520	0.796650
O1431	O143	0.306750	0.124410	0.756480
O1441	O144	0.310730	0.118150	0.833910
O1451	O145	0.257410	0.550260	0.876570
C491	C49	0.212500	0.546650	0.872520
O1461	O146	0.193250	0.506480	0.874410
O1471	O147	0.189270	0.583910	0.868150
O1481	O148	0.257410	0.050260	0.376570
C501	C50	0.212500	0.046650	0.372520
O1491	O149	0.193250	0.006480	0.374410
O1501	O150	0.189270	0.083910	0.368150
O1511	O151	0.757410	0.550260	0.376570
C511	C51	0.712500	0.546650	0.372520
O1521	O152	0.693250	0.506480	0.374410
O1531	O153	0.689270	0.583910	0.368150
O1541	O154	0.757410	0.050260	0.876570
C521	C52	0.712500	0.046650	0.872520
O1551	O155	0.693250	0.006480	0.874410
O1561	O156	0.689270	0.083910	0.868150
O1571	O157	0.992590	0.199740	0.376570
C531	C53	0.037500	0.203350	0.372520
O1581	O158	0.056750	0.243520	0.374410
O1591	O159	0.060730	0.166090	0.368150
O1601	O160	0.992590	0.699740	0.876570
C541	C54	0.037500	0.703350	0.872520
O1611	O161	0.056750	0.743520	0.874410
O1621	O162	0.060730	0.666090	0.868150
O1631	O163	0.492590	0.199740	0.876570
C551	C55	0.537500	0.203350	0.872520
O1641	O164	0.556750	0.243520	0.874410
O1651	O165	0.560730	0.166090	0.868150
O1661	O166	0.492590	0.699740	0.376570
C561	C56	0.537500	0.703350	0.372520
O1671	O167	0.556750	0.743520	0.374410
O1681	O168	0.560730	0.666090	0.368150
O1691	O169	0.757410	0.699740	0.873430
C571	C57	0.712500	0.703350	0.877480
O1701	O170	0.693250	0.743520	0.875590
O1711	O171	0.689270	0.666090	0.881850
O1721	O172	0.757410	0.199740	0.373430
C581	C58	0.712500	0.203350	0.377480
O1731	O173	0.693250	0.243520	0.375590
O1741	O174	0.689270	0.166090	0.381850
O1751	O175	0.257410	0.699740	0.373430
C591	C59	0.212500	0.703350	0.377480
O1761	O176	0.193250	0.743520	0.375590
O1771	O177	0.189270	0.666090	0.381850
O1781	O178	0.257410	0.199740	0.873430
C601	C60	0.212500	0.203350	0.877480
O1791	O179	0.193250	0.243520	0.875590
O1801	O180	0.189270	0.166090	0.881850
O1811	O181	0.492590	0.050260	0.373430
C611	C61	0.537500	0.046650	0.377480
O1821	O182	0.556750	0.006480	0.375590
O1831	O183	0.560730	0.083910	0.381850
O1841	O184	0.492590	0.550260	0.873430
C621	C62	0.537500	0.546650	0.877480
O1851	O185	0.556750	0.506480	0.875590
O1861	O186	0.560730	0.583910	0.881850
O1871	O187	0.992590	0.050260	0.873430
C631	C63	0.037500	0.046650	0.877480
O1881	O188	0.056750	0.006480	0.875590
O1891	O189	0.060730	0.083910	0.881850
O1901	O190	0.992590	0.550260	0.373430
C641	C64	0.037500	0.546650	0.377480
O1911	O191	0.056750	0.506480	0.375590
O1921	O192	0.060730	0.583910	0.381850
O1931	O193	0.050260	0.373430	0.492590
C651	C65	0.046650	0.377480	0.537500
O1941	O194	0.006480	0.375590	0.556750
O1951	O195	0.083910	0.381850	0.560730
O1961	O196	0.050260	0.873430	0.992590
C661	C66	0.046650	0.877480	0.037500
O1971	O197	0.006480	0.875590	0.056750
O1981	O198	0.083910	0.881850	0.060730
O1991	O199	0.550260	0.373430	0.992590
C671	C67	0.546650	0.377480	0.037500
O2001	O200	0.506480	0.375590	0.056750
O2011	O201	0.583910	0.381850	0.060730
O2021	O202	0.550260	0.873430	0.492590
C681	C68	0.546650	0.877480	0.537500
O2031	O203	0.506480	0.875590	0.556750
O2041	O204	0.583910	0.881850	0.560730
O2051	O205	0.699740	0.873430	0.757410
C691	C69	0.703350	0.877480	0.712500
O2061	O206	0.743520	0.875590	0.693250
O2071	O207	0.666090	0.881850	0.689270
O2081	O208	0.699740	0.373430	0.257410
C701	C70	0.703350	0.377480	0.212500
O2091	O209	0.743520	0.375590	0.193250
O2101	O210	0.666090	0.381850	0.189270
O2111	O211	0.199740	0.873430	0.257410
C711	C71	0.203350	0.877480	0.212500
O2121	O212	0.243520	0.875590	0.193250
O2131	O213	0.166090	0.881850	0.189270
O2141	O214	0.199740	0.373430	0.757410
C721	C72	0.203350	0.377480	0.712500
O2151	O215	0.243520	0.375590	0.693250
O2161	O216	0.166090	0.381850	0.689270
O2171	O217	0.199740	0.376570	0.992590
C731	C73	0.203350	0.372520	0.037500
O2181	O218	0.243520	0.374410	0.056750
O2191	O219	0.166090	0.368150	0.060730
O2201	O220	0.199740	0.876570	0.492590
C741	C74	0.203350	0.872520	0.537500
O2211	O221	0.243520	0.874410	0.556750
O2221	O222	0.166090	0.868150	0.560730
O2231	O223	0.699740	0.376570	0.492590
C751	C75	0.703350	0.372520	0.537500
O2241	O224	0.743520	0.374410	0.556750
O2251	O225	0.666090	0.368150	0.560730
O2261	O226	0.699740	0.876570	0.992590
C761	C76	0.703350	0.872520	0.037500
O2271	O227	0.743520	0.874410	0.056750
O2281	O228	0.666090	0.868150	0.060730
O2291	O229	0.550260	0.876570	0.257410
C771	C77	0.546650	0.872520	0.212500
O2301	O230	0.506480	0.874410	0.193250
O2311	O231	0.583910	0.868150	0.189270
O2321	O232	0.550260	0.376570	0.757410
C781	C78	0.546650	0.372520	0.712500
O2331	O233	0.506480	0.374410	0.693250
O2341	O234	0.583910	0.368150	0.689270
O2351	O235	0.050260	0.876570	0.757410
C791	C79	0.046650	0.872520	0.712500
O2361	O236	0.006480	0.874410	0.693250
O2371	O237	0.083910	0.868150	0.689270
O2381	O238	0.050260	0.376570	0.257410
C801	C80	0.046650	0.372520	0.212500
O2391	O239	0.006480	0.374410	0.193250
O2401	O240	0.083910	0.368150	0.189270
O2411	O241	0.873430	0.757410	0.699740
C811	C81	0.877480	0.712500	0.703350
O2421	O242	0.875590	0.693250	0.743520
O2431	O243	0.881850	0.689270	0.666090
O2441	O244	0.873430	0.257410	0.199740
C821	C82	0.877480	0.212500	0.203350
O2451	O245	0.875590	0.193250	0.243520
O2461	O246	0.881850	0.189270	0.166090
O2471	O247	0.373430	0.757410	0.199740
C831	C83	0.377480	0.712500	0.203350
O2481	O248	0.375590	0.693250	0.243520
O2491	O249	0.381850	0.689270	0.166090
O2501	O250	0.373430	0.257410	0.699740
C841	C84	0.377480	0.212500	0.703350
O2511	O251	0.375590	0.193250	0.743520
O2521	O252	0.381850	0.189270	0.666090
O2531	O253	0.373430	0.492590	0.050260
C851	C85	0.377480	0.537500	0.046650
O2541	O254	0.375590	0.556750	0.006480
O2551	O255	0.381850	0.560730	0.083910
O2561	O256	0.373430	0.992590	0.550260
C861	C86	0.377480	0.037500	0.546650
O2571	O257	0.375590	0.056750	0.506480
O2581	O258	0.381850	0.060730	0.583910
O2591	O259	0.873430	0.492590	0.550260
C871	C87	0.877480	0.537500	0.546650
O2601	O260	0.875590	0.556750	0.506480
O2611	O261	0.881850	0.560730	0.583910
O2621	O262	0.873430	0.992590	0.050260
C881	C88	0.877480	0.037500	0.046650
O2631	O263	0.875590	0.056750	0.006480
O2641	O264	0.881850	0.060730	0.083910
O2651	O265	0.876570	0.257410	0.550260
C891	C89	0.872520	0.212500	0.546650
O2661	O266	0.874410	0.193250	0.506480
O2671	O267	0.868150	0.189270	0.583910
O2681	O268	0.876570	0.757410	0.050260
C901	C90	0.872520	0.712500	0.046650
O2691	O269	0.874410	0.693250	0.006480
O2701	O270	0.868150	0.689270	0.083910
O2711	O271	0.376570	0.257410	0.050260
C911	C91	0.372520	0.212500	0.046650
O2721	O272	0.374410	0.193250	0.006480
O2731	O273	0.368150	0.189270	0.083910
O2741	O274	0.376570	0.757410	0.550260
C921	C92	0.372520	0.712500	0.546650
O2751	O275	0.374410	0.693250	0.506480
O2761	O276	0.368150	0.689270	0.583910
O2771	O277	0.376570	0.992590	0.199740
C931	C93	0.372520	0.037500	0.203350
O2781	O278	0.374410	0.056750	0.243520
O2791	O279	0.368150	0.060730	0.166090
O2801	O280	0.376570	0.492590	0.699740
C941	C94	0.372520	0.537500	0.703350
O2811	O281	0.374410	0.556750	0.743520
O2821	O282	0.368150	0.560730	0.666090
O2831	O283	0.876570	0.992590	0.699740
C951	C95	0.872520	0.037500	0.703350
O2841	O284	0.874410	0.056750	0.743520
O2851	O285	0.868150	0.060730	0.666090
O2861	O286	0.876570	0.492590	0.199740
C961	C96	0.872520	0.537500	0.203350
O2871	O287	0.874410	0.556750	0.243520
O2881	O288	0.868150	0.560730	0.166090
O2891	O289	0.699740	0.492590	0.876570
C971	C97	0.703350	0.537500	0.872520
O2901	O290	0.743520	0.556750	0.874410
O2911	O291	0.666090	0.560730	0.868150
O2921	O292	0.699740	0.992590	0.376570
C981	C98	0.703350	0.037500	0.372520
O2931	O293	0.743520	0.056750	0.374410
O2941	O294	0.666090	0.060730	0.368150
O2951	O295	0.199740	0.492590	0.376570
C991	C99	0.203350	0.537500	0.372520
O2961	O296	0.243520	0.556750	0.374410
O2971	O297	0.166090	0.560730	0.368150
O2981	O298	0.199740	0.992590	0.876570
C1001	C100	0.203350	0.037500	0.872520
O2991	O299	0.243520	0.056750	0.874410
O3001	O300	0.166090	0.060730	0.868150
O3011	O301	0.050260	0.757410	0.376570
C1011	C101	0.046650	0.712500	0.372520
O3021	O302	0.006480	0.693250	0.374410
O3031	O303	0.083910	0.689270	0.368150
O3041	O304	0.050260	0.257410	0.876570
C1021	C102	0.046650	0.212500	0.872520
O3051	O305	0.006480	0.193250	0.874410
O3061	O306	0.083910	0.189270	0.868150
O3071	O307	0.550260	0.757410	0.876570
C1031	C103	0.546650	0.712500	0.872520
O3081	O308	0.506480	0.693250	0.874410
O3091	O309	0.583910	0.689270	0.868150
O3101	O310	0.550260	0.257410	0.376570
C1041	C104	0.546650	0.212500	0.372520
O3111	O311	0.506480	0.193250	0.374410
O3121	O312	0.583910	0.189270	0.368150
O3131	O313	0.550260	0.992590	0.873430
C1051	C105	0.546650	0.037500	0.877480
O3141	O314	0.506480	0.056750	0.875590
O3151	O315	0.583910	0.060730	0.881850
O3161	O316	0.550260	0.492590	0.373430
C1061	C106	0.546650	0.537500	0.377480
O3171	O317	0.506480	0.556750	0.375590
O3181	O318	0.583910	0.560730	0.381850
O3191	O319	0.050260	0.992590	0.373430
C1071	C107	0.046650	0.037500	0.377480
O3201	O320	0.006480	0.056750	0.375590
O3211	O321	0.083910	0.060730	0.381850
O3221	O322	0.050260	0.492590	0.873430
C1081	C108	0.046650	0.537500	0.877480
O3231	O323	0.006480	0.556750	0.875590
O3241	O324	0.083910	0.560730	0.881850
O3251	O325	0.199740	0.257410	0.373430
C1091	C109	0.203350	0.212500	0.377480
O3261	O326	0.243520	0.193250	0.375590
O3271	O327	0.166090	0.189270	0.381850
O3281	O328	0.199740	0.757410	0.873430
C1101	C110	0.203350	0.712500	0.877480
O3291	O329	0.243520	0.693250	0.875590
O3301	O330	0.166090	0.689270	0.881850
O3311	O331	0.699740	0.257410	0.873430
C1111	C111	0.703350	0.212500	0.877480
O3321	O332	0.743520	0.193250	0.875590
O3331	O333	0.666090	0.189270	0.881850
O3341	O334	0.699740	0.757410	0.373430
C1121	C112	0.703350	0.712500	0.377480
O3351	O335	0.743520	0.693250	0.375590
O3361	O336	0.666090	0.689270	0.381850
O3371	O337	0.876570	0.699740	0.492590
C1131	C113	0.872520	0.703350	0.537500
O3381	O338	0.874410	0.743520	0.556750
O3391	O339	0.868150	0.666090	0.560730
O3401	O340	0.876570	0.199740	0.992590
C1141	C114	0.872520	0.203350	0.037500
O3411	O341	0.874410	0.243520	0.056750
O3421	O342	0.868150	0.166090	0.060730
O3431	O343	0.376570	0.699740	0.992590
C1151	C115	0.372520	0.703350	0.037500
O3441	O344	0.374410	0.743520	0.056750
O3451	O345	0.368150	0.666090	0.060730
O3461	O346	0.376570	0.199740	0.492590
C1161	C116	0.372520	0.203350	0.537500
O3471	O347	0.374410	0.243520	0.556750
O3481	O348	0.368150	0.166090	0.560730
O3491	O349	0.376570	0.050260	0.757410
C1171	C117	0.372520	0.046650	0.712500
O3501	O350	0.374410	0.006480	0.693250
O3511	O351	0.368150	0.083910	0.689270
O3521	O352	0.376570	0.550260	0.257410
C1181	C118	0.372520	0.546650	0.212500
O3531	O353	0.374410	0.506480	0.193250
O3541	O354	0.368150	0.583910	0.189270
O3551	O355	0.876570	0.050260	0.257410
C1191	C119	0.872520	0.046650	0.212500
O3561	O356	0.874410	0.006480	0.193250
O3571	O357	0.868150	0.083910	0.189270
O3581	O358	0.876570	0.550260	0.757410
C1201	C120	0.872520	0.546650	0.712500
O3591	O359	0.874410	0.506480	0.693250
O3601	O360	0.868150	0.583910	0.689270
O3611	O361	0.873430	0.550260	0.992590
C1211	C121	0.877480	0.546650	0.037500
O3621	O362	0.875590	0.506480	0.056750
O3631	O363	0.881850	0.583910	0.060730
O3641	O364	0.873430	0.050260	0.492590
C1221	C122	0.877480	0.046650	0.537500
O3651	O365	0.875590	0.006480	0.556750
O3661	O366	0.881850	0.083910	0.560730
O3671	O367	0.373430	0.550260	0.492590
C1231	C123	0.377480	0.546650	0.537500
O3681	O368	0.375590	0.506480	0.556750
O3691	O369	0.381850	0.583910	0.560730
O3701	O370	0.373430	0.050260	0.992590
C1241	C124	0.377480	0.046650	0.037500
O3711	O371	0.375590	0.006480	0.056750
O3721	O372	0.381850	0.083910	0.060730
O3731	O373	0.373430	0.199740	0.257410
C1251	C125	0.377480	0.203350	0.212500
O3741	O374	0.375590	0.243520	0.193250
O3751	O375	0.381850	0.166090	0.189270
O3761	O376	0.373430	0.699740	0.757410
C1261	C126	0.377480	0.703350	0.712500
O3771	O377	0.375590	0.743520	0.693250
O3781	O378	0.381850	0.666090	0.689270
O3791	O379	0.873430	0.199740	0.757410
C1271	C127	0.877480	0.203350	0.712500
O3801	O380	0.875590	0.243520	0.693250
O3811	O381	0.881850	0.166090	0.689270
O3821	O382	0.873430	0.699740	0.257410
C1281	C128	0.877480	0.703350	0.212500
O3831	O383	0.875590	0.743520	0.193250
O3841	O384	0.881850	0.666090	0.189270
O3851	O385	0.492590	0.876570	0.699740
C1291	C129	0.537500	0.872520	0.703350
O3861	O386	0.556750	0.874410	0.743520
O3871	O387	0.560730	0.868150	0.666090
O3881	O388	0.492590	0.376570	0.199740
C1301	C130	0.537500	0.372520	0.203350
O3891	O389	0.556750	0.374410	0.243520
O3901	O390	0.560730	0.368150	0.166090
O3911	O391	0.992590	0.876570	0.199740
C1311	C131	0.037500	0.872520	0.203350
O3921	O392	0.056750	0.874410	0.243520
O3931	O393	0.060730	0.868150	0.166090
O3941	O394	0.992590	0.376570	0.699740
C1321	C132	0.037500	0.372520	0.703350
O3951	O395	0.056750	0.374410	0.743520
O3961	O396	0.060730	0.368150	0.666090
O3971	O397	0.757410	0.376570	0.050260
C1331	C133	0.712500	0.372520	0.046650
O3981	O398	0.693250	0.374410	0.006480
O3991	O399	0.689270	0.368150	0.083910
O4001	O400	0.757410	0.876570	0.550260
C1341	C134	0.712500	0.872520	0.546650
O4011	O401	0.693250	0.874410	0.506480
O4021	O402	0.689270	0.868150	0.583910
O4031	O403	0.257410	0.376570	0.550260
C1351	C135	0.212500	0.372520	0.546650
O4041	O404	0.193250	0.374410	0.506480
O4051	O405	0.189270	0.368150	0.583910
O4061	O406	0.257410	0.876570	0.050260
C1361	C136	0.212500	0.872520	0.046650
O4071	O407	0.193250	0.874410	0.006480
O4081	O408	0.189270	0.868150	0.083910
O4091	O409	0.992590	0.873430	0.550260
C1371	C137	0.037500	0.877480	0.546650
O4101	O410	0.056750	0.875590	0.506480
O4111	O411	0.060730	0.881850	0.583910
O4121	O412	0.992590	0.373430	0.050260
C1381	C138	0.037500	0.377480	0.046650
O4131	O413	0.056750	0.375590	0.006480
O4141	O414	0.060730	0.381850	0.083910
O4151	O415	0.492590	0.873430	0.050260
C1391	C139	0.537500	0.877480	0.046650
O4161	O416	0.556750	0.875590	0.006480
O4171	O417	0.560730	0.881850	0.083910
O4181	O418	0.492590	0.373430	0.550260
C1401	C140	0.537500	0.377480	0.546650
O4191	O419	0.556750	0.375590	0.506480
O4201	O420	0.560730	0.381850	0.583910
O4211	O421	0.257410	0.373430	0.199740
C1411	C141	0.212500	0.377480	0.203350
O4221	O422	0.193250	0.375590	0.243520
O4231	O423	0.189270	0.381850	0.166090
O4241	O424	0.257410	0.873430	0.699740
C1421	C142	0.212500	0.877480	0.703350
O4251	O425	0.193250	0.875590	0.743520
O4261	O426	0.189270	0.881850	0.666090
O4271	O427	0.757410	0.373430	0.699740
C1431	C143	0.712500	0.377480	0.703350
O4281	O428	0.693250	0.375590	0.743520
O4291	O429	0.689270	0.381850	0.666090
O4301	O430	0.757410	0.873430	0.199740
C1441	C144	0.712500	0.877480	0.203350
O4311	O431	0.693250	0.875590	0.243520
O4321	O432	0.689270	0.881850	0.166090
O4331	O433	0.742590	0.449740	0.123430
C1451	C145	0.787500	0.453350	0.127480
O4341	O434	0.806750	0.493520	0.125590
O4351	O435	0.810730	0.416090	0.131850
O4361	O436	0.742590	0.949740	0.623430
C1461	C146	0.787500	0.953350	0.627480
O4371	O437	0.806750	0.993520	0.625590
O4381	O438	0.810730	0.916090	0.631850
O4391	O439	0.242590	0.449740	0.623430
C1471	C147	0.287500	0.453350	0.627480
O4401	O440	0.306750	0.493520	0.625590
O4411	O441	0.310730	0.416090	0.631850
O4421	O442	0.242590	0.949740	0.123430
C1481	C148	0.287500	0.953350	0.127480
O4431	O443	0.306750	0.993520	0.125590
O4441	O444	0.310730	0.916090	0.131850
O4451	O445	0.007410	0.800260	0.623430
C1491	C149	0.962500	0.796650	0.627480
O4461	O446	0.943250	0.756480	0.625590
O4471	O447	0.939270	0.833910	0.631850
O4481	O448	0.007410	0.300260	0.123430
C1501	C150	0.962500	0.296650	0.127480
O4491	O449	0.943250	0.256480	0.125590
O4501	O450	0.939270	0.333910	0.131850
O4511	O451	0.507410	0.800260	0.123430
C1511	C151	0.462500	0.796650	0.127480
O4521	O452	0.443250	0.756480	0.125590
O4531	O453	0.439270	0.833910	0.131850
O4541	O454	0.507410	0.300260	0.623430
C1521	C152	0.462500	0.296650	0.627480
O4551	O455	0.443250	0.256480	0.625590
O4561	O456	0.439270	0.333910	0.631850
O4571	O457	0.242590	0.300260	0.126570
C1531	C153	0.287500	0.296650	0.122520
O4581	O458	0.306750	0.256480	0.124410
O4591	O459	0.310730	0.333910	0.118150
O4601	O460	0.242590	0.800260	0.626570
C1541	C154	0.287500	0.796650	0.622520
O4611	O461	0.306750	0.756480	0.624410
O4621	O462	0.310730	0.833910	0.618150
O4631	O463	0.742590	0.300260	0.626570
C1551	C155	0.787500	0.296650	0.622520
O4641	O464	0.806750	0.256480	0.624410
O4651	O465	0.810730	0.333910	0.618150
O4661	O466	0.742590	0.800260	0.126570
C1561	C156	0.787500	0.796650	0.122520
O4671	O467	0.806750	0.756480	0.124410
O4681	O468	0.810730	0.833910	0.118150
O4691	O469	0.507410	0.949740	0.626570
C1571	C157	0.462500	0.953350	0.622520
O4701	O470	0.443250	0.993520	0.624410
O4711	O471	0.439270	0.916090	0.618150
O4721	O472	0.507410	0.449740	0.126570
C1581	C158	0.462500	0.453350	0.122520
O4731	O473	0.443250	0.493520	0.124410
O4741	O474	0.439270	0.416090	0.118150
O4751	O475	0.007410	0.949740	0.126570
C1591	C159	0.962500	0.953350	0.122520
O4761	O476	0.943250	0.993520	0.124410
O4771	O477	0.939270	0.916090	0.118150
O4781	O478	0.007410	0.449740	0.626570
C1601	C160	0.962500	0.453350	0.622520
O4791	O479	0.943250	0.493520	0.624410
O4801	O480	0.939270	0.416090	0.618150
O4811	O481	0.949740	0.626570	0.507410
C1611	C161	0.953350	0.622520	0.462500
O4821	O482	0.993520	0.624410	0.443250
O4831	O483	0.916090	0.618150	0.439270
O4841	O484	0.949740	0.126570	0.007410
C1621	C162	0.953350	0.122520	0.962500
O4851	O485	0.993520	0.124410	0.943250
O4861	O486	0.916090	0.118150	0.939270
O4871	O487	0.449740	0.626570	0.007410
C1631	C163	0.453350	0.622520	0.962500
O4881	O488	0.493520	0.624410	0.943250
O4891	O489	0.416090	0.618150	0.939270
O4901	O490	0.449740	0.126570	0.507410
C1641	C164	0.453350	0.122520	0.462500
O4911	O491	0.493520	0.124410	0.443250
O4921	O492	0.416090	0.118150	0.439270
O4931	O493	0.300260	0.126570	0.242590
C1651	C165	0.296650	0.122520	0.287500
O4941	O494	0.256480	0.124410	0.306750
O4951	O495	0.333910	0.118150	0.310730
O4961	O496	0.300260	0.626570	0.742590
C1661	C166	0.296650	0.622520	0.787500
O4971	O497	0.256480	0.624410	0.806750
O4981	O498	0.333910	0.618150	0.810730
O4991	O499	0.800260	0.126570	0.742590
C1671	C167	0.796650	0.122520	0.787500
O5001	O500	0.756480	0.124410	0.806750
O5011	O501	0.833910	0.118150	0.810730
O5021	O502	0.800260	0.626570	0.242590
C1681	C168	0.796650	0.622520	0.287500
O5031	O503	0.756480	0.624410	0.306750
O5041	O504	0.833910	0.618150	0.310730
O5051	O505	0.800260	0.623430	0.007410
C1691	C169	0.796650	0.627480	0.962500
O5061	O506	0.756480	0.625590	0.943250
O5071	O507	0.833910	0.631850	0.939270
O5081	O508	0.800260	0.123430	0.507410
C1701	C170	0.796650	0.127480	0.462500
O5091	O509	0.756480	0.125590	0.443250
O5101	O510	0.833910	0.131850	0.439270
O5111	O511	0.300260	0.623430	0.507410
C1711	C171	0.296650	0.627480	0.462500
O5121	O512	0.256480	0.625590	0.443250
O5131	O513	0.333910	0.631850	0.439270
O5141	O514	0.300260	0.123430	0.007410
C1721	C172	0.296650	0.127480	0.962500
O5151	O515	0.256480	0.125590	0.943250
O5161	O516	0.333910	0.131850	0.939270
O5171	O517	0.449740	0.123430	0.742590
C1731	C173	0.453350	0.127480	0.787500
O5181	O518	0.493520	0.125590	0.806750
O5191	O519	0.416090	0.131850	0.810730
O5201	O520	0.449740	0.623430	0.242590
C1741	C174	0.453350	0.627480	0.287500
O5211	O521	0.493520	0.625590	0.306750
O5221	O522	0.416090	0.631850	0.310730
O5231	O523	0.949740	0.123430	0.242590
C1751	C175	0.953350	0.127480	0.287500
O5241	O524	0.993520	0.125590	0.306750
O5251	O525	0.916090	0.131850	0.310730
O5261	O526	0.949740	0.623430	0.742590
C1761	C176	0.953350	0.627480	0.787500
O5271	O527	0.993520	0.625590	0.806750
O5281	O528	0.916090	0.631850	0.810730
O5291	O529	0.126570	0.242590	0.300260
C1771	C177	0.122520	0.287500	0.296650
O5301	O530	0.124410	0.306750	0.256480
O5311	O531	0.118150	0.310730	0.333910
O5321	O532	0.126570	0.742590	0.800260
C1781	C178	0.122520	0.787500	0.796650
O5331	O533	0.124410	0.806750	0.756480
O5341	O534	0.118150	0.810730	0.833910
O5351	O535	0.626570	0.242590	0.800260
C1791	C179	0.622520	0.287500	0.796650
O5361	O536	0.624410	0.306750	0.756480
O5371	O537	0.618150	0.310730	0.833910
O5381	O538	0.626570	0.742590	0.300260
C1801	C180	0.622520	0.787500	0.296650
O5391	O539	0.624410	0.806750	0.256480
O5401	O540	0.618150	0.810730	0.333910
O5411	O541	0.626570	0.507410	0.949740
C1811	C181	0.622520	0.462500	0.953350
O5421	O542	0.624410	0.443250	0.993520
O5431	O543	0.618150	0.439270	0.916090
O5441	O544	0.626570	0.007410	0.449740
C1821	C182	0.622520	0.962500	0.453350
O5451	O545	0.624410	0.943250	0.493520
O5461	O546	0.618150	0.939270	0.416090
O5471	O547	0.126570	0.507410	0.449740
C1831	C183	0.122520	0.462500	0.453350
O5481	O548	0.124410	0.443250	0.493520
O5491	O549	0.118150	0.439270	0.416090
O5501	O550	0.126570	0.007410	0.949740
C1841	C184	0.122520	0.962500	0.953350
O5511	O551	0.124410	0.943250	0.993520
O5521	O552	0.118150	0.939270	0.916090
O5531	O553	0.123430	0.742590	0.449740
C1851	C185	0.127480	0.787500	0.453350
O5541	O554	0.125590	0.806750	0.493520
O5551	O555	0.131850	0.810730	0.416090
O5561	O556	0.123430	0.242590	0.949740
C1861	C186	0.127480	0.287500	0.953350
O5571	O557	0.125590	0.306750	0.993520
O5581	O558	0.131850	0.310730	0.916090
O5591	O559	0.623430	0.742590	0.949740
C1871	C187	0.627480	0.787500	0.953350
O5601	O560	0.625590	0.806750	0.993520
O5611	O561	0.631850	0.810730	0.916090
O5621	O562	0.623430	0.242590	0.449740
C1881	C188	0.627480	0.287500	0.453350
O5631	O563	0.625590	0.306750	0.493520
O5641	O564	0.631850	0.310730	0.416090
O5651	O565	0.623430	0.007410	0.800260
C1891	C189	0.627480	0.962500	0.796650
O5661	O566	0.625590	0.943250	0.756480
O5671	O567	0.631850	0.939270	0.833910
O5681	O568	0.623430	0.507410	0.300260
C1901	C190	0.627480	0.462500	0.296650
O5691	O569	0.625590	0.443250	0.256480
O5701	O570	0.631850	0.439270	0.333910
O5711	O571	0.123430	0.007410	0.300260
C1911	C191	0.127480	0.962500	0.296650
O5721	O572	0.125590	0.943250	0.256480
O5731	O573	0.131850	0.939270	0.333910
O5741	O574	0.123430	0.507410	0.800260
C1921	C192	0.127480	0.462500	0.796650
O5751	O575	0.125590	0.443250	0.756480
O5761	O576	0.131850	0.439270	0.833910
Ni11	Ni1	0.373080	0.500000	0.123080
Ni21	Ni2	0.373080	0.000000	0.623080
Ni31	Ni3	0.873080	0.500000	0.623080
Ni41	Ni4	0.873080	0.000000	0.123080
Ni51	Ni5	0.876920	0.250000	0.623080
Ni61	Ni6	0.876920	0.750000	0.123080
Ni71	Ni7	0.376920	0.250000	0.123080
Ni81	Ni8	0.376920	0.750000	0.623080
Ni91	Ni9	0.376920	0.000000	0.126920
Ni101	Ni10	0.376920	0.500000	0.626920
Ni111	Ni11	0.876920	0.000000	0.626920
Ni121	Ni12	0.876920	0.500000	0.126920
Ni131	Ni13	0.873080	0.750000	0.626920
Ni141	Ni14	0.873080	0.250000	0.126920
Ni151	Ni15	0.373080	0.750000	0.126920
Ni161	Ni16	0.373080	0.250000	0.626920
Ni171	Ni17	0.123080	0.373080	0.500000
Ni181	Ni18	0.123080	0.873080	0.000000
Ni191	Ni19	0.623080	0.373080	0.000000
Ni201	Ni20	0.623080	0.873080	0.500000
Ni211	Ni21	0.623080	0.876920	0.250000
Ni221	Ni22	0.623080	0.376920	0.750000
Ni231	Ni23	0.123080	0.876920	0.750000
Ni241	Ni24	0.123080	0.376920	0.250000
Ni251	Ni25	0.126920	0.376920	0.000000
Ni261	Ni26	0.126920	0.876920	0.500000
Ni271	Ni27	0.626920	0.376920	0.500000
Ni281	Ni28	0.626920	0.876920	0.000000
Ni291	Ni29	0.626920	0.873080	0.750000
Ni301	Ni30	0.626920	0.373080	0.250000
Ni311	Ni31	0.126920	0.873080	0.250000
Ni321	Ni32	0.126920	0.373080	0.750000
Ni331	Ni33	0.500000	0.123080	0.373080
Ni341	Ni34	0.500000	0.623080	0.873080
Ni351	Ni35	0.000000	0.123080	0.873080
Ni361	Ni36	0.000000	0.623080	0.373080
Ni371	Ni37	0.250000	0.623080	0.876920
Ni381	Ni38	0.250000	0.123080	0.376920
Ni391	Ni39	0.750000	0.623080	0.376920
Ni401	Ni40	0.750000	0.123080	0.876920
Ni411	Ni41	0.000000	0.126920	0.376920
Ni421	Ni42	0.000000	0.626920	0.876920
Ni431	Ni43	0.500000	0.126920	0.876920
Ni441	Ni44	0.500000	0.626920	0.376920
Ni451	Ni45	0.750000	0.626920	0.873080
Ni461	Ni46	0.750000	0.126920	0.373080
Ni471	Ni47	0.250000	0.626920	0.373080
Ni481	Ni48	0.250000	0.126920	0.873080
Ni491	Ni49	0.626920	0.500000	0.876920
Ni501	Ni50	0.626920	0.000000	0.376920
Ni511	Ni51	0.126920	0.500000	0.376920
Ni521	Ni52	0.126920	0.000000	0.876920
Ni531	Ni53	0.123080	0.750000	0.376920
Ni541	Ni54	0.123080	0.250000	0.876920
Ni551	Ni55	0.623080	0.750000	0.876920
Ni561	Ni56	0.623080	0.250000	0.376920
Ni571	Ni57	0.623080	0.000000	0.873080
Ni581	Ni58	0.623080	0.500000	0.373080
Ni591	Ni59	0.123080	0.000000	0.373080
Ni601	Ni60	0.123080	0.500000	0.873080
Ni611	Ni61	0.126920	0.250000	0.373080
Ni621	Ni62	0.126920	0.750000	0.873080
Ni631	Ni63	0.626920	0.250000	0.873080
Ni641	Ni64	0.626920	0.750000	0.373080
Ni651	Ni65	0.876920	0.626920	0.500000
Ni661	Ni66	0.876920	0.126920	0.000000
Ni671	Ni67	0.376920	0.626920	0.000000
Ni681	Ni68	0.376920	0.126920	0.500000
Ni691	Ni69	0.376920	0.123080	0.750000
Ni701	Ni70	0.376920	0.623080	0.250000
Ni711	Ni71	0.876920	0.123080	0.250000
Ni721	Ni72	0.876920	0.623080	0.750000
Ni731	Ni73	0.873080	0.623080	0.000000
Ni741	Ni74	0.873080	0.123080	0.500000
Ni751	Ni75	0.373080	0.623080	0.500000
Ni761	Ni76	0.373080	0.123080	0.000000
Ni771	Ni77	0.373080	0.126920	0.250000
Ni781	Ni78	0.373080	0.626920	0.750000
Ni791	Ni79	0.873080	0.126920	0.750000
Ni801	Ni80	0.873080	0.626920	0.250000
Ni811	Ni81	0.500000	0.876920	0.626920
Ni821	Ni82	0.500000	0.376920	0.126920
Ni831	Ni83	0.000000	0.876920	0.126920
Ni841	Ni84	0.000000	0.376920	0.626920
Ni851	Ni85	0.750000	0.376920	0.123080
Ni861	Ni86	0.750000	0.876920	0.623080
Ni871	Ni87	0.250000	0.376920	0.623080
Ni881	Ni88	0.250000	0.876920	0.123080
Ni891	Ni89	0.000000	0.873080	0.623080
Ni901	Ni90	0.000000	0.373080	0.123080
Ni911	Ni91	0.500000	0.873080	0.123080
Ni921	Ni92	0.500000	0.373080	0.623080
Ni931	Ni93	0.250000	0.373080	0.126920
Ni941	Ni94	0.250000	0.873080	0.626920
Ni951	Ni95	0.750000	0.373080	0.626920
Ni961	Ni96	0.750000	0.873080	0.126920
Na11	Na1	0.375000	0.375000	0.125000
Na21	Na2	0.875000	0.375000	0.625000
Na31	Na3	0.875000	0.875000	0.125000
Na41	Na4	0.375000	0.875000	0.125000
Na51	Na5	0.375000	0.375000	0.625000
Na61	Na6	0.875000	0.875000	0.625000
Na71	Na7	0.125000	0.375000	0.375000
Na81	Na8	0.125000	0.875000	0.875000
Na91	Na9	0.625000	0.875000	0.375000
Na101	Na10	0.125000	0.375000	0.875000
Na111	Na11	0.625000	0.875000	0.875000
Na121	Na12	0.625000	0.375000	0.375000
Na131	Na13	0.375000	0.125000	0.375000
Na141	Na14	0.375000	0.625000	0.875000
Na151	Na15	0.875000	0.125000	0.375000
Na161	Na16	0.875000	0.625000	0.875000
Na171	Na17	0.125000	0.625000	0.875000
Na181	Na18	0.125000	0.125000	0.375000
Na191	Na19	0.625000	0.125000	0.875000
Na201	Na20	0.625000	0.625000	0.875000
Na211	Na21	0.625000	0.125000	0.375000
Na221	Na22	0.125000	0.375000	0.625000
Na231	Na23	0.125000	0.875000	0.125000
Na241	Na24	0.625000	0.875000	0.625000
Na251	Na25	0.125000	0.375000	0.125000
Na261	Na26	0.125000	0.875000	0.625000
Na271	Na27	0.625000	0.875000	0.125000
Na281	Na28	0.625000	0.375000	0.625000
Na291	Na29	0.875000	0.625000	0.625000
Na301	Na30	0.875000	0.125000	0.125000
Na311	Na31	0.375000	0.625000	0.125000
Na321	Na32	0.875000	0.125000	0.625000
Na331	Na33	0.375000	0.125000	0.125000
Na341	Na34	0.375000	0.625000	0.625000
Na351	Na35	0.875000	0.625000	0.125000
Na361	Na36	0.125000	0.625000	0.375000
Na371	Na37	0.125000	0.125000	0.875000
Na381	Na38	0.625000	0.625000	0.375000
Na391	Na39	0.375000	0.125000	0.625000
Na401	Na40	0.625000	0.375000	0.125000
Na411	Na41	0.875000	0.375000	0.125000
Na421	Na42	0.375000	0.875000	0.625000
Na431	Na43	0.875000	0.625000	0.375000
Na441	Na44	0.875000	0.125000	0.875000
Na451	Na45	0.375000	0.125000	0.875000
Na461	Na46	0.375000	0.625000	0.375000
Na471	Na47	0.625000	0.375000	0.875000
Na481	Na48	0.125000	0.875000	0.375000
