data_IWELIG01_clean_PM
_symmetry_space_group_name_H-M	'P1'
_cell_length_a	8.449500
_cell_length_b	15.260900
_cell_length_c	15.260900
_cell_angle_alpha	85.604700
_cell_angle_beta	73.928600
_cell_angle_gamma	73.928500
_symmetry_Int_Tables_number 1

loop_
_symmetry_equiv_pos_as_xyz
'x,y,z'

loop_
_atom_site_label
_atom_site_type_symbol
_atom_site_fract_x
_atom_site_fract_y
_atom_site_fract_z
Co11	Co1	0.904040	0.949830	0.960340
Co21	Co2	0.314220	0.550170	0.539660
Co31	Co3	0.864390	0.039660	0.449820
Co41	Co4	0.853870	0.460340	0.050180
Co51	Co5	0.095960	0.050170	0.039660
Co61	Co6	0.685780	0.449830	0.460340
Co71	Co7	0.135610	0.960340	0.550180
Co81	Co8	0.146130	0.539660	0.949820
Co91	Co9	0.500000	0.000000	0.000000
Co101	Co10	0.000000	0.500000	0.500000
Co111	Co11	0.500000	0.000000	0.500000
Co121	Co12	0.500000	0.500000	0.000000
H11	H1	0.567200	0.807800	0.025000
H21	H2	0.957300	0.747300	0.922500
H31	H3	0.635900	0.658100	0.023500
H41	H4	0.900000	0.692200	0.475000
H51	H5	0.127100	0.752700	0.577500
H61	H6	0.817500	0.841900	0.476500
H71	H7	0.592200	0.975000	0.307800
H81	H8	0.879800	0.077500	0.247300
H91	H9	0.659400	0.976500	0.158100
H101	H10	0.375000	0.525000	0.192200
H111	H11	0.704600	0.422500	0.252700
H121	H12	0.294000	0.523500	0.341900
H131	H13	0.432800	0.192200	0.975000
H141	H14	0.042700	0.252700	0.077500
H151	H15	0.364100	0.341900	0.976500
H161	H16	0.100000	0.307800	0.525000
H171	H17	0.872900	0.247300	0.422500
H181	H18	0.182500	0.158100	0.523500
H191	H19	0.407800	0.025000	0.692200
H201	H20	0.120200	0.922500	0.752700
H211	H21	0.340600	0.023500	0.841900
H221	H22	0.625000	0.475000	0.807800
H231	H23	0.295400	0.577500	0.747300
H241	H24	0.706000	0.476500	0.658100
C11	C1	0.343590	0.842430	0.000590
C21	C2	0.240260	0.795320	0.976760
C31	C3	0.054820	0.747670	0.939290
C41	C4	0.291050	0.699280	0.973220
C51	C5	0.534460	0.690990	0.010690
C61	C6	0.686610	0.657570	0.499410
C71	C7	0.512340	0.704680	0.523240
C81	C8	0.241780	0.752330	0.560710
C91	C9	0.463550	0.800720	0.526780
C101	C10	0.736140	0.809010	0.489310
C111	C11	0.344180	0.999410	0.342430
C121	C12	0.217020	0.023240	0.295320
C131	C13	0.994110	0.060710	0.247670
C141	C14	0.264270	0.026780	0.199280
C151	C15	0.545150	0.989310	0.190990
C161	C16	0.186020	0.500590	0.157570
C171	C17	0.035580	0.476760	0.204680
C181	C18	0.802490	0.439290	0.252330
C191	C19	0.990330	0.473220	0.300720
C201	C20	0.225450	0.510690	0.309010
C211	C21	0.656410	0.157570	0.999410
C221	C22	0.759740	0.204680	0.023240
C231	C23	0.945180	0.252330	0.060710
C241	C24	0.708950	0.300720	0.026780
C251	C25	0.465540	0.309010	0.989310
C261	C26	0.313390	0.342430	0.500590
C271	C27	0.487660	0.295320	0.476760
C281	C28	0.758220	0.247670	0.439290
C291	C29	0.536450	0.199280	0.473220
C301	C30	0.263860	0.190990	0.510690
C311	C31	0.655820	0.000590	0.657570
C321	C32	0.782980	0.976760	0.704680
C331	C33	0.005890	0.939290	0.752330
C341	C34	0.735730	0.973220	0.800720
C351	C35	0.454850	0.010690	0.809010
C361	C36	0.813980	0.499410	0.842430
C371	C37	0.964420	0.523240	0.795320
C381	C38	0.197510	0.560710	0.747670
C391	C39	0.009670	0.526780	0.699280
C401	C40	0.774550	0.489310	0.690990
N11	N1	0.088050	0.824640	0.954460
N21	N2	0.172640	0.669800	0.949920
N31	N3	0.438880	0.645670	0.990770
N41	N4	0.494110	0.783670	0.013910
N51	N5	0.367150	0.675360	0.545540
N61	N6	0.292360	0.830200	0.550080
N71	N7	0.575320	0.854330	0.509230
N81	N8	0.791690	0.716330	0.486090
N91	N9	0.042510	0.045540	0.324640
N101	N10	0.122560	0.050080	0.169800
N111	N11	0.429650	0.009230	0.145670
N121	N12	0.508020	0.986090	0.283670
N131	N13	0.912690	0.454460	0.175360
N141	N14	0.842440	0.449920	0.330200
N151	N15	0.084550	0.490770	0.354330
N161	N16	0.277780	0.513910	0.216330
N171	N17	0.911950	0.175360	0.045540
N181	N18	0.827360	0.330200	0.050080
N191	N19	0.561120	0.354330	0.009230
N201	N20	0.505890	0.216330	0.986090
N211	N21	0.632850	0.324640	0.454460
N221	N22	0.707640	0.169800	0.449920
N231	N23	0.424680	0.145670	0.490770
N241	N24	0.208310	0.283670	0.513910
N251	N25	0.957490	0.954460	0.675360
N261	N26	0.877440	0.949920	0.830200
N271	N27	0.570350	0.990770	0.854330
N281	N28	0.491980	0.013910	0.716330
N291	N29	0.087310	0.545540	0.824640
N301	N30	0.157560	0.550080	0.669800
N311	N31	0.915450	0.509230	0.645670
N321	N32	0.722220	0.486090	0.783670
O11	O1	0.699280	0.894280	0.007360
O21	O2	0.319340	0.926470	0.009450
O31	O3	0.925280	0.973410	0.084230
O41	O4	0.100920	0.605720	0.492640
O51	O5	0.755260	0.573530	0.490550
O61	O6	0.482920	0.526590	0.415770
O71	O7	0.706640	0.992640	0.394280
O81	O8	0.328790	0.990550	0.426470
O91	O9	0.009510	0.915770	0.473410
O101	O10	0.593560	0.507360	0.105720
O111	O11	0.245810	0.509450	0.073530
O121	O12	0.898690	0.584230	0.026590
O131	O13	0.300720	0.105720	0.992640
O141	O14	0.680660	0.073530	0.990550
O151	O15	0.074720	0.026590	0.915770
O161	O16	0.899080	0.394280	0.507360
O171	O17	0.244740	0.426470	0.509450
O181	O18	0.517080	0.473410	0.584230
O191	O19	0.293360	0.007360	0.605720
O201	O20	0.671210	0.009450	0.573530
O211	O21	0.990490	0.084230	0.526590
O221	O22	0.406440	0.492640	0.894280
O231	O23	0.754190	0.490550	0.926470
O241	O24	0.101310	0.415770	0.973410
