data_IWOKUC_clean_PM
_symmetry_space_group_name_H-M	'P1'
_cell_length_a	15.923000
_cell_length_b	26.370000
_cell_length_c	20.627000
_cell_angle_alpha	90.000000
_cell_angle_beta	91.005000
_cell_angle_gamma	90.000000
_symmetry_Int_Tables_number 1

loop_
_symmetry_equiv_pos_as_xyz
'x,y,z'

loop_
_atom_site_label
_atom_site_type_symbol
_atom_site_fract_x
_atom_site_fract_y
_atom_site_fract_z
S11	S1	0.237390	0.016390	0.698620
C11	C1	0.147900	0.041500	0.656600
C21	C2	0.080500	0.011000	0.635600
C31	C3	0.013300	0.032700	0.601900
C41	C4	0.016100	0.084000	0.583800
H11	H1	0.970500	0.098100	0.559600
C51	C5	0.085500	0.115100	0.600700
C61	C6	0.149400	0.092500	0.639300
H21	H2	0.195100	0.112900	0.653900
O11	O1	0.081400	0.959060	0.646700
C71	C7	0.131300	0.934000	0.597300
H31	H3	0.191000	0.944200	0.602000
H41	H4	0.111000	0.944100	0.553500
C81	C8	0.123500	0.877500	0.605100
C91	C9	0.174900	0.847800	0.567600
H51	H5	0.214300	0.864500	0.540900
N11	N1	0.172600	0.796400	0.566500
C101	C10	0.119400	0.774000	0.606000
H61	H6	0.117600	0.738000	0.606400
C111	C11	0.067100	0.799700	0.646200
H71	H7	0.030300	0.781800	0.673900
C121	C12	0.068800	0.852800	0.645900
H81	H8	0.032900	0.871600	0.673300
C131	C13	0.092000	0.170200	0.578300
C141	C14	0.174100	0.176900	0.541400
H91	H9	0.221200	0.164500	0.568200
H101	H10	0.182500	0.212900	0.531600
H111	H11	0.171000	0.157500	0.500900
C151	C15	0.095400	0.205700	0.637900
H121	H12	0.047400	0.198700	0.665600
H131	H13	0.093500	0.241000	0.623400
H141	H14	0.147700	0.199700	0.662500
C161	C16	0.017700	0.186300	0.535200
H151	H15	0.015300	0.164900	0.496400
H161	H16	0.024700	0.221800	0.522300
H171	H17	0.965500	0.182600	0.559100
S21	S2	0.928280	0.994890	0.569650
C171	C17	0.877800	0.969600	0.639000
C181	C18	0.849900	0.999700	0.688000
C191	C19	0.803600	0.978300	0.738300
C201	C20	0.784400	0.926600	0.736200
H181	H18	0.754700	0.912100	0.771200
C211	C21	0.806600	0.896200	0.686100
C221	C22	0.855900	0.918200	0.637200
H191	H19	0.874500	0.897700	0.602400
O21	O2	0.864300	0.052000	0.687200
C231	C23	0.792600	0.077600	0.655600
H201	H20	0.741400	0.073100	0.681600
H211	H21	0.782000	0.063100	0.612000
C241	C24	0.813500	0.133000	0.650300
C251	C25	0.781100	0.160500	0.598200
H221	H22	0.747800	0.143100	0.566600
N21	N2	0.794400	0.210700	0.590000
C261	C26	0.840100	0.235400	0.636200
H231	H23	0.849200	0.270800	0.631500
C271	C27	0.874000	0.211000	0.689800
H241	H24	0.905500	0.229500	0.721400
C281	C28	0.861700	0.159300	0.696900
H251	H25	0.885600	0.141800	0.733000
C291	C29	0.776500	0.841400	0.678500
C301	C30	0.734500	0.822000	0.739500
H261	H26	0.720800	0.786000	0.734200
H271	H27	0.682800	0.841300	0.746700
H281	H28	0.772800	0.826300	0.776800
C311	C31	0.846500	0.805300	0.662900
H291	H29	0.887700	0.804900	0.698700
H301	H30	0.873900	0.816300	0.623100
H311	H31	0.823500	0.771100	0.656600
C321	C32	0.709900	0.840800	0.622600
H321	H32	0.734300	0.855100	0.583300
H331	H33	0.661200	0.861200	0.635000
H341	H34	0.692000	0.805800	0.614200
N31	N3	0.651600	0.196300	0.489400
C331	C33	0.586300	0.178000	0.475800
S31	S3	0.496900	0.154390	0.456600
S41	S4	0.737390	0.516390	0.698620
C341	C34	0.647900	0.541500	0.656600
C351	C35	0.580500	0.511000	0.635600
C361	C36	0.513300	0.532700	0.601900
C371	C37	0.516100	0.584000	0.583800
H351	H35	0.470500	0.598100	0.559600
C381	C38	0.585500	0.615100	0.600700
C391	C39	0.649400	0.592500	0.639300
H361	H36	0.695100	0.612900	0.653900
O31	O3	0.581400	0.459060	0.646700
C401	C40	0.631300	0.434000	0.597300
H371	H37	0.691000	0.444200	0.602000
H381	H38	0.611000	0.444100	0.553500
C411	C41	0.623500	0.377500	0.605100
C421	C42	0.674900	0.347800	0.567600
H391	H39	0.714300	0.364500	0.540900
N41	N4	0.672600	0.296400	0.566500
C431	C43	0.619400	0.274000	0.606000
H401	H40	0.617600	0.238000	0.606400
C441	C44	0.567100	0.299700	0.646200
H411	H41	0.530300	0.281800	0.673900
C451	C45	0.568800	0.352800	0.645900
H421	H42	0.532900	0.371600	0.673300
C461	C46	0.592000	0.670200	0.578300
C471	C47	0.674100	0.676900	0.541400
H431	H43	0.721200	0.664500	0.568200
H441	H44	0.682500	0.712900	0.531600
H451	H45	0.671000	0.657500	0.500900
C481	C48	0.595400	0.705700	0.637900
H461	H46	0.547400	0.698700	0.665600
H471	H47	0.593500	0.741000	0.623400
H481	H48	0.647700	0.699700	0.662500
C491	C49	0.517700	0.686300	0.535200
H491	H49	0.515300	0.664900	0.496400
H501	H50	0.524700	0.721800	0.522300
H511	H51	0.465500	0.682600	0.559100
S51	S5	0.428280	0.494890	0.569650
C501	C50	0.377800	0.469600	0.639000
C511	C51	0.349900	0.499700	0.688000
C521	C52	0.303600	0.478300	0.738300
C531	C53	0.284400	0.426600	0.736200
H521	H52	0.254700	0.412100	0.771200
C541	C54	0.306600	0.396200	0.686100
C551	C55	0.355900	0.418200	0.637200
H531	H53	0.374500	0.397700	0.602400
O41	O4	0.364300	0.552000	0.687200
C561	C56	0.292600	0.577600	0.655600
H541	H54	0.241400	0.573100	0.681600
H551	H55	0.282000	0.563100	0.612000
C571	C57	0.313500	0.633000	0.650300
C581	C58	0.281100	0.660500	0.598200
H561	H56	0.247800	0.643100	0.566600
N51	N5	0.294400	0.710700	0.590000
C591	C59	0.340100	0.735400	0.636200
H571	H57	0.349200	0.770800	0.631500
C601	C60	0.374000	0.711000	0.689800
H581	H58	0.405500	0.729500	0.721400
C611	C61	0.361700	0.659300	0.696900
H591	H59	0.385600	0.641800	0.733000
C621	C62	0.276500	0.341400	0.678500
C631	C63	0.234500	0.322000	0.739500
H601	H60	0.220800	0.286000	0.734200
H611	H61	0.182800	0.341300	0.746700
H621	H62	0.272800	0.326300	0.776800
C641	C64	0.346500	0.305300	0.662900
H631	H63	0.387700	0.304900	0.698700
H641	H64	0.373900	0.316300	0.623100
H651	H65	0.323500	0.271100	0.656600
C651	C65	0.209900	0.340800	0.622600
H661	H66	0.234300	0.355100	0.583300
H671	H67	0.161200	0.361200	0.635000
H681	H68	0.192000	0.305800	0.614200
N61	N6	0.151600	0.696300	0.489400
C661	C66	0.086300	0.678000	0.475800
S61	S6	0.996900	0.654390	0.456600
S71	S7	0.762610	0.016390	0.801380
C671	C67	0.852100	0.041500	0.843400
C681	C68	0.919500	0.011000	0.864400
C691	C69	0.986700	0.032700	0.898100
C701	C70	0.983900	0.084000	0.916200
H691	H69	0.029500	0.098100	0.940400
C711	C71	0.914500	0.115100	0.899300
C721	C72	0.850600	0.092500	0.860700
H701	H70	0.804900	0.112900	0.846100
O51	O5	0.918600	0.959060	0.853300
C731	C73	0.868700	0.934000	0.902700
H711	H71	0.809000	0.944200	0.898000
H721	H72	0.889000	0.944100	0.946500
C741	C74	0.876500	0.877500	0.894900
C751	C75	0.825100	0.847800	0.932400
H731	H73	0.785700	0.864500	0.959100
N71	N7	0.827400	0.796400	0.933500
C761	C76	0.880600	0.774000	0.894000
H741	H74	0.882400	0.738000	0.893600
C771	C77	0.932900	0.799700	0.853800
H751	H75	0.969700	0.781800	0.826100
C781	C78	0.931200	0.852800	0.854100
H761	H76	0.967100	0.871600	0.826700
C791	C79	0.908000	0.170200	0.921700
C801	C80	0.825900	0.176900	0.958600
H771	H77	0.778800	0.164500	0.931800
H781	H78	0.817500	0.212900	0.968400
H791	H79	0.829000	0.157500	0.999100
C811	C81	0.904600	0.205700	0.862100
H801	H80	0.952600	0.198700	0.834400
H811	H81	0.906500	0.241000	0.876600
H821	H82	0.852300	0.199700	0.837500
C821	C82	0.982300	0.186300	0.964800
H831	H83	0.984700	0.164900	0.003600
H841	H84	0.975300	0.221800	0.977700
H851	H85	0.034500	0.182600	0.940900
S81	S8	0.071720	0.994890	0.930350
C831	C83	0.122200	0.969600	0.861000
C841	C84	0.150100	0.999700	0.812000
C851	C85	0.196400	0.978300	0.761700
C861	C86	0.215600	0.926600	0.763800
H861	H86	0.245300	0.912100	0.728800
C871	C87	0.193400	0.896200	0.813900
C881	C88	0.144100	0.918200	0.862800
H871	H87	0.125500	0.897700	0.897600
O61	O6	0.135700	0.052000	0.812800
C891	C89	0.207400	0.077600	0.844400
H881	H88	0.258600	0.073100	0.818400
H891	H89	0.218000	0.063100	0.888000
C901	C90	0.186500	0.133000	0.849700
C911	C91	0.218900	0.160500	0.901800
H901	H90	0.252200	0.143100	0.933400
N81	N8	0.205600	0.210700	0.910000
C921	C92	0.159900	0.235400	0.863800
H911	H91	0.150800	0.270800	0.868500
C931	C93	0.126000	0.211000	0.810200
H921	H92	0.094500	0.229500	0.778600
C941	C94	0.138300	0.159300	0.803100
H931	H93	0.114400	0.141800	0.767000
C951	C95	0.223500	0.841400	0.821500
C961	C96	0.265500	0.822000	0.760500
H941	H94	0.279200	0.786000	0.765800
H951	H95	0.317200	0.841300	0.753300
H961	H96	0.227200	0.826300	0.723200
C971	C97	0.153500	0.805300	0.837100
H971	H97	0.112300	0.804900	0.801300
H981	H98	0.126100	0.816300	0.876900
H991	H99	0.176500	0.771100	0.843400
C981	C98	0.290100	0.840800	0.877400
H1001	H100	0.265700	0.855100	0.916700
H1011	H101	0.338800	0.861200	0.865000
H1021	H102	0.308000	0.805800	0.885800
N91	N9	0.348400	0.196300	0.010600
C991	C99	0.413700	0.178000	0.024200
S91	S9	0.503100	0.154390	0.043400
S101	S10	0.262610	0.516390	0.801380
C1001	C100	0.352100	0.541500	0.843400
C1011	C101	0.419500	0.511000	0.864400
C1021	C102	0.486700	0.532700	0.898100
C1031	C103	0.483900	0.584000	0.916200
H1031	H103	0.529500	0.598100	0.940400
C1041	C104	0.414500	0.615100	0.899300
C1051	C105	0.350600	0.592500	0.860700
H1041	H104	0.304900	0.612900	0.846100
O71	O7	0.418600	0.459060	0.853300
C1061	C106	0.368700	0.434000	0.902700
H1051	H105	0.309000	0.444200	0.898000
H1061	H106	0.389000	0.444100	0.946500
C1071	C107	0.376500	0.377500	0.894900
C1081	C108	0.325100	0.347800	0.932400
H1071	H107	0.285700	0.364500	0.959100
N101	N10	0.327400	0.296400	0.933500
C1091	C109	0.380600	0.274000	0.894000
H1081	H108	0.382400	0.238000	0.893600
C1101	C110	0.432900	0.299700	0.853800
H1091	H109	0.469700	0.281800	0.826100
C1111	C111	0.431200	0.352800	0.854100
H1101	H110	0.467100	0.371600	0.826700
C1121	C112	0.408000	0.670200	0.921700
C1131	C113	0.325900	0.676900	0.958600
H1111	H111	0.278800	0.664500	0.931800
H1121	H112	0.317500	0.712900	0.968400
H1131	H113	0.329000	0.657500	0.999100
C1141	C114	0.404600	0.705700	0.862100
H1141	H114	0.452600	0.698700	0.834400
H1151	H115	0.406500	0.741000	0.876600
H1161	H116	0.352300	0.699700	0.837500
C1151	C115	0.482300	0.686300	0.964800
H1171	H117	0.484700	0.664900	0.003600
H1181	H118	0.475300	0.721800	0.977700
H1191	H119	0.534500	0.682600	0.940900
S111	S11	0.571720	0.494890	0.930350
C1161	C116	0.622200	0.469600	0.861000
C1171	C117	0.650100	0.499700	0.812000
C1181	C118	0.696400	0.478300	0.761700
C1191	C119	0.715600	0.426600	0.763800
H1201	H120	0.745300	0.412100	0.728800
C1201	C120	0.693400	0.396200	0.813900
C1211	C121	0.644100	0.418200	0.862800
H1211	H121	0.625500	0.397700	0.897600
O81	O8	0.635700	0.552000	0.812800
C1221	C122	0.707400	0.577600	0.844400
H1221	H122	0.758600	0.573100	0.818400
H1231	H123	0.718000	0.563100	0.888000
C1231	C123	0.686500	0.633000	0.849700
C1241	C124	0.718900	0.660500	0.901800
H1241	H124	0.752200	0.643100	0.933400
N111	N11	0.705600	0.710700	0.910000
C1251	C125	0.659900	0.735400	0.863800
H1251	H125	0.650800	0.770800	0.868500
C1261	C126	0.626000	0.711000	0.810200
H1261	H126	0.594500	0.729500	0.778600
C1271	C127	0.638300	0.659300	0.803100
H1271	H127	0.614400	0.641800	0.767000
C1281	C128	0.723500	0.341400	0.821500
C1291	C129	0.765500	0.322000	0.760500
H1281	H128	0.779200	0.286000	0.765800
H1291	H129	0.817200	0.341300	0.753300
H1301	H130	0.727200	0.326300	0.723200
C1301	C130	0.653500	0.305300	0.837100
H1311	H131	0.612300	0.304900	0.801300
H1321	H132	0.626100	0.316300	0.876900
H1331	H133	0.676500	0.271100	0.843400
C1311	C131	0.790100	0.340800	0.877400
H1341	H134	0.765700	0.355100	0.916700
H1351	H135	0.838800	0.361200	0.865000
H1361	H136	0.808000	0.305800	0.885800
N121	N12	0.848400	0.696300	0.010600
C1321	C132	0.913700	0.678000	0.024200
S121	S12	0.003100	0.654390	0.043400
S131	S13	0.762610	0.983610	0.301380
C1331	C133	0.852100	0.958500	0.343400
C1341	C134	0.919500	0.989000	0.364400
C1351	C135	0.986700	0.967300	0.398100
C1361	C136	0.983900	0.916000	0.416200
H1371	H137	0.029500	0.901900	0.440400
C1371	C137	0.914500	0.884900	0.399300
C1381	C138	0.850600	0.907500	0.360700
H1381	H138	0.804900	0.887100	0.346100
O91	O9	0.918600	0.040940	0.353300
C1391	C139	0.868700	0.066000	0.402700
H1391	H139	0.809000	0.055800	0.398000
H1401	H140	0.889000	0.055900	0.446500
C1401	C140	0.876500	0.122500	0.394900
C1411	C141	0.825100	0.152200	0.432400
H1411	H141	0.785700	0.135500	0.459100
N131	N13	0.827400	0.203600	0.433500
C1421	C142	0.880600	0.226000	0.394000
H1421	H142	0.882400	0.262000	0.393600
C1431	C143	0.932900	0.200300	0.353800
H1431	H143	0.969700	0.218200	0.326100
C1441	C144	0.931200	0.147200	0.354100
H1441	H144	0.967100	0.128400	0.326700
C1451	C145	0.908000	0.829800	0.421700
C1461	C146	0.825900	0.823100	0.458600
H1451	H145	0.778800	0.835500	0.431800
H1461	H146	0.817500	0.787100	0.468400
H1471	H147	0.829000	0.842500	0.499100
C1471	C147	0.904600	0.794300	0.362100
H1481	H148	0.952600	0.801300	0.334400
H1491	H149	0.906500	0.759000	0.376600
H1501	H150	0.852300	0.800300	0.337500
C1481	C148	0.982300	0.813700	0.464800
H1511	H151	0.984700	0.835100	0.503600
H1521	H152	0.975300	0.778200	0.477700
H1531	H153	0.034500	0.817400	0.440900
S141	S14	0.071720	0.005110	0.430350
C1491	C149	0.122200	0.030400	0.361000
C1501	C150	0.150100	0.000300	0.312000
C1511	C151	0.196400	0.021700	0.261700
C1521	C152	0.215600	0.073400	0.263800
H1541	H154	0.245300	0.087900	0.228800
C1531	C153	0.193400	0.103800	0.313900
C1541	C154	0.144100	0.081800	0.362800
H1551	H155	0.125500	0.102300	0.397600
O101	O10	0.135700	0.948000	0.312800
C1551	C155	0.207400	0.922400	0.344400
H1561	H156	0.258600	0.926900	0.318400
H1571	H157	0.218000	0.936900	0.388000
C1561	C156	0.186500	0.867000	0.349700
C1571	C157	0.218900	0.839500	0.401800
H1581	H158	0.252200	0.856900	0.433400
N141	N14	0.205600	0.789300	0.410000
C1581	C158	0.159900	0.764600	0.363800
H1591	H159	0.150800	0.729200	0.368500
C1591	C159	0.126000	0.789000	0.310200
H1601	H160	0.094500	0.770500	0.278600
C1601	C160	0.138300	0.840700	0.303100
H1611	H161	0.114400	0.858200	0.267000
C1611	C161	0.223500	0.158600	0.321500
C1621	C162	0.265500	0.178000	0.260500
H1621	H162	0.279200	0.214000	0.265800
H1631	H163	0.317200	0.158700	0.253300
H1641	H164	0.227200	0.173700	0.223200
C1631	C163	0.153500	0.194700	0.337100
H1651	H165	0.112300	0.195100	0.301300
H1661	H166	0.126100	0.183700	0.376900
H1671	H167	0.176500	0.228900	0.343400
C1641	C164	0.290100	0.159200	0.377400
H1681	H168	0.265700	0.144900	0.416700
H1691	H169	0.338800	0.138800	0.365000
H1701	H170	0.308000	0.194200	0.385800
N151	N15	0.348400	0.803700	0.510600
C1651	C165	0.413700	0.822000	0.524200
S151	S15	0.503100	0.845610	0.543400
S161	S16	0.262610	0.483610	0.301380
C1661	C166	0.352100	0.458500	0.343400
C1671	C167	0.419500	0.489000	0.364400
C1681	C168	0.486700	0.467300	0.398100
C1691	C169	0.483900	0.416000	0.416200
H1711	H171	0.529500	0.401900	0.440400
C1701	C170	0.414500	0.384900	0.399300
C1711	C171	0.350600	0.407500	0.360700
H1721	H172	0.304900	0.387100	0.346100
O111	O11	0.418600	0.540940	0.353300
C1721	C172	0.368700	0.566000	0.402700
H1731	H173	0.309000	0.555800	0.398000
H1741	H174	0.389000	0.555900	0.446500
C1731	C173	0.376500	0.622500	0.394900
C1741	C174	0.325100	0.652200	0.432400
H1751	H175	0.285700	0.635500	0.459100
N161	N16	0.327400	0.703600	0.433500
C1751	C175	0.380600	0.726000	0.394000
H1761	H176	0.382400	0.762000	0.393600
C1761	C176	0.432900	0.700300	0.353800
H1771	H177	0.469700	0.718200	0.326100
C1771	C177	0.431200	0.647200	0.354100
H1781	H178	0.467100	0.628400	0.326700
C1781	C178	0.408000	0.329800	0.421700
C1791	C179	0.325900	0.323100	0.458600
H1791	H179	0.278800	0.335500	0.431800
H1801	H180	0.317500	0.287100	0.468400
H1811	H181	0.329000	0.342500	0.499100
C1801	C180	0.404600	0.294300	0.362100
H1821	H182	0.452600	0.301300	0.334400
H1831	H183	0.406500	0.259000	0.376600
H1841	H184	0.352300	0.300300	0.337500
C1811	C181	0.482300	0.313700	0.464800
H1851	H185	0.484700	0.335100	0.503600
H1861	H186	0.475300	0.278200	0.477700
H1871	H187	0.534500	0.317400	0.440900
S171	S17	0.571720	0.505110	0.430350
C1821	C182	0.622200	0.530400	0.361000
C1831	C183	0.650100	0.500300	0.312000
C1841	C184	0.696400	0.521700	0.261700
C1851	C185	0.715600	0.573400	0.263800
H1881	H188	0.745300	0.587900	0.228800
C1861	C186	0.693400	0.603800	0.313900
C1871	C187	0.644100	0.581800	0.362800
H1891	H189	0.625500	0.602300	0.397600
O121	O12	0.635700	0.448000	0.312800
C1881	C188	0.707400	0.422400	0.344400
H1901	H190	0.758600	0.426900	0.318400
H1911	H191	0.718000	0.436900	0.388000
C1891	C189	0.686500	0.367000	0.349700
C1901	C190	0.718900	0.339500	0.401800
H1921	H192	0.752200	0.356900	0.433400
N171	N17	0.705600	0.289300	0.410000
C1911	C191	0.659900	0.264600	0.363800
H1931	H193	0.650800	0.229200	0.368500
C1921	C192	0.626000	0.289000	0.310200
H1941	H194	0.594500	0.270500	0.278600
C1931	C193	0.638300	0.340700	0.303100
H1951	H195	0.614400	0.358200	0.267000
C1941	C194	0.723500	0.658600	0.321500
C1951	C195	0.765500	0.678000	0.260500
H1961	H196	0.779200	0.714000	0.265800
H1971	H197	0.817200	0.658700	0.253300
H1981	H198	0.727200	0.673700	0.223200
C1961	C196	0.653500	0.694700	0.337100
H1991	H199	0.612300	0.695100	0.301300
H2001	H200	0.626100	0.683700	0.376900
H2011	H201	0.676500	0.728900	0.343400
C1971	C197	0.790100	0.659200	0.377400
H2021	H202	0.765700	0.644900	0.416700
H2031	H203	0.838800	0.638800	0.365000
H2041	H204	0.808000	0.694200	0.385800
N181	N18	0.848400	0.303700	0.510600
C1981	C198	0.913700	0.322000	0.524200
S181	S18	0.003100	0.345610	0.543400
S191	S19	0.237390	0.983610	0.198620
C1991	C199	0.147900	0.958500	0.156600
C2001	C200	0.080500	0.989000	0.135600
C2011	C201	0.013300	0.967300	0.101900
C2021	C202	0.016100	0.916000	0.083800
H2051	H205	0.970500	0.901900	0.059600
C2031	C203	0.085500	0.884900	0.100700
C2041	C204	0.149400	0.907500	0.139300
H2061	H206	0.195100	0.887100	0.153900
O131	O13	0.081400	0.040940	0.146700
C2051	C205	0.131300	0.066000	0.097300
H2071	H207	0.191000	0.055800	0.102000
H2081	H208	0.111000	0.055900	0.053500
C2061	C206	0.123500	0.122500	0.105100
C2071	C207	0.174900	0.152200	0.067600
H2091	H209	0.214300	0.135500	0.040900
N191	N19	0.172600	0.203600	0.066500
C2081	C208	0.119400	0.226000	0.106000
H2101	H210	0.117600	0.262000	0.106400
C2091	C209	0.067100	0.200300	0.146200
H2111	H211	0.030300	0.218200	0.173900
C2101	C210	0.068800	0.147200	0.145900
H2121	H212	0.032900	0.128400	0.173300
C2111	C211	0.092000	0.829800	0.078300
C2121	C212	0.174100	0.823100	0.041400
H2131	H213	0.221200	0.835500	0.068200
H2141	H214	0.182500	0.787100	0.031600
H2151	H215	0.171000	0.842500	0.000900
C2131	C213	0.095400	0.794300	0.137900
H2161	H216	0.047400	0.801300	0.165600
H2171	H217	0.093500	0.759000	0.123400
H2181	H218	0.147700	0.800300	0.162500
C2141	C214	0.017700	0.813700	0.035200
H2191	H219	0.015300	0.835100	0.996400
H2201	H220	0.024700	0.778200	0.022300
H2211	H221	0.965500	0.817400	0.059100
S201	S20	0.928280	0.005110	0.069650
C2151	C215	0.877800	0.030400	0.139000
C2161	C216	0.849900	0.000300	0.188000
C2171	C217	0.803600	0.021700	0.238300
C2181	C218	0.784400	0.073400	0.236200
H2221	H222	0.754700	0.087900	0.271200
C2191	C219	0.806600	0.103800	0.186100
C2201	C220	0.855900	0.081800	0.137200
H2231	H223	0.874500	0.102300	0.102400
O141	O14	0.864300	0.948000	0.187200
C2211	C221	0.792600	0.922400	0.155600
H2241	H224	0.741400	0.926900	0.181600
H2251	H225	0.782000	0.936900	0.112000
C2221	C222	0.813500	0.867000	0.150300
C2231	C223	0.781100	0.839500	0.098200
H2261	H226	0.747800	0.856900	0.066600
N201	N20	0.794400	0.789300	0.090000
C2241	C224	0.840100	0.764600	0.136200
H2271	H227	0.849200	0.729200	0.131500
C2251	C225	0.874000	0.789000	0.189800
H2281	H228	0.905500	0.770500	0.221400
C2261	C226	0.861700	0.840700	0.196900
H2291	H229	0.885600	0.858200	0.233000
C2271	C227	0.776500	0.158600	0.178500
C2281	C228	0.734500	0.178000	0.239500
H2301	H230	0.720800	0.214000	0.234200
H2311	H231	0.682800	0.158700	0.246700
H2321	H232	0.772800	0.173700	0.276800
C2291	C229	0.846500	0.194700	0.162900
H2331	H233	0.887700	0.195100	0.198700
H2341	H234	0.873900	0.183700	0.123100
H2351	H235	0.823500	0.228900	0.156600
C2301	C230	0.709900	0.159200	0.122600
H2361	H236	0.734300	0.144900	0.083300
H2371	H237	0.661200	0.138800	0.135000
H2381	H238	0.692000	0.194200	0.114200
N211	N21	0.651600	0.803700	0.989400
C2311	C231	0.586300	0.822000	0.975800
S211	S21	0.496900	0.845610	0.956600
S221	S22	0.737390	0.483610	0.198620
C2321	C232	0.647900	0.458500	0.156600
C2331	C233	0.580500	0.489000	0.135600
C2341	C234	0.513300	0.467300	0.101900
C2351	C235	0.516100	0.416000	0.083800
H2391	H239	0.470500	0.401900	0.059600
C2361	C236	0.585500	0.384900	0.100700
C2371	C237	0.649400	0.407500	0.139300
H2401	H240	0.695100	0.387100	0.153900
O151	O15	0.581400	0.540940	0.146700
C2381	C238	0.631300	0.566000	0.097300
H2411	H241	0.691000	0.555800	0.102000
H2421	H242	0.611000	0.555900	0.053500
C2391	C239	0.623500	0.622500	0.105100
C2401	C240	0.674900	0.652200	0.067600
H2431	H243	0.714300	0.635500	0.040900
N221	N22	0.672600	0.703600	0.066500
C2411	C241	0.619400	0.726000	0.106000
H2441	H244	0.617600	0.762000	0.106400
C2421	C242	0.567100	0.700300	0.146200
H2451	H245	0.530300	0.718200	0.173900
C2431	C243	0.568800	0.647200	0.145900
H2461	H246	0.532900	0.628400	0.173300
C2441	C244	0.592000	0.329800	0.078300
C2451	C245	0.674100	0.323100	0.041400
H2471	H247	0.721200	0.335500	0.068200
H2481	H248	0.682500	0.287100	0.031600
H2491	H249	0.671000	0.342500	0.000900
C2461	C246	0.595400	0.294300	0.137900
H2501	H250	0.547400	0.301300	0.165600
H2511	H251	0.593500	0.259000	0.123400
H2521	H252	0.647700	0.300300	0.162500
C2471	C247	0.517700	0.313700	0.035200
H2531	H253	0.515300	0.335100	0.996400
H2541	H254	0.524700	0.278200	0.022300
H2551	H255	0.465500	0.317400	0.059100
S231	S23	0.428280	0.505110	0.069650
C2481	C248	0.377800	0.530400	0.139000
C2491	C249	0.349900	0.500300	0.188000
C2501	C250	0.303600	0.521700	0.238300
C2511	C251	0.284400	0.573400	0.236200
H2561	H256	0.254700	0.587900	0.271200
C2521	C252	0.306600	0.603800	0.186100
C2531	C253	0.355900	0.581800	0.137200
H2571	H257	0.374500	0.602300	0.102400
O161	O16	0.364300	0.448000	0.187200
C2541	C254	0.292600	0.422400	0.155600
H2581	H258	0.241400	0.426900	0.181600
H2591	H259	0.282000	0.436900	0.112000
C2551	C255	0.313500	0.367000	0.150300
C2561	C256	0.281100	0.339500	0.098200
H2601	H260	0.247800	0.356900	0.066600
N231	N23	0.294400	0.289300	0.090000
C2571	C257	0.340100	0.264600	0.136200
H2611	H261	0.349200	0.229200	0.131500
C2581	C258	0.374000	0.289000	0.189800
H2621	H262	0.405500	0.270500	0.221400
C2591	C259	0.361700	0.340700	0.196900
H2631	H263	0.385600	0.358200	0.233000
C2601	C260	0.276500	0.658600	0.178500
C2611	C261	0.234500	0.678000	0.239500
H2641	H264	0.220800	0.714000	0.234200
H2651	H265	0.182800	0.658700	0.246700
H2661	H266	0.272800	0.673700	0.276800
C2621	C262	0.346500	0.694700	0.162900
H2671	H267	0.387700	0.695100	0.198700
H2681	H268	0.373900	0.683700	0.123100
H2691	H269	0.323500	0.728900	0.156600
C2631	C263	0.209900	0.659200	0.122600
H2701	H270	0.234300	0.644900	0.083300
H2711	H271	0.161200	0.638800	0.135000
H2721	H272	0.192000	0.694200	0.114200
N241	N24	0.151600	0.303700	0.989400
C2641	C264	0.086300	0.322000	0.975800
S241	S24	0.996900	0.345610	0.956600
Fe11	Fe1	0.750000	0.250000	0.500000
Fe21	Fe2	0.250000	0.250000	0.000000
Fe31	Fe3	0.250000	0.750000	0.500000
Fe41	Fe4	0.750000	0.750000	0.000000
