data_IXAMAW_clean_PM
_symmetry_space_group_name_H-M	'P1'
_cell_length_a	10.292000
_cell_length_b	10.292000
_cell_length_c	9.629000
_cell_angle_alpha	90.000000
_cell_angle_beta	90.000000
_cell_angle_gamma	90.000000
_symmetry_Int_Tables_number 1

loop_
_symmetry_equiv_pos_as_xyz
'x,y,z'

loop_
_atom_site_label
_atom_site_type_symbol
_atom_site_fract_x
_atom_site_fract_y
_atom_site_fract_z
O11	O1	0.523500	0.695100	0.722900
O21	O2	0.023500	0.195100	0.222900
O31	O3	0.476500	0.304900	0.722900
O41	O4	0.976500	0.804900	0.222900
O51	O5	0.695100	0.476500	0.277100
O61	O6	0.195100	0.976500	0.777100
O71	O7	0.304900	0.523500	0.277100
O81	O8	0.804900	0.023500	0.777100
O91	O9	0.476500	0.695100	0.277100
O101	O10	0.976500	0.195100	0.777100
O111	O11	0.523500	0.304900	0.277100
O121	O12	0.023500	0.804900	0.777100
O131	O13	0.304900	0.476500	0.722900
O141	O14	0.804900	0.976500	0.222900
O151	O15	0.695100	0.523500	0.722900
O161	O16	0.195100	0.023500	0.222900
Fe11	Fe1	0.634420	0.634420	0.365200
P11	P1	0.663100	0.663100	0.691500
O171	O17	0.702600	0.702600	0.545900
O181	O18	0.738200	0.738200	0.795000
Fe21	Fe2	0.134420	0.134420	0.865200
P21	P2	0.163100	0.163100	0.191500
O191	O19	0.202600	0.202600	0.045900
O201	O20	0.238200	0.238200	0.295000
Fe31	Fe3	0.365580	0.365580	0.365200
P31	P3	0.336900	0.336900	0.691500
O211	O21	0.297400	0.297400	0.545900
O221	O22	0.261800	0.261800	0.795000
Fe41	Fe4	0.865580	0.865580	0.865200
P41	P4	0.836900	0.836900	0.191500
O231	O23	0.797400	0.797400	0.045900
O241	O24	0.761800	0.761800	0.295000
Fe51	Fe5	0.634420	0.365580	0.634800
P51	P5	0.663100	0.336900	0.308500
O251	O25	0.702600	0.297400	0.454100
O261	O26	0.738200	0.261800	0.205000
Fe61	Fe6	0.134420	0.865580	0.134800
P61	P6	0.163100	0.836900	0.808500
O271	O27	0.202600	0.797400	0.954100
O281	O28	0.238200	0.761800	0.705000
Fe71	Fe7	0.365580	0.634420	0.634800
P71	P7	0.336900	0.663100	0.308500
O291	O29	0.297400	0.702600	0.454100
O301	O30	0.261800	0.738200	0.205000
Fe81	Fe8	0.865580	0.134420	0.134800
P81	P8	0.836900	0.163100	0.808500
O311	O31	0.797400	0.202600	0.954100
O321	O32	0.761800	0.238200	0.705000
