data_IXEBEU_clean_PM
_symmetry_space_group_name_H-M	'P1'
_cell_length_a	8.274000
_cell_length_b	20.563000
_cell_length_c	54.367000
_cell_angle_alpha	90.000000
_cell_angle_beta	90.000000
_cell_angle_gamma	90.000000
_symmetry_Int_Tables_number 1

loop_
_symmetry_equiv_pos_as_xyz
'x,y,z'

loop_
_atom_site_label
_atom_site_type_symbol
_atom_site_fract_x
_atom_site_fract_y
_atom_site_fract_z
N11	N1	0.120700	0.199250	0.596710
C11	C1	0.135500	0.291500	0.558830
C21	C2	0.138300	0.338900	0.538290
N21	N2	0.233000	0.256540	0.510780
N31	N3	0.130400	0.429400	0.499700
C31	C3	0.173300	0.367600	0.495890
H11	H1	0.200400	0.354900	0.480000
C41	C4	0.179300	0.321500	0.514530
C51	C5	0.033600	0.236700	0.557330
H21	H2	0.968700	0.230200	0.543600
C61	C6	0.097600	0.446700	0.522020
H31	H3	0.071400	0.490000	0.524900
C71	C7	0.099400	0.403700	0.542150
H41	H4	0.074700	0.418500	0.557900
C81	C8	0.031800	0.192700	0.576550
H51	H5	0.964500	0.156600	0.575300
C91	C9	0.219100	0.298700	0.579750
H61	H6	0.283600	0.335300	0.581900
C101	C10	0.211500	0.252900	0.598250
H71	H7	0.272300	0.259600	0.612400
N41	N4	0.120700	0.699250	0.096710
C111	C11	0.135500	0.791500	0.058830
C121	C12	0.138300	0.838900	0.038290
N51	N5	0.233000	0.756540	0.010780
N61	N6	0.130400	0.929400	0.999700
C131	C13	0.173300	0.867600	0.995890
H81	H8	0.200400	0.854900	0.980000
C141	C14	0.179300	0.821500	0.014530
C151	C15	0.033600	0.736700	0.057330
H91	H9	0.968700	0.730200	0.043600
C161	C16	0.097600	0.946700	0.022020
H101	H10	0.071400	0.990000	0.024900
C171	C17	0.099400	0.903700	0.042150
H111	H11	0.074700	0.918500	0.057900
C181	C18	0.031800	0.692700	0.076550
H121	H12	0.964500	0.656600	0.075300
C191	C19	0.219100	0.798700	0.079750
H131	H13	0.283600	0.835300	0.081900
C201	C20	0.211500	0.752900	0.098250
H141	H14	0.272300	0.759600	0.112400
N71	N7	0.620700	0.199250	0.096710
C211	C21	0.635500	0.291500	0.058830
C221	C22	0.638300	0.338900	0.038290
N81	N8	0.733000	0.256540	0.010780
N91	N9	0.630400	0.429400	0.999700
C231	C23	0.673300	0.367600	0.995890
H151	H15	0.700400	0.354900	0.980000
C241	C24	0.679300	0.321500	0.014530
C251	C25	0.533600	0.236700	0.057330
H161	H16	0.468700	0.230200	0.043600
C261	C26	0.597600	0.446700	0.022020
H171	H17	0.571400	0.490000	0.024900
C271	C27	0.599400	0.403700	0.042150
H181	H18	0.574700	0.418500	0.057900
C281	C28	0.531800	0.192700	0.076550
H191	H19	0.464500	0.156600	0.075300
C291	C29	0.719100	0.298700	0.079750
H201	H20	0.783600	0.335300	0.081900
C301	C30	0.711500	0.252900	0.098250
H211	H21	0.772300	0.259600	0.112400
N101	N10	0.620700	0.699250	0.596710
C311	C31	0.635500	0.791500	0.558830
C321	C32	0.638300	0.838900	0.538290
N111	N11	0.733000	0.756540	0.510780
N121	N12	0.630400	0.929400	0.499700
C331	C33	0.673300	0.867600	0.495890
H221	H22	0.700400	0.854900	0.480000
C341	C34	0.679300	0.821500	0.514530
C351	C35	0.533600	0.736700	0.557330
H231	H23	0.468700	0.730200	0.543600
C361	C36	0.597600	0.946700	0.522020
H241	H24	0.571400	0.990000	0.524900
C371	C37	0.599400	0.903700	0.542150
H251	H25	0.574700	0.918500	0.557900
C381	C38	0.531800	0.692700	0.576550
H261	H26	0.464500	0.656600	0.575300
C391	C39	0.719100	0.798700	0.579750
H271	H27	0.783600	0.835300	0.581900
C401	C40	0.711500	0.752900	0.598250
H281	H28	0.772300	0.759600	0.612400
N131	N13	0.629300	0.550750	0.596710
C411	C41	0.614500	0.458500	0.558830
C421	C42	0.611700	0.411100	0.538290
N141	N14	0.517000	0.493460	0.510780
N151	N15	0.619600	0.320600	0.499700
C431	C43	0.576700	0.382400	0.495890
H291	H29	0.549600	0.395100	0.480000
C441	C44	0.570700	0.428500	0.514530
C451	C45	0.716400	0.513300	0.557330
H301	H30	0.781300	0.519800	0.543600
C461	C46	0.652400	0.303300	0.522020
H311	H31	0.678600	0.260000	0.524900
C471	C47	0.650600	0.346300	0.542150
H321	H32	0.675300	0.331500	0.557900
C481	C48	0.718200	0.557300	0.576550
H331	H33	0.785500	0.593400	0.575300
C491	C49	0.530900	0.451300	0.579750
H341	H34	0.466400	0.414700	0.581900
C501	C50	0.538500	0.497100	0.598250
H351	H35	0.477700	0.490400	0.612400
N161	N16	0.629300	0.050750	0.096710
C511	C51	0.614500	0.958500	0.058830
C521	C52	0.611700	0.911100	0.038290
N171	N17	0.517000	0.993460	0.010780
N181	N18	0.619600	0.820600	0.999700
C531	C53	0.576700	0.882400	0.995890
H361	H36	0.549600	0.895100	0.980000
C541	C54	0.570700	0.928500	0.014530
C551	C55	0.716400	0.013300	0.057330
H371	H37	0.781300	0.019800	0.043600
C561	C56	0.652400	0.803300	0.022020
H381	H38	0.678600	0.760000	0.024900
C571	C57	0.650600	0.846300	0.042150
H391	H39	0.675300	0.831500	0.057900
C581	C58	0.718200	0.057300	0.076550
H401	H40	0.785500	0.093400	0.075300
C591	C59	0.530900	0.951300	0.079750
H411	H41	0.466400	0.914700	0.081900
C601	C60	0.538500	0.997100	0.098250
H421	H42	0.477700	0.990400	0.112400
N191	N19	0.129300	0.550750	0.096710
C611	C61	0.114500	0.458500	0.058830
C621	C62	0.111700	0.411100	0.038290
N201	N20	0.017000	0.493460	0.010780
N211	N21	0.119600	0.320600	0.999700
C631	C63	0.076700	0.382400	0.995890
H431	H43	0.049600	0.395100	0.980000
C641	C64	0.070700	0.428500	0.014530
C651	C65	0.216400	0.513300	0.057330
H441	H44	0.281300	0.519800	0.043600
C661	C66	0.152400	0.303300	0.022020
H451	H45	0.178600	0.260000	0.024900
C671	C67	0.150600	0.346300	0.042150
H461	H46	0.175300	0.331500	0.057900
C681	C68	0.218200	0.557300	0.076550
H471	H47	0.285500	0.593400	0.075300
C691	C69	0.030900	0.451300	0.079750
H481	H48	0.966400	0.414700	0.081900
C701	C70	0.038500	0.497100	0.098250
H491	H49	0.977700	0.490400	0.112400
N221	N22	0.129300	0.050750	0.596710
C711	C71	0.114500	0.958500	0.558830
C721	C72	0.111700	0.911100	0.538290
N231	N23	0.017000	0.993460	0.510780
N241	N24	0.119600	0.820600	0.499700
C731	C73	0.076700	0.882400	0.495890
H501	H50	0.049600	0.895100	0.480000
C741	C74	0.070700	0.928500	0.514530
C751	C75	0.216400	0.013300	0.557330
H511	H51	0.281300	0.019800	0.543600
C761	C76	0.152400	0.803300	0.522020
H521	H52	0.178600	0.760000	0.524900
C771	C77	0.150600	0.846300	0.542150
H531	H53	0.175300	0.831500	0.557900
C781	C78	0.218200	0.057300	0.576550
H541	H54	0.285500	0.093400	0.575300
C791	C79	0.030900	0.951300	0.579750
H551	H55	0.966400	0.914700	0.581900
C801	C80	0.038500	0.997100	0.598250
H561	H56	0.977700	0.990400	0.612400
N251	N25	0.629300	0.199250	0.153290
C811	C81	0.614500	0.291500	0.191170
C821	C82	0.611700	0.338900	0.211710
N261	N26	0.517000	0.256540	0.239220
N271	N27	0.619600	0.429400	0.250300
C831	C83	0.576700	0.367600	0.254110
H571	H57	0.549600	0.354900	0.270000
C841	C84	0.570700	0.321500	0.235470
C851	C85	0.716400	0.236700	0.192670
H581	H58	0.781300	0.230200	0.206400
C861	C86	0.652400	0.446700	0.227980
H591	H59	0.678600	0.490000	0.225100
C871	C87	0.650600	0.403700	0.207850
H601	H60	0.675300	0.418500	0.192100
C881	C88	0.718200	0.192700	0.173450
H611	H61	0.785500	0.156600	0.174700
C891	C89	0.530900	0.298700	0.170250
H621	H62	0.466400	0.335300	0.168100
C901	C90	0.538500	0.252900	0.151750
H631	H63	0.477700	0.259600	0.137600
N281	N28	0.629300	0.699250	0.653290
C911	C91	0.614500	0.791500	0.691170
C921	C92	0.611700	0.838900	0.711710
N291	N29	0.517000	0.756540	0.739220
N301	N30	0.619600	0.929400	0.750300
C931	C93	0.576700	0.867600	0.754110
H641	H64	0.549600	0.854900	0.770000
C941	C94	0.570700	0.821500	0.735470
C951	C95	0.716400	0.736700	0.692670
H651	H65	0.781300	0.730200	0.706400
C961	C96	0.652400	0.946700	0.727980
H661	H66	0.678600	0.990000	0.725100
C971	C97	0.650600	0.903700	0.707850
H671	H67	0.675300	0.918500	0.692100
C981	C98	0.718200	0.692700	0.673450
H681	H68	0.785500	0.656600	0.674700
C991	C99	0.530900	0.798700	0.670250
H691	H69	0.466400	0.835300	0.668100
C1001	C100	0.538500	0.752900	0.651750
H701	H70	0.477700	0.759600	0.637600
N311	N31	0.129300	0.199250	0.653290
C1011	C101	0.114500	0.291500	0.691170
C1021	C102	0.111700	0.338900	0.711710
N321	N32	0.017000	0.256540	0.739220
N331	N33	0.119600	0.429400	0.750300
C1031	C103	0.076700	0.367600	0.754110
H711	H71	0.049600	0.354900	0.770000
C1041	C104	0.070700	0.321500	0.735470
C1051	C105	0.216400	0.236700	0.692670
H721	H72	0.281300	0.230200	0.706400
C1061	C106	0.152400	0.446700	0.727980
H731	H73	0.178600	0.490000	0.725100
C1071	C107	0.150600	0.403700	0.707850
H741	H74	0.175300	0.418500	0.692100
C1081	C108	0.218200	0.192700	0.673450
H751	H75	0.285500	0.156600	0.674700
C1091	C109	0.030900	0.298700	0.670250
H761	H76	0.966400	0.335300	0.668100
C1101	C110	0.038500	0.252900	0.651750
H771	H77	0.977700	0.259600	0.637600
N341	N34	0.129300	0.699250	0.153290
C1111	C111	0.114500	0.791500	0.191170
C1121	C112	0.111700	0.838900	0.211710
N351	N35	0.017000	0.756540	0.239220
N361	N36	0.119600	0.929400	0.250300
C1131	C113	0.076700	0.867600	0.254110
H781	H78	0.049600	0.854900	0.270000
C1141	C114	0.070700	0.821500	0.235470
C1151	C115	0.216400	0.736700	0.192670
H791	H79	0.281300	0.730200	0.206400
C1161	C116	0.152400	0.946700	0.227980
H801	H80	0.178600	0.990000	0.225100
C1171	C117	0.150600	0.903700	0.207850
H811	H81	0.175300	0.918500	0.192100
C1181	C118	0.218200	0.692700	0.173450
H821	H82	0.285500	0.656600	0.174700
C1191	C119	0.030900	0.798700	0.170250
H831	H83	0.966400	0.835300	0.168100
C1201	C120	0.038500	0.752900	0.151750
H841	H84	0.977700	0.759600	0.137600
N371	N37	0.120700	0.550750	0.153290
C1211	C121	0.135500	0.458500	0.191170
C1221	C122	0.138300	0.411100	0.211710
N381	N38	0.233000	0.493460	0.239220
N391	N39	0.130400	0.320600	0.250300
C1231	C123	0.173300	0.382400	0.254110
H851	H85	0.200400	0.395100	0.270000
C1241	C124	0.179300	0.428500	0.235470
C1251	C125	0.033600	0.513300	0.192670
H861	H86	0.968700	0.519800	0.206400
C1261	C126	0.097600	0.303300	0.227980
H871	H87	0.071400	0.260000	0.225100
C1271	C127	0.099400	0.346300	0.207850
H881	H88	0.074700	0.331500	0.192100
C1281	C128	0.031800	0.557300	0.173450
H891	H89	0.964500	0.593400	0.174700
C1291	C129	0.219100	0.451300	0.170250
H901	H90	0.283600	0.414700	0.168100
C1301	C130	0.211500	0.497100	0.151750
H911	H91	0.272300	0.490400	0.137600
N401	N40	0.120700	0.050750	0.653290
C1311	C131	0.135500	0.958500	0.691170
C1321	C132	0.138300	0.911100	0.711710
N411	N41	0.233000	0.993460	0.739220
N421	N42	0.130400	0.820600	0.750300
C1331	C133	0.173300	0.882400	0.754110
H921	H92	0.200400	0.895100	0.770000
C1341	C134	0.179300	0.928500	0.735470
C1351	C135	0.033600	0.013300	0.692670
H931	H93	0.968700	0.019800	0.706400
C1361	C136	0.097600	0.803300	0.727980
H941	H94	0.071400	0.760000	0.725100
C1371	C137	0.099400	0.846300	0.707850
H951	H95	0.074700	0.831500	0.692100
C1381	C138	0.031800	0.057300	0.673450
H961	H96	0.964500	0.093400	0.674700
C1391	C139	0.219100	0.951300	0.670250
H971	H97	0.283600	0.914700	0.668100
C1401	C140	0.211500	0.997100	0.651750
H981	H98	0.272300	0.990400	0.637600
N431	N43	0.620700	0.550750	0.653290
C1411	C141	0.635500	0.458500	0.691170
C1421	C142	0.638300	0.411100	0.711710
N441	N44	0.733000	0.493460	0.739220
N451	N45	0.630400	0.320600	0.750300
C1431	C143	0.673300	0.382400	0.754110
H991	H99	0.700400	0.395100	0.770000
C1441	C144	0.679300	0.428500	0.735470
C1451	C145	0.533600	0.513300	0.692670
H1001	H100	0.468700	0.519800	0.706400
C1461	C146	0.597600	0.303300	0.727980
H1011	H101	0.571400	0.260000	0.725100
C1471	C147	0.599400	0.346300	0.707850
H1021	H102	0.574700	0.331500	0.692100
C1481	C148	0.531800	0.557300	0.673450
H1031	H103	0.464500	0.593400	0.674700
C1491	C149	0.719100	0.451300	0.670250
H1041	H104	0.783600	0.414700	0.668100
C1501	C150	0.711500	0.497100	0.651750
H1051	H105	0.772300	0.490400	0.637600
N461	N46	0.620700	0.050750	0.153290
C1511	C151	0.635500	0.958500	0.191170
C1521	C152	0.638300	0.911100	0.211710
N471	N47	0.733000	0.993460	0.239220
N481	N48	0.630400	0.820600	0.250300
C1531	C153	0.673300	0.882400	0.254110
H1061	H106	0.700400	0.895100	0.270000
C1541	C154	0.679300	0.928500	0.235470
C1551	C155	0.533600	0.013300	0.192670
H1071	H107	0.468700	0.019800	0.206400
C1561	C156	0.597600	0.803300	0.227980
H1081	H108	0.571400	0.760000	0.225100
C1571	C157	0.599400	0.846300	0.207850
H1091	H109	0.574700	0.831500	0.192100
C1581	C158	0.531800	0.057300	0.173450
H1101	H110	0.464500	0.093400	0.174700
C1591	C159	0.719100	0.951300	0.170250
H1111	H111	0.783600	0.914700	0.168100
C1601	C160	0.711500	0.997100	0.151750
H1121	H112	0.772300	0.990400	0.137600
N491	N49	0.879300	0.800750	0.403290
C1611	C161	0.864500	0.708500	0.441170
C1621	C162	0.861700	0.661100	0.461710
N501	N50	0.767000	0.743460	0.489220
N511	N51	0.869600	0.570600	0.500300
C1631	C163	0.826700	0.632400	0.504110
H1131	H113	0.799600	0.645100	0.520000
C1641	C164	0.820700	0.678500	0.485470
C1651	C165	0.966400	0.763300	0.442670
H1141	H114	0.031300	0.769800	0.456400
C1661	C166	0.902400	0.553300	0.477980
H1151	H115	0.928600	0.510000	0.475100
C1671	C167	0.900600	0.596300	0.457850
H1161	H116	0.925300	0.581500	0.442100
C1681	C168	0.968200	0.807300	0.423450
H1171	H117	0.035500	0.843400	0.424700
C1691	C169	0.780900	0.701300	0.420250
H1181	H118	0.716400	0.664700	0.418100
C1701	C170	0.788500	0.747100	0.401750
H1191	H119	0.727700	0.740400	0.387600
N521	N52	0.879300	0.300750	0.903290
C1711	C171	0.864500	0.208500	0.941170
C1721	C172	0.861700	0.161100	0.961710
N531	N53	0.767000	0.243460	0.989220
N541	N54	0.869600	0.070600	0.000300
C1731	C173	0.826700	0.132400	0.004110
H1201	H120	0.799600	0.145100	0.020000
C1741	C174	0.820700	0.178500	0.985470
C1751	C175	0.966400	0.263300	0.942670
H1211	H121	0.031300	0.269800	0.956400
C1761	C176	0.902400	0.053300	0.977980
H1221	H122	0.928600	0.010000	0.975100
C1771	C177	0.900600	0.096300	0.957850
H1231	H123	0.925300	0.081500	0.942100
C1781	C178	0.968200	0.307300	0.923450
H1241	H124	0.035500	0.343400	0.924700
C1791	C179	0.780900	0.201300	0.920250
H1251	H125	0.716400	0.164700	0.918100
C1801	C180	0.788500	0.247100	0.901750
H1261	H126	0.727700	0.240400	0.887600
N551	N55	0.379300	0.800750	0.903290
C1811	C181	0.364500	0.708500	0.941170
C1821	C182	0.361700	0.661100	0.961710
N561	N56	0.267000	0.743460	0.989220
N571	N57	0.369600	0.570600	0.000300
C1831	C183	0.326700	0.632400	0.004110
H1271	H127	0.299600	0.645100	0.020000
C1841	C184	0.320700	0.678500	0.985470
C1851	C185	0.466400	0.763300	0.942670
H1281	H128	0.531300	0.769800	0.956400
C1861	C186	0.402400	0.553300	0.977980
H1291	H129	0.428600	0.510000	0.975100
C1871	C187	0.400600	0.596300	0.957850
H1301	H130	0.425300	0.581500	0.942100
C1881	C188	0.468200	0.807300	0.923450
H1311	H131	0.535500	0.843400	0.924700
C1891	C189	0.280900	0.701300	0.920250
H1321	H132	0.216400	0.664700	0.918100
C1901	C190	0.288500	0.747100	0.901750
H1331	H133	0.227700	0.740400	0.887600
N581	N58	0.379300	0.300750	0.403290
C1911	C191	0.364500	0.208500	0.441170
C1921	C192	0.361700	0.161100	0.461710
N591	N59	0.267000	0.243460	0.489220
N601	N60	0.369600	0.070600	0.500300
C1931	C193	0.326700	0.132400	0.504110
H1341	H134	0.299600	0.145100	0.520000
C1941	C194	0.320700	0.178500	0.485470
C1951	C195	0.466400	0.263300	0.442670
H1351	H135	0.531300	0.269800	0.456400
C1961	C196	0.402400	0.053300	0.477980
H1361	H136	0.428600	0.010000	0.475100
C1971	C197	0.400600	0.096300	0.457850
H1371	H137	0.425300	0.081500	0.442100
C1981	C198	0.468200	0.307300	0.423450
H1381	H138	0.535500	0.343400	0.424700
C1991	C199	0.280900	0.201300	0.420250
H1391	H139	0.216400	0.164700	0.418100
C2001	C200	0.288500	0.247100	0.401750
H1401	H140	0.227700	0.240400	0.387600
N611	N61	0.370700	0.449250	0.403290
C2011	C201	0.385500	0.541500	0.441170
C2021	C202	0.388300	0.588900	0.461710
N621	N62	0.483000	0.506540	0.489220
N631	N63	0.380400	0.679400	0.500300
C2031	C203	0.423300	0.617600	0.504110
H1411	H141	0.450400	0.604900	0.520000
C2041	C204	0.429300	0.571500	0.485470
C2051	C205	0.283600	0.486700	0.442670
H1421	H142	0.218700	0.480200	0.456400
C2061	C206	0.347600	0.696700	0.477980
H1431	H143	0.321400	0.740000	0.475100
C2071	C207	0.349400	0.653700	0.457850
H1441	H144	0.324700	0.668500	0.442100
C2081	C208	0.281800	0.442700	0.423450
H1451	H145	0.214500	0.406600	0.424700
C2091	C209	0.469100	0.548700	0.420250
H1461	H146	0.533600	0.585300	0.418100
C2101	C210	0.461500	0.502900	0.401750
H1471	H147	0.522300	0.509600	0.387600
N641	N64	0.370700	0.949250	0.903290
C2111	C211	0.385500	0.041500	0.941170
C2121	C212	0.388300	0.088900	0.961710
N651	N65	0.483000	0.006540	0.989220
N661	N66	0.380400	0.179400	0.000300
C2131	C213	0.423300	0.117600	0.004110
H1481	H148	0.450400	0.104900	0.020000
C2141	C214	0.429300	0.071500	0.985470
C2151	C215	0.283600	0.986700	0.942670
H1491	H149	0.218700	0.980200	0.956400
C2161	C216	0.347600	0.196700	0.977980
H1501	H150	0.321400	0.240000	0.975100
C2171	C217	0.349400	0.153700	0.957850
H1511	H151	0.324700	0.168500	0.942100
C2181	C218	0.281800	0.942700	0.923450
H1521	H152	0.214500	0.906600	0.924700
C2191	C219	0.469100	0.048700	0.920250
H1531	H153	0.533600	0.085300	0.918100
C2201	C220	0.461500	0.002900	0.901750
H1541	H154	0.522300	0.009600	0.887600
N671	N67	0.870700	0.449250	0.903290
C2211	C221	0.885500	0.541500	0.941170
C2221	C222	0.888300	0.588900	0.961710
N681	N68	0.983000	0.506540	0.989220
N691	N69	0.880400	0.679400	0.000300
C2231	C223	0.923300	0.617600	0.004110
H1551	H155	0.950400	0.604900	0.020000
C2241	C224	0.929300	0.571500	0.985470
C2251	C225	0.783600	0.486700	0.942670
H1561	H156	0.718700	0.480200	0.956400
C2261	C226	0.847600	0.696700	0.977980
H1571	H157	0.821400	0.740000	0.975100
C2271	C227	0.849400	0.653700	0.957850
H1581	H158	0.824700	0.668500	0.942100
C2281	C228	0.781800	0.442700	0.923450
H1591	H159	0.714500	0.406600	0.924700
C2291	C229	0.969100	0.548700	0.920250
H1601	H160	0.033600	0.585300	0.918100
C2301	C230	0.961500	0.502900	0.901750
H1611	H161	0.022300	0.509600	0.887600
N701	N70	0.870700	0.949250	0.403290
C2311	C231	0.885500	0.041500	0.441170
C2321	C232	0.888300	0.088900	0.461710
N711	N71	0.983000	0.006540	0.489220
N721	N72	0.880400	0.179400	0.500300
C2331	C233	0.923300	0.117600	0.504110
H1621	H162	0.950400	0.104900	0.520000
C2341	C234	0.929300	0.071500	0.485470
C2351	C235	0.783600	0.986700	0.442670
H1631	H163	0.718700	0.980200	0.456400
C2361	C236	0.847600	0.196700	0.477980
H1641	H164	0.821400	0.240000	0.475100
C2371	C237	0.849400	0.153700	0.457850
H1651	H165	0.824700	0.168500	0.442100
C2381	C238	0.781800	0.942700	0.423450
H1661	H166	0.714500	0.906600	0.424700
C2391	C239	0.969100	0.048700	0.420250
H1671	H167	0.033600	0.085300	0.418100
C2401	C240	0.961500	0.002900	0.401750
H1681	H168	0.022300	0.009600	0.387600
N731	N73	0.370700	0.800750	0.846710
C2411	C241	0.385500	0.708500	0.808830
C2421	C242	0.388300	0.661100	0.788290
N741	N74	0.483000	0.743460	0.760780
N751	N75	0.380400	0.570600	0.749700
C2431	C243	0.423300	0.632400	0.745890
H1691	H169	0.450400	0.645100	0.730000
C2441	C244	0.429300	0.678500	0.764530
C2451	C245	0.283600	0.763300	0.807330
H1701	H170	0.218700	0.769800	0.793600
C2461	C246	0.347600	0.553300	0.772020
H1711	H171	0.321400	0.510000	0.774900
C2471	C247	0.349400	0.596300	0.792150
H1721	H172	0.324700	0.581500	0.807900
C2481	C248	0.281800	0.807300	0.826550
H1731	H173	0.214500	0.843400	0.825300
C2491	C249	0.469100	0.701300	0.829750
H1741	H174	0.533600	0.664700	0.831900
C2501	C250	0.461500	0.747100	0.848250
H1751	H175	0.522300	0.740400	0.862400
N761	N76	0.370700	0.300750	0.346710
C2511	C251	0.385500	0.208500	0.308830
C2521	C252	0.388300	0.161100	0.288290
N771	N77	0.483000	0.243460	0.260780
N781	N78	0.380400	0.070600	0.249700
C2531	C253	0.423300	0.132400	0.245890
H1761	H176	0.450400	0.145100	0.230000
C2541	C254	0.429300	0.178500	0.264530
C2551	C255	0.283600	0.263300	0.307330
H1771	H177	0.218700	0.269800	0.293600
C2561	C256	0.347600	0.053300	0.272020
H1781	H178	0.321400	0.010000	0.274900
C2571	C257	0.349400	0.096300	0.292150
H1791	H179	0.324700	0.081500	0.307900
C2581	C258	0.281800	0.307300	0.326550
H1801	H180	0.214500	0.343400	0.325300
C2591	C259	0.469100	0.201300	0.329750
H1811	H181	0.533600	0.164700	0.331900
C2601	C260	0.461500	0.247100	0.348250
H1821	H182	0.522300	0.240400	0.362400
N791	N79	0.870700	0.800750	0.346710
C2611	C261	0.885500	0.708500	0.308830
C2621	C262	0.888300	0.661100	0.288290
N801	N80	0.983000	0.743460	0.260780
N811	N81	0.880400	0.570600	0.249700
C2631	C263	0.923300	0.632400	0.245890
H1831	H183	0.950400	0.645100	0.230000
C2641	C264	0.929300	0.678500	0.264530
C2651	C265	0.783600	0.763300	0.307330
H1841	H184	0.718700	0.769800	0.293600
C2661	C266	0.847600	0.553300	0.272020
H1851	H185	0.821400	0.510000	0.274900
C2671	C267	0.849400	0.596300	0.292150
H1861	H186	0.824700	0.581500	0.307900
C2681	C268	0.781800	0.807300	0.326550
H1871	H187	0.714500	0.843400	0.325300
C2691	C269	0.969100	0.701300	0.329750
H1881	H188	0.033600	0.664700	0.331900
C2701	C270	0.961500	0.747100	0.348250
H1891	H189	0.022300	0.740400	0.362400
N821	N82	0.870700	0.300750	0.846710
C2711	C271	0.885500	0.208500	0.808830
C2721	C272	0.888300	0.161100	0.788290
N831	N83	0.983000	0.243460	0.760780
N841	N84	0.880400	0.070600	0.749700
C2731	C273	0.923300	0.132400	0.745890
H1901	H190	0.950400	0.145100	0.730000
C2741	C274	0.929300	0.178500	0.764530
C2751	C275	0.783600	0.263300	0.807330
H1911	H191	0.718700	0.269800	0.793600
C2761	C276	0.847600	0.053300	0.772020
H1921	H192	0.821400	0.010000	0.774900
C2771	C277	0.849400	0.096300	0.792150
H1931	H193	0.824700	0.081500	0.807900
C2781	C278	0.781800	0.307300	0.826550
H1941	H194	0.714500	0.343400	0.825300
C2791	C279	0.969100	0.201300	0.829750
H1951	H195	0.033600	0.164700	0.831900
C2801	C280	0.961500	0.247100	0.848250
H1961	H196	0.022300	0.240400	0.862400
N851	N85	0.879300	0.449250	0.846710
C2811	C281	0.864500	0.541500	0.808830
C2821	C282	0.861700	0.588900	0.788290
N861	N86	0.767000	0.506540	0.760780
N871	N87	0.869600	0.679400	0.749700
C2831	C283	0.826700	0.617600	0.745890
H1971	H197	0.799600	0.604900	0.730000
C2841	C284	0.820700	0.571500	0.764530
C2851	C285	0.966400	0.486700	0.807330
H1981	H198	0.031300	0.480200	0.793600
C2861	C286	0.902400	0.696700	0.772020
H1991	H199	0.928600	0.740000	0.774900
C2871	C287	0.900600	0.653700	0.792150
H2001	H200	0.925300	0.668500	0.807900
C2881	C288	0.968200	0.442700	0.826550
H2011	H201	0.035500	0.406600	0.825300
C2891	C289	0.780900	0.548700	0.829750
H2021	H202	0.716400	0.585300	0.831900
C2901	C290	0.788500	0.502900	0.848250
H2031	H203	0.727700	0.509600	0.862400
N881	N88	0.879300	0.949250	0.346710
C2911	C291	0.864500	0.041500	0.308830
C2921	C292	0.861700	0.088900	0.288290
N891	N89	0.767000	0.006540	0.260780
N901	N90	0.869600	0.179400	0.249700
C2931	C293	0.826700	0.117600	0.245890
H2041	H204	0.799600	0.104900	0.230000
C2941	C294	0.820700	0.071500	0.264530
C2951	C295	0.966400	0.986700	0.307330
H2051	H205	0.031300	0.980200	0.293600
C2961	C296	0.902400	0.196700	0.272020
H2061	H206	0.928600	0.240000	0.274900
C2971	C297	0.900600	0.153700	0.292150
H2071	H207	0.925300	0.168500	0.307900
C2981	C298	0.968200	0.942700	0.326550
H2081	H208	0.035500	0.906600	0.325300
C2991	C299	0.780900	0.048700	0.329750
H2091	H209	0.716400	0.085300	0.331900
C3001	C300	0.788500	0.002900	0.348250
H2101	H210	0.727700	0.009600	0.362400
N911	N91	0.379300	0.449250	0.346710
C3011	C301	0.364500	0.541500	0.308830
C3021	C302	0.361700	0.588900	0.288290
N921	N92	0.267000	0.506540	0.260780
N931	N93	0.369600	0.679400	0.249700
C3031	C303	0.326700	0.617600	0.245890
H2111	H211	0.299600	0.604900	0.230000
C3041	C304	0.320700	0.571500	0.264530
C3051	C305	0.466400	0.486700	0.307330
H2121	H212	0.531300	0.480200	0.293600
C3061	C306	0.402400	0.696700	0.272020
H2131	H213	0.428600	0.740000	0.274900
C3071	C307	0.400600	0.653700	0.292150
H2141	H214	0.425300	0.668500	0.307900
C3081	C308	0.468200	0.442700	0.326550
H2151	H215	0.535500	0.406600	0.325300
C3091	C309	0.280900	0.548700	0.329750
H2161	H216	0.216400	0.585300	0.331900
C3101	C310	0.288500	0.502900	0.348250
H2171	H217	0.227700	0.509600	0.362400
N941	N94	0.379300	0.949250	0.846710
C3111	C311	0.364500	0.041500	0.808830
C3121	C312	0.361700	0.088900	0.788290
N951	N95	0.267000	0.006540	0.760780
N961	N96	0.369600	0.179400	0.749700
C3131	C313	0.326700	0.117600	0.745890
H2181	H218	0.299600	0.104900	0.730000
C3141	C314	0.320700	0.071500	0.764530
C3151	C315	0.466400	0.986700	0.807330
H2191	H219	0.531300	0.980200	0.793600
C3161	C316	0.402400	0.196700	0.772020
H2201	H220	0.428600	0.240000	0.774900
C3171	C317	0.400600	0.153700	0.792150
H2211	H221	0.425300	0.168500	0.807900
C3181	C318	0.468200	0.942700	0.826550
H2221	H222	0.535500	0.906600	0.825300
C3191	C319	0.280900	0.048700	0.829750
H2231	H223	0.216400	0.085300	0.831900
C3201	C320	0.288500	0.002900	0.848250
H2241	H224	0.227700	0.009600	0.862400
Co11	Co1	0.125000	0.125000	0.625000
Co21	Co2	0.625000	0.625000	0.625000
Co31	Co3	0.625000	0.125000	0.125000
Co41	Co4	0.125000	0.625000	0.125000
Co51	Co5	0.875000	0.875000	0.375000
Co61	Co6	0.375000	0.375000	0.375000
Co71	Co7	0.375000	0.875000	0.875000
Co81	Co8	0.875000	0.375000	0.875000
