data_IXECET_clean_PM
_symmetry_space_group_name_H-M	'P1'
_cell_length_a	18.684200
_cell_length_b	18.684200
_cell_length_c	9.408000
_cell_angle_alpha	90.000000
_cell_angle_beta	90.000000
_cell_angle_gamma	90.000000
_symmetry_Int_Tables_number 1

loop_
_symmetry_equiv_pos_as_xyz
'x,y,z'

loop_
_atom_site_label
_atom_site_type_symbol
_atom_site_fract_x
_atom_site_fract_y
_atom_site_fract_z
P11	P1	0.064210	0.943400	0.334850
O11	O1	0.073400	0.918800	0.487100
O21	O2	0.058400	0.876800	0.242300
O31	O3	0.128600	0.988800	0.293300
O41	O4	0.995100	0.984900	0.321700
Al11	Al1	0.164530	0.044240	0.156710
O51	O5	0.155300	0.999300	0.988600
O61	O6	0.256000	0.062900	0.191700
O71	O7	0.373300	0.121700	0.155500
P21	P2	0.333310	0.050570	0.160260
O81	O8	0.342200	0.014000	0.017300
O91	O9	0.363800	0.004800	0.278100
Al21	Al2	0.065420	0.834140	0.080600
Co11	Co1	0.934580	0.165860	0.919400
O101	O10	0.137600	0.866500	0.982700
O111	O11	0.244600	0.919400	0.877200
P31	P3	0.166520	0.932220	0.904260
O121	O12	0.129700	0.939900	0.760500
Al31	Al3	0.050630	0.933610	0.664530
P41	P4	0.435790	0.556600	0.334850
O131	O13	0.426600	0.581200	0.487100
O141	O14	0.441600	0.623200	0.242300
O151	O15	0.371400	0.511200	0.293300
O161	O16	0.504900	0.515100	0.321700
Al41	Al4	0.335470	0.455760	0.156710
O171	O17	0.344700	0.500700	0.988600
O181	O18	0.244000	0.437100	0.191700
O191	O19	0.126700	0.378300	0.155500
P51	P5	0.166690	0.449430	0.160260
O201	O20	0.157800	0.486000	0.017300
O211	O21	0.136200	0.495200	0.278100
Al51	Al5	0.434580	0.665860	0.080600
Co21	Co2	0.565420	0.334140	0.919400
O221	O22	0.362400	0.633500	0.982700
O231	O23	0.255400	0.580600	0.877200
P61	P6	0.333480	0.567780	0.904260
O241	O24	0.370300	0.560100	0.760500
Al61	Al6	0.449370	0.566390	0.664530
P71	P7	0.556600	0.064210	0.334850
O251	O25	0.581200	0.073400	0.487100
O261	O26	0.623200	0.058400	0.242300
O271	O27	0.511200	0.128600	0.293300
O281	O28	0.515100	0.995100	0.321700
Al71	Al7	0.455760	0.164530	0.156710
O291	O29	0.500700	0.155300	0.988600
O301	O30	0.437100	0.256000	0.191700
O311	O31	0.378300	0.373300	0.155500
P81	P8	0.449430	0.333310	0.160260
O321	O32	0.486000	0.342200	0.017300
O331	O33	0.495200	0.363800	0.278100
Al81	Al8	0.665860	0.065420	0.080600
Co31	Co3	0.334140	0.934580	0.919400
O341	O34	0.633500	0.137600	0.982700
O351	O35	0.580600	0.244600	0.877200
P91	P9	0.567780	0.166520	0.904260
O361	O36	0.560100	0.129700	0.760500
Al91	Al9	0.566390	0.050630	0.664530
P101	P10	0.943400	0.435790	0.334850
O371	O37	0.918800	0.426600	0.487100
O381	O38	0.876800	0.441600	0.242300
O391	O39	0.988800	0.371400	0.293300
O401	O40	0.984900	0.504900	0.321700
Al101	Al10	0.044240	0.335470	0.156710
O411	O41	0.999300	0.344700	0.988600
O421	O42	0.062900	0.244000	0.191700
O431	O43	0.121700	0.126700	0.155500
P111	P11	0.050570	0.166690	0.160260
O441	O44	0.014000	0.157800	0.017300
O451	O45	0.004800	0.136200	0.278100
Al111	Al11	0.834140	0.434580	0.080600
Co41	Co4	0.165860	0.565420	0.919400
O461	O46	0.866500	0.362400	0.982700
O471	O47	0.919400	0.255400	0.877200
P121	P12	0.932220	0.333480	0.904260
O481	O48	0.939900	0.370300	0.760500
Al121	Al12	0.933610	0.449370	0.664530
P131	P13	0.935790	0.056600	0.665150
O491	O49	0.926600	0.081200	0.512900
O501	O50	0.941600	0.123200	0.757700
O511	O51	0.871400	0.011200	0.706700
O521	O52	0.004900	0.015100	0.678300
Al131	Al13	0.835470	0.955760	0.843290
O531	O53	0.844700	0.000700	0.011400
O541	O54	0.744000	0.937100	0.808300
O551	O55	0.626700	0.878300	0.844500
P141	P14	0.666690	0.949430	0.839740
O561	O56	0.657800	0.986000	0.982700
O571	O57	0.636200	0.995200	0.721900
O581	O58	0.862400	0.133500	0.017300
O591	O59	0.755400	0.080600	0.122800
P151	P15	0.833480	0.067780	0.095740
O601	O60	0.870300	0.060100	0.239500
Al141	Al14	0.949370	0.066390	0.335470
P161	P16	0.564210	0.443400	0.665150
O611	O61	0.573400	0.418800	0.512900
O621	O62	0.558400	0.376800	0.757700
O631	O63	0.628600	0.488800	0.706700
O641	O64	0.495100	0.484900	0.678300
Al151	Al15	0.664530	0.544240	0.843290
O651	O65	0.655300	0.499300	0.011400
O661	O66	0.756000	0.562900	0.808300
O671	O67	0.873300	0.621700	0.844500
P171	P17	0.833310	0.550570	0.839740
O681	O68	0.842200	0.514000	0.982700
O691	O69	0.863800	0.504800	0.721900
O701	O70	0.637600	0.366500	0.017300
O711	O71	0.744600	0.419400	0.122800
P181	P18	0.666520	0.432220	0.095740
O721	O72	0.629700	0.439900	0.239500
Al161	Al16	0.550630	0.433610	0.335470
P191	P19	0.443400	0.935790	0.665150
O731	O73	0.418800	0.926600	0.512900
O741	O74	0.376800	0.941600	0.757700
O751	O75	0.488800	0.871400	0.706700
O761	O76	0.484900	0.004900	0.678300
Al171	Al17	0.544240	0.835470	0.843290
O771	O77	0.499300	0.844700	0.011400
O781	O78	0.562900	0.744000	0.808300
O791	O79	0.621700	0.626700	0.844500
P201	P20	0.550570	0.666690	0.839740
O801	O80	0.514000	0.657800	0.982700
O811	O81	0.504800	0.636200	0.721900
O821	O82	0.366500	0.862400	0.017300
O831	O83	0.419400	0.755400	0.122800
P211	P21	0.432220	0.833480	0.095740
O841	O84	0.439900	0.870300	0.239500
Al181	Al18	0.433610	0.949370	0.335470
P221	P22	0.056600	0.564210	0.665150
O851	O85	0.081200	0.573400	0.512900
O861	O86	0.123200	0.558400	0.757700
O871	O87	0.011200	0.628600	0.706700
O881	O88	0.015100	0.495100	0.678300
Al191	Al19	0.955760	0.664530	0.843290
O891	O89	0.000700	0.655300	0.011400
O901	O90	0.937100	0.756000	0.808300
O911	O91	0.878300	0.873300	0.844500
P231	P23	0.949430	0.833310	0.839740
O921	O92	0.986000	0.842200	0.982700
O931	O93	0.995200	0.863800	0.721900
O941	O94	0.133500	0.637600	0.017300
O951	O95	0.080600	0.744600	0.122800
P241	P24	0.067780	0.666520	0.095740
O961	O96	0.060100	0.629700	0.239500
Al201	Al20	0.066390	0.550630	0.335470
