data_IXEQIL_clean_PM
_symmetry_space_group_name_H-M	'P1'
_cell_length_a	12.677400
_cell_length_b	12.677400
_cell_length_c	18.038100
_cell_angle_alpha	69.426600
_cell_angle_beta	69.426600
_cell_angle_gamma	89.999900
_symmetry_Int_Tables_number 1

loop_
_symmetry_equiv_pos_as_xyz
'x,y,z'

loop_
_atom_site_label
_atom_site_type_symbol
_atom_site_fract_x
_atom_site_fract_y
_atom_site_fract_z
Cd11	Cd1	0.577830	0.820050	0.860100
Cd21	Cd2	0.562070	0.319850	0.860100
Cd31	Cd3	0.570050	0.812070	0.360100
Cd41	Cd4	0.069850	0.827830	0.360100
Cd51	Cd5	0.187930	0.429950	0.639900
Cd61	Cd6	0.172170	0.930150	0.639900
Cd71	Cd7	0.680150	0.437930	0.139900
Cd81	Cd8	0.179950	0.422170	0.139900
H11	H1	0.933800	0.816100	0.655600
H21	H2	0.911200	0.969700	0.581600
H31	H3	0.768000	0.701600	0.634800
H41	H4	0.746100	0.872700	0.549400
H51	H5	0.628000	0.067400	0.870000
H61	H6	0.566000	0.995200	0.693200
H71	H7	0.465000	0.017200	0.767000
H81	H8	0.776300	0.028500	0.766600
H91	H9	0.753500	0.003100	0.692400
H101	H10	0.703900	0.138500	0.598600
H111	H11	0.389600	0.637100	0.036200
H121	H12	0.634800	0.570900	0.856800
H131	H13	0.674800	0.611200	0.964000
H141	H14	0.410600	0.528300	0.655600
H151	H15	0.507200	0.448700	0.581600
H161	H16	0.597200	0.663600	0.634800
H171	H17	0.704500	0.577900	0.549400
H181	H18	0.502000	0.062600	0.870000
H191	H19	0.740800	0.311600	0.693200
H201	H20	0.768000	0.215800	0.767000
H211	H21	0.457100	0.204900	0.766600
H221	H22	0.554100	0.304500	0.692400
H231	H23	0.697500	0.262900	0.598600
H241	H24	0.574200	0.326700	0.036200
H251	H25	0.508400	0.572300	0.856800
H261	H26	0.361200	0.424800	0.964000
H271	H27	0.566100	0.660600	0.155600
H281	H28	0.719700	0.757200	0.081600
H291	H29	0.451600	0.847200	0.134800
H301	H30	0.622700	0.954500	0.049400
H311	H31	0.817400	0.752000	0.370000
H321	H32	0.745200	0.990800	0.193200
H331	H33	0.767200	0.018000	0.267000
H341	H34	0.778500	0.707100	0.266600
H351	H35	0.753100	0.804100	0.192400
H361	H36	0.888500	0.947500	0.098600
H371	H37	0.387100	0.824200	0.536200
H381	H38	0.320900	0.758400	0.356800
H391	H39	0.361200	0.611200	0.464000
H401	H40	0.278300	0.183800	0.155600
H411	H41	0.198700	0.161200	0.081600
H421	H42	0.413600	0.018000	0.134800
H431	H43	0.327900	0.996100	0.049400
H441	H44	0.812600	0.878000	0.370000
H451	H45	0.061600	0.816000	0.193200
H461	H46	0.965800	0.715000	0.267000
H471	H47	0.954900	0.026300	0.266600
H481	H48	0.054500	0.003500	0.192400
H491	H49	0.012900	0.953900	0.098600
H501	H50	0.076700	0.639600	0.536200
H511	H51	0.322300	0.884800	0.356800
H521	H52	0.174800	0.924800	0.464000
H531	H53	0.339400	0.433900	0.844400
H541	H54	0.242800	0.280300	0.918400
H551	H55	0.152800	0.548400	0.865200
H561	H56	0.045500	0.377300	0.950600
H571	H57	0.248000	0.182600	0.630000
H581	H58	0.009200	0.254800	0.806800
H591	H59	0.982000	0.232800	0.733000
H601	H60	0.292900	0.221500	0.733400
H611	H61	0.195900	0.246900	0.807600
H621	H62	0.052500	0.111500	0.901400
H631	H63	0.175800	0.612900	0.463800
H641	H64	0.241600	0.679100	0.643200
H651	H65	0.388800	0.638800	0.536000
H661	H66	0.816200	0.721700	0.844400
H671	H67	0.838800	0.801300	0.918400
H681	H68	0.982000	0.586400	0.865200
H691	H69	0.003900	0.672100	0.950600
H701	H70	0.122000	0.187400	0.630000
H711	H71	0.184000	0.938400	0.806800
H721	H72	0.285000	0.034200	0.733000
H731	H73	0.973700	0.045100	0.733400
H741	H74	0.996500	0.945500	0.807600
H751	H75	0.046100	0.987100	0.901400
H761	H76	0.360400	0.923300	0.463800
H771	H77	0.115200	0.677700	0.643200
H781	H78	0.075200	0.825200	0.536000
H791	H79	0.471700	0.589400	0.344400
H801	H80	0.551300	0.492800	0.418400
H811	H81	0.336400	0.402800	0.365200
H821	H82	0.422100	0.295500	0.450600
H831	H83	0.937400	0.498000	0.130000
H841	H84	0.688400	0.259200	0.306800
H851	H85	0.784200	0.232000	0.233000
H861	H86	0.795100	0.542900	0.233400
H871	H87	0.695500	0.445900	0.307600
H881	H88	0.737100	0.302500	0.401400
H891	H89	0.673300	0.425800	0.963800
H901	H90	0.427700	0.491600	0.143200
H911	H91	0.575200	0.638800	0.036000
H921	H92	0.183900	0.066200	0.344400
H931	H93	0.030300	0.088800	0.418400
H941	H94	0.298400	0.232000	0.365200
H951	H95	0.127300	0.253900	0.450600
H961	H96	0.932600	0.372000	0.130000
H971	H97	0.004800	0.434000	0.306800
H981	H98	0.982800	0.535000	0.233000
H991	H99	0.971500	0.223700	0.233400
H1001	H100	0.996900	0.246500	0.307600
H1011	H101	0.861500	0.296100	0.401400
H1021	H102	0.362900	0.610400	0.963800
H1031	H103	0.429100	0.365200	0.143200
H1041	H104	0.388800	0.325200	0.036000
C11	C1	0.712500	0.787000	0.714800
C21	C2	0.798700	0.769700	0.640600
C31	C3	0.818300	0.869800	0.560400
C41	C4	0.906000	0.853400	0.489000
C51	C5	0.546500	0.041100	0.729400
C61	C6	0.731400	0.048100	0.729200
C71	C7	0.572700	0.498200	0.714800
C81	C8	0.560700	0.589700	0.640600
C91	C9	0.621300	0.569800	0.560400
C101	C10	0.605000	0.657600	0.489000
C111	C11	0.724100	0.229500	0.729400
C121	C12	0.539400	0.222700	0.729200
C131	C13	0.537000	0.822700	0.214800
C141	C14	0.519700	0.810700	0.140600
C151	C15	0.619800	0.871300	0.060400
C161	C16	0.603400	0.855000	0.989000
C171	C17	0.791100	0.974100	0.229400
C181	C18	0.798100	0.789400	0.229200
C191	C19	0.248200	0.962500	0.214800
C201	C20	0.339700	0.048700	0.140600
C211	C21	0.319800	0.068300	0.060400
C221	C22	0.407600	0.156000	0.989000
C231	C23	0.979500	0.796500	0.229400
C241	C24	0.972700	0.981400	0.229200
C251	C25	0.177300	0.463000	0.785200
C261	C26	0.189300	0.480300	0.859400
C271	C27	0.128700	0.380200	0.939600
C281	C28	0.145000	0.396600	0.011000
C291	C29	0.025900	0.208900	0.770600
C301	C30	0.210600	0.201900	0.770800
C311	C31	0.037500	0.751800	0.785200
C321	C32	0.951300	0.660300	0.859400
C331	C33	0.931700	0.680200	0.939600
C341	C34	0.844000	0.592400	0.011000
C351	C35	0.203500	0.020500	0.770600
C361	C36	0.018600	0.027300	0.770800
C371	C37	0.501800	0.427300	0.285200
C381	C38	0.410300	0.439300	0.359400
C391	C39	0.430200	0.378700	0.439600
C401	C40	0.342400	0.395000	0.511000
C411	C41	0.770500	0.275900	0.270600
C421	C42	0.777300	0.460600	0.270800
C431	C43	0.213000	0.287500	0.285200
C441	C44	0.230300	0.201300	0.359400
C451	C45	0.130200	0.181700	0.439600
C461	C46	0.146600	0.094000	0.511000
C471	C47	0.958900	0.453500	0.270600
C481	C48	0.951900	0.268600	0.270800
C491	C49	0.583600	0.083600	0.832800
C501	C50	0.681600	0.181600	0.636800
C511	C51	0.833600	0.833600	0.332800
C521	C52	0.931600	0.931600	0.136800
C531	C53	0.166400	0.166400	0.667200
C541	C54	0.068400	0.068400	0.863200
C551	C55	0.916400	0.416400	0.167200
C561	C56	0.818400	0.318400	0.363200
C571	C57	0.408700	0.591300	0.000000
C581	C58	0.591300	0.408700	0.000000
C591	C59	0.341300	0.841300	0.500000
C601	C60	0.158700	0.658700	0.500000
C611	C61	0.553000	0.553000	0.894000
C621	C62	0.303000	0.803000	0.394000
C631	C63	0.197000	0.697000	0.606000
C641	C64	0.447000	0.447000	0.106000
C651	C65	0.592500	0.592500	0.000000
C661	C66	0.407500	0.407500	0.000000
C671	C67	0.342500	0.657500	0.500000
C681	C68	0.157500	0.842500	0.500000
N11	N1	0.612500	0.014800	0.782200
N21	N2	0.561000	0.156900	0.675800
N31	N3	0.528000	0.620800	0.946000
N41	N4	0.605300	0.203000	0.782200
N51	N5	0.763200	0.167300	0.675800
N61	N6	0.526000	0.433200	0.946000
N71	N7	0.764800	0.855300	0.282200
N81	N8	0.906900	0.013200	0.175800
N91	N9	0.370800	0.776000	0.446000
N101	N10	0.953000	0.862500	0.282200
N111	N11	0.917300	0.811000	0.175800
N121	N12	0.183200	0.778000	0.446000
N131	N13	0.144700	0.235200	0.717800
N141	N14	0.986800	0.093100	0.824200
N151	N15	0.224000	0.629200	0.554000
N161	N16	0.137500	0.047000	0.717800
N171	N17	0.189000	0.082700	0.824200
N181	N18	0.222000	0.816800	0.554000
N191	N19	0.797000	0.394700	0.217800
N201	N20	0.832700	0.236800	0.324200
N211	N21	0.566800	0.474000	0.054000
N221	N22	0.985200	0.387500	0.217800
N231	N23	0.843100	0.439000	0.324200
N241	N24	0.379200	0.472000	0.054000
O11	O1	0.738100	0.793900	0.771000
O21	O2	0.616300	0.790500	0.718600
O31	O3	0.901300	0.749800	0.650800
O41	O4	0.839400	0.968700	0.572600
O51	O5	0.977200	0.937500	0.437400
O61	O6	0.908800	0.760300	0.483600
O71	O7	0.490900	0.435100	0.771000
O81	O8	0.665100	0.490900	0.718600
O91	O9	0.447900	0.599400	0.650800
O101	O10	0.588000	0.458700	0.572600
O111	O11	0.585400	0.625100	0.437400
O121	O12	0.607600	0.756100	0.483600
O131	O13	0.543900	0.740900	0.271000
O141	O14	0.540500	0.915100	0.218600
O151	O15	0.499800	0.697900	0.150800
O161	O16	0.718700	0.838000	0.072600
O171	O17	0.687500	0.835400	0.937400
O181	O18	0.510300	0.857600	0.983600
O191	O19	0.185100	0.988100	0.271000
O201	O20	0.240900	0.866300	0.218600
O211	O21	0.349400	0.151300	0.150800
O221	O22	0.208700	0.089400	0.072600
O231	O23	0.375100	0.227200	0.937400
O241	O24	0.506100	0.158800	0.983600
O251	O25	0.259100	0.456100	0.729000
O261	O26	0.084900	0.459500	0.781400
O271	O27	0.302100	0.500200	0.849200
O281	O28	0.162000	0.281300	0.927400
O291	O29	0.164600	0.312500	0.062600
O301	O30	0.142400	0.489700	0.016400
O311	O31	0.011900	0.814900	0.729000
O321	O32	0.133700	0.759100	0.781400
O331	O33	0.848700	0.650600	0.849200
O341	O34	0.910600	0.791300	0.927400
O351	O35	0.772800	0.624900	0.062600
O361	O36	0.841200	0.493900	0.016400
O371	O37	0.564900	0.509100	0.229000
O381	O38	0.509100	0.334900	0.281400
O391	O39	0.400600	0.552100	0.349200
O401	O40	0.541300	0.412000	0.427400
O411	O41	0.374900	0.414600	0.562600
O421	O42	0.243900	0.392400	0.516400
O431	O43	0.206100	0.261900	0.229000
O441	O44	0.209500	0.383700	0.281400
O451	O45	0.250200	0.098700	0.349200
O461	O46	0.031300	0.160600	0.427400
O471	O47	0.062500	0.022800	0.562600
O481	O48	0.239700	0.091200	0.516400
