data_IXISAJ_clean_PM
_symmetry_space_group_name_H-M	'P1'
_cell_length_a	12.600800
_cell_length_b	14.031300
_cell_length_c	14.031300
_cell_angle_alpha	78.368200
_cell_angle_beta	63.319000
_cell_angle_gamma	63.318900
_symmetry_Int_Tables_number 1

loop_
_symmetry_equiv_pos_as_xyz
'x,y,z'

loop_
_atom_site_label
_atom_site_type_symbol
_atom_site_fract_x
_atom_site_fract_y
_atom_site_fract_z
Cu11	Cu1	0.175720	0.476380	0.999000
Cu21	Cu2	0.651100	0.523620	0.001000
Cu31	Cu3	0.424720	0.501000	0.976380
Cu41	Cu4	0.902100	0.499000	0.023620
Cu51	Cu5	0.651100	0.001000	0.523620
Cu61	Cu6	0.175720	0.999000	0.476380
Cu71	Cu7	0.902100	0.023620	0.499000
Cu81	Cu8	0.424720	0.976380	0.501000
H11	H1	0.729600	0.392000	0.238400
H21	H2	0.799900	0.346200	0.123800
H31	H3	0.358700	0.250900	0.079300
H41	H4	0.299700	0.356800	0.139200
H51	H5	0.360000	0.608000	0.761600
H61	H6	0.269900	0.653800	0.876200
H71	H7	0.688900	0.749100	0.920700
H81	H8	0.795700	0.643200	0.860800
H91	H9	0.218000	0.261600	0.892000
H101	H10	0.173700	0.376200	0.846200
H111	H11	0.688000	0.420700	0.750900
H121	H12	0.688900	0.360800	0.856800
H131	H13	0.371600	0.738400	0.108000
H141	H14	0.396100	0.623800	0.153800
H151	H15	0.859600	0.579300	0.249100
H161	H16	0.906500	0.639200	0.143200
H171	H17	0.360000	0.761600	0.608000
H181	H18	0.269900	0.876200	0.653800
H191	H19	0.688900	0.920700	0.749100
H201	H20	0.795700	0.860800	0.643200
H211	H21	0.729600	0.238400	0.392000
H221	H22	0.799900	0.123800	0.346200
H231	H23	0.358700	0.079300	0.250900
H241	H24	0.299700	0.139200	0.356800
H251	H25	0.371600	0.108000	0.738400
H261	H26	0.396100	0.153800	0.623800
H271	H27	0.859600	0.249100	0.579300
H281	H28	0.906500	0.143200	0.639200
H291	H29	0.218000	0.892000	0.261600
H301	H30	0.173700	0.846200	0.376200
H311	H31	0.688000	0.750900	0.420700
H321	H32	0.688900	0.856800	0.360800
H331	H33	0.688600	0.250100	0.250100
H341	H34	0.832600	0.180700	0.180700
H351	H35	0.420400	0.206100	0.206100
H361	H36	0.294200	0.286100	0.286100
H371	H37	0.188800	0.749900	0.749900
H381	H38	0.194000	0.819300	0.819300
H391	H39	0.832600	0.793900	0.793900
H401	H40	0.866400	0.713900	0.713900
H411	H41	0.188700	0.249900	0.750100
H421	H42	0.263300	0.319300	0.680700
H431	H43	0.876500	0.293900	0.706100
H441	H44	0.830300	0.213900	0.786100
H451	H45	0.188700	0.750100	0.249900
H461	H46	0.263300	0.680700	0.319300
H471	H47	0.876500	0.706100	0.293900
H481	H48	0.830300	0.786100	0.213900
C11	C1	0.926600	0.319900	0.184300
C21	C2	0.159900	0.304200	0.162400
C31	C3	0.799500	0.332400	0.193800
C41	C4	0.296200	0.288800	0.145000
C51	C5	0.430800	0.680100	0.815700
C61	C6	0.626500	0.695800	0.837600
C71	C7	0.325700	0.667600	0.806200
C81	C8	0.730000	0.711200	0.855000
C91	C9	0.360900	0.315700	0.819900
C101	C10	0.572300	0.337600	0.804200
C111	C11	0.243300	0.306200	0.832400
C121	C12	0.691200	0.355000	0.788800
C131	C13	0.496500	0.684300	0.180100
C141	C14	0.714100	0.662400	0.195800
C151	C15	0.381900	0.693800	0.167600
C161	C16	0.835000	0.645000	0.211200
C171	C17	0.430800	0.815700	0.680100
C181	C18	0.626500	0.837600	0.695800
C191	C19	0.325700	0.806200	0.667600
C201	C20	0.730000	0.855000	0.711200
C211	C21	0.926600	0.184300	0.319900
C221	C22	0.159900	0.162400	0.304200
C231	C23	0.799500	0.193800	0.332400
C241	C24	0.296200	0.145000	0.288800
C251	C25	0.496500	0.180100	0.684300
C261	C26	0.714100	0.195800	0.662400
C271	C27	0.381900	0.167600	0.693800
C281	C28	0.835000	0.211200	0.645000
C291	C29	0.360900	0.819900	0.315700
C301	C30	0.572300	0.804200	0.337600
C311	C31	0.243300	0.832400	0.306200
C321	C32	0.691200	0.788800	0.355000
C331	C33	0.986500	0.245200	0.245200
C341	C34	0.105300	0.236300	0.236300
C351	C35	0.776900	0.234900	0.234900
C361	C36	0.327000	0.234000	0.234000
C371	C37	0.476900	0.754800	0.754800
C381	C38	0.577900	0.763700	0.763700
C391	C39	0.246700	0.765100	0.765100
C401	C40	0.795000	0.766000	0.766000
C411	C41	0.481700	0.254800	0.745200
C421	C42	0.591600	0.263700	0.736300
C431	C43	0.261800	0.265100	0.734900
C441	C44	0.811000	0.266000	0.734000
C451	C45	0.481700	0.745200	0.254800
C461	C46	0.591600	0.736300	0.263700
C471	C47	0.261800	0.734900	0.265100
C481	C48	0.811000	0.734000	0.266000
Br11	Br1	0.030140	0.602390	0.914530
Br21	Br2	0.547060	0.397610	0.085470
Br31	Br3	0.194670	0.585470	0.102390
Br41	Br4	0.882530	0.414530	0.897610
Br51	Br5	0.547060	0.085470	0.397610
Br61	Br6	0.030140	0.914530	0.602390
Br71	Br7	0.882530	0.897610	0.414530
Br81	Br8	0.194670	0.102390	0.585470
N11	N1	0.101400	0.373200	0.104200
N21	N2	0.982700	0.382900	0.115100
N31	N3	0.578800	0.626800	0.895800
N41	N4	0.480700	0.617100	0.884900
N51	N5	0.455600	0.395800	0.873200
N61	N6	0.347800	0.384900	0.882900
N71	N7	0.724600	0.604200	0.126800
N81	N8	0.615600	0.615100	0.117100
N91	N9	0.578800	0.895800	0.626800
N101	N10	0.480700	0.884900	0.617100
N111	N11	0.101400	0.104200	0.373200
N121	N12	0.982700	0.115100	0.382900
N131	N13	0.724600	0.126800	0.604200
N141	N14	0.615600	0.117100	0.615100
N151	N15	0.455600	0.873200	0.395800
N161	N16	0.347800	0.882900	0.384900
