data_IXISUD_clean_PM
_symmetry_space_group_name_H-M	'P1'
_cell_length_a	20.463000
_cell_length_b	20.463000
_cell_length_c	17.989000
_cell_angle_alpha	90.000000
_cell_angle_beta	90.000000
_cell_angle_gamma	120.000000
_symmetry_Int_Tables_number 1

loop_
_symmetry_equiv_pos_as_xyz
'x,y,z'

loop_
_atom_site_label
_atom_site_type_symbol
_atom_site_fract_x
_atom_site_fract_y
_atom_site_fract_z
Cu11	Cu1	0.092220	0.340040	0.484940
N11	N1	0.135800	0.339800	0.382000
N21	N2	0.037700	0.401900	0.489400
C11	C1	0.099700	0.332600	0.318900
C21	C2	0.026400	0.333000	0.320800
H11	H1	0.036500	0.384100	0.324400
H21	H2	0.998000	0.306000	0.363800
C31	C3	0.073800	0.476200	0.477500
C41	C4	0.154000	0.514800	0.451000
H31	H3	0.154600	0.509300	0.398000
H41	H4	0.179400	0.490900	0.473000
Cu21	Cu2	0.659960	0.752180	0.484940
N31	N3	0.660200	0.796000	0.382000
N41	N4	0.598100	0.635800	0.489400
C51	C5	0.667400	0.767100	0.318900
C61	C6	0.667000	0.693400	0.320800
H51	H5	0.615900	0.652400	0.324400
H61	H6	0.694000	0.692000	0.363800
C71	C7	0.523800	0.597600	0.477500
C81	C8	0.485200	0.639200	0.451000
H71	H7	0.490700	0.645300	0.398000
H81	H8	0.509100	0.688500	0.473000
Cu31	Cu3	0.247820	0.907780	0.484940
N51	N5	0.204000	0.864200	0.382000
N61	N6	0.364200	0.962300	0.489400
C91	C9	0.232900	0.900300	0.318900
C101	C10	0.306600	0.973600	0.320800
H91	H9	0.347600	0.963500	0.324400
H101	H10	0.308000	0.002000	0.363800
C111	C11	0.402400	0.926200	0.477500
C121	C12	0.360800	0.846000	0.451000
H111	H11	0.354700	0.845400	0.398000
H121	H12	0.311500	0.820600	0.473000
Cu41	Cu4	0.907780	0.659960	0.984940
N71	N7	0.864200	0.660200	0.882000
N81	N8	0.962300	0.598100	0.989400
C131	C13	0.900300	0.667400	0.818900
C141	C14	0.973600	0.667000	0.820800
H131	H13	0.963500	0.615900	0.824400
H141	H14	0.002000	0.694000	0.863800
C151	C15	0.926200	0.523800	0.977500
C161	C16	0.846000	0.485200	0.951000
H151	H15	0.845400	0.490700	0.898000
H161	H16	0.820600	0.509100	0.973000
Cu51	Cu5	0.340040	0.247820	0.984940
N91	N9	0.339800	0.204000	0.882000
N101	N10	0.401900	0.364200	0.989400
C171	C17	0.332600	0.232900	0.818900
C181	C18	0.333000	0.306600	0.820800
H171	H17	0.384100	0.347600	0.824400
H181	H18	0.306000	0.308000	0.863800
C191	C19	0.476200	0.402400	0.977500
C201	C20	0.514800	0.360800	0.951000
H191	H19	0.509300	0.354700	0.898000
H201	H20	0.490900	0.311500	0.973000
Cu61	Cu6	0.752180	0.092220	0.984940
N111	N11	0.796000	0.135800	0.882000
N121	N12	0.635800	0.037700	0.989400
C211	C21	0.767100	0.099700	0.818900
C221	C22	0.693400	0.026400	0.820800
H211	H21	0.652400	0.036500	0.824400
H221	H22	0.692000	0.998000	0.863800
C231	C23	0.597600	0.073800	0.977500
C241	C24	0.639200	0.154000	0.951000
H231	H23	0.645300	0.154600	0.898000
H241	H24	0.688500	0.179400	0.973000
Cu71	Cu7	0.340040	0.092220	0.515060
N131	N13	0.339800	0.135800	0.618000
N141	N14	0.401900	0.037700	0.510600
C251	C25	0.332600	0.099700	0.681100
C261	C26	0.333000	0.026400	0.679200
H251	H25	0.384100	0.036500	0.675600
H261	H26	0.306000	0.998000	0.636200
C271	C27	0.476200	0.073800	0.522500
C281	C28	0.514800	0.154000	0.549000
H271	H27	0.509300	0.154600	0.602000
H281	H28	0.490900	0.179400	0.527000
Cu81	Cu8	0.752180	0.659960	0.515060
N151	N15	0.796000	0.660200	0.618000
N161	N16	0.635800	0.598100	0.510600
C291	C29	0.767100	0.667400	0.681100
C301	C30	0.693400	0.667000	0.679200
H291	H29	0.652400	0.615900	0.675600
H301	H30	0.692000	0.694000	0.636200
C311	C31	0.597600	0.523800	0.522500
C321	C32	0.639200	0.485200	0.549000
H311	H31	0.645300	0.490700	0.602000
H321	H32	0.688500	0.509100	0.527000
Cu91	Cu9	0.907780	0.247820	0.515060
N171	N17	0.864200	0.204000	0.618000
N181	N18	0.962300	0.364200	0.510600
C331	C33	0.900300	0.232900	0.681100
C341	C34	0.973600	0.306600	0.679200
H331	H33	0.963500	0.347600	0.675600
H341	H34	0.002000	0.308000	0.636200
C351	C35	0.926200	0.402400	0.522500
C361	C36	0.846000	0.360800	0.549000
H351	H35	0.845400	0.354700	0.602000
H361	H36	0.820600	0.311500	0.527000
Cu101	Cu10	0.659960	0.907780	0.015060
N191	N19	0.660200	0.864200	0.118000
N201	N20	0.598100	0.962300	0.010600
C371	C37	0.667400	0.900300	0.181100
C381	C38	0.667000	0.973600	0.179200
H371	H37	0.615900	0.963500	0.175600
H381	H38	0.694000	0.002000	0.136200
C391	C39	0.523800	0.926200	0.022500
C401	C40	0.485200	0.846000	0.049000
H391	H39	0.490700	0.845400	0.102000
H401	H40	0.509100	0.820600	0.027000
Cu111	Cu11	0.247820	0.340040	0.015060
N211	N21	0.204000	0.339800	0.118000
N221	N22	0.364200	0.401900	0.010600
C411	C41	0.232900	0.332600	0.181100
C421	C42	0.306600	0.333000	0.179200
H411	H41	0.347600	0.384100	0.175600
H421	H42	0.308000	0.306000	0.136200
C431	C43	0.402400	0.476200	0.022500
C441	C44	0.360800	0.514800	0.049000
H431	H43	0.354700	0.509300	0.102000
H441	H44	0.311500	0.490900	0.027000
Cu121	Cu12	0.092220	0.752180	0.015060
N231	N23	0.135800	0.796000	0.118000
N241	N24	0.037700	0.635800	0.010600
C451	C45	0.099700	0.767100	0.181100
C461	C46	0.026400	0.693400	0.179200
H451	H45	0.036500	0.652400	0.175600
H461	H46	0.998000	0.692000	0.136200
C471	C47	0.073800	0.597600	0.022500
C481	C48	0.154000	0.639200	0.049000
H471	H47	0.154600	0.645300	0.102000
H481	H48	0.179400	0.688500	0.027000
Cu131	Cu13	0.907780	0.659960	0.515060
N251	N25	0.864200	0.660200	0.618000
N261	N26	0.962300	0.598100	0.510600
C491	C49	0.900300	0.667400	0.681100
C501	C50	0.973600	0.667000	0.679200
H491	H49	0.963500	0.615900	0.675600
H501	H50	0.002000	0.694000	0.636200
C511	C51	0.926200	0.523800	0.522500
C521	C52	0.846000	0.485200	0.549000
H511	H51	0.845400	0.490700	0.602000
H521	H52	0.820600	0.509100	0.527000
Cu141	Cu14	0.340040	0.247820	0.515060
N271	N27	0.339800	0.204000	0.618000
N281	N28	0.401900	0.364200	0.510600
C531	C53	0.332600	0.232900	0.681100
C541	C54	0.333000	0.306600	0.679200
H531	H53	0.384100	0.347600	0.675600
H541	H54	0.306000	0.308000	0.636200
C551	C55	0.476200	0.402400	0.522500
C561	C56	0.514800	0.360800	0.549000
H551	H55	0.509300	0.354700	0.602000
H561	H56	0.490900	0.311500	0.527000
Cu151	Cu15	0.752180	0.092220	0.515060
N291	N29	0.796000	0.135800	0.618000
N301	N30	0.635800	0.037700	0.510600
C571	C57	0.767100	0.099700	0.681100
C581	C58	0.693400	0.026400	0.679200
H571	H57	0.652400	0.036500	0.675600
H581	H58	0.692000	0.998000	0.636200
C591	C59	0.597600	0.073800	0.522500
C601	C60	0.639200	0.154000	0.549000
H591	H59	0.645300	0.154600	0.602000
H601	H60	0.688500	0.179400	0.527000
Cu161	Cu16	0.092220	0.340040	0.015060
N311	N31	0.135800	0.339800	0.118000
N321	N32	0.037700	0.401900	0.010600
C611	C61	0.099700	0.332600	0.181100
C621	C62	0.026400	0.333000	0.179200
H611	H61	0.036500	0.384100	0.175600
H621	H62	0.998000	0.306000	0.136200
C631	C63	0.073800	0.476200	0.022500
C641	C64	0.154000	0.514800	0.049000
H631	H63	0.154600	0.509300	0.102000
H641	H64	0.179400	0.490900	0.027000
Cu171	Cu17	0.659960	0.752180	0.015060
N331	N33	0.660200	0.796000	0.118000
N341	N34	0.598100	0.635800	0.010600
C651	C65	0.667400	0.767100	0.181100
C661	C66	0.667000	0.693400	0.179200
H651	H65	0.615900	0.652400	0.175600
H661	H66	0.694000	0.692000	0.136200
C671	C67	0.523800	0.597600	0.022500
C681	C68	0.485200	0.639200	0.049000
H671	H67	0.490700	0.645300	0.102000
H681	H68	0.509100	0.688500	0.027000
Cu181	Cu18	0.247820	0.907780	0.015060
N351	N35	0.204000	0.864200	0.118000
N361	N36	0.364200	0.962300	0.010600
C691	C69	0.232900	0.900300	0.181100
C701	C70	0.306600	0.973600	0.179200
H691	H69	0.347600	0.963500	0.175600
H701	H70	0.308000	0.002000	0.136200
C711	C71	0.402400	0.926200	0.022500
C721	C72	0.360800	0.846000	0.049000
H711	H71	0.354700	0.845400	0.102000
H721	H72	0.311500	0.820600	0.027000
Cu191	Cu19	0.659960	0.907780	0.484940
N371	N37	0.660200	0.864200	0.382000
N381	N38	0.598100	0.962300	0.489400
C731	C73	0.667400	0.900300	0.318900
C741	C74	0.667000	0.973600	0.320800
H731	H73	0.615900	0.963500	0.324400
H741	H74	0.694000	0.002000	0.363800
C751	C75	0.523800	0.926200	0.477500
C761	C76	0.485200	0.846000	0.451000
H751	H75	0.490700	0.845400	0.398000
H761	H76	0.509100	0.820600	0.473000
Cu201	Cu20	0.247820	0.340040	0.484940
N391	N39	0.204000	0.339800	0.382000
N401	N40	0.364200	0.401900	0.489400
C771	C77	0.232900	0.332600	0.318900
C781	C78	0.306600	0.333000	0.320800
H771	H77	0.347600	0.384100	0.324400
H781	H78	0.308000	0.306000	0.363800
C791	C79	0.402400	0.476200	0.477500
C801	C80	0.360800	0.514800	0.451000
H791	H79	0.354700	0.509300	0.398000
H801	H80	0.311500	0.490900	0.473000
Cu211	Cu21	0.092220	0.752180	0.484940
N411	N41	0.135800	0.796000	0.382000
N421	N42	0.037700	0.635800	0.489400
C811	C81	0.099700	0.767100	0.318900
C821	C82	0.026400	0.693400	0.320800
H811	H81	0.036500	0.652400	0.324400
H821	H82	0.998000	0.692000	0.363800
C831	C83	0.073800	0.597600	0.477500
C841	C84	0.154000	0.639200	0.451000
H831	H83	0.154600	0.645300	0.398000
H841	H84	0.179400	0.688500	0.473000
Cu221	Cu22	0.340040	0.092220	0.984940
N431	N43	0.339800	0.135800	0.882000
N441	N44	0.401900	0.037700	0.989400
C851	C85	0.332600	0.099700	0.818900
C861	C86	0.333000	0.026400	0.820800
H851	H85	0.384100	0.036500	0.824400
H861	H86	0.306000	0.998000	0.863800
C871	C87	0.476200	0.073800	0.977500
C881	C88	0.514800	0.154000	0.951000
H871	H87	0.509300	0.154600	0.898000
H881	H88	0.490900	0.179400	0.973000
Cu231	Cu23	0.752180	0.659960	0.984940
N451	N45	0.796000	0.660200	0.882000
N461	N46	0.635800	0.598100	0.989400
C891	C89	0.767100	0.667400	0.818900
C901	C90	0.693400	0.667000	0.820800
H891	H89	0.652400	0.615900	0.824400
H901	H90	0.692000	0.694000	0.863800
C911	C91	0.597600	0.523800	0.977500
C921	C92	0.639200	0.485200	0.951000
H911	H91	0.645300	0.490700	0.898000
H921	H92	0.688500	0.509100	0.973000
Cu241	Cu24	0.907780	0.247820	0.984940
N471	N47	0.864200	0.204000	0.882000
N481	N48	0.962300	0.364200	0.989400
C931	C93	0.900300	0.232900	0.818900
C941	C94	0.973600	0.306600	0.820800
H931	H93	0.963500	0.347600	0.824400
H941	H94	0.002000	0.308000	0.863800
C951	C95	0.926200	0.402400	0.977500
C961	C96	0.846000	0.360800	0.951000
H951	H95	0.845400	0.354700	0.898000
H961	H96	0.820600	0.311500	0.973000
Cu251	Cu25	0.876570	0.123430	0.423720
I11	I1	0.805110	0.194890	0.407820
N491	N49	0.902400	0.097600	0.322100
Cu261	Cu26	0.876570	0.753140	0.423720
I21	I2	0.805110	0.610220	0.407820
N501	N50	0.902400	0.804800	0.322100
Cu271	Cu27	0.246860	0.123430	0.423720
I31	I3	0.389780	0.194890	0.407820
N511	N51	0.195200	0.097600	0.322100
Cu281	Cu28	0.123430	0.876570	0.923720
I41	I4	0.194890	0.805110	0.907820
N521	N52	0.097600	0.902400	0.822100
Cu291	Cu29	0.123430	0.246860	0.923720
I51	I5	0.194890	0.389780	0.907820
N531	N53	0.097600	0.195200	0.822100
Cu301	Cu30	0.753140	0.876570	0.923720
I61	I6	0.610220	0.805110	0.907820
N541	N54	0.804800	0.902400	0.822100
Cu311	Cu31	0.123430	0.876570	0.576280
I71	I7	0.194890	0.805110	0.592180
N551	N55	0.097600	0.902400	0.677900
Cu321	Cu32	0.753140	0.876570	0.576280
I81	I8	0.610220	0.805110	0.592180
N561	N56	0.804800	0.902400	0.677900
Cu331	Cu33	0.123430	0.246860	0.576280
I91	I9	0.194890	0.389780	0.592180
N571	N57	0.097600	0.195200	0.677900
Cu341	Cu34	0.876570	0.123430	0.076280
I101	I10	0.805110	0.194890	0.092180
N581	N58	0.902400	0.097600	0.177900
Cu351	Cu35	0.246860	0.123430	0.076280
I111	I11	0.389780	0.194890	0.092180
N591	N59	0.195200	0.097600	0.177900
Cu361	Cu36	0.876570	0.753140	0.076280
I121	I12	0.805110	0.610220	0.092180
N601	N60	0.902400	0.804800	0.177900
I131	I13	0.000000	0.194540	0.500000
I141	I14	0.805460	0.805460	0.500000
I151	I15	0.194540	0.000000	0.500000
I161	I16	0.000000	0.805460	0.000000
I171	I17	0.194540	0.194540	0.000000
I181	I18	0.805460	0.000000	0.000000
I191	I19	0.000000	0.805460	0.500000
I201	I20	0.194540	0.194540	0.500000
I211	I21	0.805460	0.000000	0.500000
I221	I22	0.000000	0.194540	0.000000
I231	I23	0.805460	0.805460	0.000000
I241	I24	0.194540	0.000000	0.000000
C971	C97	0.131100	0.329200	0.250000
C981	C98	0.980200	0.296200	0.250000
H971	H97	0.935800	0.300900	0.250000
H981	H98	0.964400	0.243500	0.250000
C991	C99	0.670800	0.801900	0.250000
C1001	C100	0.703800	0.684000	0.250000
H991	H99	0.699100	0.634900	0.250000
H1001	H100	0.756500	0.720900	0.250000
C1011	C101	0.198100	0.868900	0.250000
C1021	C102	0.316000	0.019800	0.250000
H1011	H101	0.365100	0.064200	0.250000
H1021	H102	0.279100	0.035600	0.250000
C1031	C103	0.868900	0.670800	0.750000
C1041	C104	0.019800	0.703800	0.750000
H1031	H103	0.064200	0.699100	0.750000
H1041	H104	0.035600	0.756500	0.750000
C1051	C105	0.329200	0.198100	0.750000
C1061	C106	0.296200	0.316000	0.750000
H1051	H105	0.300900	0.365100	0.750000
H1061	H106	0.243500	0.279100	0.750000
C1071	C107	0.801900	0.131100	0.750000
C1081	C108	0.684000	0.980200	0.750000
H1071	H107	0.634900	0.935800	0.750000
H1081	H108	0.720900	0.964400	0.750000
C1091	C109	0.329200	0.131100	0.750000
C1101	C110	0.296200	0.980200	0.750000
H1091	H109	0.300900	0.935800	0.750000
H1101	H110	0.243500	0.964400	0.750000
C1111	C111	0.801900	0.670800	0.750000
C1121	C112	0.684000	0.703800	0.750000
H1111	H111	0.634900	0.699100	0.750000
H1121	H112	0.720900	0.756500	0.750000
C1131	C113	0.868900	0.198100	0.750000
C1141	C114	0.019800	0.316000	0.750000
H1131	H113	0.064200	0.365100	0.750000
H1141	H114	0.035600	0.279100	0.750000
C1151	C115	0.670800	0.868900	0.250000
C1161	C116	0.703800	0.019800	0.250000
H1151	H115	0.699100	0.064200	0.250000
H1161	H116	0.756500	0.035600	0.250000
C1171	C117	0.198100	0.329200	0.250000
C1181	C118	0.316000	0.296200	0.250000
H1171	H117	0.365100	0.300900	0.250000
H1181	H118	0.279100	0.243500	0.250000
C1191	C119	0.131100	0.801900	0.250000
C1201	C120	0.980200	0.684000	0.250000
H1191	H119	0.935800	0.634900	0.250000
H1201	H120	0.964400	0.720900	0.250000
C1211	C121	0.037200	0.518600	0.488000
C1221	C122	0.195700	0.597850	0.470700
H1211	H121	0.243500	0.621750	0.445600
H1221	H122	0.205500	0.602750	0.523200
C1231	C123	0.481400	0.518600	0.488000
C1241	C124	0.402150	0.597850	0.470700
H1231	H123	0.378250	0.621750	0.445600
H1241	H124	0.397250	0.602750	0.523200
C1251	C125	0.481400	0.962800	0.488000
C1261	C126	0.402150	0.804300	0.470700
H1251	H125	0.378250	0.756500	0.445600
H1261	H126	0.397250	0.794500	0.523200
C1271	C127	0.962800	0.481400	0.988000
C1281	C128	0.804300	0.402150	0.970700
H1271	H127	0.756500	0.378250	0.945600
H1281	H128	0.794500	0.397250	0.023200
C1291	C129	0.518600	0.481400	0.988000
C1301	C130	0.597850	0.402150	0.970700
H1291	H129	0.621750	0.378250	0.945600
H1301	H130	0.602750	0.397250	0.023200
C1311	C131	0.518600	0.037200	0.988000
C1321	C132	0.597850	0.195700	0.970700
H1311	H131	0.621750	0.243500	0.945600
H1321	H132	0.602750	0.205500	0.023200
C1331	C133	0.518600	0.037200	0.512000
C1341	C134	0.597850	0.195700	0.529300
H1331	H133	0.621750	0.243500	0.554400
H1341	H134	0.602750	0.205500	0.476800
C1351	C135	0.518600	0.481400	0.512000
C1361	C136	0.597850	0.402150	0.529300
H1351	H135	0.621750	0.378250	0.554400
H1361	H136	0.602750	0.397250	0.476800
C1371	C137	0.962800	0.481400	0.512000
C1381	C138	0.804300	0.402150	0.529300
H1371	H137	0.756500	0.378250	0.554400
H1381	H138	0.794500	0.397250	0.476800
C1391	C139	0.481400	0.962800	0.012000
C1401	C140	0.402150	0.804300	0.029300
H1391	H139	0.378250	0.756500	0.054400
H1401	H140	0.397250	0.794500	0.976800
C1411	C141	0.481400	0.518600	0.012000
C1421	C142	0.402150	0.597850	0.029300
H1411	H141	0.378250	0.621750	0.054400
H1421	H142	0.397250	0.602750	0.976800
C1431	C143	0.037200	0.518600	0.012000
C1441	C144	0.195700	0.597850	0.029300
H1431	H143	0.243500	0.621750	0.054400
H1441	H144	0.205500	0.602750	0.976800
C1451	C145	0.909600	0.090400	0.250000
C1461	C146	0.909600	0.819200	0.250000
C1471	C147	0.180800	0.090400	0.250000
C1481	C148	0.090400	0.909600	0.750000
C1491	C149	0.090400	0.180800	0.750000
C1501	C150	0.819200	0.909600	0.750000
