data_IXUQUO_clean_PM
_symmetry_space_group_name_H-M	'P1'
_cell_length_a	18.035000
_cell_length_b	18.035000
_cell_length_c	31.239300
_cell_angle_alpha	78.133800
_cell_angle_beta	78.133800
_cell_angle_gamma	106.717000
_symmetry_Int_Tables_number 1

loop_
_symmetry_equiv_pos_as_xyz
'x,y,z'

loop_
_atom_site_label
_atom_site_type_symbol
_atom_site_fract_x
_atom_site_fract_y
_atom_site_fract_z
Zn11	Zn1	0.156100	0.410590	0.485140
Zn21	Zn2	0.754750	0.522080	0.781570
Zn31	Zn3	0.651460	0.895980	0.496360
Zn41	Zn4	0.265240	0.994940	0.771980
Zn51	Zn5	0.660590	0.906100	0.985150
Zn61	Zn6	0.772080	0.504750	0.281570
Zn71	Zn7	0.145980	0.401460	0.996360
Zn81	Zn8	0.244940	0.015240	0.271980
H11	H1	0.033400	0.258200	0.549600
H21	H2	0.909900	0.213900	0.604000
H31	H3	0.913900	0.442100	0.581600
H41	H4	0.036700	0.481300	0.531600
H51	H5	0.849500	0.418500	0.748200
H61	H6	0.855900	0.346700	0.696600
H71	H7	0.697600	0.431200	0.650000
H81	H8	0.683500	0.491300	0.711600
H91	H9	0.031500	0.522100	0.812400
H101	H10	0.095700	0.488500	0.867000
H111	H11	0.882100	0.416700	0.961400
H121	H12	0.822400	0.441400	0.904600
H131	H13	0.698400	0.997600	0.558400
H141	H14	0.769100	0.010500	0.610000
H151	H15	0.810900	0.808100	0.597400
H161	H16	0.744600	0.805400	0.543800
H171	H17	0.739800	0.787800	0.703800
H181	H18	0.695700	0.664500	0.753000
H191	H19	0.908400	0.641200	0.714200
H201	H20	0.954700	0.764300	0.664000
H211	H21	0.543200	0.730200	0.560200
H221	H22	0.422000	0.672800	0.612200
H231	H23	0.382700	0.880500	0.583800
H241	H24	0.503900	0.935100	0.531600
H251	H25	0.350500	0.798900	0.700000
H261	H26	0.344100	0.877300	0.751200
H271	H27	0.189000	0.949200	0.704400
H281	H28	0.176400	0.865800	0.657000
H291	H29	0.213300	0.139900	0.742400
H301	H30	0.260400	0.258800	0.688800
H311	H31	0.451300	0.208900	0.639400
H321	H32	0.408000	0.097000	0.694200
H331	H33	0.281800	0.477200	0.605400
H341	H34	0.212500	0.487300	0.551600
H351	H35	0.248000	0.311200	0.516600
H361	H36	0.319100	0.288900	0.565000
H371	H37	0.117700	0.092900	0.399000
H381	H38	0.115200	0.173400	0.444800
H391	H39	0.297400	0.349200	0.349400
H401	H40	0.302700	0.257900	0.306400
H411	H41	0.207200	0.828800	0.396000
H421	H42	0.193700	0.717100	0.449800
H431	H43	0.194200	0.590800	0.358600
H441	H44	0.220700	0.710900	0.300600
H451	H45	0.750300	0.347300	0.615600
H461	H46	0.807900	0.240300	0.649600
H471	H47	0.836400	0.946800	0.658800
H481	H48	0.937400	0.886600	0.632400
H491	H49	0.306100	0.687300	0.655400
H501	H50	0.225400	0.771800	0.630000
H511	H51	0.434600	0.323800	0.608000
H521	H52	0.363400	0.412800	0.635200
H531	H53	0.508200	0.783400	0.049600
H541	H54	0.463900	0.659900	0.104000
H551	H55	0.692100	0.663900	0.081600
H561	H56	0.731300	0.786700	0.031600
H571	H57	0.668500	0.599500	0.248200
H581	H58	0.596700	0.605900	0.196600
H591	H59	0.681200	0.447600	0.150000
H601	H60	0.741300	0.433500	0.211600
H611	H61	0.772100	0.781500	0.312400
H621	H62	0.738500	0.845700	0.367000
H631	H63	0.666700	0.632100	0.461400
H641	H64	0.691400	0.572400	0.404600
H651	H65	0.247600	0.448400	0.058400
H661	H66	0.260500	0.519100	0.110000
H671	H67	0.058100	0.560900	0.097400
H681	H68	0.055400	0.494600	0.043800
H691	H69	0.037800	0.489800	0.203800
H701	H70	0.914500	0.445700	0.253000
H711	H71	0.891200	0.658400	0.214200
H721	H72	0.014300	0.704700	0.164000
H731	H73	0.980200	0.293200	0.060200
H741	H74	0.922800	0.172000	0.112200
H751	H75	0.130500	0.132700	0.083800
H761	H76	0.185100	0.253900	0.031600
H771	H77	0.048900	0.100500	0.200000
H781	H78	0.127300	0.094100	0.251200
H791	H79	0.199200	0.939000	0.204400
H801	H80	0.115800	0.926400	0.157000
H811	H81	0.389900	0.963300	0.242400
H821	H82	0.508800	0.010400	0.188800
H831	H83	0.458900	0.201300	0.139400
H841	H84	0.347000	0.158000	0.194200
H851	H85	0.727200	0.031800	0.105400
H861	H86	0.737300	0.962500	0.051600
H871	H87	0.561200	0.998000	0.016600
H881	H88	0.538900	0.069100	0.065000
H891	H89	0.342900	0.867700	0.899000
H901	H90	0.423400	0.865200	0.944800
H911	H91	0.599200	0.047400	0.849400
H921	H92	0.507900	0.052700	0.806400
H931	H93	0.078800	0.957200	0.896000
H941	H94	0.967100	0.943700	0.949800
H951	H95	0.840800	0.944200	0.858600
H961	H96	0.960900	0.970700	0.800600
H971	H97	0.597300	0.500300	0.115600
H981	H98	0.490300	0.557900	0.149600
H991	H99	0.196800	0.586400	0.158800
H1001	H100	0.136600	0.687400	0.132400
H1011	H101	0.937300	0.056100	0.155400
H1021	H102	0.021800	0.975400	0.130000
H1031	H103	0.573800	0.184600	0.108000
H1041	H104	0.662800	0.113400	0.135200
C11	C1	0.009350	0.295430	0.555820
C21	C2	0.934490	0.268490	0.588620
C31	C3	0.897090	0.321490	0.598220
C41	C4	0.937050	0.404010	0.575740
C51	C5	0.009830	0.426450	0.545320
C61	C6	0.816430	0.419210	0.728960
C71	C7	0.822260	0.377200	0.697540
C81	C8	0.778310	0.380970	0.667920
C91	C9	0.726990	0.426010	0.671000
C101	C10	0.720420	0.464720	0.707460
C111	C11	0.881760	0.508380	0.817000
C121	C12	0.919280	0.483880	0.852580
C131	C13	0.000700	0.498520	0.842580
C141	C14	0.040570	0.479890	0.875540
C151	C15	0.995120	0.448340	0.921160
C161	C16	0.913490	0.436150	0.931180
C171	C17	0.877920	0.452640	0.896660
C181	C18	0.030640	0.430320	0.957340
C191	C19	0.723040	0.959880	0.565680
C201	C20	0.763780	0.967460	0.597360
C211	C21	0.797080	0.909340	0.610520
C221	C22	0.789040	0.847920	0.589520
C231	C23	0.749270	0.846770	0.557560
C241	C24	0.854810	0.795190	0.678040
C251	C25	0.775440	0.759660	0.705640
C261	C26	0.749230	0.684610	0.735160
C271	C27	0.873690	0.670530	0.712580
C281	C28	0.901920	0.745200	0.682480
C291	C29	0.510850	0.761170	0.565180
C301	C30	0.438840	0.727140	0.596420
C311	C31	0.388650	0.771010	0.605740
C321	C32	0.415050	0.849130	0.579820
C331	C33	0.488020	0.881560	0.548420
C341	C34	0.262350	0.824330	0.672520
C351	C35	0.315130	0.827570	0.701300
C361	C36	0.311720	0.875580	0.731500
C371	C37	0.219720	0.915600	0.704880
C381	C38	0.212690	0.867510	0.674400
C391	C39	0.263190	0.153750	0.721460
C401	C40	0.291240	0.225380	0.689180
C411	C41	0.360660	0.248500	0.658640
C421	C42	0.402340	0.195780	0.661280
C431	C43	0.376020	0.129260	0.692720
C441	C44	0.309860	0.381620	0.590320
C451	C45	0.276540	0.442320	0.587140
C461	C46	0.235130	0.446990	0.554480
C471	C47	0.256220	0.346120	0.534660
C481	C48	0.298670	0.330930	0.563400
C491	C49	0.220690	0.112490	0.320220
C501	C50	0.212840	0.169820	0.347540
C511	C51	0.155360	0.144960	0.389280
C521	C52	0.152260	0.193560	0.415980
C531	C53	0.201730	0.271610	0.402340
C541	C54	0.260490	0.296770	0.360140
C551	C55	0.263100	0.241420	0.334080
C561	C56	0.194980	0.329000	0.432220
C571	C57	0.229360	0.855680	0.305560
C581	C58	0.216460	0.780980	0.343340
C591	C59	0.207110	0.781930	0.387960
C601	C60	0.197890	0.715130	0.419980
C611	C61	0.194500	0.643080	0.409620
C621	C62	0.199740	0.639420	0.365640
C631	C63	0.213610	0.711030	0.330960
C641	C64	0.181630	0.564130	0.444640
C651	C65	0.545430	0.759350	0.055820
C661	C66	0.518490	0.684490	0.088620
C671	C67	0.571490	0.647090	0.098220
C681	C68	0.654010	0.687050	0.075740
C691	C69	0.676450	0.759830	0.045320
C701	C70	0.669210	0.566430	0.228960
C711	C71	0.627200	0.572260	0.197540
C721	C72	0.630970	0.528310	0.167920
C731	C73	0.676010	0.476990	0.171000
C741	C74	0.714720	0.470420	0.207460
C751	C75	0.758380	0.631760	0.317000
C761	C76	0.733880	0.669280	0.352580
C771	C77	0.748520	0.750700	0.342580
C781	C78	0.729890	0.790570	0.375540
C791	C79	0.698340	0.745120	0.421160
C801	C80	0.686150	0.663490	0.431180
C811	C81	0.702640	0.627920	0.396660
C821	C82	0.680320	0.780640	0.457340
C831	C83	0.209880	0.473040	0.065680
C841	C84	0.217460	0.513780	0.097360
C851	C85	0.159340	0.547080	0.110520
C861	C86	0.097920	0.539040	0.089520
C871	C87	0.096770	0.499270	0.057560
C881	C88	0.045190	0.604810	0.178040
C891	C89	0.009660	0.525440	0.205640
C901	C90	0.934610	0.499230	0.235160
C911	C91	0.920530	0.623690	0.212580
C921	C92	0.995200	0.651920	0.182480
C931	C93	0.011170	0.260850	0.065180
C941	C94	0.977140	0.188840	0.096420
C951	C95	0.021010	0.138650	0.105740
C961	C96	0.099130	0.165050	0.079820
C971	C97	0.131560	0.238020	0.048420
C981	C98	0.074330	0.012350	0.172520
C991	C99	0.077570	0.065130	0.201300
C1001	C100	0.125580	0.061720	0.231500
C1011	C101	0.165600	0.969720	0.204880
C1021	C102	0.117510	0.962690	0.174400
C1031	C103	0.403750	0.013190	0.221460
C1041	C104	0.475380	0.041240	0.189180
C1051	C105	0.498500	0.110660	0.158640
C1061	C106	0.445780	0.152340	0.161280
C1071	C107	0.379260	0.126020	0.192720
C1081	C108	0.631620	0.059860	0.090320
C1091	C109	0.692320	0.026540	0.087140
C1101	C110	0.696990	0.985130	0.054480
C1111	C111	0.596120	0.006220	0.034660
C1121	C112	0.580930	0.048670	0.063400
C1131	C113	0.362490	0.970690	0.820220
C1141	C114	0.419820	0.962840	0.847540
C1151	C115	0.394960	0.905360	0.889280
C1161	C116	0.443560	0.902260	0.915980
C1171	C117	0.521610	0.951730	0.902340
C1181	C118	0.546770	0.010490	0.860140
C1191	C119	0.491420	0.013100	0.834080
C1201	C120	0.579000	0.944980	0.932220
C1211	C121	0.105680	0.979360	0.805560
C1221	C122	0.030980	0.966460	0.843340
C1231	C123	0.031930	0.957110	0.887960
C1241	C124	0.965130	0.947890	0.919980
C1251	C125	0.893080	0.944500	0.909620
C1261	C126	0.889420	0.949740	0.865640
C1271	C127	0.961030	0.963610	0.830960
C1281	C128	0.814130	0.931630	0.944640
N11	N1	0.766520	0.461700	0.734260
N21	N2	0.778050	0.340810	0.634540
N31	N3	0.824270	0.288530	0.631800
N41	N4	0.047120	0.374400	0.533180
N51	N5	0.715480	0.902860	0.544320
N61	N6	0.839820	0.914480	0.642300
N71	N7	0.887410	0.868650	0.647940
N81	N8	0.794380	0.635560	0.741260
N91	N9	0.538290	0.841710	0.540080
N101	N10	0.317670	0.735310	0.638360
N111	N11	0.261080	0.777240	0.644680
N121	N12	0.261270	0.919510	0.732160
N131	N13	0.301310	0.103030	0.725020
N141	N14	0.389420	0.315300	0.627280
N151	N15	0.355370	0.377410	0.620420
N161	N16	0.224340	0.402040	0.527960
N171	N17	0.711700	0.516520	0.234260
N181	N18	0.590810	0.528050	0.134540
N191	N19	0.538530	0.574270	0.131800
N201	N20	0.624400	0.797120	0.033180
N211	N21	0.152860	0.465480	0.044320
N221	N22	0.164480	0.589820	0.142300
N231	N23	0.118650	0.637410	0.147940
N241	N24	0.885560	0.544380	0.241260
N251	N25	0.091710	0.288290	0.040080
N261	N26	0.985310	0.067670	0.138360
N271	N27	0.027240	0.011080	0.144680
N281	N28	0.169510	0.011270	0.232160
N291	N29	0.353030	0.051310	0.225020
N301	N30	0.565300	0.139420	0.127280
N311	N31	0.627410	0.105370	0.120420
N321	N32	0.652040	0.974340	0.027960
O11	O1	0.923410	0.549050	0.778220
O21	O2	0.804440	0.481400	0.827900
O31	O3	0.106570	0.443770	0.945660
O41	O4	0.988550	0.405430	0.997600
O51	O5	0.273760	0.125260	0.287780
O61	O6	0.159040	0.045740	0.329220
O71	O7	0.130940	0.311940	0.461800
O81	O8	0.258750	0.389690	0.425460
O91	O9	0.244170	0.923810	0.318400
O101	O10	0.227130	0.853750	0.267820
O111	O11	0.158880	0.499360	0.437760
O121	O12	0.200160	0.572480	0.480760
O131	O13	0.799050	0.673410	0.278220
O141	O14	0.731400	0.554440	0.327900
O151	O15	0.693770	0.856570	0.445660
O161	O16	0.655430	0.738550	0.497600
O171	O17	0.375260	0.023760	0.787780
O181	O18	0.295740	0.909040	0.829220
O191	O19	0.561940	0.880940	0.961800
O201	O20	0.639690	0.008750	0.925460
O211	O21	0.173810	0.994170	0.818400
O221	O22	0.103750	0.977130	0.767820
O231	O23	0.749360	0.908880	0.937760
O241	O24	0.822480	0.950160	0.980760
Zn91	Zn9	0.895740	0.641240	0.514850
Zn101	Zn10	0.303650	0.536320	0.218430
Zn111	Zn11	0.392340	0.147820	0.503640
Zn121	Zn12	0.766920	0.037220	0.228020
Zn131	Zn13	0.891240	0.645740	0.014860
Zn141	Zn14	0.786320	0.053650	0.718430
Zn151	Zn15	0.397820	0.142340	0.003640
Zn161	Zn16	0.287220	0.516920	0.728020
H1051	H105	0.807800	0.583000	0.450400
H1061	H106	0.817900	0.513900	0.396000
H1071	H107	0.023700	0.495500	0.418400
H1081	H108	0.012900	0.568300	0.468400
H1091	H109	0.166700	0.597700	0.251800
H1101	H110	0.043300	0.552500	0.303400
H1111	H111	0.081200	0.347600	0.350000
H1121	H112	0.202900	0.395100	0.288400
H1131	H113	0.334500	0.843900	0.187600
H1141	H114	0.355500	0.962700	0.133000
H1151	H115	0.378100	0.843500	0.038600
H1161	H116	0.346000	0.727000	0.095400
H1171	H117	0.556000	0.256800	0.441600
H1181	H118	0.620500	0.379100	0.390000
H1191	H119	0.405500	0.408300	0.402600
H1201	H120	0.349200	0.288400	0.456200
H1211	H121	0.491600	0.443600	0.296200
H1221	H122	0.417500	0.448700	0.247000
H1231	H123	0.355400	0.622600	0.285800
H1241	H124	0.428300	0.618700	0.336000
H1251	H125	0.290400	0.103400	0.439800
H1261	H126	0.285000	0.034200	0.387800
H1271	H127	0.464300	0.966500	0.416200
H1281	H128	0.466700	0.035500	0.468400
H1291	H129	0.498900	0.050500	0.300000
H1301	H130	0.628500	0.095300	0.248800
H1311	H131	0.653600	0.893400	0.295600
H1321	H132	0.522800	0.833400	0.343000
H1331	H133	0.882300	0.955700	0.257600
H1341	H134	0.947600	0.949200	0.311200
H1351	H135	0.848300	0.090700	0.360600
H1361	H136	0.791200	0.102200	0.305800
H1371	H137	0.082600	0.887200	0.394600
H1381	H138	0.038900	0.764100	0.448400
H1391	H139	0.827800	0.764600	0.483400
H1401	H140	0.853900	0.884100	0.435000
H1411	H141	0.491900	0.516700	0.601000
H1421	H142	0.618200	0.560000	0.555200
H1431	H143	0.698600	0.646800	0.650600
H1441	H144	0.564300	0.609100	0.693600
H1451	H145	0.224800	0.603200	0.604000
H1461	H146	0.166900	0.643500	0.550200
H1471	H147	0.949400	0.552800	0.641400
H1481	H148	0.011500	0.521300	0.699400
H1491	H149	0.962900	0.365900	0.384400
H1501	H150	0.889900	0.457500	0.350400
H1511	H151	0.605600	0.495200	0.341200
H1521	H152	0.519000	0.569800	0.367600
H1531	H153	0.342700	0.961500	0.344600
H1541	H154	0.401800	0.855400	0.370000
H1551	H155	0.931800	0.042600	0.392000
H1561	H156	0.048000	0.998600	0.364800
H1571	H157	0.833000	0.557800	0.950400
H1581	H158	0.763900	0.567900	0.896000
H1591	H159	0.745500	0.773700	0.918400
H1601	H160	0.818300	0.762900	0.968400
H1611	H161	0.847700	0.916700	0.751800
H1621	H162	0.802500	0.793300	0.803400
H1631	H163	0.597600	0.831200	0.850000
H1641	H164	0.645100	0.952900	0.788400
H1651	H165	0.093900	0.084500	0.687600
H1661	H166	0.212700	0.105500	0.633000
H1671	H167	0.093500	0.128100	0.538600
H1681	H168	0.977000	0.096000	0.595400
H1691	H169	0.506800	0.306000	0.941600
H1701	H170	0.629100	0.370500	0.890000
H1711	H171	0.658300	0.155500	0.902600
H1721	H172	0.538400	0.099200	0.956200
H1731	H173	0.693600	0.241600	0.796200
H1741	H174	0.698700	0.167500	0.747000
H1751	H175	0.872600	0.105400	0.785800
H1761	H176	0.868700	0.178300	0.836000
H1771	H177	0.353400	0.040400	0.939800
H1781	H178	0.284200	0.035000	0.887800
H1791	H179	0.216500	0.214300	0.916200
H1801	H180	0.285500	0.216700	0.968400
H1811	H181	0.300500	0.248900	0.800000
H1821	H182	0.345300	0.378500	0.748800
H1831	H183	0.143400	0.403600	0.795600
H1841	H184	0.083400	0.272800	0.843000
H1851	H185	0.205700	0.632300	0.757600
H1861	H186	0.199200	0.697600	0.811200
H1871	H187	0.340700	0.598300	0.860600
H1881	H188	0.352200	0.541200	0.805800
H1891	H189	0.137200	0.832600	0.894600
H1901	H190	0.014100	0.788900	0.948400
H1911	H191	0.014600	0.577800	0.983400
H1921	H192	0.134100	0.603900	0.935000
H1931	H193	0.766700	0.241900	0.101000
H1941	H194	0.810000	0.368200	0.055200
H1951	H195	0.896800	0.448600	0.150600
H1961	H196	0.859100	0.314300	0.193600
H1971	H197	0.853200	0.974800	0.104000
H1981	H198	0.893500	0.916900	0.050200
H1991	H199	0.802800	0.699400	0.141400
H2001	H200	0.771300	0.761500	0.199400
H2011	H201	0.615900	0.712900	0.884400
H2021	H202	0.707500	0.639900	0.850400
H2031	H203	0.745200	0.355600	0.841200
H2041	H204	0.819800	0.269000	0.867600
H2051	H205	0.211500	0.092700	0.844600
H2061	H206	0.105400	0.151800	0.870000
H2071	H207	0.292600	0.681800	0.892000
H2081	H208	0.248600	0.798000	0.864800
C1291	C129	0.851250	0.565170	0.444180
C1301	C130	0.857110	0.523110	0.411380
C1311	C131	0.919710	0.495310	0.401780
C1321	C132	0.979750	0.512790	0.424260
C1331	C133	0.971770	0.555150	0.454680
C1341	C134	0.148170	0.545390	0.271040
C1351	C135	0.074740	0.519800	0.302460
C1361	C136	0.048890	0.446230	0.332080
C1371	C137	0.097010	0.397990	0.329000
C1381	C138	0.172180	0.427880	0.292540
C1391	C139	0.325380	0.698760	0.183000
C1401	C140	0.336460	0.771860	0.147420
C1411	C141	0.341100	0.843280	0.157420
C1421	C142	0.355430	0.916110	0.124460
C1431	C143	0.369500	0.916280	0.078840
C1441	C144	0.367330	0.844670	0.068820
C1451	C145	0.349300	0.774580	0.103340
C1461	C146	0.387660	0.987980	0.042660
C1471	C147	0.525560	0.288720	0.434320
C1481	C148	0.564820	0.361140	0.402640
C1491	C149	0.519860	0.407600	0.389480
C1501	C150	0.437440	0.378560	0.410480
C1511	C151	0.404330	0.306830	0.442440
C1521	C152	0.473230	0.532850	0.321960
C1531	C153	0.465300	0.481080	0.294360
C1541	C154	0.419770	0.484390	0.264840
C1551	C155	0.383110	0.586270	0.287420
C1561	C156	0.427680	0.584400	0.317520
C1571	C157	0.326350	0.076030	0.434820
C1581	C158	0.323560	0.035260	0.403580
C1591	C159	0.376750	0.994390	0.394260
C1601	C160	0.428950	0.994870	0.420180
C1611	C161	0.429980	0.036440	0.451580
C1621	C162	0.496850	0.934870	0.327480
C1631	C163	0.528870	0.016430	0.298700
C1641	C164	0.607080	0.043220	0.268500
C1651	C165	0.620480	0.924600	0.295120
C1661	C166	0.541910	0.887090	0.325600
C1671	C167	0.875210	0.984650	0.278540
C1681	C168	0.914560	0.980420	0.310820
C1691	C169	0.907140	0.019300	0.341360
C1701	C170	0.857060	0.063620	0.338720
C1711	C171	0.821980	0.068740	0.307280
C1721	C172	0.971940	0.900180	0.409680
C1731	C173	0.029460	0.863680	0.412860
C1741	C174	0.001470	0.789610	0.445520
C1751	C175	0.880780	0.790880	0.465340
C1761	C176	0.894330	0.862070	0.436600
C1771	C177	0.432710	0.540910	0.679780
C1781	C178	0.517360	0.560380	0.652460
C1791	C179	0.534240	0.544640	0.610720
C1801	C180	0.609540	0.568240	0.584020
C1811	C181	0.673950	0.604070	0.597660
C1821	C182	0.656910	0.620630	0.639860
C1831	C183	0.575500	0.597180	0.665920
C1841	C184	0.761220	0.627200	0.567780
C1851	C185	0.161240	0.534920	0.694440
C1861	C186	0.124320	0.559800	0.656660
C1871	C187	0.169890	0.595070	0.612040
C1881	C188	0.135110	0.617870	0.580020
C1891	C189	0.052700	0.604120	0.590380
C1901	C190	0.005060	0.565380	0.634360
C1911	C191	0.041990	0.544570	0.669040
C1921	C192	0.008770	0.626270	0.555360
C1931	C193	0.815170	0.601250	0.944180
C1941	C194	0.773110	0.607110	0.911380
C1951	C195	0.745310	0.669710	0.901780
C1961	C196	0.762790	0.729750	0.924260
C1971	C197	0.805150	0.721770	0.954680
C1981	C198	0.795390	0.898170	0.771040
C1991	C199	0.769800	0.824740	0.802460
C2001	C200	0.696230	0.798890	0.832080
C2011	C201	0.647990	0.847010	0.829000
C2021	C202	0.677880	0.922180	0.792540
C2031	C203	0.948760	0.075380	0.683000
C2041	C204	0.021860	0.086460	0.647420
C2051	C205	0.093280	0.091100	0.657420
C2061	C206	0.166110	0.105430	0.624460
C2071	C207	0.166280	0.119500	0.578840
C2081	C208	0.094670	0.117330	0.568820
C2091	C209	0.024580	0.099300	0.603340
C2101	C210	0.237980	0.137660	0.542660
C2111	C211	0.538720	0.275560	0.934320
C2121	C212	0.611140	0.314820	0.902640
C2131	C213	0.657600	0.269860	0.889480
C2141	C214	0.628560	0.187440	0.910480
C2151	C215	0.556830	0.154330	0.942440
C2161	C216	0.782850	0.223230	0.821960
C2171	C217	0.731080	0.215300	0.794360
C2181	C218	0.734390	0.169770	0.764840
C2191	C219	0.836270	0.133110	0.787420
C2201	C220	0.834400	0.177680	0.817520
C2211	C221	0.326030	0.076350	0.934820
C2221	C222	0.285260	0.073560	0.903580
C2231	C223	0.244390	0.126750	0.894260
C2241	C224	0.244870	0.178950	0.920180
C2251	C225	0.286440	0.179980	0.951580
C2261	C226	0.184870	0.246850	0.827480
C2271	C227	0.266430	0.278870	0.798700
C2281	C228	0.293220	0.357080	0.768500
C2291	C229	0.174600	0.370480	0.795120
C2301	C230	0.137090	0.291910	0.825600
C2311	C231	0.234650	0.625210	0.778540
C2321	C232	0.230420	0.664560	0.810820
C2331	C233	0.269300	0.657140	0.841360
C2341	C234	0.313620	0.607060	0.838720
C2351	C235	0.318740	0.571980	0.807280
C2361	C236	0.150180	0.721940	0.909680
C2371	C237	0.113680	0.779460	0.912860
C2381	C238	0.039610	0.751470	0.945520
C2391	C239	0.040880	0.630780	0.965340
C2401	C240	0.112070	0.644330	0.936600
C2411	C241	0.790910	0.182710	0.179780
C2421	C242	0.810380	0.267360	0.152460
C2431	C243	0.794640	0.284240	0.110720
C2441	C244	0.818240	0.359540	0.084020
C2451	C245	0.854070	0.423950	0.097660
C2461	C246	0.870630	0.406910	0.139860
C2471	C247	0.847180	0.325500	0.165920
C2481	C248	0.877200	0.511220	0.067780
C2491	C249	0.784920	0.911240	0.194440
C2501	C250	0.809800	0.874320	0.156660
C2511	C251	0.845070	0.919890	0.112040
C2521	C252	0.867870	0.885110	0.080020
C2531	C253	0.854120	0.802700	0.090380
C2541	C254	0.815380	0.755060	0.134360
C2551	C255	0.794570	0.791990	0.169040
C2561	C256	0.876270	0.758770	0.055360
N331	N33	0.195960	0.500780	0.265740
N341	N34	0.975350	0.412590	0.365460
N351	N35	0.920330	0.456070	0.368200
N361	N36	0.907580	0.580300	0.466820
N371	N37	0.447180	0.259800	0.455680
N381	N38	0.556780	0.482120	0.357700
N391	N39	0.516590	0.535350	0.352060
N401	N40	0.376820	0.535640	0.258740
N411	N41	0.381790	0.078370	0.459920
N421	N42	0.373670	0.956030	0.361640
N431	N43	0.421920	0.905760	0.355320
N441	N44	0.651670	0.993430	0.267840
N451	N45	0.828050	0.026330	0.274980
N461	N46	0.942580	0.016700	0.372720
N471	N47	0.997830	0.975790	0.379580
N481	N48	0.930000	0.752300	0.472040
N491	N49	0.750780	0.945960	0.765740
N501	N50	0.662590	0.725350	0.865460
N511	N51	0.706070	0.670330	0.868200
N521	N52	0.830300	0.657580	0.966820
N531	N53	0.509800	0.197180	0.955680
N541	N54	0.732120	0.306780	0.857700
N551	N55	0.785350	0.266590	0.852060
N561	N56	0.785640	0.126820	0.758740
N571	N57	0.328370	0.131790	0.959920
N581	N58	0.206030	0.123670	0.861640
N591	N59	0.155760	0.171920	0.855320
N601	N60	0.243430	0.401670	0.767840
N611	N61	0.276330	0.578050	0.774980
N621	N62	0.266700	0.692580	0.872720
N631	N63	0.225790	0.747830	0.879580
N641	N64	0.002300	0.680000	0.972040
O251	O25	0.327270	0.701630	0.221780
O261	O26	0.309300	0.632340	0.172100
O271	O27	0.389430	0.052230	0.054340
O281	O28	0.403030	0.986150	0.002400
O291	O29	0.413040	0.561540	0.712220
O301	O30	0.374960	0.488260	0.670780
O311	O31	0.773740	0.592740	0.538200
O321	O32	0.815150	0.684210	0.574540
O331	O33	0.242210	0.562570	0.681600
O341	O34	0.121570	0.494950	0.732180
O351	O35	0.937120	0.596640	0.562240
O361	O36	0.053240	0.680920	0.519240
O371	O37	0.951630	0.077270	0.721780
O381	O38	0.882340	0.059300	0.672100
O391	O39	0.302230	0.139430	0.554340
O401	O40	0.236150	0.153030	0.502400
O411	O41	0.811540	0.163040	0.212220
O421	O42	0.738260	0.124960	0.170780
O431	O43	0.842740	0.523740	0.038200
O441	O44	0.934210	0.565150	0.074540
O451	O45	0.812570	0.992210	0.181600
O461	O46	0.744950	0.871570	0.232180
O471	O47	0.846640	0.687120	0.062240
O481	O48	0.930920	0.803240	0.019240
