data_IXUQOJ_clean_PM
_symmetry_space_group_name_H-M	'P1'
_cell_length_a	18.078400
_cell_length_b	18.753800
_cell_length_c	25.801100
_cell_angle_alpha	90.000000
_cell_angle_beta	108.992000
_cell_angle_gamma	90.000000
_symmetry_Int_Tables_number 1

loop_
_symmetry_equiv_pos_as_xyz
'x,y,z'

loop_
_atom_site_label
_atom_site_type_symbol
_atom_site_fract_x
_atom_site_fract_y
_atom_site_fract_z
C11	C1	0.558130	0.877440	0.552920
C21	C2	0.607220	0.929090	0.533880
C31	C3	0.597600	0.999510	0.543080
H11	H1	0.567100	0.012300	0.564500
C41	C4	0.632300	0.052580	0.521290
H21	H2	0.622300	0.100300	0.526400
C51	C5	0.681310	0.034920	0.492090
C61	C6	0.696440	0.962350	0.483810
C71	C7	0.657940	0.907870	0.503970
C81	C8	0.671900	0.836100	0.493050
H31	H3	0.648000	0.799800	0.506400
C91	C9	0.719400	0.818900	0.463510
H41	H4	0.727000	0.771300	0.456600
C101	C10	0.757000	0.872500	0.443350
H51	H5	0.789100	0.860200	0.423000
C111	C11	0.746700	0.942100	0.453590
H61	H6	0.772700	0.977100	0.440700
C121	C12	0.558810	0.618800	0.557720
C131	C13	0.605500	0.563960	0.539420
C141	C14	0.675700	0.533900	0.574260
C151	C15	0.711200	0.555300	0.629600
H71	H7	0.687300	0.590200	0.644300
C161	C16	0.778700	0.525900	0.661100
H81	H8	0.800700	0.540800	0.697300
C171	C17	0.816400	0.473200	0.640440
H91	H9	0.862800	0.453200	0.663000
C181	C18	0.785600	0.451400	0.587850
H101	H10	0.811100	0.416500	0.574500
C191	C19	0.714800	0.481090	0.552610
C201	C20	0.679500	0.458620	0.497150
C211	C21	0.611600	0.488800	0.465920
H111	H11	0.588500	0.473100	0.430100
C221	C22	0.575600	0.542200	0.486000
H121	H12	0.530500	0.563700	0.462900
C231	C23	0.307230	0.749120	0.451360
C241	C24	0.257270	0.749770	0.391750
C251	C25	0.178450	0.750400	0.381550
H131	H13	0.159300	0.751300	0.410900
C261	C26	0.125300	0.749800	0.328020
H141	H14	0.071800	0.750800	0.322400
C271	C27	0.151770	0.747600	0.283910
C281	C28	0.233410	0.748900	0.292580
C291	C29	0.287550	0.750300	0.346460
C301	C30	0.368600	0.751700	0.351600
H151	H15	0.405800	0.752200	0.386400
C311	C31	0.392600	0.752300	0.306740
H161	H16	0.445800	0.753700	0.311400
C321	C32	0.339000	0.750700	0.254190
H171	H17	0.356500	0.750400	0.224000
C331	C33	0.260900	0.749700	0.246610
H181	H18	0.225200	0.749500	0.211300
C341	C34	0.105830	0.105320	0.807430
C351	C35	0.710900	0.095780	0.466090
C361	C36	0.092950	0.747500	0.227040
C371	C37	0.544830	0.754800	0.006870
C381	C38	0.332300	0.112480	0.829040
C391	C39	0.391370	0.888490	0.692300
C401	C40	0.373580	0.943490	0.729250
C411	C41	0.326400	0.000140	0.706760
H191	H19	0.301500	0.002100	0.669100
C421	C42	0.315270	0.055170	0.740060
H201	H20	0.282200	0.092900	0.724200
C431	C43	0.352250	0.054560	0.795710
C441	C44	0.403640	0.996940	0.820730
C451	C45	0.413060	0.940330	0.786850
C461	C46	0.463900	0.883370	0.810780
H211	H21	0.469200	0.845600	0.788900
C471	C47	0.504800	0.882800	0.864870
H221	H22	0.538100	0.844900	0.879900
C481	C48	0.497300	0.939100	0.898500
H231	H23	0.526300	0.938600	0.935600
C491	C49	0.448200	0.994300	0.877550
H241	H24	0.443600	0.031000	0.900600
C501	C50	0.287010	0.749250	0.803440
C511	C51	0.346250	0.751220	0.860060
C521	C52	0.405200	0.702500	0.871300
H251	H25	0.404900	0.668400	0.845000
C531	C53	0.465600	0.702300	0.920890
H261	H26	0.503400	0.666600	0.928100
C541	C54	0.470680	0.754110	0.959610
C551	C55	0.409460	0.806020	0.950470
C561	C56	0.345260	0.802680	0.900790
C571	C57	0.283500	0.852600	0.892270
H271	H27	0.240600	0.850600	0.860400
C581	C58	0.286600	0.903700	0.930730
H281	H28	0.246100	0.936500	0.924600
C591	C59	0.350200	0.907000	0.979160
H291	H29	0.351600	0.942200	0.004900
C601	C60	0.409700	0.859600	0.989040
H301	H30	0.451300	0.862400	0.021700
C611	C61	0.164300	0.883010	0.670350
C621	C62	0.142950	0.938820	0.703950
C631	C63	0.189070	0.944690	0.757620
H311	H31	0.228400	0.911300	0.772100
C641	C64	0.178600	0.999540	0.791270
H321	H32	0.212000	0.003400	0.827200
C651	C65	0.118900	0.047680	0.770980
C661	C66	0.066600	0.040690	0.716580
C671	C67	0.079600	0.987040	0.681710
C681	C68	0.026900	0.981600	0.627380
H331	H33	0.036000	0.947900	0.603700
C691	C69	0.962900	0.025200	0.609320
H341	H34	0.928400	0.020300	0.573800
C701	C70	0.949100	0.077400	0.644180
H351	H35	0.905100	0.106400	0.631900
C711	C71	0.000200	0.085500	0.696160
H361	H36	0.991300	0.121100	0.718500
C721	C72	0.712000	0.402190	0.469960
O11	O1	0.544080	0.891740	0.595940
O21	O2	0.531240	0.825010	0.522310
O31	O3	0.527500	0.665830	0.523580
O41	O4	0.551820	0.612330	0.604190
O51	O5	0.066100	0.805970	0.208970
O61	O6	0.074910	0.690500	0.203410
O71	O7	0.442180	0.750280	0.598380
O81	O8	0.054180	0.088140	0.829240
O91	O9	0.140710	0.162950	0.814860
O101	O10	0.380220	0.750190	0.462140
O111	O11	0.274040	0.749120	0.486540
O121	O12	0.663540	0.361420	0.437910
O131	O13	0.784900	0.399580	0.478390
O141	O14	0.661190	0.139100	0.439380
O151	O15	0.783500	0.099350	0.473380
O161	O16	0.241430	0.748470	0.601700
O171	O17	0.575940	0.695400	0.023020
O181	O18	0.573940	0.814050	0.025750
O191	O19	0.327890	0.095060	0.875010
O201	O20	0.318050	0.174730	0.809430
O211	O21	0.184990	0.821980	0.691210
O221	O22	0.163890	0.900160	0.623180
O231	O23	0.315460	0.747890	0.765420
O241	O24	0.215660	0.747870	0.798890
O251	O25	0.359400	0.829340	0.683410
O261	O26	0.443300	0.908650	0.672540
Zn11	Zn1	0.486410	0.666140	0.638990
Zn21	Zn2	0.465040	0.746610	0.530210
Zn31	Zn3	0.485630	0.837230	0.635840
Zn41	Zn4	0.327230	0.750050	0.571590
Zn51	Zn5	0.182150	0.663810	0.570890
Zn61	Zn6	0.180190	0.831860	0.570820
Zn71	Zn7	0.276440	0.747590	0.683870
Zn81	Zn8	0.123900	0.750580	0.729220
C731	C73	0.941870	0.377440	0.947080
C741	C74	0.892780	0.429090	0.966120
C751	C75	0.902400	0.499510	0.956920
H371	H37	0.932900	0.512300	0.935500
C761	C76	0.867700	0.552580	0.978710
H381	H38	0.877700	0.600300	0.973600
C771	C77	0.818690	0.534920	0.007910
C781	C78	0.803560	0.462350	0.016190
C791	C79	0.842060	0.407870	0.996030
C801	C80	0.828100	0.336100	0.006950
H391	H39	0.852000	0.299800	0.993600
C811	C81	0.780600	0.318900	0.036490
H401	H40	0.773000	0.271300	0.043400
C821	C82	0.743000	0.372500	0.056650
H411	H41	0.710900	0.360200	0.077000
C831	C83	0.753300	0.442100	0.046410
H421	H42	0.727300	0.477100	0.059300
C841	C84	0.941190	0.118800	0.942280
C851	C85	0.894500	0.063960	0.960580
C861	C86	0.824300	0.033900	0.925740
C871	C87	0.788800	0.055300	0.870400
H431	H43	0.812700	0.090200	0.855700
C881	C88	0.721300	0.025900	0.838900
H441	H44	0.699300	0.040800	0.802700
C891	C89	0.683600	0.973200	0.859560
H451	H45	0.637200	0.953200	0.837000
C901	C90	0.714400	0.951400	0.912150
H461	H46	0.688900	0.916500	0.925500
C911	C91	0.785200	0.981090	0.947390
C921	C92	0.820500	0.958620	0.002850
C931	C93	0.888400	0.988800	0.034080
H471	H47	0.911500	0.973100	0.069900
C941	C94	0.924400	0.042200	0.014000
H481	H48	0.969500	0.063700	0.037100
C951	C95	0.192770	0.249120	0.048640
C961	C96	0.242730	0.249770	0.108250
C971	C97	0.321550	0.250400	0.118450
H491	H49	0.340700	0.251300	0.089100
C981	C98	0.374700	0.249800	0.171980
H501	H50	0.428200	0.250800	0.177600
C991	C99	0.348230	0.247600	0.216090
C1001	C100	0.266590	0.248900	0.207420
C1011	C101	0.212450	0.250300	0.153540
C1021	C102	0.131400	0.251700	0.148400
H511	H51	0.094200	0.252200	0.113600
C1031	C103	0.107400	0.252300	0.193260
H521	H52	0.054200	0.253700	0.188600
C1041	C104	0.161000	0.250700	0.245810
H531	H53	0.143500	0.250400	0.276000
C1051	C105	0.239100	0.249700	0.253390
H541	H54	0.274800	0.249500	0.288700
C1061	C106	0.394170	0.605320	0.692570
C1071	C107	0.789100	0.595780	0.033910
C1081	C108	0.407050	0.247500	0.272960
C1091	C109	0.955170	0.254800	0.493130
C1101	C110	0.167700	0.612480	0.670960
C1111	C111	0.108630	0.388490	0.807700
C1121	C112	0.126420	0.443490	0.770750
C1131	C113	0.173600	0.500140	0.793240
H551	H55	0.198500	0.502100	0.830900
C1141	C114	0.184730	0.555170	0.759940
H561	H56	0.217800	0.592900	0.775800
C1151	C115	0.147750	0.554560	0.704290
C1161	C116	0.096360	0.496940	0.679270
C1171	C117	0.086940	0.440330	0.713150
C1181	C118	0.036100	0.383370	0.689220
H571	H57	0.030800	0.345600	0.711100
C1191	C119	0.995200	0.382800	0.635130
H581	H58	0.961900	0.344900	0.620100
C1201	C120	0.002700	0.439100	0.601500
H591	H59	0.973700	0.438600	0.564400
C1211	C121	0.051800	0.494300	0.622450
H601	H60	0.056400	0.531000	0.599400
C1221	C122	0.212990	0.249250	0.696560
C1231	C123	0.153750	0.251220	0.639940
C1241	C124	0.094800	0.202500	0.628700
H611	H61	0.095100	0.168400	0.655000
C1251	C125	0.034400	0.202300	0.579110
H621	H62	0.996600	0.166600	0.571900
C1261	C126	0.029320	0.254110	0.540390
C1271	C127	0.090540	0.306020	0.549530
C1281	C128	0.154740	0.302680	0.599210
C1291	C129	0.216500	0.352600	0.607730
H631	H63	0.259400	0.350600	0.639600
C1301	C130	0.213400	0.403700	0.569270
H641	H64	0.253900	0.436500	0.575400
C1311	C131	0.149800	0.407000	0.520840
H651	H65	0.148400	0.442200	0.495100
C1321	C132	0.090300	0.359600	0.510960
H661	H66	0.048700	0.362400	0.478300
C1331	C133	0.335700	0.383010	0.829650
C1341	C134	0.357050	0.438820	0.796050
C1351	C135	0.310930	0.444690	0.742380
H671	H67	0.271600	0.411300	0.727900
C1361	C136	0.321400	0.499540	0.708730
H681	H68	0.288000	0.503400	0.672800
C1371	C137	0.381100	0.547680	0.729020
C1381	C138	0.433400	0.540690	0.783420
C1391	C139	0.420400	0.487040	0.818290
C1401	C140	0.473100	0.481600	0.872620
H691	H69	0.464000	0.447900	0.896300
C1411	C141	0.537100	0.525200	0.890680
H701	H70	0.571600	0.520300	0.926200
C1421	C142	0.550900	0.577400	0.855820
H711	H71	0.594900	0.606400	0.868100
C1431	C143	0.499800	0.585500	0.803840
H721	H72	0.508700	0.621100	0.781500
C1441	C144	0.788000	0.902190	0.030040
O271	O27	0.955920	0.391740	0.904060
O281	O28	0.968760	0.325010	0.977690
O291	O29	0.972500	0.165830	0.976420
O301	O30	0.948180	0.112330	0.895810
O311	O31	0.433900	0.305970	0.291030
O321	O32	0.425090	0.190500	0.296590
O331	O33	0.057820	0.250280	0.901620
O341	O34	0.445820	0.588140	0.670760
O351	O35	0.359290	0.662950	0.685140
O361	O36	0.119780	0.250190	0.037860
O371	O37	0.225960	0.249120	0.013460
O381	O38	0.836460	0.861420	0.062090
O391	O39	0.715100	0.899580	0.021610
O401	O40	0.838810	0.639100	0.060620
O411	O41	0.716500	0.599350	0.026620
O421	O42	0.258570	0.248470	0.898300
O431	O43	0.924060	0.195400	0.476980
O441	O44	0.926060	0.314050	0.474250
O451	O45	0.172110	0.595060	0.624990
O461	O46	0.181950	0.674730	0.690570
O471	O47	0.315010	0.321980	0.808790
O481	O48	0.336110	0.400160	0.876820
O491	O49	0.184540	0.247890	0.734580
O501	O50	0.284340	0.247870	0.701110
O511	O51	0.140600	0.329340	0.816590
O521	O52	0.056700	0.408650	0.827460
Zn91	Zn9	0.013590	0.166140	0.861010
Zn101	Zn10	0.034960	0.246610	0.969790
Zn111	Zn11	0.014370	0.337230	0.864160
Zn121	Zn12	0.172770	0.250050	0.928410
Zn131	Zn13	0.317850	0.163810	0.929110
Zn141	Zn14	0.319810	0.331860	0.929180
Zn151	Zn15	0.223560	0.247590	0.816130
Zn161	Zn16	0.376100	0.250580	0.770780
C1451	C145	0.441870	0.122560	0.447080
C1461	C146	0.392780	0.070910	0.466120
C1471	C147	0.402400	0.000490	0.456920
H731	H73	0.432900	0.987700	0.435500
C1481	C148	0.367700	0.947420	0.478710
H741	H74	0.377700	0.899700	0.473600
C1491	C149	0.318690	0.965080	0.507910
C1501	C150	0.303560	0.037650	0.516190
C1511	C151	0.342060	0.092130	0.496030
C1521	C152	0.328100	0.163900	0.506950
H751	H75	0.352000	0.200200	0.493600
C1531	C153	0.280600	0.181100	0.536490
H761	H76	0.273000	0.228700	0.543400
C1541	C154	0.243000	0.127500	0.556650
H771	H77	0.210900	0.139800	0.577000
C1551	C155	0.253300	0.057900	0.546410
H781	H78	0.227300	0.022900	0.559300
C1561	C156	0.441190	0.381200	0.442280
C1571	C157	0.394500	0.436040	0.460580
C1581	C158	0.324300	0.466100	0.425740
C1591	C159	0.288800	0.444700	0.370400
H791	H79	0.312700	0.409800	0.355700
C1601	C160	0.221300	0.474100	0.338900
H801	H80	0.199300	0.459200	0.302700
C1611	C161	0.183600	0.526800	0.359560
H811	H81	0.137200	0.546800	0.337000
C1621	C162	0.214400	0.548600	0.412150
H821	H82	0.188900	0.583500	0.425500
C1631	C163	0.285200	0.518910	0.447390
C1641	C164	0.320500	0.541380	0.502850
C1651	C165	0.388400	0.511200	0.534080
H831	H83	0.411500	0.526900	0.569900
C1661	C166	0.424400	0.457800	0.514000
H841	H84	0.469500	0.436300	0.537100
C1671	C167	0.692770	0.250880	0.548640
C1681	C168	0.742730	0.250230	0.608250
C1691	C169	0.821550	0.249600	0.618450
H851	H85	0.840700	0.248700	0.589100
C1701	C170	0.874700	0.250200	0.671980
H861	H86	0.928200	0.249200	0.677600
C1711	C171	0.848230	0.252400	0.716090
C1721	C172	0.766590	0.251100	0.707420
C1731	C173	0.712450	0.249700	0.653540
C1741	C174	0.631400	0.248300	0.648400
H871	H87	0.594200	0.247800	0.613600
C1751	C175	0.607400	0.247700	0.693260
H881	H88	0.554200	0.246300	0.688600
C1761	C176	0.661000	0.249300	0.745810
H891	H89	0.643500	0.249600	0.776000
C1771	C177	0.739100	0.250300	0.753390
H901	H90	0.774800	0.250500	0.788700
C1781	C178	0.894170	0.894680	0.192570
C1791	C179	0.289100	0.904220	0.533910
C1801	C180	0.907050	0.252500	0.772960
C1811	C181	0.455170	0.245200	0.993130
C1821	C182	0.667700	0.887520	0.170960
C1831	C183	0.608630	0.111510	0.307700
C1841	C184	0.626420	0.056510	0.270750
C1851	C185	0.673600	0.999860	0.293240
H911	H91	0.698500	0.997900	0.330900
C1861	C186	0.684730	0.944830	0.259940
H921	H92	0.717800	0.907100	0.275800
C1871	C187	0.647750	0.945440	0.204290
C1881	C188	0.596360	0.003060	0.179270
C1891	C189	0.586940	0.059670	0.213150
C1901	C190	0.536100	0.116630	0.189220
H931	H93	0.530800	0.154400	0.211100
C1911	C191	0.495200	0.117200	0.135130
H941	H94	0.461900	0.155100	0.120100
C1921	C192	0.502700	0.060900	0.101500
H951	H95	0.473700	0.061400	0.064400
C1931	C193	0.551800	0.005700	0.122450
H961	H96	0.556400	0.969000	0.099400
C1941	C194	0.712990	0.250750	0.196560
C1951	C195	0.653750	0.248780	0.139940
C1961	C196	0.594800	0.297500	0.128700
H971	H97	0.595100	0.331600	0.155000
C1971	C197	0.534400	0.297700	0.079110
H981	H98	0.496600	0.333400	0.071900
C1981	C198	0.529320	0.245890	0.040390
C1991	C199	0.590540	0.193980	0.049530
C2001	C200	0.654740	0.197320	0.099210
C2011	C201	0.716500	0.147400	0.107730
H991	H99	0.759400	0.149400	0.139600
C2021	C202	0.713400	0.096300	0.069270
H1001	H100	0.753900	0.063500	0.075400
C2031	C203	0.649800	0.093000	0.020840
H1011	H101	0.648400	0.057800	0.995100
C2041	C204	0.590300	0.140400	0.010960
H1021	H102	0.548700	0.137600	0.978300
C2051	C205	0.835700	0.116990	0.329650
C2061	C206	0.857050	0.061180	0.296050
C2071	C207	0.810930	0.055310	0.242380
H1031	H103	0.771600	0.088700	0.227900
C2081	C208	0.821400	0.000460	0.208730
H1041	H104	0.788000	0.996600	0.172800
C2091	C209	0.881100	0.952320	0.229020
C2101	C210	0.933400	0.959310	0.283420
C2111	C211	0.920400	0.012960	0.318290
C2121	C212	0.973100	0.018400	0.372620
H1051	H105	0.964000	0.052100	0.396300
C2131	C213	0.037100	0.974800	0.390680
H1061	H106	0.071600	0.979700	0.426200
C2141	C214	0.050900	0.922600	0.355820
H1071	H107	0.094900	0.893600	0.368100
C2151	C215	0.999800	0.914500	0.303840
H1081	H108	0.008700	0.878900	0.281500
C2161	C216	0.288000	0.597810	0.530040
O531	O53	0.455920	0.108260	0.404060
O541	O54	0.468760	0.174990	0.477690
O551	O55	0.472500	0.334170	0.476420
O561	O56	0.448180	0.387670	0.395810
O571	O57	0.933900	0.194030	0.791030
O581	O58	0.925090	0.309500	0.796590
O591	O59	0.557820	0.249720	0.401620
O601	O60	0.945820	0.911860	0.170760
O611	O61	0.859290	0.837050	0.185140
O621	O62	0.619780	0.249810	0.537860
O631	O63	0.725960	0.250880	0.513460
O641	O64	0.336460	0.638580	0.562090
O651	O65	0.215100	0.600420	0.521610
O661	O66	0.338810	0.860900	0.560620
O671	O67	0.216500	0.900650	0.526620
O681	O68	0.758570	0.251530	0.398300
O691	O69	0.424060	0.304600	0.976980
O701	O70	0.426060	0.185950	0.974250
O711	O71	0.672110	0.904940	0.124990
O721	O72	0.681950	0.825270	0.190570
O731	O73	0.815010	0.178020	0.308790
O741	O74	0.836110	0.099840	0.376820
O751	O75	0.684540	0.252110	0.234580
O761	O76	0.784340	0.252130	0.201110
O771	O77	0.640600	0.170660	0.316590
O781	O78	0.556700	0.091350	0.327460
Zn171	Zn17	0.513590	0.333860	0.361010
Zn181	Zn18	0.534960	0.253390	0.469790
Zn191	Zn19	0.514370	0.162770	0.364160
Zn201	Zn20	0.672770	0.249950	0.428410
Zn211	Zn21	0.817850	0.336190	0.429110
Zn221	Zn22	0.819810	0.168140	0.429180
Zn231	Zn23	0.723570	0.252410	0.316130
Zn241	Zn24	0.876100	0.249420	0.270780
C2171	C217	0.058130	0.622560	0.052920
C2181	C218	0.107220	0.570910	0.033880
C2191	C219	0.097600	0.500490	0.043080
H1091	H109	0.067100	0.487700	0.064500
C2201	C220	0.132300	0.447420	0.021290
H1101	H110	0.122300	0.399700	0.026400
C2211	C221	0.181310	0.465080	0.992090
C2221	C222	0.196440	0.537650	0.983810
C2231	C223	0.157940	0.592130	0.003970
C2241	C224	0.171900	0.663900	0.993050
H1111	H111	0.148000	0.700200	0.006400
C2251	C225	0.219400	0.681100	0.963510
H1121	H112	0.227000	0.728700	0.956600
C2261	C226	0.257000	0.627500	0.943350
H1131	H113	0.289100	0.639800	0.923000
C2271	C227	0.246700	0.557900	0.953590
H1141	H114	0.272700	0.522900	0.940700
C2281	C228	0.058810	0.881200	0.057720
C2291	C229	0.105500	0.936040	0.039420
C2301	C230	0.175700	0.966100	0.074260
C2311	C231	0.211200	0.944700	0.129600
H1151	H115	0.187300	0.909800	0.144300
C2321	C232	0.278700	0.974100	0.161100
H1161	H116	0.300700	0.959200	0.197300
C2331	C233	0.316400	0.026800	0.140440
H1171	H117	0.362800	0.046800	0.163000
C2341	C234	0.285600	0.048600	0.087850
H1181	H118	0.311100	0.083500	0.074500
C2351	C235	0.214800	0.018910	0.052610
C2361	C236	0.179500	0.041380	0.997150
C2371	C237	0.111600	0.011200	0.965920
H1191	H119	0.088500	0.026900	0.930100
C2381	C238	0.075600	0.957800	0.986000
H1201	H120	0.030500	0.936300	0.962900
C2391	C239	0.807230	0.750880	0.951360
C2401	C240	0.757270	0.750230	0.891750
C2411	C241	0.678450	0.749600	0.881550
H1211	H121	0.659300	0.748700	0.910900
C2421	C242	0.625300	0.750200	0.828020
H1221	H122	0.571800	0.749200	0.822400
C2431	C243	0.651770	0.752400	0.783910
C2441	C244	0.733410	0.751100	0.792580
C2451	C245	0.787550	0.749700	0.846460
C2461	C246	0.868600	0.748300	0.851600
H1231	H123	0.905800	0.747800	0.886400
C2471	C247	0.892600	0.747700	0.806740
H1241	H124	0.945800	0.746300	0.811400
C2481	C248	0.839000	0.749300	0.754190
H1251	H125	0.856500	0.749600	0.724000
C2491	C249	0.760900	0.750300	0.746610
H1261	H126	0.725200	0.750500	0.711300
C2501	C250	0.605830	0.394680	0.307430
C2511	C251	0.210900	0.404220	0.966090
C2521	C252	0.592950	0.752500	0.727040
C2531	C253	0.044830	0.745200	0.506870
C2541	C254	0.832300	0.387520	0.329040
C2551	C255	0.891370	0.611510	0.192300
C2561	C256	0.873580	0.556510	0.229250
C2571	C257	0.826400	0.499860	0.206760
H1271	H127	0.801500	0.497900	0.169100
C2581	C258	0.815270	0.444830	0.240060
H1281	H128	0.782200	0.407100	0.224200
C2591	C259	0.852250	0.445440	0.295710
C2601	C260	0.903640	0.503060	0.320730
C2611	C261	0.913060	0.559670	0.286850
C2621	C262	0.963900	0.616630	0.310780
H1291	H129	0.969200	0.654400	0.288900
C2631	C263	0.004800	0.617200	0.364870
H1301	H130	0.038100	0.655100	0.379900
C2641	C264	0.997300	0.560900	0.398500
H1311	H131	0.026300	0.561400	0.435600
C2651	C265	0.948200	0.505700	0.377550
H1321	H132	0.943600	0.469000	0.400600
C2661	C266	0.787010	0.750750	0.303440
C2671	C267	0.846250	0.748780	0.360060
C2681	C268	0.905200	0.797500	0.371300
H1331	H133	0.904900	0.831600	0.345000
C2691	C269	0.965600	0.797700	0.420890
H1341	H134	0.003400	0.833400	0.428100
C2701	C270	0.970680	0.745890	0.459610
C2711	C271	0.909460	0.693980	0.450470
C2721	C272	0.845260	0.697320	0.400790
C2731	C273	0.783500	0.647400	0.392270
H1351	H135	0.740600	0.649400	0.360400
C2741	C274	0.786600	0.596300	0.430730
H1361	H136	0.746100	0.563500	0.424600
C2751	C275	0.850200	0.593000	0.479160
H1371	H137	0.851600	0.557800	0.504900
C2761	C276	0.909700	0.640400	0.489040
H1381	H138	0.951300	0.637600	0.521700
C2771	C277	0.664300	0.616990	0.170350
C2781	C278	0.642950	0.561180	0.203950
C2791	C279	0.689070	0.555310	0.257620
H1391	H139	0.728400	0.588700	0.272100
C2801	C280	0.678600	0.500460	0.291270
H1401	H140	0.712000	0.496600	0.327200
C2811	C281	0.618900	0.452320	0.270980
C2821	C282	0.566600	0.459310	0.216580
C2831	C283	0.579600	0.512960	0.181710
C2841	C284	0.526900	0.518400	0.127380
H1411	H141	0.536000	0.552100	0.103700
C2851	C285	0.462900	0.474800	0.109320
H1421	H142	0.428400	0.479700	0.073800
C2861	C286	0.449100	0.422600	0.144180
H1431	H143	0.405100	0.393600	0.131900
C2871	C287	0.500200	0.414500	0.196160
H1441	H144	0.491300	0.378900	0.218500
C2881	C288	0.212000	0.097810	0.969960
O791	O79	0.044080	0.608260	0.095940
O801	O80	0.031240	0.674990	0.022310
O811	O81	0.027500	0.834170	0.023580
O821	O82	0.051820	0.887670	0.104190
O831	O83	0.566100	0.694030	0.708970
O841	O84	0.574910	0.809500	0.703410
O851	O85	0.942180	0.749720	0.098380
O861	O86	0.554180	0.411860	0.329240
O871	O87	0.640710	0.337050	0.314860
O881	O88	0.880220	0.749810	0.962140
O891	O89	0.774040	0.750880	0.986540
O901	O90	0.163540	0.138580	0.937910
O911	O91	0.284900	0.100420	0.978390
O921	O92	0.161190	0.360900	0.939380
O931	O93	0.283500	0.400650	0.973380
O941	O94	0.741430	0.751530	0.101700
O951	O95	0.075940	0.804600	0.523020
O961	O96	0.073940	0.685950	0.525750
O971	O97	0.827890	0.404940	0.375010
O981	O98	0.818050	0.325270	0.309430
O991	O99	0.684990	0.678020	0.191210
O1001	O100	0.663890	0.599840	0.123180
O1011	O101	0.815460	0.752110	0.265420
O1021	O102	0.715660	0.752130	0.298890
O1031	O103	0.859400	0.670660	0.183410
O1041	O104	0.943300	0.591350	0.172540
Zn251	Zn25	0.986410	0.833860	0.138990
Zn261	Zn26	0.965040	0.753390	0.030210
Zn271	Zn27	0.985630	0.662770	0.135840
Zn281	Zn28	0.827230	0.749950	0.071590
Zn291	Zn29	0.682150	0.836190	0.070890
Zn301	Zn30	0.680190	0.668140	0.070820
Zn311	Zn31	0.776430	0.752410	0.183870
Zn321	Zn32	0.623900	0.749420	0.229220
