data_IYAKAW_clean_PM
_symmetry_space_group_name_H-M	'P1'
_cell_length_a	18.516600
_cell_length_b	29.465200
_cell_length_c	16.385000
_cell_angle_alpha	90.000000
_cell_angle_beta	119.388000
_cell_angle_gamma	90.000000
_symmetry_Int_Tables_number 1

loop_
_symmetry_equiv_pos_as_xyz
'x,y,z'

loop_
_atom_site_label
_atom_site_type_symbol
_atom_site_fract_x
_atom_site_fract_y
_atom_site_fract_z
Mg11	Mg1	0.795910	0.614510	0.726770
O11	O1	0.944600	0.577700	0.634700
O21	O2	0.950900	0.694500	0.634700
O31	O3	0.866500	0.663960	0.677700
O41	O4	0.073400	0.591520	0.674700
C11	C1	0.004500	0.533600	0.562600
C21	C2	0.068500	0.527600	0.542600
H11	H1	0.115900	0.546700	0.571300
C31	C3	0.830200	0.756700	0.516700
H21	H2	0.885100	0.761500	0.528100
C41	C4	0.936300	0.505600	0.518200
H31	H3	0.891400	0.509500	0.530100
C51	C5	0.733700	0.715800	0.546500
H41	H4	0.722100	0.692300	0.578200
C61	C6	0.814000	0.722000	0.563800
C71	C7	0.008000	0.569900	0.626500
C81	C8	0.882200	0.692100	0.630100
Mg21	Mg2	0.295910	0.114510	0.726770
O51	O5	0.444600	0.077700	0.634700
O61	O6	0.450900	0.194500	0.634700
O71	O7	0.366500	0.163960	0.677700
O81	O8	0.573400	0.091520	0.674700
C91	C9	0.504500	0.033600	0.562600
C101	C10	0.568500	0.027600	0.542600
H51	H5	0.615900	0.046700	0.571300
C111	C11	0.330200	0.256700	0.516700
H61	H6	0.385100	0.261500	0.528100
C121	C12	0.436300	0.005600	0.518200
H71	H7	0.391400	0.009500	0.530100
C131	C13	0.233700	0.215800	0.546500
H81	H8	0.222100	0.192300	0.578200
C141	C14	0.314000	0.222000	0.563800
C151	C15	0.508000	0.069900	0.626500
C161	C16	0.382200	0.192100	0.630100
Mg31	Mg3	0.204090	0.614510	0.773230
O91	O9	0.055400	0.577700	0.865300
O101	O10	0.049100	0.694500	0.865300
O111	O11	0.133500	0.663960	0.822300
O121	O12	0.926600	0.591520	0.825300
C171	C17	0.995500	0.533600	0.937400
C181	C18	0.931500	0.527600	0.957400
H91	H9	0.884100	0.546700	0.928700
C191	C19	0.169800	0.756700	0.983300
H101	H10	0.114900	0.761500	0.971900
C201	C20	0.063700	0.505600	0.981800
H111	H11	0.108600	0.509500	0.969900
C211	C21	0.266300	0.715800	0.953500
H121	H12	0.277900	0.692300	0.921800
C221	C22	0.186000	0.722000	0.936200
C231	C23	0.992000	0.569900	0.873500
C241	C24	0.117800	0.692100	0.869900
Mg41	Mg4	0.704090	0.114510	0.773230
O131	O13	0.555400	0.077700	0.865300
O141	O14	0.549100	0.194500	0.865300
O151	O15	0.633500	0.163960	0.822300
O161	O16	0.426600	0.091520	0.825300
C251	C25	0.495500	0.033600	0.937400
C261	C26	0.431500	0.027600	0.957400
H131	H13	0.384100	0.046700	0.928700
C271	C27	0.669800	0.256700	0.983300
H141	H14	0.614900	0.261500	0.971900
C281	C28	0.563700	0.005600	0.981800
H151	H15	0.608600	0.009500	0.969900
C291	C29	0.766300	0.215800	0.953500
H161	H16	0.777900	0.192300	0.921800
C301	C30	0.686000	0.222000	0.936200
C311	C31	0.492000	0.069900	0.873500
C321	C32	0.617800	0.192100	0.869900
Mg51	Mg5	0.204090	0.385490	0.273230
O171	O17	0.055400	0.422300	0.365300
O181	O18	0.049100	0.305500	0.365300
O191	O19	0.133500	0.336040	0.322300
O201	O20	0.926600	0.408480	0.325300
C331	C33	0.995500	0.466400	0.437400
C341	C34	0.931500	0.472400	0.457400
H171	H17	0.884100	0.453300	0.428700
C351	C35	0.169800	0.243300	0.483300
H181	H18	0.114900	0.238500	0.471900
C361	C36	0.063700	0.494400	0.481800
H191	H19	0.108600	0.490500	0.469900
C371	C37	0.266300	0.284200	0.453500
H201	H20	0.277900	0.307700	0.421800
C381	C38	0.186000	0.278000	0.436200
C391	C39	0.992000	0.430100	0.373500
C401	C40	0.117800	0.307900	0.369900
Mg61	Mg6	0.704090	0.885490	0.273230
O211	O21	0.555400	0.922300	0.365300
O221	O22	0.549100	0.805500	0.365300
O231	O23	0.633500	0.836040	0.322300
O241	O24	0.426600	0.908480	0.325300
C411	C41	0.495500	0.966400	0.437400
C421	C42	0.431500	0.972400	0.457400
H211	H21	0.384100	0.953300	0.428700
C431	C43	0.669800	0.743300	0.483300
H221	H22	0.614900	0.738500	0.471900
C441	C44	0.563700	0.994400	0.481800
H231	H23	0.608600	0.990500	0.469900
C451	C45	0.766300	0.784200	0.453500
H241	H24	0.777900	0.807700	0.421800
C461	C46	0.686000	0.778000	0.436200
C471	C47	0.492000	0.930100	0.373500
C481	C48	0.617800	0.807900	0.369900
Mg71	Mg7	0.795910	0.385490	0.226770
O251	O25	0.944600	0.422300	0.134700
O261	O26	0.950900	0.305500	0.134700
O271	O27	0.866500	0.336040	0.177700
O281	O28	0.073400	0.408480	0.174700
C491	C49	0.004500	0.466400	0.062600
C501	C50	0.068500	0.472400	0.042600
H251	H25	0.115900	0.453300	0.071300
C511	C51	0.830200	0.243300	0.016700
H261	H26	0.885100	0.238500	0.028100
C521	C52	0.936300	0.494400	0.018200
H271	H27	0.891400	0.490500	0.030100
C531	C53	0.733700	0.284200	0.046500
H281	H28	0.722100	0.307700	0.078200
C541	C54	0.814000	0.278000	0.063800
C551	C55	0.008000	0.430100	0.126500
C561	C56	0.882200	0.307900	0.130100
Mg81	Mg8	0.295910	0.885490	0.226770
O291	O29	0.444600	0.922300	0.134700
O301	O30	0.450900	0.805500	0.134700
O311	O31	0.366500	0.836040	0.177700
O321	O32	0.573400	0.908480	0.174700
C571	C57	0.504500	0.966400	0.062600
C581	C58	0.568500	0.972400	0.042600
H291	H29	0.615900	0.953300	0.071300
C591	C59	0.330200	0.743300	0.016700
H301	H30	0.385100	0.738500	0.028100
C601	C60	0.436300	0.994400	0.018200
H311	H31	0.391400	0.990500	0.030100
C611	C61	0.233700	0.784200	0.046500
H321	H32	0.222100	0.807700	0.078200
C621	C62	0.314000	0.778000	0.063800
C631	C63	0.508000	0.930100	0.126500
C641	C64	0.382200	0.807900	0.130100
Cd11	Cd1	0.000000	0.632790	0.750000
Cd21	Cd2	0.500000	0.132790	0.750000
Cd31	Cd3	0.000000	0.367210	0.250000
Cd41	Cd4	0.500000	0.867210	0.250000
Cd51	Cd5	0.595880	0.630760	0.631700
O331	O33	0.562100	0.569300	0.535000
O341	O34	0.460500	0.662070	0.585500
O351	O35	0.205500	0.826580	0.222100
O361	O36	0.714400	0.428400	0.282400
O371	O37	0.120900	0.794790	0.265500
O381	O38	0.590400	0.403380	0.250000
O391	O39	0.687300	0.594180	0.575900
O401	O40	0.526100	0.681910	0.510600
C651	C65	0.318500	0.712200	0.457800
H331	H33	0.312600	0.693100	0.500900
C661	C66	0.252100	0.739500	0.395700
H341	H34	0.201100	0.738400	0.396300
C671	C67	0.392700	0.713100	0.456400
C681	C68	0.398500	0.740600	0.392800
H351	H35	0.448600	0.740800	0.390300
C691	C69	0.189300	0.798700	0.268400
C701	C70	0.705600	0.527600	0.461500
H361	H36	0.749300	0.548800	0.492900
C711	C71	0.636800	0.529500	0.473800
C721	C72	0.652800	0.429200	0.292500
C731	C73	0.260400	0.767800	0.333800
C741	C74	0.574400	0.499000	0.427500
H371	H37	0.526500	0.500400	0.434400
C751	C75	0.628600	0.566600	0.532400
C761	C76	0.463500	0.683500	0.522100
C771	C77	0.580000	0.466400	0.371000
H381	H38	0.536200	0.445100	0.340400
C781	C78	0.334000	0.768200	0.332200
H391	H39	0.340400	0.787400	0.289500
C791	C79	0.711100	0.495300	0.404100
H401	H40	0.758600	0.494500	0.396200
C801	C80	0.648200	0.464000	0.357800
Cd61	Cd6	0.095880	0.130760	0.631700
O411	O41	0.062100	0.069300	0.535000
O421	O42	0.960500	0.162070	0.585500
O431	O43	0.705500	0.326580	0.222100
O441	O44	0.214400	0.928400	0.282400
O451	O45	0.620900	0.294790	0.265500
O461	O46	0.090400	0.903380	0.250000
O471	O47	0.187300	0.094180	0.575900
O481	O48	0.026100	0.181910	0.510600
C811	C81	0.818500	0.212200	0.457800
H411	H41	0.812600	0.193100	0.500900
C821	C82	0.752100	0.239500	0.395700
H421	H42	0.701100	0.238400	0.396300
C831	C83	0.892700	0.213100	0.456400
C841	C84	0.898500	0.240600	0.392800
H431	H43	0.948600	0.240800	0.390300
C851	C85	0.689300	0.298700	0.268400
C861	C86	0.205600	0.027600	0.461500
H441	H44	0.249300	0.048800	0.492900
C871	C87	0.136800	0.029500	0.473800
C881	C88	0.152800	0.929200	0.292500
C891	C89	0.760400	0.267800	0.333800
C901	C90	0.074400	0.999000	0.427500
H451	H45	0.026500	0.000400	0.434400
C911	C91	0.128600	0.066600	0.532400
C921	C92	0.963500	0.183500	0.522100
C931	C93	0.080000	0.966400	0.371000
H461	H46	0.036200	0.945100	0.340400
C941	C94	0.834000	0.268200	0.332200
H471	H47	0.840400	0.287400	0.289500
C951	C95	0.211100	0.995300	0.404100
H481	H48	0.258600	0.994500	0.396200
C961	C96	0.148200	0.964000	0.357800
Cd71	Cd7	0.595880	0.369240	0.131700
O491	O49	0.562100	0.430700	0.035000
O501	O50	0.460500	0.337930	0.085500
O511	O51	0.205500	0.173420	0.722100
O521	O52	0.714400	0.571600	0.782400
O531	O53	0.120900	0.205210	0.765500
O541	O54	0.590400	0.596620	0.750000
O551	O55	0.687300	0.405820	0.075900
O561	O56	0.526100	0.318090	0.010600
C971	C97	0.318500	0.287800	0.957800
H491	H49	0.312600	0.306900	0.000900
C981	C98	0.252100	0.260500	0.895700
H501	H50	0.201100	0.261600	0.896300
C991	C99	0.392700	0.286900	0.956400
C1001	C100	0.398500	0.259400	0.892800
H511	H51	0.448600	0.259200	0.890300
C1011	C101	0.189300	0.201300	0.768400
C1021	C102	0.705600	0.472400	0.961500
H521	H52	0.749300	0.451200	0.992900
C1031	C103	0.636800	0.470500	0.973800
C1041	C104	0.652800	0.570800	0.792500
C1051	C105	0.260400	0.232200	0.833800
C1061	C106	0.574400	0.501000	0.927500
H531	H53	0.526500	0.499600	0.934400
C1071	C107	0.628600	0.433400	0.032400
C1081	C108	0.463500	0.316500	0.022100
C1091	C109	0.580000	0.533600	0.871000
H541	H54	0.536200	0.554900	0.840400
C1101	C110	0.334000	0.231800	0.832200
H551	H55	0.340400	0.212600	0.789500
C1111	C111	0.711100	0.504700	0.904100
H561	H56	0.758600	0.505500	0.896200
C1121	C112	0.648200	0.536000	0.857800
Cd81	Cd8	0.095880	0.869240	0.131700
O571	O57	0.062100	0.930700	0.035000
O581	O58	0.960500	0.837930	0.085500
O591	O59	0.705500	0.673420	0.722100
O601	O60	0.214400	0.071600	0.782400
O611	O61	0.620900	0.705210	0.765500
O621	O62	0.090400	0.096620	0.750000
O631	O63	0.187300	0.905820	0.075900
O641	O64	0.026100	0.818090	0.010600
C1131	C113	0.818500	0.787800	0.957800
H571	H57	0.812600	0.806900	0.000900
C1141	C114	0.752100	0.760500	0.895700
H581	H58	0.701100	0.761600	0.896300
C1151	C115	0.892700	0.786900	0.956400
C1161	C116	0.898500	0.759400	0.892800
H591	H59	0.948600	0.759200	0.890300
C1171	C117	0.689300	0.701300	0.768400
C1181	C118	0.205600	0.972400	0.961500
H601	H60	0.249300	0.951200	0.992900
C1191	C119	0.136800	0.970500	0.973800
C1201	C120	0.152800	0.070800	0.792500
C1211	C121	0.760400	0.732200	0.833800
C1221	C122	0.074400	0.001000	0.927500
H611	H61	0.026500	0.999600	0.934400
C1231	C123	0.128600	0.933400	0.032400
C1241	C124	0.963500	0.816500	0.022100
C1251	C125	0.080000	0.033600	0.871000
H621	H62	0.036200	0.054900	0.840400
C1261	C126	0.834000	0.731800	0.832200
H631	H63	0.840400	0.712600	0.789500
C1271	C127	0.211100	0.004700	0.904100
H641	H64	0.258600	0.005500	0.896200
C1281	C128	0.148200	0.036000	0.857800
Cd91	Cd9	0.404120	0.630760	0.868300
O651	O65	0.437900	0.569300	0.965000
O661	O66	0.539500	0.662070	0.914500
O671	O67	0.794500	0.826580	0.277900
O681	O68	0.285600	0.428400	0.217600
O691	O69	0.879100	0.794790	0.234500
O701	O70	0.409600	0.403380	0.250000
O711	O71	0.312700	0.594180	0.924100
O721	O72	0.473900	0.681910	0.989400
C1291	C129	0.681500	0.712200	0.042200
H651	H65	0.687400	0.693100	0.999100
C1301	C130	0.747900	0.739500	0.104300
H661	H66	0.798900	0.738400	0.103700
C1311	C131	0.607300	0.713100	0.043600
C1321	C132	0.601500	0.740600	0.107200
H671	H67	0.551400	0.740800	0.109700
C1331	C133	0.810700	0.798700	0.231600
C1341	C134	0.294400	0.527600	0.038500
H681	H68	0.250700	0.548800	0.007100
C1351	C135	0.363200	0.529500	0.026200
C1361	C136	0.347200	0.429200	0.207500
C1371	C137	0.739600	0.767800	0.166200
C1381	C138	0.425600	0.499000	0.072500
H691	H69	0.473500	0.500400	0.065600
C1391	C139	0.371400	0.566600	0.967600
C1401	C140	0.536500	0.683500	0.977900
C1411	C141	0.420000	0.466400	0.129000
H701	H70	0.463800	0.445100	0.159600
C1421	C142	0.666000	0.768200	0.167800
H711	H71	0.659600	0.787400	0.210500
C1431	C143	0.288900	0.495300	0.095900
H721	H72	0.241400	0.494500	0.103800
C1441	C144	0.351800	0.464000	0.142200
Cd101	Cd10	0.904120	0.130760	0.868300
O731	O73	0.937900	0.069300	0.965000
O741	O74	0.039500	0.162070	0.914500
O751	O75	0.294500	0.326580	0.277900
O761	O76	0.785600	0.928400	0.217600
O771	O77	0.379100	0.294790	0.234500
O781	O78	0.909600	0.903380	0.250000
O791	O79	0.812700	0.094180	0.924100
O801	O80	0.973900	0.181910	0.989400
C1451	C145	0.181500	0.212200	0.042200
H731	H73	0.187400	0.193100	0.999100
C1461	C146	0.247900	0.239500	0.104300
H741	H74	0.298900	0.238400	0.103700
C1471	C147	0.107300	0.213100	0.043600
C1481	C148	0.101500	0.240600	0.107200
H751	H75	0.051400	0.240800	0.109700
C1491	C149	0.310700	0.298700	0.231600
C1501	C150	0.794400	0.027600	0.038500
H761	H76	0.750700	0.048800	0.007100
C1511	C151	0.863200	0.029500	0.026200
C1521	C152	0.847200	0.929200	0.207500
C1531	C153	0.239600	0.267800	0.166200
C1541	C154	0.925600	0.999000	0.072500
H771	H77	0.973500	0.000400	0.065600
C1551	C155	0.871400	0.066600	0.967600
C1561	C156	0.036500	0.183500	0.977900
C1571	C157	0.920000	0.966400	0.129000
H781	H78	0.963800	0.945100	0.159600
C1581	C158	0.166000	0.268200	0.167800
H791	H79	0.159600	0.287400	0.210500
C1591	C159	0.788900	0.995300	0.095900
H801	H80	0.741400	0.994500	0.103800
C1601	C160	0.851800	0.964000	0.142200
Cd111	Cd11	0.404120	0.369240	0.368300
O811	O81	0.437900	0.430700	0.465000
O821	O82	0.539500	0.337930	0.414500
O831	O83	0.794500	0.173420	0.777900
O841	O84	0.285600	0.571600	0.717600
O851	O85	0.879100	0.205210	0.734500
O861	O86	0.409600	0.596620	0.750000
O871	O87	0.312700	0.405820	0.424100
O881	O88	0.473900	0.318090	0.489400
C1611	C161	0.681500	0.287800	0.542200
H811	H81	0.687400	0.306900	0.499100
C1621	C162	0.747900	0.260500	0.604300
H821	H82	0.798900	0.261600	0.603700
C1631	C163	0.607300	0.286900	0.543600
C1641	C164	0.601500	0.259400	0.607200
H831	H83	0.551400	0.259200	0.609700
C1651	C165	0.810700	0.201300	0.731600
C1661	C166	0.294400	0.472400	0.538500
H841	H84	0.250700	0.451200	0.507100
C1671	C167	0.363200	0.470500	0.526200
C1681	C168	0.347200	0.570800	0.707500
C1691	C169	0.739600	0.232200	0.666200
C1701	C170	0.425600	0.501000	0.572500
H851	H85	0.473500	0.499600	0.565600
C1711	C171	0.371400	0.433400	0.467600
C1721	C172	0.536500	0.316500	0.477900
C1731	C173	0.420000	0.533600	0.629000
H861	H86	0.463800	0.554900	0.659600
C1741	C174	0.666000	0.231800	0.667800
H871	H87	0.659600	0.212600	0.710500
C1751	C175	0.288900	0.504700	0.595900
H881	H88	0.241400	0.505500	0.603800
C1761	C176	0.351800	0.536000	0.642200
Cd121	Cd12	0.904120	0.869240	0.368300
O891	O89	0.937900	0.930700	0.465000
O901	O90	0.039500	0.837930	0.414500
O911	O91	0.294500	0.673420	0.777900
O921	O92	0.785600	0.071600	0.717600
O931	O93	0.379100	0.705210	0.734500
O941	O94	0.909600	0.096620	0.750000
O951	O95	0.812700	0.905820	0.424100
O961	O96	0.973900	0.818090	0.489400
C1771	C177	0.181500	0.787800	0.542200
H891	H89	0.187400	0.806900	0.499100
C1781	C178	0.247900	0.760500	0.604300
H901	H90	0.298900	0.761600	0.603700
C1791	C179	0.107300	0.786900	0.543600
C1801	C180	0.101500	0.759400	0.607200
H911	H91	0.051400	0.759200	0.609700
C1811	C181	0.310700	0.701300	0.731600
C1821	C182	0.794400	0.972400	0.538500
H921	H92	0.750700	0.951200	0.507100
C1831	C183	0.863200	0.970500	0.526200
C1841	C184	0.847200	0.070800	0.707500
C1851	C185	0.239600	0.732200	0.666200
C1861	C186	0.925600	0.001000	0.572500
H931	H93	0.973500	0.999600	0.565600
C1871	C187	0.871400	0.933400	0.467600
C1881	C188	0.036500	0.816500	0.477900
C1891	C189	0.920000	0.033600	0.629000
H941	H94	0.963800	0.054900	0.659600
C1901	C190	0.166000	0.731800	0.667800
H951	H95	0.159600	0.712600	0.710500
C1911	C191	0.788900	0.004700	0.595900
H961	H96	0.741400	0.005500	0.603800
C1921	C192	0.851800	0.036000	0.642200
