data_IYAKIE_clean_PM
_symmetry_space_group_name_H-M	'P1'
_cell_length_a	19.999000
_cell_length_b	18.628400
_cell_length_c	35.123000
_cell_angle_alpha	90.000000
_cell_angle_beta	90.000000
_cell_angle_gamma	90.000000
_symmetry_Int_Tables_number 1

loop_
_symmetry_equiv_pos_as_xyz
'x,y,z'

loop_
_atom_site_label
_atom_site_type_symbol
_atom_site_fract_x
_atom_site_fract_y
_atom_site_fract_z
C11	C1	0.720900	0.341100	0.677000
C21	C2	0.683000	0.411200	0.678000
C31	C3	0.973300	0.268500	0.628900
C41	C4	0.679000	0.449200	0.711600
H11	H1	0.699800	0.431000	0.733200
C51	C5	0.644800	0.514000	0.714200
H21	H2	0.642300	0.538900	0.737100
C61	C6	0.613700	0.541000	0.680800
C71	C7	0.619500	0.504200	0.647000
H31	H3	0.600700	0.523100	0.625000
C81	C8	0.652700	0.439800	0.645600
H41	H4	0.655000	0.414900	0.622700
C91	C9	0.572200	0.608700	0.683000
C101	C10	0.735400	0.109000	0.666700
C111	C11	0.698800	0.037400	0.670300
C121	C12	0.691500	0.991200	0.639500
H51	H5	0.711200	0.002400	0.616300
C131	C13	0.655300	0.929000	0.643500
H61	H6	0.648600	0.899200	0.622600
C141	C14	0.628600	0.910400	0.678700
C151	C15	0.635500	0.955400	0.709700
H71	H7	0.616400	0.943400	0.733000
C161	C16	0.670700	0.017500	0.705700
H81	H8	0.676300	0.047500	0.726600
C171	C17	0.590800	0.840400	0.682800
C181	C18	0.833400	0.140200	0.527100
C191	C19	0.866500	0.066700	0.530000
C201	C20	0.888200	0.033000	0.497000
H91	H9	0.879500	0.052900	0.473300
C211	C21	0.923600	0.968500	0.500200
H101	H10	0.941200	0.947000	0.478500
C221	C22	0.932300	0.936700	0.534900
C231	C23	0.908700	0.966800	0.566000
H111	H11	0.913300	0.943700	0.589400
C241	C24	0.875800	0.035200	0.564100
H121	H12	0.861000	0.057600	0.586200
C251	C25	0.969400	0.866700	0.538800
C261	C26	0.685300	0.256200	0.436400
C271	C27	0.653700	0.257000	0.396600
C281	C28	0.596500	0.219000	0.391700
H131	H13	0.576800	0.194400	0.411900
C291	C29	0.567700	0.217900	0.354800
H141	H14	0.532400	0.187200	0.349200
C301	C30	0.593600	0.264500	0.326300
C311	C31	0.646000	0.305400	0.334500
H151	H15	0.661400	0.338100	0.316500
C321	C32	0.678100	0.300200	0.369100
H161	H16	0.716700	0.326700	0.373500
C331	C33	0.556700	0.265300	0.288400
C341	C34	0.825800	0.368500	0.548700
C351	C35	0.860000	0.439400	0.552300
C361	C36	0.874000	0.472100	0.589100
H171	H17	0.860300	0.449300	0.611400
C371	C37	0.907800	0.537300	0.591100
H181	H18	0.917700	0.557800	0.614600
C381	C38	0.925500	0.569500	0.559400
C391	C39	0.912600	0.541700	0.523400
H191	H19	0.925300	0.567700	0.501900
C401	C40	0.881400	0.476700	0.519000
H201	H20	0.874300	0.457400	0.494900
C411	C41	0.963400	0.641900	0.561700
C421	C42	0.917700	0.273100	0.657100
C431	C43	0.030500	0.312500	0.631700
H211	H21	0.031900	0.348200	0.650200
C441	C44	0.083400	0.303900	0.607900
H221	H22	0.119300	0.335600	0.609300
C451	C45	0.026500	0.200100	0.577100
H231	H23	0.026000	0.164100	0.558800
C461	C46	0.971800	0.209700	0.601100
H241	H24	0.935000	0.179400	0.599500
C471	C47	0.084500	0.246700	0.580900
C481	C48	0.143100	0.235700	0.555300
C491	C49	0.160700	0.735700	0.571500
C501	C50	0.218900	0.749300	0.597300
C511	C51	0.220600	0.799300	0.622400
H251	H25	0.183500	0.828800	0.625500
C521	C52	0.278300	0.810700	0.645700
H261	H26	0.280500	0.850500	0.661600
C531	C53	0.328600	0.764400	0.644600
C541	C54	0.328800	0.706800	0.618200
H271	H27	0.365400	0.676200	0.616600
C551	C55	0.274200	0.696800	0.595200
H281	H28	0.272100	0.658000	0.578600
C561	C56	0.387800	0.770700	0.671200
C571	C57	0.112100	0.738700	0.448900
C581	C58	0.135900	0.741200	0.407100
C591	C59	0.184600	0.784600	0.395500
H291	H29	0.207800	0.811600	0.413400
C601	C60	0.201900	0.790700	0.356500
H301	H30	0.235400	0.821700	0.348500
C611	C61	0.167500	0.749300	0.331400
C621	C62	0.117300	0.699200	0.344600
H311	H31	0.095400	0.668800	0.327700
C631	C63	0.103400	0.697800	0.381600
H321	H32	0.070800	0.666400	0.390500
C641	C64	0.180700	0.758300	0.289400
Ca11	Ca1	0.777740	0.233960	0.606440
Cd11	Cd1	0.818860	0.229730	0.711120
O11	O1	0.752000	0.323900	0.705800
Ca21	Ca2	0.019540	0.771180	0.616840
Cd21	Cd2	0.747350	0.257950	0.504120
O21	O2	0.716300	0.304100	0.647300
Cd31	Cd3	0.060440	0.745300	0.518100
O31	O3	0.564400	0.638500	0.715400
Cd41	Cd4	0.499410	0.734300	0.719080
O41	O4	0.550900	0.632700	0.652200
O51	O5	0.746200	0.143500	0.697400
O61	O6	0.751300	0.126200	0.633600
O71	O7	0.565000	0.828000	0.715100
O81	O8	0.583700	0.798400	0.653800
O91	O9	0.829500	0.176500	0.557100
O101	O10	0.810600	0.158300	0.496300
O111	O11	0.970900	0.837300	0.570100
O121	O12	0.000800	0.843900	0.508600
O131	O13	0.732400	0.300200	0.442800
O141	O14	0.669500	0.208200	0.459600
O151	O15	0.576100	0.312400	0.264900
O161	O16	0.511600	0.222600	0.280700
O171	O17	0.813800	0.346800	0.515500
O181	O18	0.807800	0.337900	0.578800
O191	O19	0.973900	0.668500	0.591900
O201	O20	0.986000	0.664000	0.530200
O211	O21	0.864200	0.239100	0.650100
O221	O22	0.926200	0.307800	0.685200
O231	O23	0.140800	0.189100	0.531000
O241	O24	0.193000	0.275300	0.559300
O251	O25	0.159700	0.686500	0.547200
O261	O26	0.111600	0.782400	0.574300
O271	O27	0.436600	0.728300	0.665200
O281	O28	0.384300	0.811600	0.699200
O291	O29	0.071300	0.691400	0.458500
O301	O30	0.137000	0.783400	0.471100
O311	O31	0.143400	0.724000	0.266400
O321	O32	0.226600	0.798400	0.277600
C651	C65	0.279100	0.658900	0.177000
C661	C66	0.317000	0.588800	0.178000
C671	C67	0.026700	0.731500	0.128900
C681	C68	0.321000	0.550800	0.211600
H331	H33	0.300200	0.569000	0.233200
C691	C69	0.355200	0.486000	0.214200
H341	H34	0.357700	0.461100	0.237100
C701	C70	0.386300	0.459000	0.180800
C711	C71	0.380500	0.495800	0.147000
H351	H35	0.399300	0.476900	0.125000
C721	C72	0.347300	0.560200	0.145600
H361	H36	0.345000	0.585100	0.122700
C731	C73	0.427800	0.391300	0.183000
C741	C74	0.264600	0.891000	0.166700
C751	C75	0.301200	0.962600	0.170300
C761	C76	0.308500	0.008800	0.139500
H371	H37	0.288800	0.997600	0.116300
C771	C77	0.344700	0.071000	0.143500
H381	H38	0.351400	0.100800	0.122600
C781	C78	0.371400	0.089600	0.178700
C791	C79	0.364500	0.044600	0.209700
H391	H39	0.383600	0.056600	0.233000
C801	C80	0.329300	0.982500	0.205700
H401	H40	0.323700	0.952500	0.226600
C811	C81	0.409200	0.159600	0.182800
C821	C82	0.166600	0.859800	0.027100
C831	C83	0.133500	0.933300	0.030000
C841	C84	0.111800	0.967000	0.997000
H411	H41	0.120500	0.947100	0.973300
C851	C85	0.076400	0.031500	0.000200
H421	H42	0.058800	0.053000	0.978500
C861	C86	0.067700	0.063300	0.034900
C871	C87	0.091300	0.033200	0.066000
H431	H43	0.086700	0.056300	0.089400
C881	C88	0.124200	0.964800	0.064100
H441	H44	0.139000	0.942400	0.086200
C891	C89	0.030600	0.133300	0.038800
C901	C90	0.314700	0.743800	0.936400
C911	C91	0.346300	0.743000	0.896600
C921	C92	0.403500	0.781000	0.891700
H451	H45	0.423200	0.805600	0.911900
C931	C93	0.432300	0.782100	0.854800
H461	H46	0.467600	0.812800	0.849200
C941	C94	0.406400	0.735500	0.826300
C951	C95	0.354000	0.694600	0.834500
H471	H47	0.338600	0.661900	0.816500
C961	C96	0.321900	0.699800	0.869100
H481	H48	0.283300	0.673300	0.873500
C971	C97	0.443300	0.734700	0.788400
C981	C98	0.174200	0.631500	0.048700
C991	C99	0.140000	0.560600	0.052300
C1001	C100	0.126000	0.527900	0.089100
H491	H49	0.139700	0.550700	0.111400
C1011	C101	0.092200	0.462700	0.091100
H501	H50	0.082300	0.442200	0.114600
C1021	C102	0.074500	0.430500	0.059400
C1031	C103	0.087400	0.458300	0.023400
H511	H51	0.074700	0.432300	0.001900
C1041	C104	0.118600	0.523300	0.019000
H521	H52	0.125700	0.542600	0.994900
C1051	C105	0.036600	0.358100	0.061700
C1061	C106	0.082300	0.726900	0.157100
C1071	C107	0.969500	0.687500	0.131700
H531	H53	0.968100	0.651800	0.150200
C1081	C108	0.916600	0.696100	0.107900
H541	H54	0.880700	0.664400	0.109300
C1091	C109	0.973500	0.799900	0.077100
H551	H55	0.974000	0.835900	0.058800
C1101	C110	0.028200	0.790300	0.101100
H561	H56	0.065000	0.820600	0.099500
C1111	C111	0.915500	0.753300	0.080900
C1121	C112	0.856900	0.764300	0.055300
C1131	C113	0.839300	0.264300	0.071500
C1141	C114	0.781100	0.250700	0.097300
C1151	C115	0.779400	0.200700	0.122400
H571	H57	0.816500	0.171200	0.125500
C1161	C116	0.721700	0.189300	0.145700
H581	H58	0.719500	0.149500	0.161600
C1171	C117	0.671400	0.235600	0.144600
C1181	C118	0.671200	0.293200	0.118200
H591	H59	0.634600	0.323800	0.116600
C1191	C119	0.725800	0.303200	0.095200
H601	H60	0.727900	0.342000	0.078600
C1201	C120	0.612200	0.229300	0.171200
C1211	C121	0.887900	0.261300	0.948900
C1221	C122	0.864100	0.258800	0.907100
C1231	C123	0.815400	0.215400	0.895500
H611	H61	0.792200	0.188400	0.913400
C1241	C124	0.798100	0.209300	0.856500
H621	H62	0.764600	0.178300	0.848500
C1251	C125	0.832500	0.250700	0.831400
C1261	C126	0.882700	0.300800	0.844600
H631	H63	0.904600	0.331200	0.827700
C1271	C127	0.896600	0.302200	0.881600
H641	H64	0.929200	0.333600	0.890500
C1281	C128	0.819300	0.241700	0.789400
Ca31	Ca3	0.222260	0.766040	0.106440
Cd51	Cd5	0.181140	0.770270	0.211120
O331	O33	0.248000	0.676100	0.205800
Ca41	Ca4	0.980460	0.228820	0.116840
Cd61	Cd6	0.252650	0.742050	0.004120
O341	O34	0.283700	0.695900	0.147300
Cd71	Cd7	0.939560	0.254700	0.018100
O351	O35	0.435600	0.361500	0.215400
Cd81	Cd8	0.500590	0.265700	0.219080
O361	O36	0.449100	0.367300	0.152200
O371	O37	0.253800	0.856500	0.197400
O381	O38	0.248700	0.873800	0.133600
O391	O39	0.435000	0.172000	0.215100
O401	O40	0.416300	0.201600	0.153800
O411	O41	0.170500	0.823500	0.057100
O421	O42	0.189400	0.841700	0.996300
O431	O43	0.029100	0.162700	0.070100
O441	O44	0.999200	0.156100	0.008600
O451	O45	0.267600	0.699800	0.942800
O461	O46	0.330500	0.791800	0.959600
O471	O47	0.423900	0.687600	0.764900
O481	O48	0.488400	0.777400	0.780700
O491	O49	0.186200	0.653200	0.015500
O501	O50	0.192200	0.662100	0.078800
O511	O51	0.026100	0.331500	0.091900
O521	O52	0.014000	0.336000	0.030200
O531	O53	0.135800	0.760900	0.150100
O541	O54	0.073800	0.692200	0.185200
O551	O55	0.859200	0.810900	0.031000
O561	O56	0.807000	0.724700	0.059300
O571	O57	0.840300	0.313500	0.047200
O581	O58	0.888400	0.217600	0.074300
O591	O59	0.563400	0.271700	0.165200
O601	O60	0.615700	0.188400	0.199200
O611	O61	0.928700	0.308600	0.958500
O621	O62	0.863000	0.216600	0.971100
O631	O63	0.856600	0.276000	0.766400
O641	O64	0.773400	0.201600	0.777600
C1291	C129	0.220900	0.158900	0.677000
C1301	C130	0.183000	0.088800	0.678000
C1311	C131	0.473300	0.231500	0.628900
C1321	C132	0.179000	0.050800	0.711600
H651	H65	0.199800	0.069000	0.733200
C1331	C133	0.144800	0.986000	0.714200
H661	H66	0.142300	0.961100	0.737100
C1341	C134	0.113700	0.959000	0.680800
C1351	C135	0.119500	0.995800	0.647000
H671	H67	0.100700	0.976900	0.625000
C1361	C136	0.152700	0.060200	0.645600
H681	H68	0.155000	0.085100	0.622700
C1371	C137	0.072200	0.891300	0.683000
C1381	C138	0.235400	0.391000	0.666700
C1391	C139	0.198800	0.462600	0.670300
C1401	C140	0.191500	0.508800	0.639500
H691	H69	0.211200	0.497600	0.616300
C1411	C141	0.155300	0.571000	0.643500
H701	H70	0.148600	0.600800	0.622600
C1421	C142	0.128600	0.589600	0.678700
C1431	C143	0.135500	0.544600	0.709700
H711	H71	0.116400	0.556600	0.733000
C1441	C144	0.170700	0.482500	0.705700
H721	H72	0.176300	0.452500	0.726600
C1451	C145	0.090800	0.659600	0.682800
C1461	C146	0.333400	0.359800	0.527100
C1471	C147	0.366500	0.433300	0.530000
C1481	C148	0.388200	0.467000	0.497000
H731	H73	0.379500	0.447100	0.473300
C1491	C149	0.423600	0.531500	0.500200
H741	H74	0.441200	0.553000	0.478500
C1501	C150	0.432300	0.563300	0.534900
C1511	C151	0.408700	0.533200	0.566000
H751	H75	0.413300	0.556300	0.589400
C1521	C152	0.375800	0.464800	0.564100
H761	H76	0.361000	0.442400	0.586200
C1531	C153	0.469400	0.633300	0.538800
C1541	C154	0.185300	0.243800	0.436400
C1551	C155	0.153700	0.243000	0.396600
C1561	C156	0.096500	0.281000	0.391700
H771	H77	0.076800	0.305600	0.411900
C1571	C157	0.067700	0.282100	0.354800
H781	H78	0.032400	0.312800	0.349200
C1581	C158	0.093600	0.235500	0.326300
C1591	C159	0.146000	0.194600	0.334500
H791	H79	0.161400	0.161900	0.316500
C1601	C160	0.178100	0.199800	0.369100
H801	H80	0.216700	0.173300	0.373500
C1611	C161	0.056700	0.234700	0.288400
C1621	C162	0.325800	0.131500	0.548700
C1631	C163	0.360000	0.060600	0.552300
C1641	C164	0.374000	0.027900	0.589100
H811	H81	0.360300	0.050700	0.611400
C1651	C165	0.407800	0.962700	0.591100
H821	H82	0.417700	0.942200	0.614600
C1661	C166	0.425500	0.930500	0.559400
C1671	C167	0.412600	0.958300	0.523400
H831	H83	0.425300	0.932300	0.501900
C1681	C168	0.381400	0.023300	0.519000
H841	H84	0.374300	0.042600	0.494900
C1691	C169	0.463400	0.858100	0.561700
C1701	C170	0.417700	0.226900	0.657100
C1711	C171	0.530500	0.187500	0.631700
H851	H85	0.531900	0.151800	0.650200
C1721	C172	0.583400	0.196100	0.607900
H861	H86	0.619300	0.164400	0.609300
C1731	C173	0.526500	0.299900	0.577100
H871	H87	0.526000	0.335900	0.558800
C1741	C174	0.471800	0.290300	0.601100
H881	H88	0.435000	0.320600	0.599500
C1751	C175	0.584500	0.253300	0.580900
C1761	C176	0.643100	0.264300	0.555300
C1771	C177	0.660700	0.764300	0.571500
C1781	C178	0.718900	0.750700	0.597300
C1791	C179	0.720600	0.700700	0.622400
H891	H89	0.683500	0.671200	0.625500
C1801	C180	0.778300	0.689300	0.645700
H901	H90	0.780500	0.649500	0.661600
C1811	C181	0.828600	0.735600	0.644600
C1821	C182	0.828800	0.793200	0.618200
H911	H91	0.865400	0.823800	0.616600
C1831	C183	0.774200	0.803200	0.595200
H921	H92	0.772100	0.842000	0.578600
C1841	C184	0.887800	0.729300	0.671200
C1851	C185	0.612100	0.761300	0.448900
C1861	C186	0.635900	0.758800	0.407100
C1871	C187	0.684600	0.715400	0.395500
H931	H93	0.707800	0.688400	0.413400
C1881	C188	0.701900	0.709300	0.356500
H941	H94	0.735400	0.678300	0.348500
C1891	C189	0.667500	0.750700	0.331400
C1901	C190	0.617300	0.800800	0.344600
H951	H95	0.595400	0.831200	0.327700
C1911	C191	0.603400	0.802200	0.381600
H961	H96	0.570800	0.833600	0.390500
C1921	C192	0.680700	0.741700	0.289400
Ca51	Ca5	0.277740	0.266040	0.606440
Cd91	Cd9	0.318860	0.270270	0.711120
O651	O65	0.252000	0.176100	0.705800
Ca61	Ca6	0.519540	0.728820	0.616840
Cd101	Cd10	0.247350	0.242050	0.504120
O661	O66	0.216300	0.195900	0.647300
Cd111	Cd11	0.560440	0.754700	0.518100
O671	O67	0.064400	0.861500	0.715400
Cd121	Cd12	0.999410	0.765700	0.719080
O681	O68	0.050900	0.867300	0.652200
O691	O69	0.246200	0.356500	0.697400
O701	O70	0.251300	0.373800	0.633600
O711	O71	0.065000	0.672000	0.715100
O721	O72	0.083700	0.701600	0.653800
O731	O73	0.329500	0.323500	0.557100
O741	O74	0.310600	0.341700	0.496300
O751	O75	0.470900	0.662700	0.570100
O761	O76	0.500800	0.656100	0.508600
O771	O77	0.232400	0.199800	0.442800
O781	O78	0.169500	0.291800	0.459600
O791	O79	0.076100	0.187600	0.264900
O801	O80	0.011600	0.277400	0.280700
O811	O81	0.313800	0.153200	0.515500
O821	O82	0.307800	0.162100	0.578800
O831	O83	0.473900	0.831500	0.591900
O841	O84	0.486000	0.836000	0.530200
O851	O85	0.364200	0.260900	0.650100
O861	O86	0.426200	0.192200	0.685200
O871	O87	0.640800	0.310900	0.531000
O881	O88	0.693000	0.224700	0.559300
O891	O89	0.659700	0.813500	0.547200
O901	O90	0.611600	0.717600	0.574300
O911	O91	0.936600	0.771700	0.665200
O921	O92	0.884300	0.688400	0.699200
O931	O93	0.571300	0.808600	0.458500
O941	O94	0.637000	0.716600	0.471100
O951	O95	0.643400	0.776000	0.266400
O961	O96	0.726600	0.701600	0.277600
C1931	C193	0.779100	0.841100	0.177000
C1941	C194	0.817000	0.911200	0.178000
C1951	C195	0.526700	0.768500	0.128900
C1961	C196	0.821000	0.949200	0.211600
H971	H97	0.800200	0.931000	0.233200
C1971	C197	0.855200	0.014000	0.214200
H981	H98	0.857700	0.038900	0.237100
C1981	C198	0.886300	0.041000	0.180800
C1991	C199	0.880500	0.004200	0.147000
H991	H99	0.899300	0.023100	0.125000
C2001	C200	0.847300	0.939800	0.145600
H1001	H100	0.845000	0.914900	0.122700
C2011	C201	0.927800	0.108700	0.183000
C2021	C202	0.764600	0.609000	0.166700
C2031	C203	0.801200	0.537400	0.170300
C2041	C204	0.808500	0.491200	0.139500
H1011	H101	0.788800	0.502400	0.116300
C2051	C205	0.844700	0.429000	0.143500
H1021	H102	0.851400	0.399200	0.122600
C2061	C206	0.871400	0.410400	0.178700
C2071	C207	0.864500	0.455400	0.209700
H1031	H103	0.883600	0.443400	0.233000
C2081	C208	0.829300	0.517500	0.205700
H1041	H104	0.823700	0.547500	0.226600
C2091	C209	0.909200	0.340400	0.182800
C2101	C210	0.666600	0.640200	0.027100
C2111	C211	0.633500	0.566700	0.030000
C2121	C212	0.611800	0.533000	0.997000
H1051	H105	0.620500	0.552900	0.973300
C2131	C213	0.576400	0.468500	0.000200
H1061	H106	0.558800	0.447000	0.978500
C2141	C214	0.567700	0.436700	0.034900
C2151	C215	0.591300	0.466800	0.066000
H1071	H107	0.586700	0.443700	0.089400
C2161	C216	0.624200	0.535200	0.064100
H1081	H108	0.639000	0.557600	0.086200
C2171	C217	0.530600	0.366700	0.038800
C2181	C218	0.814700	0.756200	0.936400
C2191	C219	0.846300	0.757000	0.896600
C2201	C220	0.903500	0.719000	0.891700
H1091	H109	0.923200	0.694400	0.911900
C2211	C221	0.932300	0.717900	0.854800
H1101	H110	0.967600	0.687200	0.849200
C2221	C222	0.906400	0.764500	0.826300
C2231	C223	0.854000	0.805400	0.834500
H1111	H111	0.838600	0.838100	0.816500
C2241	C224	0.821900	0.800200	0.869100
H1121	H112	0.783300	0.826700	0.873500
C2251	C225	0.943300	0.765300	0.788400
C2261	C226	0.674200	0.868500	0.048700
C2271	C227	0.640000	0.939400	0.052300
C2281	C228	0.626000	0.972100	0.089100
H1131	H113	0.639700	0.949300	0.111400
C2291	C229	0.592200	0.037300	0.091100
H1141	H114	0.582300	0.057800	0.114600
C2301	C230	0.574500	0.069500	0.059400
C2311	C231	0.587400	0.041700	0.023400
H1151	H115	0.574700	0.067700	0.001900
C2321	C232	0.618600	0.976700	0.019000
H1161	H116	0.625700	0.957400	0.994900
C2331	C233	0.536600	0.141900	0.061700
C2341	C234	0.582300	0.773100	0.157100
C2351	C235	0.469500	0.812500	0.131700
H1171	H117	0.468100	0.848200	0.150200
C2361	C236	0.416600	0.803900	0.107900
H1181	H118	0.380700	0.835600	0.109300
C2371	C237	0.473500	0.700100	0.077100
H1191	H119	0.474000	0.664100	0.058800
C2381	C238	0.528200	0.709700	0.101100
H1201	H120	0.565000	0.679400	0.099500
C2391	C239	0.415500	0.746700	0.080900
C2401	C240	0.356900	0.735700	0.055300
C2411	C241	0.339300	0.235700	0.071500
C2421	C242	0.281100	0.249300	0.097300
C2431	C243	0.279400	0.299300	0.122400
H1211	H121	0.316500	0.328800	0.125500
C2441	C244	0.221700	0.310700	0.145700
H1221	H122	0.219500	0.350500	0.161600
C2451	C245	0.171400	0.264400	0.144600
C2461	C246	0.171200	0.206800	0.118200
H1231	H123	0.134600	0.176200	0.116600
C2471	C247	0.225800	0.196800	0.095200
H1241	H124	0.227900	0.158000	0.078600
C2481	C248	0.112200	0.270700	0.171200
C2491	C249	0.387900	0.238700	0.948900
C2501	C250	0.364100	0.241200	0.907100
C2511	C251	0.315400	0.284600	0.895500
H1251	H125	0.292200	0.311600	0.913400
C2521	C252	0.298100	0.290700	0.856500
H1261	H126	0.264600	0.321700	0.848500
C2531	C253	0.332500	0.249300	0.831400
C2541	C254	0.382700	0.199200	0.844600
H1271	H127	0.404600	0.168800	0.827700
C2551	C255	0.396600	0.197800	0.881600
H1281	H128	0.429200	0.166400	0.890500
C2561	C256	0.319300	0.258300	0.789400
Ca71	Ca7	0.722260	0.733960	0.106440
Cd131	Cd13	0.681140	0.729730	0.211120
O971	O97	0.748000	0.823900	0.205800
Ca81	Ca8	0.480460	0.271180	0.116840
Cd141	Cd14	0.752650	0.757950	0.004120
O981	O98	0.783700	0.804100	0.147300
Cd151	Cd15	0.439560	0.245300	0.018100
O991	O99	0.935600	0.138500	0.215400
Cd161	Cd16	0.000590	0.234300	0.219080
O1001	O100	0.949100	0.132700	0.152200
O1011	O101	0.753800	0.643500	0.197400
O1021	O102	0.748700	0.626200	0.133600
O1031	O103	0.935000	0.328000	0.215100
O1041	O104	0.916300	0.298400	0.153800
O1051	O105	0.670500	0.676500	0.057100
O1061	O106	0.689400	0.658300	0.996300
O1071	O107	0.529100	0.337300	0.070100
O1081	O108	0.499200	0.343900	0.008600
O1091	O109	0.767600	0.800200	0.942800
O1101	O110	0.830500	0.708200	0.959600
O1111	O111	0.923900	0.812400	0.764900
O1121	O112	0.988400	0.722600	0.780700
O1131	O113	0.686200	0.846800	0.015500
O1141	O114	0.692200	0.837900	0.078800
O1151	O115	0.526100	0.168500	0.091900
O1161	O116	0.514000	0.164000	0.030200
O1171	O117	0.635800	0.739100	0.150100
O1181	O118	0.573800	0.807800	0.185200
O1191	O119	0.359200	0.689100	0.031000
O1201	O120	0.307000	0.775300	0.059300
O1211	O121	0.340300	0.186500	0.047200
O1221	O122	0.388400	0.282400	0.074300
O1231	O123	0.063400	0.228300	0.165200
O1241	O124	0.115700	0.311600	0.199200
O1251	O125	0.428700	0.191400	0.958500
O1261	O126	0.363000	0.283400	0.971100
O1271	O127	0.356600	0.224000	0.766400
O1281	O128	0.273400	0.298400	0.777600
