data_IYASOS_clean_PM
_symmetry_space_group_name_H-M	'P1'
_cell_length_a	10.499300
_cell_length_b	16.941600
_cell_length_c	12.334600
_cell_angle_alpha	90.000000
_cell_angle_beta	100.516000
_cell_angle_gamma	90.000000
_symmetry_Int_Tables_number 1

loop_
_symmetry_equiv_pos_as_xyz
'x,y,z'

loop_
_atom_site_label
_atom_site_type_symbol
_atom_site_fract_x
_atom_site_fract_y
_atom_site_fract_z
Cd11	Cd1	0.794370	0.104470	0.160370
C11	C1	0.212900	0.161900	0.250000
C21	C2	0.222400	0.225600	0.321200
H11	H1	0.149300	0.242700	0.347200
C31	C3	0.339100	0.264200	0.354300
C41	C4	0.446800	0.238900	0.312900
H21	H2	0.524500	0.266300	0.331400
C51	C5	0.440200	0.173600	0.244300
C61	C6	0.323900	0.134400	0.214100
H31	H3	0.319200	0.089800	0.169700
C71	C7	0.084000	0.122300	0.208900
C81	C8	0.351100	0.331700	0.435900
C91	C9	0.560800	0.146200	0.206700
C101	C10	0.740600	0.926100	0.076300
C111	C11	0.571800	0.847200	0.106500
H41	H4	0.486900	0.842600	0.060200
H51	H5	0.565700	0.832800	0.181500
C121	C12	0.669900	0.797100	0.063600
H61	H6	0.699900	0.754100	0.113800
H71	H7	0.634600	0.775600	0.991500
N11	N1	0.624300	0.927100	0.101600
H81	H8	0.584000	0.969500	0.113700
N21	N2	0.774300	0.853500	0.057700
H91	H9	0.848900	0.840600	0.043600
O11	O1	0.084500	0.056100	0.164400
O21	O2	0.985100	0.158700	0.223600
O31	O3	0.267200	0.336900	0.493800
O41	O4	0.446700	0.377200	0.438600
O51	O5	0.661200	0.187300	0.230500
O61	O6	0.557700	0.083800	0.151900
O71	O7	0.809500	0.986780	0.069000
Cd21	Cd2	0.705630	0.604470	0.339630
C131	C13	0.287100	0.661900	0.250000
C141	C14	0.277600	0.725600	0.178800
H101	H10	0.350700	0.742700	0.152800
C151	C15	0.160900	0.764200	0.145700
C161	C16	0.053200	0.738900	0.187100
H111	H11	0.975500	0.766300	0.168600
C171	C17	0.059800	0.673600	0.255700
C181	C18	0.176100	0.634400	0.285900
H121	H12	0.180800	0.589800	0.330300
C191	C19	0.416000	0.622300	0.291100
C201	C20	0.148900	0.831700	0.064100
C211	C21	0.939200	0.646200	0.293300
C221	C22	0.759400	0.426100	0.423700
C231	C23	0.928200	0.347200	0.393500
H131	H13	0.013100	0.342600	0.439800
H141	H14	0.934300	0.332800	0.318500
C241	C24	0.830100	0.297100	0.436400
H151	H15	0.800100	0.254100	0.386200
H161	H16	0.865400	0.275600	0.508500
N31	N3	0.875700	0.427100	0.398400
H171	H17	0.916000	0.469500	0.386300
N41	N4	0.725700	0.353500	0.442300
H181	H18	0.651100	0.340600	0.456400
O81	O8	0.415500	0.556100	0.335600
O91	O9	0.514900	0.658700	0.276400
O101	O10	0.232800	0.836900	0.006200
O111	O11	0.053300	0.877200	0.061400
O121	O12	0.838800	0.687300	0.269500
O131	O13	0.942300	0.583800	0.348100
O141	O14	0.690500	0.486780	0.431000
Cd31	Cd3	0.205630	0.895530	0.839630
C251	C25	0.787100	0.838100	0.750000
C261	C26	0.777600	0.774400	0.678800
H191	H19	0.850700	0.757300	0.652800
C271	C27	0.660900	0.735800	0.645700
C281	C28	0.553200	0.761100	0.687100
H201	H20	0.475500	0.733700	0.668600
C291	C29	0.559800	0.826400	0.755700
C301	C30	0.676100	0.865600	0.785900
H211	H21	0.680800	0.910200	0.830300
C311	C31	0.916000	0.877700	0.791100
C321	C32	0.648900	0.668300	0.564100
C331	C33	0.439200	0.853800	0.793300
C341	C34	0.259400	0.073900	0.923700
C351	C35	0.428200	0.152800	0.893500
H221	H22	0.513100	0.157400	0.939800
H231	H23	0.434300	0.167200	0.818500
C361	C36	0.330100	0.202900	0.936400
H241	H24	0.300100	0.245900	0.886200
H251	H25	0.365400	0.224400	0.008500
N51	N5	0.375700	0.072900	0.898400
H261	H26	0.416000	0.030500	0.886300
N61	N6	0.225700	0.146500	0.942300
H271	H27	0.151100	0.159400	0.956400
O151	O15	0.915500	0.943900	0.835600
O161	O16	0.014900	0.841300	0.776400
O171	O17	0.732800	0.663100	0.506200
O181	O18	0.553300	0.622800	0.561400
O191	O19	0.338800	0.812700	0.769500
O201	O20	0.442300	0.916200	0.848100
O211	O21	0.190500	0.013220	0.931000
Cd41	Cd4	0.294370	0.395530	0.660370
C371	C37	0.712900	0.338100	0.750000
C381	C38	0.722400	0.274400	0.821200
H281	H28	0.649300	0.257300	0.847200
C391	C39	0.839100	0.235800	0.854300
C401	C40	0.946800	0.261100	0.812900
H291	H29	0.024500	0.233700	0.831400
C411	C41	0.940200	0.326400	0.744300
C421	C42	0.823900	0.365600	0.714100
H301	H30	0.819200	0.410200	0.669700
C431	C43	0.584000	0.377700	0.708900
C441	C44	0.851100	0.168300	0.935900
C451	C45	0.060800	0.353800	0.706700
C461	C46	0.240600	0.573900	0.576300
C471	C47	0.071800	0.652800	0.606500
H311	H31	0.986900	0.657400	0.560200
H321	H32	0.065700	0.667200	0.681500
C481	C48	0.169900	0.702900	0.563600
H331	H33	0.199900	0.745900	0.613800
H341	H34	0.134600	0.724400	0.491500
N71	N7	0.124300	0.572900	0.601600
H351	H35	0.084000	0.530500	0.613700
N81	N8	0.274300	0.646500	0.557700
H361	H36	0.348900	0.659400	0.543600
O221	O22	0.584500	0.443900	0.664400
O231	O23	0.485100	0.341300	0.723600
O241	O24	0.767200	0.163100	0.993800
O251	O25	0.946700	0.122800	0.938600
O261	O26	0.161200	0.312700	0.730500
O271	O27	0.057700	0.416200	0.651900
O281	O28	0.309500	0.513220	0.569000
Cd51	Cd5	0.000000	0.000000	0.000000
Cd61	Cd6	0.500000	0.500000	0.500000
