data_IYEHAX_clean_PM
_symmetry_space_group_name_H-M	'P1'
_cell_length_a	13.657000
_cell_length_b	18.686000
_cell_length_c	31.503000
_cell_angle_alpha	90.000000
_cell_angle_beta	101.532000
_cell_angle_gamma	90.000000
_symmetry_Int_Tables_number 1

loop_
_symmetry_equiv_pos_as_xyz
'x,y,z'

loop_
_atom_site_label
_atom_site_type_symbol
_atom_site_fract_x
_atom_site_fract_y
_atom_site_fract_z
Cu11	Cu1	0.809760	0.281790	0.227320
O11	O1	0.946600	0.072940	0.446490
O21	O2	0.111200	0.071720	0.473680
O31	O3	0.912600	0.248800	0.275330
O41	O4	0.812900	0.195470	0.313760
O51	O5	0.790300	0.368380	0.259830
O61	O6	0.693400	0.313780	0.299470
N11	N1	0.580600	0.182700	0.308050
N21	N2	0.261500	0.191400	0.356400
C11	C1	0.585200	0.205400	0.348500
H11	H1	0.645700	0.226100	0.361600
C21	C2	0.513200	0.203000	0.374200
H21	H2	0.524300	0.218300	0.402800
C31	C3	0.422200	0.174900	0.352000
C41	C4	0.415100	0.147800	0.309900
H31	H3	0.355100	0.127800	0.295700
C51	C5	0.496600	0.150000	0.288500
H41	H4	0.491800	0.129200	0.261400
C61	C6	0.345000	0.171900	0.378700
C71	C7	0.163900	0.182300	0.366160
C81	C8	0.148000	0.148500	0.403260
H51	H5	0.202200	0.135200	0.424700
C91	C9	0.051600	0.134500	0.408590
C101	C10	0.971900	0.156700	0.378200
H61	H6	0.907500	0.147600	0.382300
C111	C11	0.985300	0.192500	0.341360
C121	C12	0.080400	0.206100	0.335180
H71	H7	0.089800	0.230800	0.310700
C131	C13	0.035000	0.089900	0.446240
C141	C14	0.896700	0.214700	0.308330
C151	C15	0.685300	0.436100	0.348000
H81	H8	0.672000	0.393200	0.360700
C161	C16	0.725000	0.435300	0.310750
C171	C17	0.738200	0.367700	0.288630
H91	H9	0.372300	0.177000	0.407500
Cu21	Cu2	0.309760	0.781790	0.727320
O71	O7	0.446600	0.572940	0.946490
O81	O8	0.611200	0.571720	0.973680
O91	O9	0.412600	0.748800	0.775330
O101	O10	0.312900	0.695470	0.813760
O111	O11	0.290300	0.868380	0.759830
O121	O12	0.193400	0.813780	0.799470
N31	N3	0.080600	0.682700	0.808050
N41	N4	0.761500	0.691400	0.856400
C181	C18	0.085200	0.705400	0.848500
H101	H10	0.145700	0.726100	0.861600
C191	C19	0.013200	0.703000	0.874200
H111	H11	0.024300	0.718300	0.902800
C201	C20	0.922200	0.674900	0.852000
C211	C21	0.915100	0.647800	0.809900
H121	H12	0.855100	0.627800	0.795700
C221	C22	0.996600	0.650000	0.788500
H131	H13	0.991800	0.629200	0.761400
C231	C23	0.845000	0.671900	0.878700
C241	C24	0.663900	0.682300	0.866160
C251	C25	0.648000	0.648500	0.903260
H141	H14	0.702200	0.635200	0.924700
C261	C26	0.551600	0.634500	0.908590
C271	C27	0.471900	0.656700	0.878200
H151	H15	0.407500	0.647600	0.882300
C281	C28	0.485300	0.692500	0.841360
C291	C29	0.580400	0.706100	0.835180
H161	H16	0.589800	0.730800	0.810700
C301	C30	0.535000	0.589900	0.946240
C311	C31	0.396700	0.714700	0.808330
C321	C32	0.185300	0.936100	0.848000
H171	H17	0.172000	0.893200	0.860700
C331	C33	0.225000	0.935300	0.810750
C341	C34	0.238200	0.867700	0.788630
H181	H18	0.872300	0.677000	0.907500
Cu31	Cu3	0.190240	0.281790	0.772680
O131	O13	0.053400	0.072940	0.553510
O141	O14	0.888800	0.071720	0.526320
O151	O15	0.087400	0.248800	0.724670
O161	O16	0.187100	0.195470	0.686240
O171	O17	0.209700	0.368380	0.740170
O181	O18	0.306600	0.313780	0.700530
N51	N5	0.419400	0.182700	0.691950
N61	N6	0.738500	0.191400	0.643600
C351	C35	0.414800	0.205400	0.651500
H191	H19	0.354300	0.226100	0.638400
C361	C36	0.486800	0.203000	0.625800
H201	H20	0.475700	0.218300	0.597200
C371	C37	0.577800	0.174900	0.648000
C381	C38	0.584900	0.147800	0.690100
H211	H21	0.644900	0.127800	0.704300
C391	C39	0.503400	0.150000	0.711500
H221	H22	0.508200	0.129200	0.738600
C401	C40	0.655000	0.171900	0.621300
C411	C41	0.836100	0.182300	0.633840
C421	C42	0.852000	0.148500	0.596740
H231	H23	0.797800	0.135200	0.575300
C431	C43	0.948400	0.134500	0.591410
C441	C44	0.028100	0.156700	0.621800
H241	H24	0.092500	0.147600	0.617700
C451	C45	0.014700	0.192500	0.658640
C461	C46	0.919600	0.206100	0.664820
H251	H25	0.910200	0.230800	0.689300
C471	C47	0.965000	0.089900	0.553760
C481	C48	0.103300	0.214700	0.691670
C491	C49	0.314700	0.436100	0.652000
H261	H26	0.328000	0.393200	0.639300
C501	C50	0.275000	0.435300	0.689250
C511	C51	0.261800	0.367700	0.711370
H271	H27	0.627700	0.177000	0.592500
Cu41	Cu4	0.690240	0.781790	0.272680
O191	O19	0.553400	0.572940	0.053510
O201	O20	0.388800	0.571720	0.026320
O211	O21	0.587400	0.748800	0.224670
O221	O22	0.687100	0.695470	0.186240
O231	O23	0.709700	0.868380	0.240170
O241	O24	0.806600	0.813780	0.200530
N71	N7	0.919400	0.682700	0.191950
N81	N8	0.238500	0.691400	0.143600
C521	C52	0.914800	0.705400	0.151500
H281	H28	0.854300	0.726100	0.138400
C531	C53	0.986800	0.703000	0.125800
H291	H29	0.975700	0.718300	0.097200
C541	C54	0.077800	0.674900	0.148000
C551	C55	0.084900	0.647800	0.190100
H301	H30	0.144900	0.627800	0.204300
C561	C56	0.003400	0.650000	0.211500
H311	H31	0.008200	0.629200	0.238600
C571	C57	0.155000	0.671900	0.121300
C581	C58	0.336100	0.682300	0.133840
C591	C59	0.352000	0.648500	0.096740
H321	H32	0.297800	0.635200	0.075300
C601	C60	0.448400	0.634500	0.091410
C611	C61	0.528100	0.656700	0.121800
H331	H33	0.592500	0.647600	0.117700
C621	C62	0.514700	0.692500	0.158640
C631	C63	0.419600	0.706100	0.164820
H341	H34	0.410200	0.730800	0.189300
C641	C64	0.465000	0.589900	0.053760
C651	C65	0.603300	0.714700	0.191670
C661	C66	0.814700	0.936100	0.152000
H351	H35	0.828000	0.893200	0.139300
C671	C67	0.775000	0.935300	0.189250
C681	C68	0.761800	0.867700	0.211370
H361	H36	0.127700	0.677000	0.092500
Cu51	Cu5	0.190240	0.718210	0.772680
O251	O25	0.053400	0.927060	0.553510
O261	O26	0.888800	0.928280	0.526320
O271	O27	0.087400	0.751200	0.724670
O281	O28	0.187100	0.804530	0.686240
O291	O29	0.209700	0.631620	0.740170
O301	O30	0.306600	0.686220	0.700530
N91	N9	0.419400	0.817300	0.691950
N101	N10	0.738500	0.808600	0.643600
C691	C69	0.414800	0.794600	0.651500
H371	H37	0.354300	0.773900	0.638400
C701	C70	0.486800	0.797000	0.625800
H381	H38	0.475700	0.781700	0.597200
C711	C71	0.577800	0.825100	0.648000
C721	C72	0.584900	0.852200	0.690100
H391	H39	0.644900	0.872200	0.704300
C731	C73	0.503400	0.850000	0.711500
H401	H40	0.508200	0.870800	0.738600
C741	C74	0.655000	0.828100	0.621300
C751	C75	0.836100	0.817700	0.633840
C761	C76	0.852000	0.851500	0.596740
H411	H41	0.797800	0.864800	0.575300
C771	C77	0.948400	0.865500	0.591410
C781	C78	0.028100	0.843300	0.621800
H421	H42	0.092500	0.852400	0.617700
C791	C79	0.014700	0.807500	0.658640
C801	C80	0.919600	0.793900	0.664820
H431	H43	0.910200	0.769200	0.689300
C811	C81	0.965000	0.910100	0.553760
C821	C82	0.103300	0.785300	0.691670
C831	C83	0.314700	0.563900	0.652000
H441	H44	0.328000	0.606800	0.639300
C841	C84	0.275000	0.564700	0.689250
C851	C85	0.261800	0.632300	0.711370
H451	H45	0.627700	0.823000	0.592500
Cu61	Cu6	0.690240	0.218210	0.272680
O311	O31	0.553400	0.427060	0.053510
O321	O32	0.388800	0.428280	0.026320
O331	O33	0.587400	0.251200	0.224670
O341	O34	0.687100	0.304530	0.186240
O351	O35	0.709700	0.131620	0.240170
O361	O36	0.806600	0.186220	0.200530
N111	N11	0.919400	0.317300	0.191950
N121	N12	0.238500	0.308600	0.143600
C861	C86	0.914800	0.294600	0.151500
H461	H46	0.854300	0.273900	0.138400
C871	C87	0.986800	0.297000	0.125800
H471	H47	0.975700	0.281700	0.097200
C881	C88	0.077800	0.325100	0.148000
C891	C89	0.084900	0.352200	0.190100
H481	H48	0.144900	0.372200	0.204300
C901	C90	0.003400	0.350000	0.211500
H491	H49	0.008200	0.370800	0.238600
C911	C91	0.155000	0.328100	0.121300
C921	C92	0.336100	0.317700	0.133840
C931	C93	0.352000	0.351500	0.096740
H501	H50	0.297800	0.364800	0.075300
C941	C94	0.448400	0.365500	0.091410
C951	C95	0.528100	0.343300	0.121800
H511	H51	0.592500	0.352400	0.117700
C961	C96	0.514700	0.307500	0.158640
C971	C97	0.419600	0.293900	0.164820
H521	H52	0.410200	0.269200	0.189300
C981	C98	0.465000	0.410100	0.053760
C991	C99	0.603300	0.285300	0.191670
C1001	C100	0.814700	0.063900	0.152000
H531	H53	0.828000	0.106800	0.139300
C1011	C101	0.775000	0.064700	0.189250
C1021	C102	0.761800	0.132300	0.211370
H541	H54	0.127700	0.323000	0.092500
Cu71	Cu7	0.809760	0.718210	0.227320
O371	O37	0.946600	0.927060	0.446490
O381	O38	0.111200	0.928280	0.473680
O391	O39	0.912600	0.751200	0.275330
O401	O40	0.812900	0.804530	0.313760
O411	O41	0.790300	0.631620	0.259830
O421	O42	0.693400	0.686220	0.299470
N131	N13	0.580600	0.817300	0.308050
N141	N14	0.261500	0.808600	0.356400
C1031	C103	0.585200	0.794600	0.348500
H551	H55	0.645700	0.773900	0.361600
C1041	C104	0.513200	0.797000	0.374200
H561	H56	0.524300	0.781700	0.402800
C1051	C105	0.422200	0.825100	0.352000
C1061	C106	0.415100	0.852200	0.309900
H571	H57	0.355100	0.872200	0.295700
C1071	C107	0.496600	0.850000	0.288500
H581	H58	0.491800	0.870800	0.261400
C1081	C108	0.345000	0.828100	0.378700
C1091	C109	0.163900	0.817700	0.366160
C1101	C110	0.148000	0.851500	0.403260
H591	H59	0.202200	0.864800	0.424700
C1111	C111	0.051600	0.865500	0.408590
C1121	C112	0.971900	0.843300	0.378200
H601	H60	0.907500	0.852400	0.382300
C1131	C113	0.985300	0.807500	0.341360
C1141	C114	0.080400	0.793900	0.335180
H611	H61	0.089800	0.769200	0.310700
C1151	C115	0.035000	0.910100	0.446240
C1161	C116	0.896700	0.785300	0.308330
C1171	C117	0.685300	0.563900	0.348000
H621	H62	0.672000	0.606800	0.360700
C1181	C118	0.725000	0.564700	0.310750
C1191	C119	0.738200	0.632300	0.288630
H631	H63	0.372300	0.823000	0.407500
Cu81	Cu8	0.309760	0.218210	0.727320
O431	O43	0.446600	0.427060	0.946490
O441	O44	0.611200	0.428280	0.973680
O451	O45	0.412600	0.251200	0.775330
O461	O46	0.312900	0.304530	0.813760
O471	O47	0.290300	0.131620	0.759830
O481	O48	0.193400	0.186220	0.799470
N151	N15	0.080600	0.317300	0.808050
N161	N16	0.761500	0.308600	0.856400
C1201	C120	0.085200	0.294600	0.848500
H641	H64	0.145700	0.273900	0.861600
C1211	C121	0.013200	0.297000	0.874200
H651	H65	0.024300	0.281700	0.902800
C1221	C122	0.922200	0.325100	0.852000
C1231	C123	0.915100	0.352200	0.809900
H661	H66	0.855100	0.372200	0.795700
C1241	C124	0.996600	0.350000	0.788500
H671	H67	0.991800	0.370800	0.761400
C1251	C125	0.845000	0.328100	0.878700
C1261	C126	0.663900	0.317700	0.866160
C1271	C127	0.648000	0.351500	0.903260
H681	H68	0.702200	0.364800	0.924700
C1281	C128	0.551600	0.365500	0.908590
C1291	C129	0.471900	0.343300	0.878200
H691	H69	0.407500	0.352400	0.882300
C1301	C130	0.485300	0.307500	0.841360
C1311	C131	0.580400	0.293900	0.835180
H701	H70	0.589800	0.269200	0.810700
C1321	C132	0.535000	0.410100	0.946240
C1331	C133	0.396700	0.285300	0.808330
C1341	C134	0.185300	0.063900	0.848000
H711	H71	0.172000	0.106800	0.860700
C1351	C135	0.225000	0.064700	0.810750
C1361	C136	0.238200	0.132300	0.788630
H721	H72	0.872300	0.323000	0.907500
Cu91	Cu9	0.903080	0.000000	0.483050
Cu101	Cu10	0.403080	0.500000	0.983050
Cu111	Cu11	0.096920	0.000000	0.516950
Cu121	Cu12	0.596920	0.500000	0.016950
N171	N17	0.642600	0.500000	0.411800
C1371	C137	0.665600	0.500000	0.366100
C1381	C138	0.744700	0.500000	0.292000
H731	H73	0.770900	0.500000	0.266900
N181	N18	0.142600	0.000000	0.911800
C1391	C139	0.165600	0.000000	0.866100
C1401	C140	0.244700	0.000000	0.792000
H741	H74	0.270900	0.000000	0.766900
N191	N19	0.357400	0.500000	0.588200
C1411	C141	0.334400	0.500000	0.633900
C1421	C142	0.255300	0.500000	0.708000
H751	H75	0.229100	0.500000	0.733100
N201	N20	0.857400	0.000000	0.088200
C1431	C143	0.834400	0.000000	0.133900
C1441	C144	0.755300	0.000000	0.208000
H761	H76	0.729100	0.000000	0.233100
