data_IYEPUZ_clean_PM
_symmetry_space_group_name_H-M	'P1'
_cell_length_a	10.314400
_cell_length_b	16.810000
_cell_length_c	44.985000
_cell_angle_alpha	90.000000
_cell_angle_beta	101.869000
_cell_angle_gamma	90.000000
_symmetry_Int_Tables_number 1

loop_
_symmetry_equiv_pos_as_xyz
'x,y,z'

loop_
_atom_site_label
_atom_site_type_symbol
_atom_site_fract_x
_atom_site_fract_y
_atom_site_fract_z
Mn11	Mn1	0.104320	0.004270	0.811650
Mn21	Mn2	0.296090	0.091600	0.757590
C11	C1	0.748100	0.094500	0.001490
C21	C2	0.661100	0.151200	0.984610
H11	H1	0.587200	0.173500	0.990300
C31	C3	0.703700	0.166900	0.959300
H21	H2	0.665200	0.201700	0.943900
C41	C4	0.822800	0.118900	0.960210
C51	C5	0.891300	0.115100	0.936810
C61	C6	0.999900	0.066500	0.937430
C71	C7	0.068100	0.057600	0.912470
H31	H3	0.044800	0.081300	0.893400
C81	C8	0.170000	0.009300	0.921890
H41	H4	0.233300	0.995100	0.910800
C91	C9	0.166100	0.982800	0.951740
C101	C10	0.256700	0.935200	0.969190
C111	C11	0.377700	0.910200	0.956280
C121	C12	0.471600	0.967100	0.955270
H51	H5	0.464900	0.015600	0.964800
C131	C13	0.577200	0.955700	0.940510
H61	H6	0.640600	0.994900	0.940100
C141	C14	0.581500	0.882900	0.926610
C151	C15	0.494400	0.823700	0.928290
H71	H7	0.503000	0.774000	0.919800
C161	C16	0.388500	0.840300	0.943570
H81	H8	0.326000	0.801000	0.944600
C171	C17	0.664600	0.914200	0.882720
C181	C18	0.544600	0.939600	0.866880
H91	H9	0.469100	0.929600	0.874600
C191	C19	0.532800	0.979100	0.840090
C201	C20	0.648200	0.994300	0.828930
H101	H10	0.643200	0.023100	0.811100
C211	C21	0.769800	0.966100	0.844670
C221	C22	0.776500	0.927600	0.871300
H111	H11	0.858100	0.910000	0.882100
C231	C23	0.892400	0.983800	0.831180
C241	C24	0.400900	0.009000	0.822700
C251	C25	0.852000	0.169700	0.909980
C261	C26	0.751200	0.149800	0.886170
H121	H12	0.703100	0.103500	0.887300
C271	C27	0.720200	0.195500	0.861200
H131	H13	0.650500	0.180400	0.845600
C281	C28	0.788300	0.263400	0.858100
C291	C29	0.887200	0.286300	0.881700
H141	H14	0.933100	0.333300	0.880200
C301	C30	0.921500	0.239000	0.908800
H151	H15	0.988200	0.254700	0.924900
C311	C31	0.844200	0.306400	0.812140
C321	C32	0.829500	0.367700	0.790950
H161	H16	0.773800	0.410300	0.792600
C331	C33	0.896100	0.365600	0.767830
C341	C34	0.981500	0.303400	0.766430
H171	H17	0.027600	0.300900	0.750700
C351	C35	0.998600	0.244900	0.788370
C361	C36	0.931700	0.245900	0.811500
H181	H18	0.945200	0.206600	0.826400
C371	C37	0.088300	0.171700	0.786720
C381	C38	0.879900	0.430000	0.743600
N11	N1	0.848300	0.076700	0.986550
N21	N2	0.060200	0.017400	0.960780
O11	O1	0.002300	0.962200	0.846250
O21	O2	0.879500	0.013800	0.806420
O31	O3	0.399000	0.051700	0.800380
O41	O4	0.302700	0.986200	0.832450
O51	O5	0.147000	0.170100	0.764540
O61	O6	0.106300	0.126000	0.808510
O71	O7	0.922700	0.414300	0.720540
O81	O8	0.821500	0.490800	0.748800
O91	O9	0.679500	0.869900	0.909510
O101	O10	0.768800	0.318200	0.834360
Mn31	Mn3	0.895680	0.504270	0.688350
Mn41	Mn4	0.703910	0.591600	0.742410
C391	C39	0.251900	0.594500	0.498510
C401	C40	0.338900	0.651200	0.515390
H191	H19	0.412800	0.673500	0.509700
C411	C41	0.296300	0.666900	0.540700
H201	H20	0.334800	0.701700	0.556100
C421	C42	0.177200	0.618900	0.539790
C431	C43	0.108700	0.615100	0.563190
C441	C44	0.000100	0.566500	0.562570
C451	C45	0.931900	0.557600	0.587530
H211	H21	0.955200	0.581300	0.606600
C461	C46	0.830000	0.509300	0.578110
H221	H22	0.766700	0.495100	0.589200
C471	C47	0.833900	0.482800	0.548260
C481	C48	0.743300	0.435200	0.530810
C491	C49	0.622300	0.410200	0.543720
C501	C50	0.528400	0.467100	0.544730
H231	H23	0.535100	0.515600	0.535200
C511	C51	0.422800	0.455700	0.559490
H241	H24	0.359400	0.494900	0.559900
C521	C52	0.418500	0.382900	0.573390
C531	C53	0.505600	0.323700	0.571710
H251	H25	0.497000	0.274000	0.580200
C541	C54	0.611500	0.340300	0.556430
H261	H26	0.674000	0.301000	0.555400
C551	C55	0.335400	0.414200	0.617280
C561	C56	0.455400	0.439600	0.633120
H271	H27	0.530900	0.429600	0.625400
C571	C57	0.467200	0.479100	0.659910
C581	C58	0.351800	0.494300	0.671070
H281	H28	0.356800	0.523100	0.688900
C591	C59	0.230200	0.466100	0.655330
C601	C60	0.223500	0.427600	0.628700
H291	H29	0.141900	0.410000	0.617900
C611	C61	0.107600	0.483800	0.668820
C621	C62	0.599100	0.509000	0.677300
C631	C63	0.148000	0.669700	0.590020
C641	C64	0.248800	0.649800	0.613830
H301	H30	0.296900	0.603500	0.612700
C651	C65	0.279800	0.695500	0.638800
H311	H31	0.349500	0.680400	0.654400
C661	C66	0.211700	0.763400	0.641900
C671	C67	0.112800	0.786300	0.618300
H321	H32	0.066900	0.833300	0.619800
C681	C68	0.078500	0.739000	0.591200
H331	H33	0.011800	0.754700	0.575100
C691	C69	0.155800	0.806400	0.687860
C701	C70	0.170500	0.867700	0.709050
H341	H34	0.226200	0.910300	0.707400
C711	C71	0.103900	0.865600	0.732170
C721	C72	0.018500	0.803400	0.733570
H351	H35	0.972400	0.800900	0.749300
C731	C73	0.001400	0.744900	0.711630
C741	C74	0.068300	0.745900	0.688500
H361	H36	0.054800	0.706600	0.673600
C751	C75	0.911700	0.671700	0.713280
C761	C76	0.120100	0.930000	0.756400
N31	N3	0.151700	0.576700	0.513450
N41	N4	0.939800	0.517400	0.539220
O111	O11	0.997700	0.462200	0.653750
O121	O12	0.120500	0.513800	0.693580
O131	O13	0.601000	0.551700	0.699620
O141	O14	0.697300	0.486200	0.667550
O151	O15	0.853000	0.670100	0.735460
O161	O16	0.893700	0.626000	0.691490
O171	O17	0.077300	0.914300	0.779460
O181	O18	0.178500	0.990800	0.751200
O191	O19	0.320500	0.369900	0.590490
O201	O20	0.231200	0.818200	0.665640
Mn51	Mn5	0.895680	0.995730	0.188350
Mn61	Mn6	0.703910	0.908400	0.242410
C771	C77	0.251900	0.905500	0.998510
C781	C78	0.338900	0.848800	0.015390
H371	H37	0.412800	0.826500	0.009700
C791	C79	0.296300	0.833100	0.040700
H381	H38	0.334800	0.798300	0.056100
C801	C80	0.177200	0.881100	0.039790
C811	C81	0.108700	0.884900	0.063190
C821	C82	0.000100	0.933500	0.062570
C831	C83	0.931900	0.942400	0.087530
H391	H39	0.955200	0.918700	0.106600
C841	C84	0.830000	0.990700	0.078110
H401	H40	0.766700	0.004900	0.089200
C851	C85	0.833900	0.017200	0.048260
C861	C86	0.743300	0.064800	0.030810
C871	C87	0.622300	0.089800	0.043720
C881	C88	0.528400	0.032900	0.044730
H411	H41	0.535100	0.984400	0.035200
C891	C89	0.422800	0.044300	0.059490
H421	H42	0.359400	0.005100	0.059900
C901	C90	0.418500	0.117100	0.073390
C911	C91	0.505600	0.176300	0.071710
H431	H43	0.497000	0.226000	0.080200
C921	C92	0.611500	0.159700	0.056430
H441	H44	0.674000	0.199000	0.055400
C931	C93	0.335400	0.085800	0.117280
C941	C94	0.455400	0.060400	0.133120
H451	H45	0.530900	0.070400	0.125400
C951	C95	0.467200	0.020900	0.159910
C961	C96	0.351800	0.005700	0.171070
H461	H46	0.356800	0.976900	0.188900
C971	C97	0.230200	0.033900	0.155330
C981	C98	0.223500	0.072400	0.128700
H471	H47	0.141900	0.090000	0.117900
C991	C99	0.107600	0.016200	0.168820
C1001	C100	0.599100	0.991000	0.177300
C1011	C101	0.148000	0.830300	0.090020
C1021	C102	0.248800	0.850200	0.113830
H481	H48	0.296900	0.896500	0.112700
C1031	C103	0.279800	0.804500	0.138800
H491	H49	0.349500	0.819600	0.154400
C1041	C104	0.211700	0.736600	0.141900
C1051	C105	0.112800	0.713700	0.118300
H501	H50	0.066900	0.666700	0.119800
C1061	C106	0.078500	0.761000	0.091200
H511	H51	0.011800	0.745300	0.075100
C1071	C107	0.155800	0.693600	0.187860
C1081	C108	0.170500	0.632300	0.209050
H521	H52	0.226200	0.589700	0.207400
C1091	C109	0.103900	0.634400	0.232170
C1101	C110	0.018500	0.696600	0.233570
H531	H53	0.972400	0.699100	0.249300
C1111	C111	0.001400	0.755100	0.211630
C1121	C112	0.068300	0.754100	0.188500
H541	H54	0.054800	0.793400	0.173600
C1131	C113	0.911700	0.828300	0.213280
C1141	C114	0.120100	0.570000	0.256400
N51	N5	0.151700	0.923300	0.013450
N61	N6	0.939800	0.982600	0.039220
O211	O21	0.997700	0.037800	0.153750
O221	O22	0.120500	0.986200	0.193580
O231	O23	0.601000	0.948300	0.199620
O241	O24	0.697300	0.013800	0.167550
O251	O25	0.853000	0.829900	0.235460
O261	O26	0.893700	0.874000	0.191490
O271	O27	0.077300	0.585700	0.279460
O281	O28	0.178500	0.509200	0.251200
O291	O29	0.320500	0.130100	0.090490
O301	O30	0.231200	0.681800	0.165640
Mn71	Mn7	0.104320	0.495730	0.311650
Mn81	Mn8	0.296090	0.408400	0.257590
C1151	C115	0.748100	0.405500	0.501490
C1161	C116	0.661100	0.348800	0.484610
H551	H55	0.587200	0.326500	0.490300
C1171	C117	0.703700	0.333100	0.459300
H561	H56	0.665200	0.298300	0.443900
C1181	C118	0.822800	0.381100	0.460210
C1191	C119	0.891300	0.384900	0.436810
C1201	C120	0.999900	0.433500	0.437430
C1211	C121	0.068100	0.442400	0.412470
H571	H57	0.044800	0.418700	0.393400
C1221	C122	0.170000	0.490700	0.421890
H581	H58	0.233300	0.504900	0.410800
C1231	C123	0.166100	0.517200	0.451740
C1241	C124	0.256700	0.564800	0.469190
C1251	C125	0.377700	0.589800	0.456280
C1261	C126	0.471600	0.532900	0.455270
H591	H59	0.464900	0.484400	0.464800
C1271	C127	0.577200	0.544300	0.440510
H601	H60	0.640600	0.505100	0.440100
C1281	C128	0.581500	0.617100	0.426610
C1291	C129	0.494400	0.676300	0.428290
H611	H61	0.503000	0.726000	0.419800
C1301	C130	0.388500	0.659700	0.443570
H621	H62	0.326000	0.699000	0.444600
C1311	C131	0.664600	0.585800	0.382720
C1321	C132	0.544600	0.560400	0.366880
H631	H63	0.469100	0.570400	0.374600
C1331	C133	0.532800	0.520900	0.340090
C1341	C134	0.648200	0.505700	0.328930
H641	H64	0.643200	0.476900	0.311100
C1351	C135	0.769800	0.533900	0.344670
C1361	C136	0.776500	0.572400	0.371300
H651	H65	0.858100	0.590000	0.382100
C1371	C137	0.892400	0.516200	0.331180
C1381	C138	0.400900	0.491000	0.322700
C1391	C139	0.852000	0.330300	0.409980
C1401	C140	0.751200	0.350200	0.386170
H661	H66	0.703100	0.396500	0.387300
C1411	C141	0.720200	0.304500	0.361200
H671	H67	0.650500	0.319600	0.345600
C1421	C142	0.788300	0.236600	0.358100
C1431	C143	0.887200	0.213700	0.381700
H681	H68	0.933100	0.166700	0.380200
C1441	C144	0.921500	0.261000	0.408800
H691	H69	0.988200	0.245300	0.424900
C1451	C145	0.844200	0.193600	0.312140
C1461	C146	0.829500	0.132300	0.290950
H701	H70	0.773800	0.089700	0.292600
C1471	C147	0.896100	0.134400	0.267830
C1481	C148	0.981500	0.196600	0.266430
H711	H71	0.027600	0.199100	0.250700
C1491	C149	0.998600	0.255100	0.288370
C1501	C150	0.931700	0.254100	0.311500
H721	H72	0.945200	0.293400	0.326400
C1511	C151	0.088300	0.328300	0.286720
C1521	C152	0.879900	0.070000	0.243600
N71	N7	0.848300	0.423300	0.486550
N81	N8	0.060200	0.482600	0.460780
O311	O31	0.002300	0.537800	0.346250
O321	O32	0.879500	0.486200	0.306420
O331	O33	0.399000	0.448300	0.300380
O341	O34	0.302700	0.513800	0.332450
O351	O35	0.147000	0.329900	0.264540
O361	O36	0.106300	0.374000	0.308510
O371	O37	0.922700	0.085700	0.220540
O381	O38	0.821500	0.009200	0.248800
O391	O39	0.679500	0.630100	0.409510
O401	O40	0.768800	0.181800	0.334360
Mn91	Mn9	0.000000	0.000000	0.000000
Mn101	Mn10	0.000000	0.500000	0.500000
