data_IYESUC_clean_PM
_symmetry_space_group_name_H-M	'P1'
_cell_length_a	14.398600
_cell_length_b	31.365000
_cell_length_c	32.064700
_cell_angle_alpha	90.000000
_cell_angle_beta	90.000000
_cell_angle_gamma	90.000000
_symmetry_Int_Tables_number 1

loop_
_symmetry_equiv_pos_as_xyz
'x,y,z'

loop_
_atom_site_label
_atom_site_type_symbol
_atom_site_fract_x
_atom_site_fract_y
_atom_site_fract_z
C11	C1	0.076100	0.233500	0.698890
C21	C2	0.119900	0.203680	0.667270
C31	C3	0.209700	0.193010	0.668310
H11	H1	0.248500	0.203900	0.689800
C41	C4	0.191600	0.147320	0.608300
C51	C5	0.247000	0.166020	0.638030
H21	H2	0.311900	0.160500	0.638000
C61	C6	0.058800	0.185300	0.638220
H31	H3	0.994600	0.192300	0.638200
C71	C7	0.095700	0.155800	0.608800
H41	H4	0.055700	0.141800	0.589700
C81	C8	0.225200	0.117360	0.575860
C91	C9	0.224800	0.130310	0.534530
C101	C10	0.289900	0.023000	0.629790
H51	H5	0.298100	0.004500	0.653000
C111	C11	0.314600	0.014300	0.586990
C121	C12	0.199800	0.172590	0.521390
H61	H6	0.186000	0.196100	0.539000
C131	C13	0.253300	0.061890	0.630190
H71	H7	0.231000	0.076900	0.653900
C141	C14	0.383100	0.942500	0.607000
C151	C15	0.477300	0.936900	0.618500
H81	H8	0.524400	0.954500	0.606800
C161	C16	0.360100	0.975610	0.574700
C171	C17	0.314300	0.917300	0.624000
H91	H9	0.251400	0.921400	0.616000
C181	C18	0.254000	0.076830	0.587920
C191	C19	0.385800	0.968700	0.534500
C201	C20	0.435600	0.929700	0.521900
H101	H10	0.462300	0.908800	0.539700
C211	C21	0.429800	0.879510	0.664020
C221	C22	0.337000	0.886100	0.652600
H111	H11	0.289400	0.869100	0.664600
C231	C23	0.500300	0.904800	0.647600
H121	H12	0.562900	0.900600	0.655800
C241	C24	0.456500	0.845450	0.694700
N11	N1	0.291800	0.046030	0.561970
O11	O1	0.128200	0.252030	0.724680
O21	O2	0.990300	0.240800	0.697550
O31	O3	0.390800	0.823350	0.711150
O41	O4	0.540600	0.839680	0.703740
C251	C25	0.576100	0.733500	0.698890
C261	C26	0.619900	0.703680	0.667270
C271	C27	0.709700	0.693010	0.668310
H131	H13	0.748500	0.703900	0.689800
C281	C28	0.691600	0.647320	0.608300
C291	C29	0.747000	0.666020	0.638030
H141	H14	0.811900	0.660500	0.638000
C301	C30	0.558800	0.685300	0.638220
H151	H15	0.494600	0.692300	0.638200
C311	C31	0.595700	0.655800	0.608800
H161	H16	0.555700	0.641800	0.589700
C321	C32	0.725200	0.617360	0.575860
C331	C33	0.724800	0.630310	0.534530
C341	C34	0.789900	0.523000	0.629790
H171	H17	0.798100	0.504500	0.653000
C351	C35	0.814600	0.514300	0.586990
C361	C36	0.699800	0.672590	0.521390
H181	H18	0.686000	0.696100	0.539000
C371	C37	0.753300	0.561890	0.630190
H191	H19	0.731000	0.576900	0.653900
C381	C38	0.883100	0.442500	0.607000
C391	C39	0.977300	0.436900	0.618500
H201	H20	0.024400	0.454500	0.606800
C401	C40	0.860100	0.475610	0.574700
C411	C41	0.814300	0.417300	0.624000
H211	H21	0.751400	0.421400	0.616000
C421	C42	0.754000	0.576830	0.587920
C431	C43	0.885800	0.468700	0.534500
C441	C44	0.935600	0.429700	0.521900
H221	H22	0.962300	0.408800	0.539700
C451	C45	0.929800	0.379510	0.664020
C461	C46	0.837000	0.386100	0.652600
H231	H23	0.789400	0.369100	0.664600
C471	C47	0.000300	0.404800	0.647600
H241	H24	0.062900	0.400600	0.655800
C481	C48	0.956500	0.345450	0.694700
N21	N2	0.791800	0.546030	0.561970
O51	O5	0.628200	0.752030	0.724680
O61	O6	0.490300	0.740800	0.697550
O71	O7	0.890800	0.323350	0.711150
O81	O8	0.040600	0.339680	0.703740
C491	C49	0.923900	0.233500	0.801110
C501	C50	0.880100	0.203680	0.832730
C511	C51	0.790300	0.193010	0.831690
H251	H25	0.751500	0.203900	0.810200
C521	C52	0.808400	0.147320	0.891700
C531	C53	0.753000	0.166020	0.861970
H261	H26	0.688100	0.160500	0.862000
C541	C54	0.941200	0.185300	0.861780
H271	H27	0.005400	0.192300	0.861800
C551	C55	0.904300	0.155800	0.891200
H281	H28	0.944300	0.141800	0.910300
C561	C56	0.774800	0.117360	0.924140
C571	C57	0.775200	0.130310	0.965470
C581	C58	0.710100	0.023000	0.870210
H291	H29	0.701900	0.004500	0.847000
C591	C59	0.685400	0.014300	0.913010
C601	C60	0.800200	0.172590	0.978610
H301	H30	0.814000	0.196100	0.961000
C611	C61	0.746700	0.061890	0.869810
H311	H31	0.769000	0.076900	0.846100
C621	C62	0.616900	0.942500	0.893000
C631	C63	0.522700	0.936900	0.881500
H321	H32	0.475600	0.954500	0.893200
C641	C64	0.639900	0.975610	0.925300
C651	C65	0.685700	0.917300	0.876000
H331	H33	0.748600	0.921400	0.884000
C661	C66	0.746000	0.076830	0.912080
C671	C67	0.614200	0.968700	0.965500
C681	C68	0.564400	0.929700	0.978100
H341	H34	0.537700	0.908800	0.960300
C691	C69	0.570200	0.879510	0.835980
C701	C70	0.663000	0.886100	0.847400
H351	H35	0.710600	0.869100	0.835400
C711	C71	0.499700	0.904800	0.852400
H361	H36	0.437100	0.900600	0.844200
C721	C72	0.543500	0.845450	0.805300
N31	N3	0.708200	0.046030	0.938030
O91	O9	0.871800	0.252030	0.775320
O101	O10	0.009700	0.240800	0.802450
O111	O11	0.609200	0.823350	0.788850
O121	O12	0.459400	0.839680	0.796260
C731	C73	0.423900	0.733500	0.801110
C741	C74	0.380100	0.703680	0.832730
C751	C75	0.290300	0.693010	0.831690
H371	H37	0.251500	0.703900	0.810200
C761	C76	0.308400	0.647320	0.891700
C771	C77	0.253000	0.666020	0.861970
H381	H38	0.188100	0.660500	0.862000
C781	C78	0.441200	0.685300	0.861780
H391	H39	0.505400	0.692300	0.861800
C791	C79	0.404300	0.655800	0.891200
H401	H40	0.444300	0.641800	0.910300
C801	C80	0.274800	0.617360	0.924140
C811	C81	0.275200	0.630310	0.965470
C821	C82	0.210100	0.523000	0.870210
H411	H41	0.201900	0.504500	0.847000
C831	C83	0.185400	0.514300	0.913010
C841	C84	0.300200	0.672590	0.978610
H421	H42	0.314000	0.696100	0.961000
C851	C85	0.246700	0.561890	0.869810
H431	H43	0.269000	0.576900	0.846100
C861	C86	0.116900	0.442500	0.893000
C871	C87	0.022700	0.436900	0.881500
H441	H44	0.975600	0.454500	0.893200
C881	C88	0.139900	0.475610	0.925300
C891	C89	0.185700	0.417300	0.876000
H451	H45	0.248600	0.421400	0.884000
C901	C90	0.246000	0.576830	0.912080
C911	C91	0.114200	0.468700	0.965500
C921	C92	0.064400	0.429700	0.978100
H461	H46	0.037700	0.408800	0.960300
C931	C93	0.070200	0.379510	0.835980
C941	C94	0.163000	0.386100	0.847400
H471	H47	0.210600	0.369100	0.835400
C951	C95	0.999700	0.404800	0.852400
H481	H48	0.937100	0.400600	0.844200
C961	C96	0.043500	0.345450	0.805300
N41	N4	0.208200	0.546030	0.938030
O131	O13	0.371800	0.752030	0.775320
O141	O14	0.509700	0.740800	0.802450
O151	O15	0.109200	0.323350	0.788850
O161	O16	0.959400	0.339680	0.796260
C971	C97	0.076100	0.233500	0.301110
C981	C98	0.119900	0.203680	0.332730
C991	C99	0.209700	0.193010	0.331690
H491	H49	0.248500	0.203900	0.310200
C1001	C100	0.191600	0.147320	0.391700
C1011	C101	0.247000	0.166020	0.361970
H501	H50	0.311900	0.160500	0.362000
C1021	C102	0.058800	0.185300	0.361780
H511	H51	0.994600	0.192300	0.361800
C1031	C103	0.095700	0.155800	0.391200
H521	H52	0.055700	0.141800	0.410300
C1041	C104	0.225200	0.117360	0.424140
C1051	C105	0.224800	0.130310	0.465470
C1061	C106	0.289900	0.023000	0.370210
H531	H53	0.298100	0.004500	0.347000
C1071	C107	0.314600	0.014300	0.413010
C1081	C108	0.199800	0.172590	0.478610
H541	H54	0.186000	0.196100	0.461000
C1091	C109	0.253300	0.061890	0.369810
H551	H55	0.231000	0.076900	0.346100
C1101	C110	0.383100	0.942500	0.393000
C1111	C111	0.477300	0.936900	0.381500
H561	H56	0.524400	0.954500	0.393200
C1121	C112	0.360100	0.975610	0.425300
C1131	C113	0.314300	0.917300	0.376000
H571	H57	0.251400	0.921400	0.384000
C1141	C114	0.254000	0.076830	0.412080
C1151	C115	0.385800	0.968700	0.465500
C1161	C116	0.435600	0.929700	0.478100
H581	H58	0.462300	0.908800	0.460300
C1171	C117	0.429800	0.879510	0.335980
C1181	C118	0.337000	0.886100	0.347400
H591	H59	0.289400	0.869100	0.335400
C1191	C119	0.500300	0.904800	0.352400
H601	H60	0.562900	0.900600	0.344200
C1201	C120	0.456500	0.845450	0.305300
N51	N5	0.291800	0.046030	0.438030
O171	O17	0.128200	0.252030	0.275320
O181	O18	0.990300	0.240800	0.302450
O191	O19	0.390800	0.823350	0.288850
O201	O20	0.540600	0.839680	0.296260
C1211	C121	0.576100	0.733500	0.301110
C1221	C122	0.619900	0.703680	0.332730
C1231	C123	0.709700	0.693010	0.331690
H611	H61	0.748500	0.703900	0.310200
C1241	C124	0.691600	0.647320	0.391700
C1251	C125	0.747000	0.666020	0.361970
H621	H62	0.811900	0.660500	0.362000
C1261	C126	0.558800	0.685300	0.361780
H631	H63	0.494600	0.692300	0.361800
C1271	C127	0.595700	0.655800	0.391200
H641	H64	0.555700	0.641800	0.410300
C1281	C128	0.725200	0.617360	0.424140
C1291	C129	0.724800	0.630310	0.465470
C1301	C130	0.789900	0.523000	0.370210
H651	H65	0.798100	0.504500	0.347000
C1311	C131	0.814600	0.514300	0.413010
C1321	C132	0.699800	0.672590	0.478610
H661	H66	0.686000	0.696100	0.461000
C1331	C133	0.753300	0.561890	0.369810
H671	H67	0.731000	0.576900	0.346100
C1341	C134	0.883100	0.442500	0.393000
C1351	C135	0.977300	0.436900	0.381500
H681	H68	0.024400	0.454500	0.393200
C1361	C136	0.860100	0.475610	0.425300
C1371	C137	0.814300	0.417300	0.376000
H691	H69	0.751400	0.421400	0.384000
C1381	C138	0.754000	0.576830	0.412080
C1391	C139	0.885800	0.468700	0.465500
C1401	C140	0.935600	0.429700	0.478100
H701	H70	0.962300	0.408800	0.460300
C1411	C141	0.929800	0.379510	0.335980
C1421	C142	0.837000	0.386100	0.347400
H711	H71	0.789400	0.369100	0.335400
C1431	C143	0.000300	0.404800	0.352400
H721	H72	0.062900	0.400600	0.344200
C1441	C144	0.956500	0.345450	0.305300
N61	N6	0.791800	0.546030	0.438030
O211	O21	0.628200	0.752030	0.275320
O221	O22	0.490300	0.740800	0.302450
O231	O23	0.890800	0.323350	0.288850
O241	O24	0.040600	0.339680	0.296260
C1451	C145	0.923900	0.233500	0.198890
C1461	C146	0.880100	0.203680	0.167270
C1471	C147	0.790300	0.193010	0.168310
H731	H73	0.751500	0.203900	0.189800
C1481	C148	0.808400	0.147320	0.108300
C1491	C149	0.753000	0.166020	0.138030
H741	H74	0.688100	0.160500	0.138000
C1501	C150	0.941200	0.185300	0.138220
H751	H75	0.005400	0.192300	0.138200
C1511	C151	0.904300	0.155800	0.108800
H761	H76	0.944300	0.141800	0.089700
C1521	C152	0.774800	0.117360	0.075860
C1531	C153	0.775200	0.130310	0.034530
C1541	C154	0.710100	0.023000	0.129790
H771	H77	0.701900	0.004500	0.153000
C1551	C155	0.685400	0.014300	0.086990
C1561	C156	0.800200	0.172590	0.021390
H781	H78	0.814000	0.196100	0.039000
C1571	C157	0.746700	0.061890	0.130190
H791	H79	0.769000	0.076900	0.153900
C1581	C158	0.616900	0.942500	0.107000
C1591	C159	0.522700	0.936900	0.118500
H801	H80	0.475600	0.954500	0.106800
C1601	C160	0.639900	0.975610	0.074700
C1611	C161	0.685700	0.917300	0.124000
H811	H81	0.748600	0.921400	0.116000
C1621	C162	0.746000	0.076830	0.087920
C1631	C163	0.614200	0.968700	0.034500
C1641	C164	0.564400	0.929700	0.021900
H821	H82	0.537700	0.908800	0.039700
C1651	C165	0.570200	0.879510	0.164020
C1661	C166	0.663000	0.886100	0.152600
H831	H83	0.710600	0.869100	0.164600
C1671	C167	0.499700	0.904800	0.147600
H841	H84	0.437100	0.900600	0.155800
C1681	C168	0.543500	0.845450	0.194700
N71	N7	0.708200	0.046030	0.061970
O251	O25	0.871800	0.252030	0.224680
O261	O26	0.009700	0.240800	0.197550
O271	O27	0.609200	0.823350	0.211150
O281	O28	0.459400	0.839680	0.203740
C1691	C169	0.423900	0.733500	0.198890
C1701	C170	0.380100	0.703680	0.167270
C1711	C171	0.290300	0.693010	0.168310
H851	H85	0.251500	0.703900	0.189800
C1721	C172	0.308400	0.647320	0.108300
C1731	C173	0.253000	0.666020	0.138030
H861	H86	0.188100	0.660500	0.138000
C1741	C174	0.441200	0.685300	0.138220
H871	H87	0.505400	0.692300	0.138200
C1751	C175	0.404300	0.655800	0.108800
H881	H88	0.444300	0.641800	0.089700
C1761	C176	0.274800	0.617360	0.075860
C1771	C177	0.275200	0.630310	0.034530
C1781	C178	0.210100	0.523000	0.129790
H891	H89	0.201900	0.504500	0.153000
C1791	C179	0.185400	0.514300	0.086990
C1801	C180	0.300200	0.672590	0.021390
H901	H90	0.314000	0.696100	0.039000
C1811	C181	0.246700	0.561890	0.130190
H911	H91	0.269000	0.576900	0.153900
C1821	C182	0.116900	0.442500	0.107000
C1831	C183	0.022700	0.436900	0.118500
H921	H92	0.975600	0.454500	0.106800
C1841	C184	0.139900	0.475610	0.074700
C1851	C185	0.185700	0.417300	0.124000
H931	H93	0.248600	0.421400	0.116000
C1861	C186	0.246000	0.576830	0.087920
C1871	C187	0.114200	0.468700	0.034500
C1881	C188	0.064400	0.429700	0.021900
H941	H94	0.037700	0.408800	0.039700
C1891	C189	0.070200	0.379510	0.164020
C1901	C190	0.163000	0.386100	0.152600
H951	H95	0.210600	0.369100	0.164600
C1911	C191	0.999700	0.404800	0.147600
H961	H96	0.937100	0.400600	0.155800
C1921	C192	0.043500	0.345450	0.194700
N81	N8	0.208200	0.546030	0.061970
O291	O29	0.371800	0.752030	0.224680
O301	O30	0.509700	0.740800	0.197550
O311	O31	0.109200	0.323350	0.211150
O321	O32	0.959400	0.339680	0.203740
In11	In1	0.000000	0.288260	0.250000
In21	In2	0.500000	0.788260	0.250000
In31	In3	0.000000	0.288260	0.750000
In41	In4	0.500000	0.788260	0.750000
Co11	Co1	0.288870	0.046040	0.500000
N91	N9	0.242200	0.104000	0.500000
N101	N10	0.359000	0.991600	0.500000
Co21	Co2	0.788870	0.546040	0.500000
N111	N11	0.742200	0.604000	0.500000
N121	N12	0.859000	0.491600	0.500000
Co31	Co3	0.711130	0.046040	0.000000
N131	N13	0.757800	0.104000	0.000000
N141	N14	0.641000	0.991600	0.000000
Co41	Co4	0.211130	0.546040	0.000000
N151	N15	0.257800	0.604000	0.000000
N161	N16	0.141000	0.491600	0.000000
C1931	C193	0.923900	0.766500	0.698890
C1941	C194	0.880100	0.796320	0.667270
C1951	C195	0.790300	0.806990	0.668310
H971	H97	0.751500	0.796100	0.689800
C1961	C196	0.808400	0.852680	0.608300
C1971	C197	0.753000	0.833980	0.638030
H981	H98	0.688100	0.839500	0.638000
C1981	C198	0.941200	0.814700	0.638220
H991	H99	0.005400	0.807700	0.638200
C1991	C199	0.904300	0.844200	0.608800
H1001	H100	0.944300	0.858200	0.589700
C2001	C200	0.774800	0.882640	0.575860
C2011	C201	0.775200	0.869690	0.534530
C2021	C202	0.710100	0.977000	0.629790
H1011	H101	0.701900	0.995500	0.653000
C2031	C203	0.685400	0.985700	0.586990
C2041	C204	0.800200	0.827410	0.521390
H1021	H102	0.814000	0.803900	0.539000
C2051	C205	0.746700	0.938110	0.630190
H1031	H103	0.769000	0.923100	0.653900
C2061	C206	0.616900	0.057500	0.607000
C2071	C207	0.522700	0.063100	0.618500
H1041	H104	0.475600	0.045500	0.606800
C2081	C208	0.639900	0.024390	0.574700
C2091	C209	0.685700	0.082700	0.624000
H1051	H105	0.748600	0.078600	0.616000
C2101	C210	0.746000	0.923170	0.587920
C2111	C211	0.614200	0.031300	0.534500
C2121	C212	0.564400	0.070300	0.521900
H1061	H106	0.537700	0.091200	0.539700
C2131	C213	0.570200	0.120490	0.664020
C2141	C214	0.663000	0.113900	0.652600
H1071	H107	0.710600	0.130900	0.664600
C2151	C215	0.499700	0.095200	0.647600
H1081	H108	0.437100	0.099400	0.655800
C2161	C216	0.543500	0.154550	0.694700
N171	N17	0.708200	0.953970	0.561970
O331	O33	0.871800	0.747970	0.724680
O341	O34	0.009700	0.759200	0.697550
O351	O35	0.609200	0.176650	0.711150
O361	O36	0.459400	0.160320	0.703740
C2171	C217	0.423900	0.266500	0.698890
C2181	C218	0.380100	0.296320	0.667270
C2191	C219	0.290300	0.306990	0.668310
H1091	H109	0.251500	0.296100	0.689800
C2201	C220	0.308400	0.352680	0.608300
C2211	C221	0.253000	0.333980	0.638030
H1101	H110	0.188100	0.339500	0.638000
C2221	C222	0.441200	0.314700	0.638220
H1111	H111	0.505400	0.307700	0.638200
C2231	C223	0.404300	0.344200	0.608800
H1121	H112	0.444300	0.358200	0.589700
C2241	C224	0.274800	0.382640	0.575860
C2251	C225	0.275200	0.369690	0.534530
C2261	C226	0.210100	0.477000	0.629790
H1131	H113	0.201900	0.495500	0.653000
C2271	C227	0.185400	0.485700	0.586990
C2281	C228	0.300200	0.327410	0.521390
H1141	H114	0.314000	0.303900	0.539000
C2291	C229	0.246700	0.438110	0.630190
H1151	H115	0.269000	0.423100	0.653900
C2301	C230	0.116900	0.557500	0.607000
C2311	C231	0.022700	0.563100	0.618500
H1161	H116	0.975600	0.545500	0.606800
C2321	C232	0.139900	0.524390	0.574700
C2331	C233	0.185700	0.582700	0.624000
H1171	H117	0.248600	0.578600	0.616000
C2341	C234	0.246000	0.423170	0.587920
C2351	C235	0.114200	0.531300	0.534500
C2361	C236	0.064400	0.570300	0.521900
H1181	H118	0.037700	0.591200	0.539700
C2371	C237	0.070200	0.620490	0.664020
C2381	C238	0.163000	0.613900	0.652600
H1191	H119	0.210600	0.630900	0.664600
C2391	C239	0.999700	0.595200	0.647600
H1201	H120	0.937100	0.599400	0.655800
C2401	C240	0.043500	0.654550	0.694700
N181	N18	0.208200	0.453970	0.561970
O371	O37	0.371800	0.247970	0.724680
O381	O38	0.509700	0.259200	0.697550
O391	O39	0.109200	0.676650	0.711150
O401	O40	0.959400	0.660320	0.703740
C2411	C241	0.076100	0.766500	0.801110
C2421	C242	0.119900	0.796320	0.832730
C2431	C243	0.209700	0.806990	0.831690
H1211	H121	0.248500	0.796100	0.810200
C2441	C244	0.191600	0.852680	0.891700
C2451	C245	0.247000	0.833980	0.861970
H1221	H122	0.311900	0.839500	0.862000
C2461	C246	0.058800	0.814700	0.861780
H1231	H123	0.994600	0.807700	0.861800
C2471	C247	0.095700	0.844200	0.891200
H1241	H124	0.055700	0.858200	0.910300
C2481	C248	0.225200	0.882640	0.924140
C2491	C249	0.224800	0.869690	0.965470
C2501	C250	0.289900	0.977000	0.870210
H1251	H125	0.298100	0.995500	0.847000
C2511	C251	0.314600	0.985700	0.913010
C2521	C252	0.199800	0.827410	0.978610
H1261	H126	0.186000	0.803900	0.961000
C2531	C253	0.253300	0.938110	0.869810
H1271	H127	0.231000	0.923100	0.846100
C2541	C254	0.383100	0.057500	0.893000
C2551	C255	0.477300	0.063100	0.881500
H1281	H128	0.524400	0.045500	0.893200
C2561	C256	0.360100	0.024390	0.925300
C2571	C257	0.314300	0.082700	0.876000
H1291	H129	0.251400	0.078600	0.884000
C2581	C258	0.254000	0.923170	0.912080
C2591	C259	0.385800	0.031300	0.965500
C2601	C260	0.435600	0.070300	0.978100
H1301	H130	0.462300	0.091200	0.960300
C2611	C261	0.429800	0.120490	0.835980
C2621	C262	0.337000	0.113900	0.847400
H1311	H131	0.289400	0.130900	0.835400
C2631	C263	0.500300	0.095200	0.852400
H1321	H132	0.562900	0.099400	0.844200
C2641	C264	0.456500	0.154550	0.805300
N191	N19	0.291800	0.953970	0.938030
O411	O41	0.128200	0.747970	0.775320
O421	O42	0.990300	0.759200	0.802450
O431	O43	0.390800	0.176650	0.788850
O441	O44	0.540600	0.160320	0.796260
C2651	C265	0.576100	0.266500	0.801110
C2661	C266	0.619900	0.296320	0.832730
C2671	C267	0.709700	0.306990	0.831690
H1331	H133	0.748500	0.296100	0.810200
C2681	C268	0.691600	0.352680	0.891700
C2691	C269	0.747000	0.333980	0.861970
H1341	H134	0.811900	0.339500	0.862000
C2701	C270	0.558800	0.314700	0.861780
H1351	H135	0.494600	0.307700	0.861800
C2711	C271	0.595700	0.344200	0.891200
H1361	H136	0.555700	0.358200	0.910300
C2721	C272	0.725200	0.382640	0.924140
C2731	C273	0.724800	0.369690	0.965470
C2741	C274	0.789900	0.477000	0.870210
H1371	H137	0.798100	0.495500	0.847000
C2751	C275	0.814600	0.485700	0.913010
C2761	C276	0.699800	0.327410	0.978610
H1381	H138	0.686000	0.303900	0.961000
C2771	C277	0.753300	0.438110	0.869810
H1391	H139	0.731000	0.423100	0.846100
C2781	C278	0.883100	0.557500	0.893000
C2791	C279	0.977300	0.563100	0.881500
H1401	H140	0.024400	0.545500	0.893200
C2801	C280	0.860100	0.524390	0.925300
C2811	C281	0.814300	0.582700	0.876000
H1411	H141	0.751400	0.578600	0.884000
C2821	C282	0.754000	0.423170	0.912080
C2831	C283	0.885800	0.531300	0.965500
C2841	C284	0.935600	0.570300	0.978100
H1421	H142	0.962300	0.591200	0.960300
C2851	C285	0.929800	0.620490	0.835980
C2861	C286	0.837000	0.613900	0.847400
H1431	H143	0.789400	0.630900	0.835400
C2871	C287	0.000300	0.595200	0.852400
H1441	H144	0.062900	0.599400	0.844200
C2881	C288	0.956500	0.654550	0.805300
N201	N20	0.791800	0.453970	0.938030
O451	O45	0.628200	0.247970	0.775320
O461	O46	0.490300	0.259200	0.802450
O471	O47	0.890800	0.676650	0.788850
O481	O48	0.040600	0.660320	0.796260
C2891	C289	0.923900	0.766500	0.301110
C2901	C290	0.880100	0.796320	0.332730
C2911	C291	0.790300	0.806990	0.331690
H1451	H145	0.751500	0.796100	0.310200
C2921	C292	0.808400	0.852680	0.391700
C2931	C293	0.753000	0.833980	0.361970
H1461	H146	0.688100	0.839500	0.362000
C2941	C294	0.941200	0.814700	0.361780
H1471	H147	0.005400	0.807700	0.361800
C2951	C295	0.904300	0.844200	0.391200
H1481	H148	0.944300	0.858200	0.410300
C2961	C296	0.774800	0.882640	0.424140
C2971	C297	0.775200	0.869690	0.465470
C2981	C298	0.710100	0.977000	0.370210
H1491	H149	0.701900	0.995500	0.347000
C2991	C299	0.685400	0.985700	0.413010
C3001	C300	0.800200	0.827410	0.478610
H1501	H150	0.814000	0.803900	0.461000
C3011	C301	0.746700	0.938110	0.369810
H1511	H151	0.769000	0.923100	0.346100
C3021	C302	0.616900	0.057500	0.393000
C3031	C303	0.522700	0.063100	0.381500
H1521	H152	0.475600	0.045500	0.393200
C3041	C304	0.639900	0.024390	0.425300
C3051	C305	0.685700	0.082700	0.376000
H1531	H153	0.748600	0.078600	0.384000
C3061	C306	0.746000	0.923170	0.412080
C3071	C307	0.614200	0.031300	0.465500
C3081	C308	0.564400	0.070300	0.478100
H1541	H154	0.537700	0.091200	0.460300
C3091	C309	0.570200	0.120490	0.335980
C3101	C310	0.663000	0.113900	0.347400
H1551	H155	0.710600	0.130900	0.335400
C3111	C311	0.499700	0.095200	0.352400
H1561	H156	0.437100	0.099400	0.344200
C3121	C312	0.543500	0.154550	0.305300
N211	N21	0.708200	0.953970	0.438030
O491	O49	0.871800	0.747970	0.275320
O501	O50	0.009700	0.759200	0.302450
O511	O51	0.609200	0.176650	0.288850
O521	O52	0.459400	0.160320	0.296260
C3131	C313	0.423900	0.266500	0.301110
C3141	C314	0.380100	0.296320	0.332730
C3151	C315	0.290300	0.306990	0.331690
H1571	H157	0.251500	0.296100	0.310200
C3161	C316	0.308400	0.352680	0.391700
C3171	C317	0.253000	0.333980	0.361970
H1581	H158	0.188100	0.339500	0.362000
C3181	C318	0.441200	0.314700	0.361780
H1591	H159	0.505400	0.307700	0.361800
C3191	C319	0.404300	0.344200	0.391200
H1601	H160	0.444300	0.358200	0.410300
C3201	C320	0.274800	0.382640	0.424140
C3211	C321	0.275200	0.369690	0.465470
C3221	C322	0.210100	0.477000	0.370210
H1611	H161	0.201900	0.495500	0.347000
C3231	C323	0.185400	0.485700	0.413010
C3241	C324	0.300200	0.327410	0.478610
H1621	H162	0.314000	0.303900	0.461000
C3251	C325	0.246700	0.438110	0.369810
H1631	H163	0.269000	0.423100	0.346100
C3261	C326	0.116900	0.557500	0.393000
C3271	C327	0.022700	0.563100	0.381500
H1641	H164	0.975600	0.545500	0.393200
C3281	C328	0.139900	0.524390	0.425300
C3291	C329	0.185700	0.582700	0.376000
H1651	H165	0.248600	0.578600	0.384000
C3301	C330	0.246000	0.423170	0.412080
C3311	C331	0.114200	0.531300	0.465500
C3321	C332	0.064400	0.570300	0.478100
H1661	H166	0.037700	0.591200	0.460300
C3331	C333	0.070200	0.620490	0.335980
C3341	C334	0.163000	0.613900	0.347400
H1671	H167	0.210600	0.630900	0.335400
C3351	C335	0.999700	0.595200	0.352400
H1681	H168	0.937100	0.599400	0.344200
C3361	C336	0.043500	0.654550	0.305300
N221	N22	0.208200	0.453970	0.438030
O531	O53	0.371800	0.247970	0.275320
O541	O54	0.509700	0.259200	0.302450
O551	O55	0.109200	0.676650	0.288850
O561	O56	0.959400	0.660320	0.296260
C3371	C337	0.076100	0.766500	0.198890
C3381	C338	0.119900	0.796320	0.167270
C3391	C339	0.209700	0.806990	0.168310
H1691	H169	0.248500	0.796100	0.189800
C3401	C340	0.191600	0.852680	0.108300
C3411	C341	0.247000	0.833980	0.138030
H1701	H170	0.311900	0.839500	0.138000
C3421	C342	0.058800	0.814700	0.138220
H1711	H171	0.994600	0.807700	0.138200
C3431	C343	0.095700	0.844200	0.108800
H1721	H172	0.055700	0.858200	0.089700
C3441	C344	0.225200	0.882640	0.075860
C3451	C345	0.224800	0.869690	0.034530
C3461	C346	0.289900	0.977000	0.129790
H1731	H173	0.298100	0.995500	0.153000
C3471	C347	0.314600	0.985700	0.086990
C3481	C348	0.199800	0.827410	0.021390
H1741	H174	0.186000	0.803900	0.039000
C3491	C349	0.253300	0.938110	0.130190
H1751	H175	0.231000	0.923100	0.153900
C3501	C350	0.383100	0.057500	0.107000
C3511	C351	0.477300	0.063100	0.118500
H1761	H176	0.524400	0.045500	0.106800
C3521	C352	0.360100	0.024390	0.074700
C3531	C353	0.314300	0.082700	0.124000
H1771	H177	0.251400	0.078600	0.116000
C3541	C354	0.254000	0.923170	0.087920
C3551	C355	0.385800	0.031300	0.034500
C3561	C356	0.435600	0.070300	0.021900
H1781	H178	0.462300	0.091200	0.039700
C3571	C357	0.429800	0.120490	0.164020
C3581	C358	0.337000	0.113900	0.152600
H1791	H179	0.289400	0.130900	0.164600
C3591	C359	0.500300	0.095200	0.147600
H1801	H180	0.562900	0.099400	0.155800
C3601	C360	0.456500	0.154550	0.194700
N231	N23	0.291800	0.953970	0.061970
O571	O57	0.128200	0.747970	0.224680
O581	O58	0.990300	0.759200	0.197550
O591	O59	0.390800	0.176650	0.211150
O601	O60	0.540600	0.160320	0.203740
C3611	C361	0.576100	0.266500	0.198890
C3621	C362	0.619900	0.296320	0.167270
C3631	C363	0.709700	0.306990	0.168310
H1811	H181	0.748500	0.296100	0.189800
C3641	C364	0.691600	0.352680	0.108300
C3651	C365	0.747000	0.333980	0.138030
H1821	H182	0.811900	0.339500	0.138000
C3661	C366	0.558800	0.314700	0.138220
H1831	H183	0.494600	0.307700	0.138200
C3671	C367	0.595700	0.344200	0.108800
H1841	H184	0.555700	0.358200	0.089700
C3681	C368	0.725200	0.382640	0.075860
C3691	C369	0.724800	0.369690	0.034530
C3701	C370	0.789900	0.477000	0.129790
H1851	H185	0.798100	0.495500	0.153000
C3711	C371	0.814600	0.485700	0.086990
C3721	C372	0.699800	0.327410	0.021390
H1861	H186	0.686000	0.303900	0.039000
C3731	C373	0.753300	0.438110	0.130190
H1871	H187	0.731000	0.423100	0.153900
C3741	C374	0.883100	0.557500	0.107000
C3751	C375	0.977300	0.563100	0.118500
H1881	H188	0.024400	0.545500	0.106800
C3761	C376	0.860100	0.524390	0.074700
C3771	C377	0.814300	0.582700	0.124000
H1891	H189	0.751400	0.578600	0.116000
C3781	C378	0.754000	0.423170	0.087920
C3791	C379	0.885800	0.531300	0.034500
C3801	C380	0.935600	0.570300	0.021900
H1901	H190	0.962300	0.591200	0.039700
C3811	C381	0.929800	0.620490	0.164020
C3821	C382	0.837000	0.613900	0.152600
H1911	H191	0.789400	0.630900	0.164600
C3831	C383	0.000300	0.595200	0.147600
H1921	H192	0.062900	0.599400	0.155800
C3841	C384	0.956500	0.654550	0.194700
N241	N24	0.791800	0.453970	0.061970
O611	O61	0.628200	0.247970	0.224680
O621	O62	0.490300	0.259200	0.197550
O631	O63	0.890800	0.676650	0.211150
O641	O64	0.040600	0.660320	0.203740
In51	In5	0.000000	0.711740	0.250000
In61	In6	0.500000	0.211740	0.250000
In71	In7	0.000000	0.711740	0.750000
In81	In8	0.500000	0.211740	0.750000
Co51	Co5	0.711130	0.953960	0.500000
N251	N25	0.757800	0.896000	0.500000
N261	N26	0.641000	0.008400	0.500000
Co61	Co6	0.211130	0.453960	0.500000
N271	N27	0.257800	0.396000	0.500000
N281	N28	0.141000	0.508400	0.500000
Co71	Co7	0.288870	0.953960	0.000000
N291	N29	0.242200	0.896000	0.000000
N301	N30	0.359000	0.008400	0.000000
Co81	Co8	0.788870	0.453960	0.000000
N311	N31	0.742200	0.396000	0.000000
N321	N32	0.859000	0.508400	0.000000
