data_IYOBAA_clean_PM
_symmetry_space_group_name_H-M	'P1'
_cell_length_a	9.322800
_cell_length_b	19.264900
_cell_length_c	24.211000
_cell_angle_alpha	87.329800
_cell_angle_beta	78.899400
_cell_angle_gamma	75.997500
_symmetry_Int_Tables_number 1

loop_
_symmetry_equiv_pos_as_xyz
'x,y,z'

loop_
_atom_site_label
_atom_site_type_symbol
_atom_site_fract_x
_atom_site_fract_y
_atom_site_fract_z
Cu11	Cu1	0.591820	0.244950	0.541290
Cu21	Cu2	0.496750	0.098320	0.625860
Cu31	Cu3	0.353690	0.272020	0.676840
Cu41	Cu4	0.621940	0.744950	0.041290
Cu51	Cu5	0.779070	0.598320	0.125860
Cu61	Cu6	0.697450	0.772020	0.176840
H11	H1	0.820500	0.030100	0.200500
H21	H2	0.850900	0.131800	0.239000
H31	H3	0.175400	0.012700	0.313900
H41	H4	0.133400	0.911700	0.280100
H51	H5	0.738800	0.915900	0.213700
H61	H6	0.047300	0.739400	0.175800
H71	H7	0.382700	0.149700	0.506500
H81	H8	0.142300	0.106800	0.649000
H91	H9	0.990400	0.110600	0.577200
H101	H10	0.005500	0.065600	0.481600
H111	H11	0.249900	0.210500	0.433300
H121	H12	0.194700	0.210000	0.343600
H131	H13	0.913700	0.084700	0.400100
H141	H14	0.046900	0.477200	0.059800
H151	H15	0.792600	0.463600	0.207600
H161	H16	0.146800	0.360400	0.100800
H171	H17	0.851300	0.377900	0.274500
H181	H18	0.122600	0.261700	0.146500
H191	H19	0.151800	0.163000	0.204000
H201	H20	0.879800	0.277500	0.333500
H211	H21	0.172400	0.828100	0.197900
H221	H22	0.948900	0.530100	0.700500
H231	H23	0.778300	0.631800	0.739000
H241	H24	0.498000	0.512700	0.813900
H251	H25	0.674800	0.411700	0.780100
H261	H26	0.131600	0.415900	0.713700
H271	H27	0.037500	0.239400	0.675800
H281	H28	0.961100	0.649700	0.006500
H291	H29	0.101900	0.606800	0.149000
H301	H30	0.321800	0.610600	0.077200
H311	H31	0.447300	0.565600	0.981600
H321	H32	0.106300	0.710500	0.933300
H331	H33	0.251700	0.710000	0.843600
H341	H34	0.601500	0.584700	0.900100
H351	H35	0.416100	0.977200	0.559800
H361	H36	0.536200	0.963600	0.707600
H371	H37	0.392000	0.860400	0.600800
H381	H38	0.496300	0.877900	0.774500
H391	H39	0.469200	0.761700	0.646500
H401	H40	0.481200	0.663000	0.704000
H411	H41	0.509200	0.777500	0.833500
H421	H42	0.801600	0.328100	0.697900
W11	W1	0.635530	0.200620	0.642820
W21	W2	0.521030	0.700620	0.142820
C11	C1	0.007200	0.082700	0.283700
C21	C2	0.890600	0.026900	0.223700
C31	C3	0.907400	0.087300	0.247500
C41	C4	0.100160	0.016180	0.292900
C51	C5	0.979800	0.961700	0.235100
C61	C6	0.079500	0.956300	0.270900
C71	C7	0.831900	0.883400	0.206000
C81	C8	0.001000	0.786900	0.184900
C91	C9	0.304300	0.139000	0.532800
C101	C10	0.172300	0.115500	0.610900
C111	C11	0.087400	0.117600	0.571400
C121	C12	0.129100	0.138200	0.467000
C131	C13	0.036800	0.098200	0.455200
C141	C14	0.188100	0.182300	0.425500
C151	C15	0.151900	0.182900	0.371900
C161	C16	0.990300	0.105900	0.404900
C171	C17	0.053900	0.144300	0.359900
C181	C18	0.010900	0.209200	0.273000
C191	C19	0.008400	0.460300	0.094700
C201	C20	0.868460	0.452880	0.176000
C211	C21	0.063800	0.395200	0.117400
C221	C22	0.987100	0.330700	0.205300
C231	C23	0.912400	0.334500	0.260300
C241	C24	0.074000	0.265500	0.183900
C251	C25	0.088500	0.206100	0.218100
C261	C26	0.926300	0.274000	0.295800
C271	C27	0.070000	0.834800	0.198200
C281	C28	0.626400	0.582700	0.783700
C291	C29	0.858800	0.526900	0.723700
C301	C30	0.757800	0.587300	0.747500
C311	C31	0.590760	0.516180	0.792900
C321	C32	0.823400	0.461700	0.735100
C331	C33	0.693300	0.456300	0.770900
C341	C34	0.078700	0.383400	0.706000
C351	C35	0.027200	0.286900	0.684900
C361	C36	0.023900	0.639000	0.032800
C371	C37	0.101300	0.615500	0.110900
C381	C38	0.223600	0.617600	0.071400
C391	C39	0.265700	0.638200	0.967000
C401	C40	0.409800	0.598200	0.955200
C411	C41	0.204100	0.682300	0.925500
C421	C42	0.293300	0.682900	0.871900
C431	C43	0.498900	0.605900	0.904900
C441	C44	0.441900	0.644300	0.859900
C451	C45	0.506900	0.709200	0.773000
C461	C46	0.436600	0.960300	0.594700
C471	C47	0.502660	0.952880	0.676000
C481	C48	0.423600	0.895200	0.617400
C491	C49	0.476900	0.830700	0.705300
C501	C50	0.492800	0.834500	0.760300
C511	C51	0.476600	0.765500	0.683900
C521	C52	0.487300	0.706100	0.718100
C531	C53	0.503900	0.774000	0.795800
C541	C54	0.897000	0.334800	0.698200
S11	S1	0.689600	0.131240	0.565120
S21	S2	0.460670	0.162090	0.706610
S31	S3	0.535950	0.313880	0.618380
S41	S4	0.614040	0.631240	0.065120
S51	S5	0.670630	0.662090	0.206610
S61	S6	0.531790	0.813880	0.118380
Br11	Br1	0.554070	0.285710	0.454890
Br21	Br2	0.705330	0.785710	0.954890
N11	N1	0.309100	0.128600	0.586800
N21	N2	0.172740	0.132320	0.519600
N31	N3	0.017850	0.146300	0.307600
N41	N4	0.882100	0.497300	0.133700
N51	N5	0.974320	0.390260	0.169500
N61	N6	0.855150	0.816900	0.186600
N71	N7	0.959630	0.896240	0.212300
N81	N8	0.975500	0.628600	0.086800
N91	N9	0.175340	0.632320	0.019600
N101	N10	0.528250	0.646300	0.807600
N111	N11	0.486900	0.997300	0.633700
N121	N12	0.465920	0.890260	0.669500
N131	N13	0.141350	0.316900	0.686600
N141	N14	0.931830	0.396240	0.712300
Cu71	Cu7	0.378060	0.255050	0.958710
Cu81	Cu8	0.220930	0.401680	0.874140
Cu91	Cu9	0.302550	0.227980	0.823160
Cu101	Cu10	0.408180	0.755050	0.458710
Cu111	Cu11	0.503250	0.901680	0.374140
Cu121	Cu12	0.646310	0.727980	0.323160
H431	H43	0.051100	0.469900	0.299500
H441	H44	0.221700	0.368200	0.261000
H451	H45	0.502000	0.487300	0.186100
H461	H46	0.325200	0.588300	0.219900
H471	H47	0.868400	0.584100	0.286300
H481	H48	0.962500	0.760600	0.324200
H491	H49	0.038900	0.350300	0.993500
H501	H50	0.898100	0.393200	0.851000
H511	H51	0.678200	0.389400	0.922800
H521	H52	0.552700	0.434400	0.018400
H531	H53	0.893700	0.289500	0.066700
H541	H54	0.748300	0.290000	0.156400
H551	H55	0.398500	0.415300	0.099900
H561	H56	0.583900	0.022800	0.440200
H571	H57	0.463800	0.036400	0.292400
H581	H58	0.608000	0.139600	0.399200
H591	H59	0.503700	0.122100	0.225500
H601	H60	0.530800	0.238300	0.353500
H611	H61	0.518800	0.337000	0.296000
H621	H62	0.490800	0.222500	0.166500
H631	H63	0.198400	0.671900	0.302100
H641	H64	0.179500	0.969900	0.799500
H651	H65	0.149100	0.868200	0.761000
H661	H66	0.824600	0.987300	0.686100
H671	H67	0.866600	0.088300	0.719900
H681	H68	0.261200	0.084100	0.786300
H691	H69	0.952700	0.260600	0.824200
H701	H70	0.617300	0.850300	0.493500
H711	H71	0.857700	0.893200	0.351000
H721	H72	0.009600	0.889400	0.422800
H731	H73	0.994500	0.934400	0.518400
H741	H74	0.750100	0.789500	0.566700
H751	H75	0.805300	0.790000	0.656400
H761	H76	0.086300	0.915300	0.599900
H771	H77	0.953100	0.522800	0.940200
H781	H78	0.207400	0.536400	0.792400
H791	H79	0.853200	0.639600	0.899200
H801	H80	0.148700	0.622100	0.725500
H811	H81	0.877400	0.738300	0.853500
H821	H82	0.848200	0.837000	0.796000
H831	H83	0.120200	0.722500	0.666500
H841	H84	0.827600	0.171900	0.802100
W31	W3	0.478970	0.299380	0.857180
W41	W4	0.364470	0.799380	0.357180
C551	C55	0.373600	0.417300	0.216300
C561	C56	0.141200	0.473100	0.276300
C571	C57	0.242200	0.412700	0.252500
C581	C58	0.409240	0.483820	0.207100
C591	C59	0.176600	0.538300	0.264900
C601	C60	0.306700	0.543700	0.229100
C611	C61	0.921300	0.616600	0.294000
C621	C62	0.972800	0.713100	0.315100
C631	C63	0.976100	0.361000	0.967200
C641	C64	0.898700	0.384500	0.889100
C651	C65	0.776400	0.382400	0.928600
C661	C66	0.734300	0.361800	0.033000
C671	C67	0.590200	0.401800	0.044800
C681	C68	0.795900	0.317700	0.074500
C691	C69	0.706700	0.317100	0.128100
C701	C70	0.501100	0.394100	0.095100
C711	C71	0.558100	0.355700	0.140100
C721	C72	0.493100	0.290800	0.227000
C731	C73	0.563400	0.039700	0.405300
C741	C74	0.497340	0.047120	0.324000
C751	C75	0.576400	0.104800	0.382600
C761	C76	0.523100	0.169300	0.294700
C771	C77	0.507200	0.165500	0.239700
C781	C78	0.523400	0.234500	0.316100
C791	C79	0.512700	0.293900	0.281900
C801	C80	0.496100	0.226000	0.204200
C811	C81	0.103000	0.665200	0.301800
C821	C82	0.992800	0.917300	0.716300
C831	C83	0.109400	0.973100	0.776300
C841	C84	0.092600	0.912700	0.752500
C851	C85	0.899840	0.983820	0.707100
C861	C86	0.020200	0.038300	0.764900
C871	C87	0.920500	0.043700	0.729100
C881	C88	0.168100	0.116600	0.794000
C891	C89	0.999000	0.213100	0.815100
C901	C90	0.695700	0.861000	0.467200
C911	C91	0.827700	0.884500	0.389100
C921	C92	0.912600	0.882400	0.428600
C931	C93	0.870900	0.861800	0.533000
C941	C94	0.963200	0.901800	0.544800
C951	C95	0.811900	0.817700	0.574500
C961	C96	0.848100	0.817100	0.628100
C971	C97	0.009700	0.894100	0.595100
C981	C98	0.946100	0.855700	0.640100
C991	C99	0.989100	0.790800	0.727000
C1001	C100	0.991600	0.539700	0.905300
C1011	C101	0.131540	0.547120	0.824000
C1021	C102	0.936200	0.604800	0.882600
C1031	C103	0.012900	0.669300	0.794700
C1041	C104	0.087600	0.665500	0.739700
C1051	C105	0.926000	0.734500	0.816100
C1061	C106	0.911500	0.793900	0.781900
C1071	C107	0.073700	0.726000	0.704200
C1081	C108	0.930000	0.165200	0.801800
S71	S7	0.385960	0.368760	0.934880
S81	S8	0.329370	0.337910	0.793390
S91	S9	0.468210	0.186120	0.881620
S101	S10	0.310400	0.868760	0.434880
S111	S11	0.539330	0.837910	0.293390
S121	S12	0.464050	0.686120	0.381620
Br31	Br3	0.294670	0.214290	0.045110
Br41	Br4	0.445930	0.714290	0.545110
N151	N15	0.024500	0.371400	0.913200
N161	N16	0.824660	0.367680	0.980400
N171	N17	0.471750	0.353700	0.192400
N181	N18	0.513100	0.002700	0.366300
N191	N19	0.534080	0.109740	0.330500
N201	N20	0.858650	0.683100	0.313400
N211	N21	0.068170	0.603760	0.287700
N221	N22	0.690900	0.871400	0.413200
N231	N23	0.827260	0.867680	0.480400
N241	N24	0.982150	0.853700	0.692400
N251	N25	0.117900	0.502700	0.866300
N261	N26	0.025680	0.609740	0.830500
N271	N27	0.144850	0.183100	0.813400
N281	N28	0.040370	0.103760	0.787700
