data_IYOQAQ_clean_PM
_symmetry_space_group_name_H-M	'P1'
_cell_length_a	10.397300
_cell_length_b	23.431000
_cell_length_c	6.927000
_cell_angle_alpha	90.000000
_cell_angle_beta	90.000000
_cell_angle_gamma	90.000000
_symmetry_Int_Tables_number 1

loop_
_symmetry_equiv_pos_as_xyz
'x,y,z'

loop_
_atom_site_label
_atom_site_type_symbol
_atom_site_fract_x
_atom_site_fract_y
_atom_site_fract_z
Zn11	Zn1	0.500000	0.365960	0.250000
O11	O1	0.500000	0.451700	0.250000
Zn21	Zn2	0.000000	0.865960	0.250000
O21	O2	0.000000	0.951700	0.250000
Zn31	Zn3	0.500000	0.634040	0.750000
O31	O3	0.500000	0.548300	0.750000
Zn41	Zn4	0.000000	0.134040	0.750000
O41	O4	0.000000	0.048300	0.750000
Zn51	Zn5	0.500000	0.500000	0.000000
Zn61	Zn6	0.000000	0.000000	0.000000
Zn71	Zn7	0.500000	0.500000	0.500000
Zn81	Zn8	0.000000	0.000000	0.500000
O51	O5	0.342600	0.319700	0.250000
O61	O6	0.236900	0.400700	0.250000
C11	C1	0.116000	0.255900	0.250000
H11	H1	0.193400	0.236100	0.250000
C21	C2	0.115700	0.315400	0.250000
C31	C3	0.240800	0.348700	0.250000
O71	O7	0.842600	0.819700	0.250000
O81	O8	0.736900	0.900700	0.250000
C41	C4	0.616000	0.755900	0.250000
H21	H2	0.693400	0.736100	0.250000
C51	C5	0.615700	0.815400	0.250000
C61	C6	0.740800	0.848700	0.250000
O91	O9	0.657400	0.680300	0.750000
O101	O10	0.763100	0.599300	0.750000
C71	C7	0.884000	0.744100	0.750000
H31	H3	0.806600	0.763900	0.750000
C81	C8	0.884300	0.684600	0.750000
C91	C9	0.759200	0.651300	0.750000
O111	O11	0.157400	0.180300	0.750000
O121	O12	0.263100	0.099300	0.750000
C101	C10	0.384000	0.244100	0.750000
H41	H4	0.306600	0.263900	0.750000
C111	C11	0.384300	0.184600	0.750000
C121	C12	0.259200	0.151300	0.750000
O131	O13	0.657400	0.319700	0.250000
O141	O14	0.763100	0.400700	0.250000
C131	C13	0.884000	0.255900	0.250000
H51	H5	0.806600	0.236100	0.250000
C141	C14	0.884300	0.315400	0.250000
C151	C15	0.759200	0.348700	0.250000
O151	O15	0.157400	0.819700	0.250000
O161	O16	0.263100	0.900700	0.250000
C161	C16	0.384000	0.755900	0.250000
H61	H6	0.306600	0.736100	0.250000
C171	C17	0.384300	0.815400	0.250000
C181	C18	0.259200	0.848700	0.250000
O171	O17	0.342600	0.680300	0.750000
O181	O18	0.236900	0.599300	0.750000
C191	C19	0.116000	0.744100	0.750000
H71	H7	0.193400	0.763900	0.750000
C201	C20	0.115700	0.684600	0.750000
C211	C21	0.240800	0.651300	0.750000
O191	O19	0.842600	0.180300	0.750000
O201	O20	0.736900	0.099300	0.750000
C221	C22	0.616000	0.244100	0.750000
H81	H8	0.693400	0.263900	0.750000
C231	C23	0.615700	0.184600	0.750000
C241	C24	0.740800	0.151300	0.750000
N11	N1	0.000000	0.130730	0.409200
N21	N2	0.000000	0.077000	0.342000
N31	N3	0.500000	0.630730	0.409200
N41	N4	0.500000	0.577000	0.342000
N51	N5	0.000000	0.869270	0.909200
N61	N6	0.000000	0.923000	0.842000
N71	N7	0.500000	0.369270	0.909200
N81	N8	0.500000	0.423000	0.842000
N91	N9	0.000000	0.130730	0.090800
N101	N10	0.000000	0.077000	0.158000
N111	N11	0.500000	0.630730	0.090800
N121	N12	0.500000	0.577000	0.158000
N131	N13	0.000000	0.869270	0.590800
N141	N14	0.000000	0.923000	0.658000
N151	N15	0.500000	0.369270	0.590800
N161	N16	0.500000	0.423000	0.658000
C251	C25	0.000000	0.162300	0.250000
C261	C26	0.000000	0.226400	0.250000
C271	C27	0.000000	0.345300	0.250000
H91	H9	0.000000	0.385000	0.250000
C281	C28	0.500000	0.662300	0.250000
C291	C29	0.500000	0.726400	0.250000
C301	C30	0.500000	0.845300	0.250000
H101	H10	0.500000	0.885000	0.250000
C311	C31	0.000000	0.837700	0.750000
C321	C32	0.000000	0.773600	0.750000
C331	C33	0.000000	0.654700	0.750000
H111	H11	0.000000	0.615000	0.750000
C341	C34	0.500000	0.337700	0.750000
C351	C35	0.500000	0.273600	0.750000
C361	C36	0.500000	0.154700	0.750000
H121	H12	0.500000	0.115000	0.750000
