data_IYUHUG_ion_b_PM
_symmetry_space_group_name_H-M	'P1'
_cell_length_a	22.138600
_cell_length_b	22.138600
_cell_length_c	36.265100
_cell_angle_alpha	90.000000
_cell_angle_beta	90.000000
_cell_angle_gamma	90.000000
_symmetry_Int_Tables_number 1

loop_
_symmetry_equiv_pos_as_xyz
'x,y,z'

loop_
_atom_site_label
_atom_site_type_symbol
_atom_site_fract_x
_atom_site_fract_y
_atom_site_fract_z
In11	In1	0.216490	0.503440	0.654040
In21	In2	0.156620	0.500440	0.738290
In31	In3	0.808310	0.982840	0.521890
O41	O4	0.303600	0.943360	0.978040
O51	O5	0.203150	0.954560	0.982170
O61	O6	0.180530	0.567940	0.770790
O71	O7	0.277960	0.585590	0.757780
O81	O8	0.149700	0.564490	0.654650
O91	O9	0.108460	0.560120	0.711180
O101	O10	0.779550	0.934890	0.609490
O111	O11	0.841670	0.931150	0.560700
O121	O12	0.156050	0.435410	0.654230
O131	O13	0.116060	0.433130	0.710940
O141	O14	0.778550	0.061650	0.601320
O151	O15	0.840160	0.051630	0.552330
O161	O16	0.884690	0.961240	0.494400
O171	O17	0.087100	0.501670	0.771940
O181	O18	0.044220	0.411030	0.796620
O191	O19	0.226090	0.517590	0.706820
O201	O20	0.202650	0.508970	0.600130
N211	N21	0.215450	0.662940	0.493100
C221	C22	0.110520	0.581790	0.678630
C231	C23	0.064750	0.628710	0.668610
C241	C24	0.048250	0.637660	0.631710
H251	H25	0.068190	0.610290	0.610240
C261	C26	0.005790	0.681800	0.622020
H271	H27	0.994420	0.687330	0.593180
C281	C28	0.978720	0.718890	0.648950
C291	C29	0.993070	0.708230	0.686160
H301	H30	0.972890	0.735600	0.707660
C311	C31	0.035610	0.663670	0.695890
H321	H32	0.046570	0.657520	0.724760
C331	C33	0.826750	0.914440	0.593150
C341	C34	0.956730	0.804950	0.606600
H351	H35	0.998090	0.794960	0.592040
C361	C36	0.921170	0.852430	0.593930
H371	H37	0.936690	0.876790	0.570130
C381	C38	0.866340	0.867730	0.611030
C391	C39	0.849710	0.835170	0.642920
H401	H40	0.808030	0.845490	0.657100
C411	C41	0.886240	0.787350	0.656090
H421	H42	0.871930	0.762310	0.680200
C431	C43	0.939700	0.770860	0.637410
C441	C44	0.228780	0.599320	0.774200
C451	C45	0.227560	0.653750	0.798540
C461	C46	0.276560	0.694120	0.798930
H471	H47	0.315040	0.686760	0.781220
C481	C48	0.277860	0.743300	0.823190
H491	H49	0.316850	0.772840	0.822500
C501	C50	0.230610	0.753100	0.848490
C511	C51	0.180520	0.713790	0.847250
H521	H52	0.143350	0.719320	0.866340
C531	C53	0.178820	0.665140	0.822400
H541	H54	0.139930	0.635460	0.822710
C551	C55	0.235170	0.801590	0.877330
C561	C56	0.183510	0.831780	0.890730
H571	H57	0.139620	0.823090	0.878670
C581	C58	0.187760	0.873770	0.919780
H591	H59	0.147270	0.896610	0.928940
C601	C60	0.243730	0.886130	0.936560
C611	C61	0.295350	0.857100	0.922380
H621	H62	0.339490	0.865790	0.934080
C631	C63	0.291340	0.816200	0.893100
H641	H64	0.332480	0.794890	0.883620
C651	C65	0.250080	0.930480	0.967570
C661	C66	0.118560	0.413270	0.677780
C671	C67	0.075110	0.363470	0.665630
C681	C68	0.073750	0.344270	0.628720
H691	H69	0.104370	0.364370	0.608960
C701	C70	0.032790	0.299960	0.616190
H711	H71	0.034820	0.289540	0.587240
C721	C72	0.990790	0.271010	0.639880
C731	C73	0.991910	0.290920	0.677250
H741	H74	0.961530	0.271870	0.697420
C751	C75	0.032740	0.336300	0.689740
H761	H76	0.030760	0.350170	0.718400
C771	C77	0.947100	0.221430	0.625460
C781	C78	0.951010	0.198410	0.588910
H791	H79	0.985030	0.213930	0.569900
C801	C80	0.911380	0.153590	0.575340
H811	H81	0.916680	0.138680	0.547080
C821	C82	0.865840	0.128080	0.597460
C831	C83	0.861420	0.149910	0.633950
H841	H84	0.827920	0.131000	0.652400
C851	C85	0.900630	0.195720	0.647530
H861	H86	0.893710	0.210390	0.675600
C871	C87	0.825530	0.077690	0.582790
C881	C88	0.065610	0.456300	0.784240
C891	C89	0.273830	0.641580	0.506920
In901	In90	0.783770	0.497030	0.154000
In911	In91	0.843060	0.499530	0.238200
In921	In92	0.191500	0.016560	0.021540
O931	O93	0.696090	0.057030	0.478560
O941	O94	0.796560	0.044930	0.482560
O951	O95	0.820160	0.432280	0.271060
O961	O96	0.722700	0.414160	0.257280
O971	O97	0.851200	0.436520	0.154090
O981	O98	0.890890	0.439580	0.211040
O991	O99	0.220610	0.065190	0.108840
O1001	O100	0.157860	0.067990	0.060280
O1011	O101	0.844960	0.564450	0.154240
O1021	O102	0.883980	0.566930	0.211100
O1031	O103	0.221400	0.937740	0.100830
O1041	O104	0.159590	0.947880	0.051890
O1051	O105	0.114890	0.038110	0.994150
O1061	O106	0.912510	0.498870	0.271900
O1071	O107	0.954620	0.589930	0.296530
O1081	O108	0.773060	0.482900	0.206810
O1091	O109	0.792990	0.492660	0.099690
N1101	N110	0.781360	0.336290	0.992700
C1111	C111	0.889700	0.418560	0.178300
C1121	C112	0.935580	0.371560	0.168310
C1131	C113	0.951910	0.362390	0.131380
H1141	H114	0.931890	0.389550	0.109870
C1151	C115	0.994100	0.318010	0.121690
H1161	H116	0.005200	0.312190	0.092830
C1171	C117	0.021120	0.280860	0.148570
C1181	C118	0.006900	0.291560	0.185810
H1191	H119	0.026880	0.263930	0.207230
C1201	C120	0.964590	0.336350	0.195580
H1211	H121	0.953590	0.342370	0.224450
C1221	C122	0.173060	0.085190	0.092590
C1231	C123	0.042690	0.194560	0.106180
H1241	H124	0.001170	0.204400	0.091820
C1251	C125	0.078330	0.147140	0.093450
H1261	H126	0.062610	0.122530	0.069770
C1271	C127	0.133390	0.132030	0.110430
C1281	C128	0.150130	0.164800	0.142160
H1291	H129	0.191880	0.154640	0.156100
C1301	C130	0.113590	0.212470	0.155420
H1311	H131	0.128030	0.237580	0.179480
C1321	C132	0.059920	0.228800	0.136900
C1331	C133	0.772020	0.400680	0.274090
C1341	C134	0.772570	0.346220	0.298610
C1351	C135	0.723430	0.305920	0.299160
H1361	H136	0.685020	0.313010	0.281320
C1371	C137	0.722010	0.256880	0.323610
H1381	H138	0.683080	0.227240	0.323050
C1391	C139	0.769320	0.247080	0.348900
C1401	C140	0.819490	0.286230	0.347480
H1411	H141	0.856820	0.280540	0.366440
C1421	C142	0.821250	0.334800	0.322560
H1431	H143	0.860200	0.364280	0.322700
C1441	C144	0.764800	0.198730	0.377910
C1451	C145	0.816370	0.168170	0.391150
H1461	H146	0.860130	0.176370	0.378840
C1471	C147	0.812110	0.126390	0.420310
H1481	H148	0.852530	0.103330	0.429410
C1491	C149	0.756180	0.114340	0.437260
C1501	C150	0.704640	0.143770	0.423280
H1511	H151	0.660500	0.135050	0.434870
C1521	C152	0.708700	0.184620	0.393960
H1531	H153	0.667650	0.206200	0.384570
C1541	C154	0.749720	0.069600	0.468110
C1551	C155	0.882060	0.586660	0.177920
C1561	C156	0.925540	0.636400	0.165860
C1571	C157	0.926600	0.655790	0.129000
H1581	H158	0.895840	0.635890	0.109270
C1591	C159	0.967360	0.700160	0.116450
H1601	H160	0.965130	0.710530	0.087500
C1611	C161	0.009420	0.729120	0.140090
C1621	C162	0.008510	0.709180	0.177470
H1631	H163	0.038960	0.728240	0.197620
C1641	C164	0.967870	0.663610	0.189950
H1651	H165	0.969860	0.649690	0.218590
C1661	C166	0.052890	0.778680	0.125500
C1671	C167	0.048670	0.801490	0.088930
H1681	H168	0.014520	0.785940	0.070050
C1691	C169	0.088170	0.846190	0.075150
H1701	H170	0.082490	0.861170	0.046920
C1711	C171	0.133970	0.871670	0.097100
C1721	C172	0.138490	0.850260	0.133680
H1731	H173	0.171880	0.869570	0.152010
C1741	C174	0.099390	0.804590	0.147460
H1751	H175	0.106360	0.790200	0.175560
C1761	C176	0.174380	0.921800	0.082330
C1771	C177	0.933640	0.544450	0.284200
C1781	C178	0.725850	0.360150	0.009120
In1791	In179	0.997580	0.716050	0.404030
In1801	In180	0.999630	0.656750	0.488320
In1811	In181	0.516950	0.308750	0.271690
O1821	O182	0.556710	0.803580	0.728040
O1831	O183	0.545750	0.703100	0.732450
O1841	O184	0.932470	0.679910	0.521060
O1851	O185	0.914150	0.777030	0.507160
O1861	O186	0.937100	0.648720	0.404230
O1871	O187	0.939610	0.609000	0.461260
O1881	O188	0.566280	0.279330	0.359070
O1891	O189	0.567520	0.342830	0.310850
O1901	O190	0.064900	0.655000	0.404330
O1911	O191	0.067140	0.615740	0.461110
O1921	O192	0.438770	0.278820	0.351040
O1931	O193	0.448090	0.340290	0.301960
O1941	O194	0.538330	0.385010	0.244190
O1951	O195	0.998840	0.587150	0.521870
O1961	O196	0.089730	0.544890	0.546830
O1971	O197	0.983290	0.726400	0.456810
O1981	O198	0.993910	0.704460	0.349910
N1991	N199	0.842360	0.718690	0.243120
C2001	C200	0.918860	0.610310	0.428440
C2011	C201	0.871770	0.564730	0.418420
C2021	C202	0.862570	0.548500	0.381480
H2031	H203	0.889660	0.568770	0.359960
C2041	C204	0.818290	0.506220	0.371770
H2051	H205	0.812640	0.494980	0.342920
C2061	C206	0.781160	0.479230	0.398670
C2071	C207	0.791810	0.493510	0.435900
H2081	H208	0.764270	0.473470	0.457370
C2091	C209	0.836500	0.535870	0.445670
H2101	H210	0.842360	0.547080	0.474520
C2111	C211	0.585380	0.327400	0.343010
C2121	C212	0.694750	0.457690	0.356460
H2131	H213	0.704700	0.499130	0.341980
C2141	C214	0.647050	0.422280	0.343900
H2151	H215	0.622300	0.438100	0.320270
C2161	C216	0.632060	0.367230	0.360850
C2171	C217	0.664960	0.350370	0.392490
H2181	H218	0.654810	0.308560	0.406380
C2191	C219	0.712810	0.386760	0.405650
H2201	H220	0.738090	0.372190	0.429630
C2211	C221	0.729140	0.440410	0.387110
C2221	C222	0.900780	0.727910	0.524020
C2231	C223	0.846310	0.727210	0.548460
C2241	C224	0.805990	0.776240	0.548930
H2251	H225	0.813170	0.814660	0.531140
C2261	C226	0.756940	0.777680	0.573340
H2271	H227	0.727360	0.816660	0.572730
C2281	C228	0.747200	0.730420	0.598690
C2291	C229	0.786380	0.680290	0.597370
H2301	H230	0.780770	0.643140	0.616430
C2311	C231	0.834910	0.678480	0.572460
H2321	H232	0.864450	0.639560	0.572680
C2331	C233	0.698830	0.735070	0.627650
C2341	C234	0.668580	0.683430	0.641040
H2351	H235	0.677020	0.639570	0.628870
C2361	C236	0.626730	0.687660	0.670150
H2371	H237	0.603890	0.647250	0.679340
C2381	C238	0.614410	0.743610	0.686910
C2391	C239	0.643490	0.795270	0.672740
H2401	H240	0.634470	0.839510	0.684170
C2411	C241	0.684420	0.791240	0.643480
H2421	H242	0.705690	0.832310	0.633960
C2431	C243	0.569800	0.750040	0.717790
C2441	C244	0.087010	0.617820	0.427960
C2451	C245	0.136760	0.574480	0.415900
C2461	C246	0.156220	0.573340	0.379050
H2471	H247	0.136320	0.604120	0.359280
C2481	C248	0.200520	0.532400	0.366540
H2491	H249	0.210890	0.534550	0.337590
C2501	C250	0.229330	0.490290	0.390220
C2511	C251	0.209290	0.491370	0.427580
H2521	H252	0.228210	0.460860	0.447750
C2531	C253	0.163830	0.532200	0.440030
H2541	H254	0.149760	0.530340	0.468640
C2551	C255	0.278840	0.446630	0.375730
C2561	C256	0.301620	0.450710	0.339140
H2571	H257	0.286090	0.484820	0.320230
C2581	C258	0.346300	0.411240	0.325360
H2591	H259	0.361170	0.416810	0.297090
C2601	C260	0.371990	0.365630	0.347310
C2611	C261	0.350500	0.360950	0.383850
H2621	H262	0.369780	0.327410	0.402120
C2631	C263	0.304760	0.400040	0.397690
H2641	H264	0.290370	0.393030	0.425800
C2651	C265	0.422340	0.325560	0.332470
C2661	C266	0.044390	0.565960	0.534330
C2671	C267	0.861400	0.776730	0.258540
In2681	In268	0.003800	0.283670	0.903620
In2691	In269	0.001240	0.342980	0.988000
In2701	In270	0.483440	0.691250	0.771630
O2711	O271	0.443100	0.195890	0.228820
O2721	O272	0.454820	0.296420	0.232550
O2731	O273	0.067590	0.318900	0.021350
O2741	O274	0.086720	0.222230	0.006940
O2751	O275	0.064560	0.350940	0.903650
O2761	O276	0.061370	0.390360	0.960650
O2771	O277	0.435350	0.721100	0.859100
O2781	O278	0.432100	0.658240	0.810550
O2791	O279	0.936680	0.345040	0.904110
O2801	O280	0.933390	0.383670	0.961130
O2811	O281	0.562830	0.721680	0.850870
O2821	O282	0.552080	0.659550	0.802230
O2831	O283	0.461630	0.614220	0.744570
O2841	O284	0.003980	0.413180	0.021140
O2851	O285	0.915110	0.456950	0.047540
O2861	O286	0.017020	0.273150	0.956510
O2871	O287	0.003580	0.293040	0.849160
N2881	N288	0.168580	0.281360	0.743910
C2891	C289	0.082420	0.389350	0.927920
C2901	C290	0.129200	0.435480	0.918040
C2911	C291	0.138230	0.452230	0.881160
H2921	H292	0.111150	0.432250	0.859590
C2931	C293	0.182330	0.494790	0.871620
H2941	H294	0.188110	0.506180	0.842800
C2951	C295	0.219320	0.521750	0.898620
C2961	C296	0.208620	0.507260	0.935800
H2971	H297	0.236070	0.527310	0.957300
C2981	C298	0.164100	0.464610	0.945400
H2991	H299	0.158060	0.453440	0.974240
C3001	C300	0.415110	0.673580	0.842900
C3011	C301	0.305740	0.543250	0.856460
H3021	H302	0.295830	0.501780	0.842050
C3031	C303	0.353280	0.578790	0.843850
H3041	H304	0.378010	0.562910	0.820260
C3051	C305	0.368290	0.633940	0.860790
C3061	C306	0.335450	0.650770	0.892460
H3071	H307	0.345590	0.692610	0.906310
C3081	C308	0.287760	0.614180	0.905690
H3091	H309	0.262600	0.628550	0.929760
C3101	C310	0.271440	0.560540	0.887110
C3111	C311	0.099710	0.271050	0.024140
C3121	C312	0.154060	0.271870	0.048800
C3131	C313	0.194580	0.222910	0.049320
H3141	H314	0.187530	0.184490	0.031550
C3151	C315	0.243590	0.221630	0.073790
H3161	H316	0.273290	0.182710	0.073280
C3171	C317	0.253220	0.268910	0.099100
C3181	C318	0.214000	0.319030	0.097690
H3191	H319	0.219670	0.356350	0.116630
C3201	C320	0.165330	0.320550	0.072800
H3211	H321	0.135620	0.359390	0.073050
C3221	C322	0.301340	0.264260	0.128190
C3231	C323	0.332230	0.315740	0.141210
H3241	H324	0.324420	0.359410	0.128670
C3251	C325	0.373890	0.311520	0.170410
H3261	H326	0.397320	0.351840	0.179300
C3271	C327	0.385470	0.255710	0.187610
C3281	C328	0.355650	0.204170	0.173890
H3291	H329	0.363870	0.160100	0.185820
C3301	C330	0.314870	0.208230	0.144510
H3311	H331	0.292990	0.167300	0.135270
C3321	C332	0.430250	0.249400	0.218340
C3331	C333	0.913920	0.381710	0.927880
C3341	C334	0.863890	0.424840	0.915820
C3351	C335	0.844500	0.425950	0.878930
H3361	H336	0.864420	0.395180	0.859190
C3371	C337	0.800130	0.466800	0.866370
H3381	H338	0.789710	0.464650	0.837430
C3391	C339	0.771180	0.508830	0.890050
C3401	C340	0.791030	0.507690	0.927430
H3411	H341	0.771910	0.538060	0.947620
C3421	C342	0.836480	0.466930	0.939940
H3431	H343	0.850190	0.468750	0.968620
C3441	C344	0.721580	0.552450	0.875610
C3451	C345	0.698630	0.548440	0.839050
H3461	H346	0.714210	0.514420	0.820090
C3471	C347	0.653870	0.588060	0.825420
H3481	H348	0.638750	0.582450	0.797210
C3491	C349	0.628500	0.633790	0.847400
C3501	C350	0.650040	0.638130	0.884010
H3511	H351	0.630770	0.671360	0.902480
C3521	C352	0.695740	0.598890	0.897660
H3531	H353	0.710310	0.605750	0.925750
C3541	C354	0.578430	0.674430	0.832600
C3551	C355	0.959480	0.435090	0.034290
C3561	C356	0.141630	0.226110	0.758600
In3571	In357	0.283500	0.003290	0.095670
In3581	In358	0.343150	0.000660	0.011490
In3591	In359	0.691890	0.483330	0.227960
O3601	O360	0.196050	0.442570	0.771270
O3611	O361	0.296470	0.454490	0.767260
O3621	O362	0.320190	0.068800	0.979370
O3631	O363	0.222500	0.085840	0.992370
O3641	O364	0.350820	0.063970	0.095610
O3651	O365	0.390900	0.060510	0.038750
O3661	O366	0.721010	0.435300	0.140390
O3671	O367	0.658110	0.431840	0.188860
O3681	O368	0.345270	0.936390	0.095860
O3691	O369	0.384270	0.933630	0.038990
O3701	O370	0.721660	0.562420	0.148720
O3711	O371	0.660040	0.552250	0.197870
O3721	O372	0.614690	0.461460	0.255220
O3731	O373	0.412770	0.000980	0.977940
O3741	O374	0.454880	0.909750	0.953510
O3751	O375	0.273150	0.016350	0.042830
O3761	O376	0.291830	0.007870	0.150000
N3771	N377	0.281880	0.168030	0.262250
C3781	C378	0.389530	0.081690	0.071450
C3791	C379	0.435530	0.128580	0.081390
C3801	C380	0.452200	0.137710	0.118270
H3811	H381	0.432250	0.110620	0.139850
C3821	C382	0.494680	0.181920	0.127820
H3831	H383	0.506030	0.187670	0.156650
C3841	C384	0.521620	0.218990	0.100840
C3851	C385	0.507090	0.208230	0.063650
H3861	H386	0.527040	0.235660	0.042130
C3871	C387	0.464500	0.163620	0.054040
H3881	H388	0.453260	0.157590	0.025210
C3891	C389	0.673510	0.414970	0.156550
C3901	C390	0.543840	0.304890	0.143380
H3911	H391	0.502720	0.294670	0.158090
C3921	C392	0.579450	0.352360	0.155990
H3931	H393	0.564060	0.376490	0.179920
C3941	C394	0.634030	0.368070	0.138640
C3951	C395	0.650300	0.335830	0.106590
H3961	H396	0.691580	0.346530	0.092180
C3971	C397	0.613670	0.288060	0.093450
H3981	H398	0.627610	0.263390	0.069110
C3991	C399	0.560540	0.271100	0.112380
C4001	C400	0.271770	0.099880	0.975980
C4011	C401	0.272440	0.154230	0.951480
C4021	C402	0.223140	0.194320	0.950730
H4031	H403	0.184680	0.187180	0.968510
C4041	C404	0.221640	0.243090	0.926110
H4051	H405	0.182580	0.272600	0.926450
C4061	C406	0.269000	0.252780	0.900890
C4071	C407	0.319310	0.213860	0.902460
H4081	H408	0.356620	0.219510	0.883480
C4091	C409	0.321150	0.165530	0.927520
H4101	H410	0.360150	0.136070	0.927430
C4111	C411	0.264480	0.300850	0.871820
C4121	C412	0.315940	0.332110	0.859090
H4131	H413	0.359480	0.324530	0.871860
C4141	C414	0.311850	0.373770	0.829870
H4151	H415	0.352210	0.397300	0.821110
C4161	C416	0.256080	0.385210	0.812540
C4171	C417	0.204610	0.355130	0.826080
H4181	H418	0.160640	0.363160	0.814010
C4191	C419	0.208590	0.314060	0.855250
H4201	H420	0.167720	0.291660	0.864160
C4211	C421	0.249640	0.429900	0.781720
C4221	C422	0.382590	0.914270	0.072270
C4231	C423	0.426400	0.864830	0.084490
C4241	C424	0.426550	0.844480	0.121180
H4251	H425	0.395160	0.863770	0.140760
C4261	C426	0.467110	0.799840	0.133720
H4271	H427	0.464130	0.788660	0.162540
C4281	C428	0.509800	0.771510	0.110220
C4291	C429	0.509950	0.792580	0.073080
H4301	H430	0.540900	0.774080	0.053010
C4311	C431	0.469790	0.838610	0.060680
H4321	H432	0.472950	0.853550	0.032280
C4331	C433	0.553020	0.721600	0.124660
C4341	C434	0.548810	0.698530	0.161190
H4351	H435	0.514740	0.714040	0.180140
C4361	C436	0.588330	0.653670	0.174810
H4371	H437	0.582710	0.638500	0.203020
C4381	C438	0.634110	0.628370	0.152760
C4391	C439	0.638440	0.649890	0.116210
H4401	H440	0.671720	0.630620	0.097800
C4411	C441	0.599340	0.695640	0.102580
H4421	H442	0.606190	0.709970	0.074470
C4431	C443	0.674740	0.578340	0.167420
C4441	C444	0.433900	0.955300	0.965750
C4451	C445	0.228590	0.141600	0.244840
In4461	In446	0.716240	0.996140	0.595920
In4471	In447	0.656550	0.999290	0.511640
In4481	In448	0.308180	0.516890	0.727960
O4491	O449	0.803350	0.557450	0.271060
O4501	O450	0.702930	0.545470	0.267140
O4511	O451	0.679830	0.931420	0.479330
O4521	O452	0.777200	0.913780	0.492680
O4531	O453	0.649720	0.934820	0.595210
O4541	O454	0.608440	0.939540	0.538720
O4551	O455	0.279780	0.564620	0.640380
O4561	O456	0.341760	0.568130	0.689230
O4571	O457	0.654600	0.063080	0.596140
O4581	O458	0.615240	0.066020	0.539280
O4591	O459	0.279090	0.438300	0.648830
O4601	O460	0.340740	0.448350	0.697740
O4611	O461	0.384720	0.538450	0.755190
O4621	O462	0.587160	0.998350	0.477810
O4631	O463	0.544160	0.089140	0.453410
O4641	O464	0.726340	0.983190	0.543070
O4651	O465	0.702990	0.990990	0.649900
N4661	N466	0.717730	0.836660	0.758840
C4671	C467	0.610430	0.917780	0.571250
C4681	C468	0.564370	0.871150	0.581280
C4691	C469	0.547390	0.862690	0.618150
H4701	H470	0.566930	0.890470	0.639560
C4711	C471	0.505020	0.818490	0.627890
H4721	H472	0.493430	0.813140	0.656720
C4731	C473	0.478350	0.781040	0.601010
C4741	C474	0.492800	0.791520	0.563790
H4751	H475	0.472720	0.764010	0.542310
C4761	C476	0.535350	0.836020	0.554040
H4771	H477	0.546440	0.842000	0.525190
C4781	C478	0.327010	0.584890	0.656780
C4791	C479	0.456730	0.695010	0.643440
H4801	H480	0.497980	0.705250	0.658040
C4811	C481	0.421320	0.647380	0.656090
H4821	H482	0.436740	0.623190	0.679940
C4831	C483	0.366650	0.631680	0.638910
C4841	C484	0.350090	0.664060	0.606940
H4851	H485	0.308610	0.653350	0.592680
C4861	C486	0.386370	0.712090	0.593800
H4871	H487	0.372070	0.737030	0.569640
C4881	C488	0.439630	0.728910	0.612570
C4891	C489	0.728130	0.900060	0.476090
C4901	C490	0.727400	0.845790	0.451530
C4911	C491	0.776680	0.805680	0.450720
H4921	H492	0.815320	0.812890	0.468380
C4931	C493	0.778140	0.756940	0.426060
H4941	H494	0.817260	0.727480	0.426340
C4951	C495	0.730750	0.747310	0.400830
C4961	C496	0.680500	0.786340	0.402440
H4971	H497	0.643190	0.780890	0.383440
C4981	C498	0.678750	0.834630	0.427550
H4991	H499	0.639930	0.864310	0.427400
C5001	C500	0.735300	0.699360	0.371680
C5011	C501	0.683850	0.668030	0.358980
H5021	H502	0.640350	0.675440	0.371860
C5031	C503	0.687930	0.626390	0.329740
H5041	H504	0.647640	0.602660	0.321080
C5051	C505	0.743560	0.615140	0.312250
C5061	C506	0.795060	0.645320	0.325740
H5071	H507	0.839050	0.637270	0.313670
C5081	C508	0.791130	0.686210	0.355060
H5091	H509	0.832090	0.708390	0.364070
C5101	C510	0.749820	0.570270	0.281490
C5111	C511	0.617060	0.085170	0.572620
C5121	C512	0.573100	0.134390	0.584960
C5131	C513	0.572910	0.154770	0.621650
H5141	H514	0.604180	0.135440	0.641300
C5151	C515	0.532520	0.199660	0.634080
H5161	H516	0.535580	0.211150	0.662860
C5171	C517	0.489900	0.227980	0.610500
C5181	C518	0.489800	0.206790	0.573400
H5191	H519	0.458980	0.225340	0.553290
C5201	C520	0.529950	0.160730	0.561060
H5211	H521	0.527200	0.146050	0.532590
C5221	C522	0.446800	0.278150	0.624760
C5231	C523	0.451020	0.301380	0.661250
H5241	H524	0.484950	0.285870	0.680280
C5251	C525	0.411660	0.346360	0.674780
H5261	H526	0.417150	0.361530	0.702930
C5271	C527	0.366170	0.371880	0.652620
C5281	C528	0.361610	0.350080	0.616160
H5291	H529	0.328280	0.369240	0.597650
C5301	C530	0.400580	0.304140	0.602610
H5311	H531	0.393710	0.289550	0.574520
C5321	C532	0.326180	0.422330	0.667370
C5331	C533	0.565590	0.043770	0.465640
C5341	C534	0.772560	0.862170	0.742520
In5351	In535	0.504110	0.216570	0.346110
In5361	In536	0.501290	0.156940	0.261850
In5371	In537	0.983290	0.808450	0.477940
O5381	O538	0.942890	0.303960	0.020850
O5391	O539	0.954940	0.203450	0.017080
O5401	O540	0.568210	0.180760	0.228860
O5411	O541	0.586690	0.277710	0.242790
O5421	O542	0.564800	0.149220	0.346180
O5431	O543	0.561330	0.109630	0.289230
O5441	O544	0.935800	0.778750	0.390200
O5451	O545	0.932060	0.841440	0.438820
O5461	O546	0.437280	0.154800	0.346010
O5471	O547	0.433900	0.115990	0.289020
O5481	O548	0.062930	0.778300	0.398810
O5491	O549	0.051940	0.840350	0.447450
O5501	O550	0.961270	0.884900	0.505220
O5511	O551	0.503930	0.086880	0.228570
O5521	O552	0.415020	0.042790	0.202400
O5531	O553	0.516800	0.226990	0.293160
O5541	O554	0.504310	0.208280	0.400650
N5551	N555	0.659580	0.216990	0.512470
C5561	C556	0.582470	0.110690	0.321930
C5571	C557	0.629160	0.064460	0.331740
C5581	C558	0.638030	0.047280	0.368550
H5591	H559	0.610830	0.066990	0.390160
C5601	C560	0.682120	0.004630	0.377960
H5611	H561	0.687820	0.992990	0.406750
C5621	C562	0.719180	0.977930	0.350890
C5631	C563	0.708450	0.992710	0.313750
H5641	H564	0.735780	0.972770	0.292150
C5651	C565	0.664030	0.035540	0.304290
H5661	H566	0.657990	0.046980	0.275490
C5671	C567	0.915310	0.826170	0.406420
C5681	C568	0.805180	0.955960	0.393250
H5691	H569	0.794910	0.997070	0.407950
C5701	C570	0.852680	0.920390	0.405840
H5711	H571	0.876800	0.935860	0.429750
C5721	C572	0.868420	0.865760	0.388510
C5731	C573	0.836220	0.849520	0.356440
H5741	H574	0.846990	0.808310	0.341990
C5751	C575	0.788370	0.886050	0.343340
H5761	H576	0.763670	0.872050	0.319000
C5771	C577	0.771390	0.939140	0.362310
C5781	C578	0.599960	0.228810	0.225800
C5791	C579	0.654280	0.228040	0.201120
C5801	C580	0.694660	0.277100	0.200450
H5811	H581	0.687610	0.315570	0.218200
C5821	C582	0.743500	0.278440	0.175860
H5831	H583	0.773140	0.317420	0.176230
C5841	C584	0.753080	0.231090	0.150580
C5851	C585	0.714010	0.180880	0.152150
H5861	H586	0.719660	0.143540	0.133230
C5871	C587	0.665500	0.179300	0.177140
H5881	H588	0.635840	0.140450	0.176960
C5891	C589	0.801010	0.235680	0.121380
C5901	C590	0.832160	0.184240	0.108530
H5911	H591	0.824660	0.140690	0.121280
C5921	C592	0.873700	0.188390	0.079260
H5931	H593	0.897320	0.148100	0.070510
C5941	C594	0.885070	0.244150	0.061930
C5951	C595	0.855010	0.295640	0.075480
H5961	H596	0.863230	0.339690	0.063560
C5971	C597	0.814160	0.291600	0.104810
H5981	H598	0.791960	0.332480	0.113900
C5991	C599	0.930080	0.250420	0.031290
C6001	C600	0.414630	0.117870	0.322320
C6011	C601	0.364770	0.074550	0.334490
C6021	C602	0.344820	0.073950	0.371280
H6031	H603	0.364410	0.105060	0.390940
C6041	C604	0.300240	0.033260	0.383790
H6051	H605	0.289340	0.035810	0.412650
C6061	C606	0.271610	0.990940	0.360140
C6071	C607	0.292070	0.991550	0.322900
H6081	H608	0.273150	0.961040	0.302720
C6091	C609	0.337860	0.031940	0.310480
H6101	H610	0.352090	0.029520	0.281920
C6111	C611	0.221760	0.947490	0.374450
C6121	C612	0.198620	0.951480	0.410960
H6131	H613	0.214210	0.985370	0.429990
C6141	C614	0.153720	0.911900	0.424460
H6151	H615	0.138490	0.917410	0.452650
C6161	C616	0.128430	0.866250	0.402400
C6171	C617	0.150080	0.861990	0.365820
H6181	H618	0.130870	0.828810	0.347290
C6191	C619	0.195900	0.901180	0.352300
H6201	H620	0.210530	0.894350	0.324220
C6211	C621	0.078400	0.825540	0.417120
C6221	C622	0.459390	0.064820	0.215550
C6231	C623	0.638370	0.271410	0.493830
In6241	In624	0.497300	0.783790	0.845590
In6251	In625	0.499540	0.843120	0.761370
In6261	In626	0.017170	0.191390	0.977820
O6271	O627	0.057260	0.696340	0.521280
O6281	O628	0.045630	0.796750	0.517100
O6291	O629	0.431640	0.820050	0.729160
O6301	O630	0.414260	0.722480	0.742330
O6311	O631	0.436970	0.851350	0.845500
O6321	O632	0.439830	0.891100	0.788500
O6331	O633	0.065730	0.220920	0.890220
O6341	O634	0.067790	0.157670	0.938500
O6351	O635	0.564240	0.845240	0.845650
O6361	O636	0.567110	0.883940	0.788730
O6371	O637	0.938530	0.221340	0.898700
O6381	O638	0.948080	0.159760	0.947760
O6391	O639	0.038550	0.114630	0.005050
O6401	O640	0.498880	0.912780	0.727860
O6411	O641	0.589840	0.955350	0.703210
O6421	O642	0.483480	0.773310	0.792770
O6431	O643	0.493180	0.794040	0.899800
N6441	N644	0.337740	0.787500	0.010150
C6451	C645	0.418990	0.889890	0.821290
C6461	C646	0.372090	0.935770	0.831200
C6471	C647	0.363330	0.952770	0.868040
H6481	H648	0.390830	0.933100	0.889560
C6491	C649	0.318900	0.995010	0.877640
H6501	H650	0.313400	0.006610	0.906450
C6511	C651	0.281430	0.021440	0.850690
C6521	C652	0.291970	0.006730	0.813510
H6531	H653	0.264360	0.026490	0.791980
C6541	C654	0.336620	0.964210	0.803880
H6551	H655	0.342300	0.952610	0.775080
C6561	C656	0.085200	0.173040	0.906270
C6571	C657	0.195340	0.043360	0.893100
H6581	H658	0.205710	0.002290	0.907880
C6591	C659	0.147590	0.078710	0.905630
H6601	H660	0.123350	0.063210	0.929500
C6611	C661	0.131890	0.133290	0.888360
C6621	C662	0.164110	0.149600	0.856280
H6631	H663	0.153220	0.190820	0.841760
C6641	C664	0.212150	0.113240	0.843220
H6651	H665	0.236960	0.127320	0.818960
C6661	C666	0.229230	0.060200	0.862170
C6671	C667	0.400380	0.771810	0.725860
C6681	C668	0.345880	0.772540	0.701420
C6691	C669	0.305660	0.723430	0.700780
H6701	H670	0.312780	0.684960	0.718540
C6711	C671	0.256790	0.721970	0.676220
H6721	H672	0.227310	0.682890	0.676600
C6731	C673	0.247120	0.769310	0.650950
C6741	C674	0.286100	0.819580	0.652460
H6751	H675	0.280460	0.856790	0.633440
C6761	C676	0.334500	0.821360	0.677480
H6771	H677	0.364010	0.860300	0.677340
C6781	C678	0.199010	0.764630	0.621860
C6791	C679	0.167870	0.816090	0.609010
H6801	H680	0.175470	0.859700	0.621730
C6811	C681	0.126200	0.811950	0.579790
H6821	H682	0.102710	0.852200	0.571000
C6831	C683	0.114770	0.756270	0.562490
C6841	C684	0.144730	0.704690	0.576160
H6851	H685	0.136570	0.660610	0.564220
C6861	C686	0.185670	0.708670	0.605430
H6871	H687	0.207760	0.667770	0.614540
C6881	C688	0.070080	0.749880	0.531620
C6891	C689	0.586560	0.882250	0.821990
C6901	C690	0.636180	0.925770	0.834140
C6911	C691	0.655760	0.926790	0.870990
H6921	H692	0.635920	0.895930	0.890720
C6931	C693	0.700210	0.967630	0.883480
H6941	H694	0.710750	0.965300	0.912410
C6951	C695	0.728980	0.009760	0.859810
C6961	C696	0.708790	0.008830	0.822480
H6971	H697	0.727710	0.039320	0.802300
C6981	C698	0.663230	0.968110	0.810040
H6991	H699	0.649200	0.969940	0.781420
C7001	C700	0.778610	0.053360	0.874240
C7011	C701	0.801490	0.049330	0.910800
H7021	H702	0.785980	0.015240	0.929740
C7031	C703	0.846240	0.088830	0.924520
H7041	H704	0.861200	0.083310	0.952760
C7051	C705	0.871840	0.134430	0.902510
C7061	C706	0.850280	0.139000	0.865980
H7071	H707	0.869520	0.172490	0.847660
C7081	C708	0.804510	0.099890	0.852230
H7091	H709	0.790100	0.106840	0.824120
C7101	C710	0.922250	0.174500	0.917270
C7111	C711	0.544460	0.934140	0.715560
C7121	C712	0.357860	0.728800	0.996360
C7131	C713	0.921870	0.921970	0.499760
C7141	C714	0.077790	0.077430	0.999640
C7151	C715	0.577600	0.422160	0.249690
C7161	C716	0.421970	0.577530	0.749790
H7171	H717	0.240680	0.495570	0.588260
H7181	H718	0.217040	0.667560	0.464400
H7191	H719	0.205130	0.704910	0.504760
H7201	H720	0.307810	0.640440	0.484330
H7211	H721	0.269560	0.595280	0.518580
H7221	H722	0.290910	0.672210	0.528850
H7231	H723	0.834490	0.506590	0.094180
H7241	H724	0.788360	0.291830	0.001500
H7251	H725	0.818230	0.362800	0.000700
H7261	H726	0.697650	0.322700	0.020200
H7271	H727	0.698980	0.385060	0.988110
H7281	H728	0.736640	0.391660	0.032100
H7291	H729	0.036380	0.701810	0.341380
H7301	H730	0.842050	0.721120	0.214320
H7311	H731	0.798870	0.708130	0.252400
H7321	H732	0.887080	0.803110	0.237630
H7331	H733	0.890950	0.769510	0.282960
H7341	H734	0.821400	0.803700	0.267240
H7351	H735	0.044980	0.304810	0.841570
H7361	H736	0.207220	0.292410	0.759030
H7371	H737	0.137520	0.316850	0.745740
H7381	H738	0.177150	0.196890	0.770930
H7391	H739	0.118620	0.200540	0.736230
H7401	H740	0.107830	0.237120	0.780280
H7411	H741	0.333240	0.993930	0.155730
H7421	H742	0.315290	0.135040	0.265080
H7431	H743	0.270580	0.185000	0.288270
H7441	H744	0.223840	0.093340	0.252790
H7451	H745	0.232720	0.144160	0.214390
H7461	H746	0.187200	0.166290	0.253470
H7471	H747	0.741080	0.004460	0.661690
H7481	H748	0.679810	0.850970	0.744050
H7491	H749	0.713500	0.851050	0.786180
H7501	H750	0.763020	0.879860	0.714410
H7511	H751	0.808450	0.827130	0.740430
H7521	H752	0.789940	0.900000	0.759710
H7531	H753	0.545540	0.195800	0.408130
H7541	H754	0.638060	0.212860	0.537950
H7551	H755	0.706200	0.219840	0.516700
H7561	H756	0.589370	0.278220	0.499110
H7571	H757	0.645600	0.267150	0.463680
H7581	H758	0.663490	0.311610	0.503940
H7591	H759	0.535490	0.798060	0.908430
H7601	H760	0.305380	0.805770	0.992410
H7611	H761	0.374370	0.817070	0.011790
H7621	H762	0.347450	0.724280	0.966550
H7631	H763	0.334450	0.691720	0.011240
H7641	H764	0.407350	0.723270	0.000450
H7651	H765	0.649800	0.179080	0.496380
H7661	H766	0.777960	0.336860	0.963940
H7671	H767	0.180690	0.274920	0.716330
H7681	H768	0.872240	0.684780	0.251420
H7691	H769	0.181490	0.632120	0.500020
H7701	H770	0.298640	0.203140	0.245930
H7711	H771	0.719760	0.789460	0.758330
H7721	H772	0.318630	0.782680	0.036320
