data_IYUHOA_clean_PM
_symmetry_space_group_name_H-M	'P1'
_cell_length_a	24.727300
_cell_length_b	24.727300
_cell_length_c	14.381200
_cell_angle_alpha	90.000000
_cell_angle_beta	90.000000
_cell_angle_gamma	120.000000
_symmetry_Int_Tables_number 1

loop_
_symmetry_equiv_pos_as_xyz
'x,y,z'

loop_
_atom_site_label
_atom_site_type_symbol
_atom_site_fract_x
_atom_site_fract_y
_atom_site_fract_z
In11	In1	0.670220	0.561060	0.387170
In21	In2	0.329740	0.440720	0.885410
O11	O1	0.369900	0.455200	0.019000
O21	O2	0.705500	0.570900	0.251500
O31	O3	0.589300	0.554600	0.312000
O41	O4	0.402500	0.462200	0.506600
O51	O5	0.579900	0.544300	0.156000
O61	O6	0.380300	0.548000	0.871100
O71	O7	0.738300	0.503100	0.384500
O81	O8	0.314300	0.448500	0.451200
O91	O9	0.300500	0.336200	0.880100
O101	O10	0.706700	0.662500	0.407500
O111	O11	0.280000	0.499200	0.902800
O121	O12	0.231400	0.362300	0.921600
O131	O13	0.636300	0.462700	0.384200
O141	O14	0.778900	0.635200	0.403800
O151	O15	0.293800	0.453400	0.101400
C11	C1	0.398900	0.480200	0.343700
C21	C2	0.915300	0.823100	0.350600
H11	H1	0.953300	0.833900	0.322300
C31	C3	0.451800	0.502300	0.168400
H21	H2	0.469200	0.508600	0.109300
C41	C4	0.870200	0.760900	0.358600
H31	H3	0.878300	0.730100	0.337100
C51	C5	0.463700	0.505300	0.332900
H41	H4	0.489000	0.514000	0.385100
C61	C6	0.559500	0.541400	0.238400
C71	C7	0.801900	0.789900	0.432900
H51	H5	0.763600	0.779100	0.460100
C81	C8	0.137600	0.235100	0.934900
H61	H6	0.130900	0.264300	0.965500
C91	C9	0.489600	0.516900	0.246100
C101	C10	0.847000	0.851700	0.427200
H71	H7	0.839300	0.881900	0.452000
C111	C11	0.387500	0.478200	0.178600
C121	C12	0.344900	0.461100	0.092600
C131	C13	0.362000	0.468000	0.266900
H81	H8	0.319400	0.452900	0.274000
C141	C14	0.762700	0.675900	0.404500
C151	C15	0.243000	0.320800	0.898600
C161	C16	0.369600	0.463300	0.438800
C171	C17	0.194100	0.253300	0.897000
C181	C18	0.953300	0.936500	0.378100
C191	C19	0.904800	0.870100	0.384400
C201	C20	0.812100	0.743900	0.399300
C211	C21	0.017400	0.954400	0.376400
H91	H9	0.028800	0.923800	0.374100
C221	C22	0.203900	0.210600	0.846600
H101	H10	0.241900	0.223100	0.817400
C231	C23	0.330700	0.548900	0.886600
C241	C24	0.089200	0.173300	0.929200
H111	H11	0.050800	0.161500	0.956900
C251	C25	0.684800	0.457300	0.382900
C261	C26	0.155800	0.149400	0.841200
H121	H12	0.162500	0.120700	0.808800
C271	C27	0.276300	0.611300	0.883000
C281	C28	0.332300	0.610200	0.883800
C291	C29	0.675700	0.393500	0.382100
C301	C30	0.616100	0.342600	0.381400
C311	C31	0.098100	0.129100	0.882100
C321	C32	0.048200	0.063600	0.878400
C331	C33	0.984600	0.046800	0.876800
H131	H13	0.974400	0.078200	0.874700
In31	In3	0.438940	0.109160	0.387170
In41	In4	0.559280	0.889020	0.885410
O161	O16	0.544800	0.914700	0.019000
O171	O17	0.429100	0.134600	0.251500
O181	O18	0.445400	0.034700	0.312000
O191	O19	0.537800	0.940300	0.506600
O201	O20	0.455700	0.035600	0.156000
O211	O21	0.452000	0.832300	0.871100
O221	O22	0.496900	0.235200	0.384500
O231	O23	0.551500	0.865800	0.451200
O241	O24	0.663800	0.964300	0.880100
O251	O25	0.337500	0.044200	0.407500
O261	O26	0.500800	0.780800	0.902800
O271	O27	0.637700	0.869100	0.921600
O281	O28	0.537300	0.173600	0.384200
O291	O29	0.364800	0.143700	0.403800
O301	O30	0.546600	0.840400	0.101400
C341	C34	0.519800	0.918700	0.343700
C351	C35	0.176900	0.092200	0.350600
H141	H14	0.166100	0.119400	0.322300
C361	C36	0.497700	0.949500	0.168400
H151	H15	0.491400	0.960600	0.109300
C371	C37	0.239100	0.109300	0.358600
H161	H16	0.269900	0.148200	0.337100
C381	C38	0.494700	0.958400	0.332900
H171	H17	0.486000	0.975000	0.385100
C391	C39	0.458600	0.018100	0.238400
C401	C40	0.210100	0.012000	0.432900
H181	H18	0.220900	0.984500	0.460100
C411	C41	0.764900	0.902500	0.934900
H191	H19	0.735700	0.866600	0.965500
C421	C42	0.483100	0.972700	0.246100
C431	C43	0.148300	0.995300	0.427200
H201	H20	0.118100	0.957400	0.452000
C441	C44	0.521800	0.909300	0.178600
C451	C45	0.538900	0.883800	0.092600
C461	C46	0.532000	0.894000	0.266900
H211	H21	0.547100	0.866500	0.274000
C471	C47	0.324100	0.086800	0.404500
C481	C48	0.679200	0.922200	0.898600
C491	C49	0.536700	0.906300	0.438800
C501	C50	0.746700	0.940800	0.897000
C511	C51	0.063500	0.016800	0.378100
C521	C52	0.129900	0.034700	0.384400
C531	C53	0.256100	0.068200	0.399300
C541	C54	0.045600	0.063000	0.376400
H221	H22	0.076200	0.105000	0.374100
C551	C55	0.789400	0.993300	0.846600
H231	H23	0.776900	0.018800	0.817400
C561	C56	0.451100	0.781800	0.886600
C571	C57	0.826700	0.915900	0.929200
H241	H24	0.838500	0.889300	0.956900
C581	C58	0.542700	0.227500	0.382900
C591	C59	0.850600	0.006400	0.841200
H251	H25	0.879300	0.041800	0.808800
C601	C60	0.388700	0.665000	0.883000
C611	C61	0.389800	0.722100	0.883800
C621	C62	0.606500	0.282200	0.382100
C631	C63	0.657400	0.273500	0.381400
C641	C64	0.870900	0.969000	0.882100
C651	C65	0.936400	0.984600	0.878400
C661	C66	0.953200	0.937800	0.876800
H261	H26	0.921800	0.896200	0.874700
In51	In5	0.890840	0.329780	0.387170
In61	In6	0.110980	0.670260	0.885410
O311	O31	0.085300	0.630100	0.019000
O321	O32	0.865400	0.294500	0.251500
O331	O33	0.965300	0.410700	0.312000
O341	O34	0.059700	0.597500	0.506600
O351	O35	0.964400	0.420100	0.156000
O361	O36	0.167700	0.619700	0.871100
O371	O37	0.764800	0.261700	0.384500
O381	O38	0.134200	0.685700	0.451200
O391	O39	0.035700	0.699500	0.880100
O401	O40	0.955800	0.293300	0.407500
O411	O41	0.219200	0.720000	0.902800
O421	O42	0.130900	0.768600	0.921600
O431	O43	0.826400	0.363700	0.384200
O441	O44	0.856300	0.221100	0.403800
O451	O45	0.159600	0.706200	0.101400
C671	C67	0.081300	0.601100	0.343700
C681	C68	0.907800	0.084700	0.350600
H271	H27	0.880600	0.046700	0.322300
C691	C69	0.050500	0.548200	0.168400
H281	H28	0.039400	0.530800	0.109300
C701	C70	0.890700	0.129800	0.358600
H291	H29	0.851800	0.121700	0.337100
C711	C71	0.041600	0.536300	0.332900
H301	H30	0.025000	0.511000	0.385100
C721	C72	0.981900	0.440500	0.238400
C731	C73	0.988000	0.198100	0.432900
H311	H31	0.015500	0.236400	0.460100
C741	C74	0.097500	0.862400	0.934900
H321	H32	0.133400	0.869100	0.965500
C751	C75	0.027300	0.510400	0.246100
C761	C76	0.004700	0.153000	0.427200
H331	H33	0.042600	0.160700	0.452000
C771	C77	0.090700	0.612500	0.178600
C781	C78	0.116200	0.655100	0.092600
C791	C79	0.106000	0.638000	0.266900
H341	H34	0.133500	0.680600	0.274000
C801	C80	0.913200	0.237300	0.404500
C811	C81	0.077800	0.757000	0.898600
C821	C82	0.093700	0.630400	0.438800
C831	C83	0.059200	0.805900	0.897000
C841	C84	0.983200	0.046700	0.378100
C851	C85	0.965300	0.095200	0.384400
C861	C86	0.931800	0.187900	0.399300
C871	C87	0.937000	0.982600	0.376400
H351	H35	0.895000	0.971200	0.374100
C881	C88	0.006700	0.796100	0.846600
H361	H36	0.981200	0.758100	0.817400
C891	C89	0.218200	0.669300	0.886600
C901	C90	0.084100	0.910800	0.929200
H371	H37	0.110700	0.949200	0.956900
C911	C91	0.772500	0.315200	0.382900
C921	C92	0.993600	0.844200	0.841200
H381	H38	0.958200	0.837500	0.808800
C931	C93	0.335000	0.723700	0.883000
C941	C94	0.277900	0.667700	0.883800
C951	C95	0.717800	0.324300	0.382100
C961	C96	0.726500	0.383900	0.381400
C971	C97	0.031000	0.901900	0.882100
C981	C98	0.015400	0.951800	0.878400
C991	C99	0.062200	0.015400	0.876800
H391	H39	0.103800	0.025600	0.874700
In71	In7	0.329780	0.438940	0.612830
In81	In8	0.670260	0.559280	0.114590
O461	O46	0.630100	0.544800	0.981000
O471	O47	0.294500	0.429100	0.748500
O481	O48	0.410700	0.445400	0.688000
O491	O49	0.597500	0.537800	0.493400
O501	O50	0.420100	0.455700	0.844000
O511	O51	0.619700	0.452000	0.128900
O521	O52	0.261700	0.496900	0.615500
O531	O53	0.685700	0.551500	0.548800
O541	O54	0.699500	0.663800	0.119900
O551	O55	0.293300	0.337500	0.592500
O561	O56	0.720000	0.500800	0.097200
O571	O57	0.768600	0.637700	0.078400
O581	O58	0.363700	0.537300	0.615800
O591	O59	0.221100	0.364800	0.596200
O601	O60	0.706200	0.546600	0.898600
C1001	C100	0.601100	0.519800	0.656300
C1011	C101	0.084700	0.176900	0.649400
H401	H40	0.046700	0.166100	0.677700
C1021	C102	0.548200	0.497700	0.831600
H411	H41	0.530800	0.491400	0.890700
C1031	C103	0.129800	0.239100	0.641400
H421	H42	0.121700	0.269900	0.662900
C1041	C104	0.536300	0.494700	0.667100
H431	H43	0.511000	0.486000	0.614900
C1051	C105	0.440500	0.458600	0.761600
C1061	C106	0.198100	0.210100	0.567100
H441	H44	0.236400	0.220900	0.539900
C1071	C107	0.862400	0.764900	0.065100
H451	H45	0.869100	0.735700	0.034500
C1081	C108	0.510400	0.483100	0.753900
C1091	C109	0.153000	0.148300	0.572800
H461	H46	0.160700	0.118100	0.548000
C1101	C110	0.612500	0.521800	0.821400
C1111	C111	0.655100	0.538900	0.907400
C1121	C112	0.638000	0.532000	0.733100
H471	H47	0.680600	0.547100	0.726000
C1131	C113	0.237300	0.324100	0.595500
C1141	C114	0.757000	0.679200	0.101400
C1151	C115	0.630400	0.536700	0.561200
C1161	C116	0.805900	0.746700	0.103000
C1171	C117	0.046700	0.063500	0.621900
C1181	C118	0.095200	0.129900	0.615600
C1191	C119	0.187900	0.256100	0.600700
C1201	C120	0.982600	0.045600	0.623600
H481	H48	0.971200	0.076200	0.625900
C1211	C121	0.796100	0.789400	0.153400
H491	H49	0.758100	0.776900	0.182600
C1221	C122	0.669300	0.451100	0.113400
C1231	C123	0.910800	0.826700	0.070800
H501	H50	0.949200	0.838500	0.043100
C1241	C124	0.315200	0.542700	0.617100
C1251	C125	0.844200	0.850600	0.158800
H511	H51	0.837500	0.879300	0.191200
C1261	C126	0.723700	0.388700	0.117000
C1271	C127	0.667700	0.389800	0.116200
C1281	C128	0.324300	0.606500	0.617900
C1291	C129	0.383900	0.657400	0.618600
C1301	C130	0.901900	0.870900	0.117900
C1311	C131	0.951800	0.936400	0.121600
C1321	C132	0.015400	0.953200	0.123200
H521	H52	0.025600	0.921800	0.125300
In91	In9	0.561060	0.890840	0.612830
In101	In10	0.440720	0.110980	0.114590
O611	O61	0.455200	0.085300	0.981000
O621	O62	0.570900	0.865400	0.748500
O631	O63	0.554600	0.965300	0.688000
O641	O64	0.462200	0.059700	0.493400
O651	O65	0.544300	0.964400	0.844000
O661	O66	0.548000	0.167700	0.128900
O671	O67	0.503100	0.764800	0.615500
O681	O68	0.448500	0.134200	0.548800
O691	O69	0.336200	0.035700	0.119900
O701	O70	0.662500	0.955800	0.592500
O711	O71	0.499200	0.219200	0.097200
O721	O72	0.362300	0.130900	0.078400
O731	O73	0.462700	0.826400	0.615800
O741	O74	0.635200	0.856300	0.596200
O751	O75	0.453400	0.159600	0.898600
C1331	C133	0.480200	0.081300	0.656300
C1341	C134	0.823100	0.907800	0.649400
H531	H53	0.833900	0.880600	0.677700
C1351	C135	0.502300	0.050500	0.831600
H541	H54	0.508600	0.039400	0.890700
C1361	C136	0.760900	0.890700	0.641400
H551	H55	0.730100	0.851800	0.662900
C1371	C137	0.505300	0.041600	0.667100
H561	H56	0.514000	0.025000	0.614900
C1381	C138	0.541400	0.981900	0.761600
C1391	C139	0.789900	0.988000	0.567100
H571	H57	0.779100	0.015500	0.539900
C1401	C140	0.235100	0.097500	0.065100
H581	H58	0.264300	0.133400	0.034500
C1411	C141	0.516900	0.027300	0.753900
C1421	C142	0.851700	0.004700	0.572800
H591	H59	0.881900	0.042600	0.548000
C1431	C143	0.478200	0.090700	0.821400
C1441	C144	0.461100	0.116200	0.907400
C1451	C145	0.468000	0.106000	0.733100
H601	H60	0.452900	0.133500	0.726000
C1461	C146	0.675900	0.913200	0.595500
C1471	C147	0.320800	0.077800	0.101400
C1481	C148	0.463300	0.093700	0.561200
C1491	C149	0.253300	0.059200	0.103000
C1501	C150	0.936500	0.983200	0.621900
C1511	C151	0.870100	0.965300	0.615600
C1521	C152	0.743900	0.931800	0.600700
C1531	C153	0.954400	0.937000	0.623600
H611	H61	0.923800	0.895000	0.625900
C1541	C154	0.210600	0.006700	0.153400
H621	H62	0.223100	0.981200	0.182600
C1551	C155	0.548900	0.218200	0.113400
C1561	C156	0.173300	0.084100	0.070800
H631	H63	0.161500	0.110700	0.043100
C1571	C157	0.457300	0.772500	0.617100
C1581	C158	0.149400	0.993600	0.158800
H641	H64	0.120700	0.958200	0.191200
C1591	C159	0.611300	0.335000	0.117000
C1601	C160	0.610200	0.277900	0.116200
C1611	C161	0.393500	0.717800	0.617900
C1621	C162	0.342600	0.726500	0.618600
C1631	C163	0.129100	0.031000	0.117900
C1641	C164	0.063600	0.015400	0.121600
C1651	C165	0.046800	0.062200	0.123200
H651	H65	0.078200	0.103800	0.125300
In111	In11	0.109160	0.670220	0.612830
In121	In12	0.889020	0.329740	0.114590
O761	O76	0.914700	0.369900	0.981000
O771	O77	0.134600	0.705500	0.748500
O781	O78	0.034700	0.589300	0.688000
O791	O79	0.940300	0.402500	0.493400
O801	O80	0.035600	0.579900	0.844000
O811	O81	0.832300	0.380300	0.128900
O821	O82	0.235200	0.738300	0.615500
O831	O83	0.865800	0.314300	0.548800
O841	O84	0.964300	0.300500	0.119900
O851	O85	0.044200	0.706700	0.592500
O861	O86	0.780800	0.280000	0.097200
O871	O87	0.869100	0.231400	0.078400
O881	O88	0.173600	0.636300	0.615800
O891	O89	0.143700	0.778900	0.596200
O901	O90	0.840400	0.293800	0.898600
C1661	C166	0.918700	0.398900	0.656300
C1671	C167	0.092200	0.915300	0.649400
H661	H66	0.119400	0.953300	0.677700
C1681	C168	0.949500	0.451800	0.831600
H671	H67	0.960600	0.469200	0.890700
C1691	C169	0.109300	0.870200	0.641400
H681	H68	0.148200	0.878300	0.662900
C1701	C170	0.958400	0.463700	0.667100
H691	H69	0.975000	0.489000	0.614900
C1711	C171	0.018100	0.559500	0.761600
C1721	C172	0.012000	0.801900	0.567100
H701	H70	0.984500	0.763600	0.539900
C1731	C173	0.902500	0.137600	0.065100
H711	H71	0.866600	0.130900	0.034500
C1741	C174	0.972700	0.489600	0.753900
C1751	C175	0.995300	0.847000	0.572800
H721	H72	0.957400	0.839300	0.548000
C1761	C176	0.909300	0.387500	0.821400
C1771	C177	0.883800	0.344900	0.907400
C1781	C178	0.894000	0.362000	0.733100
H731	H73	0.866500	0.319400	0.726000
C1791	C179	0.086800	0.762700	0.595500
C1801	C180	0.922200	0.243000	0.101400
C1811	C181	0.906300	0.369600	0.561200
C1821	C182	0.940800	0.194100	0.103000
C1831	C183	0.016800	0.953300	0.621900
C1841	C184	0.034700	0.904800	0.615600
C1851	C185	0.068200	0.812100	0.600700
C1861	C186	0.063000	0.017400	0.623600
H741	H74	0.105000	0.028800	0.625900
C1871	C187	0.993300	0.203900	0.153400
H751	H75	0.018800	0.241900	0.182600
C1881	C188	0.781800	0.330700	0.113400
C1891	C189	0.915900	0.089200	0.070800
H761	H76	0.889300	0.050800	0.043100
C1901	C190	0.227500	0.684800	0.617100
C1911	C191	0.006400	0.155800	0.158800
H771	H77	0.041800	0.162500	0.191200
C1921	C192	0.665000	0.276300	0.117000
C1931	C193	0.722100	0.332300	0.116200
C1941	C194	0.282200	0.675700	0.617900
C1951	C195	0.273500	0.616100	0.618600
C1961	C196	0.969000	0.098100	0.117900
C1971	C197	0.984600	0.048200	0.121600
C1981	C198	0.937800	0.984600	0.123200
H781	H78	0.896200	0.974400	0.125300
