data_IYUJAO_clean_PM
_symmetry_space_group_name_H-M	'P1'
_cell_length_a	16.129200
_cell_length_b	16.129200
_cell_length_c	16.129200
_cell_angle_alpha	92.549500
_cell_angle_beta	92.549500
_cell_angle_gamma	92.549500
_symmetry_Int_Tables_number 1

loop_
_symmetry_equiv_pos_as_xyz
'x,y,z'

loop_
_atom_site_label
_atom_site_type_symbol
_atom_site_fract_x
_atom_site_fract_y
_atom_site_fract_z
In11	In1	0.740440	0.161090	0.409890
In21	In2	0.409890	0.740440	0.161090
In31	In3	0.161090	0.409890	0.740440
In41	In4	0.838910	0.259560	0.590110
In51	In5	0.259560	0.590110	0.838910
In61	In6	0.590110	0.838910	0.259560
In71	In7	0.659360	0.340640	0.500000
In81	In8	0.500000	0.659360	0.340640
In91	In9	0.340640	0.500000	0.659360
H11	H1	0.490800	0.026900	0.388300
H21	H2	0.356100	0.977500	0.350400
H31	H3	0.280300	0.208200	0.356000
H41	H4	0.411500	0.256900	0.403200
H51	H5	0.973200	0.128100	0.284200
H61	H6	0.098600	0.083900	0.236300
H71	H7	0.196300	0.127600	0.472300
H81	H8	0.075900	0.168000	0.511800
H91	H9	0.655700	0.234900	0.165100
H101	H10	0.609200	0.279900	0.036700
H111	H11	0.598600	0.511700	0.135600
H121	H12	0.635200	0.466600	0.264700
H131	H13	0.388300	0.490800	0.026900
H141	H14	0.350400	0.356100	0.977500
H151	H15	0.356000	0.280300	0.208200
H161	H16	0.403200	0.411500	0.256900
H171	H17	0.284200	0.973200	0.128100
H181	H18	0.236300	0.098600	0.083900
H191	H19	0.472300	0.196300	0.127600
H201	H20	0.511800	0.075900	0.168000
H211	H21	0.165100	0.655700	0.234900
H221	H22	0.036700	0.609200	0.279900
H231	H23	0.135600	0.598600	0.511700
H241	H24	0.264700	0.635200	0.466600
H251	H25	0.026900	0.388300	0.490800
H261	H26	0.977500	0.350400	0.356100
H271	H27	0.208200	0.356000	0.280300
H281	H28	0.256900	0.403200	0.411500
H291	H29	0.128100	0.284200	0.973200
H301	H30	0.083900	0.236300	0.098600
H311	H31	0.127600	0.472300	0.196300
H321	H32	0.168000	0.511800	0.075900
H331	H33	0.234900	0.165100	0.655700
H341	H34	0.279900	0.036700	0.609200
H351	H35	0.511700	0.135600	0.598600
H361	H36	0.466600	0.264700	0.635200
H371	H37	0.973100	0.509200	0.611700
H381	H38	0.022500	0.643900	0.649600
H391	H39	0.791800	0.719700	0.644000
H401	H40	0.743100	0.588500	0.596800
H411	H41	0.871900	0.026800	0.715800
H421	H42	0.916100	0.901400	0.763700
H431	H43	0.872400	0.803700	0.527700
H441	H44	0.832000	0.924100	0.488200
H451	H45	0.765100	0.344300	0.834900
H461	H46	0.720100	0.390800	0.963300
H471	H47	0.488300	0.401400	0.864400
H481	H48	0.533400	0.364800	0.735300
H491	H49	0.509200	0.611700	0.973100
H501	H50	0.643900	0.649600	0.022500
H511	H51	0.719700	0.644000	0.791800
H521	H52	0.588500	0.596800	0.743100
H531	H53	0.026800	0.715800	0.871900
H541	H54	0.901400	0.763700	0.916100
H551	H55	0.803700	0.527700	0.872400
H561	H56	0.924100	0.488200	0.832000
H571	H57	0.344300	0.834900	0.765100
H581	H58	0.390800	0.963300	0.720100
H591	H59	0.401400	0.864400	0.488300
H601	H60	0.364800	0.735300	0.533400
H611	H61	0.611700	0.973100	0.509200
H621	H62	0.649600	0.022500	0.643900
H631	H63	0.644000	0.791800	0.719700
H641	H64	0.596800	0.743100	0.588500
H651	H65	0.715800	0.871900	0.026800
H661	H66	0.763700	0.916100	0.901400
H671	H67	0.527700	0.872400	0.803700
H681	H68	0.488200	0.832000	0.924100
H691	H69	0.834900	0.765100	0.344300
H701	H70	0.963300	0.720100	0.390800
H711	H71	0.864400	0.488300	0.401400
H721	H72	0.735300	0.533400	0.364800
C11	C1	0.551200	0.179800	0.430000
C21	C2	0.465700	0.147700	0.400000
C31	C3	0.448500	0.063900	0.383400
C41	C4	0.368400	0.034100	0.359200
C51	C5	0.308000	0.090200	0.348800
C61	C6	0.322500	0.171500	0.363700
C71	C7	0.401500	0.200400	0.390800
C81	C8	0.931500	0.183800	0.432200
C91	C9	0.012700	0.152500	0.402100
C101	C10	0.019300	0.126900	0.320900
C111	C11	0.093400	0.099300	0.292100
C121	C12	0.159500	0.095100	0.349600
C131	C13	0.151000	0.125900	0.434400
C141	C14	0.081100	0.150500	0.456600
C151	C15	0.677400	0.317400	0.310500
C161	C16	0.648500	0.346100	0.228200
C171	C17	0.642200	0.289900	0.159300
C181	C18	0.615700	0.316800	0.082700
C191	C19	0.598900	0.402100	0.076300
C201	C20	0.608000	0.455900	0.142100
C211	C21	0.631100	0.429300	0.218800
C221	C22	0.430000	0.551200	0.179800
C231	C23	0.400000	0.465700	0.147700
C241	C24	0.383400	0.448500	0.063900
C251	C25	0.359200	0.368400	0.034100
C261	C26	0.348800	0.308000	0.090200
C271	C27	0.363700	0.322500	0.171500
C281	C28	0.390800	0.401500	0.200400
C291	C29	0.432200	0.931500	0.183800
C301	C30	0.402100	0.012700	0.152500
C311	C31	0.320900	0.019300	0.126900
C321	C32	0.292100	0.093400	0.099300
C331	C33	0.349600	0.159500	0.095100
C341	C34	0.434400	0.151000	0.125900
C351	C35	0.456600	0.081100	0.150500
C361	C36	0.310500	0.677400	0.317400
C371	C37	0.228200	0.648500	0.346100
C381	C38	0.159300	0.642200	0.289900
C391	C39	0.082700	0.615700	0.316800
C401	C40	0.076300	0.598900	0.402100
C411	C41	0.142100	0.608000	0.455900
C421	C42	0.218800	0.631100	0.429300
C431	C43	0.179800	0.430000	0.551200
C441	C44	0.147700	0.400000	0.465700
C451	C45	0.063900	0.383400	0.448500
C461	C46	0.034100	0.359200	0.368400
C471	C47	0.090200	0.348800	0.308000
C481	C48	0.171500	0.363700	0.322500
C491	C49	0.200400	0.390800	0.401500
C501	C50	0.183800	0.432200	0.931500
C511	C51	0.152500	0.402100	0.012700
C521	C52	0.126900	0.320900	0.019300
C531	C53	0.099300	0.292100	0.093400
C541	C54	0.095100	0.349600	0.159500
C551	C55	0.125900	0.434400	0.151000
C561	C56	0.150500	0.456600	0.081100
C571	C57	0.317400	0.310500	0.677400
C581	C58	0.346100	0.228200	0.648500
C591	C59	0.289900	0.159300	0.642200
C601	C60	0.316800	0.082700	0.615700
C611	C61	0.402100	0.076300	0.598900
C621	C62	0.455900	0.142100	0.608000
C631	C63	0.429300	0.218800	0.631100
C641	C64	0.820200	0.448800	0.570000
C651	C65	0.852300	0.534300	0.600000
C661	C66	0.936100	0.551500	0.616600
C671	C67	0.965900	0.631600	0.640800
C681	C68	0.909800	0.692000	0.651200
C691	C69	0.828500	0.677500	0.636300
C701	C70	0.799600	0.598500	0.609200
C711	C71	0.816200	0.068500	0.567800
C721	C72	0.847500	0.987300	0.597900
C731	C73	0.873100	0.980700	0.679100
C741	C74	0.900700	0.906600	0.707900
C751	C75	0.904900	0.840500	0.650400
C761	C76	0.874100	0.849000	0.565600
C771	C77	0.849500	0.918900	0.543400
C781	C78	0.682600	0.322600	0.689500
C791	C79	0.653900	0.351500	0.771800
C801	C80	0.710100	0.357800	0.840700
C811	C81	0.683200	0.384300	0.917300
C821	C82	0.597900	0.401100	0.923700
C831	C83	0.544100	0.392000	0.857900
C841	C84	0.570700	0.368900	0.781200
C851	C85	0.448800	0.570000	0.820200
C861	C86	0.534300	0.600000	0.852300
C871	C87	0.551500	0.616600	0.936100
C881	C88	0.631600	0.640800	0.965900
C891	C89	0.692000	0.651200	0.909800
C901	C90	0.677500	0.636300	0.828500
C911	C91	0.598500	0.609200	0.799600
C921	C92	0.068500	0.567800	0.816200
C931	C93	0.987300	0.597900	0.847500
C941	C94	0.980700	0.679100	0.873100
C951	C95	0.906600	0.707900	0.900700
C961	C96	0.840500	0.650400	0.904900
C971	C97	0.849000	0.565600	0.874100
C981	C98	0.918900	0.543400	0.849500
C991	C99	0.322600	0.689500	0.682600
C1001	C100	0.351500	0.771800	0.653900
C1011	C101	0.357800	0.840700	0.710100
C1021	C102	0.384300	0.917300	0.683200
C1031	C103	0.401100	0.923700	0.597900
C1041	C104	0.392000	0.857900	0.544100
C1051	C105	0.368900	0.781200	0.570700
C1061	C106	0.570000	0.820200	0.448800
C1071	C107	0.600000	0.852300	0.534300
C1081	C108	0.616600	0.936100	0.551500
C1091	C109	0.640800	0.965900	0.631600
C1101	C110	0.651200	0.909800	0.692000
C1111	C111	0.636300	0.828500	0.677500
C1121	C112	0.609200	0.799600	0.598500
C1131	C113	0.567800	0.816200	0.068500
C1141	C114	0.597900	0.847500	0.987300
C1151	C115	0.679100	0.873100	0.980700
C1161	C116	0.707900	0.900700	0.906600
C1171	C117	0.650400	0.904900	0.840500
C1181	C118	0.565600	0.874100	0.849000
C1191	C119	0.543400	0.849500	0.918900
C1201	C120	0.689500	0.682600	0.322600
C1211	C121	0.771800	0.653900	0.351500
C1221	C122	0.840700	0.710100	0.357800
C1231	C123	0.917300	0.683200	0.384300
C1241	C124	0.923700	0.597900	0.401100
C1251	C125	0.857900	0.544100	0.392000
C1261	C126	0.781200	0.570700	0.368900
C1271	C127	0.683050	0.000000	0.316950
C1281	C128	0.316950	0.683050	0.000000
C1291	C129	0.000000	0.316950	0.683050
O11	O1	0.556400	0.255600	0.452800
O21	O2	0.608700	0.128300	0.428500
O31	O3	0.230100	0.056700	0.321300
O41	O4	0.931200	0.216900	0.504700
O51	O5	0.869000	0.178500	0.380000
O61	O6	0.678200	0.369900	0.372400
O71	O7	0.699100	0.242000	0.313500
O81	O8	0.735200	0.061600	0.315000
O91	O9	0.452800	0.556400	0.255600
O101	O10	0.428500	0.608700	0.128300
O111	O11	0.321300	0.230100	0.056700
O121	O12	0.504700	0.931200	0.216900
O131	O13	0.380000	0.869000	0.178500
O141	O14	0.372400	0.678200	0.369900
O151	O15	0.313500	0.699100	0.242000
O161	O16	0.315000	0.735200	0.061600
O171	O17	0.255600	0.452800	0.556400
O181	O18	0.128300	0.428500	0.608700
O191	O19	0.056700	0.321300	0.230100
O201	O20	0.216900	0.504700	0.931200
O211	O21	0.178500	0.380000	0.869000
O221	O22	0.369900	0.372400	0.678200
O231	O23	0.242000	0.313500	0.699100
O241	O24	0.061600	0.315000	0.735200
O251	O25	0.744400	0.443600	0.547200
O261	O26	0.871700	0.391300	0.571500
O271	O27	0.943300	0.769900	0.678700
O281	O28	0.783100	0.068800	0.495300
O291	O29	0.821500	0.131000	0.620000
O301	O30	0.630100	0.321800	0.627600
O311	O31	0.758000	0.300900	0.686500
O321	O32	0.938400	0.264800	0.685000
O331	O33	0.443600	0.547200	0.744400
O341	O34	0.391300	0.571500	0.871700
O351	O35	0.769900	0.678700	0.943300
O361	O36	0.068800	0.495300	0.783100
O371	O37	0.131000	0.620000	0.821500
O381	O38	0.321800	0.627600	0.630100
O391	O39	0.300900	0.686500	0.758000
O401	O40	0.264800	0.685000	0.938400
O411	O41	0.547200	0.744400	0.443600
O421	O42	0.571500	0.871700	0.391300
O431	O43	0.678700	0.943300	0.769900
O441	O44	0.495300	0.783100	0.068800
O451	O45	0.620000	0.821500	0.131000
O461	O46	0.627600	0.630100	0.321800
O471	O47	0.686500	0.758000	0.300900
O481	O48	0.685000	0.938400	0.264800
O491	O49	0.748200	0.251800	0.500000
O501	O50	0.500000	0.748200	0.251800
O511	O51	0.251800	0.500000	0.748200
O521	O52	0.569550	0.430450	0.000000
O531	O53	0.000000	0.569550	0.430450
O541	O54	0.430450	0.000000	0.569550
