data_IYUQEZ_clean_PM
_symmetry_space_group_name_H-M	'P1'
_cell_length_a	31.251000
_cell_length_b	31.251000
_cell_length_c	31.251000
_cell_angle_alpha	90.000000
_cell_angle_beta	90.000000
_cell_angle_gamma	90.000000
_symmetry_Int_Tables_number 1

loop_
_symmetry_equiv_pos_as_xyz
'x,y,z'

loop_
_atom_site_label
_atom_site_type_symbol
_atom_site_fract_x
_atom_site_fract_y
_atom_site_fract_z
N11	N1	0.113680	0.834670	0.201680
N21	N2	0.070440	0.946120	0.278110
N31	N3	0.258830	0.797920	0.169930
N41	N4	0.332120	0.831340	0.053780
C11	C1	0.079320	0.844340	0.208900
C21	C2	0.049060	0.921430	0.261810
C31	C3	0.290890	0.783710	0.159600
C41	C4	0.341800	0.806400	0.078660
C51	C5	0.036320	0.855800	0.217460
C61	C6	0.022350	0.890990	0.241260
C71	C7	0.330750	0.765810	0.147170
C81	C8	0.353350	0.775520	0.110160
N51	N5	0.886320	0.165330	0.201680
N61	N6	0.929560	0.053880	0.278110
N71	N7	0.741170	0.202080	0.169930
N81	N8	0.667880	0.168660	0.053780
C91	C9	0.920680	0.155660	0.208900
C101	C10	0.950940	0.078570	0.261810
C111	C11	0.709110	0.216290	0.159600
C121	C12	0.658200	0.193600	0.078660
C131	C13	0.963680	0.144200	0.217460
C141	C14	0.977650	0.109010	0.241260
C151	C15	0.669250	0.234190	0.147170
C161	C16	0.646650	0.224480	0.110160
N91	N9	0.886320	0.834670	0.798320
N101	N10	0.929560	0.946120	0.721890
N111	N11	0.741170	0.797920	0.830070
N121	N12	0.667880	0.831340	0.946220
C171	C17	0.920680	0.844340	0.791100
C181	C18	0.950940	0.921430	0.738190
C191	C19	0.709110	0.783710	0.840400
C201	C20	0.658200	0.806400	0.921340
C211	C21	0.963680	0.855800	0.782540
C221	C22	0.977650	0.890990	0.758740
C231	C23	0.669250	0.765810	0.852830
C241	C24	0.646650	0.775520	0.889840
N131	N13	0.113680	0.165330	0.798320
N141	N14	0.070440	0.053880	0.721890
N151	N15	0.258830	0.202080	0.830070
N161	N16	0.332120	0.168660	0.946220
C251	C25	0.079320	0.155660	0.791100
C261	C26	0.049060	0.078570	0.738190
C271	C27	0.290890	0.216290	0.840400
C281	C28	0.341800	0.193600	0.921340
C291	C29	0.036320	0.144200	0.782540
C301	C30	0.022350	0.109010	0.758740
C311	C31	0.330750	0.234190	0.852830
C321	C32	0.353350	0.224480	0.889840
N171	N17	0.201680	0.113680	0.834670
N181	N18	0.278110	0.070440	0.946120
N191	N19	0.169930	0.258830	0.797920
N201	N20	0.053780	0.332120	0.831340
C331	C33	0.208900	0.079320	0.844340
C341	C34	0.261810	0.049060	0.921430
C351	C35	0.159600	0.290890	0.783710
C361	C36	0.078660	0.341800	0.806400
C371	C37	0.217460	0.036320	0.855800
C381	C38	0.241260	0.022350	0.890990
C391	C39	0.147170	0.330750	0.765810
C401	C40	0.110160	0.353350	0.775520
N211	N21	0.201680	0.886320	0.165330
N221	N22	0.278110	0.929560	0.053880
N231	N23	0.169930	0.741170	0.202080
N241	N24	0.053780	0.667880	0.168660
C411	C41	0.208900	0.920680	0.155660
C421	C42	0.261810	0.950940	0.078570
C431	C43	0.159600	0.709110	0.216290
C441	C44	0.078660	0.658200	0.193600
C451	C45	0.217460	0.963680	0.144200
C461	C46	0.241260	0.977650	0.109010
C471	C47	0.147170	0.669250	0.234190
C481	C48	0.110160	0.646650	0.224480
N251	N25	0.798320	0.886320	0.834670
N261	N26	0.721890	0.929560	0.946120
N271	N27	0.830070	0.741170	0.797920
N281	N28	0.946220	0.667880	0.831340
C491	C49	0.791100	0.920680	0.844340
C501	C50	0.738190	0.950940	0.921430
C511	C51	0.840400	0.709110	0.783710
C521	C52	0.921340	0.658200	0.806400
C531	C53	0.782540	0.963680	0.855800
C541	C54	0.758740	0.977650	0.890990
C551	C55	0.852830	0.669250	0.765810
C561	C56	0.889840	0.646650	0.775520
N291	N29	0.798320	0.113680	0.165330
N301	N30	0.721890	0.070440	0.053880
N311	N31	0.830070	0.258830	0.202080
N321	N32	0.946220	0.332120	0.168660
C571	C57	0.791100	0.079320	0.155660
C581	C58	0.738190	0.049060	0.078570
C591	C59	0.840400	0.290890	0.216290
C601	C60	0.921340	0.341800	0.193600
C611	C61	0.782540	0.036320	0.144200
C621	C62	0.758740	0.022350	0.109010
C631	C63	0.852830	0.330750	0.234190
C641	C64	0.889840	0.353350	0.224480
N331	N33	0.834670	0.201680	0.113680
N341	N34	0.946120	0.278110	0.070440
N351	N35	0.797920	0.169930	0.258830
N361	N36	0.831340	0.053780	0.332120
C651	C65	0.844340	0.208900	0.079320
C661	C66	0.921430	0.261810	0.049060
C671	C67	0.783710	0.159600	0.290890
C681	C68	0.806400	0.078660	0.341800
C691	C69	0.855800	0.217460	0.036320
C701	C70	0.890990	0.241260	0.022350
C711	C71	0.765810	0.147170	0.330750
C721	C72	0.775520	0.110160	0.353350
N371	N37	0.165330	0.201680	0.886320
N381	N38	0.053880	0.278110	0.929560
N391	N39	0.202080	0.169930	0.741170
N401	N40	0.168660	0.053780	0.667880
C731	C73	0.155660	0.208900	0.920680
C741	C74	0.078570	0.261810	0.950940
C751	C75	0.216290	0.159600	0.709110
C761	C76	0.193600	0.078660	0.658200
C771	C77	0.144200	0.217460	0.963680
C781	C78	0.109010	0.241260	0.977650
C791	C79	0.234190	0.147170	0.669250
C801	C80	0.224480	0.110160	0.646650
N411	N41	0.834670	0.798320	0.886320
N421	N42	0.946120	0.721890	0.929560
N431	N43	0.797920	0.830070	0.741170
N441	N44	0.831340	0.946220	0.667880
C811	C81	0.844340	0.791100	0.920680
C821	C82	0.921430	0.738190	0.950940
C831	C83	0.783710	0.840400	0.709110
C841	C84	0.806400	0.921340	0.658200
C851	C85	0.855800	0.782540	0.963680
C861	C86	0.890990	0.758740	0.977650
C871	C87	0.765810	0.852830	0.669250
C881	C88	0.775520	0.889840	0.646650
N451	N45	0.165330	0.798320	0.113680
N461	N46	0.053880	0.721890	0.070440
N471	N47	0.202080	0.830070	0.258830
N481	N48	0.168660	0.946220	0.332120
C891	C89	0.155660	0.791100	0.079320
C901	C90	0.078570	0.738190	0.049060
C911	C91	0.216290	0.840400	0.290890
C921	C92	0.193600	0.921340	0.341800
C931	C93	0.144200	0.782540	0.036320
C941	C94	0.109010	0.758740	0.022350
C951	C95	0.234190	0.852830	0.330750
C961	C96	0.224480	0.889840	0.353350
N491	N49	0.334670	0.613680	0.298320
N501	N50	0.446120	0.570440	0.221890
N511	N51	0.297920	0.758830	0.330070
N521	N52	0.331340	0.832120	0.446220
C971	C97	0.344340	0.579320	0.291100
C981	C98	0.421430	0.549060	0.238190
C991	C99	0.283710	0.790890	0.340400
C1001	C100	0.306400	0.841800	0.421340
C1011	C101	0.355800	0.536320	0.282540
C1021	C102	0.390990	0.522350	0.258740
C1031	C103	0.265810	0.830750	0.352830
C1041	C104	0.275520	0.853350	0.389840
N531	N53	0.665330	0.386320	0.298320
N541	N54	0.553880	0.429560	0.221890
N551	N55	0.702080	0.241170	0.330070
N561	N56	0.668660	0.167880	0.446220
C1051	C105	0.655660	0.420680	0.291100
C1061	C106	0.578570	0.450940	0.238190
C1071	C107	0.716290	0.209110	0.340400
C1081	C108	0.693600	0.158200	0.421340
C1091	C109	0.644200	0.463680	0.282540
C1101	C110	0.609010	0.477650	0.258740
C1111	C111	0.734190	0.169250	0.352830
C1121	C112	0.724480	0.146650	0.389840
N571	N57	0.334670	0.386320	0.701680
N581	N58	0.446120	0.429560	0.778110
N591	N59	0.297920	0.241170	0.669930
N601	N60	0.331340	0.167880	0.553780
C1131	C113	0.344340	0.420680	0.708900
C1141	C114	0.421430	0.450940	0.761810
C1151	C115	0.283710	0.209110	0.659600
C1161	C116	0.306400	0.158200	0.578660
C1171	C117	0.355800	0.463680	0.717460
C1181	C118	0.390990	0.477650	0.741260
C1191	C119	0.265810	0.169250	0.647170
C1201	C120	0.275520	0.146650	0.610160
N611	N61	0.665330	0.613680	0.701680
N621	N62	0.553880	0.570440	0.778110
N631	N63	0.702080	0.758830	0.669930
N641	N64	0.668660	0.832120	0.553780
C1211	C121	0.655660	0.579320	0.708900
C1221	C122	0.578570	0.549060	0.761810
C1231	C123	0.716290	0.790890	0.659600
C1241	C124	0.693600	0.841800	0.578660
C1251	C125	0.644200	0.536320	0.717460
C1261	C126	0.609010	0.522350	0.741260
C1271	C127	0.734190	0.830750	0.647170
C1281	C128	0.724480	0.853350	0.610160
N651	N65	0.613680	0.701680	0.665330
N661	N66	0.570440	0.778110	0.553880
N671	N67	0.758830	0.669930	0.702080
N681	N68	0.832120	0.553780	0.668660
C1291	C129	0.579320	0.708900	0.655660
C1301	C130	0.549060	0.761810	0.578570
C1311	C131	0.790890	0.659600	0.716290
C1321	C132	0.841800	0.578660	0.693600
C1331	C133	0.536320	0.717460	0.644200
C1341	C134	0.522350	0.741260	0.609010
C1351	C135	0.830750	0.647170	0.734190
C1361	C136	0.853350	0.610160	0.724480
N691	N69	0.386320	0.701680	0.334670
N701	N70	0.429560	0.778110	0.446120
N711	N71	0.241170	0.669930	0.297920
N721	N72	0.167880	0.553780	0.331340
C1371	C137	0.420680	0.708900	0.344340
C1381	C138	0.450940	0.761810	0.421430
C1391	C139	0.209110	0.659600	0.283710
C1401	C140	0.158200	0.578660	0.306400
C1411	C141	0.463680	0.717460	0.355800
C1421	C142	0.477650	0.741260	0.390990
C1431	C143	0.169250	0.647170	0.265810
C1441	C144	0.146650	0.610160	0.275520
N731	N73	0.386320	0.298320	0.665330
N741	N74	0.429560	0.221890	0.553880
N751	N75	0.241170	0.330070	0.702080
N761	N76	0.167880	0.446220	0.668660
C1451	C145	0.420680	0.291100	0.655660
C1461	C146	0.450940	0.238190	0.578570
C1471	C147	0.209110	0.340400	0.716290
C1481	C148	0.158200	0.421340	0.693600
C1491	C149	0.463680	0.282540	0.644200
C1501	C150	0.477650	0.258740	0.609010
C1511	C151	0.169250	0.352830	0.734190
C1521	C152	0.146650	0.389840	0.724480
N771	N77	0.613680	0.298320	0.334670
N781	N78	0.570440	0.221890	0.446120
N791	N79	0.758830	0.330070	0.297920
N801	N80	0.832120	0.446220	0.331340
C1531	C153	0.579320	0.291100	0.344340
C1541	C154	0.549060	0.238190	0.421430
C1551	C155	0.790890	0.340400	0.283710
C1561	C156	0.841800	0.421340	0.306400
C1571	C157	0.536320	0.282540	0.355800
C1581	C158	0.522350	0.258740	0.390990
C1591	C159	0.830750	0.352830	0.265810
C1601	C160	0.853350	0.389840	0.275520
N811	N81	0.701680	0.334670	0.386320
N821	N82	0.778110	0.446120	0.429560
N831	N83	0.669930	0.297920	0.241170
N841	N84	0.553780	0.331340	0.167880
C1611	C161	0.708900	0.344340	0.420680
C1621	C162	0.761810	0.421430	0.450940
C1631	C163	0.659600	0.283710	0.209110
C1641	C164	0.578660	0.306400	0.158200
C1651	C165	0.717460	0.355800	0.463680
C1661	C166	0.741260	0.390990	0.477650
C1671	C167	0.647170	0.265810	0.169250
C1681	C168	0.610160	0.275520	0.146650
N851	N85	0.701680	0.665330	0.613680
N861	N86	0.778110	0.553880	0.570440
N871	N87	0.669930	0.702080	0.758830
N881	N88	0.553780	0.668660	0.832120
C1691	C169	0.708900	0.655660	0.579320
C1701	C170	0.761810	0.578570	0.549060
C1711	C171	0.659600	0.716290	0.790890
C1721	C172	0.578660	0.693600	0.841800
C1731	C173	0.717460	0.644200	0.536320
C1741	C174	0.741260	0.609010	0.522350
C1751	C175	0.647170	0.734190	0.830750
C1761	C176	0.610160	0.724480	0.853350
N891	N89	0.298320	0.334670	0.613680
N901	N90	0.221890	0.446120	0.570440
N911	N91	0.330070	0.297920	0.758830
N921	N92	0.446220	0.331340	0.832120
C1771	C177	0.291100	0.344340	0.579320
C1781	C178	0.238190	0.421430	0.549060
C1791	C179	0.340400	0.283710	0.790890
C1801	C180	0.421340	0.306400	0.841800
C1811	C181	0.282540	0.355800	0.536320
C1821	C182	0.258740	0.390990	0.522350
C1831	C183	0.352830	0.265810	0.830750
C1841	C184	0.389840	0.275520	0.853350
N931	N93	0.298320	0.665330	0.386320
N941	N94	0.221890	0.553880	0.429560
N951	N95	0.330070	0.702080	0.241170
N961	N96	0.446220	0.668660	0.167880
C1851	C185	0.291100	0.655660	0.420680
C1861	C186	0.238190	0.578570	0.450940
C1871	C187	0.340400	0.716290	0.209110
C1881	C188	0.421340	0.693600	0.158200
C1891	C189	0.282540	0.644200	0.463680
C1901	C190	0.258740	0.609010	0.477650
C1911	C191	0.352830	0.734190	0.169250
C1921	C192	0.389840	0.724480	0.146650
N971	N97	0.886320	0.165330	0.798320
N981	N98	0.929560	0.053880	0.721890
N991	N99	0.741170	0.202080	0.830070
N1001	N100	0.667880	0.168660	0.946220
C1931	C193	0.920680	0.155660	0.791100
C1941	C194	0.950940	0.078570	0.738190
C1951	C195	0.709110	0.216290	0.840400
C1961	C196	0.658200	0.193600	0.921340
C1971	C197	0.963680	0.144200	0.782540
C1981	C198	0.977650	0.109010	0.758740
C1991	C199	0.669250	0.234190	0.852830
C2001	C200	0.646650	0.224480	0.889840
N1011	N101	0.113680	0.834670	0.798320
N1021	N102	0.070440	0.946120	0.721890
N1031	N103	0.258830	0.797920	0.830070
N1041	N104	0.332120	0.831340	0.946220
C2011	C201	0.079320	0.844340	0.791100
C2021	C202	0.049060	0.921430	0.738190
C2031	C203	0.290890	0.783710	0.840400
C2041	C204	0.341800	0.806400	0.921340
C2051	C205	0.036320	0.855800	0.782540
C2061	C206	0.022350	0.890990	0.758740
C2071	C207	0.330750	0.765810	0.852830
C2081	C208	0.353350	0.775520	0.889840
N1051	N105	0.113680	0.165330	0.201680
N1061	N106	0.070440	0.053880	0.278110
N1071	N107	0.258830	0.202080	0.169930
N1081	N108	0.332120	0.168660	0.053780
C2091	C209	0.079320	0.155660	0.208900
C2101	C210	0.049060	0.078570	0.261810
C2111	C211	0.290890	0.216290	0.159600
C2121	C212	0.341800	0.193600	0.078660
C2131	C213	0.036320	0.144200	0.217460
C2141	C214	0.022350	0.109010	0.241260
C2151	C215	0.330750	0.234190	0.147170
C2161	C216	0.353350	0.224480	0.110160
N1091	N109	0.886320	0.834670	0.201680
N1101	N110	0.929560	0.946120	0.278110
N1111	N111	0.741170	0.797920	0.169930
N1121	N112	0.667880	0.831340	0.053780
C2171	C217	0.920680	0.844340	0.208900
C2181	C218	0.950940	0.921430	0.261810
C2191	C219	0.709110	0.783710	0.159600
C2201	C220	0.658200	0.806400	0.078660
C2211	C221	0.963680	0.855800	0.217460
C2221	C222	0.977650	0.890990	0.241260
C2231	C223	0.669250	0.765810	0.147170
C2241	C224	0.646650	0.775520	0.110160
N1131	N113	0.798320	0.886320	0.165330
N1141	N114	0.721890	0.929560	0.053880
N1151	N115	0.830070	0.741170	0.202080
N1161	N116	0.946220	0.667880	0.168660
C2251	C225	0.791100	0.920680	0.155660
C2261	C226	0.738190	0.950940	0.078570
C2271	C227	0.840400	0.709110	0.216290
C2281	C228	0.921340	0.658200	0.193600
C2291	C229	0.782540	0.963680	0.144200
C2301	C230	0.758740	0.977650	0.109010
C2311	C231	0.852830	0.669250	0.234190
C2321	C232	0.889840	0.646650	0.224480
N1171	N117	0.798320	0.113680	0.834670
N1181	N118	0.721890	0.070440	0.946120
N1191	N119	0.830070	0.258830	0.797920
N1201	N120	0.946220	0.332120	0.831340
C2331	C233	0.791100	0.079320	0.844340
C2341	C234	0.738190	0.049060	0.921430
C2351	C235	0.840400	0.290890	0.783710
C2361	C236	0.921340	0.341800	0.806400
C2371	C237	0.782540	0.036320	0.855800
C2381	C238	0.758740	0.022350	0.890990
C2391	C239	0.852830	0.330750	0.765810
C2401	C240	0.889840	0.353350	0.775520
N1211	N121	0.201680	0.113680	0.165330
N1221	N122	0.278110	0.070440	0.053880
N1231	N123	0.169930	0.258830	0.202080
N1241	N124	0.053780	0.332120	0.168660
C2411	C241	0.208900	0.079320	0.155660
C2421	C242	0.261810	0.049060	0.078570
C2431	C243	0.159600	0.290890	0.216290
C2441	C244	0.078660	0.341800	0.193600
C2451	C245	0.217460	0.036320	0.144200
C2461	C246	0.241260	0.022350	0.109010
C2471	C247	0.147170	0.330750	0.234190
C2481	C248	0.110160	0.353350	0.224480
N1251	N125	0.201680	0.886320	0.834670
N1261	N126	0.278110	0.929560	0.946120
N1271	N127	0.169930	0.741170	0.797920
N1281	N128	0.053780	0.667880	0.831340
C2491	C249	0.208900	0.920680	0.844340
C2501	C250	0.261810	0.950940	0.921430
C2511	C251	0.159600	0.709110	0.783710
C2521	C252	0.078660	0.658200	0.806400
C2531	C253	0.217460	0.963680	0.855800
C2541	C254	0.241260	0.977650	0.890990
C2551	C255	0.147170	0.669250	0.765810
C2561	C256	0.110160	0.646650	0.775520
N1291	N129	0.165330	0.798320	0.886320
N1301	N130	0.053880	0.721890	0.929560
N1311	N131	0.202080	0.830070	0.741170
N1321	N132	0.168660	0.946220	0.667880
C2571	C257	0.155660	0.791100	0.920680
C2581	C258	0.078570	0.738190	0.950940
C2591	C259	0.216290	0.840400	0.709110
C2601	C260	0.193600	0.921340	0.658200
C2611	C261	0.144200	0.782540	0.963680
C2621	C262	0.109010	0.758740	0.977650
C2631	C263	0.234190	0.852830	0.669250
C2641	C264	0.224480	0.889840	0.646650
N1331	N133	0.834670	0.798320	0.113680
N1341	N134	0.946120	0.721890	0.070440
N1351	N135	0.797920	0.830070	0.258830
N1361	N136	0.831340	0.946220	0.332120
C2651	C265	0.844340	0.791100	0.079320
C2661	C266	0.921430	0.738190	0.049060
C2671	C267	0.783710	0.840400	0.290890
C2681	C268	0.806400	0.921340	0.341800
C2691	C269	0.855800	0.782540	0.036320
C2701	C270	0.890990	0.758740	0.022350
C2711	C271	0.765810	0.852830	0.330750
C2721	C272	0.775520	0.889840	0.353350
N1371	N137	0.165330	0.201680	0.113680
N1381	N138	0.053880	0.278110	0.070440
N1391	N139	0.202080	0.169930	0.258830
N1401	N140	0.168660	0.053780	0.332120
C2731	C273	0.155660	0.208900	0.079320
C2741	C274	0.078570	0.261810	0.049060
C2751	C275	0.216290	0.159600	0.290890
C2761	C276	0.193600	0.078660	0.341800
C2771	C277	0.144200	0.217460	0.036320
C2781	C278	0.109010	0.241260	0.022350
C2791	C279	0.234190	0.147170	0.330750
C2801	C280	0.224480	0.110160	0.353350
N1411	N141	0.834670	0.201680	0.886320
N1421	N142	0.946120	0.278110	0.929560
N1431	N143	0.797920	0.169930	0.741170
N1441	N144	0.831340	0.053780	0.667880
C2811	C281	0.844340	0.208900	0.920680
C2821	C282	0.921430	0.261810	0.950940
C2831	C283	0.783710	0.159600	0.709110
C2841	C284	0.806400	0.078660	0.658200
C2851	C285	0.855800	0.217460	0.963680
C2861	C286	0.890990	0.241260	0.977650
C2871	C287	0.765810	0.147170	0.669250
C2881	C288	0.775520	0.110160	0.646650
N1451	N145	0.665330	0.386320	0.701680
N1461	N146	0.553880	0.429560	0.778110
N1471	N147	0.702080	0.241170	0.669930
N1481	N148	0.668660	0.167880	0.553780
C2891	C289	0.655660	0.420680	0.708900
C2901	C290	0.578570	0.450940	0.761810
C2911	C291	0.716290	0.209110	0.659600
C2921	C292	0.693600	0.158200	0.578660
C2931	C293	0.644200	0.463680	0.717460
C2941	C294	0.609010	0.477650	0.741260
C2951	C295	0.734190	0.169250	0.647170
C2961	C296	0.724480	0.146650	0.610160
N1491	N149	0.334670	0.613680	0.701680
N1501	N150	0.446120	0.570440	0.778110
N1511	N151	0.297920	0.758830	0.669930
N1521	N152	0.331340	0.832120	0.553780
C2971	C297	0.344340	0.579320	0.708900
C2981	C298	0.421430	0.549060	0.761810
C2991	C299	0.283710	0.790890	0.659600
C3001	C300	0.306400	0.841800	0.578660
C3011	C301	0.355800	0.536320	0.717460
C3021	C302	0.390990	0.522350	0.741260
C3031	C303	0.265810	0.830750	0.647170
C3041	C304	0.275520	0.853350	0.610160
N1531	N153	0.665330	0.613680	0.298320
N1541	N154	0.553880	0.570440	0.221890
N1551	N155	0.702080	0.758830	0.330070
N1561	N156	0.668660	0.832120	0.446220
C3051	C305	0.655660	0.579320	0.291100
C3061	C306	0.578570	0.549060	0.238190
C3071	C307	0.716290	0.790890	0.340400
C3081	C308	0.693600	0.841800	0.421340
C3091	C309	0.644200	0.536320	0.282540
C3101	C310	0.609010	0.522350	0.258740
C3111	C311	0.734190	0.830750	0.352830
C3121	C312	0.724480	0.853350	0.389840
N1571	N157	0.334670	0.386320	0.298320
N1581	N158	0.446120	0.429560	0.221890
N1591	N159	0.297920	0.241170	0.330070
N1601	N160	0.331340	0.167880	0.446220
C3131	C313	0.344340	0.420680	0.291100
C3141	C314	0.421430	0.450940	0.238190
C3151	C315	0.283710	0.209110	0.340400
C3161	C316	0.306400	0.158200	0.421340
C3171	C317	0.355800	0.463680	0.282540
C3181	C318	0.390990	0.477650	0.258740
C3191	C319	0.265810	0.169250	0.352830
C3201	C320	0.275520	0.146650	0.389840
N1611	N161	0.386320	0.298320	0.334670
N1621	N162	0.429560	0.221890	0.446120
N1631	N163	0.241170	0.330070	0.297920
N1641	N164	0.167880	0.446220	0.331340
C3211	C321	0.420680	0.291100	0.344340
C3221	C322	0.450940	0.238190	0.421430
C3231	C323	0.209110	0.340400	0.283710
C3241	C324	0.158200	0.421340	0.306400
C3251	C325	0.463680	0.282540	0.355800
C3261	C326	0.477650	0.258740	0.390990
C3271	C327	0.169250	0.352830	0.265810
C3281	C328	0.146650	0.389840	0.275520
N1651	N165	0.613680	0.298320	0.665330
N1661	N166	0.570440	0.221890	0.553880
N1671	N167	0.758830	0.330070	0.702080
N1681	N168	0.832120	0.446220	0.668660
C3291	C329	0.579320	0.291100	0.655660
C3301	C330	0.549060	0.238190	0.578570
C3311	C331	0.790890	0.340400	0.716290
C3321	C332	0.841800	0.421340	0.693600
C3331	C333	0.536320	0.282540	0.644200
C3341	C334	0.522350	0.258740	0.609010
C3351	C335	0.830750	0.352830	0.734190
C3361	C336	0.853350	0.389840	0.724480
N1691	N169	0.613680	0.701680	0.334670
N1701	N170	0.570440	0.778110	0.446120
N1711	N171	0.758830	0.669930	0.297920
N1721	N172	0.832120	0.553780	0.331340
C3371	C337	0.579320	0.708900	0.344340
C3381	C338	0.549060	0.761810	0.421430
C3391	C339	0.790890	0.659600	0.283710
C3401	C340	0.841800	0.578660	0.306400
C3411	C341	0.536320	0.717460	0.355800
C3421	C342	0.522350	0.741260	0.390990
C3431	C343	0.830750	0.647170	0.265810
C3441	C344	0.853350	0.610160	0.275520
N1731	N173	0.386320	0.701680	0.665330
N1741	N174	0.429560	0.778110	0.553880
N1751	N175	0.241170	0.669930	0.702080
N1761	N176	0.167880	0.553780	0.668660
C3451	C345	0.420680	0.708900	0.655660
C3461	C346	0.450940	0.761810	0.578570
C3471	C347	0.209110	0.659600	0.716290
C3481	C348	0.158200	0.578660	0.693600
C3491	C349	0.463680	0.717460	0.644200
C3501	C350	0.477650	0.741260	0.609010
C3511	C351	0.169250	0.647170	0.734190
C3521	C352	0.146650	0.610160	0.724480
N1771	N177	0.298320	0.665330	0.613680
N1781	N178	0.221890	0.553880	0.570440
N1791	N179	0.330070	0.702080	0.758830
N1801	N180	0.446220	0.668660	0.832120
C3531	C353	0.291100	0.655660	0.579320
C3541	C354	0.238190	0.578570	0.549060
C3551	C355	0.340400	0.716290	0.790890
C3561	C356	0.421340	0.693600	0.841800
C3571	C357	0.282540	0.644200	0.536320
C3581	C358	0.258740	0.609010	0.522350
C3591	C359	0.352830	0.734190	0.830750
C3601	C360	0.389840	0.724480	0.853350
N1811	N181	0.298320	0.334670	0.386320
N1821	N182	0.221890	0.446120	0.429560
N1831	N183	0.330070	0.297920	0.241170
N1841	N184	0.446220	0.331340	0.167880
C3611	C361	0.291100	0.344340	0.420680
C3621	C362	0.238190	0.421430	0.450940
C3631	C363	0.340400	0.283710	0.209110
C3641	C364	0.421340	0.306400	0.158200
C3651	C365	0.282540	0.355800	0.463680
C3661	C366	0.258740	0.390990	0.477650
C3671	C367	0.352830	0.265810	0.169250
C3681	C368	0.389840	0.275520	0.146650
N1851	N185	0.701680	0.665330	0.386320
N1861	N186	0.778110	0.553880	0.429560
N1871	N187	0.669930	0.702080	0.241170
N1881	N188	0.553780	0.668660	0.167880
C3691	C369	0.708900	0.655660	0.420680
C3701	C370	0.761810	0.578570	0.450940
C3711	C371	0.659600	0.716290	0.209110
C3721	C372	0.578660	0.693600	0.158200
C3731	C373	0.717460	0.644200	0.463680
C3741	C374	0.741260	0.609010	0.477650
C3751	C375	0.647170	0.734190	0.169250
C3761	C376	0.610160	0.724480	0.146650
N1891	N189	0.701680	0.334670	0.613680
N1901	N190	0.778110	0.446120	0.570440
N1911	N191	0.669930	0.297920	0.758830
N1921	N192	0.553780	0.331340	0.832120
C3771	C377	0.708900	0.344340	0.579320
C3781	C378	0.761810	0.421430	0.549060
C3791	C379	0.659600	0.283710	0.790890
C3801	C380	0.578660	0.306400	0.841800
C3811	C381	0.717460	0.355800	0.536320
C3821	C382	0.741260	0.390990	0.522350
C3831	C383	0.647170	0.265810	0.830750
C3841	C384	0.610160	0.275520	0.853350
Na11	Na1	0.185620	0.814380	0.185620
Na21	Na2	0.814380	0.185620	0.185620
Na31	Na3	0.814380	0.814380	0.814380
Na41	Na4	0.185620	0.185620	0.814380
Na51	Na5	0.314380	0.685620	0.314380
Na61	Na6	0.685620	0.314380	0.314380
Na71	Na7	0.314380	0.314380	0.685620
Na81	Na8	0.685620	0.685620	0.685620
Na91	Na9	0.814380	0.185620	0.814380
Na101	Na10	0.185620	0.814380	0.814380
Na111	Na11	0.185620	0.185620	0.185620
Na121	Na12	0.814380	0.814380	0.185620
Na131	Na13	0.685620	0.314380	0.685620
Na141	Na14	0.314380	0.685620	0.685620
Na151	Na15	0.685620	0.685620	0.314380
Na161	Na16	0.314380	0.314380	0.314380
Na171	Na17	0.304620	0.879660	0.000000
O11	O1	0.374800	0.916300	0.000000
C3851	C385	0.373400	0.960800	0.000000
C3861	C386	0.416300	0.900100	0.000000
C3871	C387	0.438900	0.857700	0.000000
Na181	Na18	0.695380	0.120340	0.000000
O21	O2	0.625200	0.083700	0.000000
C3881	C388	0.626600	0.039200	0.000000
C3891	C389	0.583700	0.099900	0.000000
C3901	C390	0.561100	0.142300	0.000000
Na191	Na19	0.695380	0.879660	0.000000
O31	O3	0.625200	0.916300	0.000000
C3911	C391	0.626600	0.960800	0.000000
C3921	C392	0.583700	0.900100	0.000000
C3931	C393	0.561100	0.857700	0.000000
Na201	Na20	0.304620	0.120340	0.000000
O41	O4	0.374800	0.083700	0.000000
C3941	C394	0.373400	0.039200	0.000000
C3951	C395	0.416300	0.099900	0.000000
C3961	C396	0.438900	0.142300	0.000000
Na211	Na21	0.000000	0.304620	0.879660
O51	O5	0.000000	0.374800	0.916300
C3971	C397	0.000000	0.373400	0.960800
C3981	C398	0.000000	0.416300	0.900100
C3991	C399	0.000000	0.438900	0.857700
Na221	Na22	0.000000	0.695380	0.120340
O61	O6	0.000000	0.625200	0.083700
C4001	C400	0.000000	0.626600	0.039200
C4011	C401	0.000000	0.583700	0.099900
C4021	C402	0.000000	0.561100	0.142300
Na231	Na23	0.000000	0.695380	0.879660
O71	O7	0.000000	0.625200	0.916300
C4031	C403	0.000000	0.626600	0.960800
C4041	C404	0.000000	0.583700	0.900100
C4051	C405	0.000000	0.561100	0.857700
Na241	Na24	0.000000	0.304620	0.120340
O81	O8	0.000000	0.374800	0.083700
C4061	C406	0.000000	0.373400	0.039200
C4071	C407	0.000000	0.416300	0.099900
C4081	C408	0.000000	0.438900	0.142300
Na251	Na25	0.879660	0.000000	0.304620
O91	O9	0.916300	0.000000	0.374800
C4091	C409	0.960800	0.000000	0.373400
C4101	C410	0.900100	0.000000	0.416300
C4111	C411	0.857700	0.000000	0.438900
Na261	Na26	0.120340	0.000000	0.695380
O101	O10	0.083700	0.000000	0.625200
C4121	C412	0.039200	0.000000	0.626600
C4131	C413	0.099900	0.000000	0.583700
C4141	C414	0.142300	0.000000	0.561100
Na271	Na27	0.879660	0.000000	0.695380
O111	O11	0.916300	0.000000	0.625200
C4151	C415	0.960800	0.000000	0.626600
C4161	C416	0.900100	0.000000	0.583700
C4171	C417	0.857700	0.000000	0.561100
Na281	Na28	0.120340	0.000000	0.304620
O121	O12	0.083700	0.000000	0.374800
C4181	C418	0.039200	0.000000	0.373400
C4191	C419	0.099900	0.000000	0.416300
C4201	C420	0.142300	0.000000	0.438900
Na291	Na29	0.379660	0.804620	0.500000
O131	O13	0.416300	0.874800	0.500000
C4211	C421	0.460800	0.873400	0.500000
C4221	C422	0.400100	0.916300	0.500000
C4231	C423	0.357700	0.938900	0.500000
Na301	Na30	0.620340	0.195380	0.500000
O141	O14	0.583700	0.125200	0.500000
C4241	C424	0.539200	0.126600	0.500000
C4251	C425	0.599900	0.083700	0.500000
C4261	C426	0.642300	0.061100	0.500000
Na311	Na31	0.379660	0.195380	0.500000
O151	O15	0.416300	0.125200	0.500000
C4271	C427	0.460800	0.126600	0.500000
C4281	C428	0.400100	0.083700	0.500000
C4291	C429	0.357700	0.061100	0.500000
Na321	Na32	0.620340	0.804620	0.500000
O161	O16	0.583700	0.874800	0.500000
C4301	C430	0.539200	0.873400	0.500000
C4311	C431	0.599900	0.916300	0.500000
C4321	C432	0.642300	0.938900	0.500000
Na331	Na33	0.804620	0.500000	0.620340
O171	O17	0.874800	0.500000	0.583700
C4331	C433	0.873400	0.500000	0.539200
C4341	C434	0.916300	0.500000	0.599900
C4351	C435	0.938900	0.500000	0.642300
Na341	Na34	0.195380	0.500000	0.379660
O181	O18	0.125200	0.500000	0.416300
C4361	C436	0.126600	0.500000	0.460800
C4371	C437	0.083700	0.500000	0.400100
C4381	C438	0.061100	0.500000	0.357700
Na351	Na35	0.195380	0.500000	0.620340
O191	O19	0.125200	0.500000	0.583700
C4391	C439	0.126600	0.500000	0.539200
C4401	C440	0.083700	0.500000	0.599900
C4411	C441	0.061100	0.500000	0.642300
Na361	Na36	0.804620	0.500000	0.379660
O201	O20	0.874800	0.500000	0.416300
C4421	C442	0.873400	0.500000	0.460800
C4431	C443	0.916300	0.500000	0.400100
C4441	C444	0.938900	0.500000	0.357700
Na371	Na37	0.500000	0.379660	0.195380
O211	O21	0.500000	0.416300	0.125200
C4451	C445	0.500000	0.460800	0.126600
C4461	C446	0.500000	0.400100	0.083700
C4471	C447	0.500000	0.357700	0.061100
Na381	Na38	0.500000	0.620340	0.804620
O221	O22	0.500000	0.583700	0.874800
C4481	C448	0.500000	0.539200	0.873400
C4491	C449	0.500000	0.599900	0.916300
C4501	C450	0.500000	0.642300	0.938900
Na391	Na39	0.500000	0.379660	0.804620
O231	O23	0.500000	0.416300	0.874800
C4511	C451	0.500000	0.460800	0.873400
C4521	C452	0.500000	0.400100	0.916300
C4531	C453	0.500000	0.357700	0.938900
Na401	Na40	0.500000	0.620340	0.195380
O241	O24	0.500000	0.583700	0.125200
C4541	C454	0.500000	0.539200	0.126600
C4551	C455	0.500000	0.599900	0.083700
C4561	C456	0.500000	0.642300	0.061100
Na411	Na41	0.500000	0.769200	0.000000
Na421	Na42	0.500000	0.230800	0.000000
Na431	Na43	0.000000	0.500000	0.769200
Na441	Na44	0.000000	0.500000	0.230800
Na451	Na45	0.769200	0.000000	0.500000
Na461	Na46	0.230800	0.000000	0.500000
Na471	Na47	0.269200	0.000000	0.500000
Na481	Na48	0.730800	0.000000	0.500000
Na491	Na49	0.000000	0.500000	0.730800
Na501	Na50	0.000000	0.500000	0.269200
Na511	Na51	0.500000	0.269200	0.000000
Na521	Na52	0.500000	0.730800	0.000000
N1931	N193	0.000000	0.765500	0.157600
C4571	C457	0.000000	0.796000	0.177300
C4581	C458	0.000000	0.834000	0.202400
N1941	N194	0.000000	0.234500	0.157600
C4591	C459	0.000000	0.204000	0.177300
C4601	C460	0.000000	0.166000	0.202400
N1951	N195	0.000000	0.765500	0.842400
C4611	C461	0.000000	0.796000	0.822700
C4621	C462	0.000000	0.834000	0.797600
N1961	N196	0.000000	0.234500	0.842400
C4631	C463	0.000000	0.204000	0.822700
C4641	C464	0.000000	0.166000	0.797600
N1971	N197	0.157600	0.000000	0.765500
C4651	C465	0.177300	0.000000	0.796000
C4661	C466	0.202400	0.000000	0.834000
N1981	N198	0.157600	0.000000	0.234500
C4671	C467	0.177300	0.000000	0.204000
C4681	C468	0.202400	0.000000	0.166000
N1991	N199	0.842400	0.000000	0.765500
C4691	C469	0.822700	0.000000	0.796000
C4701	C470	0.797600	0.000000	0.834000
N2001	N200	0.842400	0.000000	0.234500
C4711	C471	0.822700	0.000000	0.204000
C4721	C472	0.797600	0.000000	0.166000
N2011	N201	0.765500	0.157600	0.000000
C4731	C473	0.796000	0.177300	0.000000
C4741	C474	0.834000	0.202400	0.000000
N2021	N202	0.234500	0.157600	0.000000
C4751	C475	0.204000	0.177300	0.000000
C4761	C476	0.166000	0.202400	0.000000
N2031	N203	0.765500	0.842400	0.000000
C4771	C477	0.796000	0.822700	0.000000
C4781	C478	0.834000	0.797600	0.000000
N2041	N204	0.234500	0.842400	0.000000
C4791	C479	0.204000	0.822700	0.000000
C4801	C480	0.166000	0.797600	0.000000
N2051	N205	0.265500	0.500000	0.342400
C4811	C481	0.296000	0.500000	0.322700
C4821	C482	0.334000	0.500000	0.297600
N2061	N206	0.734500	0.500000	0.342400
C4831	C483	0.704000	0.500000	0.322700
C4841	C484	0.666000	0.500000	0.297600
N2071	N207	0.265500	0.500000	0.657600
C4851	C485	0.296000	0.500000	0.677300
C4861	C486	0.334000	0.500000	0.702400
N2081	N208	0.734500	0.500000	0.657600
C4871	C487	0.704000	0.500000	0.677300
C4881	C488	0.666000	0.500000	0.702400
N2091	N209	0.500000	0.657600	0.734500
C4891	C489	0.500000	0.677300	0.704000
C4901	C490	0.500000	0.702400	0.666000
N2101	N210	0.500000	0.657600	0.265500
C4911	C491	0.500000	0.677300	0.296000
C4921	C492	0.500000	0.702400	0.334000
N2111	N211	0.500000	0.342400	0.734500
C4931	C493	0.500000	0.322700	0.704000
C4941	C494	0.500000	0.297600	0.666000
N2121	N212	0.500000	0.342400	0.265500
C4951	C495	0.500000	0.322700	0.296000
C4961	C496	0.500000	0.297600	0.334000
N2131	N213	0.657600	0.265500	0.500000
C4971	C497	0.677300	0.296000	0.500000
C4981	C498	0.702400	0.334000	0.500000
N2141	N214	0.657600	0.734500	0.500000
C4991	C499	0.677300	0.704000	0.500000
C5001	C500	0.702400	0.666000	0.500000
N2151	N215	0.342400	0.265500	0.500000
C5011	C501	0.322700	0.296000	0.500000
C5021	C502	0.297600	0.334000	0.500000
N2161	N216	0.342400	0.734500	0.500000
C5031	C503	0.322700	0.704000	0.500000
C5041	C504	0.297600	0.666000	0.500000
N2171	N217	0.448370	0.750000	0.051630
C5051	C505	0.422400	0.750000	0.077600
C5061	C506	0.390090	0.750000	0.109910
N2181	N218	0.551630	0.250000	0.051630
C5071	C507	0.577600	0.250000	0.077600
C5081	C508	0.609910	0.250000	0.109910
N2191	N219	0.551630	0.750000	0.948370
C5091	C509	0.577600	0.750000	0.922400
C5101	C510	0.609910	0.750000	0.890090
N2201	N220	0.448370	0.250000	0.948370
C5111	C511	0.422400	0.250000	0.922400
C5121	C512	0.390090	0.250000	0.890090
N2211	N221	0.051630	0.448370	0.750000
C5131	C513	0.077600	0.422400	0.750000
C5141	C514	0.109910	0.390090	0.750000
N2221	N222	0.051630	0.551630	0.250000
C5151	C515	0.077600	0.577600	0.250000
C5161	C516	0.109910	0.609910	0.250000
N2231	N223	0.948370	0.551630	0.750000
C5171	C517	0.922400	0.577600	0.750000
C5181	C518	0.890090	0.609910	0.750000
N2241	N224	0.948370	0.448370	0.250000
C5191	C519	0.922400	0.422400	0.250000
C5201	C520	0.890090	0.390090	0.250000
N2251	N225	0.750000	0.051630	0.448370
C5211	C521	0.750000	0.077600	0.422400
C5221	C522	0.750000	0.109910	0.390090
N2261	N226	0.250000	0.051630	0.551630
C5231	C523	0.250000	0.077600	0.577600
C5241	C524	0.250000	0.109910	0.609910
N2271	N227	0.750000	0.948370	0.551630
C5251	C525	0.750000	0.922400	0.577600
C5261	C526	0.750000	0.890090	0.609910
N2281	N228	0.250000	0.948370	0.448370
C5271	C527	0.250000	0.922400	0.422400
C5281	C528	0.250000	0.890090	0.390090
N2291	N229	0.551630	0.250000	0.948370
C5291	C529	0.577600	0.250000	0.922400
C5301	C530	0.609910	0.250000	0.890090
N2301	N230	0.448370	0.750000	0.948370
C5311	C531	0.422400	0.750000	0.922400
C5321	C532	0.390090	0.750000	0.890090
N2311	N231	0.448370	0.250000	0.051630
C5331	C533	0.422400	0.250000	0.077600
C5341	C534	0.390090	0.250000	0.109910
N2321	N232	0.551630	0.750000	0.051630
C5351	C535	0.577600	0.750000	0.077600
C5361	C536	0.609910	0.750000	0.109910
N2331	N233	0.948370	0.551630	0.250000
C5371	C537	0.922400	0.577600	0.250000
C5381	C538	0.890090	0.609910	0.250000
N2341	N234	0.948370	0.448370	0.750000
C5391	C539	0.922400	0.422400	0.750000
C5401	C540	0.890090	0.390090	0.750000
N2351	N235	0.051630	0.448370	0.250000
C5411	C541	0.077600	0.422400	0.250000
C5421	C542	0.109910	0.390090	0.250000
N2361	N236	0.051630	0.551630	0.750000
C5431	C543	0.077600	0.577600	0.750000
C5441	C544	0.109910	0.609910	0.750000
N2371	N237	0.250000	0.948370	0.551630
C5451	C545	0.250000	0.922400	0.577600
C5461	C546	0.250000	0.890090	0.609910
N2381	N238	0.750000	0.948370	0.448370
C5471	C547	0.750000	0.922400	0.422400
C5481	C548	0.750000	0.890090	0.390090
N2391	N239	0.250000	0.051630	0.448370
C5491	C549	0.250000	0.077600	0.422400
C5501	C550	0.250000	0.109910	0.390090
N2401	N240	0.750000	0.051630	0.551630
C5511	C551	0.750000	0.077600	0.577600
C5521	C552	0.750000	0.109910	0.609910
C5531	C553	0.345900	0.000000	0.000000
C5541	C554	0.654100	0.000000	0.000000
C5551	C555	0.000000	0.345900	0.000000
C5561	C556	0.000000	0.654100	0.000000
C5571	C557	0.000000	0.000000	0.345900
C5581	C558	0.000000	0.000000	0.654100
C5591	C559	0.500000	0.845900	0.500000
C5601	C560	0.500000	0.154100	0.500000
C5611	C561	0.845900	0.500000	0.500000
C5621	C562	0.154100	0.500000	0.500000
C5631	C563	0.500000	0.500000	0.154100
C5641	C564	0.500000	0.500000	0.845900
