data_IYUQID_clean_PM
_symmetry_space_group_name_H-M	'P1'
_cell_length_a	31.251000
_cell_length_b	31.251000
_cell_length_c	31.251000
_cell_angle_alpha	90.000000
_cell_angle_beta	90.000000
_cell_angle_gamma	90.000000
_symmetry_Int_Tables_number 1

loop_
_symmetry_equiv_pos_as_xyz
'x,y,z'

loop_
_atom_site_label
_atom_site_type_symbol
_atom_site_fract_x
_atom_site_fract_y
_atom_site_fract_z
N11	N1	0.334620	0.613750	0.298590
N21	N2	0.445930	0.570480	0.221460
N31	N3	0.297770	0.759010	0.329970
N41	N4	0.331250	0.832000	0.446210
C11	C1	0.344150	0.579350	0.291330
C21	C2	0.421400	0.549060	0.237940
C31	C3	0.283770	0.791080	0.340190
C41	C4	0.306180	0.841840	0.421370
C51	C5	0.355950	0.536210	0.282730
C61	C6	0.391080	0.522260	0.259010
C71	C7	0.265770	0.830560	0.352800
C81	C8	0.275630	0.853590	0.389930
N51	N5	0.665380	0.386250	0.298590
N61	N6	0.554070	0.429520	0.221460
N71	N7	0.702230	0.240990	0.329970
N81	N8	0.668750	0.168000	0.446210
C91	C9	0.655850	0.420650	0.291330
C101	C10	0.578600	0.450940	0.237940
C111	C11	0.716230	0.208920	0.340190
C121	C12	0.693820	0.158160	0.421370
C131	C13	0.644050	0.463790	0.282730
C141	C14	0.608920	0.477740	0.259010
C151	C15	0.734230	0.169440	0.352800
C161	C16	0.724370	0.146410	0.389930
N91	N9	0.665380	0.613750	0.701410
N101	N10	0.554070	0.570480	0.778540
N111	N11	0.702230	0.759010	0.670030
N121	N12	0.668750	0.832000	0.553790
C171	C17	0.655850	0.579350	0.708670
C181	C18	0.578600	0.549060	0.762060
C191	C19	0.716230	0.791080	0.659810
C201	C20	0.693820	0.841840	0.578630
C211	C21	0.644050	0.536210	0.717270
C221	C22	0.608920	0.522260	0.740990
C231	C23	0.734230	0.830560	0.647200
C241	C24	0.724370	0.853590	0.610070
N131	N13	0.334620	0.386250	0.701410
N141	N14	0.445930	0.429520	0.778540
N151	N15	0.297770	0.240990	0.670030
N161	N16	0.331250	0.168000	0.553790
C251	C25	0.344150	0.420650	0.708670
C261	C26	0.421400	0.450940	0.762060
C271	C27	0.283770	0.208920	0.659810
C281	C28	0.306180	0.158160	0.578630
C291	C29	0.355950	0.463790	0.717270
C301	C30	0.391080	0.477740	0.740990
C311	C31	0.265770	0.169440	0.647200
C321	C32	0.275630	0.146410	0.610070
N171	N17	0.298590	0.334620	0.613750
N181	N18	0.221460	0.445930	0.570480
N191	N19	0.329970	0.297770	0.759010
N201	N20	0.446210	0.331250	0.832000
C331	C33	0.291330	0.344150	0.579350
C341	C34	0.237940	0.421400	0.549060
C351	C35	0.340190	0.283770	0.791080
C361	C36	0.421370	0.306180	0.841840
C371	C37	0.282730	0.355950	0.536210
C381	C38	0.259010	0.391080	0.522260
C391	C39	0.352800	0.265770	0.830560
C401	C40	0.389930	0.275630	0.853590
N211	N21	0.298590	0.665380	0.386250
N221	N22	0.221460	0.554070	0.429520
N231	N23	0.329970	0.702230	0.240990
N241	N24	0.446210	0.668750	0.168000
C411	C41	0.291330	0.655850	0.420650
C421	C42	0.237940	0.578600	0.450940
C431	C43	0.340190	0.716230	0.208920
C441	C44	0.421370	0.693820	0.158160
C451	C45	0.282730	0.644050	0.463790
C461	C46	0.259010	0.608920	0.477740
C471	C47	0.352800	0.734230	0.169440
C481	C48	0.389930	0.724370	0.146410
N251	N25	0.701410	0.665380	0.613750
N261	N26	0.778540	0.554070	0.570480
N271	N27	0.670030	0.702230	0.759010
N281	N28	0.553790	0.668750	0.832000
C491	C49	0.708670	0.655850	0.579350
C501	C50	0.762060	0.578600	0.549060
C511	C51	0.659810	0.716230	0.791080
C521	C52	0.578630	0.693820	0.841840
C531	C53	0.717270	0.644050	0.536210
C541	C54	0.740990	0.608920	0.522260
C551	C55	0.647200	0.734230	0.830560
C561	C56	0.610070	0.724370	0.853590
N291	N29	0.701410	0.334620	0.386250
N301	N30	0.778540	0.445930	0.429520
N311	N31	0.670030	0.297770	0.240990
N321	N32	0.553790	0.331250	0.168000
C571	C57	0.708670	0.344150	0.420650
C581	C58	0.762060	0.421400	0.450940
C591	C59	0.659810	0.283770	0.208920
C601	C60	0.578630	0.306180	0.158160
C611	C61	0.717270	0.355950	0.463790
C621	C62	0.740990	0.391080	0.477740
C631	C63	0.647200	0.265770	0.169440
C641	C64	0.610070	0.275630	0.146410
N331	N33	0.613750	0.298590	0.334620
N341	N34	0.570480	0.221460	0.445930
N351	N35	0.759010	0.329970	0.297770
N361	N36	0.832000	0.446210	0.331250
C651	C65	0.579350	0.291330	0.344150
C661	C66	0.549060	0.237940	0.421400
C671	C67	0.791080	0.340190	0.283770
C681	C68	0.841840	0.421370	0.306180
C691	C69	0.536210	0.282730	0.355950
C701	C70	0.522260	0.259010	0.391080
C711	C71	0.830560	0.352800	0.265770
C721	C72	0.853590	0.389930	0.275630
N371	N37	0.386250	0.298590	0.665380
N381	N38	0.429520	0.221460	0.554070
N391	N39	0.240990	0.329970	0.702230
N401	N40	0.168000	0.446210	0.668750
C731	C73	0.420650	0.291330	0.655850
C741	C74	0.450940	0.237940	0.578600
C751	C75	0.208920	0.340190	0.716230
C761	C76	0.158160	0.421370	0.693820
C771	C77	0.463790	0.282730	0.644050
C781	C78	0.477740	0.259010	0.608920
C791	C79	0.169440	0.352800	0.734230
C801	C80	0.146410	0.389930	0.724370
N411	N41	0.613750	0.701410	0.665380
N421	N42	0.570480	0.778540	0.554070
N431	N43	0.759010	0.670030	0.702230
N441	N44	0.832000	0.553790	0.668750
C811	C81	0.579350	0.708670	0.655850
C821	C82	0.549060	0.762060	0.578600
C831	C83	0.791080	0.659810	0.716230
C841	C84	0.841840	0.578630	0.693820
C851	C85	0.536210	0.717270	0.644050
C861	C86	0.522260	0.740990	0.608920
C871	C87	0.830560	0.647200	0.734230
C881	C88	0.853590	0.610070	0.724370
N451	N45	0.386250	0.701410	0.334620
N461	N46	0.429520	0.778540	0.445930
N471	N47	0.240990	0.670030	0.297770
N481	N48	0.168000	0.553790	0.331250
C891	C89	0.420650	0.708670	0.344150
C901	C90	0.450940	0.762060	0.421400
C911	C91	0.208920	0.659810	0.283770
C921	C92	0.158160	0.578630	0.306180
C931	C93	0.463790	0.717270	0.355950
C941	C94	0.477740	0.740990	0.391080
C951	C95	0.169440	0.647200	0.265770
C961	C96	0.146410	0.610070	0.275630
N491	N49	0.113750	0.834620	0.201410
N501	N50	0.070480	0.945930	0.278540
N511	N51	0.259010	0.797770	0.170030
N521	N52	0.332000	0.831250	0.053790
C971	C97	0.079350	0.844150	0.208670
C981	C98	0.049060	0.921400	0.262060
C991	C99	0.291080	0.783770	0.159810
C1001	C100	0.341840	0.806180	0.078630
C1011	C101	0.036210	0.855950	0.217270
C1021	C102	0.022260	0.891080	0.240990
C1031	C103	0.330560	0.765770	0.147200
C1041	C104	0.353590	0.775630	0.110070
N531	N53	0.886250	0.165380	0.201410
N541	N54	0.929520	0.054070	0.278540
N551	N55	0.740990	0.202230	0.170030
N561	N56	0.668000	0.168750	0.053790
C1051	C105	0.920650	0.155850	0.208670
C1061	C106	0.950940	0.078600	0.262060
C1071	C107	0.708920	0.216230	0.159810
C1081	C108	0.658160	0.193820	0.078630
C1091	C109	0.963790	0.144050	0.217270
C1101	C110	0.977740	0.108920	0.240990
C1111	C111	0.669440	0.234230	0.147200
C1121	C112	0.646410	0.224370	0.110070
N571	N57	0.113750	0.165380	0.798590
N581	N58	0.070480	0.054070	0.721460
N591	N59	0.259010	0.202230	0.829970
N601	N60	0.332000	0.168750	0.946210
C1131	C113	0.079350	0.155850	0.791330
C1141	C114	0.049060	0.078600	0.737940
C1151	C115	0.291080	0.216230	0.840190
C1161	C116	0.341840	0.193820	0.921370
C1171	C117	0.036210	0.144050	0.782730
C1181	C118	0.022260	0.108920	0.759010
C1191	C119	0.330560	0.234230	0.852800
C1201	C120	0.353590	0.224370	0.889930
N611	N61	0.886250	0.834620	0.798590
N621	N62	0.929520	0.945930	0.721460
N631	N63	0.740990	0.797770	0.829970
N641	N64	0.668000	0.831250	0.946210
C1211	C121	0.920650	0.844150	0.791330
C1221	C122	0.950940	0.921400	0.737940
C1231	C123	0.708920	0.783770	0.840190
C1241	C124	0.658160	0.806180	0.921370
C1251	C125	0.963790	0.855950	0.782730
C1261	C126	0.977740	0.891080	0.759010
C1271	C127	0.669440	0.765770	0.852800
C1281	C128	0.646410	0.775630	0.889930
N651	N65	0.834620	0.798590	0.886250
N661	N66	0.945930	0.721460	0.929520
N671	N67	0.797770	0.829970	0.740990
N681	N68	0.831250	0.946210	0.668000
C1291	C129	0.844150	0.791330	0.920650
C1301	C130	0.921400	0.737940	0.950940
C1311	C131	0.783770	0.840190	0.708920
C1321	C132	0.806180	0.921370	0.658160
C1331	C133	0.855950	0.782730	0.963790
C1341	C134	0.891080	0.759010	0.977740
C1351	C135	0.765770	0.852800	0.669440
C1361	C136	0.775630	0.889930	0.646410
N691	N69	0.165380	0.798590	0.113750
N701	N70	0.054070	0.721460	0.070480
N711	N71	0.202230	0.829970	0.259010
N721	N72	0.168750	0.946210	0.332000
C1371	C137	0.155850	0.791330	0.079350
C1381	C138	0.078600	0.737940	0.049060
C1391	C139	0.216230	0.840190	0.291080
C1401	C140	0.193820	0.921370	0.341840
C1411	C141	0.144050	0.782730	0.036210
C1421	C142	0.108920	0.759010	0.022260
C1431	C143	0.234230	0.852800	0.330560
C1441	C144	0.224370	0.889930	0.353590
N731	N73	0.165380	0.201410	0.886250
N741	N74	0.054070	0.278540	0.929520
N751	N75	0.202230	0.170030	0.740990
N761	N76	0.168750	0.053790	0.668000
C1451	C145	0.155850	0.208670	0.920650
C1461	C146	0.078600	0.262060	0.950940
C1471	C147	0.216230	0.159810	0.708920
C1481	C148	0.193820	0.078630	0.658160
C1491	C149	0.144050	0.217270	0.963790
C1501	C150	0.108920	0.240990	0.977740
C1511	C151	0.234230	0.147200	0.669440
C1521	C152	0.224370	0.110070	0.646410
N771	N77	0.834620	0.201410	0.113750
N781	N78	0.945930	0.278540	0.070480
N791	N79	0.797770	0.170030	0.259010
N801	N80	0.831250	0.053790	0.332000
C1531	C153	0.844150	0.208670	0.079350
C1541	C154	0.921400	0.262060	0.049060
C1551	C155	0.783770	0.159810	0.291080
C1561	C156	0.806180	0.078630	0.341840
C1571	C157	0.855950	0.217270	0.036210
C1581	C158	0.891080	0.240990	0.022260
C1591	C159	0.765770	0.147200	0.330560
C1601	C160	0.775630	0.110070	0.353590
N811	N81	0.798590	0.113750	0.165380
N821	N82	0.721460	0.070480	0.054070
N831	N83	0.829970	0.259010	0.202230
N841	N84	0.946210	0.332000	0.168750
C1611	C161	0.791330	0.079350	0.155850
C1621	C162	0.737940	0.049060	0.078600
C1631	C163	0.840190	0.291080	0.216230
C1641	C164	0.921370	0.341840	0.193820
C1651	C165	0.782730	0.036210	0.144050
C1661	C166	0.759010	0.022260	0.108920
C1671	C167	0.852800	0.330560	0.234230
C1681	C168	0.889930	0.353590	0.224370
N851	N85	0.798590	0.886250	0.834620
N861	N86	0.721460	0.929520	0.945930
N871	N87	0.829970	0.740990	0.797770
N881	N88	0.946210	0.668000	0.831250
C1691	C169	0.791330	0.920650	0.844150
C1701	C170	0.737940	0.950940	0.921400
C1711	C171	0.840190	0.708920	0.783770
C1721	C172	0.921370	0.658160	0.806180
C1731	C173	0.782730	0.963790	0.855950
C1741	C174	0.759010	0.977740	0.891080
C1751	C175	0.852800	0.669440	0.765770
C1761	C176	0.889930	0.646410	0.775630
N891	N89	0.201410	0.113750	0.834620
N901	N90	0.278540	0.070480	0.945930
N911	N91	0.170030	0.259010	0.797770
N921	N92	0.053790	0.332000	0.831250
C1771	C177	0.208670	0.079350	0.844150
C1781	C178	0.262060	0.049060	0.921400
C1791	C179	0.159810	0.291080	0.783770
C1801	C180	0.078630	0.341840	0.806180
C1811	C181	0.217270	0.036210	0.855950
C1821	C182	0.240990	0.022260	0.891080
C1831	C183	0.147200	0.330560	0.765770
C1841	C184	0.110070	0.353590	0.775630
N931	N93	0.201410	0.886250	0.165380
N941	N94	0.278540	0.929520	0.054070
N951	N95	0.170030	0.740990	0.202230
N961	N96	0.053790	0.668000	0.168750
C1851	C185	0.208670	0.920650	0.155850
C1861	C186	0.262060	0.950940	0.078600
C1871	C187	0.159810	0.708920	0.216230
C1881	C188	0.078630	0.658160	0.193820
C1891	C189	0.217270	0.963790	0.144050
C1901	C190	0.240990	0.977740	0.108920
C1911	C191	0.147200	0.669440	0.234230
C1921	C192	0.110070	0.646410	0.224370
N971	N97	0.665380	0.386250	0.701410
N981	N98	0.554070	0.429520	0.778540
N991	N99	0.702230	0.240990	0.670030
N1001	N100	0.668750	0.168000	0.553790
C1931	C193	0.655850	0.420650	0.708670
C1941	C194	0.578600	0.450940	0.762060
C1951	C195	0.716230	0.208920	0.659810
C1961	C196	0.693820	0.158160	0.578630
C1971	C197	0.644050	0.463790	0.717270
C1981	C198	0.608920	0.477740	0.740990
C1991	C199	0.734230	0.169440	0.647200
C2001	C200	0.724370	0.146410	0.610070
N1011	N101	0.334620	0.613750	0.701410
N1021	N102	0.445930	0.570480	0.778540
N1031	N103	0.297770	0.759010	0.670030
N1041	N104	0.331250	0.832000	0.553790
C2011	C201	0.344150	0.579350	0.708670
C2021	C202	0.421400	0.549060	0.762060
C2031	C203	0.283770	0.791080	0.659810
C2041	C204	0.306180	0.841840	0.578630
C2051	C205	0.355950	0.536210	0.717270
C2061	C206	0.391080	0.522260	0.740990
C2071	C207	0.265770	0.830560	0.647200
C2081	C208	0.275630	0.853590	0.610070
N1051	N105	0.334620	0.386250	0.298590
N1061	N106	0.445930	0.429520	0.221460
N1071	N107	0.297770	0.240990	0.329970
N1081	N108	0.331250	0.168000	0.446210
C2091	C209	0.344150	0.420650	0.291330
C2101	C210	0.421400	0.450940	0.237940
C2111	C211	0.283770	0.208920	0.340190
C2121	C212	0.306180	0.158160	0.421370
C2131	C213	0.355950	0.463790	0.282730
C2141	C214	0.391080	0.477740	0.259010
C2151	C215	0.265770	0.169440	0.352800
C2161	C216	0.275630	0.146410	0.389930
N1091	N109	0.665380	0.613750	0.298590
N1101	N110	0.554070	0.570480	0.221460
N1111	N111	0.702230	0.759010	0.329970
N1121	N112	0.668750	0.832000	0.446210
C2171	C217	0.655850	0.579350	0.291330
C2181	C218	0.578600	0.549060	0.237940
C2191	C219	0.716230	0.791080	0.340190
C2201	C220	0.693820	0.841840	0.421370
C2211	C221	0.644050	0.536210	0.282730
C2221	C222	0.608920	0.522260	0.259010
C2231	C223	0.734230	0.830560	0.352800
C2241	C224	0.724370	0.853590	0.389930
N1131	N113	0.701410	0.665380	0.386250
N1141	N114	0.778540	0.554070	0.429520
N1151	N115	0.670030	0.702230	0.240990
N1161	N116	0.553790	0.668750	0.168000
C2251	C225	0.708670	0.655850	0.420650
C2261	C226	0.762060	0.578600	0.450940
C2271	C227	0.659810	0.716230	0.208920
C2281	C228	0.578630	0.693820	0.158160
C2291	C229	0.717270	0.644050	0.463790
C2301	C230	0.740990	0.608920	0.477740
C2311	C231	0.647200	0.734230	0.169440
C2321	C232	0.610070	0.724370	0.146410
N1171	N117	0.701410	0.334620	0.613750
N1181	N118	0.778540	0.445930	0.570480
N1191	N119	0.670030	0.297770	0.759010
N1201	N120	0.553790	0.331250	0.832000
C2331	C233	0.708670	0.344150	0.579350
C2341	C234	0.762060	0.421400	0.549060
C2351	C235	0.659810	0.283770	0.791080
C2361	C236	0.578630	0.306180	0.841840
C2371	C237	0.717270	0.355950	0.536210
C2381	C238	0.740990	0.391080	0.522260
C2391	C239	0.647200	0.265770	0.830560
C2401	C240	0.610070	0.275630	0.853590
N1211	N121	0.298590	0.334620	0.386250
N1221	N122	0.221460	0.445930	0.429520
N1231	N123	0.329970	0.297770	0.240990
N1241	N124	0.446210	0.331250	0.168000
C2411	C241	0.291330	0.344150	0.420650
C2421	C242	0.237940	0.421400	0.450940
C2431	C243	0.340190	0.283770	0.208920
C2441	C244	0.421370	0.306180	0.158160
C2451	C245	0.282730	0.355950	0.463790
C2461	C246	0.259010	0.391080	0.477740
C2471	C247	0.352800	0.265770	0.169440
C2481	C248	0.389930	0.275630	0.146410
N1251	N125	0.298590	0.665380	0.613750
N1261	N126	0.221460	0.554070	0.570480
N1271	N127	0.329970	0.702230	0.759010
N1281	N128	0.446210	0.668750	0.832000
C2491	C249	0.291330	0.655850	0.579350
C2501	C250	0.237940	0.578600	0.549060
C2511	C251	0.340190	0.716230	0.791080
C2521	C252	0.421370	0.693820	0.841840
C2531	C253	0.282730	0.644050	0.536210
C2541	C254	0.259010	0.608920	0.522260
C2551	C255	0.352800	0.734230	0.830560
C2561	C256	0.389930	0.724370	0.853590
N1291	N129	0.386250	0.701410	0.665380
N1301	N130	0.429520	0.778540	0.554070
N1311	N131	0.240990	0.670030	0.702230
N1321	N132	0.168000	0.553790	0.668750
C2571	C257	0.420650	0.708670	0.655850
C2581	C258	0.450940	0.762060	0.578600
C2591	C259	0.208920	0.659810	0.716230
C2601	C260	0.158160	0.578630	0.693820
C2611	C261	0.463790	0.717270	0.644050
C2621	C262	0.477740	0.740990	0.608920
C2631	C263	0.169440	0.647200	0.734230
C2641	C264	0.146410	0.610070	0.724370
N1331	N133	0.613750	0.701410	0.334620
N1341	N134	0.570480	0.778540	0.445930
N1351	N135	0.759010	0.670030	0.297770
N1361	N136	0.832000	0.553790	0.331250
C2651	C265	0.579350	0.708670	0.344150
C2661	C266	0.549060	0.762060	0.421400
C2671	C267	0.791080	0.659810	0.283770
C2681	C268	0.841840	0.578630	0.306180
C2691	C269	0.536210	0.717270	0.355950
C2701	C270	0.522260	0.740990	0.391080
C2711	C271	0.830560	0.647200	0.265770
C2721	C272	0.853590	0.610070	0.275630
N1371	N137	0.386250	0.298590	0.334620
N1381	N138	0.429520	0.221460	0.445930
N1391	N139	0.240990	0.329970	0.297770
N1401	N140	0.168000	0.446210	0.331250
C2731	C273	0.420650	0.291330	0.344150
C2741	C274	0.450940	0.237940	0.421400
C2751	C275	0.208920	0.340190	0.283770
C2761	C276	0.158160	0.421370	0.306180
C2771	C277	0.463790	0.282730	0.355950
C2781	C278	0.477740	0.259010	0.391080
C2791	C279	0.169440	0.352800	0.265770
C2801	C280	0.146410	0.389930	0.275630
N1411	N141	0.613750	0.298590	0.665380
N1421	N142	0.570480	0.221460	0.554070
N1431	N143	0.759010	0.329970	0.702230
N1441	N144	0.832000	0.446210	0.668750
C2811	C281	0.579350	0.291330	0.655850
C2821	C282	0.549060	0.237940	0.578600
C2831	C283	0.791080	0.340190	0.716230
C2841	C284	0.841840	0.421370	0.693820
C2851	C285	0.536210	0.282730	0.644050
C2861	C286	0.522260	0.259010	0.608920
C2871	C287	0.830560	0.352800	0.734230
C2881	C288	0.853590	0.389930	0.724370
N1451	N145	0.886250	0.165380	0.798590
N1461	N146	0.929520	0.054070	0.721460
N1471	N147	0.740990	0.202230	0.829970
N1481	N148	0.668000	0.168750	0.946210
C2891	C289	0.920650	0.155850	0.791330
C2901	C290	0.950940	0.078600	0.737940
C2911	C291	0.708920	0.216230	0.840190
C2921	C292	0.658160	0.193820	0.921370
C2931	C293	0.963790	0.144050	0.782730
C2941	C294	0.977740	0.108920	0.759010
C2951	C295	0.669440	0.234230	0.852800
C2961	C296	0.646410	0.224370	0.889930
N1491	N149	0.113750	0.834620	0.798590
N1501	N150	0.070480	0.945930	0.721460
N1511	N151	0.259010	0.797770	0.829970
N1521	N152	0.332000	0.831250	0.946210
C2971	C297	0.079350	0.844150	0.791330
C2981	C298	0.049060	0.921400	0.737940
C2991	C299	0.291080	0.783770	0.840190
C3001	C300	0.341840	0.806180	0.921370
C3011	C301	0.036210	0.855950	0.782730
C3021	C302	0.022260	0.891080	0.759010
C3031	C303	0.330560	0.765770	0.852800
C3041	C304	0.353590	0.775630	0.889930
N1531	N153	0.886250	0.834620	0.201410
N1541	N154	0.929520	0.945930	0.278540
N1551	N155	0.740990	0.797770	0.170030
N1561	N156	0.668000	0.831250	0.053790
C3051	C305	0.920650	0.844150	0.208670
C3061	C306	0.950940	0.921400	0.262060
C3071	C307	0.708920	0.783770	0.159810
C3081	C308	0.658160	0.806180	0.078630
C3091	C309	0.963790	0.855950	0.217270
C3101	C310	0.977740	0.891080	0.240990
C3111	C311	0.669440	0.765770	0.147200
C3121	C312	0.646410	0.775630	0.110070
N1571	N157	0.113750	0.165380	0.201410
N1581	N158	0.070480	0.054070	0.278540
N1591	N159	0.259010	0.202230	0.170030
N1601	N160	0.332000	0.168750	0.053790
C3131	C313	0.079350	0.155850	0.208670
C3141	C314	0.049060	0.078600	0.262060
C3151	C315	0.291080	0.216230	0.159810
C3161	C316	0.341840	0.193820	0.078630
C3171	C317	0.036210	0.144050	0.217270
C3181	C318	0.022260	0.108920	0.240990
C3191	C319	0.330560	0.234230	0.147200
C3201	C320	0.353590	0.224370	0.110070
N1611	N161	0.165380	0.201410	0.113750
N1621	N162	0.054070	0.278540	0.070480
N1631	N163	0.202230	0.170030	0.259010
N1641	N164	0.168750	0.053790	0.332000
C3211	C321	0.155850	0.208670	0.079350
C3221	C322	0.078600	0.262060	0.049060
C3231	C323	0.216230	0.159810	0.291080
C3241	C324	0.193820	0.078630	0.341840
C3251	C325	0.144050	0.217270	0.036210
C3261	C326	0.108920	0.240990	0.022260
C3271	C327	0.234230	0.147200	0.330560
C3281	C328	0.224370	0.110070	0.353590
N1651	N165	0.834620	0.201410	0.886250
N1661	N166	0.945930	0.278540	0.929520
N1671	N167	0.797770	0.170030	0.740990
N1681	N168	0.831250	0.053790	0.668000
C3291	C329	0.844150	0.208670	0.920650
C3301	C330	0.921400	0.262060	0.950940
C3311	C331	0.783770	0.159810	0.708920
C3321	C332	0.806180	0.078630	0.658160
C3331	C333	0.855950	0.217270	0.963790
C3341	C334	0.891080	0.240990	0.977740
C3351	C335	0.765770	0.147200	0.669440
C3361	C336	0.775630	0.110070	0.646410
N1691	N169	0.834620	0.798590	0.113750
N1701	N170	0.945930	0.721460	0.070480
N1711	N171	0.797770	0.829970	0.259010
N1721	N172	0.831250	0.946210	0.332000
C3371	C337	0.844150	0.791330	0.079350
C3381	C338	0.921400	0.737940	0.049060
C3391	C339	0.783770	0.840190	0.291080
C3401	C340	0.806180	0.921370	0.341840
C3411	C341	0.855950	0.782730	0.036210
C3421	C342	0.891080	0.759010	0.022260
C3431	C343	0.765770	0.852800	0.330560
C3441	C344	0.775630	0.889930	0.353590
N1731	N173	0.165380	0.798590	0.886250
N1741	N174	0.054070	0.721460	0.929520
N1751	N175	0.202230	0.829970	0.740990
N1761	N176	0.168750	0.946210	0.668000
C3451	C345	0.155850	0.791330	0.920650
C3461	C346	0.078600	0.737940	0.950940
C3471	C347	0.216230	0.840190	0.708920
C3481	C348	0.193820	0.921370	0.658160
C3491	C349	0.144050	0.782730	0.963790
C3501	C350	0.108920	0.759010	0.977740
C3511	C351	0.234230	0.852800	0.669440
C3521	C352	0.224370	0.889930	0.646410
N1771	N177	0.201410	0.886250	0.834620
N1781	N178	0.278540	0.929520	0.945930
N1791	N179	0.170030	0.740990	0.797770
N1801	N180	0.053790	0.668000	0.831250
C3531	C353	0.208670	0.920650	0.844150
C3541	C354	0.262060	0.950940	0.921400
C3551	C355	0.159810	0.708920	0.783770
C3561	C356	0.078630	0.658160	0.806180
C3571	C357	0.217270	0.963790	0.855950
C3581	C358	0.240990	0.977740	0.891080
C3591	C359	0.147200	0.669440	0.765770
C3601	C360	0.110070	0.646410	0.775630
N1811	N181	0.201410	0.113750	0.165380
N1821	N182	0.278540	0.070480	0.054070
N1831	N183	0.170030	0.259010	0.202230
N1841	N184	0.053790	0.332000	0.168750
C3611	C361	0.208670	0.079350	0.155850
C3621	C362	0.262060	0.049060	0.078600
C3631	C363	0.159810	0.291080	0.216230
C3641	C364	0.078630	0.341840	0.193820
C3651	C365	0.217270	0.036210	0.144050
C3661	C366	0.240990	0.022260	0.108920
C3671	C367	0.147200	0.330560	0.234230
C3681	C368	0.110070	0.353590	0.224370
N1851	N185	0.798590	0.886250	0.165380
N1861	N186	0.721460	0.929520	0.054070
N1871	N187	0.829970	0.740990	0.202230
N1881	N188	0.946210	0.668000	0.168750
C3691	C369	0.791330	0.920650	0.155850
C3701	C370	0.737940	0.950940	0.078600
C3711	C371	0.840190	0.708920	0.216230
C3721	C372	0.921370	0.658160	0.193820
C3731	C373	0.782730	0.963790	0.144050
C3741	C374	0.759010	0.977740	0.108920
C3751	C375	0.852800	0.669440	0.234230
C3761	C376	0.889930	0.646410	0.224370
N1891	N189	0.798590	0.113750	0.834620
N1901	N190	0.721460	0.070480	0.945930
N1911	N191	0.829970	0.259010	0.797770
N1921	N192	0.946210	0.332000	0.831250
C3771	C377	0.791330	0.079350	0.844150
C3781	C378	0.737940	0.049060	0.921400
C3791	C379	0.840190	0.291080	0.783770
C3801	C380	0.921370	0.341840	0.806180
C3811	C381	0.782730	0.036210	0.855950
C3821	C382	0.759010	0.022260	0.891080
C3831	C383	0.852800	0.330560	0.765770
C3841	C384	0.889930	0.353590	0.775630
Na11	Na1	0.314340	0.685660	0.314340
Na21	Na2	0.685660	0.314340	0.314340
Na31	Na3	0.685660	0.685660	0.685660
Na41	Na4	0.314340	0.314340	0.685660
Na51	Na5	0.185660	0.814340	0.185660
Na61	Na6	0.814340	0.185660	0.185660
Na71	Na7	0.185660	0.185660	0.814340
Na81	Na8	0.814340	0.814340	0.814340
Na91	Na9	0.685660	0.314340	0.685660
Na101	Na10	0.314340	0.685660	0.685660
Na111	Na11	0.314340	0.314340	0.314340
Na121	Na12	0.685660	0.685660	0.314340
Na131	Na13	0.814340	0.185660	0.814340
Na141	Na14	0.185660	0.814340	0.814340
Na151	Na15	0.814340	0.814340	0.185660
Na161	Na16	0.185660	0.185660	0.185660
Na171	Na17	0.379660	0.804590	0.500000
Na181	Na18	0.620340	0.195410	0.500000
Na191	Na19	0.620340	0.804590	0.500000
Na201	Na20	0.379660	0.195410	0.500000
Na211	Na21	0.500000	0.379660	0.804590
Na221	Na22	0.500000	0.620340	0.195410
Na231	Na23	0.500000	0.620340	0.804590
Na241	Na24	0.500000	0.379660	0.195410
Na251	Na25	0.804590	0.500000	0.379660
Na261	Na26	0.195410	0.500000	0.620340
Na271	Na27	0.804590	0.500000	0.620340
Na281	Na28	0.195410	0.500000	0.379660
Na291	Na29	0.304590	0.879660	0.000000
Na301	Na30	0.695410	0.120340	0.000000
Na311	Na31	0.304590	0.120340	0.000000
Na321	Na32	0.695410	0.879660	0.000000
Na331	Na33	0.879660	0.000000	0.695410
Na341	Na34	0.120340	0.000000	0.304590
Na351	Na35	0.120340	0.000000	0.695410
Na361	Na36	0.879660	0.000000	0.304590
Na371	Na37	0.000000	0.304590	0.120340
Na381	Na38	0.000000	0.695410	0.879660
Na391	Na39	0.000000	0.304590	0.879660
Na401	Na40	0.000000	0.695410	0.120340
Na411	Na41	0.230540	0.000000	0.500000
Na421	Na42	0.769460	0.000000	0.500000
Na431	Na43	0.500000	0.230540	0.000000
Na441	Na44	0.500000	0.769460	0.000000
Na451	Na45	0.000000	0.500000	0.230540
Na461	Na46	0.000000	0.500000	0.769460
Na471	Na47	0.500000	0.730540	0.000000
Na481	Na48	0.500000	0.269460	0.000000
Na491	Na49	0.730540	0.000000	0.500000
Na501	Na50	0.269460	0.000000	0.500000
Na511	Na51	0.000000	0.500000	0.269460
Na521	Na52	0.000000	0.500000	0.730540
N1931	N193	0.265580	0.500000	0.342550
C3851	C385	0.296300	0.500000	0.322600
C3861	C386	0.334100	0.500000	0.297880
N1941	N194	0.734420	0.500000	0.342550
C3871	C387	0.703700	0.500000	0.322600
C3881	C388	0.665900	0.500000	0.297880
N1951	N195	0.734420	0.500000	0.657450
C3891	C389	0.703700	0.500000	0.677400
C3901	C390	0.665900	0.500000	0.702120
N1961	N196	0.265580	0.500000	0.657450
C3911	C391	0.296300	0.500000	0.677400
C3921	C392	0.334100	0.500000	0.702120
N1971	N197	0.342550	0.265580	0.500000
C3931	C393	0.322600	0.296300	0.500000
C3941	C394	0.297880	0.334100	0.500000
N1981	N198	0.342550	0.734420	0.500000
C3951	C395	0.322600	0.703700	0.500000
C3961	C396	0.297880	0.665900	0.500000
N1991	N199	0.657450	0.734420	0.500000
C3971	C397	0.677400	0.703700	0.500000
C3981	C398	0.702120	0.665900	0.500000
N2001	N200	0.657450	0.265580	0.500000
C3991	C399	0.677400	0.296300	0.500000
C4001	C400	0.702120	0.334100	0.500000
N2011	N201	0.500000	0.342550	0.265580
C4011	C401	0.500000	0.322600	0.296300
C4021	C402	0.500000	0.297880	0.334100
N2021	N202	0.500000	0.342550	0.734420
C4031	C403	0.500000	0.322600	0.703700
C4041	C404	0.500000	0.297880	0.665900
N2031	N203	0.500000	0.657450	0.734420
C4051	C405	0.500000	0.677400	0.703700
C4061	C406	0.500000	0.702120	0.665900
N2041	N204	0.500000	0.657450	0.265580
C4071	C407	0.500000	0.677400	0.296300
C4081	C408	0.500000	0.702120	0.334100
N2051	N205	0.000000	0.765580	0.157450
C4091	C409	0.000000	0.796300	0.177400
C4101	C410	0.000000	0.834100	0.202120
N2061	N206	0.000000	0.234420	0.157450
C4111	C411	0.000000	0.203700	0.177400
C4121	C412	0.000000	0.165900	0.202120
N2071	N207	0.000000	0.234420	0.842550
C4131	C413	0.000000	0.203700	0.822600
C4141	C414	0.000000	0.165900	0.797880
N2081	N208	0.000000	0.765580	0.842550
C4151	C415	0.000000	0.796300	0.822600
C4161	C416	0.000000	0.834100	0.797880
N2091	N209	0.765580	0.842550	0.000000
C4171	C417	0.796300	0.822600	0.000000
C4181	C418	0.834100	0.797880	0.000000
N2101	N210	0.234420	0.842550	0.000000
C4191	C419	0.203700	0.822600	0.000000
C4201	C420	0.165900	0.797880	0.000000
N2111	N211	0.234420	0.157450	0.000000
C4211	C421	0.203700	0.177400	0.000000
C4221	C422	0.165900	0.202120	0.000000
N2121	N212	0.765580	0.157450	0.000000
C4231	C423	0.796300	0.177400	0.000000
C4241	C424	0.834100	0.202120	0.000000
N2131	N213	0.842550	0.000000	0.234420
C4251	C425	0.822600	0.000000	0.203700
C4261	C426	0.797880	0.000000	0.165900
N2141	N214	0.842550	0.000000	0.765580
C4271	C427	0.822600	0.000000	0.796300
C4281	C428	0.797880	0.000000	0.834100
N2151	N215	0.157450	0.000000	0.765580
C4291	C429	0.177400	0.000000	0.796300
C4301	C430	0.202120	0.000000	0.834100
N2161	N216	0.157450	0.000000	0.234420
C4311	C431	0.177400	0.000000	0.203700
C4321	C432	0.202120	0.000000	0.165900
N2171	N217	0.250000	0.948080	0.448080
C4331	C433	0.250000	0.922390	0.422390
C4341	C434	0.250000	0.890120	0.390120
N2181	N218	0.750000	0.051920	0.448080
C4351	C435	0.750000	0.077610	0.422390
C4361	C436	0.750000	0.109880	0.390120
N2191	N219	0.750000	0.948080	0.551920
C4371	C437	0.750000	0.922390	0.577610
C4381	C438	0.750000	0.890120	0.609880
N2201	N220	0.250000	0.051920	0.551920
C4391	C439	0.250000	0.077610	0.577610
C4401	C440	0.250000	0.109880	0.609880
N2211	N221	0.448080	0.250000	0.948080
C4411	C441	0.422390	0.250000	0.922390
C4421	C442	0.390120	0.250000	0.890120
N2221	N222	0.448080	0.750000	0.051920
C4431	C443	0.422390	0.750000	0.077610
C4441	C444	0.390120	0.750000	0.109880
N2231	N223	0.551920	0.750000	0.948080
C4451	C445	0.577610	0.750000	0.922390
C4461	C446	0.609880	0.750000	0.890120
N2241	N224	0.551920	0.250000	0.051920
C4471	C447	0.577610	0.250000	0.077610
C4481	C448	0.609880	0.250000	0.109880
N2251	N225	0.948080	0.448080	0.250000
C4491	C449	0.922390	0.422390	0.250000
C4501	C450	0.890120	0.390120	0.250000
N2261	N226	0.051920	0.448080	0.750000
C4511	C451	0.077610	0.422390	0.750000
C4521	C452	0.109880	0.390120	0.750000
N2271	N227	0.948080	0.551920	0.750000
C4531	C453	0.922390	0.577610	0.750000
C4541	C454	0.890120	0.609880	0.750000
N2281	N228	0.051920	0.551920	0.250000
C4551	C455	0.077610	0.577610	0.250000
C4561	C456	0.109880	0.609880	0.250000
N2291	N229	0.750000	0.051920	0.551920
C4571	C457	0.750000	0.077610	0.577610
C4581	C458	0.750000	0.109880	0.609880
N2301	N230	0.250000	0.948080	0.551920
C4591	C459	0.250000	0.922390	0.577610
C4601	C460	0.250000	0.890120	0.609880
N2311	N231	0.250000	0.051920	0.448080
C4611	C461	0.250000	0.077610	0.422390
C4621	C462	0.250000	0.109880	0.390120
N2321	N232	0.750000	0.948080	0.448080
C4631	C463	0.750000	0.922390	0.422390
C4641	C464	0.750000	0.890120	0.390120
N2331	N233	0.551920	0.750000	0.051920
C4651	C465	0.577610	0.750000	0.077610
C4661	C466	0.609880	0.750000	0.109880
N2341	N234	0.551920	0.250000	0.948080
C4671	C467	0.577610	0.250000	0.922390
C4681	C468	0.609880	0.250000	0.890120
N2351	N235	0.448080	0.250000	0.051920
C4691	C469	0.422390	0.250000	0.077610
C4701	C470	0.390120	0.250000	0.109880
N2361	N236	0.448080	0.750000	0.948080
C4711	C471	0.422390	0.750000	0.922390
C4721	C472	0.390120	0.750000	0.890120
N2371	N237	0.051920	0.551920	0.750000
C4731	C473	0.077610	0.577610	0.750000
C4741	C474	0.109880	0.609880	0.750000
N2381	N238	0.948080	0.551920	0.250000
C4751	C475	0.922390	0.577610	0.250000
C4761	C476	0.890120	0.609880	0.250000
N2391	N239	0.051920	0.448080	0.250000
C4771	C477	0.077610	0.422390	0.250000
C4781	C478	0.109880	0.390120	0.250000
N2401	N240	0.948080	0.448080	0.750000
C4791	C479	0.922390	0.422390	0.750000
C4801	C480	0.890120	0.390120	0.750000
