data_IZEBEV_clean_PM
_symmetry_space_group_name_H-M	'P1'
_cell_length_a	6.770000
_cell_length_b	14.465000
_cell_length_c	17.773000
_cell_angle_alpha	90.000000
_cell_angle_beta	90.000000
_cell_angle_gamma	91.276000
_symmetry_Int_Tables_number 1

loop_
_symmetry_equiv_pos_as_xyz
'x,y,z'

loop_
_atom_site_label
_atom_site_type_symbol
_atom_site_fract_x
_atom_site_fract_y
_atom_site_fract_z
Cd11	Cd1	0.557000	0.863160	0.467450
Cd21	Cd2	0.943000	0.136840	0.967450
Cd31	Cd3	0.443000	0.136840	0.532550
Cd41	Cd4	0.057000	0.863160	0.032550
Cd51	Cd5	0.000000	0.000000	0.500000
Cd61	Cd6	0.500000	0.000000	0.000000
H11	H1	0.132700	0.022600	0.260400
H21	H2	0.273400	0.200000	0.094400
H31	H3	0.339000	0.277500	0.310600
H41	H4	0.498800	0.312000	0.079600
H51	H5	0.297800	0.364400	0.076300
H61	H6	0.806900	0.394700	0.077200
H71	H7	0.977800	0.537800	0.064900
H81	H8	0.474700	0.673600	0.101500
H91	H9	0.314600	0.534000	0.129600
H101	H10	0.367300	0.977400	0.760400
H111	H11	0.226600	0.800000	0.594400
H121	H12	0.161000	0.722500	0.810600
H131	H13	0.001200	0.688000	0.579600
H141	H14	0.202200	0.635600	0.576300
H151	H15	0.693100	0.605300	0.577200
H161	H16	0.522200	0.462200	0.564900
H171	H17	0.025300	0.326400	0.601500
H181	H18	0.185400	0.466000	0.629600
H191	H19	0.867300	0.977400	0.739600
H201	H20	0.726600	0.800000	0.905600
H211	H21	0.661000	0.722500	0.689400
H221	H22	0.501200	0.688000	0.920400
H231	H23	0.702200	0.635600	0.923700
H241	H24	0.193100	0.605300	0.922800
H251	H25	0.022200	0.462200	0.935100
H261	H26	0.525300	0.326400	0.898500
H271	H27	0.685400	0.466000	0.870400
H281	H28	0.632700	0.022600	0.239600
H291	H29	0.773400	0.200000	0.405600
H301	H30	0.839000	0.277500	0.189400
H311	H31	0.998800	0.312000	0.420400
H321	H32	0.797800	0.364400	0.423700
H331	H33	0.306900	0.394700	0.422800
H341	H34	0.477800	0.537800	0.435100
H351	H35	0.974700	0.673600	0.398500
H361	H36	0.814600	0.534000	0.370400
C11	C1	0.237400	0.147500	0.298900
C21	C2	0.181200	0.080200	0.244900
C31	C3	0.198300	0.100000	0.169100
C41	C4	0.264300	0.186800	0.145500
C51	C5	0.316300	0.253600	0.197800
C61	C6	0.303000	0.232800	0.275300
C71	C7	0.226900	0.122500	0.380000
C81	C8	0.143200	0.028100	0.114100
C91	C9	0.852000	0.709000	0.073000
C101	C10	0.741000	0.620100	0.088100
C111	C11	0.422000	0.360200	0.102800
C121	C12	0.534000	0.451000	0.098900
C131	C13	0.742000	0.450200	0.083100
C141	C14	0.844000	0.535900	0.076600
C151	C15	0.544000	0.618700	0.100600
C161	C16	0.444000	0.534300	0.112400
C171	C17	0.262600	0.852500	0.798900
C181	C18	0.318800	0.919800	0.744900
C191	C19	0.301700	0.900000	0.669100
C201	C20	0.235700	0.813200	0.645500
C211	C21	0.183700	0.746400	0.697800
C221	C22	0.197000	0.767200	0.775300
C231	C23	0.273100	0.877500	0.880000
C241	C24	0.356800	0.971900	0.614100
C251	C25	0.648000	0.291000	0.573000
C261	C26	0.759000	0.379900	0.588100
C271	C27	0.078000	0.639800	0.602800
C281	C28	0.966000	0.549000	0.598900
C291	C29	0.758000	0.549800	0.583100
C301	C30	0.656000	0.464100	0.576600
C311	C31	0.956000	0.381300	0.600600
C321	C32	0.056000	0.465700	0.612400
C331	C33	0.762600	0.852500	0.701100
C341	C34	0.818800	0.919800	0.755100
C351	C35	0.801700	0.900000	0.830900
C361	C36	0.735700	0.813200	0.854500
C371	C37	0.683700	0.746400	0.802200
C381	C38	0.697000	0.767200	0.724700
C391	C39	0.773100	0.877500	0.620000
C401	C40	0.856800	0.971900	0.885900
C411	C41	0.148000	0.291000	0.927000
C421	C42	0.259000	0.379900	0.911900
C431	C43	0.578000	0.639800	0.897200
C441	C44	0.466000	0.549000	0.901100
C451	C45	0.258000	0.549800	0.916900
C461	C46	0.156000	0.464100	0.923400
C471	C47	0.456000	0.381300	0.899400
C481	C48	0.556000	0.465700	0.887600
C491	C49	0.737400	0.147500	0.201100
C501	C50	0.681200	0.080200	0.255100
C511	C51	0.698300	0.100000	0.330900
C521	C52	0.764300	0.186800	0.354500
C531	C53	0.816300	0.253600	0.302200
C541	C54	0.803000	0.232800	0.224700
C551	C55	0.726900	0.122500	0.120000
C561	C56	0.643200	0.028100	0.385900
C571	C57	0.352000	0.709000	0.427000
C581	C58	0.241000	0.620100	0.411900
C591	C59	0.922000	0.360200	0.397200
C601	C60	0.034000	0.451000	0.401100
C611	C61	0.242000	0.450200	0.416900
C621	C62	0.344000	0.535900	0.423400
C631	C63	0.044000	0.618700	0.399400
C641	C64	0.944000	0.534300	0.387600
O11	O1	0.134200	0.049200	0.396700
O21	O2	0.315500	0.176200	0.425100
O31	O3	0.180600	0.040900	0.042000
O41	O4	0.065200	0.952700	0.135100
O51	O5	0.388700	0.339500	0.178600
O61	O6	0.763000	0.777800	0.048100
O71	O7	0.036200	0.712500	0.079000
O81	O8	0.365800	0.950800	0.896700
O91	O9	0.184500	0.823800	0.925100
O101	O10	0.319400	0.959100	0.542000
O111	O11	0.434800	0.047300	0.635100
O121	O12	0.111300	0.660500	0.678600
O131	O13	0.737000	0.222200	0.548100
O141	O14	0.463800	0.287500	0.579000
O151	O15	0.865800	0.950800	0.603300
O161	O16	0.684500	0.823800	0.574900
O171	O17	0.819400	0.959100	0.958000
O181	O18	0.934800	0.047300	0.864900
O191	O19	0.611300	0.660500	0.821400
O201	O20	0.237000	0.222200	0.951900
O211	O21	0.963800	0.287500	0.921000
O221	O22	0.634200	0.049200	0.103300
O231	O23	0.815500	0.176200	0.074900
O241	O24	0.680600	0.040900	0.458000
O251	O25	0.565200	0.952700	0.364900
O261	O26	0.888700	0.339500	0.321400
O271	O27	0.263000	0.777800	0.451900
O281	O28	0.536200	0.712500	0.421000
