data_IZENIM_clean_PM
_symmetry_space_group_name_H-M	'P1'
_cell_length_a	22.453000
_cell_length_b	22.453000
_cell_length_c	22.453000
_cell_angle_alpha	90.000000
_cell_angle_beta	90.000000
_cell_angle_gamma	90.000000
_symmetry_Int_Tables_number 1

loop_
_symmetry_equiv_pos_as_xyz
'x,y,z'

loop_
_atom_site_label
_atom_site_type_symbol
_atom_site_fract_x
_atom_site_fract_y
_atom_site_fract_z
In11	In1	0.322300	0.739160	0.806330
C11	C1	0.461200	0.795000	0.604700
H11	H1	0.425700	0.796700	0.581900
C21	C2	0.458800	0.786600	0.666200
C31	C3	0.511200	0.786100	0.699400
H21	H2	0.509500	0.780500	0.741300
C41	C4	0.516300	0.801000	0.577400
C51	C5	0.399000	0.779800	0.695100
C61	C6	0.565200	0.793600	0.671800
C71	C7	0.568000	0.801900	0.609800
H31	H3	0.605200	0.808100	0.590700
C81	C8	0.623100	0.794600	0.705200
N11	N1	0.522900	0.804200	0.513800
O11	O1	0.396960	0.761400	0.747800
O21	O2	0.621400	0.780200	0.759200
O31	O3	0.354300	0.793500	0.662700
O41	O4	0.667700	0.810600	0.675800
O51	O5	0.388000	0.736000	0.871600
Br11	Br1	0.401620	0.736800	0.891790
In21	In2	0.677700	0.260840	0.806330
C91	C9	0.538800	0.205000	0.604700
H41	H4	0.574300	0.203300	0.581900
C101	C10	0.541200	0.213400	0.666200
C111	C11	0.488800	0.213900	0.699400
H51	H5	0.490500	0.219500	0.741300
C121	C12	0.483700	0.199000	0.577400
C131	C13	0.601000	0.220200	0.695100
C141	C14	0.434800	0.206400	0.671800
C151	C15	0.432000	0.198100	0.609800
H61	H6	0.394800	0.191900	0.590700
C161	C16	0.376900	0.205400	0.705200
N21	N2	0.477100	0.195800	0.513800
O61	O6	0.603040	0.238600	0.747800
O71	O7	0.378600	0.219800	0.759200
O81	O8	0.645700	0.206500	0.662700
O91	O9	0.332300	0.189400	0.675800
O101	O10	0.612000	0.264000	0.871600
Br21	Br2	0.598380	0.263200	0.891790
In31	In3	0.677700	0.739160	0.193670
C171	C17	0.538800	0.795000	0.395300
H71	H7	0.574300	0.796700	0.418100
C181	C18	0.541200	0.786600	0.333800
C191	C19	0.488800	0.786100	0.300600
H81	H8	0.490500	0.780500	0.258700
C201	C20	0.483700	0.801000	0.422600
C211	C21	0.601000	0.779800	0.304900
C221	C22	0.434800	0.793600	0.328200
C231	C23	0.432000	0.801900	0.390200
H91	H9	0.394800	0.808100	0.409300
C241	C24	0.376900	0.794600	0.294800
N31	N3	0.477100	0.804200	0.486200
O111	O11	0.603040	0.761400	0.252200
O121	O12	0.378600	0.780200	0.240800
O131	O13	0.645700	0.793500	0.337300
O141	O14	0.332300	0.810600	0.324200
O151	O15	0.612000	0.736000	0.128400
Br31	Br3	0.598380	0.736800	0.108210
In41	In4	0.322300	0.260840	0.193670
C251	C25	0.461200	0.205000	0.395300
H101	H10	0.425700	0.203300	0.418100
C261	C26	0.458800	0.213400	0.333800
C271	C27	0.511200	0.213900	0.300600
H111	H11	0.509500	0.219500	0.258700
C281	C28	0.516300	0.199000	0.422600
C291	C29	0.399000	0.220200	0.304900
C301	C30	0.565200	0.206400	0.328200
C311	C31	0.568000	0.198100	0.390200
H121	H12	0.605200	0.191900	0.409300
C321	C32	0.623100	0.205400	0.294800
N41	N4	0.522900	0.195800	0.486200
O161	O16	0.396960	0.238600	0.252200
O171	O17	0.621400	0.219800	0.240800
O181	O18	0.354300	0.206500	0.337300
O191	O19	0.667700	0.189400	0.324200
O201	O20	0.388000	0.264000	0.128400
Br41	Br4	0.401620	0.263200	0.108210
In51	In5	0.806330	0.322300	0.739160
C331	C33	0.604700	0.461200	0.795000
H131	H13	0.581900	0.425700	0.796700
C341	C34	0.666200	0.458800	0.786600
C351	C35	0.699400	0.511200	0.786100
H141	H14	0.741300	0.509500	0.780500
C361	C36	0.577400	0.516300	0.801000
C371	C37	0.695100	0.399000	0.779800
C381	C38	0.671800	0.565200	0.793600
C391	C39	0.609800	0.568000	0.801900
H151	H15	0.590700	0.605200	0.808100
C401	C40	0.705200	0.623100	0.794600
N51	N5	0.513800	0.522900	0.804200
O211	O21	0.747800	0.396960	0.761400
O221	O22	0.759200	0.621400	0.780200
O231	O23	0.662700	0.354300	0.793500
O241	O24	0.675800	0.667700	0.810600
O251	O25	0.871600	0.388000	0.736000
Br51	Br5	0.891790	0.401620	0.736800
In61	In6	0.806330	0.677700	0.260840
C411	C41	0.604700	0.538800	0.205000
H161	H16	0.581900	0.574300	0.203300
C421	C42	0.666200	0.541200	0.213400
C431	C43	0.699400	0.488800	0.213900
H171	H17	0.741300	0.490500	0.219500
C441	C44	0.577400	0.483700	0.199000
C451	C45	0.695100	0.601000	0.220200
C461	C46	0.671800	0.434800	0.206400
C471	C47	0.609800	0.432000	0.198100
H181	H18	0.590700	0.394800	0.191900
C481	C48	0.705200	0.376900	0.205400
N61	N6	0.513800	0.477100	0.195800
O261	O26	0.747800	0.603040	0.238600
O271	O27	0.759200	0.378600	0.219800
O281	O28	0.662700	0.645700	0.206500
O291	O29	0.675800	0.332300	0.189400
O301	O30	0.871600	0.612000	0.264000
Br61	Br6	0.891790	0.598380	0.263200
In71	In7	0.193670	0.677700	0.739160
C491	C49	0.395300	0.538800	0.795000
H191	H19	0.418100	0.574300	0.796700
C501	C50	0.333800	0.541200	0.786600
C511	C51	0.300600	0.488800	0.786100
H201	H20	0.258700	0.490500	0.780500
C521	C52	0.422600	0.483700	0.801000
C531	C53	0.304900	0.601000	0.779800
C541	C54	0.328200	0.434800	0.793600
C551	C55	0.390200	0.432000	0.801900
H211	H21	0.409300	0.394800	0.808100
C561	C56	0.294800	0.376900	0.794600
N71	N7	0.486200	0.477100	0.804200
O311	O31	0.252200	0.603040	0.761400
O321	O32	0.240800	0.378600	0.780200
O331	O33	0.337300	0.645700	0.793500
O341	O34	0.324200	0.332300	0.810600
O351	O35	0.128400	0.612000	0.736000
Br71	Br7	0.108210	0.598380	0.736800
In81	In8	0.193670	0.322300	0.260840
C571	C57	0.395300	0.461200	0.205000
H221	H22	0.418100	0.425700	0.203300
C581	C58	0.333800	0.458800	0.213400
C591	C59	0.300600	0.511200	0.213900
H231	H23	0.258700	0.509500	0.219500
C601	C60	0.422600	0.516300	0.199000
C611	C61	0.304900	0.399000	0.220200
C621	C62	0.328200	0.565200	0.206400
C631	C63	0.390200	0.568000	0.198100
H241	H24	0.409300	0.605200	0.191900
C641	C64	0.294800	0.623100	0.205400
N81	N8	0.486200	0.522900	0.195800
O361	O36	0.252200	0.396960	0.238600
O371	O37	0.240800	0.621400	0.219800
O381	O38	0.337300	0.354300	0.206500
O391	O39	0.324200	0.667700	0.189400
O401	O40	0.128400	0.388000	0.264000
Br81	Br8	0.108210	0.401620	0.263200
In91	In9	0.739160	0.806330	0.322300
C651	C65	0.795000	0.604700	0.461200
H251	H25	0.796700	0.581900	0.425700
C661	C66	0.786600	0.666200	0.458800
C671	C67	0.786100	0.699400	0.511200
H261	H26	0.780500	0.741300	0.509500
C681	C68	0.801000	0.577400	0.516300
C691	C69	0.779800	0.695100	0.399000
C701	C70	0.793600	0.671800	0.565200
C711	C71	0.801900	0.609800	0.568000
H271	H27	0.808100	0.590700	0.605200
C721	C72	0.794600	0.705200	0.623100
N91	N9	0.804200	0.513800	0.522900
O411	O41	0.761400	0.747800	0.396960
O421	O42	0.780200	0.759200	0.621400
O431	O43	0.793500	0.662700	0.354300
O441	O44	0.810600	0.675800	0.667700
O451	O45	0.736000	0.871600	0.388000
Br91	Br9	0.736800	0.891790	0.401620
In101	In10	0.260840	0.806330	0.677700
C731	C73	0.205000	0.604700	0.538800
H281	H28	0.203300	0.581900	0.574300
C741	C74	0.213400	0.666200	0.541200
C751	C75	0.213900	0.699400	0.488800
H291	H29	0.219500	0.741300	0.490500
C761	C76	0.199000	0.577400	0.483700
C771	C77	0.220200	0.695100	0.601000
C781	C78	0.206400	0.671800	0.434800
C791	C79	0.198100	0.609800	0.432000
H301	H30	0.191900	0.590700	0.394800
C801	C80	0.205400	0.705200	0.376900
N101	N10	0.195800	0.513800	0.477100
O461	O46	0.238600	0.747800	0.603040
O471	O47	0.219800	0.759200	0.378600
O481	O48	0.206500	0.662700	0.645700
O491	O49	0.189400	0.675800	0.332300
O501	O50	0.264000	0.871600	0.612000
Br101	Br10	0.263200	0.891790	0.598380
In111	In11	0.739160	0.193670	0.677700
C811	C81	0.795000	0.395300	0.538800
H311	H31	0.796700	0.418100	0.574300
C821	C82	0.786600	0.333800	0.541200
C831	C83	0.786100	0.300600	0.488800
H321	H32	0.780500	0.258700	0.490500
C841	C84	0.801000	0.422600	0.483700
C851	C85	0.779800	0.304900	0.601000
C861	C86	0.793600	0.328200	0.434800
C871	C87	0.801900	0.390200	0.432000
H331	H33	0.808100	0.409300	0.394800
C881	C88	0.794600	0.294800	0.376900
N111	N11	0.804200	0.486200	0.477100
O511	O51	0.761400	0.252200	0.603040
O521	O52	0.780200	0.240800	0.378600
O531	O53	0.793500	0.337300	0.645700
O541	O54	0.810600	0.324200	0.332300
O551	O55	0.736000	0.128400	0.612000
Br111	Br11	0.736800	0.108210	0.598380
In121	In12	0.260840	0.193670	0.322300
C891	C89	0.205000	0.395300	0.461200
H341	H34	0.203300	0.418100	0.425700
C901	C90	0.213400	0.333800	0.458800
C911	C91	0.213900	0.300600	0.511200
H351	H35	0.219500	0.258700	0.509500
C921	C92	0.199000	0.422600	0.516300
C931	C93	0.220200	0.304900	0.399000
C941	C94	0.206400	0.328200	0.565200
C951	C95	0.198100	0.390200	0.568000
H361	H36	0.191900	0.409300	0.605200
C961	C96	0.205400	0.294800	0.623100
N121	N12	0.195800	0.486200	0.522900
O561	O56	0.238600	0.252200	0.396960
O571	O57	0.219800	0.240800	0.621400
O581	O58	0.206500	0.337300	0.354300
O591	O59	0.189400	0.324200	0.667700
O601	O60	0.264000	0.128400	0.388000
Br121	Br12	0.263200	0.108210	0.401620
In131	In13	0.239160	0.822300	0.306330
C971	C97	0.295000	0.961200	0.104700
H371	H37	0.296700	0.925700	0.081900
C981	C98	0.286600	0.958800	0.166200
C991	C99	0.286100	0.011200	0.199400
H381	H38	0.280500	0.009500	0.241300
C1001	C100	0.301000	0.016300	0.077400
C1011	C101	0.279800	0.899000	0.195100
C1021	C102	0.293600	0.065200	0.171800
C1031	C103	0.301900	0.068000	0.109800
H391	H39	0.308100	0.105200	0.090700
C1041	C104	0.294600	0.123100	0.205200
N131	N13	0.304200	0.022900	0.013800
O611	O61	0.261400	0.896960	0.247800
O621	O62	0.280200	0.121400	0.259200
O631	O63	0.293500	0.854300	0.162700
O641	O64	0.310600	0.167700	0.175800
O651	O65	0.236000	0.888000	0.371600
Br131	Br13	0.236800	0.901620	0.391790
In141	In14	0.760840	0.177700	0.306330
C1051	C105	0.705000	0.038800	0.104700
H401	H40	0.703300	0.074300	0.081900
C1061	C106	0.713400	0.041200	0.166200
C1071	C107	0.713900	0.988800	0.199400
H411	H41	0.719500	0.990500	0.241300
C1081	C108	0.699000	0.983700	0.077400
C1091	C109	0.720200	0.101000	0.195100
C1101	C110	0.706400	0.934800	0.171800
C1111	C111	0.698100	0.932000	0.109800
H421	H42	0.691900	0.894800	0.090700
C1121	C112	0.705400	0.876900	0.205200
N141	N14	0.695800	0.977100	0.013800
O661	O66	0.738600	0.103040	0.247800
O671	O67	0.719800	0.878600	0.259200
O681	O68	0.706500	0.145700	0.162700
O691	O69	0.689400	0.832300	0.175800
O701	O70	0.764000	0.112000	0.371600
Br141	Br14	0.763200	0.098380	0.391790
In151	In15	0.239160	0.177700	0.693670
C1131	C113	0.295000	0.038800	0.895300
H431	H43	0.296700	0.074300	0.918100
C1141	C114	0.286600	0.041200	0.833800
C1151	C115	0.286100	0.988800	0.800600
H441	H44	0.280500	0.990500	0.758700
C1161	C116	0.301000	0.983700	0.922600
C1171	C117	0.279800	0.101000	0.804900
C1181	C118	0.293600	0.934800	0.828200
C1191	C119	0.301900	0.932000	0.890200
H451	H45	0.308100	0.894800	0.909300
C1201	C120	0.294600	0.876900	0.794800
N151	N15	0.304200	0.977100	0.986200
O711	O71	0.261400	0.103040	0.752200
O721	O72	0.280200	0.878600	0.740800
O731	O73	0.293500	0.145700	0.837300
O741	O74	0.310600	0.832300	0.824200
O751	O75	0.236000	0.112000	0.628400
Br151	Br15	0.236800	0.098380	0.608210
In161	In16	0.760840	0.822300	0.693670
C1211	C121	0.705000	0.961200	0.895300
H461	H46	0.703300	0.925700	0.918100
C1221	C122	0.713400	0.958800	0.833800
C1231	C123	0.713900	0.011200	0.800600
H471	H47	0.719500	0.009500	0.758700
C1241	C124	0.699000	0.016300	0.922600
C1251	C125	0.720200	0.899000	0.804900
C1261	C126	0.706400	0.065200	0.828200
C1271	C127	0.698100	0.068000	0.890200
H481	H48	0.691900	0.105200	0.909300
C1281	C128	0.705400	0.123100	0.794800
N161	N16	0.695800	0.022900	0.986200
O761	O76	0.738600	0.896960	0.752200
O771	O77	0.719800	0.121400	0.740800
O781	O78	0.706500	0.854300	0.837300
O791	O79	0.689400	0.167700	0.824200
O801	O80	0.764000	0.888000	0.628400
Br161	Br16	0.763200	0.901620	0.608210
In171	In17	0.822300	0.306330	0.239160
C1291	C129	0.961200	0.104700	0.295000
H491	H49	0.925700	0.081900	0.296700
C1301	C130	0.958800	0.166200	0.286600
C1311	C131	0.011200	0.199400	0.286100
H501	H50	0.009500	0.241300	0.280500
C1321	C132	0.016300	0.077400	0.301000
C1331	C133	0.899000	0.195100	0.279800
C1341	C134	0.065200	0.171800	0.293600
C1351	C135	0.068000	0.109800	0.301900
H511	H51	0.105200	0.090700	0.308100
C1361	C136	0.123100	0.205200	0.294600
N171	N17	0.022900	0.013800	0.304200
O811	O81	0.896960	0.247800	0.261400
O821	O82	0.121400	0.259200	0.280200
O831	O83	0.854300	0.162700	0.293500
O841	O84	0.167700	0.175800	0.310600
O851	O85	0.888000	0.371600	0.236000
Br171	Br17	0.901620	0.391790	0.236800
In181	In18	0.177700	0.306330	0.760840
C1371	C137	0.038800	0.104700	0.705000
H521	H52	0.074300	0.081900	0.703300
C1381	C138	0.041200	0.166200	0.713400
C1391	C139	0.988800	0.199400	0.713900
H531	H53	0.990500	0.241300	0.719500
C1401	C140	0.983700	0.077400	0.699000
C1411	C141	0.101000	0.195100	0.720200
C1421	C142	0.934800	0.171800	0.706400
C1431	C143	0.932000	0.109800	0.698100
H541	H54	0.894800	0.090700	0.691900
C1441	C144	0.876900	0.205200	0.705400
N181	N18	0.977100	0.013800	0.695800
O861	O86	0.103040	0.247800	0.738600
O871	O87	0.878600	0.259200	0.719800
O881	O88	0.145700	0.162700	0.706500
O891	O89	0.832300	0.175800	0.689400
O901	O90	0.112000	0.371600	0.764000
Br181	Br18	0.098380	0.391790	0.763200
In191	In19	0.177700	0.693670	0.239160
C1451	C145	0.038800	0.895300	0.295000
H551	H55	0.074300	0.918100	0.296700
C1461	C146	0.041200	0.833800	0.286600
C1471	C147	0.988800	0.800600	0.286100
H561	H56	0.990500	0.758700	0.280500
C1481	C148	0.983700	0.922600	0.301000
C1491	C149	0.101000	0.804900	0.279800
C1501	C150	0.934800	0.828200	0.293600
C1511	C151	0.932000	0.890200	0.301900
H571	H57	0.894800	0.909300	0.308100
C1521	C152	0.876900	0.794800	0.294600
N191	N19	0.977100	0.986200	0.304200
O911	O91	0.103040	0.752200	0.261400
O921	O92	0.878600	0.740800	0.280200
O931	O93	0.145700	0.837300	0.293500
O941	O94	0.832300	0.824200	0.310600
O951	O95	0.112000	0.628400	0.236000
Br191	Br19	0.098380	0.608210	0.236800
In201	In20	0.822300	0.693670	0.760840
C1531	C153	0.961200	0.895300	0.705000
H581	H58	0.925700	0.918100	0.703300
C1541	C154	0.958800	0.833800	0.713400
C1551	C155	0.011200	0.800600	0.713900
H591	H59	0.009500	0.758700	0.719500
C1561	C156	0.016300	0.922600	0.699000
C1571	C157	0.899000	0.804900	0.720200
C1581	C158	0.065200	0.828200	0.706400
C1591	C159	0.068000	0.890200	0.698100
H601	H60	0.105200	0.909300	0.691900
C1601	C160	0.123100	0.794800	0.705400
N201	N20	0.022900	0.986200	0.695800
O961	O96	0.896960	0.752200	0.738600
O971	O97	0.121400	0.740800	0.719800
O981	O98	0.854300	0.837300	0.706500
O991	O99	0.167700	0.824200	0.689400
O1001	O100	0.888000	0.628400	0.764000
Br201	Br20	0.901620	0.608210	0.763200
In211	In21	0.306330	0.239160	0.822300
C1611	C161	0.104700	0.295000	0.961200
H611	H61	0.081900	0.296700	0.925700
C1621	C162	0.166200	0.286600	0.958800
C1631	C163	0.199400	0.286100	0.011200
H621	H62	0.241300	0.280500	0.009500
C1641	C164	0.077400	0.301000	0.016300
C1651	C165	0.195100	0.279800	0.899000
C1661	C166	0.171800	0.293600	0.065200
C1671	C167	0.109800	0.301900	0.068000
H631	H63	0.090700	0.308100	0.105200
C1681	C168	0.205200	0.294600	0.123100
N211	N21	0.013800	0.304200	0.022900
O1011	O101	0.247800	0.261400	0.896960
O1021	O102	0.259200	0.280200	0.121400
O1031	O103	0.162700	0.293500	0.854300
O1041	O104	0.175800	0.310600	0.167700
O1051	O105	0.371600	0.236000	0.888000
Br211	Br21	0.391790	0.236800	0.901620
In221	In22	0.306330	0.760840	0.177700
C1691	C169	0.104700	0.705000	0.038800
H641	H64	0.081900	0.703300	0.074300
C1701	C170	0.166200	0.713400	0.041200
C1711	C171	0.199400	0.713900	0.988800
H651	H65	0.241300	0.719500	0.990500
C1721	C172	0.077400	0.699000	0.983700
C1731	C173	0.195100	0.720200	0.101000
C1741	C174	0.171800	0.706400	0.934800
C1751	C175	0.109800	0.698100	0.932000
H661	H66	0.090700	0.691900	0.894800
C1761	C176	0.205200	0.705400	0.876900
N221	N22	0.013800	0.695800	0.977100
O1061	O106	0.247800	0.738600	0.103040
O1071	O107	0.259200	0.719800	0.878600
O1081	O108	0.162700	0.706500	0.145700
O1091	O109	0.175800	0.689400	0.832300
O1101	O110	0.371600	0.764000	0.112000
Br221	Br22	0.391790	0.763200	0.098380
In231	In23	0.693670	0.239160	0.177700
C1771	C177	0.895300	0.295000	0.038800
H671	H67	0.918100	0.296700	0.074300
C1781	C178	0.833800	0.286600	0.041200
C1791	C179	0.800600	0.286100	0.988800
H681	H68	0.758700	0.280500	0.990500
C1801	C180	0.922600	0.301000	0.983700
C1811	C181	0.804900	0.279800	0.101000
C1821	C182	0.828200	0.293600	0.934800
C1831	C183	0.890200	0.301900	0.932000
H691	H69	0.909300	0.308100	0.894800
C1841	C184	0.794800	0.294600	0.876900
N231	N23	0.986200	0.304200	0.977100
O1111	O111	0.752200	0.261400	0.103040
O1121	O112	0.740800	0.280200	0.878600
O1131	O113	0.837300	0.293500	0.145700
O1141	O114	0.824200	0.310600	0.832300
O1151	O115	0.628400	0.236000	0.112000
Br231	Br23	0.608210	0.236800	0.098380
In241	In24	0.693670	0.760840	0.822300
C1851	C185	0.895300	0.705000	0.961200
H701	H70	0.918100	0.703300	0.925700
C1861	C186	0.833800	0.713400	0.958800
C1871	C187	0.800600	0.713900	0.011200
H711	H71	0.758700	0.719500	0.009500
C1881	C188	0.922600	0.699000	0.016300
C1891	C189	0.804900	0.720200	0.899000
C1901	C190	0.828200	0.706400	0.065200
C1911	C191	0.890200	0.698100	0.068000
H721	H72	0.909300	0.691900	0.105200
C1921	C192	0.794800	0.705400	0.123100
N241	N24	0.986200	0.695800	0.022900
O1161	O116	0.752200	0.738600	0.896960
O1171	O117	0.740800	0.719800	0.121400
O1181	O118	0.837300	0.706500	0.854300
O1191	O119	0.824200	0.689400	0.167700
O1201	O120	0.628400	0.764000	0.888000
Br241	Br24	0.608210	0.763200	0.901620
O1211	O121	0.259600	0.740400	0.740400
O1221	O122	0.740400	0.259600	0.740400
O1231	O123	0.740400	0.740400	0.259600
O1241	O124	0.259600	0.259600	0.259600
O1251	O125	0.240400	0.759600	0.240400
O1261	O126	0.759600	0.240400	0.240400
O1271	O127	0.240400	0.240400	0.759600
O1281	O128	0.759600	0.759600	0.759600
