data_IZEPAF_clean_PM
_symmetry_space_group_name_H-M	'P1'
_cell_length_a	28.520000
_cell_length_b	28.520000
_cell_length_c	28.520000
_cell_angle_alpha	90.000000
_cell_angle_beta	90.000000
_cell_angle_gamma	90.000000
_symmetry_Int_Tables_number 1

loop_
_symmetry_equiv_pos_as_xyz
'x,y,z'

loop_
_atom_site_label
_atom_site_type_symbol
_atom_site_fract_x
_atom_site_fract_y
_atom_site_fract_z
Cr11	Cr1	0.244930	0.000000	0.244930
Cr21	Cr2	0.755070	0.000000	0.244930
Cr31	Cr3	0.755070	0.000000	0.755070
Cr41	Cr4	0.244930	0.000000	0.755070
Cr51	Cr5	0.244930	0.244930	0.000000
Cr61	Cr6	0.244930	0.755070	0.000000
Cr71	Cr7	0.755070	0.755070	0.000000
Cr81	Cr8	0.755070	0.244930	0.000000
Cr91	Cr9	0.000000	0.244930	0.244930
Cr101	Cr10	0.000000	0.244930	0.755070
Cr111	Cr11	0.000000	0.755070	0.755070
Cr121	Cr12	0.000000	0.755070	0.244930
Cr131	Cr13	0.315250	0.939620	0.315250
Cr141	Cr14	0.684750	0.060380	0.315250
Cr151	Cr15	0.684750	0.939620	0.684750
Cr161	Cr16	0.315250	0.060380	0.684750
Cr171	Cr17	0.315250	0.315250	0.939620
Cr181	Cr18	0.315250	0.684750	0.060380
Cr191	Cr19	0.684750	0.684750	0.939620
Cr201	Cr20	0.684750	0.315250	0.060380
Cr211	Cr21	0.939620	0.315250	0.315250
Cr221	Cr22	0.060380	0.315250	0.684750
Cr231	Cr23	0.939620	0.684750	0.684750
Cr241	Cr24	0.060380	0.684750	0.315250
Cr251	Cr25	0.939620	0.315250	0.684750
Cr261	Cr26	0.060380	0.684750	0.684750
Cr271	Cr27	0.939620	0.684750	0.315250
Cr281	Cr28	0.060380	0.315250	0.315250
Cr291	Cr29	0.315250	0.315250	0.060380
Cr301	Cr30	0.684750	0.315250	0.939620
Cr311	Cr31	0.684750	0.684750	0.060380
Cr321	Cr32	0.315250	0.684750	0.939620
Cr331	Cr33	0.315250	0.939620	0.684750
Cr341	Cr34	0.315250	0.060380	0.315250
Cr351	Cr35	0.684750	0.939620	0.315250
Cr361	Cr36	0.684750	0.060380	0.684750
H11	H1	0.349050	0.837450	0.225010
H21	H2	0.281350	0.934580	0.127350
H31	H3	0.310130	0.076740	0.455980
H41	H4	0.650950	0.162550	0.225010
H51	H5	0.718650	0.065420	0.127350
H61	H6	0.689870	0.923260	0.455980
H71	H7	0.650950	0.837450	0.774990
H81	H8	0.718650	0.934580	0.872650
H91	H9	0.689870	0.076740	0.544020
H101	H10	0.349050	0.162550	0.774990
H111	H11	0.281350	0.065420	0.872650
H121	H12	0.310130	0.923260	0.544020
H131	H13	0.225010	0.349050	0.837450
H141	H14	0.127350	0.281350	0.934580
H151	H15	0.455980	0.310130	0.076740
H161	H16	0.225010	0.650950	0.162550
H171	H17	0.127350	0.718650	0.065420
H181	H18	0.455980	0.689870	0.923260
H191	H19	0.774990	0.650950	0.837450
H201	H20	0.872650	0.718650	0.934580
H211	H21	0.544020	0.689870	0.076740
H221	H22	0.774990	0.349050	0.162550
H231	H23	0.872650	0.281350	0.065420
H241	H24	0.544020	0.310130	0.923260
H251	H25	0.837450	0.225010	0.349050
H261	H26	0.934580	0.127350	0.281350
H271	H27	0.076740	0.455980	0.310130
H281	H28	0.162550	0.225010	0.650950
H291	H29	0.065420	0.127350	0.718650
H301	H30	0.923260	0.455980	0.689870
H311	H31	0.837450	0.774990	0.650950
H321	H32	0.934580	0.872650	0.718650
H331	H33	0.076740	0.544020	0.689870
H341	H34	0.162550	0.774990	0.349050
H351	H35	0.065420	0.872650	0.281350
H361	H36	0.923260	0.544020	0.310130
H371	H37	0.837450	0.349050	0.774990
H381	H38	0.934580	0.281350	0.872650
H391	H39	0.076740	0.310130	0.544020
H401	H40	0.162550	0.650950	0.774990
H411	H41	0.065420	0.718650	0.872650
H421	H42	0.923260	0.689870	0.544020
H431	H43	0.837450	0.650950	0.225010
H441	H44	0.934580	0.718650	0.127350
H451	H45	0.076740	0.689870	0.455980
H461	H46	0.162550	0.349050	0.225010
H471	H47	0.065420	0.281350	0.127350
H481	H48	0.923260	0.310130	0.455980
H491	H49	0.349050	0.225010	0.162550
H501	H50	0.281350	0.127350	0.065420
H511	H51	0.310130	0.455980	0.923260
H521	H52	0.650950	0.225010	0.837450
H531	H53	0.718650	0.127350	0.934580
H541	H54	0.689870	0.455980	0.076740
H551	H55	0.650950	0.774990	0.162550
H561	H56	0.718650	0.872650	0.065420
H571	H57	0.689870	0.544020	0.923260
H581	H58	0.349050	0.774990	0.837450
H591	H59	0.281350	0.872650	0.934580
H601	H60	0.310130	0.544020	0.076740
H611	H61	0.225010	0.837450	0.650950
H621	H62	0.127350	0.934580	0.718650
H631	H63	0.455980	0.076740	0.689870
H641	H64	0.225010	0.162550	0.349050
H651	H65	0.127350	0.065420	0.281350
H661	H66	0.455980	0.923260	0.310130
H671	H67	0.774990	0.837450	0.349050
H681	H68	0.872650	0.934580	0.281350
H691	H69	0.544020	0.076740	0.310130
H701	H70	0.774990	0.162550	0.650950
H711	H71	0.872650	0.065420	0.718650
H721	H72	0.544020	0.923260	0.689870
H731	H73	0.650950	0.162550	0.774990
H741	H74	0.718650	0.065420	0.872650
H751	H75	0.689870	0.923260	0.544020
H761	H76	0.349050	0.837450	0.774990
H771	H77	0.281350	0.934580	0.872650
H781	H78	0.310130	0.076740	0.544020
H791	H79	0.349050	0.162550	0.225010
H801	H80	0.281350	0.065420	0.127350
H811	H81	0.310130	0.923260	0.455980
H821	H82	0.650950	0.837450	0.225010
H831	H83	0.718650	0.934580	0.127350
H841	H84	0.689870	0.076740	0.455980
H851	H85	0.774990	0.650950	0.162550
H861	H86	0.872650	0.718650	0.065420
H871	H87	0.544020	0.689870	0.923260
H881	H88	0.774990	0.349050	0.837450
H891	H89	0.872650	0.281350	0.934580
H901	H90	0.544020	0.310130	0.076740
H911	H91	0.225010	0.349050	0.162550
H921	H92	0.127350	0.281350	0.065420
H931	H93	0.455980	0.310130	0.923260
H941	H94	0.225010	0.650950	0.837450
H951	H95	0.127350	0.718650	0.934580
H961	H96	0.455980	0.689870	0.076740
H971	H97	0.162550	0.774990	0.650950
H981	H98	0.065420	0.872650	0.718650
H991	H99	0.923260	0.544020	0.689870
H1001	H100	0.837450	0.774990	0.349050
H1011	H101	0.934580	0.872650	0.281350
H1021	H102	0.076740	0.544020	0.310130
H1031	H103	0.162550	0.225010	0.349050
H1041	H104	0.065420	0.127350	0.281350
H1051	H105	0.923260	0.455980	0.310130
H1061	H106	0.837450	0.225010	0.650950
H1071	H107	0.934580	0.127350	0.718650
H1081	H108	0.076740	0.455980	0.689870
H1091	H109	0.162550	0.650950	0.225010
H1101	H110	0.065420	0.718650	0.127350
H1111	H111	0.923260	0.689870	0.455980
H1121	H112	0.837450	0.349050	0.225010
H1131	H113	0.934580	0.281350	0.127350
H1141	H114	0.076740	0.310130	0.455980
H1151	H115	0.162550	0.349050	0.774990
H1161	H116	0.065420	0.281350	0.872650
H1171	H117	0.923260	0.310130	0.544020
H1181	H118	0.837450	0.650950	0.774990
H1191	H119	0.934580	0.718650	0.872650
H1201	H120	0.076740	0.689870	0.544020
H1211	H121	0.650950	0.774990	0.837450
H1221	H122	0.718650	0.872650	0.934580
H1231	H123	0.689870	0.544020	0.076740
H1241	H124	0.349050	0.774990	0.162550
H1251	H125	0.281350	0.872650	0.065420
H1261	H126	0.310130	0.544020	0.923260
H1271	H127	0.349050	0.225010	0.837450
H1281	H128	0.281350	0.127350	0.934580
H1291	H129	0.310130	0.455980	0.076740
H1301	H130	0.650950	0.225010	0.162550
H1311	H131	0.718650	0.127350	0.065420
H1321	H132	0.689870	0.455980	0.923260
H1331	H133	0.774990	0.162550	0.349050
H1341	H134	0.872650	0.065420	0.281350
H1351	H135	0.544020	0.923260	0.310130
H1361	H136	0.774990	0.837450	0.650950
H1371	H137	0.872650	0.934580	0.718650
H1381	H138	0.544020	0.076740	0.689870
H1391	H139	0.225010	0.162550	0.650950
H1401	H140	0.127350	0.065420	0.718650
H1411	H141	0.455980	0.923260	0.689870
H1421	H142	0.225010	0.837450	0.349050
H1431	H143	0.127350	0.934580	0.281350
H1441	H144	0.455980	0.076740	0.310130
C11	C1	0.333060	0.845160	0.189430
C21	C2	0.303780	0.922300	0.218540
C31	C3	0.313480	0.889130	0.180390
C41	C4	0.295860	0.898540	0.135790
C51	C5	0.310180	0.042170	0.475630
C61	C6	0.666940	0.154840	0.189430
C71	C7	0.696220	0.077700	0.218540
C81	C8	0.686520	0.110870	0.180390
C91	C9	0.704140	0.101460	0.135790
C101	C10	0.689820	0.957830	0.475630
C111	C11	0.666940	0.845160	0.810570
C121	C12	0.696220	0.922300	0.781460
C131	C13	0.686520	0.889130	0.819610
C141	C14	0.704140	0.898540	0.864210
C151	C15	0.689820	0.042170	0.524370
C161	C16	0.333060	0.154840	0.810570
C171	C17	0.303780	0.077700	0.781460
C181	C18	0.313480	0.110870	0.819610
C191	C19	0.295860	0.101460	0.864210
C201	C20	0.310180	0.957830	0.524370
C211	C21	0.189430	0.333060	0.845160
C221	C22	0.218540	0.303780	0.922300
C231	C23	0.180390	0.313480	0.889130
C241	C24	0.135790	0.295860	0.898540
C251	C25	0.475630	0.310180	0.042170
C261	C26	0.189430	0.666940	0.154840
C271	C27	0.218540	0.696220	0.077700
C281	C28	0.180390	0.686520	0.110870
C291	C29	0.135790	0.704140	0.101460
C301	C30	0.475630	0.689820	0.957830
C311	C31	0.810570	0.666940	0.845160
C321	C32	0.781460	0.696220	0.922300
C331	C33	0.819610	0.686520	0.889130
C341	C34	0.864210	0.704140	0.898540
C351	C35	0.524370	0.689820	0.042170
C361	C36	0.810570	0.333060	0.154840
C371	C37	0.781460	0.303780	0.077700
C381	C38	0.819610	0.313480	0.110870
C391	C39	0.864210	0.295860	0.101460
C401	C40	0.524370	0.310180	0.957830
C411	C41	0.845160	0.189430	0.333060
C421	C42	0.922300	0.218540	0.303780
C431	C43	0.889130	0.180390	0.313480
C441	C44	0.898540	0.135790	0.295860
C451	C45	0.042170	0.475630	0.310180
C461	C46	0.154840	0.189430	0.666940
C471	C47	0.077700	0.218540	0.696220
C481	C48	0.110870	0.180390	0.686520
C491	C49	0.101460	0.135790	0.704140
C501	C50	0.957830	0.475630	0.689820
C511	C51	0.845160	0.810570	0.666940
C521	C52	0.922300	0.781460	0.696220
C531	C53	0.889130	0.819610	0.686520
C541	C54	0.898540	0.864210	0.704140
C551	C55	0.042170	0.524370	0.689820
C561	C56	0.154840	0.810570	0.333060
C571	C57	0.077700	0.781460	0.303780
C581	C58	0.110870	0.819610	0.313480
C591	C59	0.101460	0.864210	0.295860
C601	C60	0.957830	0.524370	0.310180
C611	C61	0.845160	0.333060	0.810570
C621	C62	0.922300	0.303780	0.781460
C631	C63	0.889130	0.313480	0.819610
C641	C64	0.898540	0.295860	0.864210
C651	C65	0.042170	0.310180	0.524370
C661	C66	0.154840	0.666940	0.810570
C671	C67	0.077700	0.696220	0.781460
C681	C68	0.110870	0.686520	0.819610
C691	C69	0.101460	0.704140	0.864210
C701	C70	0.957830	0.689820	0.524370
C711	C71	0.845160	0.666940	0.189430
C721	C72	0.922300	0.696220	0.218540
C731	C73	0.889130	0.686520	0.180390
C741	C74	0.898540	0.704140	0.135790
C751	C75	0.042170	0.689820	0.475630
C761	C76	0.154840	0.333060	0.189430
C771	C77	0.077700	0.303780	0.218540
C781	C78	0.110870	0.313480	0.180390
C791	C79	0.101460	0.295860	0.135790
C801	C80	0.957830	0.310180	0.475630
C811	C81	0.333060	0.189430	0.154840
C821	C82	0.303780	0.218540	0.077700
C831	C83	0.313480	0.180390	0.110870
C841	C84	0.295860	0.135790	0.101460
C851	C85	0.310180	0.475630	0.957830
C861	C86	0.666940	0.189430	0.845160
C871	C87	0.696220	0.218540	0.922300
C881	C88	0.686520	0.180390	0.889130
C891	C89	0.704140	0.135790	0.898540
C901	C90	0.689820	0.475630	0.042170
C911	C91	0.666940	0.810570	0.154840
C921	C92	0.696220	0.781460	0.077700
C931	C93	0.686520	0.819610	0.110870
C941	C94	0.704140	0.864210	0.101460
C951	C95	0.689820	0.524370	0.957830
C961	C96	0.333060	0.810570	0.845160
C971	C97	0.303780	0.781460	0.922300
C981	C98	0.313480	0.819610	0.889130
C991	C99	0.295860	0.864210	0.898540
C1001	C100	0.310180	0.524370	0.042170
C1011	C101	0.189430	0.845160	0.666940
C1021	C102	0.218540	0.922300	0.696220
C1031	C103	0.180390	0.889130	0.686520
C1041	C104	0.135790	0.898540	0.704140
C1051	C105	0.475630	0.042170	0.689820
C1061	C106	0.189430	0.154840	0.333060
C1071	C107	0.218540	0.077700	0.303780
C1081	C108	0.180390	0.110870	0.313480
C1091	C109	0.135790	0.101460	0.295860
C1101	C110	0.475630	0.957830	0.310180
C1111	C111	0.810570	0.845160	0.333060
C1121	C112	0.781460	0.922300	0.303780
C1131	C113	0.819610	0.889130	0.313480
C1141	C114	0.864210	0.898540	0.295860
C1151	C115	0.524370	0.042170	0.310180
C1161	C116	0.810570	0.154840	0.666940
C1171	C117	0.781460	0.077700	0.696220
C1181	C118	0.819610	0.110870	0.686520
C1191	C119	0.864210	0.101460	0.704140
C1201	C120	0.524370	0.957830	0.689820
C1211	C121	0.666940	0.154840	0.810570
C1221	C122	0.696220	0.077700	0.781460
C1231	C123	0.686520	0.110870	0.819610
C1241	C124	0.704140	0.101460	0.864210
C1251	C125	0.689820	0.957830	0.524370
C1261	C126	0.333060	0.845160	0.810570
C1271	C127	0.303780	0.922300	0.781460
C1281	C128	0.313480	0.889130	0.819610
C1291	C129	0.295860	0.898540	0.864210
C1301	C130	0.310180	0.042170	0.524370
C1311	C131	0.333060	0.154840	0.189430
C1321	C132	0.303780	0.077700	0.218540
C1331	C133	0.313480	0.110870	0.180390
C1341	C134	0.295860	0.101460	0.135790
C1351	C135	0.310180	0.957830	0.475630
C1361	C136	0.666940	0.845160	0.189430
C1371	C137	0.696220	0.922300	0.218540
C1381	C138	0.686520	0.889130	0.180390
C1391	C139	0.704140	0.898540	0.135790
C1401	C140	0.689820	0.042170	0.475630
C1411	C141	0.810570	0.666940	0.154840
C1421	C142	0.781460	0.696220	0.077700
C1431	C143	0.819610	0.686520	0.110870
C1441	C144	0.864210	0.704140	0.101460
C1451	C145	0.524370	0.689820	0.957830
C1461	C146	0.810570	0.333060	0.845160
C1471	C147	0.781460	0.303780	0.922300
C1481	C148	0.819610	0.313480	0.889130
C1491	C149	0.864210	0.295860	0.898540
C1501	C150	0.524370	0.310180	0.042170
C1511	C151	0.189430	0.333060	0.154840
C1521	C152	0.218540	0.303780	0.077700
C1531	C153	0.180390	0.313480	0.110870
C1541	C154	0.135790	0.295860	0.101460
C1551	C155	0.475630	0.310180	0.957830
C1561	C156	0.189430	0.666940	0.845160
C1571	C157	0.218540	0.696220	0.922300
C1581	C158	0.180390	0.686520	0.889130
C1591	C159	0.135790	0.704140	0.898540
C1601	C160	0.475630	0.689820	0.042170
C1611	C161	0.154840	0.810570	0.666940
C1621	C162	0.077700	0.781460	0.696220
C1631	C163	0.110870	0.819610	0.686520
C1641	C164	0.101460	0.864210	0.704140
C1651	C165	0.957830	0.524370	0.689820
C1661	C166	0.845160	0.810570	0.333060
C1671	C167	0.922300	0.781460	0.303780
C1681	C168	0.889130	0.819610	0.313480
C1691	C169	0.898540	0.864210	0.295860
C1701	C170	0.042170	0.524370	0.310180
C1711	C171	0.154840	0.189430	0.333060
C1721	C172	0.077700	0.218540	0.303780
C1731	C173	0.110870	0.180390	0.313480
C1741	C174	0.101460	0.135790	0.295860
C1751	C175	0.957830	0.475630	0.310180
C1761	C176	0.845160	0.189430	0.666940
C1771	C177	0.922300	0.218540	0.696220
C1781	C178	0.889130	0.180390	0.686520
C1791	C179	0.898540	0.135790	0.704140
C1801	C180	0.042170	0.475630	0.689820
C1811	C181	0.154840	0.666940	0.189430
C1821	C182	0.077700	0.696220	0.218540
C1831	C183	0.110870	0.686520	0.180390
C1841	C184	0.101460	0.704140	0.135790
C1851	C185	0.957830	0.689820	0.475630
C1861	C186	0.845160	0.333060	0.189430
C1871	C187	0.922300	0.303780	0.218540
C1881	C188	0.889130	0.313480	0.180390
C1891	C189	0.898540	0.295860	0.135790
C1901	C190	0.042170	0.310180	0.475630
C1911	C191	0.154840	0.333060	0.810570
C1921	C192	0.077700	0.303780	0.781460
C1931	C193	0.110870	0.313480	0.819610
C1941	C194	0.101460	0.295860	0.864210
C1951	C195	0.957830	0.310180	0.524370
C1961	C196	0.845160	0.666940	0.810570
C1971	C197	0.922300	0.696220	0.781460
C1981	C198	0.889130	0.686520	0.819610
C1991	C199	0.898540	0.704140	0.864210
C2001	C200	0.042170	0.689820	0.524370
C2011	C201	0.666940	0.810570	0.845160
C2021	C202	0.696220	0.781460	0.922300
C2031	C203	0.686520	0.819610	0.889130
C2041	C204	0.704140	0.864210	0.898540
C2051	C205	0.689820	0.524370	0.042170
C2061	C206	0.333060	0.810570	0.154840
C2071	C207	0.303780	0.781460	0.077700
C2081	C208	0.313480	0.819610	0.110870
C2091	C209	0.295860	0.864210	0.101460
C2101	C210	0.310180	0.524370	0.957830
C2111	C211	0.333060	0.189430	0.845160
C2121	C212	0.303780	0.218540	0.922300
C2131	C213	0.313480	0.180390	0.889130
C2141	C214	0.295860	0.135790	0.898540
C2151	C215	0.310180	0.475630	0.042170
C2161	C216	0.666940	0.189430	0.154840
C2171	C217	0.696220	0.218540	0.077700
C2181	C218	0.686520	0.180390	0.110870
C2191	C219	0.704140	0.135790	0.101460
C2201	C220	0.689820	0.475630	0.957830
C2211	C221	0.810570	0.154840	0.333060
C2221	C222	0.781460	0.077700	0.303780
C2231	C223	0.819610	0.110870	0.313480
C2241	C224	0.864210	0.101460	0.295860
C2251	C225	0.524370	0.957830	0.310180
C2261	C226	0.810570	0.845160	0.666940
C2271	C227	0.781460	0.922300	0.696220
C2281	C228	0.819610	0.889130	0.686520
C2291	C229	0.864210	0.898540	0.704140
C2301	C230	0.524370	0.042170	0.689820
C2311	C231	0.189430	0.154840	0.666940
C2321	C232	0.218540	0.077700	0.696220
C2331	C233	0.180390	0.110870	0.686520
C2341	C234	0.135790	0.101460	0.704140
C2351	C235	0.475630	0.957830	0.689820
C2361	C236	0.189430	0.845160	0.333060
C2371	C237	0.218540	0.922300	0.303780
C2381	C238	0.180390	0.889130	0.313480
C2391	C239	0.135790	0.898540	0.295860
C2401	C240	0.475630	0.042170	0.310180
C2411	C241	0.310940	0.000000	0.399550
C2421	C242	0.310240	0.000000	0.450910
C2431	C243	0.689060	0.000000	0.399550
C2441	C244	0.689760	0.000000	0.450910
C2451	C245	0.689060	0.000000	0.600450
C2461	C246	0.689760	0.000000	0.549090
C2471	C247	0.310940	0.000000	0.600450
C2481	C248	0.310240	0.000000	0.549090
C2491	C249	0.399550	0.310940	0.000000
C2501	C250	0.450910	0.310240	0.000000
C2511	C251	0.399550	0.689060	0.000000
C2521	C252	0.450910	0.689760	0.000000
C2531	C253	0.600450	0.689060	0.000000
C2541	C254	0.549090	0.689760	0.000000
C2551	C255	0.600450	0.310940	0.000000
C2561	C256	0.549090	0.310240	0.000000
C2571	C257	0.000000	0.399550	0.310940
C2581	C258	0.000000	0.450910	0.310240
C2591	C259	0.000000	0.399550	0.689060
C2601	C260	0.000000	0.450910	0.689760
C2611	C261	0.000000	0.600450	0.689060
C2621	C262	0.000000	0.549090	0.689760
C2631	C263	0.000000	0.600450	0.310940
C2641	C264	0.000000	0.549090	0.310240
C2651	C265	0.000000	0.310940	0.600450
C2661	C266	0.000000	0.310240	0.549090
C2671	C267	0.000000	0.689060	0.600450
C2681	C268	0.000000	0.689760	0.549090
C2691	C269	0.000000	0.689060	0.399550
C2701	C270	0.000000	0.689760	0.450910
C2711	C271	0.000000	0.310940	0.399550
C2721	C272	0.000000	0.310240	0.450910
C2731	C273	0.310940	0.399550	0.000000
C2741	C274	0.310240	0.450910	0.000000
C2751	C275	0.689060	0.399550	0.000000
C2761	C276	0.689760	0.450910	0.000000
C2771	C277	0.689060	0.600450	0.000000
C2781	C278	0.689760	0.549090	0.000000
C2791	C279	0.310940	0.600450	0.000000
C2801	C280	0.310240	0.549090	0.000000
C2811	C281	0.399550	0.000000	0.689060
C2821	C282	0.450910	0.000000	0.689760
C2831	C283	0.399550	0.000000	0.310940
C2841	C284	0.450910	0.000000	0.310240
C2851	C285	0.600450	0.000000	0.310940
C2861	C286	0.549090	0.000000	0.310240
C2871	C287	0.600450	0.000000	0.689060
C2881	C288	0.549090	0.000000	0.689760
O11	O1	0.321370	0.915060	0.258540
O21	O2	0.275610	0.955070	0.209850
O31	O3	0.311050	0.958920	0.377430
O41	O4	0.678630	0.084940	0.258540
O51	O5	0.724390	0.044930	0.209850
O61	O6	0.688950	0.041080	0.377430
O71	O7	0.678630	0.915060	0.741460
O81	O8	0.724390	0.955070	0.790150
O91	O9	0.688950	0.958920	0.622570
O101	O10	0.321370	0.084940	0.741460
O111	O11	0.275610	0.044930	0.790150
O121	O12	0.311050	0.041080	0.622570
O131	O13	0.258540	0.321370	0.915060
O141	O14	0.209850	0.275610	0.955070
O151	O15	0.377430	0.311050	0.958920
O161	O16	0.258540	0.678630	0.084940
O171	O17	0.209850	0.724390	0.044930
O181	O18	0.377430	0.688950	0.041080
O191	O19	0.741460	0.678630	0.915060
O201	O20	0.790150	0.724390	0.955070
O211	O21	0.622570	0.688950	0.958920
O221	O22	0.741460	0.321370	0.084940
O231	O23	0.790150	0.275610	0.044930
O241	O24	0.622570	0.311050	0.041080
O251	O25	0.915060	0.258540	0.321370
O261	O26	0.955070	0.209850	0.275610
O271	O27	0.958920	0.377430	0.311050
O281	O28	0.084940	0.258540	0.678630
O291	O29	0.044930	0.209850	0.724390
O301	O30	0.041080	0.377430	0.688950
O311	O31	0.915060	0.741460	0.678630
O321	O32	0.955070	0.790150	0.724390
O331	O33	0.958920	0.622570	0.688950
O341	O34	0.084940	0.741460	0.321370
O351	O35	0.044930	0.790150	0.275610
O361	O36	0.041080	0.622570	0.311050
O371	O37	0.915060	0.321370	0.741460
O381	O38	0.955070	0.275610	0.790150
O391	O39	0.958920	0.311050	0.622570
O401	O40	0.084940	0.678630	0.741460
O411	O41	0.044930	0.724390	0.790150
O421	O42	0.041080	0.688950	0.622570
O431	O43	0.915060	0.678630	0.258540
O441	O44	0.955070	0.724390	0.209850
O451	O45	0.958920	0.688950	0.377430
O461	O46	0.084940	0.321370	0.258540
O471	O47	0.044930	0.275610	0.209850
O481	O48	0.041080	0.311050	0.377430
O491	O49	0.321370	0.258540	0.084940
O501	O50	0.275610	0.209850	0.044930
O511	O51	0.311050	0.377430	0.041080
O521	O52	0.678630	0.258540	0.915060
O531	O53	0.724390	0.209850	0.955070
O541	O54	0.688950	0.377430	0.958920
O551	O55	0.678630	0.741460	0.084940
O561	O56	0.724390	0.790150	0.044930
O571	O57	0.688950	0.622570	0.041080
O581	O58	0.321370	0.741460	0.915060
O591	O59	0.275610	0.790150	0.955070
O601	O60	0.311050	0.622570	0.958920
O611	O61	0.258540	0.915060	0.678630
O621	O62	0.209850	0.955070	0.724390
O631	O63	0.377430	0.958920	0.688950
O641	O64	0.258540	0.084940	0.321370
O651	O65	0.209850	0.044930	0.275610
O661	O66	0.377430	0.041080	0.311050
O671	O67	0.741460	0.915060	0.321370
O681	O68	0.790150	0.955070	0.275610
O691	O69	0.622570	0.958920	0.311050
O701	O70	0.741460	0.084940	0.678630
O711	O71	0.790150	0.044930	0.724390
O721	O72	0.622570	0.041080	0.688950
O731	O73	0.678630	0.084940	0.741460
O741	O74	0.724390	0.044930	0.790150
O751	O75	0.688950	0.041080	0.622570
O761	O76	0.321370	0.915060	0.741460
O771	O77	0.275610	0.955070	0.790150
O781	O78	0.311050	0.958920	0.622570
O791	O79	0.321370	0.084940	0.258540
O801	O80	0.275610	0.044930	0.209850
O811	O81	0.311050	0.041080	0.377430
O821	O82	0.678630	0.915060	0.258540
O831	O83	0.724390	0.955070	0.209850
O841	O84	0.688950	0.958920	0.377430
O851	O85	0.741460	0.678630	0.084940
O861	O86	0.790150	0.724390	0.044930
O871	O87	0.622570	0.688950	0.041080
O881	O88	0.741460	0.321370	0.915060
O891	O89	0.790150	0.275610	0.955070
O901	O90	0.622570	0.311050	0.958920
O911	O91	0.258540	0.321370	0.084940
O921	O92	0.209850	0.275610	0.044930
O931	O93	0.377430	0.311050	0.041080
O941	O94	0.258540	0.678630	0.915060
O951	O95	0.209850	0.724390	0.955070
O961	O96	0.377430	0.688950	0.958920
O971	O97	0.084940	0.741460	0.678630
O981	O98	0.044930	0.790150	0.724390
O991	O99	0.041080	0.622570	0.688950
O1001	O100	0.915060	0.741460	0.321370
O1011	O101	0.955070	0.790150	0.275610
O1021	O102	0.958920	0.622570	0.311050
O1031	O103	0.084940	0.258540	0.321370
O1041	O104	0.044930	0.209850	0.275610
O1051	O105	0.041080	0.377430	0.311050
O1061	O106	0.915060	0.258540	0.678630
O1071	O107	0.955070	0.209850	0.724390
O1081	O108	0.958920	0.377430	0.688950
O1091	O109	0.084940	0.678630	0.258540
O1101	O110	0.044930	0.724390	0.209850
O1111	O111	0.041080	0.688950	0.377430
O1121	O112	0.915060	0.321370	0.258540
O1131	O113	0.955070	0.275610	0.209850
O1141	O114	0.958920	0.311050	0.377430
O1151	O115	0.084940	0.321370	0.741460
O1161	O116	0.044930	0.275610	0.790150
O1171	O117	0.041080	0.311050	0.622570
O1181	O118	0.915060	0.678630	0.741460
O1191	O119	0.955070	0.724390	0.790150
O1201	O120	0.958920	0.688950	0.622570
O1211	O121	0.678630	0.741460	0.915060
O1221	O122	0.724390	0.790150	0.955070
O1231	O123	0.688950	0.622570	0.958920
O1241	O124	0.321370	0.741460	0.084940
O1251	O125	0.275610	0.790150	0.044930
O1261	O126	0.311050	0.622570	0.041080
O1271	O127	0.321370	0.258540	0.915060
O1281	O128	0.275610	0.209850	0.955070
O1291	O129	0.311050	0.377430	0.958920
O1301	O130	0.678630	0.258540	0.084940
O1311	O131	0.724390	0.209850	0.044930
O1321	O132	0.688950	0.377430	0.041080
O1331	O133	0.741460	0.084940	0.321370
O1341	O134	0.790150	0.044930	0.275610
O1351	O135	0.622570	0.041080	0.311050
O1361	O136	0.741460	0.915060	0.678630
O1371	O137	0.790150	0.955070	0.724390
O1381	O138	0.622570	0.958920	0.688950
O1391	O139	0.258540	0.084940	0.678630
O1401	O140	0.209850	0.044930	0.724390
O1411	O141	0.377430	0.041080	0.688950
O1421	O142	0.258540	0.915060	0.321370
O1431	O143	0.209850	0.955070	0.275610
O1441	O144	0.377430	0.958920	0.311050
O1451	O145	0.292160	0.000000	0.292160
O1461	O146	0.707840	0.000000	0.292160
O1471	O147	0.707840	0.000000	0.707840
O1481	O148	0.292160	0.000000	0.707840
O1491	O149	0.292160	0.292160	0.000000
O1501	O150	0.292160	0.707840	0.000000
O1511	O151	0.707840	0.707840	0.000000
O1521	O152	0.707840	0.292160	0.000000
O1531	O153	0.000000	0.292160	0.292160
O1541	O154	0.000000	0.292160	0.707840
O1551	O155	0.000000	0.707840	0.707840
O1561	O156	0.000000	0.707840	0.292160
