data_IZIHAC_clean_PM
_symmetry_space_group_name_H-M	'P1'
_cell_length_a	14.309000
_cell_length_b	14.309000
_cell_length_c	63.900000
_cell_angle_alpha	90.000000
_cell_angle_beta	90.000000
_cell_angle_gamma	90.000000
_symmetry_Int_Tables_number 1

loop_
_symmetry_equiv_pos_as_xyz
'x,y,z'

loop_
_atom_site_label
_atom_site_type_symbol
_atom_site_fract_x
_atom_site_fract_y
_atom_site_fract_z
Sm11	Sm1	0.520190	0.276940	0.562020
O11	O1	0.871100	0.459700	0.428770
O21	O2	0.616100	0.281800	0.531720
O31	O3	0.594400	0.131500	0.534390
O41	O4	0.903500	0.374000	0.470500
O51	O5	0.754400	0.405000	0.463950
O61	O6	0.819900	0.369200	0.329490
O71	O7	0.821000	0.494700	0.348650
O81	O8	0.491400	0.426600	0.549160
O91	O9	0.005100	0.386100	0.430440
C11	C1	0.633300	0.200800	0.525490
C21	C2	0.701000	0.187500	0.507880
C31	C3	0.725800	0.266100	0.496630
H11	H1	0.697700	0.323000	0.499800
C41	C4	0.791100	0.262600	0.480750
C51	C5	0.818600	0.354700	0.470560
C61	C6	0.829300	0.176600	0.475420
C71	C7	0.802300	0.097700	0.486540
H21	H2	0.827800	0.039900	0.483100
C81	C8	0.737100	0.103900	0.502940
H31	H3	0.719200	0.050700	0.510300
C91	C9	0.894500	0.166800	0.457260
C101	C10	0.873200	0.207900	0.437520
H41	H4	0.817800	0.241000	0.435800
C111	C11	0.933900	0.199100	0.420860
C121	C12	0.913900	0.251400	0.401440
C131	C13	0.906200	0.347200	0.402100
C141	C14	0.881100	0.397900	0.384340
H51	H5	0.875000	0.462500	0.385200
C151	C15	0.865100	0.353200	0.365650
C161	C16	0.835200	0.410500	0.346800
C171	C17	0.872900	0.257100	0.365020
H61	H6	0.862100	0.225900	0.352500
C181	C18	0.895600	0.207600	0.382120
H71	H7	0.899200	0.142800	0.381200
C191	C19	0.015600	0.149500	0.423260
H81	H8	0.055700	0.142600	0.411900
C201	C20	0.039000	0.109800	0.442380
H91	H9	0.094900	0.077500	0.443900
C211	C21	0.979000	0.118600	0.459050
H101	H10	0.995000	0.091900	0.471800
C221	C22	0.929500	0.401200	0.421850
Sm21	Sm2	0.020190	0.776940	0.062020
O101	O10	0.371100	0.959700	0.928770
O111	O11	0.116100	0.781800	0.031720
O121	O12	0.094400	0.631500	0.034390
O131	O13	0.403500	0.874000	0.970500
O141	O14	0.254400	0.905000	0.963950
O151	O15	0.319900	0.869200	0.829490
O161	O16	0.321000	0.994700	0.848650
O171	O17	0.991400	0.926600	0.049160
O181	O18	0.505100	0.886100	0.930440
C231	C23	0.133300	0.700800	0.025490
C241	C24	0.201000	0.687500	0.007880
C251	C25	0.225800	0.766100	0.996630
H111	H11	0.197700	0.823000	0.999800
C261	C26	0.291100	0.762600	0.980750
C271	C27	0.318600	0.854700	0.970560
C281	C28	0.329300	0.676600	0.975420
C291	C29	0.302300	0.597700	0.986540
H121	H12	0.327800	0.539900	0.983100
C301	C30	0.237100	0.603900	0.002940
H131	H13	0.219200	0.550700	0.010300
C311	C31	0.394500	0.666800	0.957260
C321	C32	0.373200	0.707900	0.937520
H141	H14	0.317800	0.741000	0.935800
C331	C33	0.433900	0.699100	0.920860
C341	C34	0.413900	0.751400	0.901440
C351	C35	0.406200	0.847200	0.902100
C361	C36	0.381100	0.897900	0.884340
H151	H15	0.375000	0.962500	0.885200
C371	C37	0.365100	0.853200	0.865650
C381	C38	0.335200	0.910500	0.846800
C391	C39	0.372900	0.757100	0.865020
H161	H16	0.362100	0.725900	0.852500
C401	C40	0.395600	0.707600	0.882120
H171	H17	0.399200	0.642800	0.881200
C411	C41	0.515600	0.649500	0.923260
H181	H18	0.555700	0.642600	0.911900
C421	C42	0.539000	0.609800	0.942380
H191	H19	0.594900	0.577500	0.943900
C431	C43	0.479000	0.618600	0.959050
H201	H20	0.495000	0.591900	0.971800
C441	C44	0.429500	0.901200	0.921850
Sm31	Sm3	0.479810	0.723060	0.562020
O191	O19	0.128900	0.540300	0.428770
O201	O20	0.383900	0.718200	0.531720
O211	O21	0.405600	0.868500	0.534390
O221	O22	0.096500	0.626000	0.470500
O231	O23	0.245600	0.595000	0.463950
O241	O24	0.180100	0.630800	0.329490
O251	O25	0.179000	0.505300	0.348650
O261	O26	0.508600	0.573400	0.549160
O271	O27	0.994900	0.613900	0.430440
C451	C45	0.366700	0.799200	0.525490
C461	C46	0.299000	0.812500	0.507880
C471	C47	0.274200	0.733900	0.496630
H211	H21	0.302300	0.677000	0.499800
C481	C48	0.208900	0.737400	0.480750
C491	C49	0.181400	0.645300	0.470560
C501	C50	0.170700	0.823400	0.475420
C511	C51	0.197700	0.902300	0.486540
H221	H22	0.172200	0.960100	0.483100
C521	C52	0.262900	0.896100	0.502940
H231	H23	0.280800	0.949300	0.510300
C531	C53	0.105500	0.833200	0.457260
C541	C54	0.126800	0.792100	0.437520
H241	H24	0.182200	0.759000	0.435800
C551	C55	0.066100	0.800900	0.420860
C561	C56	0.086100	0.748600	0.401440
C571	C57	0.093800	0.652800	0.402100
C581	C58	0.118900	0.602100	0.384340
H251	H25	0.125000	0.537500	0.385200
C591	C59	0.134900	0.646800	0.365650
C601	C60	0.164800	0.589500	0.346800
C611	C61	0.127100	0.742900	0.365020
H261	H26	0.137900	0.774100	0.352500
C621	C62	0.104400	0.792400	0.382120
H271	H27	0.100800	0.857200	0.381200
C631	C63	0.984400	0.850500	0.423260
H281	H28	0.944300	0.857400	0.411900
C641	C64	0.961000	0.890200	0.442380
H291	H29	0.905100	0.922500	0.443900
C651	C65	0.021000	0.881400	0.459050
H301	H30	0.005000	0.908100	0.471800
C661	C66	0.070500	0.598800	0.421850
Sm41	Sm4	0.979810	0.223060	0.062020
O281	O28	0.628900	0.040300	0.928770
O291	O29	0.883900	0.218200	0.031720
O301	O30	0.905600	0.368500	0.034390
O311	O31	0.596500	0.126000	0.970500
O321	O32	0.745600	0.095000	0.963950
O331	O33	0.680100	0.130800	0.829490
O341	O34	0.679000	0.005300	0.848650
O351	O35	0.008600	0.073400	0.049160
O361	O36	0.494900	0.113900	0.930440
C671	C67	0.866700	0.299200	0.025490
C681	C68	0.799000	0.312500	0.007880
C691	C69	0.774200	0.233900	0.996630
H311	H31	0.802300	0.177000	0.999800
C701	C70	0.708900	0.237400	0.980750
C711	C71	0.681400	0.145300	0.970560
C721	C72	0.670700	0.323400	0.975420
C731	C73	0.697700	0.402300	0.986540
H321	H32	0.672200	0.460100	0.983100
C741	C74	0.762900	0.396100	0.002940
H331	H33	0.780800	0.449300	0.010300
C751	C75	0.605500	0.333200	0.957260
C761	C76	0.626800	0.292100	0.937520
H341	H34	0.682200	0.259000	0.935800
C771	C77	0.566100	0.300900	0.920860
C781	C78	0.586100	0.248600	0.901440
C791	C79	0.593800	0.152800	0.902100
C801	C80	0.618900	0.102100	0.884340
H351	H35	0.625000	0.037500	0.885200
C811	C81	0.634900	0.146800	0.865650
C821	C82	0.664800	0.089500	0.846800
C831	C83	0.627100	0.242900	0.865020
H361	H36	0.637900	0.274100	0.852500
C841	C84	0.604400	0.292400	0.882120
H371	H37	0.600800	0.357200	0.881200
C851	C85	0.484400	0.350500	0.923260
H381	H38	0.444300	0.357400	0.911900
C861	C86	0.461000	0.390200	0.942380
H391	H39	0.405100	0.422500	0.943900
C871	C87	0.521000	0.381400	0.959050
H401	H40	0.505000	0.408100	0.971800
C881	C88	0.570500	0.098800	0.921850
Sm51	Sm5	0.276940	0.479810	0.437980
O371	O37	0.459700	0.128900	0.571230
O381	O38	0.281800	0.383900	0.468280
O391	O39	0.131500	0.405600	0.465610
O401	O40	0.374000	0.096500	0.529500
O411	O41	0.405000	0.245600	0.536050
O421	O42	0.369200	0.180100	0.670510
O431	O43	0.494700	0.179000	0.651350
O441	O44	0.426600	0.508600	0.450840
O451	O45	0.386100	0.994900	0.569560
C891	C89	0.200800	0.366700	0.474510
C901	C90	0.187500	0.299000	0.492120
C911	C91	0.266100	0.274200	0.503370
H411	H41	0.323000	0.302300	0.500200
C921	C92	0.262600	0.208900	0.519250
C931	C93	0.354700	0.181400	0.529440
C941	C94	0.176600	0.170700	0.524580
C951	C95	0.097700	0.197700	0.513460
H421	H42	0.039900	0.172200	0.516900
C961	C96	0.103900	0.262900	0.497060
H431	H43	0.050700	0.280800	0.489700
C971	C97	0.166800	0.105500	0.542740
C981	C98	0.207900	0.126800	0.562480
H441	H44	0.241000	0.182200	0.564200
C991	C99	0.199100	0.066100	0.579140
C1001	C100	0.251400	0.086100	0.598560
C1011	C101	0.347200	0.093800	0.597900
C1021	C102	0.397900	0.118900	0.615660
H451	H45	0.462500	0.125000	0.614800
C1031	C103	0.353200	0.134900	0.634350
C1041	C104	0.410500	0.164800	0.653200
C1051	C105	0.257100	0.127100	0.634980
H461	H46	0.225900	0.137900	0.647500
C1061	C106	0.207600	0.104400	0.617880
H471	H47	0.142800	0.100800	0.618800
C1071	C107	0.149500	0.984400	0.576740
H481	H48	0.142600	0.944300	0.588100
C1081	C108	0.109800	0.961000	0.557620
H491	H49	0.077500	0.905100	0.556100
C1091	C109	0.118600	0.021000	0.540950
H501	H50	0.091900	0.005000	0.528200
C1101	C110	0.401200	0.070500	0.578150
Sm61	Sm6	0.776940	0.979810	0.937980
O461	O46	0.959700	0.628900	0.071230
O471	O47	0.781800	0.883900	0.968280
O481	O48	0.631500	0.905600	0.965610
O491	O49	0.874000	0.596500	0.029500
O501	O50	0.905000	0.745600	0.036050
O511	O51	0.869200	0.680100	0.170510
O521	O52	0.994700	0.679000	0.151350
O531	O53	0.926600	0.008600	0.950840
O541	O54	0.886100	0.494900	0.069560
C1111	C111	0.700800	0.866700	0.974510
C1121	C112	0.687500	0.799000	0.992120
C1131	C113	0.766100	0.774200	0.003370
H511	H51	0.823000	0.802300	0.000200
C1141	C114	0.762600	0.708900	0.019250
C1151	C115	0.854700	0.681400	0.029440
C1161	C116	0.676600	0.670700	0.024580
C1171	C117	0.597700	0.697700	0.013460
H521	H52	0.539900	0.672200	0.016900
C1181	C118	0.603900	0.762900	0.997060
H531	H53	0.550700	0.780800	0.989700
C1191	C119	0.666800	0.605500	0.042740
C1201	C120	0.707900	0.626800	0.062480
H541	H54	0.741000	0.682200	0.064200
C1211	C121	0.699100	0.566100	0.079140
C1221	C122	0.751400	0.586100	0.098560
C1231	C123	0.847200	0.593800	0.097900
C1241	C124	0.897900	0.618900	0.115660
H551	H55	0.962500	0.625000	0.114800
C1251	C125	0.853200	0.634900	0.134350
C1261	C126	0.910500	0.664800	0.153200
C1271	C127	0.757100	0.627100	0.134980
H561	H56	0.725900	0.637900	0.147500
C1281	C128	0.707600	0.604400	0.117880
H571	H57	0.642800	0.600800	0.118800
C1291	C129	0.649500	0.484400	0.076740
H581	H58	0.642600	0.444300	0.088100
C1301	C130	0.609800	0.461000	0.057620
H591	H59	0.577500	0.405100	0.056100
C1311	C131	0.618600	0.521000	0.040950
H601	H60	0.591900	0.505000	0.028200
C1321	C132	0.901200	0.570500	0.078150
Sm71	Sm7	0.723060	0.520190	0.437980
O551	O55	0.540300	0.871100	0.571230
O561	O56	0.718200	0.616100	0.468280
O571	O57	0.868500	0.594400	0.465610
O581	O58	0.626000	0.903500	0.529500
O591	O59	0.595000	0.754400	0.536050
O601	O60	0.630800	0.819900	0.670510
O611	O61	0.505300	0.821000	0.651350
O621	O62	0.573400	0.491400	0.450840
O631	O63	0.613900	0.005100	0.569560
C1331	C133	0.799200	0.633300	0.474510
C1341	C134	0.812500	0.701000	0.492120
C1351	C135	0.733900	0.725800	0.503370
H611	H61	0.677000	0.697700	0.500200
C1361	C136	0.737400	0.791100	0.519250
C1371	C137	0.645300	0.818600	0.529440
C1381	C138	0.823400	0.829300	0.524580
C1391	C139	0.902300	0.802300	0.513460
H621	H62	0.960100	0.827800	0.516900
C1401	C140	0.896100	0.737100	0.497060
H631	H63	0.949300	0.719200	0.489700
C1411	C141	0.833200	0.894500	0.542740
C1421	C142	0.792100	0.873200	0.562480
H641	H64	0.759000	0.817800	0.564200
C1431	C143	0.800900	0.933900	0.579140
C1441	C144	0.748600	0.913900	0.598560
C1451	C145	0.652800	0.906200	0.597900
C1461	C146	0.602100	0.881100	0.615660
H651	H65	0.537500	0.875000	0.614800
C1471	C147	0.646800	0.865100	0.634350
C1481	C148	0.589500	0.835200	0.653200
C1491	C149	0.742900	0.872900	0.634980
H661	H66	0.774100	0.862100	0.647500
C1501	C150	0.792400	0.895600	0.617880
H671	H67	0.857200	0.899200	0.618800
C1511	C151	0.850500	0.015600	0.576740
H681	H68	0.857400	0.055700	0.588100
C1521	C152	0.890200	0.039000	0.557620
H691	H69	0.922500	0.094900	0.556100
C1531	C153	0.881400	0.979000	0.540950
H701	H70	0.908100	0.995000	0.528200
C1541	C154	0.598800	0.929500	0.578150
Sm81	Sm8	0.223060	0.020190	0.937980
O641	O64	0.040300	0.371100	0.071230
O651	O65	0.218200	0.116100	0.968280
O661	O66	0.368500	0.094400	0.965610
O671	O67	0.126000	0.403500	0.029500
O681	O68	0.095000	0.254400	0.036050
O691	O69	0.130800	0.319900	0.170510
O701	O70	0.005300	0.321000	0.151350
O711	O71	0.073400	0.991400	0.950840
O721	O72	0.113900	0.505100	0.069560
C1551	C155	0.299200	0.133300	0.974510
C1561	C156	0.312500	0.201000	0.992120
C1571	C157	0.233900	0.225800	0.003370
H711	H71	0.177000	0.197700	0.000200
C1581	C158	0.237400	0.291100	0.019250
C1591	C159	0.145300	0.318600	0.029440
C1601	C160	0.323400	0.329300	0.024580
C1611	C161	0.402300	0.302300	0.013460
H721	H72	0.460100	0.327800	0.016900
C1621	C162	0.396100	0.237100	0.997060
H731	H73	0.449300	0.219200	0.989700
C1631	C163	0.333200	0.394500	0.042740
C1641	C164	0.292100	0.373200	0.062480
H741	H74	0.259000	0.317800	0.064200
C1651	C165	0.300900	0.433900	0.079140
C1661	C166	0.248600	0.413900	0.098560
C1671	C167	0.152800	0.406200	0.097900
C1681	C168	0.102100	0.381100	0.115660
H751	H75	0.037500	0.375000	0.114800
C1691	C169	0.146800	0.365100	0.134350
C1701	C170	0.089500	0.335200	0.153200
C1711	C171	0.242900	0.372900	0.134980
H761	H76	0.274100	0.362100	0.147500
C1721	C172	0.292400	0.395600	0.117880
H771	H77	0.357200	0.399200	0.118800
C1731	C173	0.350500	0.515600	0.076740
H781	H78	0.357400	0.555700	0.088100
C1741	C174	0.390200	0.539000	0.057620
H791	H79	0.422500	0.594900	0.056100
C1751	C175	0.381400	0.479000	0.040950
H801	H80	0.408100	0.495000	0.028200
C1761	C176	0.098800	0.429500	0.078150
Sm91	Sm9	0.979810	0.276940	0.187980
O731	O73	0.628900	0.459700	0.321230
O741	O74	0.883900	0.281800	0.218280
O751	O75	0.905600	0.131500	0.215610
O761	O76	0.596500	0.374000	0.279500
O771	O77	0.745600	0.405000	0.286050
O781	O78	0.680100	0.369200	0.420510
O791	O79	0.679000	0.494700	0.401350
O801	O80	0.008600	0.426600	0.200840
O811	O81	0.494900	0.386100	0.319560
C1771	C177	0.866700	0.200800	0.224510
C1781	C178	0.799000	0.187500	0.242120
C1791	C179	0.774200	0.266100	0.253370
H811	H81	0.802300	0.323000	0.250200
C1801	C180	0.708900	0.262600	0.269250
C1811	C181	0.681400	0.354700	0.279440
C1821	C182	0.670700	0.176600	0.274580
C1831	C183	0.697700	0.097700	0.263460
H821	H82	0.672200	0.039900	0.266900
C1841	C184	0.762900	0.103900	0.247060
H831	H83	0.780800	0.050700	0.239700
C1851	C185	0.605500	0.166800	0.292740
C1861	C186	0.626800	0.207900	0.312480
H841	H84	0.682200	0.241000	0.314200
C1871	C187	0.566100	0.199100	0.329140
C1881	C188	0.586100	0.251400	0.348560
C1891	C189	0.593800	0.347200	0.347900
C1901	C190	0.618900	0.397900	0.365660
H851	H85	0.625000	0.462500	0.364800
C1911	C191	0.634900	0.353200	0.384350
C1921	C192	0.664800	0.410500	0.403200
C1931	C193	0.627100	0.257100	0.384980
H861	H86	0.637900	0.225900	0.397500
C1941	C194	0.604400	0.207600	0.367880
H871	H87	0.600800	0.142800	0.368800
C1951	C195	0.484400	0.149500	0.326740
H881	H88	0.444300	0.142600	0.338100
C1961	C196	0.461000	0.109800	0.307620
H891	H89	0.405100	0.077500	0.306100
C1971	C197	0.521000	0.118600	0.290950
H901	H90	0.505000	0.091900	0.278200
C1981	C198	0.570500	0.401200	0.328150
Sm101	Sm10	0.479810	0.776940	0.687980
O821	O82	0.128900	0.959700	0.821230
O831	O83	0.383900	0.781800	0.718280
O841	O84	0.405600	0.631500	0.715610
O851	O85	0.096500	0.874000	0.779500
O861	O86	0.245600	0.905000	0.786050
O871	O87	0.180100	0.869200	0.920510
O881	O88	0.179000	0.994700	0.901350
O891	O89	0.508600	0.926600	0.700840
O901	O90	0.994900	0.886100	0.819560
C1991	C199	0.366700	0.700800	0.724510
C2001	C200	0.299000	0.687500	0.742120
C2011	C201	0.274200	0.766100	0.753370
H911	H91	0.302300	0.823000	0.750200
C2021	C202	0.208900	0.762600	0.769250
C2031	C203	0.181400	0.854700	0.779440
C2041	C204	0.170700	0.676600	0.774580
C2051	C205	0.197700	0.597700	0.763460
H921	H92	0.172200	0.539900	0.766900
C2061	C206	0.262900	0.603900	0.747060
H931	H93	0.280800	0.550700	0.739700
C2071	C207	0.105500	0.666800	0.792740
C2081	C208	0.126800	0.707900	0.812480
H941	H94	0.182200	0.741000	0.814200
C2091	C209	0.066100	0.699100	0.829140
C2101	C210	0.086100	0.751400	0.848560
C2111	C211	0.093800	0.847200	0.847900
C2121	C212	0.118900	0.897900	0.865660
H951	H95	0.125000	0.962500	0.864800
C2131	C213	0.134900	0.853200	0.884350
C2141	C214	0.164800	0.910500	0.903200
C2151	C215	0.127100	0.757100	0.884980
H961	H96	0.137900	0.725900	0.897500
C2161	C216	0.104400	0.707600	0.867880
H971	H97	0.100800	0.642800	0.868800
C2171	C217	0.984400	0.649500	0.826740
H981	H98	0.944300	0.642600	0.838100
C2181	C218	0.961000	0.609800	0.807620
H991	H99	0.905100	0.577500	0.806100
C2191	C219	0.021000	0.618600	0.790950
H1001	H100	0.005000	0.591900	0.778200
C2201	C220	0.070500	0.901200	0.828150
Sm111	Sm11	0.020190	0.723060	0.187980
O911	O91	0.371100	0.540300	0.321230
O921	O92	0.116100	0.718200	0.218280
O931	O93	0.094400	0.868500	0.215610
O941	O94	0.403500	0.626000	0.279500
O951	O95	0.254400	0.595000	0.286050
O961	O96	0.319900	0.630800	0.420510
O971	O97	0.321000	0.505300	0.401350
O981	O98	0.991400	0.573400	0.200840
O991	O99	0.505100	0.613900	0.319560
C2211	C221	0.133300	0.799200	0.224510
C2221	C222	0.201000	0.812500	0.242120
C2231	C223	0.225800	0.733900	0.253370
H1011	H101	0.197700	0.677000	0.250200
C2241	C224	0.291100	0.737400	0.269250
C2251	C225	0.318600	0.645300	0.279440
C2261	C226	0.329300	0.823400	0.274580
C2271	C227	0.302300	0.902300	0.263460
H1021	H102	0.327800	0.960100	0.266900
C2281	C228	0.237100	0.896100	0.247060
H1031	H103	0.219200	0.949300	0.239700
C2291	C229	0.394500	0.833200	0.292740
C2301	C230	0.373200	0.792100	0.312480
H1041	H104	0.317800	0.759000	0.314200
C2311	C231	0.433900	0.800900	0.329140
C2321	C232	0.413900	0.748600	0.348560
C2331	C233	0.406200	0.652800	0.347900
C2341	C234	0.381100	0.602100	0.365660
H1051	H105	0.375000	0.537500	0.364800
C2351	C235	0.365100	0.646800	0.384350
C2361	C236	0.335200	0.589500	0.403200
C2371	C237	0.372900	0.742900	0.384980
H1061	H106	0.362100	0.774100	0.397500
C2381	C238	0.395600	0.792400	0.367880
H1071	H107	0.399200	0.857200	0.368800
C2391	C239	0.515600	0.850500	0.326740
H1081	H108	0.555700	0.857400	0.338100
C2401	C240	0.539000	0.890200	0.307620
H1091	H109	0.594900	0.922500	0.306100
C2411	C241	0.479000	0.881400	0.290950
H1101	H110	0.495000	0.908100	0.278200
C2421	C242	0.429500	0.598800	0.328150
Sm121	Sm12	0.520190	0.223060	0.687980
O1001	O100	0.871100	0.040300	0.821230
O1011	O101	0.616100	0.218200	0.718280
O1021	O102	0.594400	0.368500	0.715610
O1031	O103	0.903500	0.126000	0.779500
O1041	O104	0.754400	0.095000	0.786050
O1051	O105	0.819900	0.130800	0.920510
O1061	O106	0.821000	0.005300	0.901350
O1071	O107	0.491400	0.073400	0.700840
O1081	O108	0.005100	0.113900	0.819560
C2431	C243	0.633300	0.299200	0.724510
C2441	C244	0.701000	0.312500	0.742120
C2451	C245	0.725800	0.233900	0.753370
H1111	H111	0.697700	0.177000	0.750200
C2461	C246	0.791100	0.237400	0.769250
C2471	C247	0.818600	0.145300	0.779440
C2481	C248	0.829300	0.323400	0.774580
C2491	C249	0.802300	0.402300	0.763460
H1121	H112	0.827800	0.460100	0.766900
C2501	C250	0.737100	0.396100	0.747060
H1131	H113	0.719200	0.449300	0.739700
C2511	C251	0.894500	0.333200	0.792740
C2521	C252	0.873200	0.292100	0.812480
H1141	H114	0.817800	0.259000	0.814200
C2531	C253	0.933900	0.300900	0.829140
C2541	C254	0.913900	0.248600	0.848560
C2551	C255	0.906200	0.152800	0.847900
C2561	C256	0.881100	0.102100	0.865660
H1151	H115	0.875000	0.037500	0.864800
C2571	C257	0.865100	0.146800	0.884350
C2581	C258	0.835200	0.089500	0.903200
C2591	C259	0.872900	0.242900	0.884980
H1161	H116	0.862100	0.274100	0.897500
C2601	C260	0.895600	0.292400	0.867880
H1171	H117	0.899200	0.357200	0.868800
C2611	C261	0.015600	0.350500	0.826740
H1181	H118	0.055700	0.357400	0.838100
C2621	C262	0.039000	0.390200	0.807620
H1191	H119	0.094900	0.422500	0.806100
C2631	C263	0.979000	0.381400	0.790950
H1201	H120	0.995000	0.408100	0.778200
C2641	C264	0.929500	0.098800	0.828150
Sm131	Sm13	0.223060	0.479810	0.312020
O1091	O109	0.040300	0.128900	0.178770
O1101	O110	0.218200	0.383900	0.281720
O1111	O111	0.368500	0.405600	0.284390
O1121	O112	0.126000	0.096500	0.220500
O1131	O113	0.095000	0.245600	0.213950
O1141	O114	0.130800	0.180100	0.079490
O1151	O115	0.005300	0.179000	0.098650
O1161	O116	0.073400	0.508600	0.299160
O1171	O117	0.113900	0.994900	0.180440
C2651	C265	0.299200	0.366700	0.275490
C2661	C266	0.312500	0.299000	0.257880
C2671	C267	0.233900	0.274200	0.246630
H1211	H121	0.177000	0.302300	0.249800
C2681	C268	0.237400	0.208900	0.230750
C2691	C269	0.145300	0.181400	0.220560
C2701	C270	0.323400	0.170700	0.225420
C2711	C271	0.402300	0.197700	0.236540
H1221	H122	0.460100	0.172200	0.233100
C2721	C272	0.396100	0.262900	0.252940
H1231	H123	0.449300	0.280800	0.260300
C2731	C273	0.333200	0.105500	0.207260
C2741	C274	0.292100	0.126800	0.187520
H1241	H124	0.259000	0.182200	0.185800
C2751	C275	0.300900	0.066100	0.170860
C2761	C276	0.248600	0.086100	0.151440
C2771	C277	0.152800	0.093800	0.152100
C2781	C278	0.102100	0.118900	0.134340
H1251	H125	0.037500	0.125000	0.135200
C2791	C279	0.146800	0.134900	0.115650
C2801	C280	0.089500	0.164800	0.096800
C2811	C281	0.242900	0.127100	0.115020
H1261	H126	0.274100	0.137900	0.102500
C2821	C282	0.292400	0.104400	0.132120
H1271	H127	0.357200	0.100800	0.131200
C2831	C283	0.350500	0.984400	0.173260
H1281	H128	0.357400	0.944300	0.161900
C2841	C284	0.390200	0.961000	0.192380
H1291	H129	0.422500	0.905100	0.193900
C2851	C285	0.381400	0.021000	0.209050
H1301	H130	0.408100	0.005000	0.221800
C2861	C286	0.098800	0.070500	0.171850
Sm141	Sm14	0.723060	0.979810	0.812020
O1181	O118	0.540300	0.628900	0.678770
O1191	O119	0.718200	0.883900	0.781720
O1201	O120	0.868500	0.905600	0.784390
O1211	O121	0.626000	0.596500	0.720500
O1221	O122	0.595000	0.745600	0.713950
O1231	O123	0.630800	0.680100	0.579490
O1241	O124	0.505300	0.679000	0.598650
O1251	O125	0.573400	0.008600	0.799160
O1261	O126	0.613900	0.494900	0.680440
C2871	C287	0.799200	0.866700	0.775490
C2881	C288	0.812500	0.799000	0.757880
C2891	C289	0.733900	0.774200	0.746630
H1311	H131	0.677000	0.802300	0.749800
C2901	C290	0.737400	0.708900	0.730750
C2911	C291	0.645300	0.681400	0.720560
C2921	C292	0.823400	0.670700	0.725420
C2931	C293	0.902300	0.697700	0.736540
H1321	H132	0.960100	0.672200	0.733100
C2941	C294	0.896100	0.762900	0.752940
H1331	H133	0.949300	0.780800	0.760300
C2951	C295	0.833200	0.605500	0.707260
C2961	C296	0.792100	0.626800	0.687520
H1341	H134	0.759000	0.682200	0.685800
C2971	C297	0.800900	0.566100	0.670860
C2981	C298	0.748600	0.586100	0.651440
C2991	C299	0.652800	0.593800	0.652100
C3001	C300	0.602100	0.618900	0.634340
H1351	H135	0.537500	0.625000	0.635200
C3011	C301	0.646800	0.634900	0.615650
C3021	C302	0.589500	0.664800	0.596800
C3031	C303	0.742900	0.627100	0.615020
H1361	H136	0.774100	0.637900	0.602500
C3041	C304	0.792400	0.604400	0.632120
H1371	H137	0.857200	0.600800	0.631200
C3051	C305	0.850500	0.484400	0.673260
H1381	H138	0.857400	0.444300	0.661900
C3061	C306	0.890200	0.461000	0.692380
H1391	H139	0.922500	0.405100	0.693900
C3071	C307	0.881400	0.521000	0.709050
H1401	H140	0.908100	0.505000	0.721800
C3081	C308	0.598800	0.570500	0.671850
Sm151	Sm15	0.776940	0.520190	0.312020
O1271	O127	0.959700	0.871100	0.178770
O1281	O128	0.781800	0.616100	0.281720
O1291	O129	0.631500	0.594400	0.284390
O1301	O130	0.874000	0.903500	0.220500
O1311	O131	0.905000	0.754400	0.213950
O1321	O132	0.869200	0.819900	0.079490
O1331	O133	0.994700	0.821000	0.098650
O1341	O134	0.926600	0.491400	0.299160
O1351	O135	0.886100	0.005100	0.180440
C3091	C309	0.700800	0.633300	0.275490
C3101	C310	0.687500	0.701000	0.257880
C3111	C311	0.766100	0.725800	0.246630
H1411	H141	0.823000	0.697700	0.249800
C3121	C312	0.762600	0.791100	0.230750
C3131	C313	0.854700	0.818600	0.220560
C3141	C314	0.676600	0.829300	0.225420
C3151	C315	0.597700	0.802300	0.236540
H1421	H142	0.539900	0.827800	0.233100
C3161	C316	0.603900	0.737100	0.252940
H1431	H143	0.550700	0.719200	0.260300
C3171	C317	0.666800	0.894500	0.207260
C3181	C318	0.707900	0.873200	0.187520
H1441	H144	0.741000	0.817800	0.185800
C3191	C319	0.699100	0.933900	0.170860
C3201	C320	0.751400	0.913900	0.151440
C3211	C321	0.847200	0.906200	0.152100
C3221	C322	0.897900	0.881100	0.134340
H1451	H145	0.962500	0.875000	0.135200
C3231	C323	0.853200	0.865100	0.115650
C3241	C324	0.910500	0.835200	0.096800
C3251	C325	0.757100	0.872900	0.115020
H1461	H146	0.725900	0.862100	0.102500
C3261	C326	0.707600	0.895600	0.132120
H1471	H147	0.642800	0.899200	0.131200
C3271	C327	0.649500	0.015600	0.173260
H1481	H148	0.642600	0.055700	0.161900
C3281	C328	0.609800	0.039000	0.192380
H1491	H149	0.577500	0.094900	0.193900
C3291	C329	0.618600	0.979000	0.209050
H1501	H150	0.591900	0.995000	0.221800
C3301	C330	0.901200	0.929500	0.171850
Sm161	Sm16	0.276940	0.020190	0.812020
O1361	O136	0.459700	0.371100	0.678770
O1371	O137	0.281800	0.116100	0.781720
O1381	O138	0.131500	0.094400	0.784390
O1391	O139	0.374000	0.403500	0.720500
O1401	O140	0.405000	0.254400	0.713950
O1411	O141	0.369200	0.319900	0.579490
O1421	O142	0.494700	0.321000	0.598650
O1431	O143	0.426600	0.991400	0.799160
O1441	O144	0.386100	0.505100	0.680440
C3311	C331	0.200800	0.133300	0.775490
C3321	C332	0.187500	0.201000	0.757880
C3331	C333	0.266100	0.225800	0.746630
H1511	H151	0.323000	0.197700	0.749800
C3341	C334	0.262600	0.291100	0.730750
C3351	C335	0.354700	0.318600	0.720560
C3361	C336	0.176600	0.329300	0.725420
C3371	C337	0.097700	0.302300	0.736540
H1521	H152	0.039900	0.327800	0.733100
C3381	C338	0.103900	0.237100	0.752940
H1531	H153	0.050700	0.219200	0.760300
C3391	C339	0.166800	0.394500	0.707260
C3401	C340	0.207900	0.373200	0.687520
H1541	H154	0.241000	0.317800	0.685800
C3411	C341	0.199100	0.433900	0.670860
C3421	C342	0.251400	0.413900	0.651440
C3431	C343	0.347200	0.406200	0.652100
C3441	C344	0.397900	0.381100	0.634340
H1551	H155	0.462500	0.375000	0.635200
C3451	C345	0.353200	0.365100	0.615650
C3461	C346	0.410500	0.335200	0.596800
C3471	C347	0.257100	0.372900	0.615020
H1561	H156	0.225900	0.362100	0.602500
C3481	C348	0.207600	0.395600	0.632120
H1571	H157	0.142800	0.399200	0.631200
C3491	C349	0.149500	0.515600	0.673260
H1581	H158	0.142600	0.555700	0.661900
C3501	C350	0.109800	0.539000	0.692380
H1591	H159	0.077500	0.594900	0.693900
C3511	C351	0.118600	0.479000	0.709050
H1601	H160	0.091900	0.495000	0.721800
C3521	C352	0.401200	0.429500	0.671850
Sm171	Sm17	0.000000	0.500000	0.459830
Sm181	Sm18	0.500000	0.000000	0.959830
Sm191	Sm19	0.500000	0.000000	0.540170
Sm201	Sm20	0.000000	0.500000	0.040170
Sm211	Sm21	0.500000	0.500000	0.290170
Sm221	Sm22	0.000000	0.000000	0.790170
Sm231	Sm23	0.000000	0.000000	0.209830
Sm241	Sm24	0.500000	0.500000	0.709830
C3531	C353	0.500000	0.500000	0.558100
H1611	H161	0.500000	0.500000	0.572700
C3541	C354	0.000000	0.000000	0.058100
H1621	H162	0.000000	0.000000	0.072700
C3551	C355	0.500000	0.500000	0.441900
H1631	H163	0.500000	0.500000	0.427300
C3561	C356	0.000000	0.000000	0.941900
H1641	H164	0.000000	0.000000	0.927300
C3571	C357	0.000000	0.500000	0.191900
H1651	H165	0.000000	0.500000	0.177300
C3581	C358	0.500000	0.000000	0.691900
H1661	H166	0.500000	0.000000	0.677300
C3591	C359	0.000000	0.500000	0.308100
H1671	H167	0.000000	0.500000	0.322700
C3601	C360	0.500000	0.000000	0.808100
H1681	H168	0.500000	0.000000	0.822700
