data_IZIHOQ_clean_PM
_symmetry_space_group_name_H-M	'P1'
_cell_length_a	14.154500
_cell_length_b	14.154500
_cell_length_c	62.938000
_cell_angle_alpha	90.000000
_cell_angle_beta	90.000000
_cell_angle_gamma	90.000000
_symmetry_Int_Tables_number 1

loop_
_symmetry_equiv_pos_as_xyz
'x,y,z'

loop_
_atom_site_label
_atom_site_type_symbol
_atom_site_fract_x
_atom_site_fract_y
_atom_site_fract_z
Dy11	Dy1	0.722830	0.488840	0.438890
O11	O1	0.758600	0.596000	0.464890
O21	O2	0.910800	0.627400	0.470570
O31	O3	0.613800	0.717600	0.532260
O41	O4	0.591800	0.870200	0.534730
O51	O5	0.824200	0.637600	0.327750
O61	O6	0.821400	0.510200	0.347320
O71	O7	0.868900	0.544700	0.428700
O81	O8	0.008100	0.610400	0.429810
O91	O9	0.569800	0.525500	0.456000
C11	C1	0.824200	0.647200	0.471280
C21	C2	0.795900	0.739000	0.481660
C31	C3	0.729700	0.734100	0.497480
H11	H1	0.703500	0.675800	0.500900
C41	C4	0.700600	0.813400	0.508620
C51	C5	0.739000	0.900600	0.503240
H21	H2	0.721000	0.954500	0.510700
C61	C6	0.802800	0.907400	0.487160
H31	H3	0.826500	0.966400	0.483500
C71	C7	0.834300	0.825500	0.475790
C81	C8	0.630000	0.800100	0.526250
C91	C9	0.901800	0.835800	0.457610
C101	C10	0.986100	0.882600	0.459900
H41	H4	0.001900	0.909200	0.472900
C111	C11	0.047500	0.890400	0.442920
H51	H5	0.104400	0.922400	0.444700
C121	C12	0.025500	0.851400	0.423360
H61	H6	0.067500	0.856500	0.412100
C131	C13	0.940700	0.804800	0.420860
C141	C14	0.877900	0.798100	0.437760
H71	H7	0.819800	0.768500	0.435900
C151	C15	0.917100	0.753800	0.400700
C161	C16	0.903600	0.797800	0.381480
H81	H8	0.912700	0.862800	0.380500
C171	C17	0.877500	0.749500	0.363820
H91	H9	0.866100	0.781700	0.351200
C181	C18	0.867700	0.652700	0.364600
C191	C19	0.879900	0.606500	0.383370
H101	H10	0.870100	0.541600	0.384100
C201	C20	0.906700	0.655700	0.401360
C211	C21	0.836300	0.597400	0.345440
C221	C22	0.929800	0.601700	0.421470
Dy21	Dy2	0.222830	0.988840	0.938890
O101	O10	0.258600	0.096000	0.964890
O111	O11	0.410800	0.127400	0.970570
O121	O12	0.113800	0.217600	0.032260
O131	O13	0.091800	0.370200	0.034730
O141	O14	0.324200	0.137600	0.827750
O151	O15	0.321400	0.010200	0.847320
O161	O16	0.368900	0.044700	0.928700
O171	O17	0.508100	0.110400	0.929810
O181	O18	0.069800	0.025500	0.956000
C231	C23	0.324200	0.147200	0.971280
C241	C24	0.295900	0.239000	0.981660
C251	C25	0.229700	0.234100	0.997480
H111	H11	0.203500	0.175800	0.000900
C261	C26	0.200600	0.313400	0.008620
C271	C27	0.239000	0.400600	0.003240
H121	H12	0.221000	0.454500	0.010700
C281	C28	0.302800	0.407400	0.987160
H131	H13	0.326500	0.466400	0.983500
C291	C29	0.334300	0.325500	0.975790
C301	C30	0.130000	0.300100	0.026250
C311	C31	0.401800	0.335800	0.957610
C321	C32	0.486100	0.382600	0.959900
H141	H14	0.501900	0.409200	0.972900
C331	C33	0.547500	0.390400	0.942920
H151	H15	0.604400	0.422400	0.944700
C341	C34	0.525500	0.351400	0.923360
H161	H16	0.567500	0.356500	0.912100
C351	C35	0.440700	0.304800	0.920860
C361	C36	0.377900	0.298100	0.937760
H171	H17	0.319800	0.268500	0.935900
C371	C37	0.417100	0.253800	0.900700
C381	C38	0.403600	0.297800	0.881480
H181	H18	0.412700	0.362800	0.880500
C391	C39	0.377500	0.249500	0.863820
H191	H19	0.366100	0.281700	0.851200
C401	C40	0.367700	0.152700	0.864600
C411	C41	0.379900	0.106500	0.883370
H201	H20	0.370100	0.041600	0.884100
C421	C42	0.406700	0.155700	0.901360
C431	C43	0.336300	0.097400	0.845440
C441	C44	0.429800	0.101700	0.921470
Dy31	Dy3	0.277170	0.511160	0.438890
O191	O19	0.241400	0.404000	0.464890
O201	O20	0.089200	0.372600	0.470570
O211	O21	0.386200	0.282400	0.532260
O221	O22	0.408200	0.129800	0.534730
O231	O23	0.175800	0.362400	0.327750
O241	O24	0.178600	0.489800	0.347320
O251	O25	0.131100	0.455300	0.428700
O261	O26	0.991900	0.389600	0.429810
O271	O27	0.430200	0.474500	0.456000
C451	C45	0.175800	0.352800	0.471280
C461	C46	0.204100	0.261000	0.481660
C471	C47	0.270300	0.265900	0.497480
H211	H21	0.296500	0.324200	0.500900
C481	C48	0.299400	0.186600	0.508620
C491	C49	0.261000	0.099400	0.503240
H221	H22	0.279000	0.045500	0.510700
C501	C50	0.197200	0.092600	0.487160
H231	H23	0.173500	0.033600	0.483500
C511	C51	0.165700	0.174500	0.475790
C521	C52	0.370000	0.199900	0.526250
C531	C53	0.098200	0.164200	0.457610
C541	C54	0.013900	0.117400	0.459900
H241	H24	0.998100	0.090800	0.472900
C551	C55	0.952500	0.109600	0.442920
H251	H25	0.895600	0.077600	0.444700
C561	C56	0.974500	0.148600	0.423360
H261	H26	0.932500	0.143500	0.412100
C571	C57	0.059300	0.195200	0.420860
C581	C58	0.122100	0.201900	0.437760
H271	H27	0.180200	0.231500	0.435900
C591	C59	0.082900	0.246200	0.400700
C601	C60	0.096400	0.202200	0.381480
H281	H28	0.087300	0.137200	0.380500
C611	C61	0.122500	0.250500	0.363820
H291	H29	0.133900	0.218300	0.351200
C621	C62	0.132300	0.347300	0.364600
C631	C63	0.120100	0.393500	0.383370
H301	H30	0.129900	0.458400	0.384100
C641	C64	0.093300	0.344300	0.401360
C651	C65	0.163700	0.402600	0.345440
C661	C66	0.070200	0.398300	0.421470
Dy41	Dy4	0.777170	0.011160	0.938890
O281	O28	0.741400	0.904000	0.964890
O291	O29	0.589200	0.872600	0.970570
O301	O30	0.886200	0.782400	0.032260
O311	O31	0.908200	0.629800	0.034730
O321	O32	0.675800	0.862400	0.827750
O331	O33	0.678600	0.989800	0.847320
O341	O34	0.631100	0.955300	0.928700
O351	O35	0.491900	0.889600	0.929810
O361	O36	0.930200	0.974500	0.956000
C671	C67	0.675800	0.852800	0.971280
C681	C68	0.704100	0.761000	0.981660
C691	C69	0.770300	0.765900	0.997480
H311	H31	0.796500	0.824200	0.000900
C701	C70	0.799400	0.686600	0.008620
C711	C71	0.761000	0.599400	0.003240
H321	H32	0.779000	0.545500	0.010700
C721	C72	0.697200	0.592600	0.987160
H331	H33	0.673500	0.533600	0.983500
C731	C73	0.665700	0.674500	0.975790
C741	C74	0.870000	0.699900	0.026250
C751	C75	0.598200	0.664200	0.957610
C761	C76	0.513900	0.617400	0.959900
H341	H34	0.498100	0.590800	0.972900
C771	C77	0.452500	0.609600	0.942920
H351	H35	0.395600	0.577600	0.944700
C781	C78	0.474500	0.648600	0.923360
H361	H36	0.432500	0.643500	0.912100
C791	C79	0.559300	0.695200	0.920860
C801	C80	0.622100	0.701900	0.937760
H371	H37	0.680200	0.731500	0.935900
C811	C81	0.582900	0.746200	0.900700
C821	C82	0.596400	0.702200	0.881480
H381	H38	0.587300	0.637200	0.880500
C831	C83	0.622500	0.750500	0.863820
H391	H39	0.633900	0.718300	0.851200
C841	C84	0.632300	0.847300	0.864600
C851	C85	0.620100	0.893500	0.883370
H401	H40	0.629900	0.958400	0.884100
C861	C86	0.593300	0.844300	0.901360
C871	C87	0.663700	0.902600	0.845440
C881	C88	0.570200	0.898300	0.921470
Dy51	Dy5	0.488840	0.277170	0.561110
O371	O37	0.596000	0.241400	0.535110
O381	O38	0.627400	0.089200	0.529430
O391	O39	0.717600	0.386200	0.467740
O401	O40	0.870200	0.408200	0.465270
O411	O41	0.637600	0.175800	0.672250
O421	O42	0.510200	0.178600	0.652680
O431	O43	0.544700	0.131100	0.571300
O441	O44	0.610400	0.991900	0.570190
O451	O45	0.525500	0.430200	0.544000
C891	C89	0.647200	0.175800	0.528720
C901	C90	0.739000	0.204100	0.518340
C911	C91	0.734100	0.270300	0.502520
H411	H41	0.675800	0.296500	0.499100
C921	C92	0.813400	0.299400	0.491380
C931	C93	0.900600	0.261000	0.496760
H421	H42	0.954500	0.279000	0.489300
C941	C94	0.907400	0.197200	0.512840
H431	H43	0.966400	0.173500	0.516500
C951	C95	0.825500	0.165700	0.524210
C961	C96	0.800100	0.370000	0.473750
C971	C97	0.835800	0.098200	0.542390
C981	C98	0.882600	0.013900	0.540100
H441	H44	0.909200	0.998100	0.527100
C991	C99	0.890400	0.952500	0.557080
H451	H45	0.922400	0.895600	0.555300
C1001	C100	0.851400	0.974500	0.576640
H461	H46	0.856500	0.932500	0.587900
C1011	C101	0.804800	0.059300	0.579140
C1021	C102	0.798100	0.122100	0.562240
H471	H47	0.768500	0.180200	0.564100
C1031	C103	0.753800	0.082900	0.599300
C1041	C104	0.797800	0.096400	0.618520
H481	H48	0.862800	0.087300	0.619500
C1051	C105	0.749500	0.122500	0.636180
H491	H49	0.781700	0.133900	0.648800
C1061	C106	0.652700	0.132300	0.635400
C1071	C107	0.606500	0.120100	0.616630
H501	H50	0.541600	0.129900	0.615900
C1081	C108	0.655700	0.093300	0.598640
C1091	C109	0.597400	0.163700	0.654560
C1101	C110	0.601700	0.070200	0.578530
Dy61	Dy6	0.988840	0.777170	0.061110
O461	O46	0.096000	0.741400	0.035110
O471	O47	0.127400	0.589200	0.029430
O481	O48	0.217600	0.886200	0.967740
O491	O49	0.370200	0.908200	0.965270
O501	O50	0.137600	0.675800	0.172250
O511	O51	0.010200	0.678600	0.152680
O521	O52	0.044700	0.631100	0.071300
O531	O53	0.110400	0.491900	0.070190
O541	O54	0.025500	0.930200	0.044000
C1111	C111	0.147200	0.675800	0.028720
C1121	C112	0.239000	0.704100	0.018340
C1131	C113	0.234100	0.770300	0.002520
H511	H51	0.175800	0.796500	0.999100
C1141	C114	0.313400	0.799400	0.991380
C1151	C115	0.400600	0.761000	0.996760
H521	H52	0.454500	0.779000	0.989300
C1161	C116	0.407400	0.697200	0.012840
H531	H53	0.466400	0.673500	0.016500
C1171	C117	0.325500	0.665700	0.024210
C1181	C118	0.300100	0.870000	0.973750
C1191	C119	0.335800	0.598200	0.042390
C1201	C120	0.382600	0.513900	0.040100
H541	H54	0.409200	0.498100	0.027100
C1211	C121	0.390400	0.452500	0.057080
H551	H55	0.422400	0.395600	0.055300
C1221	C122	0.351400	0.474500	0.076640
H561	H56	0.356500	0.432500	0.087900
C1231	C123	0.304800	0.559300	0.079140
C1241	C124	0.298100	0.622100	0.062240
H571	H57	0.268500	0.680200	0.064100
C1251	C125	0.253800	0.582900	0.099300
C1261	C126	0.297800	0.596400	0.118520
H581	H58	0.362800	0.587300	0.119500
C1271	C127	0.249500	0.622500	0.136180
H591	H59	0.281700	0.633900	0.148800
C1281	C128	0.152700	0.632300	0.135400
C1291	C129	0.106500	0.620100	0.116630
H601	H60	0.041600	0.629900	0.115900
C1301	C130	0.155700	0.593300	0.098640
C1311	C131	0.097400	0.663700	0.154560
C1321	C132	0.101700	0.570200	0.078530
Dy71	Dy7	0.511160	0.722830	0.561110
O551	O55	0.404000	0.758600	0.535110
O561	O56	0.372600	0.910800	0.529430
O571	O57	0.282400	0.613800	0.467740
O581	O58	0.129800	0.591800	0.465270
O591	O59	0.362400	0.824200	0.672250
O601	O60	0.489800	0.821400	0.652680
O611	O61	0.455300	0.868900	0.571300
O621	O62	0.389600	0.008100	0.570190
O631	O63	0.474500	0.569800	0.544000
C1331	C133	0.352800	0.824200	0.528720
C1341	C134	0.261000	0.795900	0.518340
C1351	C135	0.265900	0.729700	0.502520
H611	H61	0.324200	0.703500	0.499100
C1361	C136	0.186600	0.700600	0.491380
C1371	C137	0.099400	0.739000	0.496760
H621	H62	0.045500	0.721000	0.489300
C1381	C138	0.092600	0.802800	0.512840
H631	H63	0.033600	0.826500	0.516500
C1391	C139	0.174500	0.834300	0.524210
C1401	C140	0.199900	0.630000	0.473750
C1411	C141	0.164200	0.901800	0.542390
C1421	C142	0.117400	0.986100	0.540100
H641	H64	0.090800	0.001900	0.527100
C1431	C143	0.109600	0.047500	0.557080
H651	H65	0.077600	0.104400	0.555300
C1441	C144	0.148600	0.025500	0.576640
H661	H66	0.143500	0.067500	0.587900
C1451	C145	0.195200	0.940700	0.579140
C1461	C146	0.201900	0.877900	0.562240
H671	H67	0.231500	0.819800	0.564100
C1471	C147	0.246200	0.917100	0.599300
C1481	C148	0.202200	0.903600	0.618520
H681	H68	0.137200	0.912700	0.619500
C1491	C149	0.250500	0.877500	0.636180
H691	H69	0.218300	0.866100	0.648800
C1501	C150	0.347300	0.867700	0.635400
C1511	C151	0.393500	0.879900	0.616630
H701	H70	0.458400	0.870100	0.615900
C1521	C152	0.344300	0.906700	0.598640
C1531	C153	0.402600	0.836300	0.654560
C1541	C154	0.398300	0.929800	0.578530
Dy81	Dy8	0.011160	0.222830	0.061110
O641	O64	0.904000	0.258600	0.035110
O651	O65	0.872600	0.410800	0.029430
O661	O66	0.782400	0.113800	0.967740
O671	O67	0.629800	0.091800	0.965270
O681	O68	0.862400	0.324200	0.172250
O691	O69	0.989800	0.321400	0.152680
O701	O70	0.955300	0.368900	0.071300
O711	O71	0.889600	0.508100	0.070190
O721	O72	0.974500	0.069800	0.044000
C1551	C155	0.852800	0.324200	0.028720
C1561	C156	0.761000	0.295900	0.018340
C1571	C157	0.765900	0.229700	0.002520
H711	H71	0.824200	0.203500	0.999100
C1581	C158	0.686600	0.200600	0.991380
C1591	C159	0.599400	0.239000	0.996760
H721	H72	0.545500	0.221000	0.989300
C1601	C160	0.592600	0.302800	0.012840
H731	H73	0.533600	0.326500	0.016500
C1611	C161	0.674500	0.334300	0.024210
C1621	C162	0.699900	0.130000	0.973750
C1631	C163	0.664200	0.401800	0.042390
C1641	C164	0.617400	0.486100	0.040100
H741	H74	0.590800	0.501900	0.027100
C1651	C165	0.609600	0.547500	0.057080
H751	H75	0.577600	0.604400	0.055300
C1661	C166	0.648600	0.525500	0.076640
H761	H76	0.643500	0.567500	0.087900
C1671	C167	0.695200	0.440700	0.079140
C1681	C168	0.701900	0.377900	0.062240
H771	H77	0.731500	0.319800	0.064100
C1691	C169	0.746200	0.417100	0.099300
C1701	C170	0.702200	0.403600	0.118520
H781	H78	0.637200	0.412700	0.119500
C1711	C171	0.750500	0.377500	0.136180
H791	H79	0.718300	0.366100	0.148800
C1721	C172	0.847300	0.367700	0.135400
C1731	C173	0.893500	0.379900	0.116630
H801	H80	0.958400	0.370100	0.115900
C1741	C174	0.844300	0.406700	0.098640
C1751	C175	0.902600	0.336300	0.154560
C1761	C176	0.898300	0.429800	0.078530
Dy91	Dy9	0.777170	0.488840	0.311110
O731	O73	0.741400	0.596000	0.285110
O741	O74	0.589200	0.627400	0.279430
O751	O75	0.886200	0.717600	0.217740
O761	O76	0.908200	0.870200	0.215270
O771	O77	0.675800	0.637600	0.422250
O781	O78	0.678600	0.510200	0.402680
O791	O79	0.631100	0.544700	0.321300
O801	O80	0.491900	0.610400	0.320190
O811	O81	0.930200	0.525500	0.294000
C1771	C177	0.675800	0.647200	0.278720
C1781	C178	0.704100	0.739000	0.268340
C1791	C179	0.770300	0.734100	0.252520
H811	H81	0.796500	0.675800	0.249100
C1801	C180	0.799400	0.813400	0.241380
C1811	C181	0.761000	0.900600	0.246760
H821	H82	0.779000	0.954500	0.239300
C1821	C182	0.697200	0.907400	0.262840
H831	H83	0.673500	0.966400	0.266500
C1831	C183	0.665700	0.825500	0.274210
C1841	C184	0.870000	0.800100	0.223750
C1851	C185	0.598200	0.835800	0.292390
C1861	C186	0.513900	0.882600	0.290100
H841	H84	0.498100	0.909200	0.277100
C1871	C187	0.452500	0.890400	0.307080
H851	H85	0.395600	0.922400	0.305300
C1881	C188	0.474500	0.851400	0.326640
H861	H86	0.432500	0.856500	0.337900
C1891	C189	0.559300	0.804800	0.329140
C1901	C190	0.622100	0.798100	0.312240
H871	H87	0.680200	0.768500	0.314100
C1911	C191	0.582900	0.753800	0.349300
C1921	C192	0.596400	0.797800	0.368520
H881	H88	0.587300	0.862800	0.369500
C1931	C193	0.622500	0.749500	0.386180
H891	H89	0.633900	0.781700	0.398800
C1941	C194	0.632300	0.652700	0.385400
C1951	C195	0.620100	0.606500	0.366630
H901	H90	0.629900	0.541600	0.365900
C1961	C196	0.593300	0.655700	0.348640
C1971	C197	0.663700	0.597400	0.404560
C1981	C198	0.570200	0.601700	0.328530
Dy101	Dy10	0.277170	0.988840	0.811110
O821	O82	0.241400	0.096000	0.785110
O831	O83	0.089200	0.127400	0.779430
O841	O84	0.386200	0.217600	0.717740
O851	O85	0.408200	0.370200	0.715270
O861	O86	0.175800	0.137600	0.922250
O871	O87	0.178600	0.010200	0.902680
O881	O88	0.131100	0.044700	0.821300
O891	O89	0.991900	0.110400	0.820190
O901	O90	0.430200	0.025500	0.794000
C1991	C199	0.175800	0.147200	0.778720
C2001	C200	0.204100	0.239000	0.768340
C2011	C201	0.270300	0.234100	0.752520
H911	H91	0.296500	0.175800	0.749100
C2021	C202	0.299400	0.313400	0.741380
C2031	C203	0.261000	0.400600	0.746760
H921	H92	0.279000	0.454500	0.739300
C2041	C204	0.197200	0.407400	0.762840
H931	H93	0.173500	0.466400	0.766500
C2051	C205	0.165700	0.325500	0.774210
C2061	C206	0.370000	0.300100	0.723750
C2071	C207	0.098200	0.335800	0.792390
C2081	C208	0.013900	0.382600	0.790100
H941	H94	0.998100	0.409200	0.777100
C2091	C209	0.952500	0.390400	0.807080
H951	H95	0.895600	0.422400	0.805300
C2101	C210	0.974500	0.351400	0.826640
H961	H96	0.932500	0.356500	0.837900
C2111	C211	0.059300	0.304800	0.829140
C2121	C212	0.122100	0.298100	0.812240
H971	H97	0.180200	0.268500	0.814100
C2131	C213	0.082900	0.253800	0.849300
C2141	C214	0.096400	0.297800	0.868520
H981	H98	0.087300	0.362800	0.869500
C2151	C215	0.122500	0.249500	0.886180
H991	H99	0.133900	0.281700	0.898800
C2161	C216	0.132300	0.152700	0.885400
C2171	C217	0.120100	0.106500	0.866630
H1001	H100	0.129900	0.041600	0.865900
C2181	C218	0.093300	0.155700	0.848640
C2191	C219	0.163700	0.097400	0.904560
C2201	C220	0.070200	0.101700	0.828530
Dy111	Dy11	0.222830	0.511160	0.311110
O911	O91	0.258600	0.404000	0.285110
O921	O92	0.410800	0.372600	0.279430
O931	O93	0.113800	0.282400	0.217740
O941	O94	0.091800	0.129800	0.215270
O951	O95	0.324200	0.362400	0.422250
O961	O96	0.321400	0.489800	0.402680
O971	O97	0.368900	0.455300	0.321300
O981	O98	0.508100	0.389600	0.320190
O991	O99	0.069800	0.474500	0.294000
C2211	C221	0.324200	0.352800	0.278720
C2221	C222	0.295900	0.261000	0.268340
C2231	C223	0.229700	0.265900	0.252520
H1011	H101	0.203500	0.324200	0.249100
C2241	C224	0.200600	0.186600	0.241380
C2251	C225	0.239000	0.099400	0.246760
H1021	H102	0.221000	0.045500	0.239300
C2261	C226	0.302800	0.092600	0.262840
H1031	H103	0.326500	0.033600	0.266500
C2271	C227	0.334300	0.174500	0.274210
C2281	C228	0.130000	0.199900	0.223750
C2291	C229	0.401800	0.164200	0.292390
C2301	C230	0.486100	0.117400	0.290100
H1041	H104	0.501900	0.090800	0.277100
C2311	C231	0.547500	0.109600	0.307080
H1051	H105	0.604400	0.077600	0.305300
C2321	C232	0.525500	0.148600	0.326640
H1061	H106	0.567500	0.143500	0.337900
C2331	C233	0.440700	0.195200	0.329140
C2341	C234	0.377900	0.201900	0.312240
H1071	H107	0.319800	0.231500	0.314100
C2351	C235	0.417100	0.246200	0.349300
C2361	C236	0.403600	0.202200	0.368520
H1081	H108	0.412700	0.137200	0.369500
C2371	C237	0.377500	0.250500	0.386180
H1091	H109	0.366100	0.218300	0.398800
C2381	C238	0.367700	0.347300	0.385400
C2391	C239	0.379900	0.393500	0.366630
H1101	H110	0.370100	0.458400	0.365900
C2401	C240	0.406700	0.344300	0.348640
C2411	C241	0.336300	0.402600	0.404560
C2421	C242	0.429800	0.398300	0.328530
Dy121	Dy12	0.722830	0.011160	0.811110
O1001	O100	0.758600	0.904000	0.785110
O1011	O101	0.910800	0.872600	0.779430
O1021	O102	0.613800	0.782400	0.717740
O1031	O103	0.591800	0.629800	0.715270
O1041	O104	0.824200	0.862400	0.922250
O1051	O105	0.821400	0.989800	0.902680
O1061	O106	0.868900	0.955300	0.821300
O1071	O107	0.008100	0.889600	0.820190
O1081	O108	0.569800	0.974500	0.794000
C2431	C243	0.824200	0.852800	0.778720
C2441	C244	0.795900	0.761000	0.768340
C2451	C245	0.729700	0.765900	0.752520
H1111	H111	0.703500	0.824200	0.749100
C2461	C246	0.700600	0.686600	0.741380
C2471	C247	0.739000	0.599400	0.746760
H1121	H112	0.721000	0.545500	0.739300
C2481	C248	0.802800	0.592600	0.762840
H1131	H113	0.826500	0.533600	0.766500
C2491	C249	0.834300	0.674500	0.774210
C2501	C250	0.630000	0.699900	0.723750
C2511	C251	0.901800	0.664200	0.792390
C2521	C252	0.986100	0.617400	0.790100
H1141	H114	0.001900	0.590800	0.777100
C2531	C253	0.047500	0.609600	0.807080
H1151	H115	0.104400	0.577600	0.805300
C2541	C254	0.025500	0.648600	0.826640
H1161	H116	0.067500	0.643500	0.837900
C2551	C255	0.940700	0.695200	0.829140
C2561	C256	0.877900	0.701900	0.812240
H1171	H117	0.819800	0.731500	0.814100
C2571	C257	0.917100	0.746200	0.849300
C2581	C258	0.903600	0.702200	0.868520
H1181	H118	0.912700	0.637200	0.869500
C2591	C259	0.877500	0.750500	0.886180
H1191	H119	0.866100	0.718300	0.898800
C2601	C260	0.867700	0.847300	0.885400
C2611	C261	0.879900	0.893500	0.866630
H1201	H120	0.870100	0.958400	0.865900
C2621	C262	0.906700	0.844300	0.848640
C2631	C263	0.836300	0.902600	0.904560
C2641	C264	0.929800	0.898300	0.828530
Dy131	Dy13	0.011160	0.277170	0.188890
O1091	O109	0.904000	0.241400	0.214890
O1101	O110	0.872600	0.089200	0.220570
O1111	O111	0.782400	0.386200	0.282260
O1121	O112	0.629800	0.408200	0.284730
O1131	O113	0.862400	0.175800	0.077750
O1141	O114	0.989800	0.178600	0.097320
O1151	O115	0.955300	0.131100	0.178700
O1161	O116	0.889600	0.991900	0.179810
O1171	O117	0.974500	0.430200	0.206000
C2651	C265	0.852800	0.175800	0.221280
C2661	C266	0.761000	0.204100	0.231660
C2671	C267	0.765900	0.270300	0.247480
H1211	H121	0.824200	0.296500	0.250900
C2681	C268	0.686600	0.299400	0.258620
C2691	C269	0.599400	0.261000	0.253240
H1221	H122	0.545500	0.279000	0.260700
C2701	C270	0.592600	0.197200	0.237160
H1231	H123	0.533600	0.173500	0.233500
C2711	C271	0.674500	0.165700	0.225790
C2721	C272	0.699900	0.370000	0.276250
C2731	C273	0.664200	0.098200	0.207610
C2741	C274	0.617400	0.013900	0.209900
H1241	H124	0.590800	0.998100	0.222900
C2751	C275	0.609600	0.952500	0.192920
H1251	H125	0.577600	0.895600	0.194700
C2761	C276	0.648600	0.974500	0.173360
H1261	H126	0.643500	0.932500	0.162100
C2771	C277	0.695200	0.059300	0.170860
C2781	C278	0.701900	0.122100	0.187760
H1271	H127	0.731500	0.180200	0.185900
C2791	C279	0.746200	0.082900	0.150700
C2801	C280	0.702200	0.096400	0.131480
H1281	H128	0.637200	0.087300	0.130500
C2811	C281	0.750500	0.122500	0.113820
H1291	H129	0.718300	0.133900	0.101200
C2821	C282	0.847300	0.132300	0.114600
C2831	C283	0.893500	0.120100	0.133370
H1301	H130	0.958400	0.129900	0.134100
C2841	C284	0.844300	0.093300	0.151360
C2851	C285	0.902600	0.163700	0.095440
C2861	C286	0.898300	0.070200	0.171470
Dy141	Dy14	0.511160	0.777170	0.688890
O1181	O118	0.404000	0.741400	0.714890
O1191	O119	0.372600	0.589200	0.720570
O1201	O120	0.282400	0.886200	0.782260
O1211	O121	0.129800	0.908200	0.784730
O1221	O122	0.362400	0.675800	0.577750
O1231	O123	0.489800	0.678600	0.597320
O1241	O124	0.455300	0.631100	0.678700
O1251	O125	0.389600	0.491900	0.679810
O1261	O126	0.474500	0.930200	0.706000
C2871	C287	0.352800	0.675800	0.721280
C2881	C288	0.261000	0.704100	0.731660
C2891	C289	0.265900	0.770300	0.747480
H1311	H131	0.324200	0.796500	0.750900
C2901	C290	0.186600	0.799400	0.758620
C2911	C291	0.099400	0.761000	0.753240
H1321	H132	0.045500	0.779000	0.760700
C2921	C292	0.092600	0.697200	0.737160
H1331	H133	0.033600	0.673500	0.733500
C2931	C293	0.174500	0.665700	0.725790
C2941	C294	0.199900	0.870000	0.776250
C2951	C295	0.164200	0.598200	0.707610
C2961	C296	0.117400	0.513900	0.709900
H1341	H134	0.090800	0.498100	0.722900
C2971	C297	0.109600	0.452500	0.692920
H1351	H135	0.077600	0.395600	0.694700
C2981	C298	0.148600	0.474500	0.673360
H1361	H136	0.143500	0.432500	0.662100
C2991	C299	0.195200	0.559300	0.670860
C3001	C300	0.201900	0.622100	0.687760
H1371	H137	0.231500	0.680200	0.685900
C3011	C301	0.246200	0.582900	0.650700
C3021	C302	0.202200	0.596400	0.631480
H1381	H138	0.137200	0.587300	0.630500
C3031	C303	0.250500	0.622500	0.613820
H1391	H139	0.218300	0.633900	0.601200
C3041	C304	0.347300	0.632300	0.614600
C3051	C305	0.393500	0.620100	0.633370
H1401	H140	0.458400	0.629900	0.634100
C3061	C306	0.344300	0.593300	0.651360
C3071	C307	0.402600	0.663700	0.595440
C3081	C308	0.398300	0.570200	0.671470
Dy151	Dy15	0.988840	0.722830	0.188890
O1271	O127	0.096000	0.758600	0.214890
O1281	O128	0.127400	0.910800	0.220570
O1291	O129	0.217600	0.613800	0.282260
O1301	O130	0.370200	0.591800	0.284730
O1311	O131	0.137600	0.824200	0.077750
O1321	O132	0.010200	0.821400	0.097320
O1331	O133	0.044700	0.868900	0.178700
O1341	O134	0.110400	0.008100	0.179810
O1351	O135	0.025500	0.569800	0.206000
C3091	C309	0.147200	0.824200	0.221280
C3101	C310	0.239000	0.795900	0.231660
C3111	C311	0.234100	0.729700	0.247480
H1411	H141	0.175800	0.703500	0.250900
C3121	C312	0.313400	0.700600	0.258620
C3131	C313	0.400600	0.739000	0.253240
H1421	H142	0.454500	0.721000	0.260700
C3141	C314	0.407400	0.802800	0.237160
H1431	H143	0.466400	0.826500	0.233500
C3151	C315	0.325500	0.834300	0.225790
C3161	C316	0.300100	0.630000	0.276250
C3171	C317	0.335800	0.901800	0.207610
C3181	C318	0.382600	0.986100	0.209900
H1441	H144	0.409200	0.001900	0.222900
C3191	C319	0.390400	0.047500	0.192920
H1451	H145	0.422400	0.104400	0.194700
C3201	C320	0.351400	0.025500	0.173360
H1461	H146	0.356500	0.067500	0.162100
C3211	C321	0.304800	0.940700	0.170860
C3221	C322	0.298100	0.877900	0.187760
H1471	H147	0.268500	0.819800	0.185900
C3231	C323	0.253800	0.917100	0.150700
C3241	C324	0.297800	0.903600	0.131480
H1481	H148	0.362800	0.912700	0.130500
C3251	C325	0.249500	0.877500	0.113820
H1491	H149	0.281700	0.866100	0.101200
C3261	C326	0.152700	0.867700	0.114600
C3271	C327	0.106500	0.879900	0.133370
H1501	H150	0.041600	0.870100	0.134100
C3281	C328	0.155700	0.906700	0.151360
C3291	C329	0.097400	0.836300	0.095440
C3301	C330	0.101700	0.929800	0.171470
Dy161	Dy16	0.488840	0.222830	0.688890
O1361	O136	0.596000	0.258600	0.714890
O1371	O137	0.627400	0.410800	0.720570
O1381	O138	0.717600	0.113800	0.782260
O1391	O139	0.870200	0.091800	0.784730
O1401	O140	0.637600	0.324200	0.577750
O1411	O141	0.510200	0.321400	0.597320
O1421	O142	0.544700	0.368900	0.678700
O1431	O143	0.610400	0.508100	0.679810
O1441	O144	0.525500	0.069800	0.706000
C3311	C331	0.647200	0.324200	0.721280
C3321	C332	0.739000	0.295900	0.731660
C3331	C333	0.734100	0.229700	0.747480
H1511	H151	0.675800	0.203500	0.750900
C3341	C334	0.813400	0.200600	0.758620
C3351	C335	0.900600	0.239000	0.753240
H1521	H152	0.954500	0.221000	0.760700
C3361	C336	0.907400	0.302800	0.737160
H1531	H153	0.966400	0.326500	0.733500
C3371	C337	0.825500	0.334300	0.725790
C3381	C338	0.800100	0.130000	0.776250
C3391	C339	0.835800	0.401800	0.707610
C3401	C340	0.882600	0.486100	0.709900
H1541	H154	0.909200	0.501900	0.722900
C3411	C341	0.890400	0.547500	0.692920
H1551	H155	0.922400	0.604400	0.694700
C3421	C342	0.851400	0.525500	0.673360
H1561	H156	0.856500	0.567500	0.662100
C3431	C343	0.804800	0.440700	0.670860
C3441	C344	0.798100	0.377900	0.687760
H1571	H157	0.768500	0.319800	0.685900
C3451	C345	0.753800	0.417100	0.650700
C3461	C346	0.797800	0.403600	0.631480
H1581	H158	0.862800	0.412700	0.630500
C3471	C347	0.749500	0.377500	0.613820
H1591	H159	0.781700	0.366100	0.601200
C3481	C348	0.652700	0.367700	0.614600
C3491	C349	0.606500	0.379900	0.633370
H1601	H160	0.541600	0.370100	0.634100
C3501	C350	0.655700	0.406700	0.651360
C3511	C351	0.597400	0.336300	0.595440
C3521	C352	0.601700	0.429800	0.671470
Dy171	Dy17	0.000000	0.500000	0.459080
Dy181	Dy18	0.500000	0.000000	0.959080
Dy191	Dy19	0.500000	0.000000	0.540920
Dy201	Dy20	0.000000	0.500000	0.040920
Dy211	Dy21	0.500000	0.500000	0.290920
Dy221	Dy22	0.000000	0.000000	0.790920
Dy231	Dy23	0.000000	0.000000	0.209080
Dy241	Dy24	0.500000	0.500000	0.709080
C3531	C353	0.500000	0.500000	0.443900
H1611	H161	0.500000	0.500000	0.429200
C3541	C354	0.000000	0.000000	0.943900
H1621	H162	0.000000	0.000000	0.929200
C3551	C355	0.500000	0.500000	0.556100
H1631	H163	0.500000	0.500000	0.570800
C3561	C356	0.000000	0.000000	0.056100
H1641	H164	0.000000	0.000000	0.070800
C3571	C357	0.000000	0.500000	0.306100
H1651	H165	0.000000	0.500000	0.320800
C3581	C358	0.500000	0.000000	0.806100
H1661	H166	0.500000	0.000000	0.820800
C3591	C359	0.000000	0.500000	0.193900
H1671	H167	0.000000	0.500000	0.179200
C3601	C360	0.500000	0.000000	0.693900
H1681	H168	0.500000	0.000000	0.679200
