data_IZIKOT02_clean_PM
_symmetry_space_group_name_H-M	'P1'
_cell_length_a	13.736800
_cell_length_b	8.873700
_cell_length_c	7.983900
_cell_angle_alpha	90.000000
_cell_angle_beta	120.815000
_cell_angle_gamma	90.000000
_symmetry_Int_Tables_number 1

loop_
_symmetry_equiv_pos_as_xyz
'x,y,z'

loop_
_atom_site_label
_atom_site_type_symbol
_atom_site_fract_x
_atom_site_fract_y
_atom_site_fract_z
C11	C1	0.496500	0.159400	0.662000
N11	N1	0.494400	0.259100	0.752200
C21	C2	0.996500	0.659400	0.662000
N21	N2	0.994400	0.759100	0.752200
C31	C3	0.503500	0.159400	0.338000
N31	N3	0.505600	0.259100	0.247800
C41	C4	0.003500	0.659400	0.338000
N41	N4	0.005600	0.759100	0.247800
C51	C5	0.503500	0.840600	0.338000
N51	N5	0.505600	0.740900	0.247800
C61	C6	0.003500	0.340600	0.338000
N61	N6	0.005600	0.240900	0.247800
C71	C7	0.496500	0.840600	0.662000
N71	N7	0.494400	0.740900	0.752200
C81	C8	0.996500	0.340600	0.662000
N81	N8	0.994400	0.240900	0.752200
Fe11	Fe1	0.500000	0.000000	0.500000
Fe21	Fe2	0.000000	0.500000	0.500000
K11	K1	0.000000	0.000000	0.000000
K21	K2	0.500000	0.500000	0.000000
N91	N9	0.760100	0.000000	0.756100
C91	C9	0.663000	0.000000	0.657800
N101	N10	0.260100	0.500000	0.756100
C101	C10	0.163000	0.500000	0.657800
N111	N11	0.239900	0.000000	0.243900
C111	C11	0.337000	0.000000	0.342200
N121	N12	0.739900	0.500000	0.243900
C121	C12	0.837000	0.500000	0.342200
