data_IZIKEJ_clean_PM
_symmetry_space_group_name_H-M	'P1'
_cell_length_a	8.429000
_cell_length_b	8.429000
_cell_length_c	39.661900
_cell_angle_alpha	90.000000
_cell_angle_beta	90.000000
_cell_angle_gamma	120.000000
_symmetry_Int_Tables_number 1

loop_
_symmetry_equiv_pos_as_xyz
'x,y,z'

loop_
_atom_site_label
_atom_site_type_symbol
_atom_site_fract_x
_atom_site_fract_y
_atom_site_fract_z
N11	N1	0.777200	0.653930	0.043380
C11	C1	0.861040	0.783450	0.027630
N21	N2	0.443870	0.987260	0.376710
C21	C2	0.527710	0.116780	0.360960
N31	N3	0.110530	0.320600	0.710050
C31	C3	0.194370	0.450120	0.694300
N41	N4	0.346070	0.123270	0.043380
C41	C4	0.216550	0.077590	0.027630
N51	N5	0.012740	0.456600	0.376710
C51	C5	0.883220	0.410920	0.360960
N61	N6	0.679400	0.789940	0.710050
C61	C6	0.549880	0.744260	0.694300
N71	N7	0.876730	0.222800	0.043380
C71	C7	0.922410	0.138960	0.027630
N81	N8	0.543400	0.556130	0.376710
C81	C8	0.589080	0.472290	0.360960
N91	N9	0.210060	0.889470	0.710050
C91	C9	0.255740	0.805630	0.694300
N101	N10	0.653930	0.777200	0.456620
C101	C10	0.783450	0.861040	0.472370
N111	N11	0.320600	0.110530	0.789950
C111	C11	0.450120	0.194370	0.805700
N121	N12	0.987260	0.443870	0.123290
C121	C12	0.116780	0.527710	0.139040
N131	N13	0.123270	0.346070	0.456620
C131	C13	0.077590	0.216550	0.472370
N141	N14	0.789940	0.679400	0.789950
C141	C14	0.744260	0.549880	0.805700
N151	N15	0.456600	0.012740	0.123290
C151	C15	0.410920	0.883220	0.139040
N161	N16	0.222800	0.876730	0.456620
C161	C16	0.138960	0.922410	0.472370
N171	N17	0.889470	0.210060	0.789950
C171	C17	0.805630	0.255740	0.805700
N181	N18	0.556130	0.543400	0.123290
C181	C18	0.472290	0.589080	0.139040
N191	N19	0.222800	0.346070	0.956620
C191	C19	0.138960	0.216550	0.972370
N201	N20	0.889470	0.679400	0.289950
C201	C20	0.805630	0.549880	0.305700
N211	N21	0.556130	0.012740	0.623290
C211	C21	0.472290	0.883220	0.639040
N221	N22	0.653930	0.876730	0.956620
C221	C22	0.783450	0.922410	0.972370
N231	N23	0.320600	0.210060	0.289950
C231	C23	0.450120	0.255740	0.305700
N241	N24	0.987260	0.543400	0.623290
C241	C24	0.116780	0.589080	0.639040
N251	N25	0.123270	0.777200	0.956620
C251	C25	0.077590	0.861040	0.972370
N261	N26	0.789940	0.110530	0.289950
C261	C26	0.744260	0.194370	0.305700
N271	N27	0.456600	0.443870	0.623290
C271	C27	0.410920	0.527710	0.639040
N281	N28	0.346070	0.222800	0.543380
C281	C28	0.216550	0.138960	0.527630
N291	N29	0.012740	0.556130	0.876710
C291	C29	0.883220	0.472290	0.860960
N301	N30	0.679400	0.889470	0.210050
C301	C30	0.549880	0.805630	0.194300
N311	N31	0.876730	0.653930	0.543380
C311	C31	0.922410	0.783450	0.527630
N321	N32	0.543400	0.987260	0.876710
C321	C32	0.589080	0.116780	0.860960
N331	N33	0.210060	0.320600	0.210050
C331	C33	0.255740	0.450120	0.194300
N341	N34	0.777200	0.123270	0.543380
C341	C34	0.861040	0.077590	0.527630
N351	N35	0.443870	0.456600	0.876710
C351	C35	0.527710	0.410920	0.860960
N361	N36	0.110530	0.789940	0.210050
C361	C36	0.194370	0.744260	0.194300
Fe11	Fe1	0.000000	0.000000	0.000000
Fe21	Fe2	0.666670	0.333330	0.333330
Fe31	Fe3	0.333330	0.666670	0.666670
Fe41	Fe4	0.000000	0.000000	0.500000
Fe51	Fe5	0.666670	0.333330	0.833330
Fe61	Fe6	0.333330	0.666670	0.166670
K11	K1	0.666670	0.333330	0.083330
K21	K2	0.000000	0.000000	0.750000
K31	K3	0.333330	0.666670	0.416670
K41	K4	0.333330	0.666670	0.916670
K51	K5	0.000000	0.000000	0.250000
K61	K6	0.666670	0.333330	0.583330
