data_IZISEQ_clean_PM
_symmetry_space_group_name_H-M	'P1'
_cell_length_a	22.909400
_cell_length_b	22.909400
_cell_length_c	16.332200
_cell_angle_alpha	90.000000
_cell_angle_beta	90.000000
_cell_angle_gamma	90.000000
_symmetry_Int_Tables_number 1

loop_
_symmetry_equiv_pos_as_xyz
'x,y,z'

loop_
_atom_site_label
_atom_site_type_symbol
_atom_site_fract_x
_atom_site_fract_y
_atom_site_fract_z
Si11	Si1	0.220910	0.654970	0.766540
N11	N1	0.047330	0.705160	0.784900
C11	C1	0.105100	0.697500	0.794400
H11	H1	0.123200	0.715600	0.840100
C21	C2	0.140700	0.664600	0.741800
C31	C3	0.112500	0.640200	0.674100
H21	H2	0.134400	0.618400	0.635300
C41	C4	0.053100	0.647500	0.663100
H31	H3	0.034000	0.630600	0.617200
C51	C5	0.022000	0.679700	0.720000
H41	H4	0.981100	0.684000	0.712700
C61	C6	0.227400	0.648300	0.879400
H51	H5	0.268500	0.643100	0.894300
H61	H6	0.212200	0.683800	0.905400
H71	H7	0.204800	0.614500	0.898200
C71	C7	0.247500	0.587800	0.715200
H81	H8	0.289000	0.582200	0.727600
H91	H9	0.225200	0.554100	0.735100
H101	H10	0.242300	0.591600	0.655900
C81	C8	0.260300	0.721200	0.730200
H111	H11	0.255400	0.724300	0.670100
H121	H12	0.302500	0.716200	0.741400
Si21	Si2	0.720910	0.154970	0.266540
N21	N2	0.547330	0.205160	0.284900
C91	C9	0.605100	0.197500	0.294400
H131	H13	0.623200	0.215600	0.340100
C101	C10	0.640700	0.164600	0.241800
C111	C11	0.612500	0.140200	0.174100
H141	H14	0.634400	0.118400	0.135300
C121	C12	0.553100	0.147500	0.163100
H151	H15	0.534000	0.130600	0.117200
C131	C13	0.522000	0.179700	0.220000
H161	H16	0.481100	0.184000	0.212700
C141	C14	0.727400	0.148300	0.379400
H171	H17	0.768500	0.143100	0.394300
H181	H18	0.712200	0.183800	0.405400
H191	H19	0.704800	0.114500	0.398200
C151	C15	0.747500	0.087800	0.215200
H201	H20	0.789000	0.082200	0.227600
H211	H21	0.725200	0.054100	0.235100
H221	H22	0.742300	0.091600	0.155900
C161	C16	0.760300	0.221200	0.230200
H231	H23	0.755400	0.224300	0.170100
H241	H24	0.802500	0.216200	0.241400
Si31	Si3	0.279090	0.345030	0.266540
N31	N3	0.452670	0.294840	0.284900
C171	C17	0.394900	0.302500	0.294400
H251	H25	0.376800	0.284400	0.340100
C181	C18	0.359300	0.335400	0.241800
C191	C19	0.387500	0.359800	0.174100
H261	H26	0.365600	0.381600	0.135300
C201	C20	0.446900	0.352500	0.163100
H271	H27	0.466000	0.369400	0.117200
C211	C21	0.478000	0.320300	0.220000
H281	H28	0.518900	0.316000	0.212700
C221	C22	0.272600	0.351700	0.379400
H291	H29	0.231500	0.356900	0.394300
H301	H30	0.287800	0.316200	0.405400
H311	H31	0.295200	0.385500	0.398200
C231	C23	0.252500	0.412200	0.215200
H321	H32	0.211000	0.417800	0.227600
H331	H33	0.274800	0.445900	0.235100
H341	H34	0.257700	0.408400	0.155900
C241	C24	0.239700	0.278800	0.230200
H351	H35	0.244600	0.275700	0.170100
H361	H36	0.197500	0.283800	0.241400
Si41	Si4	0.779090	0.845030	0.766540
N41	N4	0.952670	0.794840	0.784900
C251	C25	0.894900	0.802500	0.794400
H371	H37	0.876800	0.784400	0.840100
C261	C26	0.859300	0.835400	0.741800
C271	C27	0.887500	0.859800	0.674100
H381	H38	0.865600	0.881600	0.635300
C281	C28	0.946900	0.852500	0.663100
H391	H39	0.966000	0.869400	0.617200
C291	C29	0.978000	0.820300	0.720000
H401	H40	0.018900	0.816000	0.712700
C301	C30	0.772600	0.851700	0.879400
H411	H41	0.731500	0.856900	0.894300
H421	H42	0.787800	0.816200	0.905400
H431	H43	0.795200	0.885500	0.898200
C311	C31	0.752500	0.912200	0.715200
H441	H44	0.711000	0.917800	0.727600
H451	H45	0.774800	0.945900	0.735100
H461	H46	0.757700	0.908400	0.655900
C321	C32	0.739700	0.778800	0.730200
H471	H47	0.744600	0.775700	0.670100
H481	H48	0.697500	0.783800	0.741400
Si51	Si5	0.904970	0.970910	0.983460
N51	N5	0.955160	0.797330	0.965100
C331	C33	0.947500	0.855100	0.955600
H491	H49	0.965600	0.873200	0.909900
C341	C34	0.914600	0.890700	0.008200
C351	C35	0.890200	0.862500	0.075900
H501	H50	0.868400	0.884400	0.114700
C361	C36	0.897500	0.803100	0.086900
H511	H51	0.880600	0.784000	0.132800
C371	C37	0.929700	0.772000	0.030000
H521	H52	0.934000	0.731100	0.037300
C381	C38	0.898300	0.977400	0.870600
H531	H53	0.893100	0.018500	0.855700
H541	H54	0.933800	0.962200	0.844600
H551	H55	0.864500	0.954800	0.851800
C391	C39	0.837800	0.997500	0.034800
H561	H56	0.832200	0.039000	0.022400
H571	H57	0.804100	0.975200	0.014900
H581	H58	0.841600	0.992300	0.094100
C401	C40	0.971200	0.010300	0.019800
H591	H59	0.974300	0.005400	0.079900
H601	H60	0.966200	0.052500	0.008600
Si61	Si6	0.404970	0.470910	0.483460
N61	N6	0.455160	0.297330	0.465100
C411	C41	0.447500	0.355100	0.455600
H611	H61	0.465600	0.373200	0.409900
C421	C42	0.414600	0.390700	0.508200
C431	C43	0.390200	0.362500	0.575900
H621	H62	0.368400	0.384400	0.614700
C441	C44	0.397500	0.303100	0.586900
H631	H63	0.380600	0.284000	0.632800
C451	C45	0.429700	0.272000	0.530000
H641	H64	0.434000	0.231100	0.537300
C461	C46	0.398300	0.477400	0.370600
H651	H65	0.393100	0.518500	0.355700
H661	H66	0.433800	0.462200	0.344600
H671	H67	0.364500	0.454800	0.351800
C471	C47	0.337800	0.497500	0.534800
H681	H68	0.332200	0.539000	0.522400
H691	H69	0.304100	0.475200	0.514900
H701	H70	0.341600	0.492300	0.594100
C481	C48	0.471200	0.510300	0.519800
H711	H71	0.474300	0.505400	0.579900
H721	H72	0.466200	0.552500	0.508600
Si71	Si7	0.595030	0.029090	0.483460
N71	N7	0.544840	0.202670	0.465100
C491	C49	0.552500	0.144900	0.455600
H731	H73	0.534400	0.126800	0.409900
C501	C50	0.585400	0.109300	0.508200
C511	C51	0.609800	0.137500	0.575900
H741	H74	0.631600	0.115600	0.614700
C521	C52	0.602500	0.196900	0.586900
H751	H75	0.619400	0.216000	0.632800
C531	C53	0.570300	0.228000	0.530000
H761	H76	0.566000	0.268900	0.537300
C541	C54	0.601700	0.022600	0.370600
H771	H77	0.606900	0.981500	0.355700
H781	H78	0.566200	0.037800	0.344600
H791	H79	0.635500	0.045200	0.351800
C551	C55	0.662200	0.002500	0.534800
H801	H80	0.667800	0.961000	0.522400
H811	H81	0.695900	0.024800	0.514900
H821	H82	0.658400	0.007700	0.594100
C561	C56	0.528800	0.989700	0.519800
H831	H83	0.525700	0.994600	0.579900
H841	H84	0.533800	0.947500	0.508600
Si81	Si8	0.095030	0.529090	0.983460
N81	N8	0.044840	0.702670	0.965100
C571	C57	0.052500	0.644900	0.955600
H851	H85	0.034400	0.626800	0.909900
C581	C58	0.085400	0.609300	0.008200
C591	C59	0.109800	0.637500	0.075900
H861	H86	0.131600	0.615600	0.114700
C601	C60	0.102500	0.696900	0.086900
H871	H87	0.119400	0.716000	0.132800
C611	C61	0.070300	0.728000	0.030000
H881	H88	0.066000	0.768900	0.037300
C621	C62	0.101700	0.522600	0.870600
H891	H89	0.106900	0.481500	0.855700
H901	H90	0.066200	0.537800	0.844600
H911	H91	0.135500	0.545200	0.851800
C631	C63	0.162200	0.502500	0.034800
H921	H92	0.167800	0.461000	0.022400
H931	H93	0.195900	0.524800	0.014900
H941	H94	0.158400	0.507700	0.094100
C641	C64	0.028800	0.489700	0.019800
H951	H95	0.025700	0.494600	0.079900
H961	H96	0.033800	0.447500	0.008600
Si91	Si9	0.779090	0.345030	0.233460
N91	N9	0.952670	0.294840	0.215100
C651	C65	0.894900	0.302500	0.205600
H971	H97	0.876800	0.284400	0.159900
C661	C66	0.859300	0.335400	0.258200
C671	C67	0.887500	0.359800	0.325900
H981	H98	0.865600	0.381600	0.364700
C681	C68	0.946900	0.352500	0.336900
H991	H99	0.966000	0.369400	0.382800
C691	C69	0.978000	0.320300	0.280000
H1001	H100	0.018900	0.316000	0.287300
C701	C70	0.772600	0.351700	0.120600
H1011	H101	0.731500	0.356900	0.105700
H1021	H102	0.787800	0.316200	0.094600
H1031	H103	0.795200	0.385500	0.101800
C711	C71	0.752500	0.412200	0.284800
H1041	H104	0.711000	0.417800	0.272400
H1051	H105	0.774800	0.445900	0.264900
H1061	H106	0.757700	0.408400	0.344100
C721	C72	0.739700	0.278800	0.269800
H1071	H107	0.744600	0.275700	0.329900
H1081	H108	0.697500	0.283800	0.258600
Si101	Si10	0.279090	0.845030	0.733460
N101	N10	0.452670	0.794840	0.715100
C731	C73	0.394900	0.802500	0.705600
H1091	H109	0.376800	0.784400	0.659900
C741	C74	0.359300	0.835400	0.758200
C751	C75	0.387500	0.859800	0.825900
H1101	H110	0.365600	0.881600	0.864700
C761	C76	0.446900	0.852500	0.836900
H1111	H111	0.466000	0.869400	0.882800
C771	C77	0.478000	0.820300	0.780000
H1121	H112	0.518900	0.816000	0.787300
C781	C78	0.272600	0.851700	0.620600
H1131	H113	0.231500	0.856900	0.605700
H1141	H114	0.287800	0.816200	0.594600
H1151	H115	0.295200	0.885500	0.601800
C791	C79	0.252500	0.912200	0.784800
H1161	H116	0.211000	0.917800	0.772400
H1171	H117	0.274800	0.945900	0.764900
H1181	H118	0.257700	0.908400	0.844100
C801	C80	0.239700	0.778800	0.769800
H1191	H119	0.244600	0.775700	0.829900
H1201	H120	0.197500	0.783800	0.758600
Si111	Si11	0.720910	0.654970	0.733460
N111	N11	0.547330	0.705160	0.715100
C811	C81	0.605100	0.697500	0.705600
H1211	H121	0.623200	0.715600	0.659900
C821	C82	0.640700	0.664600	0.758200
C831	C83	0.612500	0.640200	0.825900
H1221	H122	0.634400	0.618400	0.864700
C841	C84	0.553100	0.647500	0.836900
H1231	H123	0.534000	0.630600	0.882800
C851	C85	0.522000	0.679700	0.780000
H1241	H124	0.481100	0.684000	0.787300
C861	C86	0.727400	0.648300	0.620600
H1251	H125	0.768500	0.643100	0.605700
H1261	H126	0.712200	0.683800	0.594600
H1271	H127	0.704800	0.614500	0.601800
C871	C87	0.747500	0.587800	0.784800
H1281	H128	0.789000	0.582200	0.772400
H1291	H129	0.725200	0.554100	0.764900
H1301	H130	0.742300	0.591600	0.844100
C881	C88	0.760300	0.721200	0.769800
H1311	H131	0.755400	0.724300	0.829900
H1321	H132	0.802500	0.716200	0.758600
Si121	Si12	0.220910	0.154970	0.233460
N121	N12	0.047330	0.205160	0.215100
C891	C89	0.105100	0.197500	0.205600
H1331	H133	0.123200	0.215600	0.159900
C901	C90	0.140700	0.164600	0.258200
C911	C91	0.112500	0.140200	0.325900
H1341	H134	0.134400	0.118400	0.364700
C921	C92	0.053100	0.147500	0.336900
H1351	H135	0.034000	0.130600	0.382800
C931	C93	0.022000	0.179700	0.280000
H1361	H136	0.981100	0.184000	0.287300
C941	C94	0.227400	0.148300	0.120600
H1371	H137	0.268500	0.143100	0.105700
H1381	H138	0.212200	0.183800	0.094600
H1391	H139	0.204800	0.114500	0.101800
C951	C95	0.247500	0.087800	0.284800
H1401	H140	0.289000	0.082200	0.272400
H1411	H141	0.225200	0.054100	0.264900
H1421	H142	0.242300	0.091600	0.344100
C961	C96	0.260300	0.221200	0.269800
H1431	H143	0.255400	0.224300	0.329900
H1441	H144	0.302500	0.216200	0.258600
Si131	Si13	0.095030	0.029090	0.016540
N131	N13	0.044840	0.202670	0.034900
C971	C97	0.052500	0.144900	0.044400
H1451	H145	0.034400	0.126800	0.090100
C981	C98	0.085400	0.109300	0.991800
C991	C99	0.109800	0.137500	0.924100
H1461	H146	0.131600	0.115600	0.885300
C1001	C100	0.102500	0.196900	0.913100
H1471	H147	0.119400	0.216000	0.867200
C1011	C101	0.070300	0.228000	0.970000
H1481	H148	0.066000	0.268900	0.962700
C1021	C102	0.101700	0.022600	0.129400
H1491	H149	0.106900	0.981500	0.144300
H1501	H150	0.066200	0.037800	0.155400
H1511	H151	0.135500	0.045200	0.148200
C1031	C103	0.162200	0.002500	0.965200
H1521	H152	0.167800	0.961000	0.977600
H1531	H153	0.195900	0.024800	0.985100
H1541	H154	0.158400	0.007700	0.905900
C1041	C104	0.028800	0.989700	0.980200
H1551	H155	0.025700	0.994600	0.920100
H1561	H156	0.033800	0.947500	0.991400
Si141	Si14	0.595030	0.529090	0.516540
N141	N14	0.544840	0.702670	0.534900
C1051	C105	0.552500	0.644900	0.544400
H1571	H157	0.534400	0.626800	0.590100
C1061	C106	0.585400	0.609300	0.491800
C1071	C107	0.609800	0.637500	0.424100
H1581	H158	0.631600	0.615600	0.385300
C1081	C108	0.602500	0.696900	0.413100
H1591	H159	0.619400	0.716000	0.367200
C1091	C109	0.570300	0.728000	0.470000
H1601	H160	0.566000	0.768900	0.462700
C1101	C110	0.601700	0.522600	0.629400
H1611	H161	0.606900	0.481500	0.644300
H1621	H162	0.566200	0.537800	0.655400
H1631	H163	0.635500	0.545200	0.648200
C1111	C111	0.662200	0.502500	0.465200
H1641	H164	0.667800	0.461000	0.477600
H1651	H165	0.695900	0.524800	0.485100
H1661	H166	0.658400	0.507700	0.405900
C1121	C112	0.528800	0.489700	0.480200
H1671	H167	0.525700	0.494600	0.420100
H1681	H168	0.533800	0.447500	0.491400
Si151	Si15	0.404970	0.970910	0.516540
N151	N15	0.455160	0.797330	0.534900
C1131	C113	0.447500	0.855100	0.544400
H1691	H169	0.465600	0.873200	0.590100
C1141	C114	0.414600	0.890700	0.491800
C1151	C115	0.390200	0.862500	0.424100
H1701	H170	0.368400	0.884400	0.385300
C1161	C116	0.397500	0.803100	0.413100
H1711	H171	0.380600	0.784000	0.367200
C1171	C117	0.429700	0.772000	0.470000
H1721	H172	0.434000	0.731100	0.462700
C1181	C118	0.398300	0.977400	0.629400
H1731	H173	0.393100	0.018500	0.644300
H1741	H174	0.433800	0.962200	0.655400
H1751	H175	0.364500	0.954800	0.648200
C1191	C119	0.337800	0.997500	0.465200
H1761	H176	0.332200	0.039000	0.477600
H1771	H177	0.304100	0.975200	0.485100
H1781	H178	0.341600	0.992300	0.405900
C1201	C120	0.471200	0.010300	0.480200
H1791	H179	0.474300	0.005400	0.420100
H1801	H180	0.466200	0.052500	0.491400
Si161	Si16	0.904970	0.470910	0.016540
N161	N16	0.955160	0.297330	0.034900
C1211	C121	0.947500	0.355100	0.044400
H1811	H181	0.965600	0.373200	0.090100
C1221	C122	0.914600	0.390700	0.991800
C1231	C123	0.890200	0.362500	0.924100
H1821	H182	0.868400	0.384400	0.885300
C1241	C124	0.897500	0.303100	0.913100
H1831	H183	0.880600	0.284000	0.867200
C1251	C125	0.929700	0.272000	0.970000
H1841	H184	0.934000	0.231100	0.962700
C1261	C126	0.898300	0.477400	0.129400
H1851	H185	0.893100	0.518500	0.144300
H1861	H186	0.933800	0.462200	0.155400
H1871	H187	0.864500	0.454800	0.148200
C1271	C127	0.837800	0.497500	0.965200
H1881	H188	0.832200	0.539000	0.977600
H1891	H189	0.804100	0.475200	0.985100
H1901	H190	0.841600	0.492300	0.905900
C1281	C128	0.971200	0.510300	0.980200
H1911	H191	0.974300	0.505400	0.920100
H1921	H192	0.966200	0.552500	0.991400
Ni11	Ni1	0.000000	0.750000	0.875000
Ni21	Ni2	0.500000	0.250000	0.375000
Ni31	Ni3	0.000000	0.250000	0.125000
Ni41	Ni4	0.500000	0.750000	0.625000
Si171	Si17	0.595030	0.970910	0.016540
N171	N17	0.544840	0.797330	0.034900
C1291	C129	0.552500	0.855100	0.044400
H1931	H193	0.534400	0.873200	0.090100
C1301	C130	0.585400	0.890700	0.991800
C1311	C131	0.609800	0.862500	0.924100
H1941	H194	0.631600	0.884400	0.885300
C1321	C132	0.602500	0.803100	0.913100
H1951	H195	0.619400	0.784000	0.867200
C1331	C133	0.570300	0.772000	0.970000
H1961	H196	0.566000	0.731100	0.962700
C1341	C134	0.601700	0.977400	0.129400
H1971	H197	0.606900	0.018500	0.144300
H1981	H198	0.566200	0.962200	0.155400
H1991	H199	0.635500	0.954800	0.148200
C1351	C135	0.662200	0.997500	0.965200
H2001	H200	0.667800	0.039000	0.977600
H2011	H201	0.695900	0.975200	0.985100
H2021	H202	0.658400	0.992300	0.905900
C1361	C136	0.528800	0.010300	0.980200
H2031	H203	0.525700	0.005400	0.920100
H2041	H204	0.533800	0.052500	0.991400
Si181	Si18	0.095030	0.470910	0.516540
N181	N18	0.044840	0.297330	0.534900
C1371	C137	0.052500	0.355100	0.544400
H2051	H205	0.034400	0.373200	0.590100
C1381	C138	0.085400	0.390700	0.491800
C1391	C139	0.109800	0.362500	0.424100
H2061	H206	0.131600	0.384400	0.385300
C1401	C140	0.102500	0.303100	0.413100
H2071	H207	0.119400	0.284000	0.367200
C1411	C141	0.070300	0.272000	0.470000
H2081	H208	0.066000	0.231100	0.462700
C1421	C142	0.101700	0.477400	0.629400
H2091	H209	0.106900	0.518500	0.644300
H2101	H210	0.066200	0.462200	0.655400
H2111	H211	0.135500	0.454800	0.648200
C1431	C143	0.162200	0.497500	0.465200
H2121	H212	0.167800	0.539000	0.477600
H2131	H213	0.195900	0.475200	0.485100
H2141	H214	0.158400	0.492300	0.405900
C1441	C144	0.028800	0.510300	0.480200
H2151	H215	0.025700	0.505400	0.420100
H2161	H216	0.033800	0.552500	0.491400
Si191	Si19	0.904970	0.029090	0.516540
N191	N19	0.955160	0.202670	0.534900
C1451	C145	0.947500	0.144900	0.544400
H2171	H217	0.965600	0.126800	0.590100
C1461	C146	0.914600	0.109300	0.491800
C1471	C147	0.890200	0.137500	0.424100
H2181	H218	0.868400	0.115600	0.385300
C1481	C148	0.897500	0.196900	0.413100
H2191	H219	0.880600	0.216000	0.367200
C1491	C149	0.929700	0.228000	0.470000
H2201	H220	0.934000	0.268900	0.462700
C1501	C150	0.898300	0.022600	0.629400
H2211	H221	0.893100	0.981500	0.644300
H2221	H222	0.933800	0.037800	0.655400
H2231	H223	0.864500	0.045200	0.648200
C1511	C151	0.837800	0.002500	0.465200
H2241	H224	0.832200	0.961000	0.477600
H2251	H225	0.804100	0.024800	0.485100
H2261	H226	0.841600	0.007700	0.405900
C1521	C152	0.971200	0.989700	0.480200
H2271	H227	0.974300	0.994600	0.420100
H2281	H228	0.966200	0.947500	0.491400
Si201	Si20	0.404970	0.529090	0.016540
N201	N20	0.455160	0.702670	0.034900
C1531	C153	0.447500	0.644900	0.044400
H2291	H229	0.465600	0.626800	0.090100
C1541	C154	0.414600	0.609300	0.991800
C1551	C155	0.390200	0.637500	0.924100
H2301	H230	0.368400	0.615600	0.885300
C1561	C156	0.397500	0.696900	0.913100
H2311	H231	0.380600	0.716000	0.867200
C1571	C157	0.429700	0.728000	0.970000
H2321	H232	0.434000	0.768900	0.962700
C1581	C158	0.398300	0.522600	0.129400
H2331	H233	0.393100	0.481500	0.144300
H2341	H234	0.433800	0.537800	0.155400
H2351	H235	0.364500	0.545200	0.148200
C1591	C159	0.337800	0.502500	0.965200
H2361	H236	0.332200	0.461000	0.977600
H2371	H237	0.304100	0.524800	0.985100
H2381	H238	0.341600	0.507700	0.905900
C1601	C160	0.471200	0.489700	0.980200
H2391	H239	0.474300	0.494600	0.920100
H2401	H240	0.466200	0.447500	0.991400
Si211	Si21	0.279090	0.654970	0.233460
N211	N21	0.452670	0.705160	0.215100
C1611	C161	0.394900	0.697500	0.205600
H2411	H241	0.376800	0.715600	0.159900
C1621	C162	0.359300	0.664600	0.258200
C1631	C163	0.387500	0.640200	0.325900
H2421	H242	0.365600	0.618400	0.364700
C1641	C164	0.446900	0.647500	0.336900
H2431	H243	0.466000	0.630600	0.382800
C1651	C165	0.478000	0.679700	0.280000
H2441	H244	0.518900	0.684000	0.287300
C1661	C166	0.272600	0.648300	0.120600
H2451	H245	0.231500	0.643100	0.105700
H2461	H246	0.287800	0.683800	0.094600
H2471	H247	0.295200	0.614500	0.101800
C1671	C167	0.252500	0.587800	0.284800
H2481	H248	0.211000	0.582200	0.272400
H2491	H249	0.274800	0.554100	0.264900
H2501	H250	0.257700	0.591600	0.344100
C1681	C168	0.239700	0.721200	0.269800
H2511	H251	0.244600	0.724300	0.329900
H2521	H252	0.197500	0.716200	0.258600
Si221	Si22	0.779090	0.154970	0.733460
N221	N22	0.952670	0.205160	0.715100
C1691	C169	0.894900	0.197500	0.705600
H2531	H253	0.876800	0.215600	0.659900
C1701	C170	0.859300	0.164600	0.758200
C1711	C171	0.887500	0.140200	0.825900
H2541	H254	0.865600	0.118400	0.864700
C1721	C172	0.946900	0.147500	0.836900
H2551	H255	0.966000	0.130600	0.882800
C1731	C173	0.978000	0.179700	0.780000
H2561	H256	0.018900	0.184000	0.787300
C1741	C174	0.772600	0.148300	0.620600
H2571	H257	0.731500	0.143100	0.605700
H2581	H258	0.787800	0.183800	0.594600
H2591	H259	0.795200	0.114500	0.601800
C1751	C175	0.752500	0.087800	0.784800
H2601	H260	0.711000	0.082200	0.772400
H2611	H261	0.774800	0.054100	0.764900
H2621	H262	0.757700	0.091600	0.844100
C1761	C176	0.739700	0.221200	0.769800
H2631	H263	0.744600	0.224300	0.829900
H2641	H264	0.697500	0.216200	0.758600
Si231	Si23	0.220910	0.345030	0.733460
N231	N23	0.047330	0.294840	0.715100
C1771	C177	0.105100	0.302500	0.705600
H2651	H265	0.123200	0.284400	0.659900
C1781	C178	0.140700	0.335400	0.758200
C1791	C179	0.112500	0.359800	0.825900
H2661	H266	0.134400	0.381600	0.864700
C1801	C180	0.053100	0.352500	0.836900
H2671	H267	0.034000	0.369400	0.882800
C1811	C181	0.022000	0.320300	0.780000
H2681	H268	0.981100	0.316000	0.787300
C1821	C182	0.227400	0.351700	0.620600
H2691	H269	0.268500	0.356900	0.605700
H2701	H270	0.212200	0.316200	0.594600
H2711	H271	0.204800	0.385500	0.601800
C1831	C183	0.247500	0.412200	0.784800
H2721	H272	0.289000	0.417800	0.772400
H2731	H273	0.225200	0.445900	0.764900
H2741	H274	0.242300	0.408400	0.844100
C1841	C184	0.260300	0.278800	0.769800
H2751	H275	0.255400	0.275700	0.829900
H2761	H276	0.302500	0.283800	0.758600
Si241	Si24	0.720910	0.845030	0.233460
N241	N24	0.547330	0.794840	0.215100
C1851	C185	0.605100	0.802500	0.205600
H2771	H277	0.623200	0.784400	0.159900
C1861	C186	0.640700	0.835400	0.258200
C1871	C187	0.612500	0.859800	0.325900
H2781	H278	0.634400	0.881600	0.364700
C1881	C188	0.553100	0.852500	0.336900
H2791	H279	0.534000	0.869400	0.382800
C1891	C189	0.522000	0.820300	0.280000
H2801	H280	0.481100	0.816000	0.287300
C1901	C190	0.727400	0.851700	0.120600
H2811	H281	0.768500	0.856900	0.105700
H2821	H282	0.712200	0.816200	0.094600
H2831	H283	0.704800	0.885500	0.101800
C1911	C191	0.747500	0.912200	0.284800
H2841	H284	0.789000	0.917800	0.272400
H2851	H285	0.725200	0.945900	0.264900
H2861	H286	0.742300	0.908400	0.344100
C1921	C192	0.760300	0.778800	0.269800
H2871	H287	0.755400	0.775700	0.329900
H2881	H288	0.802500	0.783800	0.258600
Si251	Si25	0.404970	0.029090	0.983460
N251	N25	0.455160	0.202670	0.965100
C1931	C193	0.447500	0.144900	0.955600
H2891	H289	0.465600	0.126800	0.909900
C1941	C194	0.414600	0.109300	0.008200
C1951	C195	0.390200	0.137500	0.075900
H2901	H290	0.368400	0.115600	0.114700
C1961	C196	0.397500	0.196900	0.086900
H2911	H291	0.380600	0.216000	0.132800
C1971	C197	0.429700	0.228000	0.030000
H2921	H292	0.434000	0.268900	0.037300
C1981	C198	0.398300	0.022600	0.870600
H2931	H293	0.393100	0.981500	0.855700
H2941	H294	0.433800	0.037800	0.844600
H2951	H295	0.364500	0.045200	0.851800
C1991	C199	0.337800	0.002500	0.034800
H2961	H296	0.332200	0.961000	0.022400
H2971	H297	0.304100	0.024800	0.014900
H2981	H298	0.341600	0.007700	0.094100
C2001	C200	0.471200	0.989700	0.019800
H2991	H299	0.474300	0.994600	0.079900
H3001	H300	0.466200	0.947500	0.008600
Si261	Si26	0.904970	0.529090	0.483460
N261	N26	0.955160	0.702670	0.465100
C2011	C201	0.947500	0.644900	0.455600
H3011	H301	0.965600	0.626800	0.409900
C2021	C202	0.914600	0.609300	0.508200
C2031	C203	0.890200	0.637500	0.575900
H3021	H302	0.868400	0.615600	0.614700
C2041	C204	0.897500	0.696900	0.586900
H3031	H303	0.880600	0.716000	0.632800
C2051	C205	0.929700	0.728000	0.530000
H3041	H304	0.934000	0.768900	0.537300
C2061	C206	0.898300	0.522600	0.370600
H3051	H305	0.893100	0.481500	0.355700
H3061	H306	0.933800	0.537800	0.344600
H3071	H307	0.864500	0.545200	0.351800
C2071	C207	0.837800	0.502500	0.534800
H3081	H308	0.832200	0.461000	0.522400
H3091	H309	0.804100	0.524800	0.514900
H3101	H310	0.841600	0.507700	0.594100
C2081	C208	0.971200	0.489700	0.519800
H3111	H311	0.974300	0.494600	0.579900
H3121	H312	0.966200	0.447500	0.508600
Si271	Si27	0.095030	0.970910	0.483460
N271	N27	0.044840	0.797330	0.465100
C2091	C209	0.052500	0.855100	0.455600
H3131	H313	0.034400	0.873200	0.409900
C2101	C210	0.085400	0.890700	0.508200
C2111	C211	0.109800	0.862500	0.575900
H3141	H314	0.131600	0.884400	0.614700
C2121	C212	0.102500	0.803100	0.586900
H3151	H315	0.119400	0.784000	0.632800
C2131	C213	0.070300	0.772000	0.530000
H3161	H316	0.066000	0.731100	0.537300
C2141	C214	0.101700	0.977400	0.370600
H3171	H317	0.106900	0.018500	0.355700
H3181	H318	0.066200	0.962200	0.344600
H3191	H319	0.135500	0.954800	0.351800
C2151	C215	0.162200	0.997500	0.534800
H3201	H320	0.167800	0.039000	0.522400
H3211	H321	0.195900	0.975200	0.514900
H3221	H322	0.158400	0.992300	0.594100
C2161	C216	0.028800	0.010300	0.519800
H3231	H323	0.025700	0.005400	0.579900
H3241	H324	0.033800	0.052500	0.508600
Si281	Si28	0.595030	0.470910	0.983460
N281	N28	0.544840	0.297330	0.965100
C2171	C217	0.552500	0.355100	0.955600
H3251	H325	0.534400	0.373200	0.909900
C2181	C218	0.585400	0.390700	0.008200
C2191	C219	0.609800	0.362500	0.075900
H3261	H326	0.631600	0.384400	0.114700
C2201	C220	0.602500	0.303100	0.086900
H3271	H327	0.619400	0.284000	0.132800
C2211	C221	0.570300	0.272000	0.030000
H3281	H328	0.566000	0.231100	0.037300
C2221	C222	0.601700	0.477400	0.870600
H3291	H329	0.606900	0.518500	0.855700
H3301	H330	0.566200	0.462200	0.844600
H3311	H331	0.635500	0.454800	0.851800
C2231	C223	0.662200	0.497500	0.034800
H3321	H332	0.667800	0.539000	0.022400
H3331	H333	0.695900	0.475200	0.014900
H3341	H334	0.658400	0.492300	0.094100
C2241	C224	0.528800	0.510300	0.019800
H3351	H335	0.525700	0.505400	0.079900
H3361	H336	0.533800	0.552500	0.008600
Si291	Si29	0.720910	0.345030	0.766540
N291	N29	0.547330	0.294840	0.784900
C2251	C225	0.605100	0.302500	0.794400
H3371	H337	0.623200	0.284400	0.840100
C2261	C226	0.640700	0.335400	0.741800
C2271	C227	0.612500	0.359800	0.674100
H3381	H338	0.634400	0.381600	0.635300
C2281	C228	0.553100	0.352500	0.663100
H3391	H339	0.534000	0.369400	0.617200
C2291	C229	0.522000	0.320300	0.720000
H3401	H340	0.481100	0.316000	0.712700
C2301	C230	0.727400	0.351700	0.879400
H3411	H341	0.768500	0.356900	0.894300
H3421	H342	0.712200	0.316200	0.905400
H3431	H343	0.704800	0.385500	0.898200
C2311	C231	0.747500	0.412200	0.715200
H3441	H344	0.789000	0.417800	0.727600
H3451	H345	0.725200	0.445900	0.735100
H3461	H346	0.742300	0.408400	0.655900
C2321	C232	0.760300	0.278800	0.730200
H3471	H347	0.755400	0.275700	0.670100
H3481	H348	0.802500	0.283800	0.741400
Si301	Si30	0.220910	0.845030	0.266540
N301	N30	0.047330	0.794840	0.284900
C2331	C233	0.105100	0.802500	0.294400
H3491	H349	0.123200	0.784400	0.340100
C2341	C234	0.140700	0.835400	0.241800
C2351	C235	0.112500	0.859800	0.174100
H3501	H350	0.134400	0.881600	0.135300
C2361	C236	0.053100	0.852500	0.163100
H3511	H351	0.034000	0.869400	0.117200
C2371	C237	0.022000	0.820300	0.220000
H3521	H352	0.981100	0.816000	0.212700
C2381	C238	0.227400	0.851700	0.379400
H3531	H353	0.268500	0.856900	0.394300
H3541	H354	0.212200	0.816200	0.405400
H3551	H355	0.204800	0.885500	0.398200
C2391	C239	0.247500	0.912200	0.215200
H3561	H356	0.289000	0.917800	0.227600
H3571	H357	0.225200	0.945900	0.235100
H3581	H358	0.242300	0.908400	0.155900
C2401	C240	0.260300	0.778800	0.230200
H3591	H359	0.255400	0.775700	0.170100
H3601	H360	0.302500	0.783800	0.241400
Si311	Si31	0.779090	0.654970	0.266540
N311	N31	0.952670	0.705160	0.284900
C2411	C241	0.894900	0.697500	0.294400
H3611	H361	0.876800	0.715600	0.340100
C2421	C242	0.859300	0.664600	0.241800
C2431	C243	0.887500	0.640200	0.174100
H3621	H362	0.865600	0.618400	0.135300
C2441	C244	0.946900	0.647500	0.163100
H3631	H363	0.966000	0.630600	0.117200
C2451	C245	0.978000	0.679700	0.220000
H3641	H364	0.018900	0.684000	0.212700
C2461	C246	0.772600	0.648300	0.379400
H3651	H365	0.731500	0.643100	0.394300
H3661	H366	0.787800	0.683800	0.405400
H3671	H367	0.795200	0.614500	0.398200
C2471	C247	0.752500	0.587800	0.215200
H3681	H368	0.711000	0.582200	0.227600
H3691	H369	0.774800	0.554100	0.235100
H3701	H370	0.757700	0.591600	0.155900
C2481	C248	0.739700	0.721200	0.230200
H3711	H371	0.744600	0.724300	0.170100
H3721	H372	0.697500	0.716200	0.241400
Si321	Si32	0.279090	0.154970	0.766540
N321	N32	0.452670	0.205160	0.784900
C2491	C249	0.394900	0.197500	0.794400
H3731	H373	0.376800	0.215600	0.840100
C2501	C250	0.359300	0.164600	0.741800
C2511	C251	0.387500	0.140200	0.674100
H3741	H374	0.365600	0.118400	0.635300
C2521	C252	0.446900	0.147500	0.663100
H3751	H375	0.466000	0.130600	0.617200
C2531	C253	0.478000	0.179700	0.720000
H3761	H376	0.518900	0.184000	0.712700
C2541	C254	0.272600	0.148300	0.879400
H3771	H377	0.231500	0.143100	0.894300
H3781	H378	0.287800	0.183800	0.905400
H3791	H379	0.295200	0.114500	0.898200
C2551	C255	0.252500	0.087800	0.715200
H3801	H380	0.211000	0.082200	0.727600
H3811	H381	0.274800	0.054100	0.735100
H3821	H382	0.257700	0.091600	0.655900
C2561	C256	0.239700	0.221200	0.730200
H3831	H383	0.244600	0.224300	0.670100
H3841	H384	0.197500	0.216200	0.741400
Ni51	Ni5	0.500000	0.750000	0.125000
Ni61	Ni6	0.000000	0.250000	0.625000
Ni71	Ni7	0.500000	0.250000	0.875000
Ni81	Ni8	0.000000	0.750000	0.375000
