data_IZUVUV_clean_PM
_symmetry_space_group_name_H-M	'P1'
_cell_length_a	49.620000
_cell_length_b	50.589000
_cell_length_c	6.059000
_cell_angle_alpha	90.000000
_cell_angle_beta	90.000000
_cell_angle_gamma	90.000000
_symmetry_Int_Tables_number 1

loop_
_symmetry_equiv_pos_as_xyz
'x,y,z'

loop_
_atom_site_label
_atom_site_type_symbol
_atom_site_fract_x
_atom_site_fract_y
_atom_site_fract_z
Zn11	Zn1	0.874690	0.137470	0.140120
Cl11	Cl1	0.860180	0.105930	0.364700
Cl21	Cl2	0.887330	0.176720	0.277000
Cl31	Cl3	0.710490	0.242560	0.220500
C11	C1	0.847120	0.158290	0.738000
H11	H1	0.863500	0.167600	0.716900
C21	C2	0.826300	0.162490	0.586100
H21	H2	0.828400	0.174100	0.463900
C31	C3	0.802300	0.148760	0.623300
C41	C4	0.800190	0.131600	0.790300
H31	H3	0.784000	0.121800	0.811500
C51	C5	0.822120	0.128120	0.934200
H41	H4	0.820700	0.115700	0.051400
C61	C6	0.777970	0.154560	0.476500
C71	C7	0.756640	0.173050	0.190000
C81	C8	0.732720	0.150620	0.441000
C91	C9	0.756850	0.188990	0.991800
C101	C10	0.780210	0.200740	0.905400
H51	H5	0.797200	0.197700	0.972500
C111	C11	0.778140	0.216480	0.724600
H61	H6	0.794000	0.225000	0.672400
C121	C12	0.732550	0.208600	0.693600
H71	H7	0.716100	0.211200	0.616100
C131	C13	0.732330	0.193580	0.870500
H81	H8	0.716000	0.185700	0.918500
C141	C14	0.706420	0.140870	0.542700
C151	C15	0.682240	0.146600	0.430800
H91	H9	0.681800	0.155900	0.294600
C161	C16	0.658280	0.137280	0.539000
H101	H10	0.641400	0.140500	0.470300
C171	C17	0.682320	0.119640	0.828100
H111	H11	0.682400	0.110200	0.963500
C181	C18	0.706700	0.128000	0.738000
H121	H12	0.723200	0.124700	0.812700
N11	N1	0.754760	0.143770	0.559000
N21	N2	0.780160	0.168890	0.299300
N31	N3	0.732330	0.163940	0.258000
N41	N4	0.755140	0.220690	0.615900
N51	N5	0.845350	0.142100	0.909500
N61	N6	0.658330	0.124720	0.726400
Zn21	Zn2	0.874690	0.637470	0.640120
Cl41	Cl4	0.860180	0.605930	0.864700
Cl51	Cl5	0.887330	0.676720	0.777000
Cl61	Cl6	0.710490	0.742560	0.720500
C191	C19	0.847120	0.658290	0.238000
H131	H13	0.863500	0.667600	0.216900
C201	C20	0.826300	0.662490	0.086100
H141	H14	0.828400	0.674100	0.963900
C211	C21	0.802300	0.648760	0.123300
C221	C22	0.800190	0.631600	0.290300
H151	H15	0.784000	0.621800	0.311500
C231	C23	0.822120	0.628120	0.434200
H161	H16	0.820700	0.615700	0.551400
C241	C24	0.777970	0.654560	0.976500
C251	C25	0.756640	0.673050	0.690000
C261	C26	0.732720	0.650620	0.941000
C271	C27	0.756850	0.688990	0.491800
C281	C28	0.780210	0.700740	0.405400
H171	H17	0.797200	0.697700	0.472500
C291	C29	0.778140	0.716480	0.224600
H181	H18	0.794000	0.725000	0.172400
C301	C30	0.732550	0.708600	0.193600
H191	H19	0.716100	0.711200	0.116100
C311	C31	0.732330	0.693580	0.370500
H201	H20	0.716000	0.685700	0.418500
C321	C32	0.706420	0.640870	0.042700
C331	C33	0.682240	0.646600	0.930800
H211	H21	0.681800	0.655900	0.794600
C341	C34	0.658280	0.637280	0.039000
H221	H22	0.641400	0.640500	0.970300
C351	C35	0.682320	0.619640	0.328100
H231	H23	0.682400	0.610200	0.463500
C361	C36	0.706700	0.628000	0.238000
H241	H24	0.723200	0.624700	0.312700
N71	N7	0.754760	0.643770	0.059000
N81	N8	0.780160	0.668890	0.799300
N91	N9	0.732330	0.663940	0.758000
N101	N10	0.755140	0.720690	0.115900
N111	N11	0.845350	0.642100	0.409500
N121	N12	0.658330	0.624720	0.226400
Zn31	Zn3	0.374690	0.137470	0.640120
Cl71	Cl7	0.360180	0.105930	0.864700
Cl81	Cl8	0.387330	0.176720	0.777000
Cl91	Cl9	0.210490	0.242560	0.720500
C371	C37	0.347120	0.158290	0.238000
H251	H25	0.363500	0.167600	0.216900
C381	C38	0.326300	0.162490	0.086100
H261	H26	0.328400	0.174100	0.963900
C391	C39	0.302300	0.148760	0.123300
C401	C40	0.300190	0.131600	0.290300
H271	H27	0.284000	0.121800	0.311500
C411	C41	0.322120	0.128120	0.434200
H281	H28	0.320700	0.115700	0.551400
C421	C42	0.277970	0.154560	0.976500
C431	C43	0.256640	0.173050	0.690000
C441	C44	0.232720	0.150620	0.941000
C451	C45	0.256850	0.188990	0.491800
C461	C46	0.280210	0.200740	0.405400
H291	H29	0.297200	0.197700	0.472500
C471	C47	0.278140	0.216480	0.224600
H301	H30	0.294000	0.225000	0.172400
C481	C48	0.232550	0.208600	0.193600
H311	H31	0.216100	0.211200	0.116100
C491	C49	0.232330	0.193580	0.370500
H321	H32	0.216000	0.185700	0.418500
C501	C50	0.206420	0.140870	0.042700
C511	C51	0.182240	0.146600	0.930800
H331	H33	0.181800	0.155900	0.794600
C521	C52	0.158280	0.137280	0.039000
H341	H34	0.141400	0.140500	0.970300
C531	C53	0.182320	0.119640	0.328100
H351	H35	0.182400	0.110200	0.463500
C541	C54	0.206700	0.128000	0.238000
H361	H36	0.223200	0.124700	0.312700
N131	N13	0.254760	0.143770	0.059000
N141	N14	0.280160	0.168890	0.799300
N151	N15	0.232330	0.163940	0.758000
N161	N16	0.255140	0.220690	0.115900
N171	N17	0.345350	0.142100	0.409500
N181	N18	0.158330	0.124720	0.226400
Zn41	Zn4	0.374690	0.637470	0.140120
Cl101	Cl10	0.360180	0.605930	0.364700
Cl111	Cl11	0.387330	0.676720	0.277000
Cl121	Cl12	0.210490	0.742560	0.220500
C551	C55	0.347120	0.658290	0.738000
H371	H37	0.363500	0.667600	0.716900
C561	C56	0.326300	0.662490	0.586100
H381	H38	0.328400	0.674100	0.463900
C571	C57	0.302300	0.648760	0.623300
C581	C58	0.300190	0.631600	0.790300
H391	H39	0.284000	0.621800	0.811500
C591	C59	0.322120	0.628120	0.934200
H401	H40	0.320700	0.615700	0.051400
C601	C60	0.277970	0.654560	0.476500
C611	C61	0.256640	0.673050	0.190000
C621	C62	0.232720	0.650620	0.441000
C631	C63	0.256850	0.688990	0.991800
C641	C64	0.280210	0.700740	0.905400
H411	H41	0.297200	0.697700	0.972500
C651	C65	0.278140	0.716480	0.724600
H421	H42	0.294000	0.725000	0.672400
C661	C66	0.232550	0.708600	0.693600
H431	H43	0.216100	0.711200	0.616100
C671	C67	0.232330	0.693580	0.870500
H441	H44	0.216000	0.685700	0.918500
C681	C68	0.206420	0.640870	0.542700
C691	C69	0.182240	0.646600	0.430800
H451	H45	0.181800	0.655900	0.294600
C701	C70	0.158280	0.637280	0.539000
H461	H46	0.141400	0.640500	0.470300
C711	C71	0.182320	0.619640	0.828100
H471	H47	0.182400	0.610200	0.963500
C721	C72	0.206700	0.628000	0.738000
H481	H48	0.223200	0.624700	0.812700
N191	N19	0.254760	0.643770	0.559000
N201	N20	0.280160	0.668890	0.299300
N211	N21	0.232330	0.663940	0.258000
N221	N22	0.255140	0.720690	0.615900
N231	N23	0.345350	0.642100	0.909500
N241	N24	0.158330	0.624720	0.726400
Zn51	Zn5	0.125310	0.862530	0.140120
Cl131	Cl13	0.139820	0.894070	0.364700
Cl141	Cl14	0.112670	0.823280	0.277000
Cl151	Cl15	0.289510	0.757440	0.220500
C731	C73	0.152880	0.841710	0.738000
H491	H49	0.136500	0.832400	0.716900
C741	C74	0.173700	0.837510	0.586100
H501	H50	0.171600	0.825900	0.463900
C751	C75	0.197700	0.851240	0.623300
C761	C76	0.199810	0.868400	0.790300
H511	H51	0.216000	0.878200	0.811500
C771	C77	0.177880	0.871880	0.934200
H521	H52	0.179300	0.884300	0.051400
C781	C78	0.222030	0.845440	0.476500
C791	C79	0.243360	0.826950	0.190000
C801	C80	0.267280	0.849380	0.441000
C811	C81	0.243150	0.811010	0.991800
C821	C82	0.219790	0.799260	0.905400
H531	H53	0.202800	0.802300	0.972500
C831	C83	0.221860	0.783520	0.724600
H541	H54	0.206000	0.775000	0.672400
C841	C84	0.267450	0.791400	0.693600
H551	H55	0.283900	0.788800	0.616100
C851	C85	0.267670	0.806420	0.870500
H561	H56	0.284000	0.814300	0.918500
C861	C86	0.293580	0.859130	0.542700
C871	C87	0.317760	0.853400	0.430800
H571	H57	0.318200	0.844100	0.294600
C881	C88	0.341720	0.862720	0.539000
H581	H58	0.358600	0.859500	0.470300
C891	C89	0.317680	0.880360	0.828100
H591	H59	0.317600	0.889800	0.963500
C901	C90	0.293300	0.872000	0.738000
H601	H60	0.276800	0.875300	0.812700
N251	N25	0.245240	0.856230	0.559000
N261	N26	0.219840	0.831110	0.299300
N271	N27	0.267670	0.836060	0.258000
N281	N28	0.244860	0.779310	0.615900
N291	N29	0.154650	0.857900	0.909500
N301	N30	0.341670	0.875280	0.726400
Zn61	Zn6	0.125310	0.362530	0.640120
Cl161	Cl16	0.139820	0.394070	0.864700
Cl171	Cl17	0.112670	0.323280	0.777000
Cl181	Cl18	0.289510	0.257440	0.720500
C911	C91	0.152880	0.341710	0.238000
H611	H61	0.136500	0.332400	0.216900
C921	C92	0.173700	0.337510	0.086100
H621	H62	0.171600	0.325900	0.963900
C931	C93	0.197700	0.351240	0.123300
C941	C94	0.199810	0.368400	0.290300
H631	H63	0.216000	0.378200	0.311500
C951	C95	0.177880	0.371880	0.434200
H641	H64	0.179300	0.384300	0.551400
C961	C96	0.222030	0.345440	0.976500
C971	C97	0.243360	0.326950	0.690000
C981	C98	0.267280	0.349380	0.941000
C991	C99	0.243150	0.311010	0.491800
C1001	C100	0.219790	0.299260	0.405400
H651	H65	0.202800	0.302300	0.472500
C1011	C101	0.221860	0.283520	0.224600
H661	H66	0.206000	0.275000	0.172400
C1021	C102	0.267450	0.291400	0.193600
H671	H67	0.283900	0.288800	0.116100
C1031	C103	0.267670	0.306420	0.370500
H681	H68	0.284000	0.314300	0.418500
C1041	C104	0.293580	0.359130	0.042700
C1051	C105	0.317760	0.353400	0.930800
H691	H69	0.318200	0.344100	0.794600
C1061	C106	0.341720	0.362720	0.039000
H701	H70	0.358600	0.359500	0.970300
C1071	C107	0.317680	0.380360	0.328100
H711	H71	0.317600	0.389800	0.463500
C1081	C108	0.293300	0.372000	0.238000
H721	H72	0.276800	0.375300	0.312700
N311	N31	0.245240	0.356230	0.059000
N321	N32	0.219840	0.331110	0.799300
N331	N33	0.267670	0.336060	0.758000
N341	N34	0.244860	0.279310	0.115900
N351	N35	0.154650	0.357900	0.409500
N361	N36	0.341670	0.375280	0.226400
Zn71	Zn7	0.625310	0.862530	0.640120
Cl191	Cl19	0.639820	0.894070	0.864700
Cl201	Cl20	0.612670	0.823280	0.777000
Cl211	Cl21	0.789510	0.757440	0.720500
C1091	C109	0.652880	0.841710	0.238000
H731	H73	0.636500	0.832400	0.216900
C1101	C110	0.673700	0.837510	0.086100
H741	H74	0.671600	0.825900	0.963900
C1111	C111	0.697700	0.851240	0.123300
C1121	C112	0.699810	0.868400	0.290300
H751	H75	0.716000	0.878200	0.311500
C1131	C113	0.677880	0.871880	0.434200
H761	H76	0.679300	0.884300	0.551400
C1141	C114	0.722030	0.845440	0.976500
C1151	C115	0.743360	0.826950	0.690000
C1161	C116	0.767280	0.849380	0.941000
C1171	C117	0.743150	0.811010	0.491800
C1181	C118	0.719790	0.799260	0.405400
H771	H77	0.702800	0.802300	0.472500
C1191	C119	0.721860	0.783520	0.224600
H781	H78	0.706000	0.775000	0.172400
C1201	C120	0.767450	0.791400	0.193600
H791	H79	0.783900	0.788800	0.116100
C1211	C121	0.767670	0.806420	0.370500
H801	H80	0.784000	0.814300	0.418500
C1221	C122	0.793580	0.859130	0.042700
C1231	C123	0.817760	0.853400	0.930800
H811	H81	0.818200	0.844100	0.794600
C1241	C124	0.841720	0.862720	0.039000
H821	H82	0.858600	0.859500	0.970300
C1251	C125	0.817680	0.880360	0.328100
H831	H83	0.817600	0.889800	0.463500
C1261	C126	0.793300	0.872000	0.238000
H841	H84	0.776800	0.875300	0.312700
N371	N37	0.745240	0.856230	0.059000
N381	N38	0.719840	0.831110	0.799300
N391	N39	0.767670	0.836060	0.758000
N401	N40	0.744860	0.779310	0.115900
N411	N41	0.654650	0.857900	0.409500
N421	N42	0.841670	0.875280	0.226400
Zn81	Zn8	0.625310	0.362530	0.140120
Cl221	Cl22	0.639820	0.394070	0.364700
Cl231	Cl23	0.612670	0.323280	0.277000
Cl241	Cl24	0.789510	0.257440	0.220500
C1271	C127	0.652880	0.341710	0.738000
H851	H85	0.636500	0.332400	0.716900
C1281	C128	0.673700	0.337510	0.586100
H861	H86	0.671600	0.325900	0.463900
C1291	C129	0.697700	0.351240	0.623300
C1301	C130	0.699810	0.368400	0.790300
H871	H87	0.716000	0.378200	0.811500
C1311	C131	0.677880	0.371880	0.934200
H881	H88	0.679300	0.384300	0.051400
C1321	C132	0.722030	0.345440	0.476500
C1331	C133	0.743360	0.326950	0.190000
C1341	C134	0.767280	0.349380	0.441000
C1351	C135	0.743150	0.311010	0.991800
C1361	C136	0.719790	0.299260	0.905400
H891	H89	0.702800	0.302300	0.972500
C1371	C137	0.721860	0.283520	0.724600
H901	H90	0.706000	0.275000	0.672400
C1381	C138	0.767450	0.291400	0.693600
H911	H91	0.783900	0.288800	0.616100
C1391	C139	0.767670	0.306420	0.870500
H921	H92	0.784000	0.314300	0.918500
C1401	C140	0.793580	0.359130	0.542700
C1411	C141	0.817760	0.353400	0.430800
H931	H93	0.818200	0.344100	0.294600
C1421	C142	0.841720	0.362720	0.539000
H941	H94	0.858600	0.359500	0.470300
C1431	C143	0.817680	0.380360	0.828100
H951	H95	0.817600	0.389800	0.963500
C1441	C144	0.793300	0.372000	0.738000
H961	H96	0.776800	0.375300	0.812700
N431	N43	0.745240	0.356230	0.559000
N441	N44	0.719840	0.331110	0.299300
N451	N45	0.767670	0.336060	0.258000
N461	N46	0.744860	0.279310	0.615900
N471	N47	0.654650	0.357900	0.909500
N481	N48	0.841670	0.375280	0.726400
Zn91	Zn9	0.124690	0.112530	0.390120
Cl251	Cl25	0.110180	0.144070	0.614700
Cl261	Cl26	0.137330	0.073280	0.527000
Cl271	Cl27	0.960490	0.007440	0.470500
C1451	C145	0.097120	0.091710	0.988000
H971	H97	0.113500	0.082400	0.966900
C1461	C146	0.076300	0.087510	0.836100
H981	H98	0.078400	0.075900	0.713900
C1471	C147	0.052300	0.101240	0.873300
C1481	C148	0.050190	0.118400	0.040300
H991	H99	0.034000	0.128200	0.061500
C1491	C149	0.072120	0.121880	0.184200
H1001	H100	0.070700	0.134300	0.301400
C1501	C150	0.027970	0.095440	0.726500
C1511	C151	0.006640	0.076950	0.440000
C1521	C152	0.982720	0.099380	0.691000
C1531	C153	0.006850	0.061010	0.241800
C1541	C154	0.030210	0.049260	0.155400
H1011	H101	0.047200	0.052300	0.222500
C1551	C155	0.028140	0.033520	0.974600
H1021	H102	0.044000	0.025000	0.922400
C1561	C156	0.982550	0.041400	0.943600
H1031	H103	0.966100	0.038800	0.866100
C1571	C157	0.982330	0.056420	0.120500
H1041	H104	0.966000	0.064300	0.168500
C1581	C158	0.956420	0.109130	0.792700
C1591	C159	0.932240	0.103400	0.680800
H1051	H105	0.931800	0.094100	0.544600
C1601	C160	0.908280	0.112720	0.789000
H1061	H106	0.891400	0.109500	0.720300
C1611	C161	0.932320	0.130360	0.078100
H1071	H107	0.932400	0.139800	0.213500
C1621	C162	0.956700	0.122000	0.988000
H1081	H108	0.973200	0.125300	0.062700
N491	N49	0.004760	0.106230	0.809000
N501	N50	0.030160	0.081110	0.549300
N511	N51	0.982330	0.086060	0.508000
N521	N52	0.005140	0.029310	0.865900
N531	N53	0.095350	0.107900	0.159500
N541	N54	0.908330	0.125280	0.976400
Zn101	Zn10	0.124690	0.612530	0.890120
Cl281	Cl28	0.110180	0.644070	0.114700
Cl291	Cl29	0.137330	0.573280	0.027000
Cl301	Cl30	0.960490	0.507440	0.970500
C1631	C163	0.097120	0.591710	0.488000
H1091	H109	0.113500	0.582400	0.466900
C1641	C164	0.076300	0.587510	0.336100
H1101	H110	0.078400	0.575900	0.213900
C1651	C165	0.052300	0.601240	0.373300
C1661	C166	0.050190	0.618400	0.540300
H1111	H111	0.034000	0.628200	0.561500
C1671	C167	0.072120	0.621880	0.684200
H1121	H112	0.070700	0.634300	0.801400
C1681	C168	0.027970	0.595440	0.226500
C1691	C169	0.006640	0.576950	0.940000
C1701	C170	0.982720	0.599380	0.191000
C1711	C171	0.006850	0.561010	0.741800
C1721	C172	0.030210	0.549260	0.655400
H1131	H113	0.047200	0.552300	0.722500
C1731	C173	0.028140	0.533520	0.474600
H1141	H114	0.044000	0.525000	0.422400
C1741	C174	0.982550	0.541400	0.443600
H1151	H115	0.966100	0.538800	0.366100
C1751	C175	0.982330	0.556420	0.620500
H1161	H116	0.966000	0.564300	0.668500
C1761	C176	0.956420	0.609130	0.292700
C1771	C177	0.932240	0.603400	0.180800
H1171	H117	0.931800	0.594100	0.044600
C1781	C178	0.908280	0.612720	0.289000
H1181	H118	0.891400	0.609500	0.220300
C1791	C179	0.932320	0.630360	0.578100
H1191	H119	0.932400	0.639800	0.713500
C1801	C180	0.956700	0.622000	0.488000
H1201	H120	0.973200	0.625300	0.562700
N551	N55	0.004760	0.606230	0.309000
N561	N56	0.030160	0.581110	0.049300
N571	N57	0.982330	0.586060	0.008000
N581	N58	0.005140	0.529310	0.365900
N591	N59	0.095350	0.607900	0.659500
N601	N60	0.908330	0.625280	0.476400
Zn111	Zn11	0.624690	0.112530	0.890120
Cl311	Cl31	0.610180	0.144070	0.114700
Cl321	Cl32	0.637330	0.073280	0.027000
Cl331	Cl33	0.460490	0.007440	0.970500
C1811	C181	0.597120	0.091710	0.488000
H1211	H121	0.613500	0.082400	0.466900
C1821	C182	0.576300	0.087510	0.336100
H1221	H122	0.578400	0.075900	0.213900
C1831	C183	0.552300	0.101240	0.373300
C1841	C184	0.550190	0.118400	0.540300
H1231	H123	0.534000	0.128200	0.561500
C1851	C185	0.572120	0.121880	0.684200
H1241	H124	0.570700	0.134300	0.801400
C1861	C186	0.527970	0.095440	0.226500
C1871	C187	0.506640	0.076950	0.940000
C1881	C188	0.482720	0.099380	0.191000
C1891	C189	0.506850	0.061010	0.741800
C1901	C190	0.530210	0.049260	0.655400
H1251	H125	0.547200	0.052300	0.722500
C1911	C191	0.528140	0.033520	0.474600
H1261	H126	0.544000	0.025000	0.422400
C1921	C192	0.482550	0.041400	0.443600
H1271	H127	0.466100	0.038800	0.366100
C1931	C193	0.482330	0.056420	0.620500
H1281	H128	0.466000	0.064300	0.668500
C1941	C194	0.456420	0.109130	0.292700
C1951	C195	0.432240	0.103400	0.180800
H1291	H129	0.431800	0.094100	0.044600
C1961	C196	0.408280	0.112720	0.289000
H1301	H130	0.391400	0.109500	0.220300
C1971	C197	0.432320	0.130360	0.578100
H1311	H131	0.432400	0.139800	0.713500
C1981	C198	0.456700	0.122000	0.488000
H1321	H132	0.473200	0.125300	0.562700
N611	N61	0.504760	0.106230	0.309000
N621	N62	0.530160	0.081110	0.049300
N631	N63	0.482330	0.086060	0.008000
N641	N64	0.505140	0.029310	0.365900
N651	N65	0.595350	0.107900	0.659500
N661	N66	0.408330	0.125280	0.476400
Zn121	Zn12	0.624690	0.612530	0.390120
Cl341	Cl34	0.610180	0.644070	0.614700
Cl351	Cl35	0.637330	0.573280	0.527000
Cl361	Cl36	0.460490	0.507440	0.470500
C1991	C199	0.597120	0.591710	0.988000
H1331	H133	0.613500	0.582400	0.966900
C2001	C200	0.576300	0.587510	0.836100
H1341	H134	0.578400	0.575900	0.713900
C2011	C201	0.552300	0.601240	0.873300
C2021	C202	0.550190	0.618400	0.040300
H1351	H135	0.534000	0.628200	0.061500
C2031	C203	0.572120	0.621880	0.184200
H1361	H136	0.570700	0.634300	0.301400
C2041	C204	0.527970	0.595440	0.726500
C2051	C205	0.506640	0.576950	0.440000
C2061	C206	0.482720	0.599380	0.691000
C2071	C207	0.506850	0.561010	0.241800
C2081	C208	0.530210	0.549260	0.155400
H1371	H137	0.547200	0.552300	0.222500
C2091	C209	0.528140	0.533520	0.974600
H1381	H138	0.544000	0.525000	0.922400
C2101	C210	0.482550	0.541400	0.943600
H1391	H139	0.466100	0.538800	0.866100
C2111	C211	0.482330	0.556420	0.120500
H1401	H140	0.466000	0.564300	0.168500
C2121	C212	0.456420	0.609130	0.792700
C2131	C213	0.432240	0.603400	0.680800
H1411	H141	0.431800	0.594100	0.544600
C2141	C214	0.408280	0.612720	0.789000
H1421	H142	0.391400	0.609500	0.720300
C2151	C215	0.432320	0.630360	0.078100
H1431	H143	0.432400	0.639800	0.213500
C2161	C216	0.456700	0.622000	0.988000
H1441	H144	0.473200	0.625300	0.062700
N671	N67	0.504760	0.606230	0.809000
N681	N68	0.530160	0.581110	0.549300
N691	N69	0.482330	0.586060	0.508000
N701	N70	0.505140	0.529310	0.865900
N711	N71	0.595350	0.607900	0.159500
N721	N72	0.408330	0.625280	0.976400
Zn131	Zn13	0.375310	0.387470	0.390120
Cl371	Cl37	0.389820	0.355930	0.614700
Cl381	Cl38	0.362670	0.426720	0.527000
Cl391	Cl39	0.539510	0.492560	0.470500
C2171	C217	0.402880	0.408290	0.988000
H1451	H145	0.386500	0.417600	0.966900
C2181	C218	0.423700	0.412490	0.836100
H1461	H146	0.421600	0.424100	0.713900
C2191	C219	0.447700	0.398760	0.873300
C2201	C220	0.449810	0.381600	0.040300
H1471	H147	0.466000	0.371800	0.061500
C2211	C221	0.427880	0.378120	0.184200
H1481	H148	0.429300	0.365700	0.301400
C2221	C222	0.472030	0.404560	0.726500
C2231	C223	0.493360	0.423050	0.440000
C2241	C224	0.517280	0.400620	0.691000
C2251	C225	0.493150	0.438990	0.241800
C2261	C226	0.469790	0.450740	0.155400
H1491	H149	0.452800	0.447700	0.222500
C2271	C227	0.471860	0.466480	0.974600
H1501	H150	0.456000	0.475000	0.922400
C2281	C228	0.517450	0.458600	0.943600
H1511	H151	0.533900	0.461200	0.866100
C2291	C229	0.517670	0.443580	0.120500
H1521	H152	0.534000	0.435700	0.168500
C2301	C230	0.543580	0.390870	0.792700
C2311	C231	0.567760	0.396600	0.680800
H1531	H153	0.568200	0.405900	0.544600
C2321	C232	0.591720	0.387280	0.789000
H1541	H154	0.608600	0.390500	0.720300
C2331	C233	0.567680	0.369640	0.078100
H1551	H155	0.567600	0.360200	0.213500
C2341	C234	0.543300	0.378000	0.988000
H1561	H156	0.526800	0.374700	0.062700
N731	N73	0.495240	0.393770	0.809000
N741	N74	0.469840	0.418890	0.549300
N751	N75	0.517670	0.413940	0.508000
N761	N76	0.494860	0.470690	0.865900
N771	N77	0.404650	0.392100	0.159500
N781	N78	0.591670	0.374720	0.976400
Zn141	Zn14	0.375310	0.887470	0.890120
Cl401	Cl40	0.389820	0.855930	0.114700
Cl411	Cl41	0.362670	0.926720	0.027000
Cl421	Cl42	0.539510	0.992560	0.970500
C2351	C235	0.402880	0.908290	0.488000
H1571	H157	0.386500	0.917600	0.466900
C2361	C236	0.423700	0.912490	0.336100
H1581	H158	0.421600	0.924100	0.213900
C2371	C237	0.447700	0.898760	0.373300
C2381	C238	0.449810	0.881600	0.540300
H1591	H159	0.466000	0.871800	0.561500
C2391	C239	0.427880	0.878120	0.684200
H1601	H160	0.429300	0.865700	0.801400
C2401	C240	0.472030	0.904560	0.226500
C2411	C241	0.493360	0.923050	0.940000
C2421	C242	0.517280	0.900620	0.191000
C2431	C243	0.493150	0.938990	0.741800
C2441	C244	0.469790	0.950740	0.655400
H1611	H161	0.452800	0.947700	0.722500
C2451	C245	0.471860	0.966480	0.474600
H1621	H162	0.456000	0.975000	0.422400
C2461	C246	0.517450	0.958600	0.443600
H1631	H163	0.533900	0.961200	0.366100
C2471	C247	0.517670	0.943580	0.620500
H1641	H164	0.534000	0.935700	0.668500
C2481	C248	0.543580	0.890870	0.292700
C2491	C249	0.567760	0.896600	0.180800
H1651	H165	0.568200	0.905900	0.044600
C2501	C250	0.591720	0.887280	0.289000
H1661	H166	0.608600	0.890500	0.220300
C2511	C251	0.567680	0.869640	0.578100
H1671	H167	0.567600	0.860200	0.713500
C2521	C252	0.543300	0.878000	0.488000
H1681	H168	0.526800	0.874700	0.562700
N791	N79	0.495240	0.893770	0.309000
N801	N80	0.469840	0.918890	0.049300
N811	N81	0.517670	0.913940	0.008000
N821	N82	0.494860	0.970690	0.365900
N831	N83	0.404650	0.892100	0.659500
N841	N84	0.591670	0.874720	0.476400
Zn151	Zn15	0.875310	0.387470	0.890120
Cl431	Cl43	0.889820	0.355930	0.114700
Cl441	Cl44	0.862670	0.426720	0.027000
Cl451	Cl45	0.039510	0.492560	0.970500
C2531	C253	0.902880	0.408290	0.488000
H1691	H169	0.886500	0.417600	0.466900
C2541	C254	0.923700	0.412490	0.336100
H1701	H170	0.921600	0.424100	0.213900
C2551	C255	0.947700	0.398760	0.373300
C2561	C256	0.949810	0.381600	0.540300
H1711	H171	0.966000	0.371800	0.561500
C2571	C257	0.927880	0.378120	0.684200
H1721	H172	0.929300	0.365700	0.801400
C2581	C258	0.972030	0.404560	0.226500
C2591	C259	0.993360	0.423050	0.940000
C2601	C260	0.017280	0.400620	0.191000
C2611	C261	0.993150	0.438990	0.741800
C2621	C262	0.969790	0.450740	0.655400
H1731	H173	0.952800	0.447700	0.722500
C2631	C263	0.971860	0.466480	0.474600
H1741	H174	0.956000	0.475000	0.422400
C2641	C264	0.017450	0.458600	0.443600
H1751	H175	0.033900	0.461200	0.366100
C2651	C265	0.017670	0.443580	0.620500
H1761	H176	0.034000	0.435700	0.668500
C2661	C266	0.043580	0.390870	0.292700
C2671	C267	0.067760	0.396600	0.180800
H1771	H177	0.068200	0.405900	0.044600
C2681	C268	0.091720	0.387280	0.289000
H1781	H178	0.108600	0.390500	0.220300
C2691	C269	0.067680	0.369640	0.578100
H1791	H179	0.067600	0.360200	0.713500
C2701	C270	0.043300	0.378000	0.488000
H1801	H180	0.026800	0.374700	0.562700
N851	N85	0.995240	0.393770	0.309000
N861	N86	0.969840	0.418890	0.049300
N871	N87	0.017670	0.413940	0.008000
N881	N88	0.994860	0.470690	0.365900
N891	N89	0.904650	0.392100	0.659500
N901	N90	0.091670	0.374720	0.476400
Zn161	Zn16	0.875310	0.887470	0.390120
Cl461	Cl46	0.889820	0.855930	0.614700
Cl471	Cl47	0.862670	0.926720	0.527000
Cl481	Cl48	0.039510	0.992560	0.470500
C2711	C271	0.902880	0.908290	0.988000
H1811	H181	0.886500	0.917600	0.966900
C2721	C272	0.923700	0.912490	0.836100
H1821	H182	0.921600	0.924100	0.713900
C2731	C273	0.947700	0.898760	0.873300
C2741	C274	0.949810	0.881600	0.040300
H1831	H183	0.966000	0.871800	0.061500
C2751	C275	0.927880	0.878120	0.184200
H1841	H184	0.929300	0.865700	0.301400
C2761	C276	0.972030	0.904560	0.726500
C2771	C277	0.993360	0.923050	0.440000
C2781	C278	0.017280	0.900620	0.691000
C2791	C279	0.993150	0.938990	0.241800
C2801	C280	0.969790	0.950740	0.155400
H1851	H185	0.952800	0.947700	0.222500
C2811	C281	0.971860	0.966480	0.974600
H1861	H186	0.956000	0.975000	0.922400
C2821	C282	0.017450	0.958600	0.943600
H1871	H187	0.033900	0.961200	0.866100
C2831	C283	0.017670	0.943580	0.120500
H1881	H188	0.034000	0.935700	0.168500
C2841	C284	0.043580	0.890870	0.792700
C2851	C285	0.067760	0.896600	0.680800
H1891	H189	0.068200	0.905900	0.544600
C2861	C286	0.091720	0.887280	0.789000
H1901	H190	0.108600	0.890500	0.720300
C2871	C287	0.067680	0.869640	0.078100
H1911	H191	0.067600	0.860200	0.213500
C2881	C288	0.043300	0.878000	0.988000
H1921	H192	0.026800	0.874700	0.062700
N911	N91	0.995240	0.893770	0.809000
N921	N92	0.969840	0.918890	0.549300
N931	N93	0.017670	0.913940	0.508000
N941	N94	0.994860	0.970690	0.865900
N951	N95	0.904650	0.892100	0.159500
N961	N96	0.091670	0.874720	0.976400
Zn171	Zn17	0.750000	0.250000	0.378900
Zn181	Zn18	0.750000	0.750000	0.878900
Zn191	Zn19	0.250000	0.750000	0.378900
Zn201	Zn20	0.250000	0.250000	0.878900
Zn211	Zn21	0.000000	0.000000	0.628900
Zn221	Zn22	0.000000	0.500000	0.128900
Zn231	Zn23	0.500000	0.500000	0.628900
Zn241	Zn24	0.500000	0.000000	0.128900
