data_j_PM
_symmetry_space_group_name_H-M	'P1'
_cell_length_a	44.964000
_cell_length_b	12.491100
_cell_length_c	31.682100
_cell_angle_alpha	90.000000
_cell_angle_beta	134.571000
_cell_angle_gamma	90.000000
_symmetry_Int_Tables_number 1

loop_
_symmetry_equiv_pos_as_xyz
'x,y,z'

loop_
_atom_site_label
_atom_site_type_symbol
_atom_site_fract_x
_atom_site_fract_y
_atom_site_fract_z
Cd11	Cd1	0.238100	0.506560	0.852080
Cd21	Cd2	0.237660	0.227980	0.877500
Cd31	Cd3	0.413410	0.470560	0.638510
Cd41	Cd4	0.321670	0.532320	0.480940
Cd51	Cd5	0.357550	0.721980	0.599090
Cd61	Cd6	0.646030	0.909850	0.744900
C11	C1	0.246500	0.639700	0.770800
H11	H1	0.223300	0.599000	0.740400
C21	C2	0.262300	0.707500	0.757300
H21	H2	0.250800	0.710800	0.718900
C31	C3	0.295700	0.771600	0.801200
C41	C4	0.311500	0.765000	0.857500
H31	H3	0.333700	0.808100	0.887800
C51	C5	0.293900	0.693500	0.868200
H41	H4	0.304100	0.690500	0.905800
C61	C6	0.316000	0.849700	0.793100
C71	C7	0.324900	0.004800	0.711000
H51	H5	0.295100	0.012500	0.676500
H61	H6	0.336900	0.076000	0.724400
C81	C8	0.325400	0.890400	0.646400
H71	H7	0.297100	0.874800	0.616500
C91	C9	0.389000	0.902200	0.698600
H81	H8	0.414900	0.890600	0.712100
C101	C10	0.358300	0.968600	0.816300
C111	C11	0.391700	0.048200	0.853600
C121	C12	0.416200	0.090800	0.845200
H91	H9	0.411500	0.070800	0.812600
C131	C13	0.447800	0.163700	0.886700
H101	H10	0.463300	0.192300	0.880100
C141	C14	0.434800	0.147900	0.943600
H111	H11	0.442700	0.161800	0.979100
C151	C15	0.401600	0.081300	0.903800
H121	H12	0.385600	0.058100	0.910600
C161	C16	0.491500	0.796900	0.924400
H131	H13	0.464500	0.770600	0.899700
C171	C17	0.500300	0.879800	0.905500
H141	H14	0.478500	0.917100	0.871100
C181	C18	0.540200	0.907300	0.936500
C191	C19	0.572000	0.860600	0.991800
H151	H15	0.599800	0.880000	0.015200
C201	C20	0.561400	0.785000	0.010700
H161	H16	0.582500	0.754100	0.047700
C211	C21	0.546700	0.990800	0.909900
C221	C22	0.619900	0.951700	0.953000
H171	H17	0.617200	0.880900	0.962500
H181	H18	0.625600	0.943600	0.928800
C231	C23	0.534100	0.120300	0.857400
C241	C24	0.509500	0.200900	0.809900
C251	C25	0.467500	0.208600	0.774700
H191	H19	0.454700	0.164300	0.781700
C261	C26	0.444300	0.279800	0.729800
H201	H20	0.415600	0.280600	0.705300
C271	C27	0.501500	0.346300	0.753500
H211	H21	0.513600	0.396800	0.747700
C281	C28	0.527700	0.270600	0.798700
H221	H22	0.555900	0.266800	0.820300
C291	C29	0.480600	0.501100	0.626600
H231	H23	0.482200	0.570100	0.639100
C301	C30	0.505600	0.476500	0.617300
H241	H24	0.522900	0.528100	0.622600
C311	C31	0.504500	0.375000	0.600000
C321	C32	0.477800	0.300400	0.592900
H251	H25	0.476400	0.230300	0.581700
C331	C33	0.453800	0.332300	0.602700
H261	H26	0.436200	0.282400	0.597900
C341	C34	0.527900	0.345100	0.585800
C351	C35	0.556390	0.164000	0.536200
H271	H27	0.565300	0.187400	0.517300
H281	H28	0.529200	0.130300	0.507000
C361	C36	0.566460	0.356300	0.570900
C371	C37	0.592410	0.398100	0.562000
C381	C38	0.584130	0.488000	0.536600
H291	H29	0.563000	0.530900	0.526200
C391	C39	0.606600	0.520700	0.524600
H301	H30	0.597700	0.582700	0.502200
C401	C40	0.650900	0.383400	0.573400
H311	H31	0.674900	0.349400	0.587700
C411	C41	0.631000	0.338000	0.586500
H321	H32	0.640200	0.275500	0.608500
C421	C42	0.318200	0.459600	0.959800
C431	C43	0.363500	0.443900	0.011100
C441	C44	0.388600	0.544400	0.047100
H331	H33	0.376900	0.606300	0.021200
H341	H34	0.387800	0.557100	0.076500
C451	C45	0.433300	0.525800	0.077100
H351	H35	0.443500	0.587300	0.071800
H361	H36	0.451400	0.513500	0.119200
C461	C46	0.431700	0.429800	0.048000
H371	H37	0.441700	0.369800	0.075100
C471	C47	0.386900	0.404900	0.992400
C481	C48	0.372900	0.475700	0.942400
H381	H38	0.344300	0.460500	0.907300
H391	H39	0.390000	0.462100	0.935100
H401	H40	0.375600	0.549400	0.953200
C491	C49	0.377300	0.288900	0.972300
H411	H41	0.385800	0.244000	0.003800
H421	H42	0.392200	0.268500	0.962000
H431	H43	0.347800	0.280700	0.938300
C501	C50	0.367500	0.358700	0.049400
H441	H44	0.351600	0.296600	0.025800
H451	H45	0.357000	0.386700	0.065100
H461	H46	0.396300	0.339400	0.081500
C511	C51	0.459300	0.431200	0.035300
C521	C52	0.176500	0.653600	0.810500
C531	C53	0.151900	0.757200	0.797500
H471	H47	0.124200	0.750500	0.757000
C541	C54	0.145000	0.777200	0.835100
H481	H48	0.165400	0.738200	0.872000
H491	H49	0.117400	0.752500	0.815600
C551	C55	0.148800	0.894100	0.847400
H501	H50	0.173600	0.909200	0.888700
H511	H51	0.124500	0.920200	0.838400
C561	C56	0.151800	0.947100	0.805800
C571	C57	0.172500	0.856700	0.798300
C581	C58	0.166800	0.865400	0.745900
H521	H52	0.137500	0.865800	0.710200
H531	H53	0.179900	0.805400	0.745400
H541	H54	0.179300	0.930600	0.748500
C591	C59	0.219700	0.855700	0.852000
H551	H55	0.231600	0.920200	0.852400
H561	H56	0.231600	0.794900	0.849600
H571	H57	0.225800	0.851400	0.887600
C601	C60	0.110700	0.980200	0.748800
H581	H58	0.092500	0.919200	0.729600
H591	H59	0.113700	0.009900	0.724000
H601	H60	0.099000	0.033200	0.755700
C611	C61	0.180400	0.045400	0.837100
C621	C62	0.574100	0.517000	0.115800
C631	C63	0.611700	0.516400	0.183700
C641	C64	0.623400	0.407200	0.212800
H611	H61	0.641900	0.371000	0.211700
H621	H62	0.598400	0.364000	0.191200
C651	C65	0.645300	0.419400	0.277900
H631	H63	0.634700	0.368200	0.287700
H641	H64	0.675300	0.410700	0.305200
C661	C66	0.634200	0.529600	0.278500
H651	H65	0.659500	0.572500	0.299600
C671	C67	0.599900	0.582000	0.216400
C681	C68	0.558500	0.555000	0.187500
H661	H66	0.556100	0.478600	0.187700
H671	H67	0.539200	0.580300	0.147400
H681	H68	0.552400	0.587800	0.208100
C691	C69	0.606800	0.699600	0.218100
H691	H69	0.634900	0.712200	0.236800
H701	H70	0.602400	0.734900	0.240300
H711	H71	0.587600	0.727400	0.178500
C701	C70	0.646300	0.577800	0.198500
H721	H72	0.635800	0.644800	0.177700
H731	H73	0.657800	0.537400	0.187100
H741	H74	0.667600	0.591100	0.240400
C711	C71	0.622100	0.542800	0.313300
C721	C72	0.339200	0.302900	0.531000
C731	C73	0.322800	0.190000	0.523400
C741	C74	0.297600	0.189200	0.541800
C751	C75	0.270000	0.087000	0.507200
H751	H75	0.285800	0.024300	0.532500
C761	C76	0.264200	0.078800	0.456200
H761	H76	0.235100	0.091900	0.420500
H771	H77	0.271100	0.006800	0.453900
C771	C77	0.291300	0.158100	0.460000
H781	H78	0.304500	0.125100	0.448900
H791	H79	0.275100	0.219300	0.434500
C781	C78	0.358100	0.115400	0.555100
H801	H80	0.348800	0.043900	0.551600
H811	H81	0.379400	0.135100	0.596200
H821	H82	0.369300	0.118400	0.538200
C791	C79	0.324800	0.171900	0.607200
H831	H83	0.342100	0.233800	0.628700
H841	H84	0.342200	0.110200	0.620100
H851	H85	0.307500	0.160700	0.614300
C801	C80	0.272900	0.289400	0.522900
H861	H86	0.291600	0.348900	0.545200
H871	H87	0.255500	0.282600	0.530000
H881	H88	0.255900	0.301300	0.481500
C811	C81	0.231200	0.092700	0.493100
C821	C82	0.431200	0.874000	0.628800
C831	C83	0.469600	0.936600	0.670500
H891	H89	0.461500	0.012200	0.661100
C841	C84	0.495100	0.922900	0.735500
H901	H90	0.489100	0.980700	0.749100
H911	H91	0.487900	0.855700	0.742000
C851	C85	0.540600	0.923500	0.769700
H921	H92	0.552000	0.851600	0.781600
H931	H93	0.556300	0.968100	0.804700
C861	C86	0.541500	0.970300	0.725400
C871	C87	0.540700	0.086900	0.720000
H941	H94	0.541800	0.105400	0.691700
H951	H95	0.564300	0.117300	0.757800
H961	H96	0.515400	0.114400	0.706900
C881	C88	0.502400	0.916900	0.666400
C891	C89	0.487900	0.965100	0.610000
H971	H97	0.508200	0.950000	0.608700
H981	H98	0.484800	0.041100	0.610000
H991	H99	0.461600	0.934200	0.575900
C901	C90	0.506600	0.799000	0.664900
H1001	H100	0.526400	0.784600	0.662500
H1011	H101	0.480000	0.769100	0.630900
H1021	H102	0.516200	0.767200	0.700200
C911	C91	0.579800	0.940400	0.738600
C921	C92	0.282000	0.659500	0.382900
C931	C93	0.258200	0.730700	0.328600
H1031	H103	0.228700	0.713400	0.303800
C941	C94	0.261300	0.846800	0.338500
H1041	H104	0.288600	0.867000	0.376200
H1051	H105	0.240100	0.872100	0.336900
C951	C95	0.253500	0.890100	0.284900
H1061	H106	0.228800	0.935100	0.260100
H1071	H107	0.277100	0.933500	0.299600
C961	C96	0.247800	0.800500	0.249000
C971	C97	0.198300	0.781000	0.196300
H1081	H108	0.193000	0.723300	0.171700
H1091	H109	0.185100	0.844900	0.173000
H1101	H110	0.187400	0.763000	0.212700
C981	C98	0.266800	0.700700	0.290800
C991	C99	0.250400	0.589900	0.261400
H1111	H111	0.220700	0.587300	0.235900
H1121	H112	0.263400	0.535800	0.291400
H1131	H113	0.256700	0.577400	0.238500
C1001	C100	0.313300	0.697600	0.329400
H1141	H114	0.325200	0.637200	0.355500
H1151	H115	0.325800	0.762300	0.352200
H1161	H116	0.318500	0.691500	0.304800
C1011	C101	0.262400	0.816300	0.218300
N11	N1	0.262200	0.627800	0.825200
N21	N2	0.349300	0.906900	0.839500
N31	N3	0.303900	0.873600	0.741800
N41	N4	0.331260	0.951300	0.757400
N51	N5	0.343100	0.948600	0.694200
N61	N6	0.384800	0.959600	0.727000
N71	N7	0.353700	0.858300	0.647600
N81	N8	0.456900	0.194500	0.934600
N91	N9	0.522600	0.754200	0.978800
N101	N10	0.517300	0.059500	0.871300
N111	N11	0.580860	0.010700	0.919800
N121	N12	0.572700	0.094000	0.885600
N131	N13	0.662050	0.001500	0.055890
N141	N14	0.653880	0.007200	0.006580
C1021	C102	0.681780	0.072600	0.016850
H1171	H117	0.683300	0.090900	0.989900
N151	N15	0.707190	0.107400	0.072500
C1031	C103	0.694990	0.063400	0.096630
H1181	H118	0.707300	0.074100	0.135100
N161	N16	0.461200	0.349900	0.719000
N171	N17	0.454600	0.432400	0.618900
N181	N18	0.551400	0.416200	0.586200
N191	N19	0.530200	0.243800	0.574200
N201	N20	0.556200	0.254600	0.567100
N211	N21	0.588700	0.089200	0.588900
N221	N22	0.618100	0.050600	0.593900
C1041	C104	0.639200	0.980000	0.636800
H1191	H119	0.661900	0.940400	0.649700
N231	N23	0.622800	0.974900	0.658200
C1051	C105	0.591500	0.042400	0.628600
H1201	H120	0.574400	0.054900	0.634700
N241	N24	0.639500	0.472200	0.541900
O11	O1	0.205100	0.625100	0.863400
O21	O2	0.169000	0.604300	0.770300
O31	O3	0.184100	0.105200	0.811400
O41	O4	0.198200	0.075400	0.884500
O51	O5	0.302100	0.550200	0.954700
O61	O6	0.295000	0.392700	0.920900
O71	O7	0.470190	0.340800	0.032000
O81	O8	0.469220	0.518400	0.029700
O91	O9	0.557910	0.430200	0.089600
O101	O10	0.560650	0.607800	0.091500
O111	O11	0.620000	0.461100	0.333100
O121	O12	0.612500	0.632700	0.316900
O131	O13	0.372300	0.331100	0.578600
O141	O14	0.315600	0.360900	0.486100
O151	O15	0.230300	0.064600	0.528000
O161	O16	0.199400	0.133400	0.445000
O171	O17	0.423700	0.799900	0.650800
O181	O18	0.405300	0.901400	0.574500
O191	O19	0.610000	0.912200	0.787800
O201	O20	0.583100	0.948100	0.705400
O211	O21	0.313940	0.697600	0.433800
O221	O22	0.270400	0.566200	0.378300
O231	O23	0.281600	0.902700	0.227600
O241	O24	0.256100	0.740300	0.187000
O251	O25	0.378140	0.599600	0.570300
O261	O26	0.198320	0.373800	0.840600
Cd71	Cd7	0.738100	0.006560	0.852080
Cd81	Cd8	0.737660	0.727980	0.877500
Cd91	Cd9	0.913410	0.970560	0.638510
Cd101	Cd10	0.821670	0.032320	0.480940
Cd111	Cd11	0.857550	0.221980	0.599090
Cd121	Cd12	0.146030	0.409850	0.744900
C1061	C106	0.746500	0.139700	0.770800
H1211	H121	0.723300	0.099000	0.740400
C1071	C107	0.762300	0.207500	0.757300
H1221	H122	0.750800	0.210800	0.718900
C1081	C108	0.795700	0.271600	0.801200
C1091	C109	0.811500	0.265000	0.857500
H1231	H123	0.833700	0.308100	0.887800
C1101	C110	0.793900	0.193500	0.868200
H1241	H124	0.804100	0.190500	0.905800
C1111	C111	0.816000	0.349700	0.793100
C1121	C112	0.824900	0.504800	0.711000
H1251	H125	0.795100	0.512500	0.676500
H1261	H126	0.836900	0.576000	0.724400
C1131	C113	0.825400	0.390400	0.646400
H1271	H127	0.797100	0.374800	0.616500
C1141	C114	0.889000	0.402200	0.698600
H1281	H128	0.914900	0.390600	0.712100
C1151	C115	0.858300	0.468600	0.816300
C1161	C116	0.891700	0.548200	0.853600
C1171	C117	0.916200	0.590800	0.845200
H1291	H129	0.911500	0.570800	0.812600
C1181	C118	0.947800	0.663700	0.886700
H1301	H130	0.963300	0.692300	0.880100
C1191	C119	0.934800	0.647900	0.943600
H1311	H131	0.942700	0.661800	0.979100
C1201	C120	0.901600	0.581300	0.903800
H1321	H132	0.885600	0.558100	0.910600
C1211	C121	0.991500	0.296900	0.924400
H1331	H133	0.964500	0.270600	0.899700
C1221	C122	0.000300	0.379800	0.905500
H1341	H134	0.978500	0.417100	0.871100
C1231	C123	0.040200	0.407300	0.936500
C1241	C124	0.072000	0.360600	0.991800
H1351	H135	0.099800	0.380000	0.015200
C1251	C125	0.061400	0.285000	0.010700
H1361	H136	0.082500	0.254100	0.047700
C1261	C126	0.046700	0.490800	0.909900
C1271	C127	0.119900	0.451700	0.953000
H1371	H137	0.117200	0.380900	0.962500
H1381	H138	0.125600	0.443600	0.928800
C1281	C128	0.034100	0.620300	0.857400
C1291	C129	0.009500	0.700900	0.809900
C1301	C130	0.967500	0.708600	0.774700
H1391	H139	0.954700	0.664300	0.781700
C1311	C131	0.944300	0.779800	0.729800
H1401	H140	0.915600	0.780600	0.705300
C1321	C132	0.001500	0.846300	0.753500
H1411	H141	0.013600	0.896800	0.747700
C1331	C133	0.027700	0.770600	0.798700
H1421	H142	0.055900	0.766800	0.820300
C1341	C134	0.980600	0.001100	0.626600
H1431	H143	0.982200	0.070100	0.639100
C1351	C135	0.005600	0.976500	0.617300
H1441	H144	0.022900	0.028100	0.622600
C1361	C136	0.004500	0.875000	0.600000
C1371	C137	0.977800	0.800400	0.592900
H1451	H145	0.976400	0.730300	0.581700
C1381	C138	0.953800	0.832300	0.602700
H1461	H146	0.936200	0.782400	0.597900
C1391	C139	0.027900	0.845100	0.585800
C1401	C140	0.056390	0.664000	0.536200
H1471	H147	0.065300	0.687400	0.517300
H1481	H148	0.029200	0.630300	0.507000
C1411	C141	0.066460	0.856300	0.570900
C1421	C142	0.092410	0.898100	0.562000
C1431	C143	0.084130	0.988000	0.536600
H1491	H149	0.063000	0.030900	0.526200
C1441	C144	0.106600	0.020700	0.524600
H1501	H150	0.097700	0.082700	0.502200
C1451	C145	0.150900	0.883400	0.573400
H1511	H151	0.174900	0.849400	0.587700
C1461	C146	0.131000	0.838000	0.586500
H1521	H152	0.140200	0.775500	0.608500
C1471	C147	0.818200	0.959600	0.959800
C1481	C148	0.863500	0.943900	0.011100
C1491	C149	0.888600	0.044400	0.047100
H1531	H153	0.876900	0.106300	0.021200
H1541	H154	0.887800	0.057100	0.076500
C1501	C150	0.933300	0.025800	0.077100
H1551	H155	0.943500	0.087300	0.071800
H1561	H156	0.951400	0.013500	0.119200
C1511	C151	0.931700	0.929800	0.048000
H1571	H157	0.941700	0.869800	0.075100
C1521	C152	0.886900	0.904900	0.992400
C1531	C153	0.872900	0.975700	0.942400
H1581	H158	0.844300	0.960500	0.907300
H1591	H159	0.890000	0.962100	0.935100
H1601	H160	0.875600	0.049400	0.953200
C1541	C154	0.877300	0.788900	0.972300
H1611	H161	0.885800	0.744000	0.003800
H1621	H162	0.892200	0.768500	0.962000
H1631	H163	0.847800	0.780700	0.938300
C1551	C155	0.867500	0.858700	0.049400
H1641	H164	0.851600	0.796600	0.025800
H1651	H165	0.857000	0.886700	0.065100
H1661	H166	0.896300	0.839400	0.081500
C1561	C156	0.959300	0.931200	0.035300
C1571	C157	0.676500	0.153600	0.810500
C1581	C158	0.651900	0.257200	0.797500
H1671	H167	0.624200	0.250500	0.757000
C1591	C159	0.645000	0.277200	0.835100
H1681	H168	0.665400	0.238200	0.872000
H1691	H169	0.617400	0.252500	0.815600
C1601	C160	0.648800	0.394100	0.847400
H1701	H170	0.673600	0.409200	0.888700
H1711	H171	0.624500	0.420200	0.838400
C1611	C161	0.651800	0.447100	0.805800
C1621	C162	0.672500	0.356700	0.798300
C1631	C163	0.666800	0.365400	0.745900
H1721	H172	0.637500	0.365800	0.710200
H1731	H173	0.679900	0.305400	0.745400
H1741	H174	0.679300	0.430600	0.748500
C1641	C164	0.719700	0.355700	0.852000
H1751	H175	0.731600	0.420200	0.852400
H1761	H176	0.731600	0.294900	0.849600
H1771	H177	0.725800	0.351400	0.887600
C1651	C165	0.610700	0.480200	0.748800
H1781	H178	0.592500	0.419200	0.729600
H1791	H179	0.613700	0.509900	0.724000
H1801	H180	0.599000	0.533200	0.755700
C1661	C166	0.680400	0.545400	0.837100
C1671	C167	0.074100	0.017000	0.115800
C1681	C168	0.111700	0.016400	0.183700
C1691	C169	0.123400	0.907200	0.212800
H1811	H181	0.141900	0.871000	0.211700
H1821	H182	0.098400	0.864000	0.191200
C1701	C170	0.145300	0.919400	0.277900
H1831	H183	0.134700	0.868200	0.287700
H1841	H184	0.175300	0.910700	0.305200
C1711	C171	0.134200	0.029600	0.278500
H1851	H185	0.159500	0.072500	0.299600
C1721	C172	0.099900	0.082000	0.216400
C1731	C173	0.058500	0.055000	0.187500
H1861	H186	0.056100	0.978600	0.187700
H1871	H187	0.039200	0.080300	0.147400
H1881	H188	0.052400	0.087800	0.208100
C1741	C174	0.106800	0.199600	0.218100
H1891	H189	0.134900	0.212200	0.236800
H1901	H190	0.102400	0.234900	0.240300
H1911	H191	0.087600	0.227400	0.178500
C1751	C175	0.146300	0.077800	0.198500
H1921	H192	0.135800	0.144800	0.177700
H1931	H193	0.157800	0.037400	0.187100
H1941	H194	0.167600	0.091100	0.240400
C1761	C176	0.122100	0.042800	0.313300
C1771	C177	0.839200	0.802900	0.531000
C1781	C178	0.822800	0.690000	0.523400
C1791	C179	0.797600	0.689200	0.541800
C1801	C180	0.770000	0.587000	0.507200
H1951	H195	0.785800	0.524300	0.532500
C1811	C181	0.764200	0.578800	0.456200
H1961	H196	0.735100	0.591900	0.420500
H1971	H197	0.771100	0.506800	0.453900
C1821	C182	0.791300	0.658100	0.460000
H1981	H198	0.804500	0.625100	0.448900
H1991	H199	0.775100	0.719300	0.434500
C1831	C183	0.858100	0.615400	0.555100
H2001	H200	0.848800	0.543900	0.551600
H2011	H201	0.879400	0.635100	0.596200
H2021	H202	0.869300	0.618400	0.538200
C1841	C184	0.824800	0.671900	0.607200
H2031	H203	0.842100	0.733800	0.628700
H2041	H204	0.842200	0.610200	0.620100
H2051	H205	0.807500	0.660700	0.614300
C1851	C185	0.772900	0.789400	0.522900
H2061	H206	0.791600	0.848900	0.545200
H2071	H207	0.755500	0.782600	0.530000
H2081	H208	0.755900	0.801300	0.481500
C1861	C186	0.731200	0.592700	0.493100
C1871	C187	0.931200	0.374000	0.628800
C1881	C188	0.969600	0.436600	0.670500
H2091	H209	0.961500	0.512200	0.661100
C1891	C189	0.995100	0.422900	0.735500
H2101	H210	0.989100	0.480700	0.749100
H2111	H211	0.987900	0.355700	0.742000
C1901	C190	0.040600	0.423500	0.769700
H2121	H212	0.052000	0.351600	0.781600
H2131	H213	0.056300	0.468100	0.804700
C1911	C191	0.041500	0.470300	0.725400
C1921	C192	0.040700	0.586900	0.720000
H2141	H214	0.041800	0.605400	0.691700
H2151	H215	0.064300	0.617300	0.757800
H2161	H216	0.015400	0.614400	0.706900
C1931	C193	0.002400	0.416900	0.666400
C1941	C194	0.987900	0.465100	0.610000
H2171	H217	0.008200	0.450000	0.608700
H2181	H218	0.984800	0.541100	0.610000
H2191	H219	0.961600	0.434200	0.575900
C1951	C195	0.006600	0.299000	0.664900
H2201	H220	0.026400	0.284600	0.662500
H2211	H221	0.980000	0.269100	0.630900
H2221	H222	0.016200	0.267200	0.700200
C1961	C196	0.079800	0.440400	0.738600
C1971	C197	0.782000	0.159500	0.382900
C1981	C198	0.758200	0.230700	0.328600
H2231	H223	0.728700	0.213400	0.303800
C1991	C199	0.761300	0.346800	0.338500
H2241	H224	0.788600	0.367000	0.376200
H2251	H225	0.740100	0.372100	0.336900
C2001	C200	0.753500	0.390100	0.284900
H2261	H226	0.728800	0.435100	0.260100
H2271	H227	0.777100	0.433500	0.299600
C2011	C201	0.747800	0.300500	0.249000
C2021	C202	0.698300	0.281000	0.196300
H2281	H228	0.693000	0.223300	0.171700
H2291	H229	0.685100	0.344900	0.173000
H2301	H230	0.687400	0.263000	0.212700
C2031	C203	0.766800	0.200700	0.290800
C2041	C204	0.750400	0.089900	0.261400
H2311	H231	0.720700	0.087300	0.235900
H2321	H232	0.763400	0.035800	0.291400
H2331	H233	0.756700	0.077400	0.238500
C2051	C205	0.813300	0.197600	0.329400
H2341	H234	0.825200	0.137200	0.355500
H2351	H235	0.825800	0.262300	0.352200
H2361	H236	0.818500	0.191500	0.304800
C2061	C206	0.762400	0.316300	0.218300
N251	N25	0.762200	0.127800	0.825200
N261	N26	0.849300	0.406900	0.839500
N271	N27	0.803900	0.373600	0.741800
N281	N28	0.831260	0.451300	0.757400
N291	N29	0.843100	0.448600	0.694200
N301	N30	0.884800	0.459600	0.727000
N311	N31	0.853700	0.358300	0.647600
N321	N32	0.956900	0.694500	0.934600
N331	N33	0.022600	0.254200	0.978800
N341	N34	0.017300	0.559500	0.871300
N351	N35	0.080860	0.510700	0.919800
N361	N36	0.072700	0.594000	0.885600
N371	N37	0.162050	0.501500	0.055890
N381	N38	0.153880	0.507200	0.006580
C2071	C207	0.181780	0.572600	0.016850
H2371	H237	0.183300	0.590900	0.989900
N391	N39	0.207190	0.607400	0.072500
C2081	C208	0.194990	0.563400	0.096630
H2381	H238	0.207300	0.574100	0.135100
N401	N40	0.961200	0.849900	0.719000
N411	N41	0.954600	0.932400	0.618900
N421	N42	0.051400	0.916200	0.586200
N431	N43	0.030200	0.743800	0.574200
N441	N44	0.056200	0.754600	0.567100
N451	N45	0.088700	0.589200	0.588900
N461	N46	0.118100	0.550600	0.593900
C2091	C209	0.139200	0.480000	0.636800
H2391	H239	0.161900	0.440400	0.649700
N471	N47	0.122800	0.474900	0.658200
C2101	C210	0.091500	0.542400	0.628600
H2401	H240	0.074400	0.554900	0.634700
N481	N48	0.139500	0.972200	0.541900
O271	O27	0.705100	0.125100	0.863400
O281	O28	0.669000	0.104300	0.770300
O291	O29	0.684100	0.605200	0.811400
O301	O30	0.698200	0.575400	0.884500
O311	O31	0.802100	0.050200	0.954700
O321	O32	0.795000	0.892700	0.920900
O331	O33	0.970190	0.840800	0.032000
O341	O34	0.969220	0.018400	0.029700
O351	O35	0.057910	0.930200	0.089600
O361	O36	0.060650	0.107800	0.091500
O371	O37	0.120000	0.961100	0.333100
O381	O38	0.112500	0.132700	0.316900
O391	O39	0.872300	0.831100	0.578600
O401	O40	0.815600	0.860900	0.486100
O411	O41	0.730300	0.564600	0.528000
O421	O42	0.699400	0.633400	0.445000
O431	O43	0.923700	0.299900	0.650800
O441	O44	0.905300	0.401400	0.574500
O451	O45	0.110000	0.412200	0.787800
O461	O46	0.083100	0.448100	0.705400
O471	O47	0.813940	0.197600	0.433800
O481	O48	0.770400	0.066200	0.378300
O491	O49	0.781600	0.402700	0.227600
O501	O50	0.756100	0.240300	0.187000
O511	O51	0.878140	0.099600	0.570300
O521	O52	0.698320	0.873800	0.840600
Cd131	Cd13	0.761900	0.506560	0.147920
Cd141	Cd14	0.762340	0.227980	0.122500
Cd151	Cd15	0.586590	0.470560	0.361490
Cd161	Cd16	0.678330	0.532320	0.519060
Cd171	Cd17	0.642450	0.721980	0.400910
Cd181	Cd18	0.353970	0.909850	0.255100
C2111	C211	0.753500	0.639700	0.229200
H2411	H241	0.776700	0.599000	0.259600
C2121	C212	0.737700	0.707500	0.242700
H2421	H242	0.749200	0.710800	0.281100
C2131	C213	0.704300	0.771600	0.198800
C2141	C214	0.688500	0.765000	0.142500
H2431	H243	0.666300	0.808100	0.112200
C2151	C215	0.706100	0.693500	0.131800
H2441	H244	0.695900	0.690500	0.094200
C2161	C216	0.684000	0.849700	0.206900
C2171	C217	0.675100	0.004800	0.289000
H2451	H245	0.704900	0.012500	0.323500
H2461	H246	0.663100	0.076000	0.275600
C2181	C218	0.674600	0.890400	0.353600
H2471	H247	0.702900	0.874800	0.383500
C2191	C219	0.611000	0.902200	0.301400
H2481	H248	0.585100	0.890600	0.287900
C2201	C220	0.641700	0.968600	0.183700
C2211	C221	0.608300	0.048200	0.146400
C2221	C222	0.583800	0.090800	0.154800
H2491	H249	0.588500	0.070800	0.187400
C2231	C223	0.552200	0.163700	0.113300
H2501	H250	0.536700	0.192300	0.119900
C2241	C224	0.565200	0.147900	0.056400
H2511	H251	0.557300	0.161800	0.020900
C2251	C225	0.598400	0.081300	0.096200
H2521	H252	0.614400	0.058100	0.089400
C2261	C226	0.508500	0.796900	0.075600
H2531	H253	0.535500	0.770600	0.100300
C2271	C227	0.499700	0.879800	0.094500
H2541	H254	0.521500	0.917100	0.128900
C2281	C228	0.459800	0.907300	0.063500
C2291	C229	0.428000	0.860600	0.008200
H2551	H255	0.400200	0.880000	0.984800
C2301	C230	0.438600	0.785000	0.989300
H2561	H256	0.417500	0.754100	0.952300
C2311	C231	0.453300	0.990800	0.090100
C2321	C232	0.380100	0.951700	0.047000
H2571	H257	0.382800	0.880900	0.037500
H2581	H258	0.374400	0.943600	0.071200
C2331	C233	0.465900	0.120300	0.142600
C2341	C234	0.490500	0.200900	0.190100
C2351	C235	0.532500	0.208600	0.225300
H2591	H259	0.545300	0.164300	0.218300
C2361	C236	0.555700	0.279800	0.270200
H2601	H260	0.584400	0.280600	0.294700
C2371	C237	0.498500	0.346300	0.246500
H2611	H261	0.486400	0.396800	0.252300
C2381	C238	0.472300	0.270600	0.201300
H2621	H262	0.444100	0.266800	0.179700
C2391	C239	0.519400	0.501100	0.373400
H2631	H263	0.517800	0.570100	0.360900
C2401	C240	0.494400	0.476500	0.382700
H2641	H264	0.477100	0.528100	0.377400
C2411	C241	0.495500	0.375000	0.400000
C2421	C242	0.522200	0.300400	0.407100
H2651	H265	0.523600	0.230300	0.418300
C2431	C243	0.546200	0.332300	0.397300
H2661	H266	0.563800	0.282400	0.402100
C2441	C244	0.472100	0.345100	0.414200
C2451	C245	0.443610	0.164000	0.463800
H2671	H267	0.434700	0.187400	0.482700
H2681	H268	0.470800	0.130300	0.493000
C2461	C246	0.433540	0.356300	0.429100
C2471	C247	0.407590	0.398100	0.438000
C2481	C248	0.415870	0.488000	0.463400
H2691	H269	0.437000	0.530900	0.473800
C2491	C249	0.393400	0.520700	0.475400
H2701	H270	0.402300	0.582700	0.497800
C2501	C250	0.349100	0.383400	0.426600
H2711	H271	0.325100	0.349400	0.412300
C2511	C251	0.369000	0.338000	0.413500
H2721	H272	0.359800	0.275500	0.391500
C2521	C252	0.681800	0.459600	0.040200
C2531	C253	0.636500	0.443900	0.988900
C2541	C254	0.611400	0.544400	0.952900
H2731	H273	0.623100	0.606300	0.978800
H2741	H274	0.612200	0.557100	0.923500
C2551	C255	0.566700	0.525800	0.922900
H2751	H275	0.556500	0.587300	0.928200
H2761	H276	0.548600	0.513500	0.880800
C2561	C256	0.568300	0.429800	0.952000
H2771	H277	0.558300	0.369800	0.924900
C2571	C257	0.613100	0.404900	0.007600
C2581	C258	0.627100	0.475700	0.057600
H2781	H278	0.655700	0.460500	0.092700
H2791	H279	0.610000	0.462100	0.064900
H2801	H280	0.624400	0.549400	0.046800
C2591	C259	0.622700	0.288900	0.027700
H2811	H281	0.614200	0.244000	0.996200
H2821	H282	0.607800	0.268500	0.038000
H2831	H283	0.652200	0.280700	0.061700
C2601	C260	0.632500	0.358700	0.950600
H2841	H284	0.648400	0.296600	0.974200
H2851	H285	0.643000	0.386700	0.934900
H2861	H286	0.603700	0.339400	0.918500
C2611	C261	0.540700	0.431200	0.964700
C2621	C262	0.823500	0.653600	0.189500
C2631	C263	0.848100	0.757200	0.202500
H2871	H287	0.875800	0.750500	0.243000
C2641	C264	0.855000	0.777200	0.164900
H2881	H288	0.834600	0.738200	0.128000
H2891	H289	0.882600	0.752500	0.184400
C2651	C265	0.851200	0.894100	0.152600
H2901	H290	0.826400	0.909200	0.111300
H2911	H291	0.875500	0.920200	0.161600
C2661	C266	0.848200	0.947100	0.194200
C2671	C267	0.827500	0.856700	0.201700
C2681	C268	0.833200	0.865400	0.254100
H2921	H292	0.862500	0.865800	0.289800
H2931	H293	0.820100	0.805400	0.254600
H2941	H294	0.820700	0.930600	0.251500
C2691	C269	0.780300	0.855700	0.148000
H2951	H295	0.768400	0.920200	0.147600
H2961	H296	0.768400	0.794900	0.150400
H2971	H297	0.774200	0.851400	0.112400
C2701	C270	0.889300	0.980200	0.251200
H2981	H298	0.907500	0.919200	0.270400
H2991	H299	0.886300	0.009900	0.276000
H3001	H300	0.901000	0.033200	0.244300
C2711	C271	0.819600	0.045400	0.162900
C2721	C272	0.425900	0.517000	0.884200
C2731	C273	0.388300	0.516400	0.816300
C2741	C274	0.376600	0.407200	0.787200
H3011	H301	0.358100	0.371000	0.788300
H3021	H302	0.401600	0.364000	0.808800
C2751	C275	0.354700	0.419400	0.722100
H3031	H303	0.365300	0.368200	0.712300
H3041	H304	0.324700	0.410700	0.694800
C2761	C276	0.365800	0.529600	0.721500
H3051	H305	0.340500	0.572500	0.700400
C2771	C277	0.400100	0.582000	0.783600
C2781	C278	0.441500	0.555000	0.812500
H3061	H306	0.443900	0.478600	0.812300
H3071	H307	0.460800	0.580300	0.852600
H3081	H308	0.447600	0.587800	0.791900
C2791	C279	0.393200	0.699600	0.781900
H3091	H309	0.365100	0.712200	0.763200
H3101	H310	0.397600	0.734900	0.759700
H3111	H311	0.412400	0.727400	0.821500
C2801	C280	0.353700	0.577800	0.801500
H3121	H312	0.364200	0.644800	0.822300
H3131	H313	0.342200	0.537400	0.812900
H3141	H314	0.332400	0.591100	0.759600
C2811	C281	0.377900	0.542800	0.686700
C2821	C282	0.660800	0.302900	0.469000
C2831	C283	0.677200	0.190000	0.476600
C2841	C284	0.702400	0.189200	0.458200
C2851	C285	0.730000	0.087000	0.492800
H3151	H315	0.714200	0.024300	0.467500
C2861	C286	0.735800	0.078800	0.543800
H3161	H316	0.764900	0.091900	0.579500
H3171	H317	0.728900	0.006800	0.546100
C2871	C287	0.708700	0.158100	0.540000
H3181	H318	0.695500	0.125100	0.551100
H3191	H319	0.724900	0.219300	0.565500
C2881	C288	0.641900	0.115400	0.444900
H3201	H320	0.651200	0.043900	0.448400
H3211	H321	0.620600	0.135100	0.403800
H3221	H322	0.630700	0.118400	0.461800
C2891	C289	0.675200	0.171900	0.392800
H3231	H323	0.657900	0.233800	0.371300
H3241	H324	0.657800	0.110200	0.379900
H3251	H325	0.692500	0.160700	0.385700
C2901	C290	0.727100	0.289400	0.477100
H3261	H326	0.708400	0.348900	0.454800
H3271	H327	0.744500	0.282600	0.470000
H3281	H328	0.744100	0.301300	0.518500
C2911	C291	0.768800	0.092700	0.506900
C2921	C292	0.568800	0.874000	0.371200
C2931	C293	0.530400	0.936600	0.329500
H3291	H329	0.538500	0.012200	0.338900
C2941	C294	0.504900	0.922900	0.264500
H3301	H330	0.510900	0.980700	0.250900
H3311	H331	0.512100	0.855700	0.258000
C2951	C295	0.459400	0.923500	0.230300
H3321	H332	0.448000	0.851600	0.218400
H3331	H333	0.443700	0.968100	0.195300
C2961	C296	0.458500	0.970300	0.274600
C2971	C297	0.459300	0.086900	0.280000
H3341	H334	0.458200	0.105400	0.308300
H3351	H335	0.435700	0.117300	0.242200
H3361	H336	0.484600	0.114400	0.293100
C2981	C298	0.497600	0.916900	0.333600
C2991	C299	0.512100	0.965100	0.390000
H3371	H337	0.491800	0.950000	0.391300
H3381	H338	0.515200	0.041100	0.390000
H3391	H339	0.538400	0.934200	0.424100
C3001	C300	0.493400	0.799000	0.335100
H3401	H340	0.473600	0.784600	0.337500
H3411	H341	0.520000	0.769100	0.369100
H3421	H342	0.483800	0.767200	0.299800
C3011	C301	0.420200	0.940400	0.261400
C3021	C302	0.718000	0.659500	0.617100
C3031	C303	0.741800	0.730700	0.671400
H3431	H343	0.771300	0.713400	0.696200
C3041	C304	0.738700	0.846800	0.661500
H3441	H344	0.711400	0.867000	0.623800
H3451	H345	0.759900	0.872100	0.663100
C3051	C305	0.746500	0.890100	0.715100
H3461	H346	0.771200	0.935100	0.739900
H3471	H347	0.722900	0.933500	0.700400
C3061	C306	0.752200	0.800500	0.751000
C3071	C307	0.801700	0.781000	0.803700
H3481	H348	0.807000	0.723300	0.828300
H3491	H349	0.814900	0.844900	0.827000
H3501	H350	0.812600	0.763000	0.787300
C3081	C308	0.733200	0.700700	0.709200
C3091	C309	0.749600	0.589900	0.738600
H3511	H351	0.779300	0.587300	0.764100
H3521	H352	0.736600	0.535800	0.708600
H3531	H353	0.743300	0.577400	0.761500
C3101	C310	0.686700	0.697600	0.670600
H3541	H354	0.674800	0.637200	0.644500
H3551	H355	0.674200	0.762300	0.647800
H3561	H356	0.681500	0.691500	0.695200
C3111	C311	0.737600	0.816300	0.781700
N491	N49	0.737800	0.627800	0.174800
N501	N50	0.650700	0.906900	0.160500
N511	N51	0.696100	0.873600	0.258200
N521	N52	0.668740	0.951300	0.242600
N531	N53	0.656900	0.948600	0.305800
N541	N54	0.615200	0.959600	0.273000
N551	N55	0.646300	0.858300	0.352400
N561	N56	0.543100	0.194500	0.065400
N571	N57	0.477400	0.754200	0.021200
N581	N58	0.482700	0.059500	0.128700
N591	N59	0.419140	0.010700	0.080200
N601	N60	0.427300	0.094000	0.114400
N611	N61	0.337950	0.001500	0.944110
N621	N62	0.346120	0.007200	0.993420
C3121	C312	0.318220	0.072600	0.983150
H3571	H357	0.316700	0.090900	0.010100
N631	N63	0.292810	0.107400	0.927500
C3131	C313	0.305010	0.063400	0.903370
H3581	H358	0.292700	0.074100	0.864900
N641	N64	0.538800	0.349900	0.281000
N651	N65	0.545400	0.432400	0.381100
N661	N66	0.448600	0.416200	0.413800
N671	N67	0.469800	0.243800	0.425800
N681	N68	0.443800	0.254600	0.432900
N691	N69	0.411300	0.089200	0.411100
N701	N70	0.381900	0.050600	0.406100
C3141	C314	0.360800	0.980000	0.363200
H3591	H359	0.338100	0.940400	0.350300
N711	N71	0.377200	0.974900	0.341800
C3151	C315	0.408500	0.042400	0.371400
H3601	H360	0.425600	0.054900	0.365300
N721	N72	0.360500	0.472200	0.458100
O531	O53	0.794900	0.625100	0.136600
O541	O54	0.831000	0.604300	0.229700
O551	O55	0.815900	0.105200	0.188600
O561	O56	0.801800	0.075400	0.115500
O571	O57	0.697900	0.550200	0.045300
O581	O58	0.705000	0.392700	0.079100
O591	O59	0.529810	0.340800	0.968000
O601	O60	0.530780	0.518400	0.970300
O611	O61	0.442090	0.430200	0.910400
O621	O62	0.439350	0.607800	0.908500
O631	O63	0.380000	0.461100	0.666900
O641	O64	0.387500	0.632700	0.683100
O651	O65	0.627700	0.331100	0.421400
O661	O66	0.684400	0.360900	0.513900
O671	O67	0.769700	0.064600	0.472000
O681	O68	0.800600	0.133400	0.555000
O691	O69	0.576300	0.799900	0.349200
O701	O70	0.594700	0.901400	0.425500
O711	O71	0.390000	0.912200	0.212200
O721	O72	0.416900	0.948100	0.294600
O731	O73	0.686060	0.697600	0.566200
O741	O74	0.729600	0.566200	0.621700
O751	O75	0.718400	0.902700	0.772400
O761	O76	0.743900	0.740300	0.813000
O771	O77	0.621860	0.599600	0.429700
O781	O78	0.801680	0.373800	0.159400
Cd191	Cd19	0.261900	0.006560	0.147920
Cd201	Cd20	0.262340	0.727980	0.122500
Cd211	Cd21	0.086590	0.970560	0.361490
Cd221	Cd22	0.178330	0.032320	0.519060
Cd231	Cd23	0.142450	0.221980	0.400910
Cd241	Cd24	0.853970	0.409850	0.255100
C3161	C316	0.253500	0.139700	0.229200
H3611	H361	0.276700	0.099000	0.259600
C3171	C317	0.237700	0.207500	0.242700
H3621	H362	0.249200	0.210800	0.281100
C3181	C318	0.204300	0.271600	0.198800
C3191	C319	0.188500	0.265000	0.142500
H3631	H363	0.166300	0.308100	0.112200
C3201	C320	0.206100	0.193500	0.131800
H3641	H364	0.195900	0.190500	0.094200
C3211	C321	0.184000	0.349700	0.206900
C3221	C322	0.175100	0.504800	0.289000
H3651	H365	0.204900	0.512500	0.323500
H3661	H366	0.163100	0.576000	0.275600
C3231	C323	0.174600	0.390400	0.353600
H3671	H367	0.202900	0.374800	0.383500
C3241	C324	0.111000	0.402200	0.301400
H3681	H368	0.085100	0.390600	0.287900
C3251	C325	0.141700	0.468600	0.183700
C3261	C326	0.108300	0.548200	0.146400
C3271	C327	0.083800	0.590800	0.154800
H3691	H369	0.088500	0.570800	0.187400
C3281	C328	0.052200	0.663700	0.113300
H3701	H370	0.036700	0.692300	0.119900
C3291	C329	0.065200	0.647900	0.056400
H3711	H371	0.057300	0.661800	0.020900
C3301	C330	0.098400	0.581300	0.096200
H3721	H372	0.114400	0.558100	0.089400
C3311	C331	0.008500	0.296900	0.075600
H3731	H373	0.035500	0.270600	0.100300
C3321	C332	0.999700	0.379800	0.094500
H3741	H374	0.021500	0.417100	0.128900
C3331	C333	0.959800	0.407300	0.063500
C3341	C334	0.928000	0.360600	0.008200
H3751	H375	0.900200	0.380000	0.984800
C3351	C335	0.938600	0.285000	0.989300
H3761	H376	0.917500	0.254100	0.952300
C3361	C336	0.953300	0.490800	0.090100
C3371	C337	0.880100	0.451700	0.047000
H3771	H377	0.882800	0.380900	0.037500
H3781	H378	0.874400	0.443600	0.071200
C3381	C338	0.965900	0.620300	0.142600
C3391	C339	0.990500	0.700900	0.190100
C3401	C340	0.032500	0.708600	0.225300
H3791	H379	0.045300	0.664300	0.218300
C3411	C341	0.055700	0.779800	0.270200
H3801	H380	0.084400	0.780600	0.294700
C3421	C342	0.998500	0.846300	0.246500
H3811	H381	0.986400	0.896800	0.252300
C3431	C343	0.972300	0.770600	0.201300
H3821	H382	0.944100	0.766800	0.179700
C3441	C344	0.019400	0.001100	0.373400
H3831	H383	0.017800	0.070100	0.360900
C3451	C345	0.994400	0.976500	0.382700
H3841	H384	0.977100	0.028100	0.377400
C3461	C346	0.995500	0.875000	0.400000
C3471	C347	0.022200	0.800400	0.407100
H3851	H385	0.023600	0.730300	0.418300
C3481	C348	0.046200	0.832300	0.397300
H3861	H386	0.063800	0.782400	0.402100
C3491	C349	0.972100	0.845100	0.414200
C3501	C350	0.943610	0.664000	0.463800
H3871	H387	0.934700	0.687400	0.482700
H3881	H388	0.970800	0.630300	0.493000
C3511	C351	0.933540	0.856300	0.429100
C3521	C352	0.907590	0.898100	0.438000
C3531	C353	0.915870	0.988000	0.463400
H3891	H389	0.937000	0.030900	0.473800
C3541	C354	0.893400	0.020700	0.475400
H3901	H390	0.902300	0.082700	0.497800
C3551	C355	0.849100	0.883400	0.426600
H3911	H391	0.825100	0.849400	0.412300
C3561	C356	0.869000	0.838000	0.413500
H3921	H392	0.859800	0.775500	0.391500
C3571	C357	0.181800	0.959600	0.040200
C3581	C358	0.136500	0.943900	0.988900
C3591	C359	0.111400	0.044400	0.952900
H3931	H393	0.123100	0.106300	0.978800
H3941	H394	0.112200	0.057100	0.923500
C3601	C360	0.066700	0.025800	0.922900
H3951	H395	0.056500	0.087300	0.928200
H3961	H396	0.048600	0.013500	0.880800
C3611	C361	0.068300	0.929800	0.952000
H3971	H397	0.058300	0.869800	0.924900
C3621	C362	0.113100	0.904900	0.007600
C3631	C363	0.127100	0.975700	0.057600
H3981	H398	0.155700	0.960500	0.092700
H3991	H399	0.110000	0.962100	0.064900
H4001	H400	0.124400	0.049400	0.046800
C3641	C364	0.122700	0.788900	0.027700
H4011	H401	0.114200	0.744000	0.996200
H4021	H402	0.107800	0.768500	0.038000
H4031	H403	0.152200	0.780700	0.061700
C3651	C365	0.132500	0.858700	0.950600
H4041	H404	0.148400	0.796600	0.974200
H4051	H405	0.143000	0.886700	0.934900
H4061	H406	0.103700	0.839400	0.918500
C3661	C366	0.040700	0.931200	0.964700
C3671	C367	0.323500	0.153600	0.189500
C3681	C368	0.348100	0.257200	0.202500
H4071	H407	0.375800	0.250500	0.243000
C3691	C369	0.355000	0.277200	0.164900
H4081	H408	0.334600	0.238200	0.128000
H4091	H409	0.382600	0.252500	0.184400
C3701	C370	0.351200	0.394100	0.152600
H4101	H410	0.326400	0.409200	0.111300
H4111	H411	0.375500	0.420200	0.161600
C3711	C371	0.348200	0.447100	0.194200
C3721	C372	0.327500	0.356700	0.201700
C3731	C373	0.333200	0.365400	0.254100
H4121	H412	0.362500	0.365800	0.289800
H4131	H413	0.320100	0.305400	0.254600
H4141	H414	0.320700	0.430600	0.251500
C3741	C374	0.280300	0.355700	0.148000
H4151	H415	0.268400	0.420200	0.147600
H4161	H416	0.268400	0.294900	0.150400
H4171	H417	0.274200	0.351400	0.112400
C3751	C375	0.389300	0.480200	0.251200
H4181	H418	0.407500	0.419200	0.270400
H4191	H419	0.386300	0.509900	0.276000
H4201	H420	0.401000	0.533200	0.244300
C3761	C376	0.319600	0.545400	0.162900
C3771	C377	0.925900	0.017000	0.884200
C3781	C378	0.888300	0.016400	0.816300
C3791	C379	0.876600	0.907200	0.787200
H4211	H421	0.858100	0.871000	0.788300
H4221	H422	0.901600	0.864000	0.808800
C3801	C380	0.854700	0.919400	0.722100
H4231	H423	0.865300	0.868200	0.712300
H4241	H424	0.824700	0.910700	0.694800
C3811	C381	0.865800	0.029600	0.721500
H4251	H425	0.840500	0.072500	0.700400
C3821	C382	0.900100	0.082000	0.783600
C3831	C383	0.941500	0.055000	0.812500
H4261	H426	0.943900	0.978600	0.812300
H4271	H427	0.960800	0.080300	0.852600
H4281	H428	0.947600	0.087800	0.791900
C3841	C384	0.893200	0.199600	0.781900
H4291	H429	0.865100	0.212200	0.763200
H4301	H430	0.897600	0.234900	0.759700
H4311	H431	0.912400	0.227400	0.821500
C3851	C385	0.853700	0.077800	0.801500
H4321	H432	0.864200	0.144800	0.822300
H4331	H433	0.842200	0.037400	0.812900
H4341	H434	0.832400	0.091100	0.759600
C3861	C386	0.877900	0.042800	0.686700
C3871	C387	0.160800	0.802900	0.469000
C3881	C388	0.177200	0.690000	0.476600
C3891	C389	0.202400	0.689200	0.458200
C3901	C390	0.230000	0.587000	0.492800
H4351	H435	0.214200	0.524300	0.467500
C3911	C391	0.235800	0.578800	0.543800
H4361	H436	0.264900	0.591900	0.579500
H4371	H437	0.228900	0.506800	0.546100
C3921	C392	0.208700	0.658100	0.540000
H4381	H438	0.195500	0.625100	0.551100
H4391	H439	0.224900	0.719300	0.565500
C3931	C393	0.141900	0.615400	0.444900
H4401	H440	0.151200	0.543900	0.448400
H4411	H441	0.120600	0.635100	0.403800
H4421	H442	0.130700	0.618400	0.461800
C3941	C394	0.175200	0.671900	0.392800
H4431	H443	0.157900	0.733800	0.371300
H4441	H444	0.157800	0.610200	0.379900
H4451	H445	0.192500	0.660700	0.385700
C3951	C395	0.227100	0.789400	0.477100
H4461	H446	0.208400	0.848900	0.454800
H4471	H447	0.244500	0.782600	0.470000
H4481	H448	0.244100	0.801300	0.518500
C3961	C396	0.268800	0.592700	0.506900
C3971	C397	0.068800	0.374000	0.371200
C3981	C398	0.030400	0.436600	0.329500
H4491	H449	0.038500	0.512200	0.338900
C3991	C399	0.004900	0.422900	0.264500
H4501	H450	0.010900	0.480700	0.250900
H4511	H451	0.012100	0.355700	0.258000
C4001	C400	0.959400	0.423500	0.230300
H4521	H452	0.948000	0.351600	0.218400
H4531	H453	0.943700	0.468100	0.195300
C4011	C401	0.958500	0.470300	0.274600
C4021	C402	0.959300	0.586900	0.280000
H4541	H454	0.958200	0.605400	0.308300
H4551	H455	0.935700	0.617300	0.242200
H4561	H456	0.984600	0.614400	0.293100
C4031	C403	0.997600	0.416900	0.333600
C4041	C404	0.012100	0.465100	0.390000
H4571	H457	0.991800	0.450000	0.391300
H4581	H458	0.015200	0.541100	0.390000
H4591	H459	0.038400	0.434200	0.424100
C4051	C405	0.993400	0.299000	0.335100
H4601	H460	0.973600	0.284600	0.337500
H4611	H461	0.020000	0.269100	0.369100
H4621	H462	0.983800	0.267200	0.299800
C4061	C406	0.920200	0.440400	0.261400
C4071	C407	0.218000	0.159500	0.617100
C4081	C408	0.241800	0.230700	0.671400
H4631	H463	0.271300	0.213400	0.696200
C4091	C409	0.238700	0.346800	0.661500
H4641	H464	0.211400	0.367000	0.623800
H4651	H465	0.259900	0.372100	0.663100
C4101	C410	0.246500	0.390100	0.715100
H4661	H466	0.271200	0.435100	0.739900
H4671	H467	0.222900	0.433500	0.700400
C4111	C411	0.252200	0.300500	0.751000
C4121	C412	0.301700	0.281000	0.803700
H4681	H468	0.307000	0.223300	0.828300
H4691	H469	0.314900	0.344900	0.827000
H4701	H470	0.312600	0.263000	0.787300
C4131	C413	0.233200	0.200700	0.709200
C4141	C414	0.249600	0.089900	0.738600
H4711	H471	0.279300	0.087300	0.764100
H4721	H472	0.236600	0.035800	0.708600
H4731	H473	0.243300	0.077400	0.761500
C4151	C415	0.186700	0.197600	0.670600
H4741	H474	0.174800	0.137200	0.644500
H4751	H475	0.174200	0.262300	0.647800
H4761	H476	0.181500	0.191500	0.695200
C4161	C416	0.237600	0.316300	0.781700
N731	N73	0.237800	0.127800	0.174800
N741	N74	0.150700	0.406900	0.160500
N751	N75	0.196100	0.373600	0.258200
N761	N76	0.168740	0.451300	0.242600
N771	N77	0.156900	0.448600	0.305800
N781	N78	0.115200	0.459600	0.273000
N791	N79	0.146300	0.358300	0.352400
N801	N80	0.043100	0.694500	0.065400
N811	N81	0.977400	0.254200	0.021200
N821	N82	0.982700	0.559500	0.128700
N831	N83	0.919140	0.510700	0.080200
N841	N84	0.927300	0.594000	0.114400
N851	N85	0.837950	0.501500	0.944110
N861	N86	0.846120	0.507200	0.993420
C4171	C417	0.818220	0.572600	0.983150
H4771	H477	0.816700	0.590900	0.010100
N871	N87	0.792810	0.607400	0.927500
C4181	C418	0.805010	0.563400	0.903370
H4781	H478	0.792700	0.574100	0.864900
N881	N88	0.038800	0.849900	0.281000
N891	N89	0.045400	0.932400	0.381100
N901	N90	0.948600	0.916200	0.413800
N911	N91	0.969800	0.743800	0.425800
N921	N92	0.943800	0.754600	0.432900
N931	N93	0.911300	0.589200	0.411100
N941	N94	0.881900	0.550600	0.406100
C4191	C419	0.860800	0.480000	0.363200
H4791	H479	0.838100	0.440400	0.350300
N951	N95	0.877200	0.474900	0.341800
C4201	C420	0.908500	0.542400	0.371400
H4801	H480	0.925600	0.554900	0.365300
N961	N96	0.860500	0.972200	0.458100
O791	O79	0.294900	0.125100	0.136600
O801	O80	0.331000	0.104300	0.229700
O811	O81	0.315900	0.605200	0.188600
O821	O82	0.301800	0.575400	0.115500
O831	O83	0.197900	0.050200	0.045300
O841	O84	0.205000	0.892700	0.079100
O851	O85	0.029810	0.840800	0.968000
O861	O86	0.030780	0.018400	0.970300
O871	O87	0.942090	0.930200	0.910400
O881	O88	0.939350	0.107800	0.908500
O891	O89	0.880000	0.961100	0.666900
O901	O90	0.887500	0.132700	0.683100
O911	O91	0.127700	0.831100	0.421400
O921	O92	0.184400	0.860900	0.513900
O931	O93	0.269700	0.564600	0.472000
O941	O94	0.300600	0.633400	0.555000
O951	O95	0.076300	0.299900	0.349200
O961	O96	0.094700	0.401400	0.425500
O971	O97	0.890000	0.412200	0.212200
O981	O98	0.916900	0.448100	0.294600
O991	O99	0.186060	0.197600	0.566200
O1001	O100	0.229600	0.066200	0.621700
O1011	O101	0.218400	0.402700	0.772400
O1021	O102	0.243900	0.240300	0.813000
O1031	O103	0.121860	0.099600	0.429700
O1041	O104	0.301680	0.873800	0.159400
Cd251	Cd25	0.500000	0.342740	0.000000
Cd261	Cd26	0.500000	0.603080	0.000000
Cd271	Cd27	0.000000	0.842740	0.000000
Cd281	Cd28	0.000000	0.103080	0.000000
