data_j_PM
_symmetry_space_group_name_H-M	'P1'
_cell_length_a	11.446000
_cell_length_b	19.909000
_cell_length_c	11.820000
_cell_angle_alpha	90.000000
_cell_angle_beta	106.098000
_cell_angle_gamma	90.000000
_symmetry_Int_Tables_number 1

loop_
_symmetry_equiv_pos_as_xyz
'x,y,z'

loop_
_atom_site_label
_atom_site_type_symbol
_atom_site_fract_x
_atom_site_fract_y
_atom_site_fract_z
C11	C1	0.024200	0.214600	0.327200
C21	C2	0.030700	0.289100	0.349100
C31	C3	0.030500	0.313500	0.458600
H11	H1	0.026800	0.283700	0.518100
C41	C4	0.035700	0.381800	0.480400
C51	C5	0.037700	0.426700	0.392100
H21	H2	0.036900	0.472800	0.405200
C61	C6	0.040900	0.402000	0.283600
C71	C7	0.036500	0.334000	0.261200
H31	H3	0.037300	0.318300	0.187300
C81	C8	0.039700	0.450200	0.186900
C91	C9	0.233900	0.051700	0.333400
H41	H4	0.177400	0.031700	0.270300
C101	C10	0.351100	0.054000	0.327700
H51	H5	0.370300	0.037700	0.261400
C111	C11	0.402700	0.103700	0.510700
H61	H6	0.458400	0.122400	0.575800
C121	C12	0.282800	0.099900	0.507200
H71	H7	0.261700	0.116200	0.572600
C131	C13	0.658700	0.113200	0.502100
H81	H8	0.637500	0.135500	0.562700
C141	C14	0.440700	0.080200	0.418900
C151	C15	0.574200	0.081700	0.417600
C161	C16	0.608200	0.051100	0.328800
H91	H9	0.551300	0.028700	0.269200
C171	C17	0.726800	0.054000	0.328900
H101	H10	0.748700	0.034800	0.266000
C181	C18	0.776800	0.112100	0.497800
H111	H11	0.835200	0.133300	0.557700
N11	N1	0.812300	0.082350	0.412800
N21	N2	0.192600	0.075190	0.420400
O11	O1	0.004600	0.178850	0.406800
O21	O2	0.036700	0.192760	0.235200
O31	O3	0.052000	0.428010	0.092100
O41	O4	0.028200	0.511910	0.207500
O51	O5	0.035900	0.406870	0.587500
Zn11	Zn1	0.004600	0.081330	0.417170
C191	C19	0.975800	0.714600	0.172800
C201	C20	0.969300	0.789100	0.150900
C211	C21	0.969500	0.813500	0.041400
H121	H12	0.973200	0.783700	0.981900
C221	C22	0.964300	0.881800	0.019600
C231	C23	0.962300	0.926700	0.107900
H131	H13	0.963100	0.972800	0.094800
C241	C24	0.959100	0.902000	0.216400
C251	C25	0.963500	0.834000	0.238800
H141	H14	0.962700	0.818300	0.312700
C261	C26	0.960300	0.950200	0.313100
C271	C27	0.766100	0.551700	0.166600
H151	H15	0.822600	0.531700	0.229700
C281	C28	0.648900	0.554000	0.172300
H161	H16	0.629700	0.537700	0.238600
C291	C29	0.597300	0.603700	0.989300
H171	H17	0.541600	0.622400	0.924200
C301	C30	0.717200	0.599900	0.992800
H181	H18	0.738300	0.616200	0.927400
C311	C31	0.341300	0.613200	0.997900
H191	H19	0.362500	0.635500	0.937300
C321	C32	0.559300	0.580200	0.081100
C331	C33	0.425800	0.581700	0.082400
C341	C34	0.391800	0.551100	0.171200
H201	H20	0.448700	0.528700	0.230800
C351	C35	0.273200	0.554000	0.171100
H211	H21	0.251300	0.534800	0.234000
C361	C36	0.223200	0.612100	0.002200
H221	H22	0.164800	0.633300	0.942300
N31	N3	0.187700	0.582350	0.087200
N41	N4	0.807400	0.575190	0.079600
O61	O6	0.995400	0.678850	0.093200
O71	O7	0.963300	0.692760	0.264800
O81	O8	0.948000	0.928010	0.407900
O91	O9	0.971800	0.011910	0.292500
O101	O10	0.964100	0.906870	0.912500
Zn21	Zn2	0.995400	0.581330	0.082830
C371	C37	0.975800	0.785400	0.672800
C381	C38	0.969300	0.710900	0.650900
C391	C39	0.969500	0.686500	0.541400
H231	H23	0.973200	0.716300	0.481900
C401	C40	0.964300	0.618200	0.519600
C411	C41	0.962300	0.573300	0.607900
H241	H24	0.963100	0.527200	0.594800
C421	C42	0.959100	0.598000	0.716400
C431	C43	0.963500	0.666000	0.738800
H251	H25	0.962700	0.681700	0.812700
C441	C44	0.960300	0.549800	0.813100
C451	C45	0.766100	0.948300	0.666600
H261	H26	0.822600	0.968300	0.729700
C461	C46	0.648900	0.946000	0.672300
H271	H27	0.629700	0.962300	0.738600
C471	C47	0.597300	0.896300	0.489300
H281	H28	0.541600	0.877600	0.424200
C481	C48	0.717200	0.900100	0.492800
H291	H29	0.738300	0.883800	0.427400
C491	C49	0.341300	0.886800	0.497900
H301	H30	0.362500	0.864500	0.437300
C501	C50	0.559300	0.919800	0.581100
C511	C51	0.425800	0.918300	0.582400
C521	C52	0.391800	0.948900	0.671200
H311	H31	0.448700	0.971300	0.730800
C531	C53	0.273200	0.946000	0.671100
H321	H32	0.251300	0.965200	0.734000
C541	C54	0.223200	0.887900	0.502200
H331	H33	0.164800	0.866700	0.442300
N51	N5	0.187700	0.917650	0.587200
N61	N6	0.807400	0.924810	0.579600
O111	O11	0.995400	0.821150	0.593200
O121	O12	0.963300	0.807240	0.764800
O131	O13	0.948000	0.571990	0.907900
O141	O14	0.971800	0.488090	0.792500
O151	O15	0.964100	0.593130	0.412500
Zn31	Zn3	0.995400	0.918670	0.582830
C551	C55	0.024200	0.285400	0.827200
C561	C56	0.030700	0.210900	0.849100
C571	C57	0.030500	0.186500	0.958600
H341	H34	0.026800	0.216300	0.018100
C581	C58	0.035700	0.118200	0.980400
C591	C59	0.037700	0.073300	0.892100
H351	H35	0.036900	0.027200	0.905200
C601	C60	0.040900	0.098000	0.783600
C611	C61	0.036500	0.166000	0.761200
H361	H36	0.037300	0.181700	0.687300
C621	C62	0.039700	0.049800	0.686900
C631	C63	0.233900	0.448300	0.833400
H371	H37	0.177400	0.468300	0.770300
C641	C64	0.351100	0.446000	0.827700
H381	H38	0.370300	0.462300	0.761400
C651	C65	0.402700	0.396300	0.010700
H391	H39	0.458400	0.377600	0.075800
C661	C66	0.282800	0.400100	0.007200
H401	H40	0.261700	0.383800	0.072600
C671	C67	0.658700	0.386800	0.002100
H411	H41	0.637500	0.364500	0.062700
C681	C68	0.440700	0.419800	0.918900
C691	C69	0.574200	0.418300	0.917600
C701	C70	0.608200	0.448900	0.828800
H421	H42	0.551300	0.471300	0.769200
C711	C71	0.726800	0.446000	0.828900
H431	H43	0.748700	0.465200	0.766000
C721	C72	0.776800	0.387900	0.997800
H441	H44	0.835200	0.366700	0.057700
N71	N7	0.812300	0.417650	0.912800
N81	N8	0.192600	0.424810	0.920400
O161	O16	0.004600	0.321150	0.906800
O171	O17	0.036700	0.307240	0.735200
O181	O18	0.052000	0.071990	0.592100
O191	O19	0.028200	0.988090	0.707500
O201	O20	0.035900	0.093130	0.087500
Zn41	Zn4	0.004600	0.418670	0.917170
