data_j_PM
_symmetry_space_group_name_H-M	'P1'
_cell_length_a	8.944000
_cell_length_b	10.776000
_cell_length_c	13.789000
_cell_angle_alpha	68.768000
_cell_angle_beta	78.142000
_cell_angle_gamma	79.991000
_symmetry_Int_Tables_number 1

loop_
_symmetry_equiv_pos_as_xyz
'x,y,z'

loop_
_atom_site_label
_atom_site_type_symbol
_atom_site_fract_x
_atom_site_fract_y
_atom_site_fract_z
Ni11	Ni1	0.310620	0.900130	0.149130
N11	N1	0.907700	0.020000	0.804400
N21	N2	0.148000	0.928300	0.813000
N31	N3	0.360900	0.814700	0.302200
N41	N4	0.484400	0.555300	0.837600
O11	O1	0.266600	0.972100	0.988900
H11	H1	0.225900	0.048800	0.954600
O21	O2	0.589200	0.676700	0.968200
O31	O3	0.532400	0.840300	0.072500
O41	O4	0.613100	0.923100	0.872400
O51	O5	0.038700	0.751200	0.040200
H21	H2	0.024700	0.748800	0.981800
O61	O6	0.275900	0.590900	0.023700
O71	O7	0.234200	0.723100	0.154800
P11	P1	0.532050	0.818940	0.967690
P21	P2	0.217610	0.716960	0.049870
C11	C1	0.324000	0.857100	0.953100
C21	C2	0.306100	0.895500	0.837100
H31	H3	0.362200	0.972100	0.796400
H41	H4	0.354800	0.821800	0.813100
C31	C3	0.033500	0.012300	0.843600
H51	H5	0.042000	0.059000	0.886900
C41	C4	0.945100	0.936900	0.745000
H61	H6	0.879000	0.921900	0.707400
C51	C5	0.093100	0.879900	0.749300
H71	H7	0.146000	0.820400	0.715900
C61	C6	0.347800	0.687700	0.358700
H81	H8	0.324400	0.633000	0.326300
C71	C7	0.367000	0.630500	0.464600
H91	H9	0.349900	0.541800	0.501900
C81	C8	0.411500	0.706800	0.513500
C91	C9	0.423000	0.841200	0.454500
H101	H10	0.449300	0.897300	0.484600
C101	C10	0.395700	0.892300	0.351500
H111	H11	0.401300	0.983100	0.314600
C111	C11	0.371800	0.515600	0.807900
H121	H12	0.308200	0.456100	0.858900
C121	C12	0.347300	0.560600	0.703400
H131	H13	0.268700	0.530500	0.685700
C131	C13	0.440200	0.650600	0.625400
C141	C14	0.557500	0.688900	0.656700
H141	H14	0.622500	0.748500	0.607200
C151	C15	0.578400	0.638600	0.761600
H151	H15	0.660100	0.663200	0.780300
Ni21	Ni2	0.689380	0.099870	0.850870
N51	N5	0.092300	0.980000	0.195600
N61	N6	0.852000	0.071700	0.187000
N71	N7	0.639100	0.185300	0.697800
N81	N8	0.515600	0.444700	0.162400
O81	O8	0.733400	0.027900	0.011100
H161	H16	0.774100	0.951200	0.045400
O91	O9	0.410800	0.323300	0.031800
O101	O10	0.467600	0.159700	0.927500
O111	O11	0.386900	0.076900	0.127600
O121	O12	0.961300	0.248800	0.959800
H171	H17	0.975300	0.251200	0.018200
O131	O13	0.724100	0.409100	0.976300
O141	O14	0.765800	0.276900	0.845200
P31	P3	0.467950	0.181060	0.032310
P41	P4	0.782390	0.283040	0.950130
C161	C16	0.676000	0.142900	0.046900
C171	C17	0.693900	0.104500	0.162900
H181	H18	0.637800	0.027900	0.203600
H191	H19	0.645200	0.178200	0.186900
C181	C18	0.966500	0.987700	0.156400
H201	H20	0.958000	0.941000	0.113100
C191	C19	0.054900	0.063100	0.255000
H211	H21	0.121000	0.078100	0.292600
C201	C20	0.906900	0.120100	0.250700
H221	H22	0.854000	0.179600	0.284100
C211	C21	0.652200	0.312300	0.641300
H231	H23	0.675600	0.367000	0.673700
C221	C22	0.633000	0.369500	0.535400
H241	H24	0.650100	0.458200	0.498100
C231	C23	0.588500	0.293200	0.486500
C241	C24	0.577000	0.158800	0.545500
H251	H25	0.550700	0.102700	0.515400
C251	C25	0.604300	0.107700	0.648500
H261	H26	0.598700	0.016900	0.685400
C261	C26	0.628200	0.484400	0.192100
H271	H27	0.691800	0.543900	0.141100
C271	C27	0.652700	0.439400	0.296600
H281	H28	0.731300	0.469500	0.314300
C281	C28	0.559800	0.349400	0.374600
C291	C29	0.442500	0.311100	0.343300
H291	H29	0.377500	0.251500	0.392800
C301	C30	0.421600	0.361400	0.238400
H301	H30	0.339900	0.336800	0.219700
Ni31	Ni3	0.500000	0.500000	0.000000
