data_j_PM
_symmetry_space_group_name_H-M	'P1'
_cell_length_a	7.318100
_cell_length_b	29.042000
_cell_length_c	23.593000
_cell_angle_alpha	90.000000
_cell_angle_beta	91.721000
_cell_angle_gamma	90.000000
_symmetry_Int_Tables_number 1

loop_
_symmetry_equiv_pos_as_xyz
'x,y,z'

loop_
_atom_site_label
_atom_site_type_symbol
_atom_site_fract_x
_atom_site_fract_y
_atom_site_fract_z
C11	C1	0.778500	0.711220	0.163950
C21	C2	0.872100	0.678750	0.204490
C31	C3	0.055600	0.684780	0.220540
H11	H1	0.121700	0.708900	0.205400
C41	C4	0.139800	0.654960	0.258900
H21	H2	0.261500	0.659700	0.269900
C51	C5	0.044400	0.617830	0.281300
C61	C6	0.863400	0.611870	0.264320
H31	H3	0.797900	0.587200	0.278500
C71	C7	0.778000	0.642030	0.226500
H41	H4	0.656000	0.637500	0.215800
C81	C8	0.147900	0.585950	0.323370
C91	C9	0.015700	0.552970	0.354060
C101	C10	0.282100	0.556690	0.288490
C111	C11	0.246500	0.614080	0.370910
C121	C12	0.152400	0.651540	0.393090
H51	H5	0.038600	0.659700	0.377600
C131	C13	0.227600	0.676570	0.437940
H61	H6	0.162600	0.701100	0.452600
C141	C14	0.397500	0.665690	0.461270
C151	C15	0.492800	0.628930	0.438630
H71	H7	0.608600	0.621600	0.453300
C161	C16	0.416700	0.603130	0.394440
H81	H8	0.480800	0.578100	0.380400
C171	C17	0.477000	0.692290	0.510530
C181	C18	0.444300	0.801850	0.166950
C191	C19	0.359800	0.827930	0.214460
C201	C20	0.192600	0.815100	0.235800
H91	H9	0.129300	0.790200	0.220200
C211	C21	0.120100	0.839360	0.280350
H101	H10	0.009400	0.830000	0.295000
C221	C22	0.209400	0.877250	0.303500
C231	C23	0.375600	0.890410	0.281770
H111	H11	0.437300	0.915900	0.296600
C241	C24	0.448900	0.865640	0.238040
H121	H12	0.561000	0.874500	0.224100
C251	C25	0.111400	0.905560	0.349480
C261	C26	0.247400	0.935410	0.386170
C271	C27	0.979300	0.938250	0.316930
C281	C28	0.014100	0.874090	0.391200
C291	C29	0.112500	0.837190	0.415290
H131	H13	0.231400	0.831700	0.404300
C301	C30	0.035500	0.808730	0.455240
H141	H14	0.103300	0.784700	0.471300
C311	C31	0.857600	0.816200	0.471220
C321	C32	0.760100	0.852570	0.447560
H151	H15	0.640400	0.857700	0.458200
C331	C33	0.837300	0.881320	0.408580
H161	H16	0.769900	0.905900	0.393700
C341	C34	0.771700	0.786410	0.515320
C351	C35	0.083300	0.858930	0.077500
H171	H17	0.127200	0.842900	0.046600
C361	C36	0.929700	0.877740	0.148470
H181	H18	0.843000	0.877100	0.176500
C371	C37	0.056500	0.910870	0.142690
H191	H19	0.073800	0.936600	0.165700
C381	C38	0.298600	0.925110	0.072760
C391	C39	0.478300	0.919360	0.080540
H201	H20	0.530700	0.896800	0.103800
C401	C40	0.580400	0.951510	0.049450
H211	H21	0.707500	0.952300	0.049900
C411	C41	0.473000	0.981290	0.018710
C421	C42	0.047100	0.605300	0.086000
H221	H22	0.922900	0.615900	0.086700
H231	H23	0.073500	0.586800	0.119000
H241	H24	0.063900	0.587200	0.052500
C431	C43	0.177600	0.647200	0.085800
Cu11	Cu1	0.764020	0.788930	0.092610
Cu21	Cu2	0.472250	0.732050	0.087690
F11	F1	0.884500	0.575210	0.379480
F21	F2	0.936800	0.522040	0.318790
F31	F3	0.105500	0.528170	0.394320
F41	F4	0.198700	0.539420	0.242030
F51	F5	0.352900	0.520650	0.316910
F61	F6	0.421000	0.581550	0.271290
F71	F7	0.164800	0.952620	0.431110
F81	F8	0.314200	0.971140	0.358030
F91	F9	0.389300	0.911120	0.405320
F101	F10	0.063600	0.960980	0.276060
F111	F11	0.905300	0.970180	0.350190
F121	F12	0.841700	0.915400	0.292030
N11	N1	0.946900	0.845140	0.107060
N21	N2	0.154600	0.899290	0.096570
N31	N3	0.256100	0.680580	0.084280
O11	O1	0.859800	0.747790	0.151870
O21	O2	0.624600	0.698650	0.144270
O31	O3	0.379200	0.723780	0.530050
O41	O4	0.632500	0.680590	0.529440
O51	O5	0.592200	0.817200	0.148830
O61	O6	0.362400	0.766660	0.148930
O71	O7	0.865300	0.753860	0.536020
O81	O8	0.610800	0.797020	0.528230
S11	S1	0.244760	0.969780	0.027460
C441	C44	0.221500	0.211220	0.336050
C451	C45	0.127900	0.178750	0.295510
C461	C46	0.944400	0.184780	0.279460
H251	H25	0.878300	0.208900	0.294600
C471	C47	0.860200	0.154960	0.241100
H261	H26	0.738500	0.159700	0.230100
C481	C48	0.955600	0.117830	0.218700
C491	C49	0.136600	0.111870	0.235680
H271	H27	0.202100	0.087200	0.221500
C501	C50	0.222000	0.142030	0.273500
H281	H28	0.344000	0.137500	0.284200
C511	C51	0.852100	0.085950	0.176630
C521	C52	0.984300	0.052970	0.145940
C531	C53	0.717900	0.056690	0.211510
C541	C54	0.753500	0.114080	0.129090
C551	C55	0.847600	0.151540	0.106910
H291	H29	0.961400	0.159700	0.122400
C561	C56	0.772400	0.176570	0.062060
H301	H30	0.837400	0.201100	0.047400
C571	C57	0.602500	0.165690	0.038730
C581	C58	0.507200	0.128930	0.061370
H311	H31	0.391400	0.121600	0.046700
C591	C59	0.583300	0.103130	0.105560
H321	H32	0.519200	0.078100	0.119600
C601	C60	0.523000	0.192290	0.989470
C611	C61	0.555700	0.301850	0.333050
C621	C62	0.640200	0.327930	0.285540
C631	C63	0.807400	0.315100	0.264200
H331	H33	0.870700	0.290200	0.279800
C641	C64	0.879900	0.339360	0.219650
H341	H34	0.990600	0.330000	0.205000
C651	C65	0.790600	0.377250	0.196500
C661	C66	0.624400	0.390410	0.218230
H351	H35	0.562700	0.415900	0.203400
C671	C67	0.551100	0.365640	0.261960
H361	H36	0.439000	0.374500	0.275900
C681	C68	0.888600	0.405560	0.150520
C691	C69	0.752600	0.435410	0.113830
C701	C70	0.020700	0.438250	0.183070
C711	C71	0.985900	0.374090	0.108800
C721	C72	0.887500	0.337190	0.084710
H371	H37	0.768600	0.331700	0.095700
C731	C73	0.964500	0.308730	0.044760
H381	H38	0.896700	0.284700	0.028700
C741	C74	0.142400	0.316200	0.028780
C751	C75	0.239900	0.352570	0.052440
H391	H39	0.359600	0.357700	0.041800
C761	C76	0.162700	0.381320	0.091420
H401	H40	0.230100	0.405900	0.106300
C771	C77	0.228300	0.286410	0.984680
C781	C78	0.916700	0.358930	0.422500
H411	H41	0.872800	0.342900	0.453400
C791	C79	0.070300	0.377740	0.351530
H421	H42	0.157000	0.377100	0.323500
C801	C80	0.943500	0.410870	0.357310
H431	H43	0.926200	0.436600	0.334300
C811	C81	0.701400	0.425110	0.427240
C821	C82	0.521700	0.419360	0.419460
H441	H44	0.469300	0.396800	0.396200
C831	C83	0.419600	0.451510	0.450550
H451	H45	0.292500	0.452300	0.450100
C841	C84	0.527000	0.481290	0.481290
C851	C85	0.952900	0.105300	0.414000
H461	H46	0.077100	0.115900	0.413300
H471	H47	0.926500	0.086800	0.381000
H481	H48	0.936100	0.087200	0.447500
C861	C86	0.822400	0.147200	0.414200
Cu31	Cu3	0.235980	0.288930	0.407390
Cu41	Cu4	0.527750	0.232050	0.412310
F131	F13	0.115500	0.075210	0.120520
F141	F14	0.063200	0.022040	0.181210
F151	F15	0.894500	0.028170	0.105680
F161	F16	0.801300	0.039420	0.257970
F171	F17	0.647100	0.020650	0.183090
F181	F18	0.579000	0.081550	0.228710
F191	F19	0.835200	0.452620	0.068890
F201	F20	0.685800	0.471140	0.141970
F211	F21	0.610700	0.411120	0.094680
F221	F22	0.936400	0.460980	0.223940
F231	F23	0.094700	0.470180	0.149810
F241	F24	0.158300	0.415400	0.207970
N41	N4	0.053100	0.345140	0.392940
N51	N5	0.845400	0.399290	0.403430
N61	N6	0.743900	0.180580	0.415720
O91	O9	0.140200	0.247790	0.348130
O101	O10	0.375400	0.198650	0.355730
O111	O11	0.620800	0.223780	0.969950
O121	O12	0.367500	0.180590	0.970560
O131	O13	0.407800	0.317200	0.351170
O141	O14	0.637600	0.266660	0.351070
O151	O15	0.134700	0.253860	0.963980
O161	O16	0.389200	0.297020	0.971770
S21	S2	0.755240	0.469780	0.472540
C871	C87	0.221500	0.288780	0.836050
C881	C88	0.127900	0.321250	0.795510
C891	C89	0.944400	0.315220	0.779460
H491	H49	0.878300	0.291100	0.794600
C901	C90	0.860200	0.345040	0.741100
H501	H50	0.738500	0.340300	0.730100
C911	C91	0.955600	0.382170	0.718700
C921	C92	0.136600	0.388130	0.735680
H511	H51	0.202100	0.412800	0.721500
C931	C93	0.222000	0.357970	0.773500
H521	H52	0.344000	0.362500	0.784200
C941	C94	0.852100	0.414050	0.676630
C951	C95	0.984300	0.447030	0.645940
C961	C96	0.717900	0.443310	0.711510
C971	C97	0.753500	0.385920	0.629090
C981	C98	0.847600	0.348460	0.606910
H531	H53	0.961400	0.340300	0.622400
C991	C99	0.772400	0.323430	0.562060
H541	H54	0.837400	0.298900	0.547400
C1001	C100	0.602500	0.334310	0.538730
C1011	C101	0.507200	0.371070	0.561370
H551	H55	0.391400	0.378400	0.546700
C1021	C102	0.583300	0.396870	0.605560
H561	H56	0.519200	0.421900	0.619600
C1031	C103	0.523000	0.307710	0.489470
C1041	C104	0.555700	0.198150	0.833050
C1051	C105	0.640200	0.172070	0.785540
C1061	C106	0.807400	0.184900	0.764200
H571	H57	0.870700	0.209800	0.779800
C1071	C107	0.879900	0.160640	0.719650
H581	H58	0.990600	0.170000	0.705000
C1081	C108	0.790600	0.122750	0.696500
C1091	C109	0.624400	0.109590	0.718230
H591	H59	0.562700	0.084100	0.703400
C1101	C110	0.551100	0.134360	0.761960
H601	H60	0.439000	0.125500	0.775900
C1111	C111	0.888600	0.094440	0.650520
C1121	C112	0.752600	0.064590	0.613830
C1131	C113	0.020700	0.061750	0.683070
C1141	C114	0.985900	0.125910	0.608800
C1151	C115	0.887500	0.162810	0.584710
H611	H61	0.768600	0.168300	0.595700
C1161	C116	0.964500	0.191270	0.544760
H621	H62	0.896700	0.215300	0.528700
C1171	C117	0.142400	0.183800	0.528780
C1181	C118	0.239900	0.147430	0.552440
H631	H63	0.359600	0.142300	0.541800
C1191	C119	0.162700	0.118680	0.591420
H641	H64	0.230100	0.094100	0.606300
C1201	C120	0.228300	0.213590	0.484680
C1211	C121	0.916700	0.141070	0.922500
H651	H65	0.872800	0.157100	0.953400
C1221	C122	0.070300	0.122260	0.851530
H661	H66	0.157000	0.122900	0.823500
C1231	C123	0.943500	0.089130	0.857310
H671	H67	0.926200	0.063400	0.834300
C1241	C124	0.701400	0.074890	0.927240
C1251	C125	0.521700	0.080640	0.919460
H681	H68	0.469300	0.103200	0.896200
C1261	C126	0.419600	0.048490	0.950550
H691	H69	0.292500	0.047700	0.950100
C1271	C127	0.527000	0.018710	0.981290
C1281	C128	0.952900	0.394700	0.914000
H701	H70	0.077100	0.384100	0.913300
H711	H71	0.926500	0.413200	0.881000
H721	H72	0.936100	0.412800	0.947500
C1291	C129	0.822400	0.352800	0.914200
Cu51	Cu5	0.235980	0.211070	0.907390
Cu61	Cu6	0.527750	0.267950	0.912310
F251	F25	0.115500	0.424790	0.620520
F261	F26	0.063200	0.477960	0.681210
F271	F27	0.894500	0.471830	0.605680
F281	F28	0.801300	0.460580	0.757970
F291	F29	0.647100	0.479350	0.683090
F301	F30	0.579000	0.418450	0.728710
F311	F31	0.835200	0.047380	0.568890
F321	F32	0.685800	0.028860	0.641970
F331	F33	0.610700	0.088880	0.594680
F341	F34	0.936400	0.039020	0.723940
F351	F35	0.094700	0.029820	0.649810
F361	F36	0.158300	0.084600	0.707970
N71	N7	0.053100	0.154860	0.892940
N81	N8	0.845400	0.100710	0.903430
N91	N9	0.743900	0.319420	0.915720
O171	O17	0.140200	0.252210	0.848130
O181	O18	0.375400	0.301350	0.855730
O191	O19	0.620800	0.276220	0.469950
O201	O20	0.367500	0.319410	0.470560
O211	O21	0.407800	0.182800	0.851170
O221	O22	0.637600	0.233340	0.851070
O231	O23	0.134700	0.246140	0.463980
O241	O24	0.389200	0.202980	0.471770
S31	S3	0.755240	0.030220	0.972540
C1301	C130	0.778500	0.788780	0.663950
C1311	C131	0.872100	0.821250	0.704490
C1321	C132	0.055600	0.815220	0.720540
H731	H73	0.121700	0.791100	0.705400
C1331	C133	0.139800	0.845040	0.758900
H741	H74	0.261500	0.840300	0.769900
C1341	C134	0.044400	0.882170	0.781300
C1351	C135	0.863400	0.888130	0.764320
H751	H75	0.797900	0.912800	0.778500
C1361	C136	0.778000	0.857970	0.726500
H761	H76	0.656000	0.862500	0.715800
C1371	C137	0.147900	0.914050	0.823370
C1381	C138	0.015700	0.947030	0.854060
C1391	C139	0.282100	0.943310	0.788490
C1401	C140	0.246500	0.885920	0.870910
C1411	C141	0.152400	0.848460	0.893090
H771	H77	0.038600	0.840300	0.877600
C1421	C142	0.227600	0.823430	0.937940
H781	H78	0.162600	0.798900	0.952600
C1431	C143	0.397500	0.834310	0.961270
C1441	C144	0.492800	0.871070	0.938630
H791	H79	0.608600	0.878400	0.953300
C1451	C145	0.416700	0.896870	0.894440
H801	H80	0.480800	0.921900	0.880400
C1461	C146	0.477000	0.807710	0.010530
C1471	C147	0.444300	0.698150	0.666950
C1481	C148	0.359800	0.672070	0.714460
C1491	C149	0.192600	0.684900	0.735800
H811	H81	0.129300	0.709800	0.720200
C1501	C150	0.120100	0.660640	0.780350
H821	H82	0.009400	0.670000	0.795000
C1511	C151	0.209400	0.622750	0.803500
C1521	C152	0.375600	0.609590	0.781770
H831	H83	0.437300	0.584100	0.796600
C1531	C153	0.448900	0.634360	0.738040
H841	H84	0.561000	0.625500	0.724100
C1541	C154	0.111400	0.594440	0.849480
C1551	C155	0.247400	0.564590	0.886170
C1561	C156	0.979300	0.561750	0.816930
C1571	C157	0.014100	0.625910	0.891200
C1581	C158	0.112500	0.662810	0.915290
H851	H85	0.231400	0.668300	0.904300
C1591	C159	0.035500	0.691270	0.955240
H861	H86	0.103300	0.715300	0.971300
C1601	C160	0.857600	0.683800	0.971220
C1611	C161	0.760100	0.647430	0.947560
H871	H87	0.640400	0.642300	0.958200
C1621	C162	0.837300	0.618680	0.908580
H881	H88	0.769900	0.594100	0.893700
C1631	C163	0.771700	0.713590	0.015320
C1641	C164	0.083300	0.641070	0.577500
H891	H89	0.127200	0.657100	0.546600
C1651	C165	0.929700	0.622260	0.648470
H901	H90	0.843000	0.622900	0.676500
C1661	C166	0.056500	0.589130	0.642690
H911	H91	0.073800	0.563400	0.665700
C1671	C167	0.298600	0.574890	0.572760
C1681	C168	0.478300	0.580640	0.580540
H921	H92	0.530700	0.603200	0.603800
C1691	C169	0.580400	0.548490	0.549450
H931	H93	0.707500	0.547700	0.549900
C1701	C170	0.473000	0.518710	0.518710
C1711	C171	0.047100	0.894700	0.586000
H941	H94	0.922900	0.884100	0.586700
H951	H95	0.073500	0.913200	0.619000
H961	H96	0.063900	0.912800	0.552500
C1721	C172	0.177600	0.852800	0.585800
Cu71	Cu7	0.764020	0.711070	0.592610
Cu81	Cu8	0.472250	0.767950	0.587690
F371	F37	0.884500	0.924790	0.879480
F381	F38	0.936800	0.977960	0.818790
F391	F39	0.105500	0.971830	0.894320
F401	F40	0.198700	0.960580	0.742030
F411	F41	0.352900	0.979350	0.816910
F421	F42	0.421000	0.918450	0.771290
F431	F43	0.164800	0.547380	0.931110
F441	F44	0.314200	0.528860	0.858030
F451	F45	0.389300	0.588880	0.905320
F461	F46	0.063600	0.539020	0.776060
F471	F47	0.905300	0.529820	0.850190
F481	F48	0.841700	0.584600	0.792030
N101	N10	0.946900	0.654860	0.607060
N111	N11	0.154600	0.600710	0.596570
N121	N12	0.256100	0.819420	0.584280
O251	O25	0.859800	0.752210	0.651870
O261	O26	0.624600	0.801350	0.644270
O271	O27	0.379200	0.776220	0.030050
O281	O28	0.632500	0.819410	0.029440
O291	O29	0.592200	0.682800	0.648830
O301	O30	0.362400	0.733340	0.648930
O311	O31	0.865300	0.746140	0.036020
O321	O32	0.610800	0.702980	0.028230
S41	S4	0.244760	0.530220	0.527460
