data_j_PM
_symmetry_space_group_name_H-M	'P1'
_cell_length_a	13.882000
_cell_length_b	13.365000
_cell_length_c	14.209000
_cell_angle_alpha	90.000000
_cell_angle_beta	112.046000
_cell_angle_gamma	90.000000
_symmetry_Int_Tables_number 1

loop_
_symmetry_equiv_pos_as_xyz
'x,y,z'

loop_
_atom_site_label
_atom_site_type_symbol
_atom_site_fract_x
_atom_site_fract_y
_atom_site_fract_z
C11	C1	0.224900	0.695300	0.884800
H11	H1	0.278000	0.741700	0.912400
C21	C2	0.121400	0.726100	0.846800
H21	H2	0.104800	0.793600	0.846100
C31	C3	0.044700	0.656000	0.810600
C41	C4	0.066600	0.554200	0.808600
H31	H3	0.013400	0.507300	0.784700
C51	C5	0.169500	0.525200	0.843100
H41	H4	0.185900	0.458000	0.840600
C61	C6	0.934400	0.695300	0.774600
C71	C7	0.758200	0.655500	0.761700
C81	C8	0.707500	0.606700	0.814700
H51	H5	0.743400	0.560300	0.864200
C91	C9	0.604100	0.625200	0.795500
C101	C10	0.551300	0.696900	0.722200
H61	H6	0.481700	0.710000	0.709200
C111	C11	0.600400	0.748100	0.669200
C121	C12	0.706100	0.727900	0.688000
H71	H7	0.740400	0.761500	0.652400
C131	C13	0.556200	0.576300	0.862700
C141	C14	0.551900	0.833000	0.597900
N11	N1	0.248100	0.594100	0.881200
N21	N2	0.862900	0.631200	0.782100
H81	H8	0.882500	0.570900	0.800700
O11	O1	0.918000	0.783300	0.747500
O21	O2	0.609300	0.513300	0.923900
O31	O3	0.465600	0.602800	0.850800
O41	O4	0.459300	0.823500	0.538500
O51	O5	0.605900	0.908300	0.602300
Cu11	Cu1	0.599670	0.446860	0.051030
C151	C15	0.775100	0.195300	0.615200
H91	H9	0.722000	0.241700	0.587600
C161	C16	0.878600	0.226100	0.653200
H101	H10	0.895200	0.293600	0.653900
C171	C17	0.955300	0.156000	0.689400
C181	C18	0.933400	0.054200	0.691400
H111	H11	0.986600	0.007300	0.715300
C191	C19	0.830500	0.025200	0.656900
H121	H12	0.814100	0.958000	0.659400
C201	C20	0.065600	0.195300	0.725400
C211	C21	0.241800	0.155500	0.738300
C221	C22	0.292500	0.106700	0.685300
H131	H13	0.256600	0.060300	0.635800
C231	C23	0.395900	0.125200	0.704500
C241	C24	0.448700	0.196900	0.777800
H141	H14	0.518300	0.210000	0.790800
C251	C25	0.399600	0.248100	0.830800
C261	C26	0.293900	0.227900	0.812000
H151	H15	0.259600	0.261500	0.847600
C271	C27	0.443800	0.076300	0.637300
C281	C28	0.448100	0.333000	0.902100
N31	N3	0.751900	0.094100	0.618800
N41	N4	0.137100	0.131200	0.717900
H161	H16	0.117500	0.070900	0.699300
O61	O6	0.082000	0.283300	0.752500
O71	O7	0.390700	0.013300	0.576100
O81	O8	0.534400	0.102800	0.649200
O91	O9	0.540700	0.323500	0.961500
O101	O10	0.394100	0.408300	0.897700
Cu21	Cu2	0.400330	0.946860	0.448970
C291	C29	0.775100	0.304700	0.115200
H171	H17	0.722000	0.258300	0.087600
C301	C30	0.878600	0.273900	0.153200
H181	H18	0.895200	0.206400	0.153900
C311	C31	0.955300	0.344000	0.189400
C321	C32	0.933400	0.445800	0.191400
H191	H19	0.986600	0.492700	0.215300
C331	C33	0.830500	0.474800	0.156900
H201	H20	0.814100	0.542000	0.159400
C341	C34	0.065600	0.304700	0.225400
C351	C35	0.241800	0.344500	0.238300
C361	C36	0.292500	0.393300	0.185300
H211	H21	0.256600	0.439700	0.135800
C371	C37	0.395900	0.374800	0.204500
C381	C38	0.448700	0.303100	0.277800
H221	H22	0.518300	0.290000	0.290800
C391	C39	0.399600	0.251900	0.330800
C401	C40	0.293900	0.272100	0.312000
H231	H23	0.259600	0.238500	0.347600
C411	C41	0.443800	0.423700	0.137300
C421	C42	0.448100	0.167000	0.402100
N51	N5	0.751900	0.405900	0.118800
N61	N6	0.137100	0.368800	0.217900
H241	H24	0.117500	0.429100	0.199300
O111	O11	0.082000	0.216700	0.252500
O121	O12	0.390700	0.486700	0.076100
O131	O13	0.534400	0.397200	0.149200
O141	O14	0.540700	0.176500	0.461500
O151	O15	0.394100	0.091700	0.397700
Cu31	Cu3	0.400330	0.553140	0.948970
C431	C43	0.224900	0.804700	0.384800
H251	H25	0.278000	0.758300	0.412400
C441	C44	0.121400	0.773900	0.346800
H261	H26	0.104800	0.706400	0.346100
C451	C45	0.044700	0.844000	0.310600
C461	C46	0.066600	0.945800	0.308600
H271	H27	0.013400	0.992700	0.284700
C471	C47	0.169500	0.974800	0.343100
H281	H28	0.185900	0.042000	0.340600
C481	C48	0.934400	0.804700	0.274600
C491	C49	0.758200	0.844500	0.261700
C501	C50	0.707500	0.893300	0.314700
H291	H29	0.743400	0.939700	0.364200
C511	C51	0.604100	0.874800	0.295500
C521	C52	0.551300	0.803100	0.222200
H301	H30	0.481700	0.790000	0.209200
C531	C53	0.600400	0.751900	0.169200
C541	C54	0.706100	0.772100	0.188000
H311	H31	0.740400	0.738500	0.152400
C551	C55	0.556200	0.923700	0.362700
C561	C56	0.551900	0.667000	0.097900
N71	N7	0.248100	0.905900	0.381200
N81	N8	0.862900	0.868800	0.282100
H321	H32	0.882500	0.929100	0.300700
O161	O16	0.918000	0.716700	0.247500
O171	O17	0.609300	0.986700	0.423900
O181	O18	0.465600	0.897200	0.350800
O191	O19	0.459300	0.676500	0.038500
O201	O20	0.605900	0.591700	0.102300
Cu41	Cu4	0.599670	0.053140	0.551030
