data_ja106851d_si_001_clean_PM
_symmetry_space_group_name_H-M	'P1'
_cell_length_a	11.026000
_cell_length_b	16.838000
_cell_length_c	22.410000
_cell_angle_alpha	90.000000
_cell_angle_beta	90.000000
_cell_angle_gamma	90.000000
_symmetry_Int_Tables_number 1

loop_
_symmetry_equiv_pos_as_xyz
'x,y,z'

loop_
_atom_site_label
_atom_site_type_symbol
_atom_site_fract_x
_atom_site_fract_y
_atom_site_fract_z
Zn11	Zn1	0.094240	0.558540	0.491110
Zn21	Zn2	0.094240	0.941460	0.991110
Zn31	Zn3	0.905760	0.941460	0.491110
Zn41	Zn4	0.094240	0.441460	0.008890
Zn51	Zn5	0.094240	0.058540	0.508890
Zn61	Zn6	0.905760	0.558540	0.991110
Zn71	Zn7	0.905760	0.441460	0.508890
Zn81	Zn8	0.905760	0.058540	0.008890
H11	H1	0.100400	0.240500	0.426600
H21	H2	0.474200	0.871500	0.508600
H31	H3	0.576800	0.071800	0.720000
H41	H4	0.410800	0.671100	0.194100
H51	H5	0.350700	0.553400	0.513200
H61	H6	0.686800	0.584100	0.631500
H71	H7	0.576800	0.428200	0.220000
H81	H8	0.899600	0.740500	0.073400
H91	H9	0.161900	0.220600	0.558200
H101	H10	0.686800	0.915900	0.131500
H111	H11	0.055800	0.323400	0.662400
H121	H12	0.161900	0.720600	0.441800
H131	H13	0.525800	0.371500	0.991400
H141	H14	0.196300	0.346600	0.863900
H151	H15	0.313200	0.584100	0.131500
H161	H16	0.944200	0.823400	0.837600
H171	H17	0.327300	0.197200	0.060900
H181	H18	0.196300	0.153400	0.363900
H191	H19	0.327300	0.802800	0.439100
H201	H20	0.350700	0.946600	0.013200
H211	H21	0.317200	0.484600	0.642800
H221	H22	0.944200	0.323400	0.162400
H231	H23	0.838100	0.720600	0.941800
H241	H24	0.844200	0.269600	0.242800
H251	H25	0.474200	0.371500	0.491400
H261	H26	0.474200	0.128500	0.991400
H271	H27	0.576800	0.928200	0.780000
H281	H28	0.682800	0.984600	0.857200
H291	H29	0.155800	0.769600	0.257200
H301	H30	0.672700	0.697200	0.439100
H311	H31	0.317200	0.515400	0.857200
H321	H32	0.155800	0.269600	0.742800
H331	H33	0.589200	0.171100	0.305900
H341	H34	0.576800	0.571800	0.280000
H351	H35	0.803700	0.346600	0.363900
H361	H36	0.327300	0.302800	0.560900
H371	H37	0.410800	0.828900	0.694100
H381	H38	0.423200	0.571800	0.780000
H391	H39	0.649300	0.053400	0.986800
H401	H40	0.155800	0.230400	0.242800
H411	H41	0.055800	0.176600	0.162400
H421	H42	0.100400	0.259500	0.926600
H431	H43	0.682800	0.484600	0.142800
H441	H44	0.100400	0.740500	0.573400
H451	H45	0.313200	0.084100	0.868500
H461	H46	0.944200	0.676600	0.337600
H471	H47	0.899600	0.240500	0.926600
H481	H48	0.803700	0.153400	0.863900
H491	H49	0.423200	0.928200	0.280000
H501	H50	0.589200	0.671100	0.694100
H511	H51	0.525800	0.628500	0.508600
H521	H52	0.672700	0.302800	0.060900
H531	H53	0.682800	0.015400	0.642800
H541	H54	0.672700	0.197200	0.560900
H551	H55	0.649300	0.946600	0.513200
H561	H56	0.317200	0.015400	0.142800
H571	H57	0.844200	0.230400	0.742800
H581	H58	0.474200	0.628500	0.008600
H591	H59	0.838100	0.279400	0.558200
H601	H60	0.313200	0.415900	0.368500
H611	H61	0.844200	0.730400	0.257200
H621	H62	0.649300	0.446600	0.486800
H631	H63	0.899600	0.759500	0.573400
H641	H64	0.410800	0.328900	0.305900
H651	H65	0.844200	0.769600	0.757200
H661	H66	0.327300	0.697200	0.939100
H671	H67	0.682800	0.515400	0.357200
H681	H68	0.525800	0.128500	0.491400
H691	H69	0.649300	0.553400	0.013200
H701	H70	0.423200	0.428200	0.720000
H711	H71	0.055800	0.823400	0.337600
H721	H72	0.100400	0.759500	0.073400
H731	H73	0.589200	0.328900	0.805900
H741	H74	0.899600	0.259500	0.426600
H751	H75	0.196300	0.846600	0.136100
H761	H76	0.525800	0.871500	0.008600
H771	H77	0.350700	0.053400	0.486800
H781	H78	0.838100	0.220600	0.058200
H791	H79	0.410800	0.171100	0.805900
H801	H80	0.423200	0.071800	0.220000
H811	H81	0.838100	0.779400	0.441800
H821	H82	0.161900	0.279400	0.058200
H831	H83	0.317200	0.984600	0.357200
H841	H84	0.196300	0.653400	0.636100
H851	H85	0.161900	0.779400	0.941800
H861	H86	0.672700	0.802800	0.939100
H871	H87	0.803700	0.846600	0.636100
H881	H88	0.803700	0.653400	0.136100
H891	H89	0.686800	0.415900	0.868500
H901	H90	0.313200	0.915900	0.631500
H911	H91	0.155800	0.730400	0.757200
H921	H92	0.686800	0.084100	0.368500
H931	H93	0.350700	0.446600	0.986800
H941	H94	0.944200	0.176600	0.662400
H951	H95	0.589200	0.828900	0.194100
H961	H96	0.055800	0.676600	0.837600
C11	C1	0.128500	0.154300	0.175000
C21	C2	0.235500	0.702100	0.456600
C31	C3	0.764500	0.797900	0.456600
C41	C4	0.128500	0.654300	0.825000
C51	C5	0.346300	0.188500	0.829300
C61	C6	0.297700	0.345800	0.740700
C71	C7	0.811700	0.187000	0.722800
C81	C8	0.711700	0.636800	0.632800
C91	C9	0.443800	0.774800	0.971100
C101	C10	0.335600	0.748700	0.953500
C111	C11	0.556200	0.225200	0.028900
C121	C12	0.556200	0.774800	0.471100
C131	C13	0.235500	0.797900	0.956600
C141	C14	0.103900	0.554300	0.905700
C151	C15	0.715100	0.941200	0.837000
C161	C16	0.347400	0.408400	0.709400
C171	C17	0.556200	0.274800	0.528900
C181	C18	0.284900	0.441200	0.663000
C191	C19	0.235500	0.202100	0.543400
C201	C20	0.193000	0.338800	0.403900
C211	C21	0.652600	0.908400	0.790600
C221	C22	0.838300	0.741000	0.598300
C231	C23	0.547600	0.148800	0.005000
C241	C24	0.547600	0.648800	0.995000
C251	C25	0.173800	0.410600	0.645400
C261	C26	0.284900	0.058800	0.163000
C271	C27	0.547600	0.851200	0.495000
C281	C28	0.125200	0.396600	0.439600
C291	C29	0.288300	0.136800	0.867200
C301	C30	0.807000	0.338800	0.903900
C311	C31	0.346300	0.311500	0.329300
C321	C32	0.297700	0.154200	0.240700
C331	C33	0.308200	0.266100	0.826300
C341	C34	0.807000	0.161200	0.403900
C351	C35	0.653700	0.688500	0.670700
C361	C36	0.811700	0.687000	0.277200
C371	C37	0.826200	0.589400	0.354600
C381	C38	0.781800	0.293300	0.364100
C391	C39	0.297700	0.654200	0.759300
C401	C40	0.547600	0.351200	0.505000
C411	C41	0.103900	0.945700	0.405700
C421	C42	0.188300	0.313000	0.722800
C431	C43	0.653800	0.895500	0.497600
C441	C44	0.218200	0.793300	0.135900
C451	C45	0.346200	0.395500	0.002400
C461	C46	0.653700	0.188500	0.329300
C471	C47	0.764500	0.702100	0.956600
C481	C48	0.711700	0.863200	0.132800
C491	C49	0.193000	0.661200	0.096100
C501	C50	0.128500	0.345700	0.675000
C511	C51	0.125200	0.603400	0.060400
C521	C52	0.811700	0.313000	0.222800
C531	C53	0.652600	0.591600	0.290600
C541	C54	0.128500	0.845700	0.325000
C551	C55	0.125200	0.896600	0.560400
C561	C56	0.161700	0.741000	0.098300
C571	C57	0.702300	0.154200	0.740700
C581	C58	0.653700	0.811500	0.170700
C591	C59	0.691800	0.733900	0.173700
C601	C60	0.871500	0.345700	0.175000
C611	C61	0.297700	0.845800	0.259300
C621	C62	0.218200	0.706700	0.635900
C631	C63	0.702300	0.845800	0.759300
C641	C64	0.896100	0.554300	0.405700
C651	C65	0.218200	0.293300	0.864100
C661	C66	0.715100	0.558800	0.337000
C671	C67	0.874800	0.603400	0.560400
C681	C68	0.691800	0.766100	0.673700
C691	C69	0.235500	0.297900	0.043400
C701	C70	0.711700	0.363200	0.867200
C711	C71	0.871500	0.654300	0.325000
C721	C72	0.781800	0.206700	0.864100
C731	C73	0.807000	0.838800	0.096100
C741	C74	0.653800	0.104500	0.002400
C751	C75	0.871500	0.154300	0.675000
C761	C76	0.896100	0.054300	0.594300
C771	C77	0.173800	0.089400	0.145400
C781	C78	0.653700	0.311500	0.829300
C791	C79	0.652600	0.091600	0.709400
C801	C80	0.173800	0.589400	0.854600
C811	C81	0.288300	0.636800	0.132800
C821	C82	0.161700	0.241000	0.901700
C831	C83	0.874800	0.896600	0.060400
C841	C84	0.871500	0.845700	0.825000
C851	C85	0.452400	0.148800	0.505000
C861	C86	0.781800	0.793300	0.635900
C871	C87	0.664400	0.751300	0.953500
C881	C88	0.664400	0.748700	0.453500
C891	C89	0.443800	0.725200	0.471100
C901	C90	0.308200	0.766100	0.173700
C911	C91	0.702300	0.654200	0.259300
C921	C92	0.653800	0.604500	0.997600
C931	C93	0.652600	0.408400	0.209400
C941	C94	0.715100	0.441200	0.163000
C951	C95	0.161700	0.759000	0.598300
C961	C96	0.691800	0.266100	0.326300
C971	C97	0.308200	0.733900	0.673700
C981	C98	0.556200	0.725200	0.971100
C991	C99	0.452400	0.351200	0.005000
C1001	C100	0.218200	0.206700	0.364100
C1011	C101	0.781800	0.706700	0.135900
C1021	C102	0.443800	0.274800	0.028900
C1031	C103	0.284900	0.941200	0.337000
C1041	C104	0.874800	0.103400	0.439600
C1051	C105	0.193000	0.161200	0.903900
C1061	C106	0.188300	0.187000	0.222800
C1071	C107	0.161700	0.259000	0.401700
C1081	C108	0.838300	0.759000	0.098300
C1091	C109	0.452400	0.851200	0.995000
C1101	C110	0.826200	0.910600	0.854600
C1111	C111	0.173800	0.910600	0.354600
C1121	C112	0.811700	0.813000	0.777200
C1131	C113	0.188300	0.687000	0.777200
C1141	C114	0.346300	0.811500	0.670700
C1151	C115	0.664400	0.248700	0.546500
C1161	C116	0.346200	0.895500	0.997600
C1171	C117	0.711700	0.136800	0.367200
C1181	C118	0.288300	0.363200	0.367200
C1191	C119	0.346200	0.604500	0.497600
C1201	C120	0.691800	0.233900	0.826300
C1211	C121	0.346200	0.104500	0.502400
C1221	C122	0.764500	0.297900	0.543400
C1231	C123	0.443800	0.225200	0.528900
C1241	C124	0.896100	0.445700	0.094300
C1251	C125	0.702300	0.345800	0.240700
C1261	C126	0.874800	0.396600	0.939600
C1271	C127	0.335600	0.751300	0.453500
C1281	C128	0.452400	0.648800	0.495000
C1291	C129	0.335600	0.251300	0.546500
C1301	C130	0.346300	0.688500	0.170700
C1311	C131	0.284900	0.558800	0.837000
C1321	C132	0.807000	0.661200	0.596100
C1331	C133	0.103900	0.445700	0.594300
C1341	C134	0.838300	0.241000	0.401700
C1351	C135	0.653800	0.395500	0.502400
C1361	C136	0.193000	0.838800	0.596100
C1371	C137	0.347400	0.591600	0.790600
C1381	C138	0.826200	0.089400	0.645400
C1391	C139	0.715100	0.058800	0.663000
C1401	C140	0.826200	0.410600	0.145400
C1411	C141	0.764500	0.202100	0.043400
C1421	C142	0.838300	0.259000	0.901700
C1431	C143	0.896100	0.945700	0.905700
C1441	C144	0.103900	0.054300	0.094300
C1451	C145	0.664400	0.251300	0.046500
C1461	C146	0.288300	0.863200	0.632800
C1471	C147	0.125200	0.103400	0.939600
C1481	C148	0.188300	0.813000	0.277200
C1491	C149	0.347400	0.908400	0.290600
C1501	C150	0.347400	0.091600	0.209400
C1511	C151	0.335600	0.248700	0.046500
C1521	C152	0.308200	0.233900	0.326300
N11	N1	0.239900	0.130100	0.520500
N21	N2	0.239900	0.869900	0.979500
N31	N3	0.760100	0.630100	0.979500
N41	N4	0.760100	0.869900	0.479500
N51	N5	0.760100	0.369900	0.520500
N61	N6	0.239900	0.369900	0.020500
N71	N7	0.239900	0.630100	0.479500
N81	N8	0.760100	0.130100	0.020500
O11	O1	0.635100	0.316900	0.287700
O21	O2	0.851300	0.494900	0.431700
O31	O3	0.635100	0.816900	0.712300
O41	O4	0.168200	0.534900	0.053500
O51	O5	0.851300	0.505100	0.068300
O61	O6	0.004500	0.085100	0.081700
O71	O7	0.148700	0.494900	0.931700
O81	O8	0.851300	0.994900	0.568300
O91	O9	0.995500	0.914900	0.918300
O101	O10	0.024800	0.374300	0.461900
O111	O11	0.364900	0.316900	0.787700
O121	O12	0.168200	0.034900	0.946500
O131	O13	0.004500	0.585100	0.918300
O141	O14	0.831800	0.465100	0.946500
O151	O15	0.364900	0.816900	0.212300
O161	O16	0.168200	0.465100	0.446500
O171	O17	0.975200	0.625700	0.538100
O181	O18	0.148700	0.994900	0.068300
O191	O19	0.995500	0.085100	0.581700
O201	O20	0.975200	0.874300	0.038100
O211	O21	0.831800	0.034900	0.446500
O221	O22	0.831800	0.534900	0.553500
O231	O23	0.975200	0.374300	0.961900
O241	O24	0.004500	0.914900	0.418300
O251	O25	0.975200	0.125700	0.461900
O261	O26	0.364900	0.683100	0.712300
O271	O27	0.168200	0.965100	0.553500
O281	O28	0.364900	0.183100	0.287700
O291	O29	0.995500	0.585100	0.418300
O301	O30	0.024800	0.874300	0.538100
O311	O31	0.148700	0.005100	0.431700
O321	O32	0.148700	0.505100	0.568300
O331	O33	0.635100	0.183100	0.787700
O341	O34	0.024800	0.125700	0.961900
O351	O35	0.635100	0.683100	0.212300
O361	O36	0.831800	0.965100	0.053500
O371	O37	0.995500	0.414900	0.081700
O381	O38	0.004500	0.414900	0.581700
O391	O39	0.851300	0.005100	0.931700
O401	O40	0.024800	0.625700	0.038100
