data_ja203898s_si_004_clean_PM
_symmetry_space_group_name_H-M	'P1'
_cell_length_a	15.699800
_cell_length_b	15.699800
_cell_length_c	15.699800
_cell_angle_alpha	71.999300
_cell_angle_beta	71.999300
_cell_angle_gamma	71.999300
_symmetry_Int_Tables_number 1

loop_
_symmetry_equiv_pos_as_xyz
'x,y,z'

loop_
_atom_site_label
_atom_site_type_symbol
_atom_site_fract_x
_atom_site_fract_y
_atom_site_fract_z
Cu11	Cu1	0.945950	0.516650	0.944450
Cu21	Cu2	0.516650	0.944450	0.945950
Cu31	Cu3	0.054050	0.483350	0.055550
Cu41	Cu4	0.944450	0.945950	0.516650
Cu51	Cu5	0.055550	0.054050	0.483350
Cu61	Cu6	0.483350	0.055550	0.054050
H11	H1	0.344800	0.124600	0.228200
H21	H2	0.198900	0.593900	0.330800
H31	H3	0.228200	0.344800	0.124600
H41	H4	0.878700	0.247500	0.654500
H51	H5	0.760600	0.123400	0.337400
H61	H6	0.261300	0.968600	0.250700
H71	H7	0.337400	0.760600	0.123400
H81	H8	0.662600	0.239400	0.876600
H91	H9	0.352900	0.718900	0.885300
H101	H10	0.669200	0.801100	0.406100
H111	H11	0.738700	0.031400	0.749300
H121	H12	0.655200	0.875400	0.771800
H131	H13	0.239400	0.876600	0.662600
H141	H14	0.247500	0.654500	0.878700
H151	H15	0.114700	0.647100	0.281100
H161	H16	0.876600	0.662600	0.239400
H171	H17	0.330800	0.198900	0.593900
H181	H18	0.343800	0.183700	0.348600
H191	H19	0.816200	0.916300	0.421100
H201	H20	0.123400	0.337400	0.760600
H211	H21	0.647100	0.281100	0.114700
H221	H22	0.654500	0.878700	0.247500
H231	H23	0.749300	0.738700	0.031400
H241	H24	0.651400	0.656200	0.816300
H251	H25	0.529300	0.750900	0.676600
H261	H26	0.124600	0.228200	0.344800
H271	H27	0.406100	0.669200	0.801100
H281	H28	0.281100	0.114700	0.647100
H291	H29	0.593900	0.330800	0.198900
H301	H30	0.421100	0.816200	0.916300
H311	H31	0.676600	0.529300	0.750900
H321	H32	0.470700	0.249100	0.323400
H331	H33	0.083700	0.578900	0.183800
H341	H34	0.250700	0.261300	0.968600
H351	H35	0.875400	0.771800	0.655200
H361	H36	0.121300	0.752500	0.345500
H371	H37	0.885300	0.352900	0.718900
H381	H38	0.031400	0.749300	0.738700
H391	H39	0.968600	0.250700	0.261300
H401	H40	0.771800	0.655200	0.875400
H411	H41	0.345500	0.121300	0.752500
H421	H42	0.752500	0.345500	0.121300
H431	H43	0.348600	0.343800	0.183700
H441	H44	0.323400	0.470700	0.249100
H451	H45	0.718900	0.885300	0.352900
H461	H46	0.750900	0.676600	0.529300
H471	H47	0.183800	0.083700	0.578900
H481	H48	0.816300	0.651400	0.656200
H491	H49	0.656200	0.816300	0.651400
H501	H50	0.249100	0.323400	0.470700
H511	H51	0.578900	0.183800	0.083700
H521	H52	0.916300	0.421100	0.816200
H531	H53	0.183700	0.348600	0.343800
H541	H54	0.801100	0.406100	0.669200
C11	C1	0.391400	0.185600	0.293700
C21	C2	0.608600	0.814400	0.706300
C31	C3	0.379600	0.921300	0.112200
C41	C4	0.310800	0.871100	0.173900
C51	C5	0.173900	0.310800	0.871100
C61	C6	0.723200	0.532900	0.775700
C71	C7	0.210500	0.828900	0.702300
C81	C8	0.385600	0.728700	0.819400
C91	C9	0.533600	0.228200	0.199800
C101	C10	0.823900	0.126800	0.692000
C111	C11	0.128900	0.826100	0.689200
C121	C12	0.775700	0.723200	0.532900
C131	C13	0.076100	0.622100	0.886600
C141	C14	0.886600	0.076100	0.622100
C151	C15	0.692000	0.823900	0.126800
C161	C16	0.113400	0.923900	0.377900
C171	C17	0.826100	0.689200	0.128900
C181	C18	0.746700	0.233500	0.230400
C191	C19	0.078700	0.887800	0.620400
C201	C20	0.150400	0.220600	0.394700
C211	C21	0.112200	0.379600	0.921300
C221	C22	0.779400	0.605300	0.849600
C231	C23	0.085900	0.755600	0.747800
C241	C24	0.394700	0.150400	0.220600
C251	C25	0.706300	0.608600	0.814400
C261	C26	0.769600	0.253300	0.766500
C271	C27	0.467100	0.224300	0.276800
C281	C28	0.921300	0.112200	0.379600
C291	C29	0.828900	0.702300	0.210500
C301	C30	0.771800	0.800200	0.466400
C311	C31	0.887800	0.620400	0.078700
C321	C32	0.176100	0.873200	0.308000
C331	C33	0.789500	0.171100	0.297700
C341	C34	0.814400	0.706300	0.608600
C351	C35	0.863600	0.471200	0.813400
C361	C36	0.832800	0.217400	0.696600
C371	C37	0.471200	0.813400	0.863600
C381	C38	0.755600	0.747800	0.085900
C391	C39	0.696600	0.832800	0.217400
C401	C40	0.252200	0.914100	0.244400
C411	C41	0.308000	0.176100	0.873200
C421	C42	0.605300	0.849600	0.779400
C431	C43	0.923900	0.377900	0.113400
C441	C44	0.185600	0.293700	0.391400
C451	C45	0.217400	0.696600	0.832800
C461	C46	0.199800	0.533600	0.228200
C471	C47	0.293700	0.391400	0.185600
C481	C48	0.914100	0.244400	0.252200
C491	C49	0.303400	0.167200	0.782600
C501	C50	0.620400	0.078700	0.887800
C511	C51	0.782600	0.303400	0.167200
C521	C52	0.614400	0.271300	0.180600
C531	C53	0.167200	0.782600	0.303400
C541	C54	0.849600	0.779400	0.605300
C551	C55	0.233500	0.230400	0.746700
C561	C56	0.528800	0.186600	0.136400
C571	C57	0.873200	0.308000	0.176100
C581	C58	0.180600	0.614400	0.271300
C591	C59	0.532900	0.775700	0.723200
C601	C60	0.186600	0.136400	0.528800
C611	C61	0.689200	0.128900	0.826100
C621	C62	0.622100	0.886600	0.076100
C631	C63	0.126800	0.692000	0.823900
C641	C64	0.747800	0.085900	0.755600
C651	C65	0.297700	0.789500	0.171100
C661	C66	0.800200	0.466400	0.771800
C671	C67	0.728700	0.819400	0.385600
C681	C68	0.766500	0.769600	0.253300
C691	C69	0.244400	0.252200	0.914100
C701	C70	0.220600	0.394700	0.150400
C711	C71	0.819400	0.385600	0.728700
C721	C72	0.271300	0.180600	0.614400
C731	C73	0.136400	0.528800	0.186600
C741	C74	0.230400	0.746700	0.233500
C751	C75	0.228200	0.199800	0.533600
C761	C76	0.871100	0.173900	0.310800
C771	C77	0.813400	0.863600	0.471200
C781	C78	0.466400	0.771800	0.800200
C791	C79	0.702300	0.210500	0.828900
C801	C80	0.253300	0.766500	0.769600
C811	C81	0.171100	0.297700	0.789500
C821	C82	0.276800	0.467100	0.224300
C831	C83	0.224300	0.276800	0.467100
C841	C84	0.377900	0.113400	0.923900
N11	N1	0.458400	0.148500	0.142000
N21	N2	0.148500	0.142000	0.458400
N31	N3	0.851500	0.858000	0.541600
N41	N4	0.541600	0.851500	0.858000
N51	N5	0.142000	0.458400	0.148500
N61	N6	0.858000	0.541600	0.851500
O11	O1	0.986800	0.389500	0.133700
O21	O2	0.865300	0.603000	0.019000
O31	O3	0.866300	0.013200	0.610500
O41	O4	0.610500	0.866300	0.013200
O51	O5	0.110700	0.580300	0.957700
O61	O6	0.421800	0.888800	0.038900
O71	O7	0.957700	0.110700	0.580300
O81	O8	0.961100	0.578200	0.111200
O91	O9	0.889300	0.419700	0.042300
O101	O10	0.792900	0.766000	0.332200
O111	O11	0.578200	0.111200	0.961100
O121	O12	0.019000	0.865300	0.603000
O131	O13	0.397000	0.981000	0.134700
O141	O14	0.332200	0.792900	0.766000
O151	O15	0.888800	0.038900	0.421800
O161	O16	0.133700	0.986800	0.389500
O171	O17	0.042300	0.889300	0.419700
O181	O18	0.419700	0.042300	0.889300
O191	O19	0.234000	0.667800	0.207100
O201	O20	0.134700	0.397000	0.981000
O211	O21	0.603000	0.019000	0.865300
O221	O22	0.580300	0.957700	0.110700
O231	O23	0.013200	0.610500	0.866300
O241	O24	0.389500	0.133700	0.986800
O251	O25	0.981000	0.134700	0.397000
O261	O26	0.766000	0.332200	0.792900
O271	O27	0.667800	0.207100	0.234000
O281	O28	0.038900	0.421800	0.888800
O291	O29	0.207100	0.234000	0.667800
O301	O30	0.111200	0.961100	0.578200
