data_ja406030p_si_004_clean_PM
_symmetry_space_group_name_H-M	'P1'
_cell_length_a	18.947900
_cell_length_b	18.947900
_cell_length_c	35.912700
_cell_angle_alpha	90.000000
_cell_angle_beta	90.000000
_cell_angle_gamma	120.000000
_symmetry_Int_Tables_number 1

loop_
_symmetry_equiv_pos_as_xyz
'x,y,z'

loop_
_atom_site_label
_atom_site_type_symbol
_atom_site_fract_x
_atom_site_fract_y
_atom_site_fract_z
Zn11	Zn1	0.049390	0.524700	0.033600
Zn21	Zn2	0.049390	0.524700	0.466400
Zn31	Zn3	0.524690	0.475300	0.966400
Zn41	Zn4	0.524690	0.475300	0.533600
Zn51	Zn5	0.475310	0.950620	0.033600
Zn61	Zn6	0.950610	0.475300	0.533600
Zn71	Zn7	0.475310	0.524700	0.033600
Zn81	Zn8	0.524690	0.049380	0.533600
Zn91	Zn9	0.475310	0.524700	0.466400
Zn101	Zn10	0.475310	0.950620	0.466400
Zn111	Zn11	0.950610	0.475300	0.966400
Zn121	Zn12	0.524690	0.049380	0.966400
Cr11	Cr1	0.550080	0.275040	0.750000
Cr21	Cr2	0.449920	0.724960	0.250000
Cr31	Cr3	0.275040	0.724960	0.250000
Cr41	Cr4	0.724960	0.275040	0.750000
Cr51	Cr5	0.275040	0.550080	0.250000
Cr61	Cr6	0.724960	0.449920	0.750000
H11	H1	0.168100	0.831900	0.615700
H21	H2	0.474600	0.237300	0.003000
H31	H3	0.350500	0.905300	0.408700
H41	H4	0.466700	0.143200	0.651800
H51	H5	0.676500	0.143200	0.848200
H61	H6	0.676500	0.143200	0.651800
H71	H7	0.168100	0.831900	0.884300
H81	H8	0.084700	0.704100	0.590100
H91	H9	0.663800	0.831900	0.884300
H101	H10	0.831900	0.663800	0.384300
H111	H11	0.168100	0.336200	0.615700
H121	H12	0.466700	0.143200	0.848200
H131	H13	0.762700	0.237300	0.497000
H141	H14	0.094700	0.649500	0.408700
H151	H15	0.084700	0.380600	0.909900
H161	H16	0.084700	0.704100	0.909900
H171	H17	0.554800	0.905300	0.091300
H181	H18	0.143200	0.466700	0.151800
H191	H19	0.554800	0.905300	0.408700
H201	H20	0.094700	0.649500	0.091300
H211	H21	0.762700	0.237300	0.003000
H221	H22	0.831900	0.663800	0.115700
H231	H23	0.445200	0.350500	0.591300
H241	H24	0.905300	0.554800	0.591300
H251	H25	0.649500	0.554800	0.908700
H261	H26	0.649500	0.094700	0.591300
H271	H27	0.168100	0.336200	0.884300
H281	H28	0.445200	0.094700	0.591300
H291	H29	0.466700	0.323500	0.848200
H301	H30	0.350500	0.905300	0.091300
H311	H31	0.649500	0.554800	0.591300
H321	H32	0.474600	0.237300	0.497000
H331	H33	0.856800	0.323500	0.651800
H341	H34	0.295900	0.380600	0.909900
H351	H35	0.704100	0.619400	0.090100
H361	H36	0.237300	0.762700	0.997000
H371	H37	0.323500	0.856800	0.348200
H381	H38	0.676500	0.533300	0.848200
H391	H39	0.762700	0.525400	0.497000
H401	H40	0.237300	0.762700	0.503000
H411	H41	0.915300	0.295900	0.090100
H421	H42	0.905300	0.350500	0.591300
H431	H43	0.831900	0.168100	0.384300
H441	H44	0.704100	0.084700	0.409900
H451	H45	0.915300	0.619400	0.409900
H461	H46	0.094700	0.445200	0.408700
H471	H47	0.380600	0.295900	0.090100
H481	H48	0.295900	0.915300	0.909900
H491	H49	0.619400	0.915300	0.909900
H501	H50	0.323500	0.466700	0.348200
H511	H51	0.533300	0.856800	0.348200
H521	H52	0.533300	0.676500	0.348200
H531	H53	0.143200	0.676500	0.348200
H541	H54	0.663800	0.831900	0.615700
H551	H55	0.380600	0.084700	0.090100
H561	H56	0.336200	0.168100	0.115700
H571	H57	0.856800	0.533300	0.651800
H581	H58	0.350500	0.445200	0.091300
H591	H59	0.350500	0.445200	0.408700
H601	H60	0.525400	0.762700	0.503000
H611	H61	0.336200	0.168100	0.384300
H621	H62	0.380600	0.084700	0.409900
H631	H63	0.554800	0.649500	0.408700
H641	H64	0.445200	0.094700	0.908700
H651	H65	0.143200	0.676500	0.151800
H661	H66	0.466700	0.323500	0.651800
H671	H67	0.533300	0.676500	0.151800
H681	H68	0.533300	0.856800	0.151800
H691	H69	0.323500	0.466700	0.151800
H701	H70	0.525400	0.762700	0.997000
H711	H71	0.295900	0.380600	0.590100
H721	H72	0.380600	0.295900	0.409900
H731	H73	0.094700	0.445200	0.091300
H741	H74	0.619400	0.704100	0.909900
H751	H75	0.915300	0.619400	0.090100
H761	H76	0.704100	0.084700	0.090100
H771	H77	0.831900	0.168100	0.115700
H781	H78	0.143200	0.466700	0.348200
H791	H79	0.084700	0.380600	0.590100
H801	H80	0.905300	0.554800	0.908700
H811	H81	0.445200	0.350500	0.908700
H821	H82	0.237300	0.474600	0.997000
H831	H83	0.619400	0.915300	0.590100
H841	H84	0.915300	0.295900	0.409900
H851	H85	0.856800	0.533300	0.848200
H861	H86	0.762700	0.525400	0.003000
H871	H87	0.554800	0.649500	0.091300
H881	H88	0.905300	0.350500	0.908700
H891	H89	0.856800	0.323500	0.848200
H901	H90	0.323500	0.856800	0.151800
H911	H91	0.676500	0.533300	0.651800
H921	H92	0.619400	0.704100	0.590100
H931	H93	0.704100	0.619400	0.409900
H941	H94	0.237300	0.474600	0.503000
H951	H95	0.649500	0.094700	0.908700
H961	H96	0.295900	0.915300	0.590100
C11	C1	0.453900	0.358100	0.025950
C21	C2	0.592470	0.184940	0.803660
C31	C3	0.894700	0.506200	0.896250
C41	C4	0.278000	0.848600	0.956380
C51	C5	0.426380	0.852760	0.158050
C61	C6	0.722000	0.570600	0.043620
C71	C7	0.742000	0.608900	0.422390
C81	C8	0.505900	0.372300	0.860150
C91	C9	0.551700	0.775850	0.973430
C101	C10	0.866900	0.608900	0.422390
C111	C11	0.095800	0.641900	0.525950
C121	C12	0.570600	0.722000	0.956380
C131	C13	0.407530	0.815060	0.196340
C141	C14	0.815060	0.407530	0.696340
C151	C15	0.372300	0.505900	0.139850
C161	C16	0.258000	0.866900	0.922390
C171	C17	0.105300	0.611500	0.396250
C181	C18	0.151400	0.722000	0.543620
C191	C19	0.866400	0.372300	0.860150
C201	C20	0.627700	0.494100	0.860150
C211	C21	0.506200	0.894700	0.103750
C221	C22	0.573620	0.147240	0.658050
C231	C23	0.388500	0.894700	0.103750
C241	C24	0.848600	0.278000	0.043620
C251	C25	0.184000	0.368000	0.593700
C261	C26	0.775850	0.224150	0.473430
C271	C27	0.133600	0.505900	0.360150
C281	C28	0.151400	0.429400	0.956380
C291	C29	0.358100	0.453900	0.525950
C301	C30	0.505900	0.133600	0.639850
C311	C31	0.573620	0.426380	0.841950
C321	C32	0.133600	0.505900	0.139850
C331	C33	0.775850	0.224150	0.026570
C341	C34	0.224150	0.448300	0.526570
C351	C35	0.493800	0.388500	0.896250
C361	C36	0.133100	0.391100	0.577610
C371	C37	0.848600	0.278000	0.456380
C381	C38	0.388500	0.894700	0.396250
C391	C39	0.866400	0.494100	0.860150
C401	C40	0.151400	0.722000	0.956380
C411	C41	0.546100	0.641900	0.974050
C421	C42	0.506200	0.894700	0.396250
C431	C43	0.570600	0.722000	0.543620
C441	C44	0.894700	0.388500	0.603750
C451	C45	0.493800	0.105300	0.896250
C461	C46	0.105300	0.611500	0.103750
C471	C47	0.358100	0.453900	0.974050
C481	C48	0.627700	0.133600	0.860150
C491	C49	0.372300	0.505900	0.360150
C501	C50	0.407530	0.815060	0.303660
C511	C51	0.258000	0.866900	0.577610
C521	C52	0.866900	0.608900	0.077610
C531	C53	0.592470	0.184940	0.696340
C541	C54	0.133100	0.742000	0.577610
C551	C55	0.278000	0.848600	0.543620
C561	C56	0.742000	0.608900	0.077610
C571	C57	0.722000	0.570600	0.456380
C581	C58	0.258000	0.391100	0.922390
C591	C59	0.426380	0.852760	0.341950
C601	C60	0.506200	0.611500	0.103750
C611	C61	0.866400	0.372300	0.639850
C621	C62	0.453900	0.358100	0.474050
C631	C63	0.742000	0.133100	0.077610
C641	C64	0.904200	0.358100	0.474050
C651	C65	0.493800	0.105300	0.603750
C661	C66	0.815060	0.407530	0.803660
C671	C67	0.429400	0.278000	0.043620
C681	C68	0.551700	0.775850	0.526570
C691	C69	0.852760	0.426380	0.658050
C701	C70	0.546100	0.904200	0.525950
C711	C71	0.453900	0.095800	0.025950
C721	C72	0.573620	0.426380	0.658050
C731	C73	0.184000	0.368000	0.906300
C741	C74	0.494100	0.866400	0.360150
C751	C75	0.570600	0.848600	0.956380
C761	C76	0.608900	0.866900	0.922390
C771	C77	0.848600	0.570600	0.043620
C781	C78	0.608900	0.866900	0.577610
C791	C79	0.866400	0.494100	0.639850
C801	C80	0.775850	0.551700	0.026570
C811	C81	0.184940	0.592470	0.303660
C821	C82	0.816000	0.184000	0.406300
C831	C83	0.546100	0.904200	0.974050
C841	C84	0.722000	0.151400	0.456380
C851	C85	0.641900	0.546100	0.474050
C861	C86	0.641900	0.095800	0.474050
C871	C87	0.426380	0.573620	0.341950
C881	C88	0.904200	0.546100	0.474050
C891	C89	0.184000	0.816000	0.593700
C901	C90	0.358100	0.904200	0.525950
C911	C91	0.894700	0.506200	0.603750
C921	C92	0.611500	0.105300	0.603750
C931	C93	0.407530	0.592470	0.303660
C941	C94	0.494100	0.627700	0.139850
C951	C95	0.611500	0.105300	0.896250
C961	C96	0.592470	0.407530	0.803660
C971	C97	0.429400	0.151400	0.043620
C981	C98	0.147240	0.573620	0.158050
C991	C99	0.105300	0.493800	0.396250
C1001	C100	0.258000	0.391100	0.577610
C1011	C101	0.391100	0.133100	0.077610
C1021	C102	0.627700	0.494100	0.639850
C1031	C103	0.627700	0.133600	0.639850
C1041	C104	0.448300	0.224150	0.473430
C1051	C105	0.095800	0.453900	0.974050
C1061	C106	0.133600	0.627700	0.360150
C1071	C107	0.095800	0.641900	0.974050
C1081	C108	0.546100	0.641900	0.525950
C1091	C109	0.372300	0.866400	0.360150
C1101	C110	0.278000	0.429400	0.543620
C1111	C111	0.816000	0.632000	0.093700
C1121	C112	0.388500	0.493800	0.103750
C1131	C113	0.866900	0.258000	0.077610
C1141	C114	0.391100	0.258000	0.077610
C1151	C115	0.391100	0.258000	0.422390
C1161	C116	0.278000	0.429400	0.956380
C1171	C117	0.866900	0.258000	0.422390
C1181	C118	0.388500	0.493800	0.396250
C1191	C119	0.816000	0.632000	0.406300
C1201	C120	0.372300	0.866400	0.139850
C1211	C121	0.573620	0.147240	0.841950
C1221	C122	0.368000	0.184000	0.093700
C1231	C123	0.133600	0.627700	0.139850
C1241	C124	0.151400	0.429400	0.543620
C1251	C125	0.894700	0.388500	0.896250
C1261	C126	0.448300	0.224150	0.026570
C1271	C127	0.391100	0.133100	0.422390
C1281	C128	0.775850	0.551700	0.473430
C1291	C129	0.184000	0.816000	0.906300
C1301	C130	0.095800	0.453900	0.525950
C1311	C131	0.105300	0.493800	0.103750
C1321	C132	0.147240	0.573620	0.341950
C1331	C133	0.632000	0.816000	0.906300
C1341	C134	0.429400	0.151400	0.456380
C1351	C135	0.133100	0.742000	0.922390
C1361	C136	0.494100	0.627700	0.360150
C1371	C137	0.407530	0.592470	0.196340
C1381	C138	0.224150	0.448300	0.973430
C1391	C139	0.505900	0.372300	0.639850
C1401	C140	0.493800	0.388500	0.603750
C1411	C141	0.592470	0.407530	0.696340
C1421	C142	0.904200	0.546100	0.025950
C1431	C143	0.608900	0.742000	0.922390
C1441	C144	0.632000	0.816000	0.593700
C1451	C145	0.426380	0.573620	0.158050
C1461	C146	0.133100	0.391100	0.922390
C1471	C147	0.641900	0.095800	0.025950
C1481	C148	0.358100	0.904200	0.974050
C1491	C149	0.641900	0.546100	0.025950
C1501	C150	0.722000	0.151400	0.043620
C1511	C151	0.224150	0.775850	0.526570
C1521	C152	0.816000	0.184000	0.093700
C1531	C153	0.184940	0.592470	0.196340
C1541	C154	0.506200	0.611500	0.396250
C1551	C155	0.848600	0.570600	0.456380
C1561	C156	0.505900	0.133600	0.860150
C1571	C157	0.368000	0.184000	0.406300
C1581	C158	0.608900	0.742000	0.577610
C1591	C159	0.494100	0.866400	0.139850
C1601	C160	0.611500	0.506200	0.896250
C1611	C161	0.852760	0.426380	0.841950
C1621	C162	0.453900	0.095800	0.474050
C1631	C163	0.570600	0.848600	0.543620
C1641	C164	0.611500	0.506200	0.603750
C1651	C165	0.429400	0.278000	0.456380
C1661	C166	0.904200	0.358100	0.025950
C1671	C167	0.742000	0.133100	0.422390
C1681	C168	0.224150	0.775850	0.973430
N11	N1	0.092620	0.546310	0.414120
N21	N2	0.453690	0.907380	0.085880
N31	N3	0.546310	0.092620	0.585880
N41	N4	0.546310	0.092620	0.914120
N51	N5	0.546310	0.453690	0.914120
N61	N6	0.453690	0.907380	0.414120
N71	N7	0.092620	0.546310	0.085880
N81	N8	0.546310	0.453690	0.585880
N91	N9	0.453690	0.546310	0.414120
N101	N10	0.907380	0.453690	0.914120
N111	N11	0.453690	0.546310	0.085880
N121	N12	0.907380	0.453690	0.585880
O11	O1	0.591800	0.035300	0.456130
O21	O2	0.459330	0.799940	0.210260
O31	O3	0.482770	0.113620	0.506370
O41	O4	0.964700	0.556500	0.043870
O51	O5	0.443500	0.408200	0.456130
O61	O6	0.659390	0.200060	0.710260
O71	O7	0.630850	0.113620	0.506370
O81	O8	0.113620	0.630850	0.006370
O91	O9	0.482770	0.369150	0.506370
O101	O10	0.369150	0.886380	0.493630
O111	O11	0.659390	0.459330	0.710260
O121	O12	0.459330	0.799940	0.289740
O131	O13	0.886380	0.369150	0.506370
O141	O14	0.333330	0.666660	0.250000
O151	O15	0.886380	0.369150	0.993630
O161	O16	0.799940	0.340610	0.710260
O171	O17	0.886380	0.517230	0.506370
O181	O18	0.443500	0.408200	0.043870
O191	O19	0.556500	0.591800	0.956130
O201	O20	0.964700	0.556500	0.456130
O211	O21	0.799940	0.340610	0.789740
O221	O22	0.591800	0.035300	0.043870
O231	O23	0.799940	0.459330	0.710260
O241	O24	0.659390	0.459330	0.789740
O251	O25	0.666670	0.333340	0.750000
O261	O26	0.556500	0.591800	0.543870
O271	O27	0.035300	0.443500	0.543870
O281	O28	0.113620	0.630850	0.493630
O291	O29	0.630850	0.517230	0.993630
O301	O30	0.591800	0.556500	0.043870
O311	O31	0.113620	0.482770	0.006370
O321	O32	0.556500	0.964700	0.543870
O331	O33	0.799940	0.459330	0.789740
O341	O34	0.035300	0.591800	0.543870
O351	O35	0.369150	0.886380	0.006370
O361	O36	0.200060	0.659390	0.289740
O371	O37	0.517230	0.886380	0.006370
O381	O38	0.540670	0.200060	0.710260
O391	O39	0.443500	0.035300	0.043870
O401	O40	0.964700	0.408200	0.043870
O411	O41	0.459330	0.659390	0.210260
O421	O42	0.540670	0.340610	0.789740
O431	O43	0.200060	0.540670	0.289740
O441	O44	0.408200	0.964700	0.543870
O451	O45	0.369150	0.482770	0.006370
O461	O46	0.035300	0.443500	0.956130
O471	O47	0.340610	0.799940	0.210260
O481	O48	0.517230	0.630850	0.493630
O491	O49	0.556500	0.964700	0.956130
O501	O50	0.035300	0.591800	0.956130
O511	O51	0.408200	0.443500	0.956130
O521	O52	0.886380	0.517230	0.993630
O531	O53	0.659390	0.200060	0.789740
O541	O54	0.630850	0.113620	0.993630
O551	O55	0.517230	0.630850	0.006370
O561	O56	0.340610	0.540670	0.210260
O571	O57	0.340610	0.799940	0.289740
O581	O58	0.482770	0.369150	0.993630
O591	O59	0.408200	0.964700	0.956130
O601	O60	0.369150	0.482770	0.493630
O611	O61	0.482770	0.113620	0.993630
O621	O62	0.200060	0.540670	0.210260
O631	O63	0.630850	0.517230	0.506370
O641	O64	0.459330	0.659390	0.289740
O651	O65	0.964700	0.408200	0.456130
O661	O66	0.443500	0.035300	0.456130
O671	O67	0.517230	0.886380	0.493630
O681	O68	0.200060	0.659390	0.210260
O691	O69	0.113620	0.482770	0.493630
O701	O70	0.591800	0.556500	0.456130
O711	O71	0.540670	0.340610	0.710260
O721	O72	0.540670	0.200060	0.789740
O731	O73	0.340610	0.540670	0.289740
O741	O74	0.408200	0.443500	0.543870
