data_ja407778a_si_003_clean_PM
_symmetry_space_group_name_H-M	'P1'
_cell_length_a	9.533000
_cell_length_b	10.203700
_cell_length_c	10.203700
_cell_angle_alpha	109.865000
_cell_angle_beta	110.118000
_cell_angle_gamma	69.881800
_symmetry_Int_Tables_number 1

loop_
_symmetry_equiv_pos_as_xyz
'x,y,z'

loop_
_atom_site_label
_atom_site_type_symbol
_atom_site_fract_x
_atom_site_fract_y
_atom_site_fract_z
Mg11	Mg1	0.000000	0.000000	0.000000
Mg21	Mg2	0.500000	0.000000	0.000000
H11	H1	0.147900	0.657900	0.905300
H21	H2	0.138200	0.870200	0.329400
H31	H3	0.361800	0.329400	0.870200
H41	H4	0.852100	0.342100	0.094700
H51	H5	0.638200	0.670600	0.129800
H61	H6	0.352100	0.905300	0.657900
H71	H7	0.647900	0.094700	0.342100
H81	H8	0.861800	0.129800	0.670600
C11	C1	0.582700	0.601710	0.078090
C21	C2	0.655500	0.195860	0.955940
C31	C3	0.076800	0.020360	0.646240
C41	C4	0.341300	0.541960	0.940240
C51	C5	0.923200	0.979640	0.353760
C61	C6	0.423200	0.646240	0.020360
C71	C7	0.658700	0.458040	0.059760
C81	C8	0.417300	0.398290	0.921910
C91	C9	0.841300	0.059760	0.458040
C101	C10	0.576800	0.353760	0.979640
C111	C11	0.158700	0.940240	0.541960
C121	C12	0.155500	0.044060	0.804140
C131	C13	0.344500	0.804140	0.044060
C141	C14	0.844500	0.955940	0.195860
C151	C15	0.917300	0.078090	0.601710
C161	C16	0.082700	0.921910	0.398290
O11	O1	0.187700	0.572400	0.874400
O21	O2	0.801800	0.163190	0.984410
O31	O3	0.812300	0.427600	0.125600
O41	O4	0.923800	0.907800	0.107320
O51	O5	0.312300	0.874400	0.572400
O61	O6	0.687700	0.125600	0.427600
O71	O7	0.301800	0.015590	0.836810
O81	O8	0.198200	0.836810	0.015590
O91	O9	0.576200	0.107320	0.907800
O101	O10	0.076200	0.092200	0.892680
O111	O11	0.698200	0.984410	0.163190
O121	O12	0.423800	0.892680	0.092200
