data_ja507269n_si_002_clean_PM
_symmetry_space_group_name_H-M	'P1'
_cell_length_a	31.269400
_cell_length_b	31.269400
_cell_length_c	16.953600
_cell_angle_alpha	90.000000
_cell_angle_beta	90.000000
_cell_angle_gamma	120.000000
_symmetry_Int_Tables_number 1

loop_
_symmetry_equiv_pos_as_xyz
'x,y,z'

loop_
_atom_site_label
_atom_site_type_symbol
_atom_site_fract_x
_atom_site_fract_y
_atom_site_fract_z
O11	O1	0.253570	0.663090	0.419880
C11	C1	0.183770	0.552490	0.295380
C21	C2	0.147970	0.534590	0.234680
H11	H1	0.196870	0.528090	0.318080
H21	H2	0.134170	0.497090	0.211680
O21	O2	0.336910	0.590490	0.419880
C31	C3	0.447510	0.631290	0.295380
C41	C4	0.465410	0.613390	0.234680
H31	H3	0.471910	0.668790	0.318080
H41	H4	0.502910	0.637090	0.211680
O31	O3	0.409510	0.746430	0.419880
C51	C5	0.368710	0.816230	0.295380
C61	C6	0.386610	0.852030	0.234680
H51	H5	0.331210	0.803130	0.318080
H61	H6	0.362910	0.865830	0.211680
O41	O4	0.746430	0.336910	0.419880
C71	C7	0.816230	0.447510	0.295380
C81	C8	0.852030	0.465410	0.234680
H71	H7	0.803130	0.471910	0.318080
H81	H8	0.865830	0.502910	0.211680
O51	O5	0.663090	0.409510	0.419880
C91	C9	0.552490	0.368710	0.295380
C101	C10	0.534590	0.386610	0.234680
H91	H9	0.528090	0.331210	0.318080
H101	H10	0.497090	0.362910	0.211680
O61	O6	0.590490	0.253570	0.419880
C111	C11	0.631290	0.183770	0.295380
C121	C12	0.613390	0.147970	0.234680
H111	H11	0.668790	0.196870	0.318080
H121	H12	0.637090	0.134170	0.211680
O71	O7	0.663090	0.253570	0.580120
C131	C13	0.552490	0.183770	0.704620
C141	C14	0.534590	0.147970	0.765320
H131	H13	0.528090	0.196870	0.681920
H141	H14	0.497090	0.134170	0.788320
O81	O8	0.590490	0.336910	0.580120
C151	C15	0.631290	0.447510	0.704620
C161	C16	0.613390	0.465410	0.765320
H151	H15	0.668790	0.471910	0.681920
H161	H16	0.637090	0.502910	0.788320
O91	O9	0.746430	0.409510	0.580120
C171	C17	0.816230	0.368710	0.704620
C181	C18	0.852030	0.386610	0.765320
H171	H17	0.803130	0.331210	0.681920
H181	H18	0.865830	0.362910	0.788320
O101	O10	0.336910	0.746430	0.580120
C191	C19	0.447510	0.816230	0.704620
C201	C20	0.465410	0.852030	0.765320
H191	H19	0.471910	0.803130	0.681920
H201	H20	0.502910	0.865830	0.788320
O111	O11	0.409510	0.663090	0.580120
C211	C21	0.368710	0.552490	0.704620
C221	C22	0.386610	0.534590	0.765320
H211	H21	0.331210	0.528090	0.681920
H221	H22	0.362910	0.497090	0.788320
O121	O12	0.253570	0.590490	0.580120
C231	C23	0.183770	0.631290	0.704620
C241	C24	0.147970	0.613390	0.765320
H231	H23	0.196870	0.668790	0.681920
H241	H24	0.134170	0.637090	0.788320
O131	O13	0.746430	0.336910	0.580120
C251	C25	0.816230	0.447510	0.704620
C261	C26	0.852030	0.465410	0.765320
H251	H25	0.803130	0.471910	0.681920
H261	H26	0.865830	0.502910	0.788320
O141	O14	0.663090	0.409510	0.580120
C271	C27	0.552490	0.368710	0.704620
C281	C28	0.534590	0.386610	0.765320
H271	H27	0.528090	0.331210	0.681920
H281	H28	0.497090	0.362910	0.788320
O151	O15	0.590490	0.253570	0.580120
C291	C29	0.631290	0.183770	0.704620
C301	C30	0.613390	0.147970	0.765320
H291	H29	0.668790	0.196870	0.681920
H301	H30	0.637090	0.134170	0.788320
O161	O16	0.253570	0.663090	0.580120
C311	C31	0.183770	0.552490	0.704620
C321	C32	0.147970	0.534590	0.765320
H311	H31	0.196870	0.528090	0.681920
H321	H32	0.134170	0.497090	0.788320
O171	O17	0.336910	0.590490	0.580120
C331	C33	0.447510	0.631290	0.704620
C341	C34	0.465410	0.613390	0.765320
H331	H33	0.471910	0.668790	0.681920
H341	H34	0.502910	0.637090	0.788320
O181	O18	0.409510	0.746430	0.580120
C351	C35	0.368710	0.816230	0.704620
C361	C36	0.386610	0.852030	0.765320
H351	H35	0.331210	0.803130	0.681920
H361	H36	0.362910	0.865830	0.788320
O191	O19	0.336910	0.746430	0.419880
C371	C37	0.447510	0.816230	0.295380
C381	C38	0.465410	0.852030	0.234680
H371	H37	0.471910	0.803130	0.318080
H381	H38	0.502910	0.865830	0.211680
O201	O20	0.409510	0.663090	0.419880
C391	C39	0.368710	0.552490	0.295380
C401	C40	0.386610	0.534590	0.234680
H391	H39	0.331210	0.528090	0.318080
H401	H40	0.362910	0.497090	0.211680
O211	O21	0.253570	0.590490	0.419880
C411	C41	0.183770	0.631290	0.295380
C421	C42	0.147970	0.613390	0.234680
H411	H41	0.196870	0.668790	0.318080
H421	H42	0.134170	0.637090	0.211680
O221	O22	0.663090	0.253570	0.419880
C431	C43	0.552490	0.183770	0.295380
C441	C44	0.534590	0.147970	0.234680
H431	H43	0.528090	0.196870	0.318080
H441	H44	0.497090	0.134170	0.211680
O231	O23	0.590490	0.336910	0.419880
C451	C45	0.631290	0.447510	0.295380
C461	C46	0.613390	0.465410	0.234680
H451	H45	0.668790	0.471910	0.318080
H461	H46	0.637090	0.502910	0.211680
O241	O24	0.746430	0.409510	0.419880
C471	C47	0.816230	0.368710	0.295380
C481	C48	0.852030	0.386610	0.234680
H471	H47	0.803130	0.331210	0.318080
H481	H48	0.865830	0.362910	0.211680
Fe11	Fe1	0.298930	0.701070	0.500000
Fe21	Fe2	0.298930	0.597870	0.500000
Fe31	Fe3	0.402130	0.701070	0.500000
Fe41	Fe4	0.701070	0.298930	0.500000
Fe51	Fe5	0.701070	0.402130	0.500000
Fe61	Fe6	0.597870	0.298930	0.500000
O251	O25	0.333330	0.666670	0.500000
O261	O26	0.666670	0.333330	0.500000
Fe71	Fe7	0.000000	0.500000	0.000000
Fe81	Fe8	0.500000	0.500000	0.000000
Fe91	Fe9	0.500000	0.000000	0.000000
Cl11	Cl1	0.000000	0.573600	0.000000
Cl21	Cl2	0.426400	0.426400	0.000000
Cl31	Cl3	0.573600	0.000000	0.000000
Cl41	Cl4	0.000000	0.426400	0.000000
Cl51	Cl5	0.573600	0.573600	0.000000
Cl61	Cl6	0.426400	0.000000	0.000000
C491	C49	0.238770	0.619390	0.392780
C501	C50	0.201970	0.600990	0.326880
C511	C51	0.129770	0.564890	0.204380
C521	C52	0.090370	0.545190	0.141880
C531	C53	0.104370	0.552190	0.063080
C541	C54	0.154370	0.577190	0.039880
C551	C55	0.040570	0.520290	0.163880
C561	C56	0.025970	0.512990	0.242680
H491	H49	0.187570	0.593790	0.077080
H501	H50	0.049370	0.524690	0.295180
C571	C57	0.380610	0.619390	0.392780
C581	C58	0.399010	0.600990	0.326880
C591	C59	0.435110	0.564890	0.204380
C601	C60	0.454810	0.545190	0.141880
C611	C61	0.447810	0.552190	0.063080
C621	C62	0.422810	0.577190	0.039880
C631	C63	0.479710	0.520290	0.163880
C641	C64	0.487010	0.512990	0.242680
H511	H51	0.406210	0.593790	0.077080
H521	H52	0.475310	0.524690	0.295180
C651	C65	0.380610	0.761230	0.392780
C661	C66	0.399010	0.798030	0.326880
C671	C67	0.435110	0.870230	0.204380
C681	C68	0.454810	0.909630	0.141880
C691	C69	0.447810	0.895630	0.063080
C701	C70	0.422810	0.845630	0.039880
C711	C71	0.479710	0.959430	0.163880
C721	C72	0.487010	0.974030	0.242680
H531	H53	0.406210	0.812430	0.077080
H541	H54	0.475310	0.950630	0.295180
C731	C73	0.761230	0.380610	0.392780
C741	C74	0.798030	0.399010	0.326880
C751	C75	0.870230	0.435110	0.204380
C761	C76	0.909630	0.454810	0.141880
C771	C77	0.895630	0.447810	0.063080
C781	C78	0.845630	0.422810	0.039880
C791	C79	0.959430	0.479710	0.163880
C801	C80	0.974030	0.487010	0.242680
H551	H55	0.812430	0.406210	0.077080
H561	H56	0.950630	0.475310	0.295180
C811	C81	0.619390	0.380610	0.392780
C821	C82	0.600990	0.399010	0.326880
C831	C83	0.564890	0.435110	0.204380
C841	C84	0.545190	0.454810	0.141880
C851	C85	0.552190	0.447810	0.063080
C861	C86	0.577190	0.422810	0.039880
C871	C87	0.520290	0.479710	0.163880
C881	C88	0.512990	0.487010	0.242680
H571	H57	0.593790	0.406210	0.077080
H581	H58	0.524690	0.475310	0.295180
C891	C89	0.619390	0.238770	0.392780
C901	C90	0.600990	0.201970	0.326880
C911	C91	0.564890	0.129770	0.204380
C921	C92	0.545190	0.090370	0.141880
C931	C93	0.552190	0.104370	0.063080
C941	C94	0.577190	0.154370	0.039880
C951	C95	0.520290	0.040570	0.163880
C961	C96	0.512990	0.025970	0.242680
H591	H59	0.593790	0.187570	0.077080
H601	H60	0.524690	0.049370	0.295180
C971	C97	0.619390	0.238770	0.607220
C981	C98	0.600990	0.201970	0.673120
C991	C99	0.564890	0.129770	0.795620
C1001	C100	0.545190	0.090370	0.858120
C1011	C101	0.552190	0.104370	0.936920
C1021	C102	0.577190	0.154370	0.960120
C1031	C103	0.520290	0.040570	0.836120
C1041	C104	0.512990	0.025970	0.757320
H611	H61	0.593790	0.187570	0.922920
H621	H62	0.524690	0.049370	0.704820
C1051	C105	0.619390	0.380610	0.607220
C1061	C106	0.600990	0.399010	0.673120
C1071	C107	0.564890	0.435110	0.795620
C1081	C108	0.545190	0.454810	0.858120
C1091	C109	0.552190	0.447810	0.936920
C1101	C110	0.577190	0.422810	0.960120
C1111	C111	0.520290	0.479710	0.836120
C1121	C112	0.512990	0.487010	0.757320
H631	H63	0.593790	0.406210	0.922920
H641	H64	0.524690	0.475310	0.704820
C1131	C113	0.761230	0.380610	0.607220
C1141	C114	0.798030	0.399010	0.673120
C1151	C115	0.870230	0.435110	0.795620
C1161	C116	0.909630	0.454810	0.858120
C1171	C117	0.895630	0.447810	0.936920
C1181	C118	0.845630	0.422810	0.960120
C1191	C119	0.959430	0.479710	0.836120
C1201	C120	0.974030	0.487010	0.757320
H651	H65	0.812430	0.406210	0.922920
H661	H66	0.950630	0.475310	0.704820
C1211	C121	0.380610	0.761230	0.607220
C1221	C122	0.399010	0.798030	0.673120
C1231	C123	0.435110	0.870230	0.795620
C1241	C124	0.454810	0.909630	0.858120
C1251	C125	0.447810	0.895630	0.936920
C1261	C126	0.422810	0.845630	0.960120
C1271	C127	0.479710	0.959430	0.836120
C1281	C128	0.487010	0.974030	0.757320
H671	H67	0.406210	0.812430	0.922920
H681	H68	0.475310	0.950630	0.704820
C1291	C129	0.380610	0.619390	0.607220
C1301	C130	0.399010	0.600990	0.673120
C1311	C131	0.435110	0.564890	0.795620
C1321	C132	0.454810	0.545190	0.858120
C1331	C133	0.447810	0.552190	0.936920
C1341	C134	0.422810	0.577190	0.960120
C1351	C135	0.479710	0.520290	0.836120
C1361	C136	0.487010	0.512990	0.757320
H691	H69	0.406210	0.593790	0.922920
H701	H70	0.475310	0.524690	0.704820
C1371	C137	0.238770	0.619390	0.607220
C1381	C138	0.201970	0.600990	0.673120
C1391	C139	0.129770	0.564890	0.795620
C1401	C140	0.090370	0.545190	0.858120
C1411	C141	0.104370	0.552190	0.936920
C1421	C142	0.154370	0.577190	0.960120
C1431	C143	0.040570	0.520290	0.836120
C1441	C144	0.025970	0.512990	0.757320
H711	H71	0.187570	0.593790	0.922920
H721	H72	0.049370	0.524690	0.704820
N11	N1	0.072570	0.536290	0.000000
N21	N2	0.463710	0.536290	0.000000
N31	N3	0.463710	0.927430	0.000000
N41	N4	0.927430	0.463710	0.000000
N51	N5	0.536290	0.463710	0.000000
N61	N6	0.536290	0.072570	0.000000
N71	N7	0.000000	0.500000	0.113580
N81	N8	0.500000	0.500000	0.113580
N91	N9	0.500000	0.000000	0.113580
N101	N10	0.500000	0.000000	0.886420
N111	N11	0.500000	0.500000	0.886420
N121	N12	0.000000	0.500000	0.886420
