data_ja500618z_si_004_clean_PM
_symmetry_space_group_name_H-M	'P1'
_cell_length_a	8.530300
_cell_length_b	9.053100
_cell_length_c	11.991800
_cell_angle_alpha	90.000000
_cell_angle_beta	90.000000
_cell_angle_gamma	90.000000
_symmetry_Int_Tables_number 1

loop_
_symmetry_equiv_pos_as_xyz
'x,y,z'

loop_
_atom_site_label
_atom_site_type_symbol
_atom_site_fract_x
_atom_site_fract_y
_atom_site_fract_z
Mn11	Mn1	0.249160	0.250000	0.750000
Mn21	Mn2	0.250840	0.250000	0.250000
Mn31	Mn3	0.750840	0.750000	0.250000
Mn41	Mn4	0.749160	0.750000	0.750000
H11	H1	0.417800	0.564500	0.768000
H21	H2	0.082200	0.935500	0.268000
H31	H3	0.082200	0.564500	0.232000
H41	H4	0.250000	0.292600	0.500000
H51	H5	0.750000	0.707400	0.500000
H61	H6	0.917800	0.064500	0.732000
H71	H7	0.417800	0.935500	0.732000
H81	H8	0.582200	0.064500	0.268000
H91	H9	0.917800	0.435500	0.768000
H101	H10	0.250000	0.207400	0.000000
H111	H11	0.750000	0.792600	0.000000
H121	H12	0.582200	0.435500	0.232000
C11	C1	0.750000	0.689900	0.000000
C21	C2	0.981220	0.015550	0.783120
C31	C3	0.518780	0.015550	0.216880
C41	C4	0.250000	0.310100	0.000000
C51	C5	0.518780	0.484450	0.283120
C61	C6	0.018780	0.984450	0.216880
C71	C7	0.981220	0.484450	0.716880
C81	C8	0.018780	0.515550	0.283120
C91	C9	0.750000	0.810100	0.500000
C101	C10	0.250000	0.189900	0.500000
C111	C11	0.481220	0.515550	0.716880
C121	C12	0.481220	0.984450	0.783120
O11	O1	0.755450	0.870830	0.407680
O21	O2	0.744550	0.870830	0.592320
O31	O3	0.596230	0.583870	0.680190
O41	O4	0.903770	0.583870	0.319810
O51	O5	0.903770	0.916130	0.180190
O61	O6	0.096230	0.416130	0.680190
O71	O7	0.556520	0.612100	0.308560
O81	O8	0.096230	0.083870	0.819810
O91	O9	0.244550	0.129170	0.592320
O101	O10	0.443480	0.112100	0.808560
O111	O11	0.255450	0.370830	0.092320
O121	O12	0.244550	0.370830	0.907680
O131	O13	0.056520	0.112100	0.191440
O141	O14	0.943480	0.612100	0.691440
O151	O15	0.443480	0.387900	0.691440
O161	O16	0.056520	0.387900	0.308560
O171	O17	0.556520	0.887900	0.191440
O181	O18	0.744550	0.629170	0.907680
O191	O19	0.943480	0.887900	0.808560
O201	O20	0.596230	0.916130	0.819810
O211	O21	0.403770	0.083870	0.180190
O221	O22	0.255450	0.129170	0.407680
O231	O23	0.403770	0.416130	0.319810
O241	O24	0.755450	0.629170	0.092320
