data_ja506357n_si_002_clean_PM
_symmetry_space_group_name_H-M	'P1'
_cell_length_a	9.860100
_cell_length_b	12.730700
_cell_length_c	17.647800
_cell_angle_alpha	90.000000
_cell_angle_beta	90.000000
_cell_angle_gamma	90.000000
_symmetry_Int_Tables_number 1

loop_
_symmetry_equiv_pos_as_xyz
'x,y,z'

loop_
_atom_site_label
_atom_site_type_symbol
_atom_site_fract_x
_atom_site_fract_y
_atom_site_fract_z
Cu11	Cu1	0.000000	0.250000	0.160080
Cu21	Cu2	0.500000	0.750000	0.660080
H11	H1	0.579100	0.199300	0.017300
H21	H2	0.369800	0.678000	0.817400
H31	H3	0.630200	0.822000	0.817400
H41	H4	0.638900	0.526700	0.693500
H51	H5	0.420900	0.300700	0.017300
H61	H6	0.036400	0.619600	0.416500
H71	H7	0.861100	0.026700	0.193500
H81	H8	0.607200	0.502500	0.487000
H91	H9	0.780700	0.922100	0.887000
H101	H10	0.130200	0.178000	0.317400
H111	H11	0.869800	0.322000	0.317400
H121	H12	0.536400	0.380400	0.916500
H131	H13	0.392800	0.997500	0.487000
H141	H14	0.892800	0.002500	0.987000
H151	H15	0.219300	0.577900	0.887000
H161	H16	0.138900	0.473300	0.193500
H171	H17	0.107200	0.497500	0.987000
H181	H18	0.463600	0.119600	0.916500
H191	H19	0.079100	0.800700	0.517300
H201	H20	0.361100	0.973300	0.693500
H211	H21	0.719300	0.422100	0.387000
H221	H22	0.920900	0.699300	0.517300
H231	H23	0.280700	0.077900	0.387000
H241	H24	0.963600	0.880400	0.416500
C11	C1	0.739800	0.979000	0.913300
C21	C2	0.886000	0.515100	0.392700
C31	C3	0.194600	0.473200	0.972700
C41	C4	0.448500	0.403800	0.930800
C51	C5	0.069400	0.126300	0.298600
C61	C6	0.076300	0.457400	0.232700
C71	C7	0.923700	0.042600	0.232700
C81	C8	0.321400	0.835300	0.575000
C91	C9	0.948500	0.596200	0.430800
C101	C10	0.114000	0.984900	0.392700
C111	C11	0.379500	0.357000	0.990700
C121	C12	0.747600	0.109300	0.012300
C131	C13	0.752400	0.609300	0.512300
C141	C14	0.805400	0.026800	0.972700
C151	C15	0.678600	0.664700	0.575000
C161	C16	0.051500	0.903800	0.430800
C171	C17	0.551500	0.096200	0.930800
C181	C18	0.614000	0.015100	0.892700
C191	C19	0.247600	0.890700	0.512300
C201	C20	0.569400	0.873700	0.798600
C211	C21	0.252400	0.390700	0.012300
C221	C22	0.879500	0.643000	0.490700
C231	C23	0.423700	0.957400	0.732700
C241	C24	0.239800	0.021000	0.413300
C251	C25	0.694600	0.526800	0.472700
C261	C26	0.576300	0.542600	0.732700
C271	C27	0.386000	0.484900	0.892700
C281	C28	0.260200	0.521000	0.913300
C291	C29	0.178600	0.335300	0.075000
C301	C30	0.760200	0.479000	0.413300
C311	C31	0.930600	0.373700	0.298600
C321	C32	0.821400	0.164700	0.075000
C331	C33	0.305400	0.973200	0.472700
C341	C34	0.620500	0.143000	0.990700
C351	C35	0.430600	0.626300	0.798600
C361	C36	0.120500	0.857000	0.490700
N11	N1	0.952700	0.468100	0.329400
N21	N2	0.047300	0.031900	0.329400
N31	N3	0.007800	0.364000	0.237400
N41	N4	0.507800	0.636000	0.737400
N51	N5	0.952900	0.977400	0.287700
N61	N6	0.547300	0.968100	0.829400
N71	N7	0.047100	0.522600	0.287700
N81	N8	0.452900	0.022600	0.787700
N91	N9	0.547100	0.477400	0.787700
N101	N10	0.492200	0.864000	0.737400
N111	N11	0.992200	0.136000	0.237400
N121	N12	0.452700	0.531900	0.829400
O11	O1	0.948700	0.148100	0.080410
O21	O2	0.448700	0.851900	0.580410
O31	O3	0.258700	0.775900	0.617900
O41	O4	0.741300	0.724100	0.617900
O51	O5	0.051300	0.351900	0.080410
O61	O6	0.758700	0.224100	0.117900
O71	O7	0.551300	0.648100	0.580410
O81	O8	0.241300	0.275900	0.117900
Cu31	Cu3	0.500000	0.250000	0.339920
Cu41	Cu4	0.000000	0.750000	0.839920
H251	H25	0.638900	0.026700	0.306500
H261	H26	0.579100	0.699300	0.982700
H271	H27	0.138900	0.973300	0.806500
H281	H28	0.780700	0.422100	0.113000
H291	H29	0.036400	0.119600	0.583500
H301	H30	0.463600	0.619600	0.083500
H311	H31	0.861100	0.526700	0.806500
H321	H32	0.630200	0.322000	0.182600
H331	H33	0.536400	0.880400	0.083500
H341	H34	0.392800	0.497500	0.513000
H351	H35	0.130200	0.678000	0.682600
H361	H36	0.719300	0.922100	0.613000
H371	H37	0.869800	0.822000	0.682600
H381	H38	0.361100	0.473300	0.306500
H391	H39	0.369800	0.178000	0.182600
H401	H40	0.420900	0.800700	0.982700
H411	H41	0.607200	0.002500	0.513000
H421	H42	0.963600	0.380400	0.583500
H431	H43	0.892800	0.502500	0.013000
H441	H44	0.219300	0.077900	0.113000
H451	H45	0.107200	0.997500	0.013000
H461	H46	0.079100	0.300700	0.482700
H471	H47	0.920900	0.199300	0.482700
H481	H48	0.280700	0.577900	0.613000
C371	C37	0.886000	0.015100	0.607300
C381	C38	0.194600	0.973200	0.027300
C391	C39	0.120500	0.357000	0.509300
C401	C40	0.260200	0.021000	0.086700
C411	C41	0.051500	0.403800	0.569200
C421	C42	0.930600	0.873700	0.701400
C431	C43	0.760200	0.979000	0.586700
C441	C44	0.076300	0.957400	0.767300
C451	C45	0.239800	0.521000	0.586700
C461	C46	0.178600	0.835300	0.925000
C471	C47	0.247600	0.390700	0.487700
C481	C48	0.430600	0.126300	0.201400
C491	C49	0.576300	0.042600	0.267300
C501	C50	0.423700	0.457400	0.267300
C511	C51	0.923700	0.542600	0.767300
C521	C52	0.620500	0.643000	0.009300
C531	C53	0.386000	0.984900	0.107300
C541	C54	0.879500	0.143000	0.509300
C551	C55	0.114000	0.484900	0.607300
C561	C56	0.694600	0.026800	0.527300
C571	C57	0.569400	0.373700	0.201400
C581	C58	0.448500	0.903800	0.069200
C591	C59	0.614000	0.515100	0.107300
C601	C60	0.821400	0.664700	0.925000
C611	C61	0.678600	0.164700	0.425000
C621	C62	0.321400	0.335300	0.425000
C631	C63	0.551500	0.596200	0.069200
C641	C64	0.305400	0.473200	0.527300
C651	C65	0.948500	0.096200	0.569200
C661	C66	0.069400	0.626300	0.701400
C671	C67	0.752400	0.109300	0.487700
C681	C68	0.252400	0.890700	0.987700
C691	C69	0.379500	0.857000	0.009300
C701	C70	0.747600	0.609300	0.987700
C711	C71	0.739800	0.479000	0.086700
C721	C72	0.805400	0.526800	0.027300
N131	N13	0.492200	0.364000	0.262600
N141	N14	0.452900	0.522600	0.212300
N151	N15	0.047100	0.022600	0.712300
N161	N16	0.547300	0.468100	0.170600
N171	N17	0.007800	0.864000	0.762600
N181	N18	0.047300	0.531900	0.670600
N191	N19	0.952900	0.477400	0.712300
N201	N20	0.992200	0.636000	0.762600
N211	N21	0.952700	0.968100	0.670600
N221	N22	0.507800	0.136000	0.262600
N231	N23	0.547100	0.977400	0.212300
N241	N24	0.452700	0.031900	0.170600
O91	O9	0.551300	0.148100	0.419590
O101	O10	0.758700	0.724100	0.882100
O111	O11	0.241300	0.775900	0.882100
O121	O12	0.448700	0.351900	0.419590
O131	O13	0.948700	0.648100	0.919590
O141	O14	0.051300	0.851900	0.919590
O151	O15	0.258700	0.275900	0.382100
O161	O16	0.741300	0.224100	0.382100
