data_ja500618z_si_008_clean_PM
_symmetry_space_group_name_H-M	'P1'
_cell_length_a	8.561100
_cell_length_b	9.042600
_cell_length_c	12.020400
_cell_angle_alpha	90.000000
_cell_angle_beta	90.000000
_cell_angle_gamma	90.000000
_symmetry_Int_Tables_number 1

loop_
_symmetry_equiv_pos_as_xyz
'x,y,z'

loop_
_atom_site_label
_atom_site_type_symbol
_atom_site_fract_x
_atom_site_fract_y
_atom_site_fract_z
Mn11	Mn1	0.248500	0.250000	0.250000
Mn21	Mn2	0.751500	0.750000	0.750000
Mn31	Mn3	0.748500	0.750000	0.250000
Mn41	Mn4	0.251500	0.250000	0.750000
H11	H1	0.079100	0.564600	0.230900
H21	H2	0.079100	0.935400	0.269100
H31	H3	0.420900	0.935400	0.730900
H41	H4	0.579100	0.064600	0.269100
H51	H5	0.750000	0.794300	0.000000
H61	H6	0.750000	0.705700	0.500000
H71	H7	0.250000	0.294300	0.500000
H81	H8	0.920900	0.435400	0.769100
H91	H9	0.920900	0.064600	0.730900
H101	H10	0.579100	0.435400	0.230900
H111	H11	0.250000	0.205700	0.000000
H121	H12	0.420900	0.564600	0.769100
C11	C1	0.016400	0.984460	0.217760
C21	C2	0.016400	0.515540	0.282240
C31	C3	0.983600	0.484460	0.717760
C41	C4	0.516400	0.015540	0.217760
C51	C5	0.250000	0.191400	0.500000
C61	C6	0.250000	0.308600	0.000000
C71	C7	0.983600	0.015540	0.782240
C81	C8	0.750000	0.808600	0.500000
C91	C9	0.483600	0.515540	0.717760
C101	C10	0.750000	0.691400	0.000000
C111	C11	0.483600	0.984460	0.782240
C121	C12	0.516400	0.484460	0.282240
O11	O1	0.753560	0.630860	0.091870
O21	O2	0.555170	0.610920	0.307920
O31	O3	0.598220	0.583310	0.681590
O41	O4	0.555170	0.889080	0.192080
O51	O5	0.444830	0.110920	0.807920
O61	O6	0.253560	0.369140	0.091870
O71	O7	0.901780	0.916690	0.181590
O81	O8	0.246440	0.369140	0.908130
O91	O9	0.598220	0.916690	0.818410
O101	O10	0.444830	0.389080	0.692080
O111	O11	0.746440	0.630860	0.908130
O121	O12	0.055170	0.110920	0.192080
O131	O13	0.401780	0.083310	0.181590
O141	O14	0.944830	0.889080	0.807920
O151	O15	0.098220	0.416690	0.681590
O161	O16	0.098220	0.083310	0.818410
O171	O17	0.246440	0.130860	0.591870
O181	O18	0.253560	0.130860	0.408130
O191	O19	0.746440	0.869140	0.591870
O201	O20	0.901780	0.583310	0.318410
O211	O21	0.055170	0.389080	0.307920
O221	O22	0.753560	0.869140	0.408130
O231	O23	0.401780	0.416690	0.318410
O241	O24	0.944830	0.610920	0.692080
