data_ja5131269_si_002_clean_PM
_symmetry_space_group_name_H-M	'P1'
_cell_length_a	17.066900
_cell_length_b	17.089400
_cell_length_c	17.089400
_cell_angle_alpha	90.241800
_cell_angle_beta	91.679800
_cell_angle_gamma	91.679800
_symmetry_Int_Tables_number 1

loop_
_symmetry_equiv_pos_as_xyz
'x,y,z'

loop_
_atom_site_label
_atom_site_type_symbol
_atom_site_fract_x
_atom_site_fract_y
_atom_site_fract_z
Zn11	Zn1	0.683020	0.786380	0.916480
Zn21	Zn2	0.813830	0.787820	0.787820
Zn31	Zn3	0.814170	0.919470	0.919470
Zn41	Zn4	0.683020	0.916480	0.786380
H11	H1	0.654900	0.405800	0.926200
H21	H2	0.661300	0.156200	0.778600
H31	H3	0.660900	0.293200	0.776800
H41	H4	0.199600	0.942000	0.942000
H51	H5	0.660900	0.776800	0.293200
H61	H6	0.836800	0.550000	0.781200
H71	H7	0.839700	0.938200	0.301800
H81	H8	0.836800	0.781200	0.550000
H91	H9	0.304000	0.767600	0.929400
H101	H10	0.655800	0.929600	0.542800
H111	H11	0.304000	0.929400	0.767600
H121	H12	0.654900	0.926200	0.405800
H131	H13	0.179300	0.775000	0.775000
H141	H14	0.840200	0.940000	0.165000
H151	H15	0.435600	0.764100	0.926700
H161	H16	0.435600	0.926700	0.764100
H171	H17	0.840200	0.165000	0.940000
H181	H18	0.839700	0.301800	0.938200
H191	H19	0.065000	0.946800	0.946800
H201	H20	0.835900	0.413000	0.777800
H211	H21	0.044300	0.781400	0.781400
H221	H22	0.655800	0.542800	0.929600
H231	H23	0.835900	0.777800	0.413000
H241	H24	0.661300	0.778600	0.156200
C11	C1	0.750800	0.859500	0.147700
C21	C2	0.799300	0.808600	0.439400
C31	C3	0.451200	0.851300	0.851300
C41	C4	0.751500	0.860500	0.060500
C51	C5	0.803800	0.906900	0.190900
C61	C6	0.799300	0.439400	0.808600
C71	C7	0.750800	0.147700	0.859500
C81	C8	0.751500	0.060500	0.860500
C91	C9	0.750300	0.310400	0.857200
C101	C10	0.799900	0.520700	0.810700
C111	C11	0.746400	0.855700	0.559300
C121	C12	0.697300	0.267100	0.809900
C131	C13	0.799900	0.810700	0.520700
C141	C14	0.076500	0.814500	0.814500
C151	C15	0.692400	0.516400	0.898800
C161	C16	0.750300	0.857200	0.310400
C171	C17	0.409100	0.801400	0.895400
C181	C18	0.691800	0.435100	0.896700
C191	C19	0.738500	0.851300	0.645700
C201	C20	0.803800	0.190900	0.906900
C211	C21	0.803500	0.905700	0.272300
C221	C22	0.539100	0.850300	0.850300
C231	C23	0.738500	0.645700	0.851300
C241	C24	0.088000	0.911600	0.911600
C251	C25	0.697600	0.185800	0.811000
C261	C26	0.746400	0.559300	0.855700
C271	C27	0.202900	0.858400	0.858400
C281	C28	0.745300	0.851700	0.396500
C291	C29	0.409100	0.895400	0.801400
C301	C30	0.697600	0.811000	0.185800
C311	C31	0.803500	0.272300	0.905700
C321	C32	0.953600	0.871200	0.871200
C331	C33	0.156500	0.810200	0.810200
C341	C34	0.331200	0.802900	0.896100
C351	C35	0.041100	0.864600	0.864600
C361	C36	0.697300	0.809900	0.267100
C371	C37	0.745300	0.396500	0.851700
C381	C38	0.691800	0.896700	0.435100
C391	C39	0.331200	0.896100	0.802900
C401	C40	0.167800	0.908700	0.908700
C411	C41	0.692400	0.898800	0.516400
C421	C42	0.289900	0.851900	0.851900
O11	O1	0.790800	0.812800	0.679400
O21	O2	0.925100	0.912200	0.912200
O31	O3	0.748700	0.852800	0.852800
O41	O4	0.919300	0.816600	0.816600
O51	O5	0.574400	0.804900	0.898900
O61	O6	0.797700	0.904700	0.030300
O71	O7	0.703400	0.811900	0.025900
O81	O8	0.797700	0.030300	0.904700
O91	O9	0.574400	0.898900	0.804900
O101	O10	0.790800	0.679400	0.812800
O111	O11	0.695500	0.676400	0.900800
O121	O12	0.703400	0.025900	0.811900
O131	O13	0.695500	0.900800	0.676400
Zn51	Zn5	0.316980	0.213620	0.083520
Zn61	Zn6	0.186170	0.212180	0.212180
Zn71	Zn7	0.316980	0.083520	0.213620
Zn81	Zn8	0.185830	0.080530	0.080530
H251	H25	0.344200	0.070400	0.457200
H261	H26	0.339100	0.223200	0.706800
H271	H27	0.564400	0.235900	0.073300
H281	H28	0.800400	0.058000	0.058000
H291	H29	0.564400	0.073300	0.235900
H301	H30	0.338700	0.843800	0.221400
H311	H31	0.344200	0.457200	0.070400
H321	H32	0.164100	0.222200	0.587000
H331	H33	0.160300	0.061800	0.698200
H341	H34	0.159800	0.835000	0.060000
H351	H35	0.159800	0.060000	0.835000
H361	H36	0.820700	0.225000	0.225000
H371	H37	0.338700	0.221400	0.843800
H381	H38	0.345100	0.073800	0.594200
H391	H39	0.163200	0.218800	0.450000
H401	H40	0.696000	0.232400	0.070600
H411	H41	0.164100	0.587000	0.222200
H421	H42	0.935000	0.053200	0.053200
H431	H43	0.163200	0.450000	0.218800
H441	H44	0.955700	0.218600	0.218600
H451	H45	0.160300	0.698200	0.061800
H461	H46	0.696000	0.070600	0.232400
H471	H47	0.345100	0.594200	0.073800
H481	H48	0.339100	0.706800	0.223200
C431	C43	0.046400	0.128800	0.128800
C441	C44	0.548800	0.148700	0.148700
C451	C45	0.308200	0.564900	0.103300
C461	C46	0.710100	0.148100	0.148100
C471	C47	0.200100	0.189300	0.479300
C481	C48	0.958900	0.135400	0.135400
C491	C49	0.196200	0.093100	0.809100
C501	C50	0.912000	0.088400	0.088400
C511	C51	0.668800	0.103900	0.197100
C521	C52	0.253600	0.440700	0.144300
C531	C53	0.307600	0.101200	0.483600
C541	C54	0.200700	0.560600	0.191400
C551	C55	0.308200	0.103300	0.564900
C561	C56	0.254700	0.603500	0.148300
C571	C57	0.460900	0.149700	0.149700
C581	C58	0.302700	0.190100	0.732900
C591	C59	0.196500	0.727700	0.094300
C601	C60	0.248500	0.139500	0.939500
C611	C61	0.248500	0.939500	0.139500
C621	C62	0.590900	0.198600	0.104600
C631	C63	0.923500	0.185500	0.185500
C641	C64	0.302400	0.189000	0.814200
C651	C65	0.196200	0.809100	0.093100
C661	C66	0.590900	0.104600	0.198600
C671	C67	0.200100	0.479300	0.189300
C681	C68	0.249700	0.689600	0.142800
C691	C69	0.261500	0.148700	0.354300
C701	C70	0.307600	0.483600	0.101200
C711	C71	0.668800	0.197100	0.103900
C721	C72	0.200700	0.191400	0.560600
C731	C73	0.254700	0.148300	0.603500
C741	C74	0.253600	0.144300	0.440700
C751	C75	0.302400	0.814200	0.189000
C761	C76	0.832200	0.091300	0.091300
C771	C77	0.261500	0.354300	0.148700
C781	C78	0.249200	0.852300	0.140500
C791	C79	0.843500	0.189800	0.189800
C801	C80	0.249200	0.140500	0.852300
C811	C81	0.797100	0.141600	0.141600
C821	C82	0.196500	0.094300	0.727700
C831	C83	0.302700	0.732900	0.190100
C841	C84	0.249700	0.142800	0.689600
O141	O14	0.296600	0.974100	0.188100
O151	O15	0.209200	0.187200	0.320600
O161	O16	0.304500	0.323600	0.099200
O171	O17	0.074900	0.087800	0.087800
O181	O18	0.202300	0.095300	0.969700
O191	O19	0.251300	0.147200	0.147200
O201	O20	0.296600	0.188100	0.974100
O211	O21	0.425600	0.195100	0.101100
O221	O22	0.425600	0.101100	0.195100
O231	O23	0.209200	0.320600	0.187200
O241	O24	0.304500	0.099200	0.323600
O251	O25	0.202300	0.969700	0.095300
O261	O26	0.080700	0.183400	0.183400
