data_ja5131269_si_003_clean_PM
_symmetry_space_group_name_H-M	'P1'
_cell_length_a	17.084700
_cell_length_b	17.120100
_cell_length_c	17.120100
_cell_angle_alpha	90.087600
_cell_angle_beta	92.092000
_cell_angle_gamma	87.908000
_symmetry_Int_Tables_number 1

loop_
_symmetry_equiv_pos_as_xyz
'x,y,z'

loop_
_atom_site_label
_atom_site_type_symbol
_atom_site_fract_x
_atom_site_fract_y
_atom_site_fract_z
Zn11	Zn1	0.316050	0.415420	0.715300
Zn21	Zn2	0.184050	0.418770	0.581230
Zn31	Zn3	0.185780	0.287500	0.712500
Zn41	Zn4	0.316050	0.284700	0.584580
H11	H1	0.168000	0.285100	0.952700
H21	H2	0.559100	0.429100	0.729900
H31	H3	0.336700	0.277000	0.343600
H41	H4	0.343500	0.904000	0.575200
H51	H5	0.954500	0.280300	0.719700
H61	H6	0.689100	0.282500	0.554500
H71	H7	0.346400	0.431700	0.963700
H81	H8	0.165500	0.912200	0.708800
H91	H9	0.689100	0.445500	0.717500
H101	H10	0.167900	0.799200	0.562000
H111	H11	0.165500	0.291200	0.087800
H121	H12	0.929700	0.446200	0.553800
H131	H13	0.346400	0.036300	0.568300
H141	H14	0.348700	0.283500	0.212300
H151	H15	0.348700	0.787700	0.716500
H161	H16	0.709500	0.313400	0.686600
H171	H17	0.559100	0.270100	0.570900
H181	H18	0.163600	0.435300	0.335300
H191	H19	0.821400	0.269700	0.730300
H201	H20	0.163600	0.664700	0.564700
H211	H21	0.167900	0.438000	0.200800
H221	H22	0.168000	0.047300	0.714900
H231	H23	0.796500	0.439700	0.560300
H241	H24	0.343500	0.424800	0.096000
H251	H25	0.336700	0.656400	0.723000
C11	C1	0.204800	0.317900	0.061900
C21	C2	0.460400	0.350200	0.649800
C31	C3	0.309600	0.012300	0.600100
C41	C4	0.256900	0.895600	0.644400
C51	C5	0.257700	0.357800	0.855200
C61	C6	0.309600	0.399900	0.987700
C71	C7	0.250300	0.355200	0.353000
C81	C8	0.044300	0.364400	0.635600
C91	C9	0.248600	0.355300	0.439900
C101	C10	0.301800	0.685800	0.688800
C111	C11	0.307600	0.763500	0.687900
C121	C12	0.955900	0.363500	0.636500
C131	C13	0.252700	0.807500	0.644700
C141	C14	0.664200	0.310900	0.594900
C151	C15	0.585700	0.307700	0.601900
C161	C16	0.257500	0.356500	0.942700
C171	C17	0.585700	0.398100	0.692300
C181	C18	0.204800	0.938100	0.682100
C191	C19	0.200500	0.690100	0.597700
C201	C20	0.306600	0.396100	0.066100
C211	C21	0.707600	0.354700	0.645300
C221	C22	0.252700	0.355300	0.192500
C231	C23	0.256900	0.355600	0.104400
C241	C24	0.301800	0.311200	0.314200
C251	C25	0.664200	0.405100	0.689100
C261	C26	0.257500	0.057300	0.643500
C271	C27	0.250300	0.647000	0.644800
C281	C28	0.543300	0.352000	0.648000
C291	C29	0.907800	0.410900	0.589100
C301	C30	0.257700	0.144800	0.642200
C311	C31	0.200500	0.402300	0.309900
C321	C32	0.204800	0.315500	0.981100
C331	C33	0.248600	0.560100	0.644700
C341	C34	0.306600	0.933900	0.603900
C351	C35	0.202400	0.403300	0.229900
C361	C36	0.204800	0.018900	0.684500
C371	C37	0.307600	0.312100	0.236500
C381	C38	0.920500	0.312600	0.687400
C391	C39	0.842800	0.305100	0.694900
C401	C40	0.202400	0.770100	0.596700
C411	C41	0.829300	0.406800	0.593200
C421	C42	0.795200	0.356600	0.643400
O11	O1	0.426100	0.396600	0.697060
O21	O2	0.082400	0.317300	0.682700
O31	O3	0.426100	0.302940	0.603400
O41	O4	0.202450	0.401840	0.471140
O51	O5	0.294100	0.307820	0.475580
O61	O6	0.072200	0.410700	0.589300
O71	O7	0.304900	0.175940	0.598740
O81	O8	0.202450	0.528860	0.598160
O91	O9	0.206900	0.180900	0.689700
O101	O10	0.304900	0.401260	0.824060
O111	O11	0.206900	0.310300	0.819100
O121	O12	0.250920	0.351640	0.648360
O131	O13	0.294100	0.524420	0.692180
Zn51	Zn5	0.683950	0.715300	0.415420
Zn61	Zn6	0.814220	0.712500	0.287500
Zn71	Zn7	0.815950	0.581230	0.418770
Zn81	Zn8	0.683950	0.584580	0.284700
H261	H26	0.663300	0.723000	0.656400
H271	H27	0.045500	0.719700	0.280300
H281	H28	0.832100	0.562000	0.799200
H291	H29	0.290500	0.686600	0.313400
H301	H30	0.653600	0.963700	0.431700
H311	H31	0.663300	0.343600	0.277000
H321	H32	0.310900	0.554500	0.282500
H331	H33	0.310900	0.717500	0.445500
H341	H34	0.656500	0.096000	0.424800
H351	H35	0.178600	0.730300	0.269700
H361	H36	0.653600	0.568300	0.036300
H371	H37	0.834500	0.087800	0.291200
H381	H38	0.203500	0.560300	0.439700
H391	H39	0.832100	0.200800	0.438000
H401	H40	0.834500	0.708800	0.912200
H411	H41	0.651300	0.716500	0.787700
H421	H42	0.836400	0.335300	0.435300
H431	H43	0.656500	0.575200	0.904000
H441	H44	0.832000	0.952700	0.285100
H451	H45	0.440900	0.570900	0.270100
H461	H46	0.832000	0.714900	0.047300
H471	H47	0.836400	0.564700	0.664700
H481	H48	0.070300	0.553800	0.446200
H491	H49	0.651300	0.212300	0.283500
H501	H50	0.440900	0.729900	0.429100
C431	C43	0.044100	0.636500	0.363500
C441	C44	0.795200	0.682100	0.938100
C451	C45	0.751400	0.439900	0.355300
C461	C46	0.335800	0.594900	0.310900
C471	C47	0.795200	0.061900	0.317900
C481	C48	0.795200	0.981100	0.315500
C491	C49	0.795200	0.684500	0.018900
C501	C50	0.742300	0.642200	0.144800
C511	C51	0.456700	0.648000	0.352000
C521	C52	0.693400	0.066100	0.396100
C531	C53	0.292400	0.645300	0.354700
C541	C54	0.690400	0.987700	0.399900
C551	C55	0.799500	0.309900	0.402300
C561	C56	0.692400	0.687900	0.763500
C571	C57	0.092200	0.589100	0.410900
C581	C58	0.751400	0.644700	0.560100
C591	C59	0.747300	0.644700	0.807500
C601	C60	0.539600	0.649800	0.350200
C611	C61	0.743100	0.644400	0.895600
C621	C62	0.204800	0.643400	0.356600
C631	C63	0.742300	0.855200	0.357800
C641	C64	0.157200	0.694900	0.305100
C651	C65	0.749700	0.644800	0.647000
C661	C66	0.747300	0.192500	0.355300
C671	C67	0.335800	0.689100	0.405100
C681	C68	0.742500	0.942700	0.356500
C691	C69	0.797600	0.229900	0.403300
C701	C70	0.414300	0.692300	0.398100
C711	C71	0.799500	0.597700	0.690100
C721	C72	0.749700	0.353000	0.355200
C731	C73	0.690400	0.600100	0.012300
C741	C74	0.742500	0.643500	0.057300
C751	C75	0.698200	0.688800	0.685800
C761	C76	0.692400	0.236500	0.312100
C771	C77	0.743100	0.104400	0.355600
C781	C78	0.797600	0.596700	0.770100
C791	C79	0.698200	0.314200	0.311200
C801	C80	0.170700	0.593200	0.406800
C811	C81	0.414300	0.601900	0.307700
C821	C82	0.955700	0.635600	0.364400
C831	C83	0.693400	0.603900	0.933900
C841	C84	0.079500	0.687400	0.312600
O141	O14	0.793100	0.819100	0.310300
O151	O15	0.917600	0.682700	0.317300
O161	O16	0.695100	0.824060	0.401260
O171	O17	0.573900	0.697060	0.396600
O181	O18	0.797550	0.471140	0.401840
O191	O19	0.927800	0.589300	0.410700
O201	O20	0.749080	0.648360	0.351640
O211	O21	0.797550	0.598160	0.528860
O221	O22	0.573900	0.603400	0.302940
O231	O23	0.695100	0.598740	0.175940
O241	O24	0.705900	0.692180	0.524420
O251	O25	0.793100	0.689700	0.180900
O261	O26	0.705900	0.475580	0.307820
