data_ja5b02897_si_003_clean_PM
_symmetry_space_group_name_H-M	'P1'
_cell_length_a	7.187400
_cell_length_b	16.086000
_cell_length_c	16.086000
_cell_angle_alpha	62.178000
_cell_angle_beta	81.434600
_cell_angle_gamma	98.565400
_symmetry_Int_Tables_number 1

loop_
_symmetry_equiv_pos_as_xyz
'x,y,z'

loop_
_atom_site_label
_atom_site_type_symbol
_atom_site_fract_x
_atom_site_fract_y
_atom_site_fract_z
Fe11	Fe1	0.422580	0.410870	0.331580
Fe21	Fe2	0.754160	0.331580	0.257550
Fe31	Fe3	0.245840	0.668420	0.742450
Fe41	Fe4	0.011710	0.257550	0.410870
Fe51	Fe5	0.988290	0.742450	0.589130
Fe61	Fe6	0.577420	0.589130	0.668420
H11	H1	0.735400	0.545000	0.443400
H21	H2	0.821200	0.556600	0.988400
H31	H3	0.809600	0.988400	0.455000
H41	H4	0.264600	0.455000	0.556600
H51	H5	0.178800	0.443400	0.011600
H61	H6	0.190400	0.011600	0.545000
C11	C1	0.800400	0.598600	0.817600
C21	C2	0.091900	0.546100	0.545600
C31	C3	0.311500	0.467000	0.006700
C41	C4	0.560700	0.488700	0.084300
C51	C5	0.645000	0.084300	0.427000
C61	C6	0.199600	0.401400	0.182400
C71	C7	0.439300	0.511300	0.915700
C81	C8	0.844500	0.526300	0.467000
C91	C9	0.454200	0.091700	0.453900
C101	C10	0.201800	0.583800	0.598600
C111	C11	0.382000	0.182400	0.416200
C121	C12	0.545800	0.908300	0.546100
C131	C13	0.928000	0.573000	0.511300
C141	C14	0.681800	0.993300	0.473700
C151	C15	0.072000	0.427000	0.488700
C161	C16	0.355000	0.915700	0.573000
C171	C17	0.318200	0.006700	0.526300
C181	C18	0.155500	0.473700	0.533000
C191	C19	0.908100	0.453900	0.454400
C201	C20	0.688500	0.533000	0.993300
C211	C21	0.798200	0.416200	0.401400
C221	C22	0.618000	0.817600	0.583800
C231	C23	0.637500	0.545600	0.908300
C241	C24	0.362500	0.454400	0.091700
S11	S1	0.818970	0.664000	0.513290
S21	S2	0.845030	0.177290	0.336000
S31	S3	0.667740	0.486710	0.177290
S41	S4	0.154970	0.822710	0.664000
S51	S5	0.332260	0.513290	0.822710
S61	S6	0.181030	0.336000	0.486710
O11	O1	0.798170	0.830040	0.557630
O21	O2	0.230590	0.369290	0.266420
O31	O3	0.497010	0.266420	0.364290
O41	O4	0.861300	0.364290	0.369290
O51	O5	0.031870	0.387670	0.169960
O61	O6	0.968130	0.612330	0.830040
O71	O7	0.769410	0.630710	0.733580
O81	O8	0.138700	0.635710	0.630710
O91	O9	0.502990	0.733580	0.635710
O101	O10	0.644200	0.442370	0.387670
O111	O11	0.201830	0.169960	0.442370
O121	O12	0.355800	0.557630	0.612330
