data_ja808995d_si_002_clean_PM
_symmetry_space_group_name_H-M	'P1'
_cell_length_a	34.313800
_cell_length_b	34.313800
_cell_length_c	34.313800
_cell_angle_alpha	60.000000
_cell_angle_beta	60.000000
_cell_angle_gamma	60.000000
_symmetry_Int_Tables_number 1

loop_
_symmetry_equiv_pos_as_xyz
'x,y,z'

loop_
_atom_site_label
_atom_site_type_symbol
_atom_site_fract_x
_atom_site_fract_y
_atom_site_fract_z
Cd11	Cd1	0.523150	0.926610	0.476850
Cd21	Cd2	0.976850	0.426610	0.023150
Cd31	Cd3	0.073390	0.523150	0.476850
Cd41	Cd4	0.573390	0.426610	0.976850
Cd51	Cd5	0.926610	0.476850	0.523150
Cd61	Cd6	0.976850	0.573390	0.426610
Cd71	Cd7	0.926610	0.523150	0.073390
Cd81	Cd8	0.573390	0.976850	0.023150
Cd91	Cd9	0.023150	0.573390	0.976850
Cd101	Cd10	0.926610	0.073390	0.476850
Cd111	Cd11	0.523150	0.476850	0.073390
Cd121	Cd12	0.476850	0.926610	0.073390
Cd131	Cd13	0.426610	0.023150	0.976850
Cd141	Cd14	0.073390	0.926610	0.523150
Cd151	Cd15	0.523150	0.073390	0.926610
Cd161	Cd16	0.426610	0.976850	0.573390
Cd171	Cd17	0.073390	0.476850	0.926610
Cd181	Cd18	0.573390	0.023150	0.426610
Cd191	Cd19	0.426610	0.573390	0.023150
Cd201	Cd20	0.023150	0.976850	0.426610
Cd211	Cd21	0.476850	0.073390	0.523150
Cd221	Cd22	0.023150	0.426610	0.573390
Cd231	Cd23	0.476850	0.523150	0.926610
Cd241	Cd24	0.976850	0.023150	0.573390
H11	H1	0.826200	0.039200	0.445800
H21	H2	0.438900	0.768500	0.798700
H31	H3	0.807400	0.904400	0.719000
H41	H4	0.192600	0.281000	0.430800
H51	H5	0.692600	0.781000	0.595600
H61	H6	0.731500	0.701300	0.506100
H71	H7	0.460500	0.229500	0.123500
H81	H8	0.539800	0.072800	0.334200
H91	H9	0.688800	0.826200	0.445800
H101	H10	0.904400	0.719000	0.807400
H111	H11	0.668800	0.003400	0.102400
H121	H12	0.957400	0.640400	0.625600
H131	H13	0.874400	0.542600	0.723400
H141	H14	0.946800	0.927200	0.460200
H151	H15	0.768500	0.438900	0.993900
H161	H16	0.781000	0.692600	0.930800
H171	H17	0.298700	0.268500	0.938900
H181	H18	0.857600	0.448000	0.263000
H191	H19	0.111600	0.187600	0.648400
H201	H20	0.542700	0.749700	0.005300
H211	H21	0.005300	0.542700	0.749700
H221	H22	0.168800	0.602400	0.503400
H231	H23	0.397600	0.831200	0.274600
H241	H24	0.173800	0.554200	0.311200
H251	H25	0.702300	0.005300	0.749700
H261	H26	0.750300	0.797700	0.957300
H271	H27	0.496600	0.831200	0.397600
H281	H28	0.542700	0.005300	0.702300
H291	H29	0.960500	0.686500	0.623500
H301	H30	0.311200	0.173800	0.554200
H311	H31	0.908800	0.221400	0.376400
H321	H32	0.721400	0.993400	0.408800
H331	H33	0.729100	0.506900	0.666700
H341	H34	0.188800	0.326200	0.539200
H351	H35	0.168800	0.725400	0.602400
H361	H36	0.946800	0.460200	0.665800
H371	H37	0.447600	0.851600	0.388400
H381	H38	0.569200	0.719000	0.904400
H391	H39	0.876400	0.408800	0.993400
H401	H40	0.569200	0.807400	0.719000
H411	H41	0.201300	0.006100	0.561100
H421	H42	0.249700	0.042700	0.505300
H431	H43	0.701100	0.840900	0.957700
H441	H44	0.506900	0.097300	0.666700
H451	H45	0.602400	0.168800	0.725400
H461	H46	0.278600	0.006600	0.591200
H471	H47	0.553200	0.572800	0.834200
H481	H48	0.831200	0.496600	0.274600
H491	H49	0.763000	0.357600	0.931400
H501	H50	0.307400	0.404400	0.069200
H511	H51	0.202300	0.505300	0.042700
H521	H52	0.797700	0.750300	0.494700
H531	H53	0.460500	0.186500	0.229500
H541	H54	0.237000	0.642400	0.068600
H551	H55	0.874400	0.723400	0.859600
H561	H56	0.831200	0.397600	0.496600
H571	H57	0.763000	0.948000	0.357600
H581	H58	0.376400	0.908800	0.221400
H591	H59	0.061100	0.506100	0.701300
H601	H60	0.448000	0.431400	0.263000
H611	H61	0.298900	0.159100	0.042300
H621	H62	0.500300	0.701100	0.957700
H631	H63	0.493400	0.376400	0.221400
H641	H64	0.006600	0.123600	0.591200
H651	H65	0.960200	0.446800	0.165800
H661	H66	0.648400	0.187600	0.052400
H671	H67	0.686500	0.729500	0.623500
H681	H68	0.173800	0.960800	0.554200
H691	H69	0.312400	0.447600	0.388400
H701	H70	0.357600	0.931400	0.763000
H711	H71	0.999700	0.542300	0.798900
H721	H72	0.595600	0.930800	0.692600
H731	H73	0.957400	0.625600	0.776600
H741	H74	0.125600	0.140400	0.457400
H751	H75	0.595600	0.781000	0.930800
H761	H76	0.688800	0.039200	0.826200
H771	H77	0.388400	0.447600	0.851600
H781	H78	0.542300	0.659100	0.798900
H791	H79	0.091200	0.506600	0.778600
H801	H80	0.201100	0.457700	0.340900
H811	H81	0.125600	0.276600	0.140400
H821	H82	0.408800	0.876400	0.721400
H831	H83	0.068600	0.642400	0.052000
H841	H84	0.166700	0.597300	0.006900
H851	H85	0.542600	0.723400	0.874400
H861	H86	0.687600	0.552400	0.611600
H871	H87	0.159100	0.042300	0.298900
H881	H88	0.701300	0.506100	0.731500
H891	H89	0.039800	0.553200	0.834200
H901	H90	0.640400	0.957400	0.776600
H911	H91	0.445800	0.688800	0.826200
H921	H92	0.642400	0.068600	0.237000
H931	H93	0.091200	0.778600	0.623600
H941	H94	0.102400	0.668800	0.003400
H951	H95	0.359600	0.374400	0.042600
H961	H96	0.957400	0.776600	0.640400
H971	H97	0.826200	0.688800	0.039200
H981	H98	0.042300	0.499700	0.298900
H991	H99	0.994700	0.250300	0.297700
H1001	H100	0.506900	0.729100	0.097300
H1011	H101	0.539200	0.188800	0.326200
H1021	H102	0.770500	0.813500	0.876500
H1031	H103	0.460200	0.946800	0.927200
H1041	H104	0.774600	0.897600	0.996600
H1051	H105	0.774600	0.331200	0.897600
H1061	H106	0.597300	0.229100	0.006900
H1071	H107	0.148400	0.552400	0.687600
H1081	H108	0.069200	0.404400	0.219000
H1091	H109	0.229500	0.186500	0.123500
H1101	H110	0.591200	0.123600	0.278600
H1111	H111	0.221400	0.908800	0.493400
H1121	H112	0.326200	0.188800	0.945800
H1131	H113	0.042700	0.505300	0.249700
H1141	H114	0.006100	0.201300	0.231500
H1151	H115	0.359600	0.042600	0.223400
H1161	H116	0.000300	0.457700	0.201100
H1171	H117	0.223400	0.042600	0.374400
H1181	H118	0.297700	0.457300	0.994700
H1191	H119	0.539500	0.813500	0.770500
H1201	H120	0.312400	0.388400	0.851600
H1211	H121	0.312400	0.851600	0.447600
H1221	H122	0.938900	0.268500	0.493900
H1231	H123	0.908800	0.493400	0.221400
H1241	H124	0.072800	0.539800	0.053200
H1251	H125	0.840900	0.500300	0.957700
H1261	H126	0.948000	0.931400	0.357600
H1271	H127	0.851600	0.388400	0.447600
H1281	H128	0.404400	0.219000	0.069200
H1291	H129	0.268500	0.298700	0.493900
H1301	H130	0.374400	0.042600	0.359600
H1311	H131	0.993100	0.402700	0.770900
H1321	H132	0.270900	0.902700	0.493100
H1331	H133	0.069200	0.307400	0.404400
H1341	H134	0.202300	0.249700	0.505300
H1351	H135	0.202300	0.042700	0.249700
H1361	H136	0.072800	0.334200	0.539800
H1371	H137	0.460200	0.927200	0.665800
H1381	H138	0.006900	0.166700	0.597300
H1391	H139	0.297700	0.994700	0.250300
H1401	H140	0.770900	0.833300	0.993100
H1411	H141	0.623500	0.960500	0.686500
H1421	H142	0.687600	0.148400	0.552400
H1431	H143	0.948000	0.763000	0.931400
H1441	H144	0.123600	0.278600	0.591200
H1451	H145	0.237000	0.052000	0.642400
H1461	H146	0.334200	0.072800	0.053200
H1471	H147	0.225400	0.668800	0.102400
H1481	H148	0.833300	0.770900	0.402700
H1491	H149	0.091200	0.623600	0.506600
H1501	H150	0.750300	0.957300	0.494700
H1511	H151	0.701300	0.731500	0.061100
H1521	H152	0.781000	0.595600	0.692600
H1531	H153	0.623500	0.686500	0.729500
H1541	H154	0.123500	0.186500	0.460500
H1551	H155	0.311200	0.554200	0.960800
H1561	H156	0.930800	0.595600	0.781000
H1571	H157	0.446800	0.427200	0.165800
H1581	H158	0.542300	0.999700	0.659100
H1591	H159	0.326200	0.945800	0.539200
H1601	H160	0.539500	0.770500	0.876500
H1611	H161	0.930800	0.781000	0.692600
H1621	H162	0.039800	0.834200	0.572800
H1631	H163	0.388400	0.851600	0.312400
H1641	H164	0.874400	0.859600	0.542600
H1651	H165	0.268500	0.938900	0.298700
H1661	H166	0.165800	0.427200	0.960200
H1671	H167	0.397600	0.274600	0.496600
H1681	H168	0.054200	0.811200	0.460800
H1691	H169	0.042600	0.223400	0.359600
H1701	H170	0.250300	0.457300	0.297700
H1711	H171	0.111600	0.648400	0.052400
H1721	H172	0.812400	0.947600	0.351600
H1731	H173	0.659100	0.999700	0.798900
H1741	H174	0.807400	0.569200	0.904400
H1751	H175	0.438900	0.993900	0.768500
H1761	H176	0.102400	0.003400	0.225400
H1771	H177	0.298900	0.499700	0.159100
H1781	H178	0.648400	0.052400	0.111600
H1791	H179	0.223400	0.359600	0.042600
H1801	H180	0.142400	0.552000	0.737000
H1811	H181	0.313500	0.270500	0.376500
H1821	H182	0.006600	0.591200	0.278600
H1831	H183	0.039200	0.688800	0.445800
H1841	H184	0.993400	0.876400	0.408800
H1851	H185	0.731500	0.061100	0.701300
H1861	H186	0.333300	0.270900	0.493100
H1871	H187	0.219000	0.307400	0.069200
H1881	H188	0.187600	0.052400	0.648400
H1891	H189	0.659100	0.542300	0.999700
H1901	H190	0.039200	0.445800	0.826200
H1911	H191	0.457300	0.994700	0.297700
H1921	H192	0.768500	0.993900	0.798700
H1931	H193	0.376500	0.039500	0.313500
H1941	H194	0.268500	0.493900	0.938900
H1951	H195	0.095600	0.281000	0.192600
H1961	H196	0.148400	0.687600	0.611600
H1971	H197	0.569200	0.904400	0.807400
H1981	H198	0.553200	0.039800	0.572800
H1991	H199	0.539500	0.876500	0.813500
H2001	H200	0.931400	0.763000	0.357600
H2011	H201	0.876500	0.539500	0.770500
H2021	H202	0.061100	0.731500	0.506100
H2031	H203	0.770500	0.539500	0.813500
H2041	H204	0.833300	0.402700	0.993100
H2051	H205	0.957700	0.840900	0.500300
H2061	H206	0.994700	0.457300	0.250300
H2071	H207	0.770900	0.993100	0.402700
H2081	H208	0.859600	0.874400	0.723400
H2091	H209	0.960800	0.173800	0.311200
H2101	H210	0.673800	0.460800	0.811200
H2111	H211	0.408800	0.721400	0.993400
H2121	H212	0.993100	0.833300	0.402700
H2131	H213	0.897600	0.331200	0.996600
H2141	H214	0.908800	0.376400	0.493400
H2151	H215	0.811200	0.460800	0.054200
H2161	H216	0.186500	0.123500	0.229500
H2171	H217	0.625600	0.640400	0.776600
H2181	H218	0.102400	0.225400	0.668800
H2191	H219	0.053200	0.334200	0.072800
H2201	H220	0.665800	0.946800	0.460200
H2211	H221	0.457300	0.250300	0.994700
H2221	H222	0.542300	0.798900	0.999700
H2231	H223	0.749700	0.005300	0.542700
H2241	H224	0.431400	0.448000	0.857600
H2251	H225	0.039200	0.826200	0.688800
H2261	H226	0.331200	0.774600	0.996600
H2271	H227	0.737000	0.142400	0.552000
H2281	H228	0.721400	0.876400	0.993400
H2291	H229	0.623500	0.729500	0.960500
H2301	H230	0.052000	0.642400	0.237000
H2311	H231	0.376500	0.270500	0.039500
H2321	H232	0.438900	0.798700	0.993900
H2331	H233	0.186500	0.460500	0.123500
H2341	H234	0.168800	0.503400	0.725400
H2351	H235	0.960500	0.623500	0.729500
H2361	H236	0.947600	0.351600	0.812400
H2371	H237	0.902700	0.270900	0.333300
H2381	H238	0.460800	0.673800	0.054200
H2391	H239	0.888400	0.947600	0.812400
H2401	H240	0.307400	0.219000	0.404400
H2411	H241	0.052400	0.187600	0.111600
H2421	H242	0.331200	0.897600	0.774600
H2431	H243	0.591200	0.006600	0.123600
H2441	H244	0.798700	0.993900	0.438900
H2451	H245	0.042700	0.249700	0.202300
H2461	H246	0.642400	0.237000	0.052000
H2471	H247	0.042300	0.298900	0.159100
H2481	H248	0.729100	0.097300	0.506900
H2491	H249	0.457400	0.125600	0.140400
H2501	H250	0.957300	0.494700	0.750300
H2511	H251	0.431400	0.857600	0.263000
H2521	H252	0.270900	0.333300	0.902700
H2531	H253	0.840900	0.701100	0.500300
H2541	H254	0.270500	0.039500	0.376500
H2551	H255	0.274600	0.831200	0.496600
H2561	H256	0.960800	0.311200	0.554200
H2571	H257	0.351600	0.812400	0.947600
H2581	H258	0.231500	0.006100	0.201300
H2591	H259	0.376400	0.221400	0.493400
H2601	H260	0.159100	0.298900	0.499700
H2611	H261	0.281000	0.430800	0.192600
H2621	H262	0.811200	0.673800	0.460800
H2631	H263	0.957700	0.500300	0.701100
H2641	H264	0.813500	0.876500	0.770500
H2651	H265	0.042700	0.202300	0.505300
H2661	H266	0.068600	0.052000	0.237000
H2671	H267	0.668800	0.225400	0.003400
H2681	H268	0.270500	0.313500	0.039500
H2691	H269	0.221400	0.493400	0.376400
H2701	H270	0.192600	0.430800	0.095600
H2711	H271	0.642400	0.052000	0.068600
H2721	H272	0.148400	0.611600	0.552400
H2731	H273	0.749700	0.702300	0.005300
H2741	H274	0.927200	0.460200	0.946800
H2751	H275	0.807400	0.719000	0.569200
H2761	H276	0.313500	0.376500	0.039500
H2771	H277	0.561100	0.006100	0.231500
H2781	H278	0.572800	0.553200	0.039800
H2791	H279	0.123600	0.006600	0.278600
H2801	H280	0.500300	0.957700	0.840900
H2811	H281	0.229100	0.166700	0.006900
H2821	H282	0.960800	0.554200	0.173800
H2831	H283	0.270900	0.493100	0.333300
H2841	H284	0.561100	0.201300	0.006100
H2851	H285	0.503400	0.725400	0.168800
H2861	H286	0.097300	0.666700	0.506900
H2871	H287	0.402700	0.770900	0.993100
H2881	H288	0.061100	0.701300	0.731500
H2891	H289	0.052400	0.111600	0.648400
H2901	H290	0.673800	0.054200	0.460800
H2911	H291	0.859600	0.723400	0.542600
H2921	H292	0.187600	0.648400	0.111600
H2931	H293	0.263000	0.857600	0.448000
H2941	H294	0.542600	0.874400	0.859600
H2951	H295	0.357600	0.763000	0.948000
H2961	H296	0.960200	0.427200	0.446800
H2971	H297	0.666700	0.506900	0.097300
H2981	H298	0.376400	0.493400	0.908800
H2991	H299	0.552400	0.687600	0.148400
H3001	H300	0.692600	0.930800	0.781000
H3011	H301	0.591200	0.278600	0.006600
H3021	H302	0.229500	0.123500	0.460500
H3031	H303	0.494700	0.797700	0.750300
H3041	H304	0.165800	0.446800	0.427200
H3051	H305	0.229100	0.597300	0.166700
H3061	H306	0.776600	0.957400	0.625600
H3071	H307	0.553200	0.834200	0.039800
H3081	H308	0.812400	0.888400	0.947600
H3091	H309	0.506600	0.623600	0.778600
H3101	H310	0.494700	0.750300	0.957300
H3111	H311	0.552000	0.568600	0.737000
H3121	H312	0.042300	0.159100	0.499700
H3131	H313	0.188800	0.539200	0.945800
H3141	H314	0.554200	0.311200	0.173800
H3151	H315	0.003400	0.225400	0.102400
H3161	H316	0.493900	0.298700	0.938900
H3171	H317	0.640400	0.776600	0.625600
H3181	H318	0.493900	0.268500	0.298700
H3191	H319	0.298700	0.938900	0.493900
H3201	H320	0.996600	0.774600	0.897600
H3211	H321	0.052000	0.237000	0.068600
H3221	H322	0.945800	0.539200	0.326200
H3231	H323	0.460500	0.123500	0.186500
H3241	H324	0.902700	0.493100	0.270900
H3251	H325	0.539200	0.945800	0.188800
H3261	H326	0.568600	0.142400	0.737000
H3271	H327	0.231500	0.201300	0.561100
H3281	H328	0.140400	0.457400	0.125600
H3291	H329	0.333300	0.493100	0.902700
H3301	H330	0.446800	0.960200	0.427200
H3311	H331	0.996600	0.897600	0.331200
H3321	H332	0.834200	0.572800	0.039800
H3331	H333	0.281000	0.192600	0.095600
H3341	H334	0.249700	0.505300	0.202300
H3351	H335	0.445800	0.826200	0.039200
H3361	H336	0.313500	0.039500	0.270500
H3371	H337	0.506100	0.731500	0.701300
H3381	H338	0.851600	0.312400	0.388400
H3391	H339	0.960500	0.729500	0.686500
H3401	H340	0.331200	0.996600	0.897600
H3411	H341	0.042600	0.374400	0.223400
H3421	H342	0.460200	0.665800	0.946800
H3431	H343	0.457400	0.140400	0.276600
H3441	H344	0.723400	0.542600	0.859600
H3451	H345	0.042600	0.359600	0.374400
H3461	H346	0.851600	0.447600	0.312400
H3471	H347	0.897600	0.774600	0.331200
H3481	H348	0.798700	0.438900	0.768500
H3491	H349	0.999700	0.659100	0.542300
H3501	H350	0.250300	0.994700	0.457300
H3511	H351	0.374400	0.359600	0.223400
H3521	H352	0.833300	0.993100	0.770900
H3531	H353	0.702300	0.542700	0.005300
H3541	H354	0.351600	0.888400	0.812400
H3551	H355	0.298900	0.042300	0.499700
H3561	H356	0.749700	0.542700	0.702300
H3571	H357	0.947600	0.812400	0.888400
H3581	H358	0.427200	0.165800	0.446800
H3591	H359	0.499700	0.159100	0.298900
H3601	H360	0.397600	0.496600	0.831200
H3611	H361	0.276600	0.140400	0.125600
H3621	H362	0.994700	0.297700	0.457300
H3631	H363	0.493100	0.333300	0.270900
H3641	H364	0.493100	0.270900	0.902700
H3651	H365	0.602400	0.725400	0.503400
H3661	H366	0.052000	0.068600	0.642400
H3671	H367	0.957300	0.797700	0.494700
H3681	H368	0.611600	0.687600	0.552400
H3691	H369	0.798700	0.768500	0.993900
H3701	H370	0.552000	0.142400	0.568600
H3711	H371	0.719000	0.904400	0.569200
H3721	H372	0.192600	0.095600	0.281000
H3731	H373	0.539800	0.053200	0.072800
H3741	H374	0.278600	0.123600	0.006600
H3751	H375	0.993100	0.770900	0.833300
H3761	H376	0.506600	0.778600	0.091200
H3771	H377	0.542600	0.859600	0.723400
H3781	H378	0.731500	0.506100	0.061100
H3791	H379	0.666700	0.729100	0.506900
H3801	H380	0.276600	0.457400	0.140400
H3811	H381	0.097300	0.506900	0.729100
H3821	H382	0.701100	0.957700	0.500300
H3831	H383	0.274600	0.397600	0.831200
H3841	H384	0.938900	0.298700	0.268500
H3851	H385	0.039800	0.572800	0.553200
H3861	H386	0.812400	0.351600	0.888400
H3871	H387	0.561100	0.231500	0.201300
H3881	H388	0.334200	0.053200	0.539800
H3891	H389	0.388400	0.312400	0.447600
H3901	H390	0.993900	0.798700	0.768500
H3911	H391	0.552400	0.611600	0.687600
H3921	H392	0.927200	0.946800	0.665800
H3931	H393	0.270500	0.376500	0.313500
H3941	H394	0.673800	0.811200	0.054200
H3951	H395	0.876500	0.770500	0.813500
H3961	H396	0.798900	0.999700	0.542300
H3971	H397	0.702300	0.749700	0.542700
H3981	H398	0.506100	0.701300	0.061100
H3991	H399	0.993900	0.768500	0.438900
H4001	H400	0.000300	0.340900	0.457700
H4011	H401	0.897600	0.996600	0.774600
H4021	H402	0.186500	0.229500	0.460500
H4031	H403	0.298700	0.493900	0.268500
H4041	H404	0.340900	0.000300	0.201100
H4051	H405	0.945800	0.326200	0.188800
H4061	H406	0.493900	0.938900	0.268500
H4071	H407	0.505300	0.202300	0.249700
H4081	H408	0.725400	0.602400	0.168800
H4091	H409	0.623600	0.091200	0.778600
H4101	H410	0.648400	0.111600	0.187600
H4111	H411	0.750300	0.494700	0.797700
H4121	H412	0.770900	0.402700	0.833300
H4131	H413	0.857600	0.431400	0.448000
H4141	H414	0.457300	0.297700	0.250300
H4151	H415	0.039500	0.313500	0.376500
H4161	H416	0.993900	0.438900	0.798700
H4171	H417	0.729500	0.686500	0.960500
H4181	H418	0.404400	0.069200	0.307400
H4191	H419	0.159100	0.499700	0.042300
H4201	H420	0.173800	0.311200	0.960800
H4211	H421	0.278600	0.591200	0.123600
H4221	H422	0.503400	0.168800	0.602400
H4231	H423	0.688800	0.445800	0.039200
H4241	H424	0.140400	0.276600	0.457400
H4251	H425	0.506100	0.061100	0.731500
H4261	H426	0.231500	0.561100	0.006100
H4271	H427	0.446800	0.165800	0.960200
H4281	H428	0.333300	0.902700	0.270900
H4291	H429	0.505300	0.249700	0.042700
H4301	H430	0.945800	0.188800	0.539200
H4311	H431	0.408800	0.993400	0.876400
H4321	H432	0.123500	0.229500	0.186500
H4331	H433	0.999700	0.798900	0.659100
H4341	H434	0.668800	0.102400	0.225400
H4351	H435	0.811200	0.054200	0.673800
H4361	H436	0.223400	0.374400	0.359600
H4371	H437	0.500300	0.840900	0.701100
H4381	H438	0.552000	0.737000	0.142400
H4391	H439	0.813500	0.539500	0.876500
H4401	H440	0.506600	0.091200	0.623600
H4411	H441	0.778600	0.091200	0.506600
H4421	H442	0.229100	0.006900	0.597300
H4431	H443	0.140400	0.125600	0.276600
H4441	H444	0.095600	0.430800	0.281000
H4451	H445	0.340900	0.457700	0.000300
H4461	H446	0.054200	0.460800	0.673800
H4471	H447	0.263000	0.431400	0.857600
H4481	H448	0.554200	0.173800	0.960800
H4491	H449	0.111600	0.052400	0.187600
H4501	H450	0.427200	0.960200	0.165800
H4511	H451	0.957300	0.750300	0.797700
H4521	H452	0.249700	0.202300	0.042700
H4531	H453	0.496600	0.397600	0.274600
H4541	H454	0.276600	0.125600	0.457400
H4551	H455	0.003400	0.102400	0.668800
H4561	H456	0.430800	0.095600	0.192600
H4571	H457	0.427200	0.446800	0.960200
H4581	H458	0.774600	0.996600	0.331200
H4591	H459	0.460800	0.811200	0.673800
H4601	H460	0.692600	0.595600	0.930800
H4611	H461	0.568600	0.737000	0.552000
H4621	H462	0.123600	0.591200	0.006600
H4631	H463	0.448000	0.263000	0.857600
H4641	H464	0.834200	0.553200	0.572800
H4651	H465	0.221400	0.376400	0.908800
H4661	H466	0.797700	0.494700	0.957300
H4671	H467	0.039500	0.270500	0.313500
H4681	H468	0.326200	0.539200	0.188800
H4691	H469	0.340900	0.201100	0.457700
H4701	H470	0.493100	0.902700	0.333300
H4711	H471	0.768500	0.798700	0.438900
H4721	H472	0.813500	0.770500	0.539500
H4731	H473	0.948000	0.357600	0.763000
H4741	H474	0.357600	0.948000	0.931400
H4751	H475	0.457700	0.000300	0.340900
H4761	H476	0.457700	0.340900	0.201100
H4771	H477	0.725400	0.168800	0.503400
H4781	H478	0.445800	0.039200	0.688800
H4791	H479	0.054200	0.673800	0.811200
H4801	H480	0.219000	0.069200	0.404400
H4811	H481	0.993400	0.408800	0.721400
H4821	H482	0.798900	0.659100	0.999700
H4831	H483	0.625600	0.957400	0.640400
H4841	H484	0.000300	0.201100	0.340900
H4851	H485	0.166700	0.006900	0.229100
H4861	H486	0.402700	0.993100	0.833300
H4871	H487	0.960200	0.165800	0.427200
H4881	H488	0.623600	0.778600	0.506600
H4891	H489	0.776600	0.640400	0.957400
H4901	H490	0.493400	0.908800	0.376400
H4911	H491	0.687600	0.611600	0.148400
H4921	H492	0.729100	0.666700	0.097300
H4931	H493	0.686500	0.960500	0.729500
H4941	H494	0.763000	0.931400	0.948000
H4951	H495	0.996600	0.331200	0.774600
H4961	H496	0.957700	0.701100	0.840900
H4971	H497	0.006900	0.597300	0.229100
H4981	H498	0.931400	0.357600	0.948000
H4991	H499	0.165800	0.960200	0.446800
H5001	H500	0.447600	0.388400	0.312400
H5011	H501	0.840900	0.957700	0.701100
H5021	H502	0.166700	0.229100	0.597300
H5031	H503	0.595600	0.692600	0.781000
H5041	H504	0.552400	0.148400	0.611600
H5051	H505	0.187600	0.111600	0.052400
H5061	H506	0.430800	0.192600	0.281000
H5071	H507	0.857600	0.263000	0.431400
H5081	H508	0.505300	0.042700	0.202300
H5091	H509	0.611600	0.148400	0.687600
H5101	H510	0.448000	0.857600	0.431400
H5111	H511	0.201300	0.561100	0.231500
H5121	H512	0.274600	0.496600	0.397600
H5131	H513	0.201100	0.000300	0.457700
H5141	H514	0.225400	0.003400	0.668800
H5151	H515	0.831200	0.274600	0.397600
H5161	H516	0.701100	0.500300	0.840900
H5171	H517	0.250300	0.297700	0.994700
H5181	H518	0.006100	0.561100	0.201300
H5191	H519	0.640400	0.625600	0.957400
H5201	H520	0.053200	0.539800	0.334200
H5211	H521	0.404400	0.307400	0.219000
H5221	H522	0.201100	0.340900	0.000300
H5231	H523	0.447600	0.312400	0.851600
H5241	H524	0.737000	0.568600	0.142400
H5251	H525	0.572800	0.834200	0.553200
H5261	H526	0.097300	0.729100	0.666700
H5271	H527	0.125600	0.457400	0.276600
H5281	H528	0.770500	0.876500	0.539500
H5291	H529	0.307400	0.069200	0.219000
H5301	H530	0.993400	0.721400	0.876400
H5311	H531	0.359600	0.223400	0.374400
H5321	H532	0.334200	0.539800	0.072800
H5331	H533	0.625600	0.776600	0.957400
H5341	H534	0.142400	0.568600	0.552000
H5351	H535	0.005300	0.702300	0.542700
H5361	H536	0.188800	0.945800	0.326200
H5371	H537	0.431400	0.263000	0.448000
H5381	H538	0.719000	0.569200	0.807400
H5391	H539	0.072800	0.053200	0.334200
H5401	H540	0.665800	0.460200	0.927200
H5411	H541	0.859600	0.542600	0.874400
H5421	H542	0.938900	0.493900	0.298700
H5431	H543	0.039500	0.376500	0.270500
H5441	H544	0.068600	0.237000	0.642400
H5451	H545	0.430800	0.281000	0.095600
H5461	H546	0.665800	0.927200	0.946800
H5471	H547	0.904400	0.569200	0.719000
H5481	H548	0.281000	0.095600	0.430800
H5491	H549	0.778600	0.623600	0.091200
H5501	H550	0.499700	0.298900	0.042300
H5511	H551	0.611600	0.552400	0.148400
H5521	H552	0.927200	0.665800	0.460200
H5531	H553	0.496600	0.274600	0.831200
H5541	H554	0.506900	0.666700	0.729100
H5551	H555	0.376500	0.313500	0.270500
H5561	H556	0.947600	0.888400	0.351600
H5571	H557	0.539800	0.334200	0.053200
H5581	H558	0.142400	0.737000	0.568600
H5591	H559	0.374400	0.223400	0.042600
H5601	H560	0.776600	0.625600	0.640400
H5611	H561	0.539200	0.326200	0.945800
H5621	H562	0.781000	0.930800	0.595600
H5631	H563	0.457700	0.201100	0.000300
H5641	H564	0.798900	0.542300	0.659100
H5651	H565	0.219000	0.404400	0.307400
H5661	H566	0.723400	0.859600	0.874400
H5671	H567	0.006100	0.231500	0.561100
H5681	H568	0.904400	0.807400	0.569200
H5691	H569	0.659100	0.798900	0.542300
H5701	H570	0.778600	0.506600	0.623600
H5711	H571	0.902700	0.333300	0.493100
H5721	H572	0.457400	0.276600	0.125600
H5731	H573	0.402700	0.833300	0.770900
H5741	H574	0.053200	0.072800	0.539800
H5751	H575	0.737000	0.552000	0.568600
H5761	H576	0.493400	0.221400	0.908800
H5771	H577	0.666700	0.097300	0.729100
H5781	H578	0.931400	0.948000	0.763000
H5791	H579	0.542700	0.702300	0.749700
H5801	H580	0.946800	0.665800	0.927200
H5811	H581	0.568600	0.552000	0.142400
H5821	H582	0.351600	0.947600	0.888400
H5831	H583	0.003400	0.668800	0.225400
H5841	H584	0.095600	0.192600	0.430800
H5851	H585	0.826200	0.445800	0.688800
H5861	H586	0.729500	0.960500	0.623500
H5871	H587	0.602400	0.503400	0.168800
H5881	H588	0.876400	0.721400	0.408800
H5891	H589	0.723400	0.874400	0.542600
H5901	H590	0.499700	0.042300	0.159100
H5911	H591	0.623600	0.506600	0.091200
H5921	H592	0.006900	0.229100	0.166700
H5931	H593	0.554200	0.960800	0.311200
H5941	H594	0.494700	0.957300	0.797700
H5951	H595	0.930800	0.692600	0.595600
H5961	H596	0.876400	0.993400	0.721400
H5971	H597	0.686500	0.623500	0.960500
H5981	H598	0.069200	0.219000	0.307400
H5991	H599	0.597300	0.166700	0.229100
H6001	H600	0.006600	0.278600	0.123600
H6011	H601	0.297700	0.250300	0.457300
H6021	H602	0.201300	0.231500	0.006100
H6031	H603	0.721400	0.408800	0.876400
H6041	H604	0.225400	0.102400	0.003400
H6051	H605	0.572800	0.039800	0.834200
H6061	H606	0.797700	0.957300	0.750300
H6071	H607	0.888400	0.812400	0.351600
H6081	H608	0.876500	0.813500	0.539500
H6091	H609	0.237000	0.068600	0.052000
H6101	H610	0.460800	0.054200	0.811200
H6111	H611	0.263000	0.448000	0.431400
H6121	H612	0.597300	0.006900	0.166700
H6131	H613	0.503400	0.602400	0.725400
H6141	H614	0.834200	0.039800	0.553200
H6151	H615	0.052400	0.648400	0.187600
H6161	H616	0.888400	0.351600	0.947600
H6171	H617	0.719000	0.807400	0.904400
H6181	H618	0.729500	0.623500	0.686500
H6191	H619	0.725400	0.503400	0.602400
H6201	H620	0.123500	0.460500	0.229500
H6211	H621	0.311200	0.960800	0.173800
H6221	H622	0.005300	0.749700	0.702300
H6231	H623	0.701300	0.061100	0.506100
H6241	H624	0.229500	0.460500	0.186500
C11	C1	0.036980	0.596640	0.882540
C21	C2	0.617460	0.903360	0.463020
C31	C3	0.812610	0.894390	0.849170
C41	C4	0.904350	0.474010	0.255630
C51	C5	0.145640	0.190220	0.555760
C61	C6	0.583360	0.559340	0.813540
C71	C7	0.474010	0.904350	0.366010
C81	C8	0.265040	0.503260	0.169780
C91	C9	0.655090	0.052070	0.493250
C101	C10	0.142980	0.534180	0.721600
C111	C11	0.633990	0.744370	0.525990
C121	C12	0.672580	0.762880	0.605480
C131	C13	0.747890	0.443570	0.980010
C141	C14	0.741020	0.050660	0.572280
C151	C15	0.857020	0.465820	0.278400
C161	C16	0.072280	0.550660	0.241020
C171	C17	0.400660	0.414060	0.234100
C181	C18	0.244370	0.595650	0.133990
C191	C19	0.414060	0.234100	0.400660
C201	C20	0.043760	0.559340	0.583360
C211	C21	0.556430	0.171470	0.019990
C221	C22	0.595650	0.133990	0.244370
C231	C23	0.686460	0.940660	0.916640
C241	C24	0.438080	0.996740	0.330220
C251	C25	0.655090	0.799590	0.052070
C261	C26	0.099340	0.265900	0.085940
C271	C27	0.617460	0.463020	0.016160
C281	C28	0.255630	0.474010	0.366010
C291	C29	0.150830	0.105610	0.556170
C301	C30	0.312610	0.943830	0.349170
C311	C31	0.894390	0.812610	0.443830
C321	C32	0.244370	0.025990	0.595650
C331	C33	0.894390	0.849170	0.812610
C341	C34	0.927720	0.863960	0.449340
C351	C35	0.947930	0.200410	0.506750
C361	C36	0.446140	0.856080	0.932580
C371	C37	0.605480	0.762880	0.959060
C381	C38	0.974010	0.404350	0.755630
C391	C39	0.642980	0.034180	0.101240
C401	C40	0.996740	0.330220	0.438080
C411	C41	0.056430	0.752110	0.519990
C421	C42	0.444240	0.891620	0.854360
C431	C43	0.480010	0.247890	0.328530
C441	C44	0.048820	0.585940	0.599340
C451	C45	0.778400	0.965820	0.357020
C461	C46	0.096640	0.536980	0.382540
C471	C47	0.854360	0.809780	0.444240
C481	C48	0.938080	0.496740	0.734960
C491	C49	0.605610	0.650830	0.056170
C501	C50	0.095650	0.525990	0.744370
C511	C51	0.993250	0.299590	0.552070
C521	C52	0.741020	0.572280	0.636040
C531	C53	0.938080	0.830220	0.496740
C541	C54	0.187390	0.105610	0.150830
C551	C55	0.055760	0.608380	0.690220
C561	C56	0.142980	0.721600	0.601240
C571	C57	0.143920	0.067420	0.553860
C581	C58	0.357020	0.898760	0.778400
C591	C59	0.169780	0.503260	0.061920
C601	C60	0.449340	0.758980	0.927720
C611	C61	0.503260	0.265040	0.061920
C621	C62	0.169270	0.955330	0.388250
C631	C63	0.016160	0.463020	0.903360
C641	C64	0.101240	0.642980	0.034180
C651	C65	0.265200	0.356080	0.432580
C661	C66	0.382540	0.536980	0.983840
C671	C67	0.247890	0.480010	0.943570
C681	C68	0.403360	0.516160	0.117460
C691	C69	0.366010	0.255630	0.474010
C701	C70	0.012850	0.330730	0.544670
C711	C71	0.447930	0.700410	0.844910
C721	C72	0.548820	0.265900	0.099340
C731	C73	0.525990	0.095650	0.633990
C741	C74	0.044670	0.611750	0.830730
C751	C75	0.734960	0.496740	0.830220
C761	C76	0.117460	0.963020	0.403360
C771	C77	0.155090	0.993250	0.552070
C781	C78	0.234800	0.553860	0.067420
C791	C79	0.349170	0.312610	0.943830
C801	C80	0.105610	0.187390	0.556170
C811	C81	0.043760	0.813540	0.559340
C821	C82	0.940660	0.686460	0.456240
C831	C83	0.085940	0.265900	0.548820
C841	C84	0.006750	0.844910	0.700410
C851	C85	0.944240	0.391620	0.309780
C861	C86	0.605610	0.056170	0.687390
C871	C87	0.734960	0.830220	0.938080
C881	C88	0.050660	0.572280	0.741020
C891	C89	0.550660	0.072280	0.136040
C901	C90	0.105610	0.150830	0.187390
C911	C91	0.882540	0.036980	0.596640
C921	C92	0.543760	0.059340	0.313540
C931	C93	0.916640	0.940660	0.456240
C941	C94	0.241020	0.072280	0.550660
C951	C95	0.155090	0.299590	0.993250
C961	C96	0.830220	0.734960	0.496740
C971	C97	0.519990	0.671470	0.056430
C981	C98	0.932580	0.856080	0.765200
C991	C99	0.258980	0.363960	0.949340
C1001	C100	0.596640	0.036980	0.483840
C1011	C101	0.516160	0.117460	0.403360
C1021	C102	0.006750	0.700410	0.447930
C1031	C103	0.556170	0.187390	0.150830
C1041	C104	0.752110	0.056430	0.671470
C1051	C105	0.363960	0.427720	0.949340
C1061	C106	0.427720	0.949340	0.363960
C1071	C107	0.221600	0.101240	0.034180
C1081	C108	0.414060	0.400660	0.951180
C1091	C109	0.959060	0.672580	0.605480
C1101	C110	0.894520	0.737120	0.827420
C1111	C111	0.765040	0.669780	0.003260
C1121	C112	0.187390	0.556170	0.105610
C1131	C113	0.944240	0.309780	0.354360
C1141	C114	0.391620	0.309780	0.944240
C1151	C115	0.262880	0.459060	0.172580
C1161	C116	0.200410	0.506750	0.947930
C1171	C117	0.388250	0.169270	0.955330
C1181	C118	0.812610	0.849170	0.443830
C1191	C119	0.891620	0.854360	0.444240
C1201	C120	0.003260	0.669780	0.561920
C1211	C121	0.403360	0.963020	0.516160
C1221	C122	0.117460	0.516160	0.963020
C1231	C123	0.599340	0.585940	0.765900
C1241	C124	0.949340	0.363960	0.427720
C1251	C125	0.105480	0.172580	0.459060
C1261	C126	0.237120	0.327420	0.040940
C1271	C127	0.914060	0.734100	0.451180
C1281	C128	0.278400	0.465820	0.398760
C1291	C129	0.111750	0.012850	0.544670
C1301	C130	0.111750	0.330730	0.012850
C1311	C131	0.943570	0.328530	0.247890
C1321	C132	0.894520	0.827420	0.540940
C1331	C133	0.690220	0.608380	0.645640
C1341	C134	0.636040	0.050660	0.741020
C1351	C135	0.536980	0.382540	0.096640
C1361	C136	0.585940	0.048820	0.765900
C1371	C137	0.904350	0.366010	0.474010
C1381	C138	0.459060	0.262880	0.105480
C1391	C139	0.830730	0.044670	0.611750
C1401	C140	0.963020	0.117460	0.516160
C1411	C141	0.187390	0.150830	0.556170
C1421	C142	0.544670	0.111750	0.012850
C1431	C143	0.827420	0.737120	0.540940
C1441	C144	0.813540	0.583360	0.559340
C1451	C145	0.534180	0.142980	0.601240
C1461	C146	0.737120	0.894520	0.540940
C1471	C147	0.943830	0.394390	0.349170
C1481	C148	0.555760	0.145640	0.190220
C1491	C149	0.095650	0.633990	0.525990
C1501	C150	0.993250	0.155090	0.299590
C1511	C151	0.553860	0.234800	0.143920
C1521	C152	0.844910	0.006750	0.447930
C1531	C153	0.451180	0.914060	0.734100
C1541	C154	0.686460	0.456240	0.940660
C1551	C155	0.965820	0.357020	0.778400
C1561	C156	0.356080	0.946140	0.432580
C1571	C157	0.328530	0.480010	0.247890
C1581	C158	0.552070	0.299590	0.155090
C1591	C159	0.903360	0.617460	0.016160
C1601	C160	0.440660	0.416640	0.956240
C1611	C161	0.252110	0.556430	0.019990
C1621	C162	0.221600	0.034180	0.642980
C1631	C163	0.567420	0.734800	0.643920
C1641	C164	0.827420	0.894520	0.737120
C1651	C165	0.443570	0.828530	0.980010
C1661	C166	0.111750	0.544670	0.330730
C1671	C167	0.828530	0.443570	0.747890
C1681	C168	0.927720	0.758980	0.863960
C1691	C169	0.611750	0.830730	0.044670
C1701	C170	0.003260	0.561920	0.765040
C1711	C171	0.946140	0.356080	0.265200
C1721	C172	0.556430	0.019990	0.252110
C1731	C173	0.642980	0.221600	0.034180
C1741	C174	0.483840	0.596640	0.036980
C1751	C175	0.737120	0.540940	0.827420
C1761	C176	0.765200	0.856080	0.446140
C1771	C177	0.391620	0.354360	0.309780
C1781	C178	0.025990	0.595650	0.244370
C1791	C179	0.061920	0.503260	0.265040
C1801	C180	0.849170	0.894390	0.443830
C1811	C181	0.143920	0.234800	0.067420
C1821	C182	0.096640	0.983840	0.536980
C1831	C183	0.443830	0.894390	0.812610
C1841	C184	0.190220	0.555760	0.145640
C1851	C185	0.388250	0.955330	0.487150
C1861	C186	0.951180	0.234100	0.414060
C1871	C187	0.480010	0.328530	0.943570
C1881	C188	0.155090	0.552070	0.299590
C1891	C189	0.083360	0.543760	0.313540
C1901	C190	0.067420	0.553860	0.143920
C1911	C191	0.888250	0.987150	0.455330
C1921	C192	0.548820	0.099340	0.085940
C1931	C193	0.857020	0.398760	0.465820
C1941	C194	0.943570	0.480010	0.328530
C1951	C195	0.143920	0.553860	0.234800
C1961	C196	0.721600	0.534180	0.601240
C1971	C197	0.690220	0.055760	0.608380
C1981	C198	0.866010	0.755630	0.404350
C1991	C199	0.778400	0.357020	0.898760
C2001	C200	0.672580	0.605480	0.959060
C2011	C201	0.356080	0.432580	0.265200
C2021	C202	0.404350	0.755630	0.974010
C2031	C203	0.721600	0.601240	0.142980
C2041	C204	0.234960	0.996740	0.438080
C2051	C205	0.898760	0.965820	0.778400
C2061	C206	0.145640	0.555760	0.108380
C2071	C207	0.827420	0.540940	0.894520
C2081	C208	0.914060	0.900660	0.734100
C2091	C209	0.687390	0.650830	0.605610
C2101	C210	0.050660	0.636040	0.572280
C2111	C211	0.186460	0.440660	0.956240
C2121	C212	0.040940	0.394520	0.237120
C2131	C213	0.456240	0.940660	0.686460
C2141	C214	0.540940	0.894520	0.827420
C2151	C215	0.247890	0.328530	0.480010
C2161	C216	0.553860	0.143920	0.067420
C2171	C217	0.536980	0.096640	0.983840
C2181	C218	0.755630	0.974010	0.404350
C2191	C219	0.669270	0.987150	0.888250
C2201	C220	0.996740	0.234960	0.330220
C2211	C221	0.765040	0.561920	0.669780
C2221	C222	0.169780	0.061920	0.265040
C2231	C223	0.671470	0.519990	0.752110
C2241	C224	0.655090	0.493250	0.799590
C2251	C225	0.465820	0.857020	0.398760
C2261	C226	0.048820	0.765900	0.585940
C2271	C227	0.601240	0.142980	0.721600
C2281	C228	0.561920	0.765040	0.003260
C2291	C229	0.237120	0.040940	0.394520
C2301	C230	0.099340	0.085940	0.548820
C2311	C231	0.150830	0.556170	0.187390
C2321	C232	0.363960	0.258980	0.427720
C2331	C233	0.327420	0.040940	0.237120
C2341	C234	0.799590	0.493250	0.052070
C2351	C235	0.440660	0.186460	0.416640
C2361	C236	0.572280	0.050660	0.636040
C2371	C237	0.463020	0.903360	0.016160
C2381	C238	0.904350	0.255630	0.366010
C2391	C239	0.330220	0.234960	0.438080
C2401	C240	0.357020	0.778400	0.965820
C2411	C241	0.506750	0.344910	0.947930
C2421	C242	0.955330	0.487150	0.388250
C2431	C243	0.947930	0.506750	0.344910
C2441	C244	0.480010	0.943570	0.247890
C2451	C245	0.830220	0.938080	0.734960
C2461	C246	0.262880	0.105480	0.459060
C2471	C247	0.309780	0.354360	0.944240
C2481	C248	0.512850	0.044670	0.830730
C2491	C249	0.914060	0.451180	0.900660
C2501	C250	0.744370	0.525990	0.633990
C2511	C251	0.812610	0.443830	0.894390
C2521	C252	0.636040	0.741020	0.572280
C2531	C253	0.016160	0.617460	0.463020
C2541	C254	0.025990	0.244370	0.133990
C2551	C255	0.171470	0.252110	0.019990
C2561	C256	0.344910	0.200410	0.947930
C2571	C257	0.863960	0.449340	0.927720
C2581	C258	0.344910	0.506750	0.200410
C2591	C259	0.145640	0.108380	0.190220
C2601	C260	0.105480	0.459060	0.262880
C2611	C261	0.611750	0.512850	0.830730
C2621	C262	0.136040	0.072280	0.241020
C2631	C263	0.190220	0.108380	0.555760
C2641	C264	0.512850	0.830730	0.611750
C2651	C265	0.556170	0.150830	0.105610
C2661	C266	0.690220	0.645640	0.055760
C2671	C267	0.142980	0.601240	0.534180
C2681	C268	0.398760	0.857020	0.278400
C2691	C269	0.734100	0.451180	0.914060
C2701	C270	0.605480	0.672580	0.762880
C2711	C271	0.534180	0.601240	0.721600
C2721	C272	0.813540	0.559340	0.043760
C2731	C273	0.003260	0.765040	0.669780
C2741	C274	0.247890	0.943570	0.328530
C2751	C275	0.799590	0.655090	0.493250
C2761	C276	0.059340	0.313540	0.543760
C2771	C277	0.327420	0.394520	0.040940
C2781	C278	0.617460	0.016160	0.903360
C2791	C279	0.056170	0.687390	0.605610
C2801	C280	0.459060	0.105480	0.172580
C2811	C281	0.312610	0.394390	0.943830
C2821	C282	0.438080	0.330220	0.234960
C2831	C283	0.863960	0.758980	0.449340
C2841	C284	0.459060	0.172580	0.262880
C2851	C285	0.443830	0.812610	0.849170
C2861	C286	0.099340	0.548820	0.265900
C2871	C287	0.799590	0.052070	0.655090
C2881	C288	0.330220	0.438080	0.996740
C2891	C289	0.447930	0.844910	0.006750
C2901	C290	0.391620	0.944240	0.354360
C2911	C291	0.059340	0.543760	0.083360
C2921	C292	0.394390	0.312610	0.349170
C2931	C293	0.398760	0.465820	0.857020
C2941	C294	0.734800	0.643920	0.567420
C2951	C295	0.595650	0.025990	0.133990
C2961	C296	0.136040	0.241020	0.550660
C2971	C297	0.171470	0.019990	0.556430
C2981	C298	0.394390	0.349170	0.943830
C2991	C299	0.932580	0.446140	0.856080
C3001	C300	0.828530	0.747890	0.980010
C3011	C301	0.172580	0.459060	0.105480
C3021	C302	0.363960	0.949340	0.258980
C3031	C303	0.898760	0.778400	0.357020
C3041	C304	0.133990	0.025990	0.244370
C3051	C305	0.463020	0.016160	0.617460
C3061	C306	0.734960	0.938080	0.496740
C3071	C307	0.067420	0.143920	0.234800
C3081	C308	0.747890	0.980010	0.828530
C3091	C309	0.525990	0.633990	0.744370
C3101	C310	0.650830	0.056170	0.605610
C3111	C311	0.388250	0.487150	0.169270
C3121	C312	0.866010	0.974010	0.755630
C3131	C313	0.955330	0.388250	0.169270
C3141	C314	0.993250	0.552070	0.155090
C3151	C315	0.255630	0.904350	0.474010
C3161	C316	0.534180	0.721600	0.142980
C3171	C317	0.449340	0.863960	0.758980
C3181	C318	0.633990	0.095650	0.744370
C3191	C319	0.943830	0.312610	0.394390
C3201	C320	0.052070	0.655090	0.799590
C3211	C321	0.536980	0.983840	0.382540
C3221	C322	0.828530	0.980010	0.443570
C3231	C323	0.765040	0.003260	0.561920
C3241	C324	0.645640	0.690220	0.608380
C3251	C325	0.067420	0.234800	0.553860
C3261	C326	0.900660	0.734100	0.914060
C3271	C327	0.072280	0.136040	0.550660
C3281	C328	0.234800	0.143920	0.553860
C3291	C329	0.496740	0.734960	0.938080
C3301	C330	0.645640	0.608380	0.055760
C3311	C331	0.762880	0.959060	0.605480
C3321	C332	0.169780	0.265040	0.503260
C3331	C333	0.019990	0.556430	0.171470
C3341	C334	0.012850	0.544670	0.111750
C3351	C335	0.237120	0.394520	0.327420
C3361	C336	0.700410	0.844910	0.447930
C3371	C337	0.019990	0.171470	0.252110
C3381	C338	0.601240	0.721600	0.534180
C3391	C339	0.438080	0.234960	0.996740
C3401	C340	0.900660	0.914060	0.451180
C3411	C341	0.747890	0.828530	0.443570
C3421	C342	0.382540	0.096640	0.536980
C3431	C343	0.427720	0.258980	0.949340
C3441	C344	0.567420	0.643920	0.053860
C3451	C345	0.487150	0.169270	0.388250
C3461	C346	0.752110	0.671470	0.519990
C3471	C347	0.951180	0.414060	0.400660
C3481	C348	0.687390	0.056170	0.650830
C3491	C349	0.446140	0.932580	0.765200
C3501	C350	0.963020	0.516160	0.403360
C3511	C351	0.083360	0.313540	0.059340
C3521	C352	0.540940	0.737120	0.894520
C3531	C353	0.055760	0.690220	0.645640
C3541	C354	0.327420	0.237120	0.394520
C3551	C355	0.512850	0.611750	0.044670
C3561	C356	0.700410	0.006750	0.844910
C3571	C357	0.894390	0.443830	0.849170
C3581	C358	0.946140	0.432580	0.356080
C3591	C359	0.465820	0.398760	0.278400
C3601	C360	0.446140	0.765200	0.856080
C3611	C361	0.813540	0.043760	0.583360
C3621	C362	0.036980	0.882540	0.483840
C3631	C363	0.278400	0.398760	0.857020
C3641	C364	0.938080	0.734960	0.830220
C3651	C365	0.550660	0.136040	0.241020
C3661	C366	0.595650	0.244370	0.025990
C3671	C367	0.755630	0.866010	0.974010
C3681	C368	0.671470	0.752110	0.056430
C3691	C369	0.136040	0.550660	0.072280
C3701	C370	0.550660	0.241020	0.072280
C3711	C371	0.354360	0.391620	0.944240
C3721	C372	0.006750	0.447930	0.844910
C3731	C373	0.451180	0.734100	0.900660
C3741	C374	0.765200	0.446140	0.932580
C3751	C375	0.809780	0.891620	0.444240
C3761	C376	0.965820	0.898760	0.357020
C3771	C377	0.474010	0.366010	0.255630
C3781	C378	0.444240	0.854360	0.809780
C3791	C379	0.543760	0.313540	0.083360
C3801	C380	0.959060	0.762880	0.672580
C3811	C381	0.496740	0.938080	0.830220
C3821	C382	0.891620	0.444240	0.809780
C3831	C383	0.105480	0.262880	0.172580
C3841	C384	0.299590	0.552070	0.993250
C3851	C385	0.449340	0.927720	0.863960
C3861	C386	0.544670	0.330730	0.111750
C3871	C387	0.866010	0.404350	0.974010
C3881	C388	0.744370	0.633990	0.095650
C3891	C389	0.404350	0.866010	0.755630
C3901	C390	0.328530	0.943570	0.480010
C3911	C391	0.974010	0.755630	0.866010
C3921	C392	0.519990	0.752110	0.671470
C3931	C393	0.553860	0.067420	0.234800
C3941	C394	0.394520	0.237120	0.040940
C3951	C395	0.444240	0.809780	0.891620
C3961	C396	0.241020	0.550660	0.136040
C3971	C397	0.755630	0.404350	0.866010
C3981	C398	0.330730	0.012850	0.111750
C3991	C399	0.669780	0.561920	0.003260
C4001	C400	0.328530	0.247890	0.943570
C4011	C401	0.313540	0.059340	0.083360
C4021	C402	0.034180	0.101240	0.642980
C4031	C403	0.633990	0.525990	0.095650
C4041	C404	0.043760	0.583360	0.813540
C4051	C405	0.956240	0.440660	0.416640
C4061	C406	0.056430	0.671470	0.752110
C4071	C407	0.605610	0.687390	0.650830
C4081	C408	0.330730	0.544670	0.012850
C4091	C409	0.044670	0.830730	0.512850
C4101	C410	0.059340	0.083360	0.313540
C4111	C411	0.946140	0.265200	0.432580
C4121	C412	0.313540	0.083360	0.543760
C4131	C413	0.487150	0.955330	0.169270
C4141	C414	0.596640	0.483840	0.882540
C4151	C415	0.849170	0.443830	0.812610
C4161	C416	0.854360	0.444240	0.891620
C4171	C417	0.443830	0.849170	0.894390
C4181	C418	0.258980	0.949340	0.427720
C4191	C419	0.133990	0.595650	0.025990
C4201	C420	0.830220	0.496740	0.938080
C4211	C421	0.636040	0.572280	0.050660
C4221	C422	0.101240	0.221600	0.642980
C4231	C423	0.559340	0.043760	0.813540
C4241	C424	0.687390	0.605610	0.056170
C4251	C425	0.643920	0.053860	0.567420
C4261	C426	0.608380	0.645640	0.690220
C4271	C427	0.540940	0.827420	0.737120
C4281	C428	0.312610	0.349170	0.394390
C4291	C429	0.061920	0.169780	0.503260
C4301	C430	0.844910	0.447930	0.700410
C4311	C431	0.741020	0.636040	0.050660
C4321	C432	0.758980	0.927720	0.449340
C4331	C433	0.744370	0.095650	0.525990
C4341	C434	0.474010	0.255630	0.904350
C4351	C435	0.734800	0.567420	0.053860
C4361	C436	0.947930	0.344910	0.200410
C4371	C437	0.050660	0.741020	0.636040
C4381	C438	0.608380	0.690220	0.055760
C4391	C439	0.432580	0.946140	0.265200
C4401	C440	0.455330	0.888250	0.987150
C4411	C441	0.916640	0.686460	0.940660
C4421	C442	0.758980	0.449340	0.863960
C4431	C443	0.055760	0.645640	0.608380
C4441	C444	0.117460	0.403360	0.516160
C4451	C445	0.516160	0.403360	0.963020
C4461	C446	0.200410	0.947930	0.344910
C4471	C447	0.366010	0.474010	0.904350
C4481	C448	0.642980	0.101240	0.221600
C4491	C449	0.053860	0.643920	0.734800
C4501	C450	0.572280	0.741020	0.050660
C4511	C451	0.987150	0.888250	0.669270
C4521	C452	0.669780	0.003260	0.765040
C4531	C453	0.555760	0.190220	0.108380
C4541	C454	0.309780	0.391620	0.354360
C4551	C455	0.016160	0.903360	0.617460
C4561	C456	0.313540	0.543760	0.059340
C4571	C457	0.186460	0.416640	0.440660
C4581	C458	0.898760	0.357020	0.965820
C4591	C459	0.309780	0.944240	0.391620
C4601	C460	0.856080	0.932580	0.446140
C4611	C461	0.752110	0.519990	0.056430
C4621	C462	0.085940	0.099340	0.265900
C4631	C463	0.455330	0.669270	0.888250
C4641	C464	0.555760	0.108380	0.145640
C4651	C465	0.583360	0.043760	0.559340
C4661	C466	0.916640	0.456240	0.686460
C4671	C467	0.265200	0.946140	0.356080
C4681	C468	0.552070	0.993250	0.299590
C4691	C469	0.493250	0.655090	0.052070
C4701	C470	0.544670	0.012850	0.330730
C4711	C471	0.169270	0.388250	0.487150
C4721	C472	0.400660	0.951180	0.414060
C4731	C473	0.983840	0.096640	0.382540
C4741	C474	0.404350	0.974010	0.866010
C4751	C475	0.882540	0.483840	0.036980
C4761	C476	0.447930	0.006750	0.700410
C4771	C477	0.169270	0.487150	0.955330
C4781	C478	0.949340	0.258980	0.363960
C4791	C479	0.056170	0.605610	0.650830
C4801	C480	0.040940	0.327420	0.394520
C4811	C481	0.019990	0.252110	0.556430
C4821	C482	0.987150	0.669270	0.455330
C4831	C483	0.940660	0.916640	0.686460
C4841	C484	0.959060	0.605480	0.762880
C4851	C485	0.980010	0.747890	0.443570
C4861	C486	0.061920	0.265040	0.169780
C4871	C487	0.996740	0.438080	0.234960
C4881	C488	0.416640	0.440660	0.186460
C4891	C489	0.354360	0.944240	0.309780
C4901	C490	0.956240	0.416640	0.186460
C4911	C491	0.095650	0.744370	0.633990
C4921	C492	0.556430	0.252110	0.171470
C4931	C493	0.856080	0.765200	0.932580
C4941	C494	0.987150	0.455330	0.888250
C4951	C495	0.394520	0.327420	0.237120
C4961	C496	0.561920	0.003260	0.669780
C4971	C497	0.382540	0.983840	0.096640
C4981	C498	0.265040	0.061920	0.503260
C4991	C499	0.052070	0.493250	0.655090
C5001	C500	0.949340	0.427720	0.258980
C5011	C501	0.543760	0.083360	0.059340
C5021	C502	0.432580	0.356080	0.946140
C5031	C503	0.044670	0.512850	0.611750
C5041	C504	0.400660	0.234100	0.951180
C5051	C505	0.456240	0.686460	0.916640
C5061	C506	0.965820	0.778400	0.898760
C5071	C507	0.503260	0.061920	0.169780
C5081	C508	0.585940	0.599340	0.048820
C5091	C509	0.072280	0.241020	0.136040
C5101	C510	0.830730	0.512850	0.044670
C5111	C511	0.234800	0.067420	0.143920
C5121	C512	0.503260	0.169780	0.265040
C5131	C513	0.643920	0.734800	0.053860
C5141	C514	0.053860	0.734800	0.567420
C5151	C515	0.443570	0.747890	0.828530
C5161	C516	0.432580	0.265200	0.356080
C5171	C517	0.983840	0.536980	0.096640
C5181	C518	0.608380	0.055760	0.645640
C5191	C519	0.643920	0.567420	0.734800
C5201	C520	0.944240	0.354360	0.391620
C5211	C521	0.525990	0.744370	0.095650
C5221	C522	0.830730	0.611750	0.512850
C5231	C523	0.903360	0.463020	0.617460
C5241	C524	0.241020	0.136040	0.072280
C5251	C525	0.778400	0.898760	0.965820
C5261	C526	0.737120	0.827420	0.894520
C5271	C527	0.299590	0.993250	0.155090
C5281	C528	0.190220	0.145640	0.108380
C5291	C529	0.721600	0.142980	0.534180
C5301	C530	0.258980	0.427720	0.363960
C5311	C531	0.955330	0.169270	0.487150
C5321	C532	0.888250	0.455330	0.669270
C5331	C533	0.052070	0.799590	0.493250
C5341	C534	0.963020	0.403360	0.117460
C5351	C535	0.765900	0.585940	0.048820
C5361	C536	0.483840	0.882540	0.596640
C5371	C537	0.506750	0.200410	0.344910
C5381	C538	0.567420	0.053860	0.734800
C5391	C539	0.262880	0.172580	0.105480
C5401	C540	0.465820	0.278400	0.857020
C5411	C541	0.956240	0.186460	0.440660
C5421	C542	0.583360	0.813540	0.043760
C5431	C543	0.265040	0.169780	0.061920
C5441	C544	0.354360	0.309780	0.391620
C5451	C545	0.463020	0.617460	0.903360
C5461	C546	0.034180	0.642980	0.221600
C5471	C547	0.083360	0.059340	0.543760
C5481	C548	0.234100	0.400660	0.414060
C5491	C549	0.561920	0.669780	0.765040
C5501	C550	0.572280	0.636040	0.741020
C5511	C551	0.894520	0.540940	0.737120
C5521	C552	0.519990	0.056430	0.752110
C5531	C553	0.552070	0.155090	0.993250
C5541	C554	0.455330	0.987150	0.669270
C5551	C555	0.265200	0.432580	0.946140
C5561	C556	0.493250	0.799590	0.655090
C5571	C557	0.427720	0.363960	0.258980
C5581	C558	0.585940	0.765900	0.599340
C5591	C559	0.888250	0.669270	0.987150
C5601	C560	0.252110	0.171470	0.556430
C5611	C561	0.234960	0.438080	0.330220
C5621	C562	0.548820	0.085940	0.265900
C5631	C563	0.108380	0.555760	0.190220
C5641	C564	0.487150	0.388250	0.955330
C5651	C565	0.357020	0.965820	0.898760
C5661	C566	0.556170	0.105610	0.187390
C5671	C567	0.599340	0.048820	0.585940
C5681	C568	0.330220	0.996740	0.234960
C5691	C569	0.849170	0.812610	0.894390
C5701	C570	0.036980	0.483840	0.596640
C5711	C571	0.611750	0.044670	0.512850
C5721	C572	0.252110	0.019990	0.171470
C5731	C573	0.048820	0.599340	0.765900
C5741	C574	0.234100	0.414060	0.951180
C5751	C575	0.927720	0.449340	0.758980
C5761	C576	0.758980	0.863960	0.927720
C5771	C577	0.265900	0.085940	0.099340
C5781	C578	0.496740	0.830220	0.734960
C5791	C579	0.133990	0.244370	0.595650
C5801	C580	0.330730	0.111750	0.544670
C5811	C581	0.172580	0.262880	0.459060
C5821	C582	0.493250	0.052070	0.799590
C5831	C583	0.943830	0.349170	0.312610
C5841	C584	0.299590	0.155090	0.552070
C5851	C585	0.559340	0.813540	0.583360
C5861	C586	0.645640	0.055760	0.690220
C5871	C587	0.278400	0.857020	0.465820
C5881	C588	0.034180	0.221600	0.101240
C5891	C589	0.762880	0.605480	0.672580
C5901	C590	0.108380	0.190220	0.145640
C5911	C591	0.056430	0.519990	0.671470
C5921	C592	0.943570	0.247890	0.480010
C5931	C593	0.265900	0.099340	0.548820
C5941	C594	0.601240	0.534180	0.142980
C5951	C595	0.951180	0.400660	0.234100
C5961	C596	0.516160	0.963020	0.117460
C5971	C597	0.734800	0.053860	0.643920
C5981	C598	0.403360	0.117460	0.963020
C5991	C599	0.394520	0.040940	0.327420
C6001	C600	0.394390	0.943830	0.312610
C6011	C601	0.344910	0.947930	0.506750
C6021	C602	0.265900	0.548820	0.085940
C6031	C603	0.234100	0.951180	0.400660
C6041	C604	0.980010	0.828530	0.747890
C6051	C605	0.974010	0.866010	0.404350
C6061	C606	0.025990	0.133990	0.595650
C6071	C607	0.765900	0.048820	0.599340
C6081	C608	0.349170	0.394390	0.312610
C6091	C609	0.443570	0.980010	0.747890
C6101	C610	0.456240	0.916640	0.940660
C6111	C611	0.234960	0.330220	0.996740
C6121	C612	0.416640	0.956240	0.440660
C6131	C613	0.221600	0.642980	0.101240
C6141	C614	0.672580	0.959060	0.762880
C6151	C615	0.599340	0.765900	0.048820
C6161	C616	0.506750	0.947930	0.200410
C6171	C617	0.700410	0.447930	0.006750
C6181	C618	0.053860	0.567420	0.643920
C6191	C619	0.734100	0.914060	0.900660
C6201	C620	0.186460	0.956240	0.416640
C6211	C621	0.040940	0.237120	0.327420
C6221	C622	0.891620	0.809780	0.854360
C6231	C623	0.012850	0.111750	0.330730
C6241	C624	0.882540	0.596640	0.483840
C6251	C625	0.650830	0.605610	0.687390
C6261	C626	0.762880	0.672580	0.959060
C6271	C627	0.559340	0.583360	0.043760
C6281	C628	0.150830	0.187390	0.105610
C6291	C629	0.056170	0.650830	0.687390
C6301	C630	0.244370	0.133990	0.025990
C6311	C631	0.451180	0.900660	0.914060
C6321	C632	0.096640	0.382540	0.983840
C6331	C633	0.809780	0.854360	0.891620
C6341	C634	0.416640	0.186460	0.956240
C6351	C635	0.980010	0.443570	0.828530
C6361	C636	0.863960	0.927720	0.758980
C6371	C637	0.605480	0.959060	0.672580
C6381	C638	0.765900	0.599340	0.585940
C6391	C639	0.940660	0.456240	0.916640
C6401	C640	0.669780	0.765040	0.561920
C6411	C641	0.809780	0.444240	0.854360
C6421	C642	0.105610	0.556170	0.150830
C6431	C643	0.101240	0.034180	0.221600
C6441	C644	0.857020	0.278400	0.398760
C6451	C645	0.172580	0.105480	0.262880
C6461	C646	0.671470	0.056430	0.519990
C6471	C647	0.366010	0.904350	0.255630
C6481	C648	0.414060	0.951180	0.234100
C6491	C649	0.171470	0.556430	0.252110
C6501	C650	0.650830	0.687390	0.056170
C6511	C651	0.398760	0.278400	0.465820
C6521	C652	0.356080	0.265200	0.946140
C6531	C653	0.200410	0.344910	0.506750
C6541	C654	0.734100	0.900660	0.451180
C6551	C655	0.983840	0.382540	0.536980
C6561	C656	0.903360	0.016160	0.463020
C6571	C657	0.932580	0.765200	0.446140
C6581	C658	0.255630	0.366010	0.904350
C6591	C659	0.765200	0.932580	0.856080
C6601	C660	0.856080	0.446140	0.765200
C6611	C661	0.900660	0.451180	0.734100
C6621	C662	0.854360	0.891620	0.809780
C6631	C663	0.596640	0.882540	0.036980
C6641	C664	0.686460	0.916640	0.456240
C6651	C665	0.483840	0.036980	0.882540
C6661	C666	0.844910	0.700410	0.006750
C6671	C667	0.349170	0.943830	0.394390
C6681	C668	0.440660	0.956240	0.186460
C6691	C669	0.085940	0.548820	0.099340
C6701	C670	0.669270	0.888250	0.455330
C6711	C671	0.669270	0.455330	0.987150
C6721	C672	0.108380	0.145640	0.555760
O11	O1	0.969580	0.443400	0.089240
O21	O2	0.443110	0.897990	0.624090
O31	O3	0.602010	0.465190	0.056890
O41	O4	0.030420	0.502220	0.556600
O51	O5	0.124090	0.534810	0.397990
O61	O6	0.034810	0.897990	0.443110
O71	O7	0.530420	0.056600	0.002220
O81	O8	0.056600	0.530420	0.410760
O91	O9	0.465190	0.602010	0.875910
O101	O10	0.443400	0.089240	0.969580
O111	O11	0.910760	0.556600	0.502220
O121	O12	0.997780	0.469580	0.943400
O131	O13	0.030420	0.556600	0.910760
O141	O14	0.910760	0.030420	0.556600
O151	O15	0.965190	0.556890	0.375910
O161	O16	0.397990	0.124090	0.534810
O171	O17	0.124090	0.397990	0.943110
O181	O18	0.410760	0.002220	0.056600
O191	O19	0.502220	0.556600	0.030420
O201	O20	0.556600	0.030420	0.502220
O211	O21	0.497780	0.969580	0.089240
O221	O22	0.056890	0.465190	0.875910
O231	O23	0.002220	0.530420	0.056600
O241	O24	0.469580	0.997780	0.589240
O251	O25	0.465190	0.875910	0.056890
O261	O26	0.969580	0.497780	0.443400
O271	O27	0.002220	0.410760	0.530420
O281	O28	0.443400	0.497780	0.089240
O291	O29	0.534810	0.124090	0.943110
O301	O30	0.534810	0.397990	0.124090
O311	O31	0.034810	0.443110	0.624090
O321	O32	0.624090	0.034810	0.443110
O331	O33	0.624090	0.443110	0.897990
O341	O34	0.375910	0.102010	0.965190
O351	O35	0.556890	0.965190	0.102010
O361	O36	0.556890	0.102010	0.375910
O371	O37	0.943400	0.589240	0.997780
O381	O38	0.497780	0.089240	0.443400
O391	O39	0.056890	0.602010	0.465190
O401	O40	0.897990	0.034810	0.624090
O411	O41	0.089240	0.497780	0.969580
O421	O42	0.102010	0.965190	0.375910
O431	O43	0.897990	0.624090	0.443110
O441	O44	0.410760	0.530420	0.002220
O451	O45	0.443110	0.624090	0.034810
O461	O46	0.875910	0.465190	0.602010
O471	O47	0.556890	0.375910	0.965190
O481	O48	0.556600	0.910760	0.030420
O491	O49	0.997780	0.589240	0.469580
O501	O50	0.465190	0.056890	0.602010
O511	O51	0.530420	0.410760	0.056600
O521	O52	0.943110	0.124090	0.397990
O531	O53	0.624090	0.897990	0.034810
O541	O54	0.943400	0.469580	0.589240
O551	O55	0.102010	0.556890	0.965190
O561	O56	0.375910	0.965190	0.556890
O571	O57	0.943110	0.534810	0.124090
O581	O58	0.469580	0.589240	0.943400
O591	O59	0.589240	0.469580	0.997780
O601	O60	0.102010	0.375910	0.556890
O611	O61	0.397990	0.534810	0.943110
O621	O62	0.502220	0.030420	0.910760
O631	O63	0.965190	0.375910	0.102010
O641	O64	0.943110	0.397990	0.534810
O651	O65	0.943400	0.997780	0.469580
O661	O66	0.602010	0.056890	0.875910
O671	O67	0.056600	0.410760	0.002220
O681	O68	0.589240	0.943400	0.469580
O691	O69	0.897990	0.443110	0.034810
O701	O70	0.602010	0.875910	0.465190
O711	O71	0.056600	0.002220	0.530420
O721	O72	0.397990	0.943110	0.124090
O731	O73	0.002220	0.056600	0.410760
O741	O74	0.443400	0.969580	0.497780
O751	O75	0.030420	0.910760	0.502220
O761	O76	0.443110	0.034810	0.897990
O771	O77	0.534810	0.943110	0.397990
O781	O78	0.910760	0.502220	0.030420
O791	O79	0.469580	0.943400	0.997780
O801	O80	0.965190	0.102010	0.556890
O811	O81	0.497780	0.443400	0.969580
O821	O82	0.875910	0.056890	0.465190
O831	O83	0.089240	0.443400	0.497780
O841	O84	0.530420	0.002220	0.410760
O851	O85	0.969580	0.089240	0.497780
O861	O86	0.589240	0.997780	0.943400
O871	O87	0.556600	0.502220	0.910760
O881	O88	0.375910	0.556890	0.102010
O891	O89	0.089240	0.969580	0.443400
O901	O90	0.124090	0.943110	0.534810
O911	O91	0.997780	0.943400	0.589240
O921	O92	0.034810	0.624090	0.897990
O931	O93	0.875910	0.602010	0.056890
O941	O94	0.502220	0.910760	0.556600
O951	O95	0.056890	0.875910	0.602010
O961	O96	0.410760	0.056600	0.530420
