data_ja903726m_si_002_clean_PM
_symmetry_space_group_name_H-M	'P1'
_cell_length_a	16.009600
_cell_length_b	16.009300
_cell_length_c	16.009300
_cell_angle_alpha	108.731000
_cell_angle_beta	108.732000
_cell_angle_gamma	110.962000
_symmetry_Int_Tables_number 1

loop_
_symmetry_equiv_pos_as_xyz
'x,y,z'

loop_
_atom_site_label
_atom_site_type_symbol
_atom_site_fract_x
_atom_site_fract_y
_atom_site_fract_z
Ti11	Ti1	0.289070	0.579330	0.870450
Ti21	Ti2	0.576260	0.709690	0.282850
Ti31	Ti3	0.422100	0.296180	0.717540
Ti41	Ti4	0.573610	0.291220	0.871210
Ti51	Ti5	0.704550	0.578640	0.282460
Ti61	Ti6	0.418630	0.708890	0.129550
Ti71	Ti7	0.293410	0.426840	0.717150
Ti81	Ti8	0.702400	0.420010	0.128790
C91	C9	0.959320	0.435700	0.397150
C101	C10	0.494960	0.993450	0.908620
C111	C11	0.903750	0.425120	0.908390
C121	C12	0.805230	0.808470	0.394780
C131	C13	0.193560	0.197490	0.602380
C141	C14	0.562170	0.038550	0.602850
C151	C15	0.089860	0.542900	0.000000
C161	C16	0.458530	0.899070	0.908630
C171	C17	0.497050	0.844370	0.343760
C181	C18	0.558200	0.088270	0.000000
C191	C19	0.093600	0.097460	0.544800
C201	C20	0.496960	0.924180	0.424150
C211	C21	0.999930	0.095190	0.522030
C221	C22	0.905140	0.908390	0.451200
C231	C23	0.591170	0.595110	0.397610
C241	C24	0.571620	0.483770	0.480150
C251	C25	0.091470	0.003620	0.519850
C261	C26	0.586380	0.084820	0.091370
C271	C27	0.153290	0.500610	0.656250
C281	C28	0.549950	0.990440	0.091360
C291	C29	0.431740	0.962560	0.398210
C301	C30	0.431860	0.037930	0.473440
C311	C31	0.483140	0.895640	0.000000
C321	C32	0.591010	0.189480	0.000000
C331	C33	0.562180	0.963300	0.527600
C341	C34	0.431300	0.526260	0.524050
C351	C35	0.995360	0.516730	0.091610
C361	C36	0.072810	0.500030	0.575860
C371	C37	0.525030	0.436880	0.526250
C381	C38	0.901770	0.446700	0.000000
C391	C39	0.033520	0.564350	0.601790
C401	C40	0.840130	0.500110	0.342810
C411	C41	0.958420	0.564490	0.526560
C421	C42	0.434930	0.792810	0.000000
C431	C43	0.907250	0.002210	0.475950
C441	C44	0.998780	0.910630	0.473750
C451	C45	0.548790	0.552660	0.455200
C461	C46	0.453950	0.457200	0.548810
C471	C47	0.996350	0.472440	0.908390
C481	C48	0.189370	0.587740	0.000000
C491	C49	0.034580	0.435700	0.472400
C501	C50	0.477900	0.573150	0.477970
C511	C51	0.497090	0.077080	0.576890
C521	C52	0.920190	0.500180	0.423110
C531	C53	0.802050	0.404420	0.000000
C541	C54	0.410450	0.413700	0.605230
C551	C55	0.497320	0.157300	0.657190
C561	C56	0.087960	0.564060	0.091610
O571	O57	0.351500	0.439280	0.628890
O581	O58	0.645740	0.272840	0.084370
O591	O59	0.184360	0.557890	0.748550
O601	O60	0.379710	0.578110	0.810160
O611	O61	0.561370	0.188470	0.915630
O621	O62	0.759480	0.570370	0.187760
O631	O63	0.336910	0.727040	0.916300
O641	O64	0.435810	0.809350	0.251450
O651	O65	0.803420	0.431080	0.084100
O661	O66	0.805380	0.439290	0.250460
O671	O67	0.597040	0.395690	0.000000
O681	O68	0.722610	0.810390	0.371120
O691	O69	0.189790	0.444250	0.631520
O701	O70	0.276180	0.195960	0.626920
O711	O71	0.396090	0.605400	0.000000
O721	O72	0.440080	0.192890	0.632270
O731	O73	0.554920	0.188830	0.749550
O741	O74	0.423720	0.236760	0.809170
O751	O75	0.272140	0.646740	0.084500
O761	O76	0.719330	0.346980	0.915910
O771	O77	0.564180	0.652150	0.371690
O781	O78	0.614550	0.427590	0.190830
O791	O79	0.558270	0.812730	0.368480
O801	O80	0.569550	0.767950	0.189840
O811	O81	0.807800	0.560620	0.367730
O821	O82	0.649260	0.569040	0.373080
O831	O83	0.420630	0.810750	0.083710
O841	O84	0.236900	0.430140	0.810090
O851	O85	0.806370	0.725330	0.369260
O861	O86	0.192490	0.280460	0.628310
O871	O87	0.187630	0.562230	0.915500
O881	O88	0.437110	0.356070	0.630740
O891	O89	0.571720	0.382610	0.812240
O901	O90	0.398860	0.402740	0.799150
O911	O91	0.426800	0.620050	0.189910
O921	O92	0.599700	0.603580	0.200850
H931	H93	0.931880	0.385090	0.318390
H941	H94	0.471860	0.991950	0.836490
H951	H95	0.833360	0.372460	0.836290
H961	H96	0.613490	0.066690	0.681610
H971	H97	0.408940	0.828440	0.836510
H981	H98	0.998190	0.165620	0.540820
H991	H99	0.624940	0.465060	0.463110
H1001	H100	0.161830	0.001960	0.536890
H1011	H101	0.635440	0.155460	0.163510
H1021	H102	0.572500	0.991920	0.163480
H1031	H103	0.380450	0.934480	0.319460
H1041	H104	0.380640	0.065500	0.450400
H1051	H105	0.613430	0.935750	0.550630
H1061	H106	0.377880	0.544870	0.540950
H1071	H107	0.997080	0.536180	0.163720
H1081	H108	0.545440	0.385120	0.544910
H1091	H109	0.060980	0.615010	0.680540
H1101	H110	0.930240	0.615100	0.549600
H1111	H111	0.836930	0.003920	0.459060
H1121	H112	0.000540	0.840210	0.455090
H1131	H113	0.994560	0.453260	0.836280
H1141	H114	0.062810	0.385130	0.449370
H1151	H115	0.457370	0.624800	0.459180
H1161	H116	0.158290	0.616990	0.163720
