data_ja905009e_si_002_clean_PM
_symmetry_space_group_name_H-M	'P1'
_cell_length_a	15.095600
_cell_length_b	15.506900
_cell_length_c	25.727100
_cell_angle_alpha	81.896700
_cell_angle_beta	73.166200
_cell_angle_gamma	60.873500
_symmetry_Int_Tables_number 1

loop_
_symmetry_equiv_pos_as_xyz
'x,y,z'

loop_
_atom_site_label
_atom_site_type_symbol
_atom_site_fract_x
_atom_site_fract_y
_atom_site_fract_z
Zn11	Zn1	0.394060	0.421800	0.829730
Zn21	Zn2	0.184140	0.421800	0.670270
Zn31	Zn3	0.284430	0.081460	0.838780
Zn41	Zn4	0.715570	0.918540	0.161220
Zn51	Zn5	0.634110	0.081460	0.661220
Zn61	Zn6	0.365890	0.918540	0.338780
Zn71	Zn7	0.605940	0.578200	0.170270
Zn81	Zn8	0.815860	0.578200	0.329730
Mo11	Mo1	0.584290	0.819340	0.112380
Mo21	Mo2	0.153420	0.506280	0.798720
Mo31	Mo3	0.415710	0.180660	0.887620
Mo41	Mo4	0.558560	0.002080	0.291810
Mo51	Mo5	0.846580	0.493720	0.201280
Mo61	Mo6	0.457330	0.318300	0.608790
Mo71	Mo7	0.403630	0.180660	0.612380
Mo81	Mo8	0.091510	0.322260	0.795390
Mo91	Mo9	0.189880	0.184960	0.721390
Mo101	Mo10	0.542670	0.681700	0.391210
Mo111	Mo11	0.775630	0.681700	0.108790
Mo121	Mo12	0.596370	0.819340	0.387620
Mo131	Mo13	0.224370	0.318300	0.891210
Mo141	Mo14	0.908490	0.677740	0.204610
Mo151	Mo15	0.560640	0.997920	0.791810
Mo161	Mo16	0.340300	0.506280	0.701280
Mo171	Mo17	0.413770	0.677740	0.295390
Mo181	Mo18	0.810120	0.815040	0.278610
Mo191	Mo19	0.586230	0.322260	0.704610
Mo201	Mo20	0.625160	0.184960	0.778610
Mo211	Mo21	0.374840	0.815040	0.221390
Mo221	Mo22	0.659700	0.493720	0.298720
Mo231	Mo23	0.439360	0.002080	0.208190
Mo241	Mo24	0.441440	0.997920	0.708190
H11	H1	0.604900	0.335800	0.975400
H21	H2	0.042600	0.103200	0.435500
H31	H3	0.043700	0.835600	0.996200
H41	H4	0.624500	0.397400	0.046200
H51	H5	0.145800	0.896800	0.935500
H61	H6	0.956300	0.164400	0.003800
H71	H7	0.021900	0.602600	0.546200
H81	H8	0.120700	0.835600	0.503800
H91	H9	0.957400	0.896800	0.564500
H101	H10	0.854200	0.103200	0.064500
H111	H11	0.940700	0.664200	0.475400
H121	H12	0.059300	0.335800	0.524600
H131	H13	0.395100	0.664200	0.024600
H141	H14	0.879300	0.164400	0.496200
H151	H15	0.375500	0.602600	0.953800
H161	H16	0.978100	0.397400	0.453800
C11	C1	0.973890	0.098220	0.002230
C21	C2	0.437200	0.598000	0.015050
C31	C3	0.025750	0.061500	0.461340
C41	C4	0.203620	0.918960	0.422810
C51	C5	0.927890	0.098220	0.497770
C61	C6	0.510560	0.536480	0.043310
C71	C7	0.012900	0.561000	0.527920
C81	C8	0.061790	0.036620	0.963180
C91	C9	0.987100	0.439000	0.472080
C101	C10	0.047040	0.463520	0.543310
C111	C11	0.900500	0.578800	0.411190
C121	C12	0.938210	0.963380	0.036820
C131	C13	0.573900	0.439000	0.027920
C141	C14	0.479300	0.421200	0.911190
C151	C15	0.426100	0.561000	0.972080
C161	C16	0.901590	0.036620	0.536820
C171	C17	0.796380	0.081040	0.577190
C181	C18	0.562800	0.402000	0.984950
C191	C19	0.098410	0.963380	0.463180
C201	C20	0.026110	0.901780	0.997770
C211	C21	0.099500	0.421200	0.588810
C221	C22	0.072110	0.901780	0.502230
C231	C23	0.035200	0.402000	0.515050
C241	C24	0.974250	0.938500	0.538660
C251	C25	0.489440	0.463520	0.956690
C261	C26	0.122580	0.081040	0.922810
C271	C27	0.912750	0.061500	0.038660
C281	C28	0.520700	0.578800	0.088810
C291	C29	0.877420	0.918960	0.077190
C301	C30	0.952960	0.536480	0.456690
C311	C31	0.087250	0.938500	0.961340
C321	C32	0.964800	0.598000	0.484950
O11	O1	0.463120	0.040760	0.638620
O21	O2	0.577880	0.988440	0.212540
O31	O3	0.165710	0.459780	0.866630
O41	O4	0.793580	0.978840	0.111090
O51	O5	0.433680	0.988440	0.287460
O61	O6	0.320300	0.323300	0.625560
O71	O7	0.298270	0.493000	0.782690
O81	O8	0.344160	0.956280	0.221970
O91	O9	0.791270	0.507000	0.282690
O101	O10	0.701730	0.507000	0.217310
O111	O11	0.679700	0.676700	0.374440
O121	O12	0.443090	0.817820	0.140170
O131	O13	0.936540	0.536780	0.206230
O141	O14	0.772420	0.021160	0.611090
O151	O15	0.104720	0.481760	0.615720
O161	O16	0.625490	0.540220	0.366630
O171	O17	0.503880	0.959240	0.138620
O181	O18	0.529880	0.328200	0.783470
O191	O19	0.473320	0.463220	0.706230
O201	O20	0.739090	0.817820	0.359830
O211	O21	0.422120	0.011560	0.787460
O221	O22	0.643600	0.676700	0.125560
O231	O23	0.374510	0.459780	0.633370
O241	O24	0.088680	0.170840	0.924850
O251	O25	0.556910	0.182180	0.859830
O261	O26	0.294450	0.175480	0.878620
O271	O27	0.496120	0.040760	0.861380
O281	O28	0.566320	0.011560	0.712540
O291	O29	0.895280	0.518240	0.384280
O301	O30	0.469930	0.824520	0.378620
O311	O31	0.413520	0.481760	0.884280
O321	O32	0.259520	0.829160	0.424850
O331	O33	0.464950	0.667700	0.096960
O341	O34	0.208730	0.493000	0.717310
O351	O35	0.867350	0.667700	0.403040
O361	O36	0.361360	0.820720	0.298530
O371	O37	0.419150	0.680340	0.373650
O381	O38	0.834290	0.540220	0.133370
O391	O39	0.063460	0.463220	0.793770
O401	O40	0.099490	0.319660	0.873650
O411	O41	0.260910	0.182180	0.640170
O421	O42	0.911320	0.829160	0.075150
O431	O43	0.206420	0.021160	0.888910
O441	O44	0.535050	0.332300	0.903040
O451	O45	0.817920	0.820720	0.201470
O461	O46	0.900510	0.680340	0.126350
O471	O47	0.356400	0.323300	0.874440
O481	O48	0.182080	0.179280	0.798530
O491	O49	0.227580	0.978840	0.388910
O501	O50	0.655840	0.043720	0.778030
O511	O51	0.699560	0.956280	0.278030
O521	O52	0.530070	0.175480	0.621380
O531	O53	0.858080	0.671800	0.283470
O541	O54	0.580850	0.319660	0.626350
O551	O55	0.705550	0.824520	0.121380
O561	O56	0.638640	0.179280	0.701470
O571	O57	0.586480	0.518240	0.115720
O581	O58	0.740480	0.170840	0.575150
O591	O59	0.141920	0.328200	0.716530
O601	O60	0.300440	0.043720	0.721970
O611	O61	0.526680	0.536780	0.293770
O621	O62	0.470120	0.671800	0.216530
O631	O63	0.132650	0.332300	0.596960
O641	O64	0.536880	0.959240	0.361380
