data_ja994186h_clean_PM
_symmetry_space_group_name_H-M	'P1'
_cell_length_a	9.743800
_cell_length_b	12.333100
_cell_length_c	16.326200
_cell_angle_alpha	90.000000
_cell_angle_beta	90.000000
_cell_angle_gamma	97.117000
_symmetry_Int_Tables_number 1

loop_
_symmetry_equiv_pos_as_xyz
'x,y,z'

loop_
_atom_site_label
_atom_site_type_symbol
_atom_site_fract_x
_atom_site_fract_y
_atom_site_fract_z
Co11	Co1	0.066880	0.418470	0.068670
Co21	Co2	0.933120	0.581530	0.931330
Co31	Co3	0.566880	0.918470	0.431330
Co41	Co4	0.433120	0.081530	0.568670
Re11	Re1	0.618800	0.898380	0.978730
Re21	Re2	0.381200	0.101620	0.021270
Re31	Re3	0.851750	0.392990	0.510990
Re41	Re4	0.148250	0.607010	0.489010
Re51	Re5	0.351750	0.892990	0.989010
Re61	Re6	0.118800	0.398380	0.521270
Re71	Re7	0.991300	0.530220	0.610410
Re81	Re8	0.008700	0.469780	0.389590
Re91	Re9	0.881200	0.601620	0.478730
Re101	Re10	0.491300	0.030220	0.889590
Re111	Re11	0.508700	0.969780	0.110410
Re121	Re12	0.648250	0.107010	0.010990
C11	C1	0.187200	0.768300	0.970400
C21	C2	0.744800	0.775600	0.953900
C31	C3	0.474600	0.062500	0.764000
C41	C4	0.312800	0.731700	0.470400
C51	C5	0.974600	0.562500	0.736000
C61	C6	0.755200	0.724400	0.453900
C71	C7	0.244800	0.275600	0.546100
C81	C8	0.687200	0.268300	0.529600
C91	C9	0.812800	0.231700	0.029600
C101	C10	0.025400	0.437500	0.264000
C111	C11	0.255200	0.224400	0.046100
C121	C12	0.525400	0.937500	0.236000
S11	S1	0.033900	0.664600	0.368400
S21	S2	0.018900	0.720900	0.572100
S31	S3	0.243800	0.023100	0.908200
S41	S4	0.981100	0.279100	0.427900
S51	S5	0.481100	0.779100	0.072100
S61	S6	0.518900	0.220900	0.927900
S71	S7	0.466100	0.835400	0.868400
S81	S8	0.533900	0.164600	0.131600
S91	S9	0.759800	0.467000	0.388300
S101	S10	0.256200	0.476900	0.408200
S111	S11	0.740200	0.033000	0.888300
S121	S12	0.966100	0.335400	0.631600
S131	S13	0.743800	0.523100	0.591800
S141	S14	0.240200	0.533000	0.611700
S151	S15	0.756200	0.976900	0.091800
S161	S16	0.259800	0.967000	0.111700
N11	N1	0.192700	0.296900	0.059000
N21	N2	0.400200	0.801800	0.455800
N31	N3	0.458200	0.078000	0.694600
N41	N4	0.099800	0.698200	0.955800
N51	N5	0.041800	0.422000	0.194600
N61	N6	0.541800	0.922000	0.305400
N71	N7	0.692700	0.796900	0.441000
N81	N8	0.958200	0.578000	0.805400
N91	N9	0.900200	0.301800	0.044200
N101	N10	0.807300	0.703100	0.941000
N111	N11	0.307300	0.203100	0.559000
N121	N12	0.599800	0.198200	0.544200
O11	O1	0.072600	0.453700	0.938400
O21	O2	0.927400	0.546300	0.061600
O31	O3	0.572600	0.953700	0.561600
O41	O4	0.427400	0.046300	0.438400
