data_jacs_PM
_symmetry_space_group_name_H-M	'P1'
_cell_length_a	32.139700
_cell_length_b	32.139700
_cell_length_c	16.697600
_cell_angle_alpha	90.000000
_cell_angle_beta	90.000000
_cell_angle_gamma	120.000000
_symmetry_Int_Tables_number 1

loop_
_symmetry_equiv_pos_as_xyz
'x,y,z'

loop_
_atom_site_label
_atom_site_type_symbol
_atom_site_fract_x
_atom_site_fract_y
_atom_site_fract_z
O11	O1	0.249940	0.660000	0.912300
C11	C1	0.177600	0.551500	0.796800
H11	H1	0.188400	0.531900	0.818200
C21	C2	0.143000	0.534300	0.737200
H21	H2	0.131700	0.503500	0.717000
O21	O2	0.340000	0.589940	0.912300
C31	C3	0.448500	0.626100	0.796800
H31	H3	0.468100	0.656500	0.818200
C41	C4	0.465700	0.608700	0.737200
H41	H4	0.496500	0.628200	0.717000
O31	O3	0.410060	0.750060	0.912300
C51	C5	0.373900	0.822400	0.796800
H51	H5	0.343500	0.811600	0.818200
C61	C6	0.391300	0.857000	0.737200
H61	H6	0.371800	0.868300	0.717000
O41	O4	0.750060	0.340000	0.912300
C71	C7	0.822400	0.448500	0.796800
H71	H7	0.811600	0.468100	0.818200
C81	C8	0.857000	0.465700	0.737200
H81	H8	0.868300	0.496500	0.717000
O51	O5	0.660000	0.410060	0.912300
C91	C9	0.551500	0.373900	0.796800
H91	H9	0.531900	0.343500	0.818200
C101	C10	0.534300	0.391300	0.737200
H101	H10	0.503500	0.371800	0.717000
O61	O6	0.589940	0.249940	0.912300
C111	C11	0.626100	0.177600	0.796800
H111	H11	0.656500	0.188400	0.818200
C121	C12	0.608700	0.143000	0.737200
H121	H12	0.628200	0.131700	0.717000
O71	O7	0.660000	0.249940	0.087700
C131	C13	0.551500	0.177600	0.203200
H131	H13	0.531900	0.188400	0.181800
C141	C14	0.534300	0.143000	0.262800
H141	H14	0.503500	0.131700	0.283000
O81	O8	0.589940	0.340000	0.087700
C151	C15	0.626100	0.448500	0.203200
H151	H15	0.656500	0.468100	0.181800
C161	C16	0.608700	0.465700	0.262800
H161	H16	0.628200	0.496500	0.283000
O91	O9	0.750060	0.410060	0.087700
C171	C17	0.822400	0.373900	0.203200
H171	H17	0.811600	0.343500	0.181800
C181	C18	0.857000	0.391300	0.262800
H181	H18	0.868300	0.371800	0.283000
O101	O10	0.340000	0.750060	0.087700
C191	C19	0.448500	0.822400	0.203200
H191	H19	0.468100	0.811600	0.181800
C201	C20	0.465700	0.857000	0.262800
H201	H20	0.496500	0.868300	0.283000
O111	O11	0.410060	0.660000	0.087700
C211	C21	0.373900	0.551500	0.203200
H211	H21	0.343500	0.531900	0.181800
C221	C22	0.391300	0.534300	0.262800
H221	H22	0.371800	0.503500	0.283000
O121	O12	0.249940	0.589940	0.087700
C231	C23	0.177600	0.626100	0.203200
H231	H23	0.188400	0.656500	0.181800
C241	C24	0.143000	0.608700	0.262800
H241	H24	0.131700	0.628200	0.283000
O131	O13	0.750060	0.340000	0.087700
C251	C25	0.822400	0.448500	0.203200
H251	H25	0.811600	0.468100	0.181800
C261	C26	0.857000	0.465700	0.262800
H261	H26	0.868300	0.496500	0.283000
O141	O14	0.660000	0.410060	0.087700
C271	C27	0.551500	0.373900	0.203200
H271	H27	0.531900	0.343500	0.181800
C281	C28	0.534300	0.391300	0.262800
H281	H28	0.503500	0.371800	0.283000
O151	O15	0.589940	0.249940	0.087700
C291	C29	0.626100	0.177600	0.203200
H291	H29	0.656500	0.188400	0.181800
C301	C30	0.608700	0.143000	0.262800
H301	H30	0.628200	0.131700	0.283000
O161	O16	0.249940	0.660000	0.087700
C311	C31	0.177600	0.551500	0.203200
H311	H31	0.188400	0.531900	0.181800
C321	C32	0.143000	0.534300	0.262800
H321	H32	0.131700	0.503500	0.283000
O171	O17	0.340000	0.589940	0.087700
C331	C33	0.448500	0.626100	0.203200
H331	H33	0.468100	0.656500	0.181800
C341	C34	0.465700	0.608700	0.262800
H341	H34	0.496500	0.628200	0.283000
O181	O18	0.410060	0.750060	0.087700
C351	C35	0.373900	0.822400	0.203200
H351	H35	0.343500	0.811600	0.181800
C361	C36	0.391300	0.857000	0.262800
H361	H36	0.371800	0.868300	0.283000
O191	O19	0.340000	0.750060	0.912300
C371	C37	0.448500	0.822400	0.796800
H371	H37	0.468100	0.811600	0.818200
C381	C38	0.465700	0.857000	0.737200
H381	H38	0.496500	0.868300	0.717000
O201	O20	0.410060	0.660000	0.912300
C391	C39	0.373900	0.551500	0.796800
H391	H39	0.343500	0.531900	0.818200
C401	C40	0.391300	0.534300	0.737200
H401	H40	0.371800	0.503500	0.717000
O211	O21	0.249940	0.589940	0.912300
C411	C41	0.177600	0.626100	0.796800
H411	H41	0.188400	0.656500	0.818200
C421	C42	0.143000	0.608700	0.737200
H421	H42	0.131700	0.628200	0.717000
O221	O22	0.660000	0.249940	0.912300
C431	C43	0.551500	0.177600	0.796800
H431	H43	0.531900	0.188400	0.818200
C441	C44	0.534300	0.143000	0.737200
H441	H44	0.503500	0.131700	0.717000
O231	O23	0.589940	0.340000	0.912300
C451	C45	0.626100	0.448500	0.796800
H451	H45	0.656500	0.468100	0.818200
C461	C46	0.608700	0.465700	0.737200
H461	H46	0.628200	0.496500	0.717000
O241	O24	0.750060	0.410060	0.912300
C471	C47	0.822400	0.373900	0.796800
H471	H47	0.811600	0.343500	0.818200
C481	C48	0.857000	0.391300	0.737200
H481	H48	0.868300	0.371800	0.717000
Co11	Co1	0.297050	0.702950	0.000000
Co21	Co2	0.297050	0.594100	0.000000
Co31	Co3	0.405900	0.702950	0.000000
Co41	Co4	0.702950	0.297050	0.000000
Co51	Co5	0.702950	0.405900	0.000000
Co61	Co6	0.594100	0.297050	0.000000
C491	C49	0.100600	0.550300	0.567000
C501	C50	0.039300	0.519650	0.669000
C511	C51	0.087000	0.543500	0.643700
C521	C52	0.150200	0.575100	0.542200
H491	H49	0.177000	0.588500	0.575400
C531	C53	0.023400	0.511700	0.749800
H501	H50	0.043000	0.521500	0.794900
C541	C54	0.125300	0.562650	0.707400
C551	C55	0.195900	0.597950	0.824400
C561	C56	0.236100	0.618050	0.889100
C571	C57	0.449700	0.550300	0.567000
C581	C58	0.480350	0.519650	0.669000
C591	C59	0.456500	0.543500	0.643700
C601	C60	0.424900	0.575100	0.542200
H511	H51	0.411500	0.588500	0.575400
C611	C61	0.488300	0.511700	0.749800
H521	H52	0.478500	0.521500	0.794900
C621	C62	0.437350	0.562650	0.707400
C631	C63	0.402050	0.597950	0.824400
C641	C64	0.381950	0.618050	0.889100
C651	C65	0.449700	0.899400	0.567000
C661	C66	0.480350	0.960700	0.669000
C671	C67	0.456500	0.913000	0.643700
C681	C68	0.424900	0.849800	0.542200
H531	H53	0.411500	0.823000	0.575400
C691	C69	0.488300	0.976600	0.749800
H541	H54	0.478500	0.957000	0.794900
C701	C70	0.437350	0.874700	0.707400
C711	C71	0.402050	0.804100	0.824400
C721	C72	0.381950	0.763900	0.889100
C731	C73	0.899400	0.449700	0.567000
C741	C74	0.960700	0.480350	0.669000
C751	C75	0.913000	0.456500	0.643700
C761	C76	0.849800	0.424900	0.542200
H551	H55	0.823000	0.411500	0.575400
C771	C77	0.976600	0.488300	0.749800
H561	H56	0.957000	0.478500	0.794900
C781	C78	0.874700	0.437350	0.707400
C791	C79	0.804100	0.402050	0.824400
C801	C80	0.763900	0.381950	0.889100
C811	C81	0.550300	0.449700	0.567000
C821	C82	0.519650	0.480350	0.669000
C831	C83	0.543500	0.456500	0.643700
C841	C84	0.575100	0.424900	0.542200
H571	H57	0.588500	0.411500	0.575400
C851	C85	0.511700	0.488300	0.749800
H581	H58	0.521500	0.478500	0.794900
C861	C86	0.562650	0.437350	0.707400
C871	C87	0.597950	0.402050	0.824400
C881	C88	0.618050	0.381950	0.889100
C891	C89	0.550300	0.100600	0.567000
C901	C90	0.519650	0.039300	0.669000
C911	C91	0.543500	0.087000	0.643700
C921	C92	0.575100	0.150200	0.542200
H591	H59	0.588500	0.177000	0.575400
C931	C93	0.511700	0.023400	0.749800
H601	H60	0.521500	0.043000	0.794900
C941	C94	0.562650	0.125300	0.707400
C951	C95	0.597950	0.195900	0.824400
C961	C96	0.618050	0.236100	0.889100
C971	C97	0.550300	0.100600	0.433000
C981	C98	0.519650	0.039300	0.331000
C991	C99	0.543500	0.087000	0.356300
C1001	C100	0.575100	0.150200	0.457800
H611	H61	0.588500	0.177000	0.424600
C1011	C101	0.511700	0.023400	0.250200
H621	H62	0.521500	0.043000	0.205100
C1021	C102	0.562650	0.125300	0.292600
C1031	C103	0.597950	0.195900	0.175600
C1041	C104	0.618050	0.236100	0.110900
C1051	C105	0.550300	0.449700	0.433000
C1061	C106	0.519650	0.480350	0.331000
C1071	C107	0.543500	0.456500	0.356300
C1081	C108	0.575100	0.424900	0.457800
H631	H63	0.588500	0.411500	0.424600
C1091	C109	0.511700	0.488300	0.250200
H641	H64	0.521500	0.478500	0.205100
C1101	C110	0.562650	0.437350	0.292600
C1111	C111	0.597950	0.402050	0.175600
C1121	C112	0.618050	0.381950	0.110900
C1131	C113	0.899400	0.449700	0.433000
C1141	C114	0.960700	0.480350	0.331000
C1151	C115	0.913000	0.456500	0.356300
C1161	C116	0.849800	0.424900	0.457800
H651	H65	0.823000	0.411500	0.424600
C1171	C117	0.976600	0.488300	0.250200
H661	H66	0.957000	0.478500	0.205100
C1181	C118	0.874700	0.437350	0.292600
C1191	C119	0.804100	0.402050	0.175600
C1201	C120	0.763900	0.381950	0.110900
C1211	C121	0.449700	0.899400	0.433000
C1221	C122	0.480350	0.960700	0.331000
C1231	C123	0.456500	0.913000	0.356300
C1241	C124	0.424900	0.849800	0.457800
H671	H67	0.411500	0.823000	0.424600
C1251	C125	0.488300	0.976600	0.250200
H681	H68	0.478500	0.957000	0.205100
C1261	C126	0.437350	0.874700	0.292600
C1271	C127	0.402050	0.804100	0.175600
C1281	C128	0.381950	0.763900	0.110900
C1291	C129	0.449700	0.550300	0.433000
C1301	C130	0.480350	0.519650	0.331000
C1311	C131	0.456500	0.543500	0.356300
C1321	C132	0.424900	0.575100	0.457800
H691	H69	0.411500	0.588500	0.424600
C1331	C133	0.488300	0.511700	0.250200
H701	H70	0.478500	0.521500	0.205100
C1341	C134	0.437350	0.562650	0.292600
C1351	C135	0.402050	0.597950	0.175600
C1361	C136	0.381950	0.618050	0.110900
C1371	C137	0.100600	0.550300	0.433000
C1381	C138	0.039300	0.519650	0.331000
C1391	C139	0.087000	0.543500	0.356300
C1401	C140	0.150200	0.575100	0.457800
H711	H71	0.177000	0.588500	0.424600
C1411	C141	0.023400	0.511700	0.250200
H721	H72	0.043000	0.521500	0.205100
C1421	C142	0.125300	0.562650	0.292600
C1431	C143	0.195900	0.597950	0.175600
C1441	C144	0.236100	0.618050	0.110900
N11	N1	0.070900	0.535450	0.500000
N21	N2	0.464550	0.535450	0.500000
N31	N3	0.464550	0.929100	0.500000
N41	N4	0.929100	0.464550	0.500000
N51	N5	0.535450	0.464550	0.500000
N61	N6	0.535450	0.070900	0.500000
O251	O25	0.333330	0.666670	0.000000
O261	O26	0.666670	0.333330	0.000000
Co71	Co7	0.000000	0.500000	0.500000
Co81	Co8	0.500000	0.500000	0.500000
Co91	Co9	0.500000	0.000000	0.500000
N71	N7	0.000000	0.500000	0.617100
N81	N8	0.500000	0.500000	0.617100
N91	N9	0.500000	0.000000	0.617100
N101	N10	0.500000	0.000000	0.382900
N111	N11	0.500000	0.500000	0.382900
N121	N12	0.000000	0.500000	0.382900
