data_jacs_PM
_symmetry_space_group_name_H-M	'P1'
_cell_length_a	31.848000
_cell_length_b	31.848000
_cell_length_c	16.883000
_cell_angle_alpha	90.000000
_cell_angle_beta	90.000000
_cell_angle_gamma	120.000000
_symmetry_Int_Tables_number 1

loop_
_symmetry_equiv_pos_as_xyz
'x,y,z'

loop_
_atom_site_label
_atom_site_type_symbol
_atom_site_fract_x
_atom_site_fract_y
_atom_site_fract_z
O11	O1	0.250000	0.589900	0.413000
C11	C1	0.179400	0.553200	0.295500
H11	H1	0.191800	0.534100	0.313900
C21	C2	0.143000	0.534500	0.240300
H21	H2	0.129600	0.502300	0.224500
O21	O2	0.410100	0.660100	0.413000
C31	C3	0.446800	0.626200	0.295500
H31	H3	0.465900	0.657700	0.313900
C41	C4	0.465500	0.608500	0.240300
H41	H4	0.497700	0.627300	0.224500
O31	O3	0.339900	0.750000	0.413000
C51	C5	0.373800	0.820600	0.295500
H51	H5	0.342300	0.808200	0.313900
C61	C6	0.391500	0.857000	0.240300
H61	H6	0.372700	0.870400	0.224500
O41	O4	0.750000	0.410100	0.413000
C71	C7	0.820600	0.446800	0.295500
H71	H7	0.808200	0.465900	0.313900
C81	C8	0.857000	0.465500	0.240300
H81	H8	0.870400	0.497700	0.224500
O51	O5	0.589900	0.339900	0.413000
C91	C9	0.553200	0.373800	0.295500
H91	H9	0.534100	0.342300	0.313900
C101	C10	0.534500	0.391500	0.240300
H101	H10	0.502300	0.372700	0.224500
O61	O6	0.660100	0.250000	0.413000
C111	C11	0.626200	0.179400	0.295500
H111	H11	0.657700	0.191800	0.313900
C121	C12	0.608500	0.143000	0.240300
H121	H12	0.627300	0.129600	0.224500
O71	O7	0.589900	0.250000	0.587000
C131	C13	0.553200	0.179400	0.704500
H131	H13	0.534100	0.191800	0.686100
C141	C14	0.534500	0.143000	0.759700
H141	H14	0.502300	0.129600	0.775500
O81	O8	0.660100	0.410100	0.587000
C151	C15	0.626200	0.446800	0.704500
H151	H15	0.657700	0.465900	0.686100
C161	C16	0.608500	0.465500	0.759700
H161	H16	0.627300	0.497700	0.775500
O91	O9	0.750000	0.339900	0.587000
C171	C17	0.820600	0.373800	0.704500
H171	H17	0.808200	0.342300	0.686100
C181	C18	0.857000	0.391500	0.759700
H181	H18	0.870400	0.372700	0.775500
O101	O10	0.410100	0.750000	0.587000
C191	C19	0.446800	0.820600	0.704500
H191	H19	0.465900	0.808200	0.686100
C201	C20	0.465500	0.857000	0.759700
H201	H20	0.497700	0.870400	0.775500
O111	O11	0.339900	0.589900	0.587000
C211	C21	0.373800	0.553200	0.704500
H211	H21	0.342300	0.534100	0.686100
C221	C22	0.391500	0.534500	0.759700
H221	H22	0.372700	0.502300	0.775500
O121	O12	0.250000	0.660100	0.587000
C231	C23	0.179400	0.626200	0.704500
H231	H23	0.191800	0.657700	0.686100
C241	C24	0.143000	0.608500	0.759700
H241	H24	0.129600	0.627300	0.775500
O131	O13	0.750000	0.410100	0.587000
C251	C25	0.820600	0.446800	0.704500
H251	H25	0.808200	0.465900	0.686100
C261	C26	0.857000	0.465500	0.759700
H261	H26	0.870400	0.497700	0.775500
O141	O14	0.589900	0.339900	0.587000
C271	C27	0.553200	0.373800	0.704500
H271	H27	0.534100	0.342300	0.686100
C281	C28	0.534500	0.391500	0.759700
H281	H28	0.502300	0.372700	0.775500
O151	O15	0.660100	0.250000	0.587000
C291	C29	0.626200	0.179400	0.704500
H291	H29	0.657700	0.191800	0.686100
C301	C30	0.608500	0.143000	0.759700
H301	H30	0.627300	0.129600	0.775500
O161	O16	0.250000	0.589900	0.587000
C311	C31	0.179400	0.553200	0.704500
H311	H31	0.191800	0.534100	0.686100
C321	C32	0.143000	0.534500	0.759700
H321	H32	0.129600	0.502300	0.775500
O171	O17	0.410100	0.660100	0.587000
C331	C33	0.446800	0.626200	0.704500
H331	H33	0.465900	0.657700	0.686100
C341	C34	0.465500	0.608500	0.759700
H341	H34	0.497700	0.627300	0.775500
O181	O18	0.339900	0.750000	0.587000
C351	C35	0.373800	0.820600	0.704500
H351	H35	0.342300	0.808200	0.686100
C361	C36	0.391500	0.857000	0.759700
H361	H36	0.372700	0.870400	0.775500
O191	O19	0.410100	0.750000	0.413000
C371	C37	0.446800	0.820600	0.295500
H371	H37	0.465900	0.808200	0.313900
C381	C38	0.465500	0.857000	0.240300
H381	H38	0.497700	0.870400	0.224500
O201	O20	0.339900	0.589900	0.413000
C391	C39	0.373800	0.553200	0.295500
H391	H39	0.342300	0.534100	0.313900
C401	C40	0.391500	0.534500	0.240300
H401	H40	0.372700	0.502300	0.224500
O211	O21	0.250000	0.660100	0.413000
C411	C41	0.179400	0.626200	0.295500
H411	H41	0.191800	0.657700	0.313900
C421	C42	0.143000	0.608500	0.240300
H421	H42	0.129600	0.627300	0.224500
O221	O22	0.589900	0.250000	0.413000
C431	C43	0.553200	0.179400	0.295500
H431	H43	0.534100	0.191800	0.313900
C441	C44	0.534500	0.143000	0.240300
H441	H44	0.502300	0.129600	0.224500
O231	O23	0.660100	0.410100	0.413000
C451	C45	0.626200	0.446800	0.295500
H451	H45	0.657700	0.465900	0.313900
C461	C46	0.608500	0.465500	0.240300
H461	H46	0.627300	0.497700	0.224500
O241	O24	0.750000	0.339900	0.413000
C471	C47	0.820600	0.373800	0.295500
H471	H47	0.808200	0.342300	0.313900
C481	C48	0.857000	0.391500	0.240300
H481	H48	0.870400	0.372700	0.224500
Mg11	Mg1	0.297400	0.594800	0.500000
Mg21	Mg2	0.405200	0.702600	0.500000
Mg31	Mg3	0.297400	0.702600	0.500000
Mg41	Mg4	0.702600	0.405200	0.500000
Mg51	Mg5	0.594800	0.297400	0.500000
Mg61	Mg6	0.702600	0.297400	0.500000
C491	C49	0.040500	0.520250	0.170400
C501	C50	0.087800	0.543900	0.144100
C511	C51	0.236300	0.618150	0.389400
C521	C52	0.102500	0.551250	0.065000
C531	C53	0.197700	0.598850	0.324000
C541	C54	0.126200	0.563100	0.207900
C551	C55	0.153500	0.576750	0.039600
H491	H49	0.180600	0.590300	0.072400
C561	C56	0.024900	0.512450	0.248000
H501	H50	0.044600	0.522300	0.292600
C571	C57	0.479750	0.520250	0.170400
C581	C58	0.456100	0.543900	0.144100
C591	C59	0.381850	0.618150	0.389400
C601	C60	0.448750	0.551250	0.065000
C611	C61	0.401150	0.598850	0.324000
C621	C62	0.436900	0.563100	0.207900
C631	C63	0.423250	0.576750	0.039600
H511	H51	0.409700	0.590300	0.072400
C641	C64	0.487550	0.512450	0.248000
H521	H52	0.477700	0.522300	0.292600
C651	C65	0.479750	0.959500	0.170400
C661	C66	0.456100	0.912200	0.144100
C671	C67	0.381850	0.763700	0.389400
C681	C68	0.448750	0.897500	0.065000
C691	C69	0.401150	0.802300	0.324000
C701	C70	0.436900	0.873800	0.207900
C711	C71	0.423250	0.846500	0.039600
H531	H53	0.409700	0.819400	0.072400
C721	C72	0.487550	0.975100	0.248000
H541	H54	0.477700	0.955400	0.292600
C731	C73	0.959500	0.479750	0.170400
C741	C74	0.912200	0.456100	0.144100
C751	C75	0.763700	0.381850	0.389400
C761	C76	0.897500	0.448750	0.065000
C771	C77	0.802300	0.401150	0.324000
C781	C78	0.873800	0.436900	0.207900
C791	C79	0.846500	0.423250	0.039600
H551	H55	0.819400	0.409700	0.072400
C801	C80	0.975100	0.487550	0.248000
H561	H56	0.955400	0.477700	0.292600
C811	C81	0.520250	0.479750	0.170400
C821	C82	0.543900	0.456100	0.144100
C831	C83	0.618150	0.381850	0.389400
C841	C84	0.551250	0.448750	0.065000
C851	C85	0.598850	0.401150	0.324000
C861	C86	0.563100	0.436900	0.207900
C871	C87	0.576750	0.423250	0.039600
H571	H57	0.590300	0.409700	0.072400
C881	C88	0.512450	0.487550	0.248000
H581	H58	0.522300	0.477700	0.292600
C891	C89	0.520250	0.040500	0.170400
C901	C90	0.543900	0.087800	0.144100
C911	C91	0.618150	0.236300	0.389400
C921	C92	0.551250	0.102500	0.065000
C931	C93	0.598850	0.197700	0.324000
C941	C94	0.563100	0.126200	0.207900
C951	C95	0.576750	0.153500	0.039600
H591	H59	0.590300	0.180600	0.072400
C961	C96	0.512450	0.024900	0.248000
H601	H60	0.522300	0.044600	0.292600
C971	C97	0.520250	0.040500	0.829600
C981	C98	0.543900	0.087800	0.855900
C991	C99	0.618150	0.236300	0.610600
C1001	C100	0.551250	0.102500	0.935000
C1011	C101	0.598850	0.197700	0.676000
C1021	C102	0.563100	0.126200	0.792100
C1031	C103	0.576750	0.153500	0.960400
H611	H61	0.590300	0.180600	0.927600
C1041	C104	0.512450	0.024900	0.752000
H621	H62	0.522300	0.044600	0.707400
C1051	C105	0.520250	0.479750	0.829600
C1061	C106	0.543900	0.456100	0.855900
C1071	C107	0.618150	0.381850	0.610600
C1081	C108	0.551250	0.448750	0.935000
C1091	C109	0.598850	0.401150	0.676000
C1101	C110	0.563100	0.436900	0.792100
C1111	C111	0.576750	0.423250	0.960400
H631	H63	0.590300	0.409700	0.927600
C1121	C112	0.512450	0.487550	0.752000
H641	H64	0.522300	0.477700	0.707400
C1131	C113	0.959500	0.479750	0.829600
C1141	C114	0.912200	0.456100	0.855900
C1151	C115	0.763700	0.381850	0.610600
C1161	C116	0.897500	0.448750	0.935000
C1171	C117	0.802300	0.401150	0.676000
C1181	C118	0.873800	0.436900	0.792100
C1191	C119	0.846500	0.423250	0.960400
H651	H65	0.819400	0.409700	0.927600
C1201	C120	0.975100	0.487550	0.752000
H661	H66	0.955400	0.477700	0.707400
C1211	C121	0.479750	0.959500	0.829600
C1221	C122	0.456100	0.912200	0.855900
C1231	C123	0.381850	0.763700	0.610600
C1241	C124	0.448750	0.897500	0.935000
C1251	C125	0.401150	0.802300	0.676000
C1261	C126	0.436900	0.873800	0.792100
C1271	C127	0.423250	0.846500	0.960400
H671	H67	0.409700	0.819400	0.927600
C1281	C128	0.487550	0.975100	0.752000
H681	H68	0.477700	0.955400	0.707400
C1291	C129	0.479750	0.520250	0.829600
C1301	C130	0.456100	0.543900	0.855900
C1311	C131	0.381850	0.618150	0.610600
C1321	C132	0.448750	0.551250	0.935000
C1331	C133	0.401150	0.598850	0.676000
C1341	C134	0.436900	0.563100	0.792100
C1351	C135	0.423250	0.576750	0.960400
H691	H69	0.409700	0.590300	0.927600
C1361	C136	0.487550	0.512450	0.752000
H701	H70	0.477700	0.522300	0.707400
C1371	C137	0.040500	0.520250	0.829600
C1381	C138	0.087800	0.543900	0.855900
C1391	C139	0.236300	0.618150	0.610600
C1401	C140	0.102500	0.551250	0.935000
C1411	C141	0.197700	0.598850	0.676000
C1421	C142	0.126200	0.563100	0.792100
C1431	C143	0.153500	0.576750	0.960400
H711	H71	0.180600	0.590300	0.927600
C1441	C144	0.024900	0.512450	0.752000
H721	H72	0.044600	0.522300	0.707400
N11	N1	0.000000	0.500000	0.121500
H731	H73	0.000000	0.500000	0.070500
N21	N2	0.500000	0.500000	0.121500
H741	H74	0.500000	0.500000	0.070500
N31	N3	0.500000	0.000000	0.121500
H751	H75	0.500000	0.000000	0.070500
N41	N4	0.500000	0.000000	0.878500
H761	H76	0.500000	0.000000	0.929500
N51	N5	0.500000	0.500000	0.878500
H771	H77	0.500000	0.500000	0.929500
N61	N6	0.000000	0.500000	0.878500
H781	H78	0.000000	0.500000	0.929500
N71	N7	0.074100	0.537050	0.000000
N81	N8	0.462950	0.537050	0.000000
N91	N9	0.462950	0.925900	0.000000
N101	N10	0.925900	0.462950	0.000000
N111	N11	0.537050	0.462950	0.000000
N121	N12	0.537050	0.074100	0.000000
O251	O25	0.333330	0.666670	0.500000
O261	O26	0.666670	0.333330	0.500000
