data_jacs_PM
_symmetry_space_group_name_H-M	'P1'
_cell_length_a	22.920000
_cell_length_b	22.920000
_cell_length_c	22.270000
_cell_angle_alpha	90.000000
_cell_angle_beta	90.000000
_cell_angle_gamma	120.000000
_symmetry_Int_Tables_number 1

loop_
_symmetry_equiv_pos_as_xyz
'x,y,z'

loop_
_atom_site_label
_atom_site_type_symbol
_atom_site_fract_x
_atom_site_fract_y
_atom_site_fract_z
I11	I1	0.846750	0.609460	0.837890
I21	I2	0.810500	0.444760	0.708910
Cu11	Cu1	0.841540	0.575770	0.722450
Cu21	Cu2	0.764750	0.481310	0.804280
N11	N1	0.938000	0.626600	0.688600
N21	N2	0.765200	0.420600	0.873300
C11	C1	0.941700	0.601500	0.629900
H11	H1	0.914200	0.609900	0.602000
H21	H2	0.923100	0.553100	0.632300
C21	C2	0.986100	0.620000	0.728200
H31	H3	0.972900	0.572800	0.731700
H41	H4	0.984600	0.636500	0.767900
C31	C3	0.963900	0.700900	0.683600
H51	H5	0.968700	0.720100	0.723400
H61	H6	0.932000	0.708500	0.661200
C41	C4	0.732600	0.430200	0.927000
H71	H7	0.687600	0.421100	0.917200
H81	H8	0.758600	0.476200	0.941400
C51	C5	0.832200	0.436400	0.889000
H91	H9	0.859200	0.484200	0.897600
H101	H10	0.852600	0.426500	0.855300
C61	C6	0.729500	0.351000	0.855800
H111	H11	0.748600	0.345600	0.818800
H121	H12	0.682700	0.337500	0.848200
I31	I3	0.390540	0.237290	0.504560
I41	I4	0.555240	0.365740	0.375580
Cu31	Cu3	0.424230	0.265770	0.389120
Cu41	Cu4	0.518690	0.283440	0.470950
N31	N3	0.373400	0.311400	0.355270
N41	N4	0.579400	0.344600	0.539970
C71	C7	0.398500	0.340200	0.296570
H131	H13	0.390100	0.304300	0.268670
H141	H14	0.446900	0.370000	0.298970
C81	C8	0.380000	0.366100	0.394870
H151	H15	0.427200	0.400100	0.398370
H161	H16	0.363500	0.348100	0.434570
C91	C9	0.299100	0.263000	0.350270
H171	H17	0.279900	0.248600	0.390070
H181	H18	0.291500	0.223500	0.327870
C101	C10	0.569800	0.302400	0.593670
H191	H19	0.578900	0.266500	0.583870
H201	H20	0.523800	0.282400	0.608070
C111	C11	0.563600	0.395800	0.555670
H211	H21	0.515800	0.375000	0.564270
H221	H22	0.573500	0.426100	0.521970
C121	C12	0.649000	0.378500	0.522470
H231	H23	0.654400	0.403000	0.485470
H241	H24	0.662500	0.345200	0.514870
I51	I5	0.762710	0.153250	0.171220
I61	I6	0.634260	0.189500	0.042240
Cu51	Cu5	0.734230	0.158460	0.055780
Cu61	Cu6	0.716560	0.235250	0.137610
N51	N5	0.688600	0.062000	0.021930
N61	N6	0.655400	0.234800	0.206630
C131	C13	0.659800	0.058300	0.963230
H251	H25	0.695700	0.085800	0.935330
H261	H26	0.630000	0.076900	0.965630
C141	C14	0.633900	0.013900	0.061530
H271	H27	0.599900	0.027100	0.065030
H281	H28	0.651900	0.015400	0.101230
C151	C15	0.737000	0.036100	0.016930
H291	H29	0.751400	0.031300	0.056730
H301	H30	0.776500	0.068000	0.994530
C161	C16	0.697600	0.267400	0.260330
H311	H31	0.733500	0.312400	0.250530
H321	H32	0.717600	0.241400	0.274730
C171	C17	0.604200	0.167800	0.222330
H331	H33	0.625000	0.140800	0.230930
H341	H34	0.573900	0.147400	0.188630
C181	C18	0.621500	0.270500	0.189130
H351	H35	0.597000	0.251400	0.152130
H361	H36	0.654800	0.317300	0.181530
I71	I7	0.153250	0.390540	0.337890
I81	I8	0.189500	0.555240	0.208910
Cu71	Cu7	0.158460	0.424230	0.222450
Cu81	Cu8	0.235250	0.518690	0.304280
N71	N7	0.062000	0.373400	0.188600
N81	N8	0.234800	0.579400	0.373300
C191	C19	0.058300	0.398500	0.129900
H371	H37	0.085800	0.390100	0.102000
H381	H38	0.076900	0.446900	0.132300
C201	C20	0.013900	0.380000	0.228200
H391	H39	0.027100	0.427200	0.231700
H401	H40	0.015400	0.363500	0.267900
C211	C21	0.036100	0.299100	0.183600
H411	H41	0.031300	0.279900	0.223400
H421	H42	0.068000	0.291500	0.161200
C221	C22	0.267400	0.569800	0.427000
H431	H43	0.312400	0.578900	0.417200
H441	H44	0.241400	0.523800	0.441400
C231	C23	0.167800	0.563600	0.389000
H451	H45	0.140800	0.515800	0.397600
H461	H46	0.147400	0.573500	0.355300
C241	C24	0.270500	0.649000	0.355800
H471	H47	0.251400	0.654400	0.318800
H481	H48	0.317300	0.662500	0.348200
I91	I9	0.609460	0.762710	0.004560
I101	I10	0.444760	0.634260	0.875580
Cu91	Cu9	0.575770	0.734230	0.889120
Cu101	Cu10	0.481310	0.716560	0.970950
N91	N9	0.626600	0.688600	0.855270
N101	N10	0.420600	0.655400	0.039970
C251	C25	0.601500	0.659800	0.796570
H491	H49	0.609900	0.695700	0.768670
H501	H50	0.553100	0.630000	0.798970
C261	C26	0.620000	0.633900	0.894870
H511	H51	0.572800	0.599900	0.898370
H521	H52	0.636500	0.651900	0.934570
C271	C27	0.700900	0.737000	0.850270
H531	H53	0.720100	0.751400	0.890070
H541	H54	0.708500	0.776500	0.827870
C281	C28	0.430200	0.697600	0.093670
H551	H55	0.421100	0.733500	0.083870
H561	H56	0.476200	0.717600	0.108070
C291	C29	0.436400	0.604200	0.055670
H571	H57	0.484200	0.625000	0.064270
H581	H58	0.426500	0.573900	0.021970
C301	C30	0.351000	0.621500	0.022470
H591	H59	0.345600	0.597000	0.985470
H601	H60	0.337500	0.654800	0.014870
I111	I11	0.237290	0.846750	0.671220
I121	I12	0.365740	0.810500	0.542240
Cu111	Cu11	0.265770	0.841540	0.555780
Cu121	Cu12	0.283440	0.764750	0.637610
N111	N11	0.311400	0.938000	0.521930
N121	N12	0.344600	0.765200	0.706630
C311	C31	0.340200	0.941700	0.463230
H611	H61	0.304300	0.914200	0.435330
H621	H62	0.370000	0.923100	0.465630
C321	C32	0.366100	0.986100	0.561530
H631	H63	0.400100	0.972900	0.565030
H641	H64	0.348100	0.984600	0.601230
C331	C33	0.263000	0.963900	0.516930
H651	H65	0.248600	0.968700	0.556730
H661	H66	0.223500	0.932000	0.494530
C341	C34	0.302400	0.732600	0.760330
H671	H67	0.266500	0.687600	0.750530
H681	H68	0.282400	0.758600	0.774730
C351	C35	0.395800	0.832200	0.722330
H691	H69	0.375000	0.859200	0.730930
H701	H70	0.426100	0.852600	0.688630
C361	C36	0.378500	0.729500	0.689130
H711	H71	0.403000	0.748600	0.652130
H721	H72	0.345200	0.682700	0.681530
I131	I13	0.609460	0.846750	0.828780
I141	I14	0.444760	0.810500	0.957760
Cu131	Cu13	0.575770	0.841540	0.944220
Cu141	Cu14	0.481310	0.764750	0.862390
N131	N13	0.626600	0.938000	0.978070
N141	N14	0.420600	0.765200	0.793370
C371	C37	0.601500	0.941700	0.036770
H731	H73	0.609900	0.914200	0.064670
H741	H74	0.553100	0.923100	0.034370
C381	C38	0.620000	0.986100	0.938470
H751	H75	0.572800	0.972900	0.934970
H761	H76	0.636500	0.984600	0.898770
C391	C39	0.700900	0.963900	0.983070
H771	H77	0.720100	0.968700	0.943270
H781	H78	0.708500	0.932000	0.005470
C401	C40	0.430200	0.732600	0.739670
H791	H79	0.421100	0.687600	0.749470
H801	H80	0.476200	0.758600	0.725270
C411	C41	0.436400	0.832200	0.777670
H811	H81	0.484200	0.859200	0.769070
H821	H82	0.426500	0.852600	0.811370
C421	C42	0.351000	0.729500	0.810870
H831	H83	0.345600	0.748600	0.847870
H841	H84	0.337500	0.682700	0.818470
I151	I15	0.237290	0.390540	0.162110
I161	I16	0.365740	0.555240	0.291090
Cu151	Cu15	0.265770	0.424230	0.277550
Cu161	Cu16	0.283440	0.518690	0.195720
N151	N15	0.311400	0.373400	0.311400
N161	N16	0.344600	0.579400	0.126700
C431	C43	0.340200	0.398500	0.370100
H851	H85	0.304300	0.390100	0.398000
H861	H86	0.370000	0.446900	0.367700
C441	C44	0.366100	0.380000	0.271800
H871	H87	0.400100	0.427200	0.268300
H881	H88	0.348100	0.363500	0.232100
C451	C45	0.263000	0.299100	0.316400
H891	H89	0.248600	0.279900	0.276600
H901	H90	0.223500	0.291500	0.338800
C461	C46	0.302400	0.569800	0.073000
H911	H91	0.266500	0.578900	0.082800
H921	H92	0.282400	0.523800	0.058600
C471	C47	0.395800	0.563600	0.111000
H931	H93	0.375000	0.515800	0.102400
H941	H94	0.426100	0.573500	0.144700
C481	C48	0.378500	0.649000	0.144200
H951	H95	0.403000	0.654400	0.181200
H961	H96	0.345200	0.662500	0.151800
I171	I17	0.153250	0.762710	0.495440
I181	I18	0.189500	0.634260	0.624420
Cu171	Cu17	0.158460	0.734230	0.610880
Cu181	Cu18	0.235250	0.716560	0.529050
N171	N17	0.062000	0.688600	0.644730
N181	N18	0.234800	0.655400	0.460030
C491	C49	0.058300	0.659800	0.703430
H971	H97	0.085800	0.695700	0.731330
H981	H98	0.076900	0.630000	0.701030
C501	C50	0.013900	0.633900	0.605130
H991	H99	0.027100	0.599900	0.601630
H1001	H100	0.015400	0.651900	0.565430
C511	C51	0.036100	0.737000	0.649730
H1011	H101	0.031300	0.751400	0.609930
H1021	H102	0.068000	0.776500	0.672130
C521	C52	0.267400	0.697600	0.406330
H1031	H103	0.312400	0.733500	0.416130
H1041	H104	0.241400	0.717600	0.391930
C531	C53	0.167800	0.604200	0.444330
H1051	H105	0.140800	0.625000	0.435730
H1061	H106	0.147400	0.573900	0.478030
C541	C54	0.270500	0.621500	0.477530
H1071	H107	0.251400	0.597000	0.514530
H1081	H108	0.317300	0.654800	0.485130
I191	I19	0.390540	0.153250	0.328780
I201	I20	0.555240	0.189500	0.457760
Cu191	Cu19	0.424230	0.158460	0.444220
Cu201	Cu20	0.518690	0.235250	0.362390
N191	N19	0.373400	0.062000	0.478070
N201	N20	0.579400	0.234800	0.293370
C551	C55	0.398500	0.058300	0.536770
H1091	H109	0.390100	0.085800	0.564670
H1101	H110	0.446900	0.076900	0.534370
C561	C56	0.380000	0.013900	0.438470
H1111	H111	0.427200	0.027100	0.434970
H1121	H112	0.363500	0.015400	0.398770
C571	C57	0.299100	0.036100	0.483070
H1131	H113	0.279900	0.031300	0.443270
H1141	H114	0.291500	0.068000	0.505470
C581	C58	0.569800	0.267400	0.239670
H1151	H115	0.578900	0.312400	0.249470
H1161	H116	0.523800	0.241400	0.225270
C591	C59	0.563600	0.167800	0.277670
H1171	H117	0.515800	0.140800	0.269070
H1181	H118	0.573500	0.147400	0.311370
C601	C60	0.649000	0.270500	0.310870
H1191	H119	0.654400	0.251400	0.347870
H1201	H120	0.662500	0.317300	0.318470
I211	I21	0.762710	0.609460	0.662110
I221	I22	0.634260	0.444760	0.791090
Cu211	Cu21	0.734230	0.575770	0.777550
Cu221	Cu22	0.716560	0.481310	0.695720
N211	N21	0.688600	0.626600	0.811400
N221	N22	0.655400	0.420600	0.626700
C611	C61	0.659800	0.601500	0.870100
H1211	H121	0.695700	0.609900	0.898000
H1221	H122	0.630000	0.553100	0.867700
C621	C62	0.633900	0.620000	0.771800
H1231	H123	0.599900	0.572800	0.768300
H1241	H124	0.651900	0.636500	0.732100
C631	C63	0.737000	0.700900	0.816400
H1251	H125	0.751400	0.720100	0.776600
H1261	H126	0.776500	0.708500	0.838800
C641	C64	0.697600	0.430200	0.573000
H1271	H127	0.733500	0.421100	0.582800
H1281	H128	0.717600	0.476200	0.558600
C651	C65	0.604200	0.436400	0.611000
H1291	H129	0.625000	0.484200	0.602400
H1301	H130	0.573900	0.426500	0.644700
C661	C66	0.621500	0.351000	0.644200
H1311	H131	0.597000	0.345600	0.681200
H1321	H132	0.654800	0.337500	0.651800
I231	I23	0.846750	0.237290	0.995440
I241	I24	0.810500	0.365740	0.124420
Cu231	Cu23	0.841540	0.265770	0.110880
Cu241	Cu24	0.764750	0.283440	0.029050
N231	N23	0.938000	0.311400	0.144730
N241	N24	0.765200	0.344600	0.960030
C671	C67	0.941700	0.340200	0.203430
H1331	H133	0.914200	0.304300	0.231330
H1341	H134	0.923100	0.370000	0.201030
C681	C68	0.986100	0.366100	0.105130
H1351	H135	0.972900	0.400100	0.101630
H1361	H136	0.984600	0.348100	0.065430
C691	C69	0.963900	0.263000	0.149730
H1371	H137	0.968700	0.248600	0.109930
H1381	H138	0.932000	0.223500	0.172130
C701	C70	0.732600	0.302400	0.906330
H1391	H139	0.687600	0.266500	0.916130
H1401	H140	0.758600	0.282400	0.891930
C711	C71	0.832200	0.395800	0.944330
H1411	H141	0.859200	0.375000	0.935730
H1421	H142	0.852600	0.426100	0.978030
C721	C72	0.729500	0.378500	0.977530
H1431	H143	0.748600	0.403000	0.014530
H1441	H144	0.682700	0.345200	0.985130
Cu251	Cu25	0.083170	0.219760	0.392330
N251	N25	0.146900	0.225300	0.450200
N261	N26	0.203400	0.193500	0.510300
C731	C73	0.121800	0.106300	0.440400
C741	C74	0.050500	0.070500	0.436900
H1451	H145	0.026600	0.091400	0.449300
C751	C75	0.157600	0.176000	0.465700
C761	C76	0.222900	0.257700	0.522700
C771	C77	0.188400	0.278700	0.485300
C781	C78	0.201200	0.344600	0.488300
H1461	H146	0.178200	0.358700	0.463300
C791	C79	0.248500	0.389600	0.528800
H1471	H147	0.257100	0.433700	0.530800
C801	C80	0.283000	0.368600	0.566200
H1481	H148	0.314700	0.398600	0.593300
C811	C81	0.270200	0.302600	0.563200
H1491	H149	0.293300	0.288500	0.588200
Cu261	Cu26	0.780240	0.863410	0.059000
N271	N27	0.774700	0.921600	0.116870
N281	N28	0.806500	0.009900	0.176970
C821	C82	0.893700	0.015500	0.107070
C831	C83	0.929500	0.980000	0.103570
H1501	H150	0.908600	0.935200	0.115970
C841	C84	0.824000	0.981600	0.132370
C851	C85	0.742300	0.965200	0.189370
C861	C86	0.721300	0.909700	0.151970
C871	C87	0.655400	0.856600	0.154970
H1511	H151	0.641300	0.819500	0.129970
C881	C88	0.610400	0.858900	0.195470
H1521	H152	0.566300	0.823400	0.197470
C891	C89	0.631400	0.914400	0.232870
H1531	H153	0.601400	0.916100	0.259970
C901	C90	0.697400	0.967600	0.229870
H1541	H154	0.711500	0.004800	0.254870
Cu271	Cu27	0.136590	0.916830	0.725660
N291	N29	0.078400	0.853100	0.783530
N301	N30	0.990100	0.796600	0.843630
C911	C91	0.984500	0.878200	0.773730
C921	C92	0.020000	0.949500	0.770230
H1551	H155	0.064800	0.973400	0.782630
C931	C93	0.018400	0.842400	0.799030
C941	C94	0.034800	0.777100	0.856030
C951	C95	0.090300	0.811600	0.818630
C961	C96	0.143400	0.798800	0.821630
H1561	H156	0.180500	0.821800	0.796630
C971	C97	0.141100	0.751500	0.862130
H1571	H157	0.176600	0.742900	0.864130
C981	C98	0.085600	0.717000	0.899530
H1581	H158	0.083900	0.685300	0.926630
C991	C99	0.032400	0.729800	0.896530
H1591	H159	0.995200	0.706700	0.921530
Cu281	Cu28	0.916830	0.780240	0.892330
N311	N31	0.853100	0.774700	0.950200
N321	N32	0.796600	0.806500	0.010300
C1001	C100	0.878200	0.893700	0.940400
C1011	C101	0.949500	0.929500	0.936900
H1601	H160	0.973400	0.908600	0.949300
C1021	C102	0.842400	0.824000	0.965700
C1031	C103	0.777100	0.742300	0.022700
C1041	C104	0.811600	0.721300	0.985300
C1051	C105	0.798800	0.655400	0.988300
H1611	H161	0.821800	0.641300	0.963300
C1061	C106	0.751500	0.610400	0.028800
H1621	H162	0.742900	0.566300	0.030800
C1071	C107	0.717000	0.631400	0.066200
H1631	H163	0.685300	0.601400	0.093300
C1081	C108	0.729800	0.697400	0.063200
H1641	H164	0.706700	0.711500	0.088200
Cu291	Cu29	0.219760	0.136590	0.559000
N331	N33	0.225300	0.078400	0.616870
N341	N34	0.193500	0.990100	0.676970
C1091	C109	0.106300	0.984500	0.607070
C1101	C110	0.070500	0.020000	0.603570
H1651	H165	0.091400	0.064800	0.615970
C1111	C111	0.176000	0.018400	0.632370
C1121	C112	0.257700	0.034800	0.689370
C1131	C113	0.278700	0.090300	0.651970
C1141	C114	0.344600	0.143400	0.654970
H1661	H166	0.358700	0.180500	0.629970
C1151	C115	0.389600	0.141100	0.695470
H1671	H167	0.433700	0.176600	0.697470
C1161	C116	0.368600	0.085600	0.732870
H1681	H168	0.398600	0.083900	0.759970
C1171	C117	0.302600	0.032400	0.729870
H1691	H169	0.288500	0.995200	0.754870
Cu301	Cu30	0.863410	0.083170	0.225660
N351	N35	0.921600	0.146900	0.283530
N361	N36	0.009900	0.203400	0.343630
C1181	C118	0.015500	0.121800	0.273730
C1191	C119	0.980000	0.050500	0.270230
H1701	H170	0.935200	0.026600	0.282630
C1201	C120	0.981600	0.157600	0.299030
C1211	C121	0.965200	0.222900	0.356030
C1221	C122	0.909700	0.188400	0.318630
C1231	C123	0.856600	0.201200	0.321630
H1711	H171	0.819500	0.178200	0.296630
C1241	C124	0.858900	0.248500	0.362130
H1721	H172	0.823400	0.257100	0.364130
C1251	C125	0.914400	0.283000	0.399530
H1731	H173	0.916100	0.314700	0.426630
C1261	C126	0.967600	0.270200	0.396530
H1741	H174	0.004800	0.293300	0.421530
Cu311	Cu31	0.219760	0.083170	0.274340
N371	N37	0.225300	0.146900	0.216470
N381	N38	0.193500	0.203400	0.156370
C1271	C127	0.106300	0.121800	0.226270
C1281	C128	0.070500	0.050500	0.229770
H1751	H175	0.091400	0.026600	0.217370
C1291	C129	0.176000	0.157600	0.200970
C1301	C130	0.257700	0.222900	0.143970
C1311	C131	0.278700	0.188400	0.181370
C1321	C132	0.344600	0.201200	0.178370
H1761	H176	0.358700	0.178200	0.203370
C1331	C133	0.389600	0.248500	0.137870
H1771	H177	0.433700	0.257100	0.135870
C1341	C134	0.368600	0.283000	0.100470
H1781	H178	0.398600	0.314700	0.073370
C1351	C135	0.302600	0.270200	0.103470
H1791	H179	0.288500	0.293300	0.078470
Cu321	Cu32	0.863410	0.780240	0.607670
N391	N39	0.921600	0.774700	0.549800
N401	N40	0.009900	0.806500	0.489700
C1361	C136	0.015500	0.893700	0.559600
C1371	C137	0.980000	0.929500	0.563100
H1801	H180	0.935200	0.908600	0.550700
C1381	C138	0.981600	0.824000	0.534300
C1391	C139	0.965200	0.742300	0.477300
C1401	C140	0.909700	0.721300	0.514700
C1411	C141	0.856600	0.655400	0.511700
H1811	H181	0.819500	0.641300	0.536700
C1421	C142	0.858900	0.610400	0.471200
H1821	H182	0.823400	0.566300	0.469200
C1431	C143	0.914400	0.631400	0.433800
H1831	H183	0.916100	0.601400	0.406700
C1441	C144	0.967600	0.697400	0.436800
H1841	H184	0.004800	0.711500	0.411800
Cu331	Cu33	0.916830	0.136590	0.941000
N411	N41	0.853100	0.078400	0.883130
N421	N42	0.796600	0.990100	0.823030
C1451	C145	0.878200	0.984500	0.892930
C1461	C146	0.949500	0.020000	0.896430
H1851	H185	0.973400	0.064800	0.884030
C1471	C147	0.842400	0.018400	0.867630
C1481	C148	0.777100	0.034800	0.810630
C1491	C149	0.811600	0.090300	0.848030
C1501	C150	0.798800	0.143400	0.845030
H1861	H186	0.821800	0.180500	0.870030
C1511	C151	0.751500	0.141100	0.804530
H1871	H187	0.742900	0.176600	0.802530
C1521	C152	0.717000	0.085600	0.767130
H1881	H188	0.685300	0.083900	0.740030
C1531	C153	0.729800	0.032400	0.770130
H1891	H189	0.706700	0.995200	0.745130
Cu341	Cu34	0.780240	0.916830	0.774340
N431	N43	0.774700	0.853100	0.716470
N441	N44	0.806500	0.796600	0.656370
C1541	C154	0.893700	0.878200	0.726270
C1551	C155	0.929500	0.949500	0.729770
H1901	H190	0.908600	0.973400	0.717370
C1561	C156	0.824000	0.842400	0.700970
C1571	C157	0.742300	0.777100	0.643970
C1581	C158	0.721300	0.811600	0.681370
C1591	C159	0.655400	0.798800	0.678370
H1911	H191	0.641300	0.821800	0.703370
C1601	C160	0.610400	0.751500	0.637870
H1921	H192	0.566300	0.742900	0.635870
C1611	C161	0.631400	0.717000	0.600470
H1931	H193	0.601400	0.685300	0.573370
C1621	C162	0.697400	0.729800	0.603470
H1941	H194	0.711500	0.706700	0.578470
Cu351	Cu35	0.136590	0.219760	0.107670
N451	N45	0.078400	0.225300	0.049800
N461	N46	0.990100	0.193500	0.989700
C1631	C163	0.984500	0.106300	0.059600
C1641	C164	0.020000	0.070500	0.063100
H1951	H195	0.064800	0.091400	0.050700
C1651	C165	0.018400	0.176000	0.034300
C1661	C166	0.034800	0.257700	0.977300
C1671	C167	0.090300	0.278700	0.014700
C1681	C168	0.143400	0.344600	0.011700
H1961	H196	0.180500	0.358700	0.036700
C1691	C169	0.141100	0.389600	0.971200
H1971	H197	0.176600	0.433700	0.969200
C1701	C170	0.085600	0.368600	0.933800
H1981	H198	0.083900	0.398600	0.906700
C1711	C171	0.032400	0.302600	0.936800
H1991	H199	0.995200	0.288500	0.911800
Cu361	Cu36	0.083170	0.863410	0.441000
N471	N47	0.146900	0.921600	0.383130
N481	N48	0.203400	0.009900	0.323030
C1721	C172	0.121800	0.015500	0.392930
C1731	C173	0.050500	0.980000	0.396430
H2001	H200	0.026600	0.935200	0.384030
C1741	C174	0.157600	0.981600	0.367630
C1751	C175	0.222900	0.965200	0.310630
C1761	C176	0.188400	0.909700	0.348030
C1771	C177	0.201200	0.856600	0.345030
H2011	H201	0.178200	0.819500	0.370030
C1781	C178	0.248500	0.858900	0.304530
H2021	H202	0.257100	0.823400	0.302530
C1791	C179	0.283000	0.914400	0.267130
H2031	H203	0.314700	0.916100	0.240030
C1801	C180	0.270200	0.967600	0.270130
H2041	H204	0.293300	0.004800	0.245130
C1811	C181	0.152600	0.076300	0.416670
H2051	H205	0.199400	0.099700	0.416670
C1821	C182	0.017800	0.008900	0.416670
H2061	H206	0.970900	0.985450	0.416670
C1831	C183	0.923700	0.076300	0.083330
H2071	H207	0.900300	0.099700	0.083330
C1841	C184	0.991100	0.008900	0.083330
H2081	H208	0.014550	0.985450	0.083330
C1851	C185	0.923700	0.847400	0.750000
H2091	H209	0.900300	0.800600	0.750000
C1861	C186	0.991100	0.982200	0.750000
H2101	H210	0.014550	0.029100	0.750000
C1871	C187	0.847400	0.923700	0.916670
H2111	H211	0.800600	0.900300	0.916670
C1881	C188	0.982200	0.991100	0.916670
H2121	H212	0.029100	0.014550	0.916670
C1891	C189	0.076300	0.923700	0.583330
H2131	H213	0.099700	0.900300	0.583330
C1901	C190	0.008900	0.991100	0.583330
H2141	H214	0.985450	0.014550	0.583330
C1911	C191	0.076300	0.152600	0.250000
H2151	H215	0.099700	0.199400	0.250000
C1921	C192	0.008900	0.017800	0.250000
H2161	H216	0.985450	0.970900	0.250000
