data_jacs_PM
_symmetry_space_group_name_H-M	'P1'
_cell_length_a	22.220000
_cell_length_b	22.220000
_cell_length_c	22.487000
_cell_angle_alpha	90.000000
_cell_angle_beta	90.000000
_cell_angle_gamma	120.000000
_symmetry_Int_Tables_number 1

loop_
_symmetry_equiv_pos_as_xyz
'x,y,z'

loop_
_atom_site_label
_atom_site_type_symbol
_atom_site_fract_x
_atom_site_fract_y
_atom_site_fract_z
I11	I1	0.390770	0.238290	0.495760
I21	I2	0.563370	0.373830	0.621630
Cu11	Cu1	0.522900	0.284710	0.530720
Cu21	Cu2	0.428420	0.267930	0.608880
N11	N1	0.581900	0.343400	0.460100
N21	N2	0.375600	0.312100	0.643600
C11	C1	0.570200	0.299500	0.408100
H11	H1	0.522200	0.279000	0.395300
H21	H2	0.578900	0.262100	0.418400
C21	C2	0.562900	0.395300	0.444200
H31	H3	0.572500	0.426700	0.477400
H41	H4	0.513600	0.372600	0.435700
C31	C3	0.656700	0.380500	0.477000
H51	H5	0.671800	0.347200	0.484900
H61	H6	0.663400	0.407400	0.512900
C41	C4	0.297300	0.262900	0.649600
H71	H7	0.289000	0.221200	0.670300
H81	H8	0.276700	0.249600	0.610300
C51	C5	0.402700	0.340200	0.704400
H91	H9	0.453000	0.367200	0.703200
H101	H10	0.389500	0.301800	0.731800
C61	C6	0.386900	0.373300	0.606000
H111	H11	0.375500	0.358800	0.564900
H121	H12	0.435300	0.409300	0.607900
I31	I3	0.761710	0.152480	0.829090
I41	I4	0.626170	0.189540	0.954960
Cu31	Cu3	0.715290	0.238190	0.864050
Cu41	Cu4	0.732070	0.160490	0.942210
N31	N3	0.656600	0.238500	0.793430
N41	N4	0.687900	0.063500	0.976930
C71	C7	0.700500	0.270700	0.741430
H131	H13	0.721000	0.243200	0.728630
H141	H14	0.737900	0.316800	0.751730
C81	C8	0.604700	0.167600	0.777530
H151	H15	0.573300	0.145800	0.810730
H161	H16	0.627400	0.141000	0.769030
C91	C9	0.619500	0.276200	0.810330
H171	H17	0.652800	0.324600	0.818230
H181	H18	0.592600	0.256000	0.846230
C101	C10	0.737100	0.034400	0.982930
H191	H19	0.778800	0.067800	0.003630
H201	H20	0.750400	0.027100	0.943630
C111	C11	0.659800	0.062500	0.037730
H211	H21	0.632800	0.085800	0.036530
H221	H22	0.698200	0.087700	0.065130
C121	C12	0.626700	0.013600	0.939330
H231	H23	0.641200	0.016700	0.898230
H241	H24	0.590700	0.026000	0.941230
I51	I5	0.847520	0.609230	0.162430
I61	I6	0.810460	0.436630	0.288300
Cu51	Cu5	0.761810	0.477100	0.197390
Cu61	Cu6	0.839510	0.571580	0.275550
N51	N5	0.761500	0.418100	0.126770
N61	N6	0.936500	0.624400	0.310270
C131	C13	0.729300	0.429800	0.074770
H251	H25	0.756800	0.477800	0.061970
H261	H26	0.683200	0.421100	0.085070
C141	C14	0.832400	0.437100	0.110870
H271	H27	0.854200	0.427500	0.144070
H281	H28	0.859000	0.486400	0.102370
C151	C15	0.723800	0.343300	0.143670
H291	H29	0.675400	0.328200	0.151570
H301	H30	0.744000	0.336600	0.179570
C161	C16	0.965600	0.702700	0.316270
H311	H31	0.932200	0.711000	0.336970
H321	H32	0.972900	0.723300	0.276970
C171	C17	0.937500	0.597300	0.371070
H331	H33	0.914200	0.547000	0.369870
H341	H34	0.912300	0.610500	0.398470
C181	C18	0.986400	0.613100	0.272670
H351	H35	0.983300	0.624500	0.231570
H361	H36	0.974000	0.564700	0.274570
I71	I7	0.609230	0.761710	0.995760
I81	I8	0.436630	0.626170	0.121630
Cu71	Cu7	0.477100	0.715290	0.030720
Cu81	Cu8	0.571580	0.732070	0.108880
N71	N7	0.418100	0.656600	0.960100
N81	N8	0.624400	0.687900	0.143600
C191	C19	0.429800	0.700500	0.908100
H371	H37	0.477800	0.721000	0.895300
H381	H38	0.421100	0.737900	0.918400
C201	C20	0.437100	0.604700	0.944200
H391	H39	0.427500	0.573300	0.977400
H401	H40	0.486400	0.627400	0.935700
C211	C21	0.343300	0.619500	0.977000
H411	H41	0.328200	0.652800	0.984900
H421	H42	0.336600	0.592600	0.012900
C221	C22	0.702700	0.737100	0.149600
H431	H43	0.711000	0.778800	0.170300
H441	H44	0.723300	0.750400	0.110300
C231	C23	0.597300	0.659800	0.204400
H451	H45	0.547000	0.632800	0.203200
H461	H46	0.610500	0.698200	0.231800
C241	C24	0.613100	0.626700	0.106000
H471	H47	0.624500	0.641200	0.064900
H481	H48	0.564700	0.590700	0.107900
I91	I9	0.238290	0.847520	0.329090
I101	I10	0.373830	0.810460	0.454960
Cu91	Cu9	0.284710	0.761810	0.364050
Cu101	Cu10	0.267930	0.839510	0.442210
N91	N9	0.343400	0.761500	0.293430
N101	N10	0.312100	0.936500	0.476930
C251	C25	0.299500	0.729300	0.241430
H491	H49	0.279000	0.756800	0.228630
H501	H50	0.262100	0.683200	0.251730
C261	C26	0.395300	0.832400	0.277530
H511	H51	0.426700	0.854200	0.310730
H521	H52	0.372600	0.859000	0.269030
C271	C27	0.380500	0.723800	0.310330
H531	H53	0.347200	0.675400	0.318230
H541	H54	0.407400	0.744000	0.346230
C281	C28	0.262900	0.965600	0.482930
H551	H55	0.221200	0.932200	0.503630
H561	H56	0.249600	0.972900	0.443630
C291	C29	0.340200	0.937500	0.537730
H571	H57	0.367200	0.914200	0.536530
H581	H58	0.301800	0.912300	0.565130
C301	C30	0.373300	0.986400	0.439330
H591	H59	0.358800	0.983300	0.398230
H601	H60	0.409300	0.974000	0.441230
I111	I11	0.152480	0.390770	0.662430
I121	I12	0.189540	0.563370	0.788300
Cu111	Cu11	0.238190	0.522900	0.697390
Cu121	Cu12	0.160490	0.428420	0.775550
N111	N11	0.238500	0.581900	0.626770
N121	N12	0.063500	0.375600	0.810270
C311	C31	0.270700	0.570200	0.574770
H611	H61	0.243200	0.522200	0.561970
H621	H62	0.316800	0.578900	0.585070
C321	C32	0.167600	0.562900	0.610870
H631	H63	0.145800	0.572500	0.644070
H641	H64	0.141000	0.513600	0.602370
C331	C33	0.276200	0.656700	0.643670
H651	H65	0.324600	0.671800	0.651570
H661	H66	0.256000	0.663400	0.679570
C341	C34	0.034400	0.297300	0.816270
H671	H67	0.067800	0.289000	0.836970
H681	H68	0.027100	0.276700	0.776970
C351	C35	0.062500	0.402700	0.871070
H691	H69	0.085800	0.453000	0.869870
H701	H70	0.087700	0.389500	0.898470
C361	C36	0.013600	0.386900	0.772670
H711	H71	0.016700	0.375500	0.731570
H721	H72	0.026000	0.435300	0.774570
I131	I13	0.238290	0.390770	0.837570
I141	I14	0.373830	0.563370	0.711700
Cu131	Cu13	0.284710	0.522900	0.802610
Cu141	Cu14	0.267930	0.428420	0.724450
N131	N13	0.343400	0.581900	0.873230
N141	N14	0.312100	0.375600	0.689730
C371	C37	0.299500	0.570200	0.925230
H731	H73	0.279000	0.522200	0.938030
H741	H74	0.262100	0.578900	0.914930
C381	C38	0.395300	0.562900	0.889130
H751	H75	0.426700	0.572500	0.855930
H761	H76	0.372600	0.513600	0.897630
C391	C39	0.380500	0.656700	0.856330
H771	H77	0.347200	0.671800	0.848430
H781	H78	0.407400	0.663400	0.820430
C401	C40	0.262900	0.297300	0.683730
H791	H79	0.221200	0.289000	0.663030
H801	H80	0.249600	0.276700	0.723030
C411	C41	0.340200	0.402700	0.628930
H811	H81	0.367200	0.453000	0.630130
H821	H82	0.301800	0.389500	0.601530
C421	C42	0.373300	0.386900	0.727330
H831	H83	0.358800	0.375500	0.768430
H841	H84	0.409300	0.435300	0.725430
I151	I15	0.152480	0.761710	0.504240
I161	I16	0.189540	0.626170	0.378370
Cu151	Cu15	0.238190	0.715290	0.469280
Cu161	Cu16	0.160490	0.732070	0.391120
N151	N15	0.238500	0.656600	0.539900
N161	N16	0.063500	0.687900	0.356400
C431	C43	0.270700	0.700500	0.591900
H851	H85	0.243200	0.721000	0.604700
H861	H86	0.316800	0.737900	0.581600
C441	C44	0.167600	0.604700	0.555800
H871	H87	0.145800	0.573300	0.522600
H881	H88	0.141000	0.627400	0.564300
C451	C45	0.276200	0.619500	0.523000
H891	H89	0.324600	0.652800	0.515100
H901	H90	0.256000	0.592600	0.487100
C461	C46	0.034400	0.737100	0.350400
H911	H91	0.067800	0.778800	0.329700
H921	H92	0.027100	0.750400	0.389700
C471	C47	0.062500	0.659800	0.295600
H931	H93	0.085800	0.632800	0.296800
H941	H94	0.087700	0.698200	0.268200
C481	C48	0.013600	0.626700	0.394000
H951	H95	0.016700	0.641200	0.435100
H961	H96	0.026000	0.590700	0.392100
I171	I17	0.609230	0.847520	0.170910
I181	I18	0.436630	0.810460	0.045040
Cu171	Cu17	0.477100	0.761810	0.135950
Cu181	Cu18	0.571580	0.839510	0.057790
N171	N17	0.418100	0.761500	0.206570
N181	N18	0.624400	0.936500	0.023070
C491	C49	0.429800	0.729300	0.258570
H971	H97	0.477800	0.756800	0.271370
H981	H98	0.421100	0.683200	0.248270
C501	C50	0.437100	0.832400	0.222470
H991	H99	0.427500	0.854200	0.189270
H1001	H100	0.486400	0.859000	0.230970
C511	C51	0.343300	0.723800	0.189670
H1011	H101	0.328200	0.675400	0.181770
H1021	H102	0.336600	0.744000	0.153770
C521	C52	0.702700	0.965600	0.017070
H1031	H103	0.711000	0.932200	0.996370
H1041	H104	0.723300	0.972900	0.056370
C531	C53	0.597300	0.937500	0.962270
H1051	H105	0.547000	0.914200	0.963470
H1061	H106	0.610500	0.912300	0.934870
C541	C54	0.613100	0.986400	0.060670
H1071	H107	0.624500	0.983300	0.101770
H1081	H108	0.564700	0.974000	0.058770
I191	I19	0.761710	0.609230	0.337570
I201	I20	0.626170	0.436630	0.211700
Cu191	Cu19	0.715290	0.477100	0.302610
Cu201	Cu20	0.732070	0.571580	0.224450
N191	N19	0.656600	0.418100	0.373230
N201	N20	0.687900	0.624400	0.189730
C551	C55	0.700500	0.429800	0.425230
H1091	H109	0.721000	0.477800	0.438030
H1101	H110	0.737900	0.421100	0.414930
C561	C56	0.604700	0.437100	0.389130
H1111	H111	0.573300	0.427500	0.355930
H1121	H112	0.627400	0.486400	0.397630
C571	C57	0.619500	0.343300	0.356330
H1131	H113	0.652800	0.328200	0.348430
H1141	H114	0.592600	0.336600	0.320430
C581	C58	0.737100	0.702700	0.183730
H1151	H115	0.778800	0.711000	0.163030
H1161	H116	0.750400	0.723300	0.223030
C591	C59	0.659800	0.597300	0.128930
H1171	H117	0.632800	0.547000	0.130130
H1181	H118	0.698200	0.610500	0.101530
C601	C60	0.626700	0.613100	0.227330
H1191	H119	0.641200	0.624500	0.268430
H1201	H120	0.590700	0.564700	0.225430
I211	I21	0.847520	0.238290	0.004240
I221	I22	0.810460	0.373830	0.878370
Cu211	Cu21	0.761810	0.284710	0.969280
Cu221	Cu22	0.839510	0.267930	0.891120
N211	N21	0.761500	0.343400	0.039900
N221	N22	0.936500	0.312100	0.856400
C611	C61	0.729300	0.299500	0.091900
H1211	H121	0.756800	0.279000	0.104700
H1221	H122	0.683200	0.262100	0.081600
C621	C62	0.832400	0.395300	0.055800
H1231	H123	0.854200	0.426700	0.022600
H1241	H124	0.859000	0.372600	0.064300
C631	C63	0.723800	0.380500	0.023000
H1251	H125	0.675400	0.347200	0.015100
H1261	H126	0.744000	0.407400	0.987100
C641	C64	0.965600	0.262900	0.850400
H1271	H127	0.932200	0.221200	0.829700
H1281	H128	0.972900	0.249600	0.889700
C651	C65	0.937500	0.340200	0.795600
H1291	H129	0.914200	0.367200	0.796800
H1301	H130	0.912300	0.301800	0.768200
C661	C66	0.986400	0.373300	0.894000
H1311	H131	0.983300	0.358800	0.935100
H1321	H132	0.974000	0.409300	0.892100
I231	I23	0.390770	0.152480	0.670910
I241	I24	0.563370	0.189540	0.545040
Cu231	Cu23	0.522900	0.238190	0.635950
Cu241	Cu24	0.428420	0.160490	0.557790
N231	N23	0.581900	0.238500	0.706570
N241	N24	0.375600	0.063500	0.523070
C671	C67	0.570200	0.270700	0.758570
H1331	H133	0.522200	0.243200	0.771370
H1341	H134	0.578900	0.316800	0.748270
C681	C68	0.562900	0.167600	0.722470
H1351	H135	0.572500	0.145800	0.689270
H1361	H136	0.513600	0.141000	0.730970
C691	C69	0.656700	0.276200	0.689670
H1371	H137	0.671800	0.324600	0.681770
H1381	H138	0.663400	0.256000	0.653770
C701	C70	0.297300	0.034400	0.517070
H1391	H139	0.289000	0.067800	0.496370
H1401	H140	0.276700	0.027100	0.556370
C711	C71	0.402700	0.062500	0.462270
H1411	H141	0.453000	0.085800	0.463470
H1421	H142	0.389500	0.087700	0.434870
C721	C72	0.386900	0.013600	0.560670
H1431	H143	0.375500	0.016700	0.601770
H1441	H144	0.435300	0.026000	0.558770
Cu251	Cu25	0.858620	0.774250	0.393030
N251	N25	0.801100	0.792700	0.343300
N261	N26	0.767800	0.850400	0.283400
C731	C73	0.888900	0.875000	0.273600
C741	C74	0.925700	0.949100	0.272500
H1451	H145	0.904300	0.972800	0.287100
C751	C75	0.817600	0.839000	0.299700
C761	C76	0.732300	0.772700	0.356200
C771	C77	0.712000	0.808200	0.319400
C781	C78	0.644600	0.800100	0.324100
H1461	H146	0.631500	0.825700	0.300000
C791	C79	0.598100	0.752400	0.366000
H1471	H147	0.553100	0.744600	0.369500
C801	C80	0.621500	0.717000	0.402200
H1481	H148	0.590900	0.686800	0.430600
C811	C81	0.687100	0.723900	0.398900
H1491	H149	0.700400	0.698300	0.422800
Cu261	Cu26	0.225750	0.084370	0.726360
N271	N27	0.207300	0.008400	0.676630
N281	N28	0.149600	0.917400	0.616730
C821	C82	0.125000	0.013900	0.606930
C831	C83	0.050900	0.976600	0.605830
H1501	H150	0.027200	0.931500	0.620430
C841	C84	0.161000	0.978600	0.633030
C851	C85	0.227300	0.959600	0.689530
C861	C86	0.191800	0.903800	0.652730
C871	C87	0.199900	0.844500	0.657430
H1511	H151	0.174300	0.805800	0.633330
C881	C88	0.247600	0.845700	0.699330
H1521	H152	0.255400	0.808500	0.702830
C891	C89	0.283000	0.904500	0.735530
H1531	H153	0.313200	0.904100	0.763930
C901	C90	0.276100	0.963200	0.732230
H1541	H154	0.301700	0.002100	0.756130
Cu271	Cu27	0.915630	0.141380	0.059700
N291	N29	0.991600	0.198900	0.009970
N301	N30	0.082600	0.232200	0.950070
C911	C91	0.986100	0.111100	0.940270
C921	C92	0.023400	0.074300	0.939170
H1551	H155	0.068500	0.095700	0.953770
C931	C93	0.021400	0.182400	0.966370
C941	C94	0.040400	0.267700	0.022870
C951	C95	0.096200	0.288000	0.986070
C961	C96	0.155500	0.355400	0.990770
H1561	H156	0.194200	0.368500	0.966670
C971	C97	0.154300	0.401900	0.032670
H1571	H157	0.191500	0.446900	0.036170
C981	C98	0.095500	0.378500	0.068870
H1581	H158	0.095900	0.409100	0.097270
C991	C99	0.036800	0.312900	0.065570
H1591	H159	0.997900	0.299600	0.089470
Cu281	Cu28	0.141380	0.225750	0.893030
N311	N31	0.198900	0.207300	0.843300
N321	N32	0.232200	0.149600	0.783400
C1001	C100	0.111100	0.125000	0.773600
C1011	C101	0.074300	0.050900	0.772500
H1601	H160	0.095700	0.027200	0.787100
C1021	C102	0.182400	0.161000	0.799700
C1031	C103	0.267700	0.227300	0.856200
C1041	C104	0.288000	0.191800	0.819400
C1051	C105	0.355400	0.199900	0.824100
H1611	H161	0.368500	0.174300	0.800000
C1061	C106	0.401900	0.247600	0.866000
H1621	H162	0.446900	0.255400	0.869500
C1071	C107	0.378500	0.283000	0.902200
H1631	H163	0.409100	0.313200	0.930600
C1081	C108	0.312900	0.276100	0.898900
H1641	H164	0.299600	0.301700	0.922800
Cu291	Cu29	0.774250	0.915630	0.226360
N331	N33	0.792700	0.991600	0.176630
N341	N34	0.850400	0.082600	0.116730
C1091	C109	0.875000	0.986100	0.106930
C1101	C110	0.949100	0.023400	0.105830
H1651	H165	0.972800	0.068500	0.120430
C1111	C111	0.839000	0.021400	0.133030
C1121	C112	0.772700	0.040400	0.189530
C1131	C113	0.808200	0.096200	0.152730
C1141	C114	0.800100	0.155500	0.157430
H1661	H166	0.825700	0.194200	0.133330
C1151	C115	0.752400	0.154300	0.199330
H1671	H167	0.744600	0.191500	0.202830
C1161	C116	0.717000	0.095500	0.235530
H1681	H168	0.686800	0.095900	0.263930
C1171	C117	0.723900	0.036800	0.232230
H1691	H169	0.698300	0.997900	0.256130
Cu301	Cu30	0.084370	0.858620	0.559700
N351	N35	0.008400	0.801100	0.509970
N361	N36	0.917400	0.767800	0.450070
C1181	C118	0.013900	0.888900	0.440270
C1191	C119	0.976600	0.925700	0.439170
H1701	H170	0.931500	0.904300	0.453770
C1201	C120	0.978600	0.817600	0.466370
C1211	C121	0.959600	0.732300	0.522870
C1221	C122	0.903800	0.712000	0.486070
C1231	C123	0.844500	0.644600	0.490770
H1711	H171	0.805800	0.631500	0.466670
C1241	C124	0.845700	0.598100	0.532670
H1721	H172	0.808500	0.553100	0.536170
C1251	C125	0.904500	0.621500	0.568870
H1731	H173	0.904100	0.590900	0.597270
C1261	C126	0.963200	0.687100	0.565570
H1741	H174	0.002100	0.700400	0.589470
Cu311	Cu31	0.774250	0.858620	0.940300
N371	N37	0.792700	0.801100	0.990030
N381	N38	0.850400	0.767800	0.049930
C1271	C127	0.875000	0.888900	0.059730
C1281	C128	0.949100	0.925700	0.060830
H1751	H175	0.972800	0.904300	0.046230
C1291	C129	0.839000	0.817600	0.033630
C1301	C130	0.772700	0.732300	0.977130
C1311	C131	0.808200	0.712000	0.013930
C1321	C132	0.800100	0.644600	0.009230
H1761	H176	0.825700	0.631500	0.033330
C1331	C133	0.752400	0.598100	0.967330
H1771	H177	0.744600	0.553100	0.963830
C1341	C134	0.717000	0.621500	0.931130
H1781	H178	0.686800	0.590900	0.902730
C1351	C135	0.723900	0.687100	0.934430
H1791	H179	0.698300	0.700400	0.910530
Cu321	Cu32	0.084370	0.225750	0.606970
N391	N39	0.008400	0.207300	0.656700
N401	N40	0.917400	0.149600	0.716600
C1361	C136	0.013900	0.125000	0.726400
C1371	C137	0.976600	0.050900	0.727500
H1801	H180	0.931500	0.027200	0.712900
C1381	C138	0.978600	0.161000	0.700300
C1391	C139	0.959600	0.227300	0.643800
C1401	C140	0.903800	0.191800	0.680600
C1411	C141	0.844500	0.199900	0.675900
H1811	H181	0.805800	0.174300	0.700000
C1421	C142	0.845700	0.247600	0.634000
H1821	H182	0.808500	0.255400	0.630500
C1431	C143	0.904500	0.283000	0.597800
H1831	H183	0.904100	0.313200	0.569400
C1441	C144	0.963200	0.276100	0.601100
H1841	H184	0.002100	0.301700	0.577200
Cu331	Cu33	0.141380	0.915630	0.273640
N411	N41	0.198900	0.991600	0.323370
N421	N42	0.232200	0.082600	0.383270
C1451	C145	0.111100	0.986100	0.393070
C1461	C146	0.074300	0.023400	0.394170
H1851	H185	0.095700	0.068500	0.379570
C1471	C147	0.182400	0.021400	0.366970
C1481	C148	0.267700	0.040400	0.310470
C1491	C149	0.288000	0.096200	0.347270
C1501	C150	0.355400	0.155500	0.342570
H1861	H186	0.368500	0.194200	0.366670
C1511	C151	0.401900	0.154300	0.300670
H1871	H187	0.446900	0.191500	0.297170
C1521	C152	0.378500	0.095500	0.264470
H1881	H188	0.409100	0.095900	0.236070
C1531	C153	0.312900	0.036800	0.267770
H1891	H189	0.299600	0.997900	0.243870
Cu341	Cu34	0.225750	0.141380	0.440300
N431	N43	0.207300	0.198900	0.490030
N441	N44	0.149600	0.232200	0.549930
C1541	C154	0.125000	0.111100	0.559730
C1551	C155	0.050900	0.074300	0.560830
H1901	H190	0.027200	0.095700	0.546230
C1561	C156	0.161000	0.182400	0.533630
C1571	C157	0.227300	0.267700	0.477130
C1581	C158	0.191800	0.288000	0.513930
C1591	C159	0.199900	0.355400	0.509230
H1911	H191	0.174300	0.368500	0.533330
C1601	C160	0.247600	0.401900	0.467330
H1921	H192	0.255400	0.446900	0.463830
C1611	C161	0.283000	0.378500	0.431130
H1931	H193	0.313200	0.409100	0.402730
C1621	C162	0.276100	0.312900	0.434430
H1941	H194	0.301700	0.299600	0.410530
Cu351	Cu35	0.915630	0.774250	0.106970
N451	N45	0.991600	0.792700	0.156700
N461	N46	0.082600	0.850400	0.216600
C1631	C163	0.986100	0.875000	0.226400
C1641	C164	0.023400	0.949100	0.227500
H1951	H195	0.068500	0.972800	0.212900
C1651	C165	0.021400	0.839000	0.200300
C1661	C166	0.040400	0.772700	0.143800
C1671	C167	0.096200	0.808200	0.180600
C1681	C168	0.155500	0.800100	0.175900
H1961	H196	0.194200	0.825700	0.200000
C1691	C169	0.154300	0.752400	0.134000
H1971	H197	0.191500	0.744600	0.130500
C1701	C170	0.095500	0.717000	0.097800
H1981	H198	0.095900	0.686800	0.069400
C1711	C171	0.036800	0.723900	0.101100
H1991	H199	0.997900	0.698300	0.077200
Cu361	Cu36	0.858620	0.084370	0.773640
N471	N47	0.801100	0.008400	0.823370
N481	N48	0.767800	0.917400	0.883270
C1721	C172	0.888900	0.013900	0.893070
C1731	C173	0.925700	0.976600	0.894170
H2001	H200	0.904300	0.931500	0.879570
C1741	C174	0.817600	0.978600	0.866970
C1751	C175	0.732300	0.959600	0.810470
C1761	C176	0.712000	0.903800	0.847270
C1771	C177	0.644600	0.844500	0.842570
H2011	H201	0.631500	0.805800	0.866670
C1781	C178	0.598100	0.845700	0.800670
H2021	H202	0.553100	0.808500	0.797170
C1791	C179	0.621500	0.904500	0.764470
H2031	H203	0.590900	0.904100	0.736070
C1801	C180	0.687100	0.963200	0.767770
H2041	H204	0.700400	0.002100	0.743870
C1811	C181	0.993500	0.987000	0.250000
H2051	H205	0.017700	0.035400	0.250000
C1821	C182	0.921650	0.843300	0.250000
H2061	H206	0.897500	0.795000	0.250000
C1831	C183	0.013000	0.006500	0.583330
H2071	H207	0.964600	0.982300	0.583330
C1841	C184	0.156700	0.078350	0.583330
H2081	H208	0.205000	0.102500	0.583330
C1851	C185	0.993500	0.006500	0.916670
H2091	H209	0.017700	0.982300	0.916670
C1861	C186	0.921650	0.078350	0.916670
H2101	H210	0.897500	0.102500	0.916670
C1871	C187	0.006500	0.013000	0.750000
H2111	H211	0.982300	0.964600	0.750000
C1881	C188	0.078350	0.156700	0.750000
H2121	H212	0.102500	0.205000	0.750000
C1891	C189	0.987000	0.993500	0.083330
H2131	H213	0.035400	0.017700	0.083330
C1901	C190	0.843300	0.921650	0.083330
H2141	H214	0.795000	0.897500	0.083330
C1911	C191	0.006500	0.993500	0.416670
H2151	H215	0.982300	0.017700	0.416670
C1921	C192	0.078350	0.921650	0.416670
H2161	H216	0.102500	0.897500	0.416670
