data_jacs_PM
_symmetry_space_group_name_H-M	'P1'
_cell_length_a	22.917000
_cell_length_b	22.917000
_cell_length_c	15.902400
_cell_angle_alpha	90.000000
_cell_angle_beta	90.000000
_cell_angle_gamma	120.000000
_symmetry_Int_Tables_number 1

loop_
_symmetry_equiv_pos_as_xyz
'x,y,z'

loop_
_atom_site_label
_atom_site_type_symbol
_atom_site_fract_x
_atom_site_fract_y
_atom_site_fract_z
C11	C1	0.439500	0.463500	0.045400
C21	C2	0.374700	0.423100	0.088500
C31	C3	0.166300	0.325500	0.920400
C41	C4	0.224800	0.348500	0.874900
H11	H1	0.263000	0.360000	0.900000
O11	O1	0.165800	0.317100	0.005500
O21	O2	0.322800	0.408600	0.046200
O31	O3	0.069300	0.365400	0.169700
Zn11	Zn1	0.123180	0.365830	0.074640
C51	C5	0.106170	0.796830	0.378730
C61	C6	0.041370	0.756430	0.421830
C71	C7	0.832970	0.658830	0.253730
C81	C8	0.891470	0.681830	0.208230
H21	H2	0.929670	0.693330	0.233330
O41	O4	0.832470	0.650430	0.338830
O51	O5	0.989470	0.741930	0.379530
O61	O6	0.735970	0.698730	0.503030
Zn21	Zn2	0.789850	0.699160	0.407970
C91	C9	0.772830	0.130170	0.712070
C101	C10	0.708030	0.089770	0.755170
C111	C11	0.499630	0.992170	0.587070
C121	C12	0.558130	0.015170	0.541570
H31	H3	0.596330	0.026670	0.566670
O71	O7	0.499130	0.983770	0.672170
O81	O8	0.656130	0.075270	0.712870
O91	O9	0.402630	0.032070	0.836370
Zn31	Zn3	0.456510	0.032500	0.741310
C131	C13	0.536500	0.976000	0.045400
C141	C14	0.576900	0.951600	0.088500
C151	C15	0.674500	0.840800	0.920400
C161	C16	0.651500	0.876300	0.874900
H41	H4	0.640000	0.903000	0.900000
O101	O10	0.682900	0.848700	0.005500
O111	O11	0.591400	0.914200	0.046200
O121	O12	0.634600	0.703900	0.169700
Zn41	Zn4	0.634170	0.757350	0.074640
C171	C17	0.203170	0.309330	0.378730
C181	C18	0.243570	0.284930	0.421830
C191	C19	0.341170	0.174130	0.253730
C201	C20	0.318170	0.209630	0.208230
H51	H5	0.306670	0.236330	0.233330
O131	O13	0.349570	0.182030	0.338830
O141	O14	0.258070	0.247530	0.379530
O151	O15	0.301270	0.037230	0.503030
Zn51	Zn5	0.300840	0.090680	0.407970
C211	C21	0.869830	0.642670	0.712070
C221	C22	0.910230	0.618270	0.755170
C231	C23	0.007830	0.507470	0.587070
C241	C24	0.984830	0.542970	0.541570
H61	H6	0.973330	0.569670	0.566670
O161	O16	0.016230	0.515370	0.672170
O171	O17	0.924730	0.580870	0.712870
O181	O18	0.967930	0.370570	0.836370
Zn61	Zn6	0.967500	0.424020	0.741310
C251	C25	0.024000	0.560500	0.045400
C261	C26	0.048400	0.625300	0.088500
C271	C27	0.159200	0.833700	0.920400
C281	C28	0.123700	0.775200	0.874900
H71	H7	0.097000	0.737000	0.900000
O191	O19	0.151300	0.834200	0.005500
O201	O20	0.085800	0.677200	0.046200
O211	O21	0.296100	0.930700	0.169700
Zn71	Zn7	0.242650	0.876820	0.074640
C291	C29	0.690670	0.893830	0.378730
C301	C30	0.715070	0.958630	0.421830
C311	C31	0.825870	0.167030	0.253730
C321	C32	0.790370	0.108530	0.208230
H81	H8	0.763670	0.070330	0.233330
O221	O22	0.817970	0.167530	0.338830
O231	O23	0.752470	0.010530	0.379530
O241	O24	0.962770	0.264030	0.503030
Zn81	Zn8	0.909320	0.210150	0.407970
C331	C33	0.357330	0.227170	0.712070
C341	C34	0.381730	0.291970	0.755170
C351	C35	0.492530	0.500370	0.587070
C361	C36	0.457030	0.441870	0.541570
H91	H9	0.430330	0.403670	0.566670
O251	O25	0.484630	0.500870	0.672170
O261	O26	0.419130	0.343870	0.712870
O271	O27	0.629430	0.597370	0.836370
Zn91	Zn9	0.575980	0.543490	0.741310
C371	C37	0.463500	0.439500	0.454600
C381	C38	0.423100	0.374700	0.411500
C391	C39	0.325500	0.166300	0.579600
C401	C40	0.348500	0.224800	0.625100
H101	H10	0.360000	0.263000	0.600000
O281	O28	0.317100	0.165800	0.494500
O291	O29	0.408600	0.322800	0.453800
O301	O30	0.365400	0.069300	0.330300
Zn101	Zn10	0.365830	0.123180	0.425360
C411	C41	0.130170	0.772830	0.787930
C421	C42	0.089770	0.708030	0.744830
C431	C43	0.992170	0.499630	0.912930
C441	C44	0.015170	0.558130	0.958430
H111	H11	0.026670	0.596330	0.933330
O311	O31	0.983770	0.499130	0.827830
O321	O32	0.075270	0.656130	0.787130
O331	O33	0.032070	0.402630	0.663630
Zn111	Zn11	0.032500	0.456510	0.758690
C451	C45	0.796830	0.106170	0.121270
C461	C46	0.756430	0.041370	0.078170
C471	C47	0.658830	0.832970	0.246270
C481	C48	0.681830	0.891470	0.291770
H121	H12	0.693330	0.929670	0.266670
O341	O34	0.650430	0.832470	0.161170
O351	O35	0.741930	0.989470	0.120470
O361	O36	0.698730	0.735970	0.996970
Zn121	Zn12	0.699160	0.789850	0.092030
C491	C49	0.976000	0.536500	0.454600
C501	C50	0.951600	0.576900	0.411500
C511	C51	0.840800	0.674500	0.579600
C521	C52	0.876300	0.651500	0.625100
H131	H13	0.903000	0.640000	0.600000
O371	O37	0.848700	0.682900	0.494500
O381	O38	0.914200	0.591400	0.453800
O391	O39	0.703900	0.634600	0.330300
Zn131	Zn13	0.757350	0.634170	0.425360
C531	C53	0.642670	0.869830	0.787930
C541	C54	0.618270	0.910230	0.744830
C551	C55	0.507470	0.007830	0.912930
C561	C56	0.542970	0.984830	0.958430
H141	H14	0.569670	0.973330	0.933330
O401	O40	0.515370	0.016230	0.827830
O411	O41	0.580870	0.924730	0.787130
O421	O42	0.370570	0.967930	0.663630
Zn141	Zn14	0.424020	0.967500	0.758690
C571	C57	0.309330	0.203170	0.121270
C581	C58	0.284930	0.243570	0.078170
C591	C59	0.174130	0.341170	0.246270
C601	C60	0.209630	0.318170	0.291770
H151	H15	0.236330	0.306670	0.266670
O431	O43	0.182030	0.349570	0.161170
O441	O44	0.247530	0.258070	0.120470
O451	O45	0.037230	0.301270	0.996970
Zn151	Zn15	0.090680	0.300840	0.092030
C611	C61	0.560500	0.024000	0.454600
C621	C62	0.625300	0.048400	0.411500
C631	C63	0.833700	0.159200	0.579600
C641	C64	0.775200	0.123700	0.625100
H161	H16	0.737000	0.097000	0.600000
O461	O46	0.834200	0.151300	0.494500
O471	O47	0.677200	0.085800	0.453800
O481	O48	0.930700	0.296100	0.330300
Zn161	Zn16	0.876820	0.242650	0.425360
C651	C65	0.227170	0.357330	0.787930
C661	C66	0.291970	0.381730	0.744830
C671	C67	0.500370	0.492530	0.912930
C681	C68	0.441870	0.457030	0.958430
H171	H17	0.403670	0.430330	0.933330
O491	O49	0.500870	0.484630	0.827830
O501	O50	0.343870	0.419130	0.787130
O511	O51	0.597370	0.629430	0.663630
Zn171	Zn17	0.543490	0.575980	0.758690
C691	C69	0.893830	0.690670	0.121270
C701	C70	0.958630	0.715070	0.078170
C711	C71	0.167030	0.825870	0.246270
C721	C72	0.108530	0.790370	0.291770
H181	H18	0.070330	0.763670	0.266670
O521	O52	0.167530	0.817970	0.161170
O531	O53	0.010530	0.752470	0.120470
O541	O54	0.264030	0.962770	0.996970
Zn181	Zn18	0.210150	0.909320	0.092030
C731	C73	0.560500	0.536500	0.954600
C741	C74	0.625300	0.576900	0.911500
C751	C75	0.833700	0.674500	0.079600
C761	C76	0.775200	0.651500	0.125100
H191	H19	0.737000	0.640000	0.100000
O551	O55	0.834200	0.682900	0.994500
O561	O56	0.677200	0.591400	0.953800
O571	O57	0.930700	0.634600	0.830300
Zn191	Zn19	0.876820	0.634170	0.925360
C771	C77	0.227170	0.869830	0.287930
C781	C78	0.291970	0.910230	0.244830
C791	C79	0.500370	0.007830	0.412930
C801	C80	0.441870	0.984830	0.458430
H201	H20	0.403670	0.973330	0.433330
O581	O58	0.500870	0.016230	0.327830
O591	O59	0.343870	0.924730	0.287130
O601	O60	0.597370	0.967930	0.163630
Zn201	Zn20	0.543490	0.967500	0.258690
C811	C81	0.893830	0.203170	0.621270
C821	C82	0.958630	0.243570	0.578170
C831	C83	0.167030	0.341170	0.746270
C841	C84	0.108530	0.318170	0.791770
H211	H21	0.070330	0.306670	0.766670
O611	O61	0.167530	0.349570	0.661170
O621	O62	0.010530	0.258070	0.620470
O631	O63	0.264030	0.301270	0.496970
Zn211	Zn21	0.210150	0.300840	0.592030
C851	C85	0.463500	0.024000	0.954600
C861	C86	0.423100	0.048400	0.911500
C871	C87	0.325500	0.159200	0.079600
C881	C88	0.348500	0.123700	0.125100
H221	H22	0.360000	0.097000	0.100000
O641	O64	0.317100	0.151300	0.994500
O651	O65	0.408600	0.085800	0.953800
O661	O66	0.365400	0.296100	0.830300
Zn221	Zn22	0.365830	0.242650	0.925360
C891	C89	0.130170	0.357330	0.287930
C901	C90	0.089770	0.381730	0.244830
C911	C91	0.992170	0.492530	0.412930
C921	C92	0.015170	0.457030	0.458430
H231	H23	0.026670	0.430330	0.433330
O671	O67	0.983770	0.484630	0.327830
O681	O68	0.075270	0.419130	0.287130
O691	O69	0.032070	0.629430	0.163630
Zn231	Zn23	0.032500	0.575980	0.258690
C931	C93	0.796830	0.690670	0.621270
C941	C94	0.756430	0.715070	0.578170
C951	C95	0.658830	0.825870	0.746270
C961	C96	0.681830	0.790370	0.791770
H241	H24	0.693330	0.763670	0.766670
O701	O70	0.650430	0.817970	0.661170
O711	O71	0.741930	0.752470	0.620470
O721	O72	0.698730	0.962770	0.496970
Zn241	Zn24	0.699160	0.909320	0.592030
C971	C97	0.976000	0.439500	0.954600
C981	C98	0.951600	0.374700	0.911500
C991	C99	0.840800	0.166300	0.079600
C1001	C100	0.876300	0.224800	0.125100
H251	H25	0.903000	0.263000	0.100000
O731	O73	0.848700	0.165800	0.994500
O741	O74	0.914200	0.322800	0.953800
O751	O75	0.703900	0.069300	0.830300
Zn251	Zn25	0.757350	0.123180	0.925360
C1011	C101	0.642670	0.772830	0.287930
C1021	C102	0.618270	0.708030	0.244830
C1031	C103	0.507470	0.499630	0.412930
C1041	C104	0.542970	0.558130	0.458430
H261	H26	0.569670	0.596330	0.433330
O761	O76	0.515370	0.499130	0.327830
O771	O77	0.580870	0.656130	0.287130
O781	O78	0.370570	0.402630	0.163630
Zn261	Zn26	0.424020	0.456510	0.258690
C1051	C105	0.309330	0.106170	0.621270
C1061	C106	0.284930	0.041370	0.578170
C1071	C107	0.174130	0.832970	0.746270
C1081	C108	0.209630	0.891470	0.791770
H271	H27	0.236330	0.929670	0.766670
O791	O79	0.182030	0.832470	0.661170
O801	O80	0.247530	0.989470	0.620470
O811	O81	0.037230	0.735970	0.496970
Zn271	Zn27	0.090680	0.789850	0.592030
C1091	C109	0.536500	0.560500	0.545400
C1101	C110	0.576900	0.625300	0.588500
C1111	C111	0.674500	0.833700	0.420400
C1121	C112	0.651500	0.775200	0.374900
H281	H28	0.640000	0.737000	0.400000
O821	O82	0.682900	0.834200	0.505500
O831	O83	0.591400	0.677200	0.546200
O841	O84	0.634600	0.930700	0.669700
Zn281	Zn28	0.634170	0.876820	0.574640
C1131	C113	0.203170	0.893830	0.878730
C1141	C114	0.243570	0.958630	0.921830
C1151	C115	0.341170	0.167030	0.753730
C1161	C116	0.318170	0.108530	0.708230
H291	H29	0.306670	0.070330	0.733330
O851	O85	0.349570	0.167530	0.838830
O861	O86	0.258070	0.010530	0.879530
O871	O87	0.301270	0.264030	0.003030
Zn291	Zn29	0.300840	0.210150	0.907970
C1171	C117	0.869830	0.227170	0.212070
C1181	C118	0.910230	0.291970	0.255170
C1191	C119	0.007830	0.500370	0.087070
C1201	C120	0.984830	0.441870	0.041570
H301	H30	0.973330	0.403670	0.066670
O881	O88	0.016230	0.500870	0.172170
O891	O89	0.924730	0.343870	0.212870
O901	O90	0.967930	0.597370	0.336370
Zn301	Zn30	0.967500	0.543490	0.241310
C1211	C121	0.024000	0.463500	0.545400
C1221	C122	0.048400	0.423100	0.588500
C1231	C123	0.159200	0.325500	0.420400
C1241	C124	0.123700	0.348500	0.374900
H311	H31	0.097000	0.360000	0.400000
O911	O91	0.151300	0.317100	0.505500
O921	O92	0.085800	0.408600	0.546200
O931	O93	0.296100	0.365400	0.669700
Zn311	Zn31	0.242650	0.365830	0.574640
C1251	C125	0.690670	0.796830	0.878730
C1261	C126	0.715070	0.756430	0.921830
C1271	C127	0.825870	0.658830	0.753730
C1281	C128	0.790370	0.681830	0.708230
H321	H32	0.763670	0.693330	0.733330
O941	O94	0.817970	0.650430	0.838830
O951	O95	0.752470	0.741930	0.879530
O961	O96	0.962770	0.698730	0.003030
Zn321	Zn32	0.909320	0.699160	0.907970
C1291	C129	0.357330	0.130170	0.212070
C1301	C130	0.381730	0.089770	0.255170
C1311	C131	0.492530	0.992170	0.087070
C1321	C132	0.457030	0.015170	0.041570
H331	H33	0.430330	0.026670	0.066670
O971	O97	0.484630	0.983770	0.172170
O981	O98	0.419130	0.075270	0.212870
O991	O99	0.629430	0.032070	0.336370
Zn331	Zn33	0.575980	0.032500	0.241310
C1331	C133	0.439500	0.976000	0.545400
C1341	C134	0.374700	0.951600	0.588500
C1351	C135	0.166300	0.840800	0.420400
C1361	C136	0.224800	0.876300	0.374900
H341	H34	0.263000	0.903000	0.400000
O1001	O100	0.165800	0.848700	0.505500
O1011	O101	0.322800	0.914200	0.546200
O1021	O102	0.069300	0.703900	0.669700
Zn341	Zn34	0.123180	0.757350	0.574640
C1371	C137	0.106170	0.309330	0.878730
C1381	C138	0.041370	0.284930	0.921830
C1391	C139	0.832970	0.174130	0.753730
C1401	C140	0.891470	0.209630	0.708230
H351	H35	0.929670	0.236330	0.733330
O1031	O103	0.832470	0.182030	0.838830
O1041	O104	0.989470	0.247530	0.879530
O1051	O105	0.735970	0.037230	0.003030
Zn351	Zn35	0.789850	0.090680	0.907970
C1411	C141	0.772830	0.642670	0.212070
C1421	C142	0.708030	0.618270	0.255170
C1431	C143	0.499630	0.507470	0.087070
C1441	C144	0.558130	0.542970	0.041570
H361	H36	0.596330	0.569670	0.066670
O1061	O106	0.499130	0.515370	0.172170
O1071	O107	0.656130	0.580870	0.212870
O1081	O108	0.402630	0.370570	0.336370
Zn361	Zn36	0.456510	0.424020	0.241310
Zn371	Zn37	0.238200	0.333330	0.083330
Zn381	Zn38	0.666670	0.904860	0.083330
Zn391	Zn39	0.333330	0.238200	0.416670
Zn401	Zn40	0.095140	0.761800	0.083330
Zn411	Zn41	0.428470	0.428470	0.750000
Zn421	Zn42	0.000000	0.571530	0.750000
Zn431	Zn43	0.904860	0.666670	0.416670
Zn441	Zn44	0.571530	0.000000	0.750000
Zn451	Zn45	0.761800	0.095140	0.416670
Zn461	Zn46	0.761800	0.666670	0.916670
Zn471	Zn47	0.428470	0.000000	0.250000
Zn481	Zn48	0.095140	0.333330	0.583330
Zn491	Zn49	0.333330	0.095140	0.916670
Zn501	Zn50	0.000000	0.428470	0.250000
Zn511	Zn51	0.904860	0.238200	0.916670
Zn521	Zn52	0.571530	0.571530	0.250000
Zn531	Zn53	0.666670	0.761800	0.583330
Zn541	Zn54	0.238200	0.904860	0.583330
