data_JADMAF_clean_PM
_symmetry_space_group_name_H-M	'P1'
_cell_length_a	47.020000
_cell_length_b	10.770000
_cell_length_c	23.780000
_cell_angle_alpha	90.000000
_cell_angle_beta	94.870000
_cell_angle_gamma	90.000000
_symmetry_Int_Tables_number 1

loop_
_symmetry_equiv_pos_as_xyz
'x,y,z'

loop_
_atom_site_label
_atom_site_type_symbol
_atom_site_fract_x
_atom_site_fract_y
_atom_site_fract_z
Co11	Co1	0.784530	0.347920	0.425150
Co21	Co2	0.491620	0.165440	0.430250
O11	O1	0.751900	0.202100	0.418900
O21	O2	0.981840	0.184900	0.543100
O31	O3	0.522620	0.127400	0.376900
O41	O4	0.918700	0.000400	0.757200
O51	O5	0.512110	0.943900	0.336000
O61	O6	0.903610	0.794500	0.608100
O71	O7	0.877410	0.997200	0.377300
O81	O8	0.746680	0.366400	0.364500
O91	O9	0.853240	0.909400	0.742400
N11	N1	0.806060	0.733100	0.858300
O101	O10	0.873790	0.085600	0.599800
O111	O11	0.808340	0.505800	0.418200
O121	O12	0.638260	0.056900	0.260600
N21	N2	0.962590	0.688900	0.495100
O131	O13	0.971470	0.360100	0.500200
C11	C1	0.661820	0.106800	0.292500
C21	C2	0.862330	0.232800	0.529300
H11	H1	0.881200	0.259500	0.532500
O141	O14	0.799400	0.609600	0.496200
C31	C3	0.824970	0.104100	0.556800
H21	H2	0.818300	0.040400	0.578500
C41	C4	0.911910	0.002000	0.459300
H31	H3	0.907200	0.921600	0.469300
C51	C5	0.676100	0.043700	0.336200
H41	H4	0.669500	0.966500	0.346800
N31	N3	0.965970	0.228500	0.871100
C61	C6	0.887430	0.942500	0.676300
C71	C7	0.528550	0.032200	0.347300
N41	N4	0.814580	0.258400	0.484300
C81	C8	0.897520	0.059000	0.413300
C91	C9	0.672100	0.221700	0.276900
H51	H5	0.662500	0.265500	0.247400
C101	C10	0.903510	0.179400	0.399100
H61	H6	0.893500	0.217500	0.368400
C111	C11	0.914900	0.682800	0.527300
H71	H7	0.896200	0.653700	0.522000
C121	C12	0.823500	0.667800	0.826300
H81	H8	0.824800	0.582400	0.831800
C131	C13	0.899410	0.052400	0.712700
H91	H9	0.909500	0.109700	0.690000
H101	H10	0.884000	0.096800	0.728600
C141	C14	0.853380	0.135900	0.563300
C151	C15	0.933610	0.079900	0.793100
C161	C16	0.700900	0.094900	0.365200
H111	H11	0.710300	0.052000	0.395200
C171	C17	0.558430	0.035400	0.325700
C181	C18	0.935200	0.653800	0.489800
H121	H12	0.929200	0.606100	0.458400
C191	C19	0.591000	0.977000	0.257700
H131	H13	0.594700	0.934000	0.225200
C201	C20	0.932590	0.207400	0.788300
H141	H14	0.921400	0.246200	0.759400
C211	C21	0.965480	0.247400	0.508700
C221	C22	0.737650	0.262900	0.379800
C231	C23	0.842370	0.287700	0.490700
H151	H15	0.848800	0.349500	0.467600
C241	C24	0.863390	0.985000	0.633400
H161	H16	0.857100	0.916300	0.609000
H171	H17	0.847300	0.013300	0.652800
C251	C25	0.862800	0.897000	0.398600
C261	C26	0.949060	0.275500	0.828700
H181	H18	0.948200	0.361600	0.825800
C271	C27	0.830100	0.816500	0.460500
H191	H19	0.819200	0.828300	0.490900
C281	C28	0.839250	0.719100	0.786800
H201	H20	0.850700	0.669800	0.765900
C291	C29	0.846400	0.913100	0.442000
H211	H21	0.845900	0.990100	0.459600
C301	C30	0.933540	0.065900	0.490400
H221	H22	0.943300	0.027500	0.521400
C311	C31	0.924190	0.758600	0.573800
C321	C32	0.563970	0.968700	0.277900
H231	H23	0.549900	0.919100	0.259500
C331	C33	0.606880	0.112100	0.334500
H241	H24	0.621200	0.157600	0.354300
C341	C34	0.579970	0.106100	0.352700
H251	H25	0.576100	0.151500	0.384400
C351	C35	0.830100	0.700600	0.433300
C361	C36	0.924780	0.243100	0.431400
H261	H26	0.928300	0.325700	0.422900
C371	C37	0.940990	0.186800	0.476100
C381	C38	0.804600	0.854100	0.848000
H271	H27	0.792600	0.901600	0.868600
C391	C39	0.874410	0.845700	0.712200
H281	H28	0.865500	0.780500	0.688700
H291	H29	0.888900	0.808900	0.738500
C401	C40	0.805980	0.166300	0.517800
H301	H30	0.786800	0.143600	0.514800
C411	C41	0.612120	0.047900	0.285200
C421	C42	0.913200	0.889800	0.648900
H311	H31	0.922800	0.955800	0.630200
H321	H32	0.926700	0.854300	0.677700
C431	C43	0.951000	0.028000	0.835700
H331	H33	0.952400	0.942100	0.839000
C441	C44	0.863600	0.784600	0.372300
H341	H34	0.875200	0.773500	0.342900
C451	C45	0.952970	0.791900	0.581700
H351	H35	0.959900	0.837400	0.613100
C461	C46	0.819600	0.913800	0.808800
H361	H36	0.817400	0.998700	0.802900
C471	C47	0.711100	0.207600	0.349100
C481	C48	0.847310	0.687800	0.389300
H371	H37	0.847900	0.611900	0.370800
C491	C49	0.837940	0.845600	0.778500
C501	C50	0.696360	0.271400	0.304700
H381	H38	0.703000	0.348300	0.293800
C511	C51	0.810900	0.598500	0.451000
C521	C52	0.970500	0.755600	0.541900
H391	H39	0.989600	0.778800	0.547500
C531	C53	0.966400	0.104300	0.874000
H401	H40	0.977700	0.067300	0.903400
Co31	Co3	0.284530	0.847920	0.425150
Co41	Co4	0.991620	0.665440	0.430250
O151	O15	0.251900	0.702100	0.418900
O161	O16	0.481840	0.684900	0.543100
O171	O17	0.022620	0.627400	0.376900
O181	O18	0.418700	0.500400	0.757200
O191	O19	0.012110	0.443900	0.336000
O201	O20	0.403610	0.294500	0.608100
O211	O21	0.377410	0.497200	0.377300
O221	O22	0.246680	0.866400	0.364500
O231	O23	0.353240	0.409400	0.742400
N51	N5	0.306060	0.233100	0.858300
O241	O24	0.373790	0.585600	0.599800
O251	O25	0.308340	0.005800	0.418200
O261	O26	0.138260	0.556900	0.260600
N61	N6	0.462590	0.188900	0.495100
O271	O27	0.471470	0.860100	0.500200
C541	C54	0.161820	0.606800	0.292500
C551	C55	0.362330	0.732800	0.529300
H411	H41	0.381200	0.759500	0.532500
O281	O28	0.299400	0.109600	0.496200
C561	C56	0.324970	0.604100	0.556800
H421	H42	0.318300	0.540400	0.578500
C571	C57	0.411910	0.502000	0.459300
H431	H43	0.407200	0.421600	0.469300
C581	C58	0.176100	0.543700	0.336200
H441	H44	0.169500	0.466500	0.346800
N71	N7	0.465970	0.728500	0.871100
C591	C59	0.387430	0.442500	0.676300
C601	C60	0.028550	0.532200	0.347300
N81	N8	0.314580	0.758400	0.484300
C611	C61	0.397520	0.559000	0.413300
C621	C62	0.172100	0.721700	0.276900
H451	H45	0.162500	0.765500	0.247400
C631	C63	0.403510	0.679400	0.399100
H461	H46	0.393500	0.717500	0.368400
C641	C64	0.414900	0.182800	0.527300
H471	H47	0.396200	0.153700	0.522000
C651	C65	0.323500	0.167800	0.826300
H481	H48	0.324800	0.082400	0.831800
C661	C66	0.399410	0.552400	0.712700
H491	H49	0.409500	0.609700	0.690000
H501	H50	0.384000	0.596800	0.728600
C671	C67	0.353380	0.635900	0.563300
C681	C68	0.433610	0.579900	0.793100
C691	C69	0.200900	0.594900	0.365200
H511	H51	0.210300	0.552000	0.395200
C701	C70	0.058430	0.535400	0.325700
C711	C71	0.435200	0.153800	0.489800
H521	H52	0.429200	0.106100	0.458400
C721	C72	0.091000	0.477000	0.257700
H531	H53	0.094700	0.434000	0.225200
C731	C73	0.432590	0.707400	0.788300
H541	H54	0.421400	0.746200	0.759400
C741	C74	0.465480	0.747400	0.508700
C751	C75	0.237650	0.762900	0.379800
C761	C76	0.342370	0.787700	0.490700
H551	H55	0.348800	0.849500	0.467600
C771	C77	0.363390	0.485000	0.633400
H561	H56	0.357100	0.416300	0.609000
H571	H57	0.347300	0.513300	0.652800
C781	C78	0.362800	0.397000	0.398600
C791	C79	0.449060	0.775500	0.828700
H581	H58	0.448200	0.861600	0.825800
C801	C80	0.330100	0.316500	0.460500
H591	H59	0.319200	0.328300	0.490900
C811	C81	0.339250	0.219100	0.786800
H601	H60	0.350700	0.169800	0.765900
C821	C82	0.346400	0.413100	0.442000
H611	H61	0.345900	0.490100	0.459600
C831	C83	0.433540	0.565900	0.490400
H621	H62	0.443300	0.527500	0.521400
C841	C84	0.424190	0.258600	0.573800
C851	C85	0.063970	0.468700	0.277900
H631	H63	0.049900	0.419100	0.259500
C861	C86	0.106880	0.612100	0.334500
H641	H64	0.121200	0.657600	0.354300
C871	C87	0.079970	0.606100	0.352700
H651	H65	0.076100	0.651500	0.384400
C881	C88	0.330100	0.200600	0.433300
C891	C89	0.424780	0.743100	0.431400
H661	H66	0.428300	0.825700	0.422900
C901	C90	0.440990	0.686800	0.476100
C911	C91	0.304600	0.354100	0.848000
H671	H67	0.292600	0.401600	0.868600
C921	C92	0.374410	0.345700	0.712200
H681	H68	0.365500	0.280500	0.688700
H691	H69	0.388900	0.308900	0.738500
C931	C93	0.305980	0.666300	0.517800
H701	H70	0.286800	0.643600	0.514800
C941	C94	0.112120	0.547900	0.285200
C951	C95	0.413200	0.389800	0.648900
H711	H71	0.422800	0.455800	0.630200
H721	H72	0.426700	0.354300	0.677700
C961	C96	0.451000	0.528000	0.835700
H731	H73	0.452400	0.442100	0.839000
C971	C97	0.363600	0.284600	0.372300
H741	H74	0.375200	0.273500	0.342900
C981	C98	0.452970	0.291900	0.581700
H751	H75	0.459900	0.337400	0.613100
C991	C99	0.319600	0.413800	0.808800
H761	H76	0.317400	0.498700	0.802900
C1001	C100	0.211100	0.707600	0.349100
C1011	C101	0.347310	0.187800	0.389300
H771	H77	0.347900	0.111900	0.370800
C1021	C102	0.337940	0.345600	0.778500
C1031	C103	0.196360	0.771400	0.304700
H781	H78	0.203000	0.848300	0.293800
C1041	C104	0.310900	0.098500	0.451000
C1051	C105	0.470500	0.255600	0.541900
H791	H79	0.489600	0.278800	0.547500
C1061	C106	0.466400	0.604300	0.874000
H801	H80	0.477700	0.567300	0.903400
Co51	Co5	0.215470	0.347920	0.074850
Co61	Co6	0.508380	0.165440	0.069750
O291	O29	0.248100	0.202100	0.081100
O301	O30	0.018160	0.184900	0.956900
O311	O31	0.477380	0.127400	0.123100
O321	O32	0.081300	0.000400	0.742800
O331	O33	0.487890	0.943900	0.164000
O341	O34	0.096390	0.794500	0.891900
O351	O35	0.122590	0.997200	0.122700
O361	O36	0.253320	0.366400	0.135500
O371	O37	0.146760	0.909400	0.757600
N91	N9	0.193940	0.733100	0.641700
O381	O38	0.126210	0.085600	0.900200
O391	O39	0.191660	0.505800	0.081800
O401	O40	0.361740	0.056900	0.239400
N101	N10	0.037410	0.688900	0.004900
O411	O41	0.028530	0.360100	0.999800
C1071	C107	0.338180	0.106800	0.207500
C1081	C108	0.137670	0.232800	0.970700
H811	H81	0.118800	0.259500	0.967500
O421	O42	0.200600	0.609600	0.003800
C1091	C109	0.175030	0.104100	0.943200
H821	H82	0.181700	0.040400	0.921500
C1101	C110	0.088090	0.002000	0.040700
H831	H83	0.092800	0.921600	0.030700
C1111	C111	0.323900	0.043700	0.163800
H841	H84	0.330500	0.966500	0.153200
N111	N11	0.034030	0.228500	0.628900
C1121	C112	0.112570	0.942500	0.823700
C1131	C113	0.471450	0.032200	0.152700
N121	N12	0.185420	0.258400	0.015700
C1141	C114	0.102480	0.059000	0.086700
C1151	C115	0.327900	0.221700	0.223100
H851	H85	0.337500	0.265500	0.252600
C1161	C116	0.096490	0.179400	0.100900
H861	H86	0.106500	0.217500	0.131600
C1171	C117	0.085100	0.682800	0.972700
H871	H87	0.103800	0.653700	0.978000
C1181	C118	0.176500	0.667800	0.673700
H881	H88	0.175200	0.582400	0.668200
C1191	C119	0.100590	0.052400	0.787300
H891	H89	0.090500	0.109700	0.810000
H901	H90	0.116000	0.096800	0.771400
C1201	C120	0.146620	0.135900	0.936700
C1211	C121	0.066390	0.079900	0.706900
C1221	C122	0.299100	0.094900	0.134800
H911	H91	0.289700	0.052000	0.104800
C1231	C123	0.441570	0.035400	0.174300
C1241	C124	0.064800	0.653800	0.010200
H921	H92	0.070800	0.606100	0.041600
C1251	C125	0.409000	0.977000	0.242300
H931	H93	0.405300	0.934000	0.274800
C1261	C126	0.067410	0.207400	0.711700
H941	H94	0.078600	0.246200	0.740600
C1271	C127	0.034520	0.247400	0.991300
C1281	C128	0.262350	0.262900	0.120200
C1291	C129	0.157630	0.287700	0.009300
H951	H95	0.151200	0.349500	0.032400
C1301	C130	0.136610	0.985000	0.866600
H961	H96	0.142900	0.916300	0.891000
H971	H97	0.152700	0.013300	0.847200
C1311	C131	0.137200	0.897000	0.101400
C1321	C132	0.050940	0.275500	0.671300
H981	H98	0.051800	0.361600	0.674200
C1331	C133	0.169900	0.816500	0.039500
H991	H99	0.180800	0.828300	0.009100
C1341	C134	0.160750	0.719100	0.713200
H1001	H100	0.149300	0.669800	0.734100
C1351	C135	0.153600	0.913100	0.058000
H1011	H101	0.154100	0.990100	0.040400
C1361	C136	0.066460	0.065900	0.009600
H1021	H102	0.056700	0.027500	0.978600
C1371	C137	0.075810	0.758600	0.926200
C1381	C138	0.436030	0.968700	0.222100
H1031	H103	0.450100	0.919100	0.240500
C1391	C139	0.393120	0.112100	0.165500
H1041	H104	0.378800	0.157600	0.145700
C1401	C140	0.420030	0.106100	0.147300
H1051	H105	0.423900	0.151500	0.115600
C1411	C141	0.169900	0.700600	0.066700
C1421	C142	0.075220	0.243100	0.068600
H1061	H106	0.071700	0.325700	0.077100
C1431	C143	0.059010	0.186800	0.023900
C1441	C144	0.195400	0.854100	0.652000
H1071	H107	0.207400	0.901600	0.631400
C1451	C145	0.125590	0.845700	0.787800
H1081	H108	0.134500	0.780500	0.811300
H1091	H109	0.111100	0.808900	0.761500
C1461	C146	0.194020	0.166300	0.982200
H1101	H110	0.213200	0.143600	0.985200
C1471	C147	0.387880	0.047900	0.214800
C1481	C148	0.086800	0.889800	0.851100
H1111	H111	0.077200	0.955800	0.869800
H1121	H112	0.073300	0.854300	0.822300
C1491	C149	0.049000	0.028000	0.664300
H1131	H113	0.047600	0.942100	0.661000
C1501	C150	0.136400	0.784600	0.127700
H1141	H114	0.124800	0.773500	0.157100
C1511	C151	0.047030	0.791900	0.918300
H1151	H115	0.040100	0.837400	0.886900
C1521	C152	0.180400	0.913800	0.691200
H1161	H116	0.182600	0.998700	0.697100
C1531	C153	0.288900	0.207600	0.150900
C1541	C154	0.152690	0.687800	0.110700
H1171	H117	0.152100	0.611900	0.129200
C1551	C155	0.162060	0.845600	0.721500
C1561	C156	0.303640	0.271400	0.195300
H1181	H118	0.297000	0.348300	0.206200
C1571	C157	0.189100	0.598500	0.049000
C1581	C158	0.029500	0.755600	0.958100
H1191	H119	0.010400	0.778800	0.952500
C1591	C159	0.033600	0.104300	0.626000
H1201	H120	0.022300	0.067300	0.596600
Co71	Co7	0.715470	0.847920	0.074850
Co81	Co8	0.008380	0.665440	0.069750
O431	O43	0.748100	0.702100	0.081100
O441	O44	0.518160	0.684900	0.956900
O451	O45	0.977380	0.627400	0.123100
O461	O46	0.581300	0.500400	0.742800
O471	O47	0.987890	0.443900	0.164000
O481	O48	0.596390	0.294500	0.891900
O491	O49	0.622590	0.497200	0.122700
O501	O50	0.753320	0.866400	0.135500
O511	O51	0.646760	0.409400	0.757600
N131	N13	0.693940	0.233100	0.641700
O521	O52	0.626210	0.585600	0.900200
O531	O53	0.691660	0.005800	0.081800
O541	O54	0.861740	0.556900	0.239400
N141	N14	0.537410	0.188900	0.004900
O551	O55	0.528530	0.860100	0.999800
C1601	C160	0.838180	0.606800	0.207500
C1611	C161	0.637670	0.732800	0.970700
H1211	H121	0.618800	0.759500	0.967500
O561	O56	0.700600	0.109600	0.003800
C1621	C162	0.675030	0.604100	0.943200
H1221	H122	0.681700	0.540400	0.921500
C1631	C163	0.588090	0.502000	0.040700
H1231	H123	0.592800	0.421600	0.030700
C1641	C164	0.823900	0.543700	0.163800
H1241	H124	0.830500	0.466500	0.153200
N151	N15	0.534030	0.728500	0.628900
C1651	C165	0.612570	0.442500	0.823700
C1661	C166	0.971450	0.532200	0.152700
N161	N16	0.685420	0.758400	0.015700
C1671	C167	0.602480	0.559000	0.086700
C1681	C168	0.827900	0.721700	0.223100
H1251	H125	0.837500	0.765500	0.252600
C1691	C169	0.596490	0.679400	0.100900
H1261	H126	0.606500	0.717500	0.131600
C1701	C170	0.585100	0.182800	0.972700
H1271	H127	0.603800	0.153700	0.978000
C1711	C171	0.676500	0.167800	0.673700
H1281	H128	0.675200	0.082400	0.668200
C1721	C172	0.600590	0.552400	0.787300
H1291	H129	0.590500	0.609700	0.810000
H1301	H130	0.616000	0.596800	0.771400
C1731	C173	0.646620	0.635900	0.936700
C1741	C174	0.566390	0.579900	0.706900
C1751	C175	0.799100	0.594900	0.134800
H1311	H131	0.789700	0.552000	0.104800
C1761	C176	0.941570	0.535400	0.174300
C1771	C177	0.564800	0.153800	0.010200
H1321	H132	0.570800	0.106100	0.041600
C1781	C178	0.909000	0.477000	0.242300
H1331	H133	0.905300	0.434000	0.274800
C1791	C179	0.567410	0.707400	0.711700
H1341	H134	0.578600	0.746200	0.740600
C1801	C180	0.534520	0.747400	0.991300
C1811	C181	0.762350	0.762900	0.120200
C1821	C182	0.657630	0.787700	0.009300
H1351	H135	0.651200	0.849500	0.032400
C1831	C183	0.636610	0.485000	0.866600
H1361	H136	0.642900	0.416300	0.891000
H1371	H137	0.652700	0.513300	0.847200
C1841	C184	0.637200	0.397000	0.101400
C1851	C185	0.550940	0.775500	0.671300
H1381	H138	0.551800	0.861600	0.674200
C1861	C186	0.669900	0.316500	0.039500
H1391	H139	0.680800	0.328300	0.009100
C1871	C187	0.660750	0.219100	0.713200
H1401	H140	0.649300	0.169800	0.734100
C1881	C188	0.653600	0.413100	0.058000
H1411	H141	0.654100	0.490100	0.040400
C1891	C189	0.566460	0.565900	0.009600
H1421	H142	0.556700	0.527500	0.978600
C1901	C190	0.575810	0.258600	0.926200
C1911	C191	0.936030	0.468700	0.222100
H1431	H143	0.950100	0.419100	0.240500
C1921	C192	0.893120	0.612100	0.165500
H1441	H144	0.878800	0.657600	0.145700
C1931	C193	0.920030	0.606100	0.147300
H1451	H145	0.923900	0.651500	0.115600
C1941	C194	0.669900	0.200600	0.066700
C1951	C195	0.575220	0.743100	0.068600
H1461	H146	0.571700	0.825700	0.077100
C1961	C196	0.559010	0.686800	0.023900
C1971	C197	0.695400	0.354100	0.652000
H1471	H147	0.707400	0.401600	0.631400
C1981	C198	0.625590	0.345700	0.787800
H1481	H148	0.634500	0.280500	0.811300
H1491	H149	0.611100	0.308900	0.761500
C1991	C199	0.694020	0.666300	0.982200
H1501	H150	0.713200	0.643600	0.985200
C2001	C200	0.887880	0.547900	0.214800
C2011	C201	0.586800	0.389800	0.851100
H1511	H151	0.577200	0.455800	0.869800
H1521	H152	0.573300	0.354300	0.822300
C2021	C202	0.549000	0.528000	0.664300
H1531	H153	0.547600	0.442100	0.661000
C2031	C203	0.636400	0.284600	0.127700
H1541	H154	0.624800	0.273500	0.157100
C2041	C204	0.547030	0.291900	0.918300
H1551	H155	0.540100	0.337400	0.886900
C2051	C205	0.680400	0.413800	0.691200
H1561	H156	0.682600	0.498700	0.697100
C2061	C206	0.788900	0.707600	0.150900
C2071	C207	0.652690	0.187800	0.110700
H1571	H157	0.652100	0.111900	0.129200
C2081	C208	0.662060	0.345600	0.721500
C2091	C209	0.803640	0.771400	0.195300
H1581	H158	0.797000	0.848300	0.206200
C2101	C210	0.689100	0.098500	0.049000
C2111	C211	0.529500	0.255600	0.958100
H1591	H159	0.510400	0.278800	0.952500
C2121	C212	0.533600	0.604300	0.626000
H1601	H160	0.522300	0.567300	0.596600
Co91	Co9	0.215470	0.652080	0.574850
Co101	Co10	0.508380	0.834560	0.569750
O571	O57	0.248100	0.797900	0.581100
O581	O58	0.018160	0.815100	0.456900
O591	O59	0.477380	0.872600	0.623100
O601	O60	0.081300	0.999600	0.242800
O611	O61	0.487890	0.056100	0.664000
O621	O62	0.096390	0.205500	0.391900
O631	O63	0.122590	0.002800	0.622700
O641	O64	0.253320	0.633600	0.635500
O651	O65	0.146760	0.090600	0.257600
N171	N17	0.193940	0.266900	0.141700
O661	O66	0.126210	0.914400	0.400200
O671	O67	0.191660	0.494200	0.581800
O681	O68	0.361740	0.943100	0.739400
N181	N18	0.037410	0.311100	0.504900
O691	O69	0.028530	0.639900	0.499800
C2131	C213	0.338180	0.893200	0.707500
C2141	C214	0.137670	0.767200	0.470700
H1611	H161	0.118800	0.740500	0.467500
O701	O70	0.200600	0.390400	0.503800
C2151	C215	0.175030	0.895900	0.443200
H1621	H162	0.181700	0.959600	0.421500
C2161	C216	0.088090	0.998000	0.540700
H1631	H163	0.092800	0.078400	0.530700
C2171	C217	0.323900	0.956300	0.663800
H1641	H164	0.330500	0.033500	0.653200
N191	N19	0.034030	0.771500	0.128900
C2181	C218	0.112570	0.057500	0.323700
C2191	C219	0.471450	0.967800	0.652700
N201	N20	0.185420	0.741600	0.515700
C2201	C220	0.102480	0.941000	0.586700
C2211	C221	0.327900	0.778300	0.723100
H1651	H165	0.337500	0.734500	0.752600
C2221	C222	0.096490	0.820600	0.600900
H1661	H166	0.106500	0.782500	0.631600
C2231	C223	0.085100	0.317200	0.472700
H1671	H167	0.103800	0.346300	0.478000
C2241	C224	0.176500	0.332200	0.173700
H1681	H168	0.175200	0.417600	0.168200
C2251	C225	0.100590	0.947600	0.287300
H1691	H169	0.090500	0.890300	0.310000
H1701	H170	0.116000	0.903200	0.271400
C2261	C226	0.146620	0.864100	0.436700
C2271	C227	0.066390	0.920100	0.206900
C2281	C228	0.299100	0.905100	0.634800
H1711	H171	0.289700	0.948000	0.604800
C2291	C229	0.441570	0.964600	0.674300
C2301	C230	0.064800	0.346200	0.510200
H1721	H172	0.070800	0.393900	0.541600
C2311	C231	0.409000	0.023000	0.742300
H1731	H173	0.405300	0.066000	0.774800
C2321	C232	0.067410	0.792600	0.211700
H1741	H174	0.078600	0.753800	0.240600
C2331	C233	0.034520	0.752600	0.491300
C2341	C234	0.262350	0.737100	0.620200
C2351	C235	0.157630	0.712300	0.509300
H1751	H175	0.151200	0.650500	0.532400
C2361	C236	0.136610	0.015000	0.366600
H1761	H176	0.142900	0.083700	0.391000
H1771	H177	0.152700	0.986700	0.347200
C2371	C237	0.137200	0.103000	0.601400
C2381	C238	0.050940	0.724500	0.171300
H1781	H178	0.051800	0.638400	0.174200
C2391	C239	0.169900	0.183500	0.539500
H1791	H179	0.180800	0.171700	0.509100
C2401	C240	0.160750	0.280900	0.213200
H1801	H180	0.149300	0.330200	0.234100
C2411	C241	0.153600	0.086900	0.558000
H1811	H181	0.154100	0.009900	0.540400
C2421	C242	0.066460	0.934100	0.509600
H1821	H182	0.056700	0.972500	0.478600
C2431	C243	0.075810	0.241400	0.426200
C2441	C244	0.436030	0.031300	0.722100
H1831	H183	0.450100	0.080900	0.740500
C2451	C245	0.393120	0.887900	0.665500
H1841	H184	0.378800	0.842400	0.645700
C2461	C246	0.420030	0.893900	0.647300
H1851	H185	0.423900	0.848500	0.615600
C2471	C247	0.169900	0.299400	0.566700
C2481	C248	0.075220	0.756900	0.568600
H1861	H186	0.071700	0.674300	0.577100
C2491	C249	0.059010	0.813200	0.523900
C2501	C250	0.195400	0.145900	0.152000
H1871	H187	0.207400	0.098400	0.131400
C2511	C251	0.125590	0.154300	0.287800
H1881	H188	0.134500	0.219500	0.311300
H1891	H189	0.111100	0.191100	0.261500
C2521	C252	0.194020	0.833700	0.482200
H1901	H190	0.213200	0.856400	0.485200
C2531	C253	0.387880	0.952100	0.714800
C2541	C254	0.086800	0.110200	0.351100
H1911	H191	0.077200	0.044200	0.369800
H1921	H192	0.073300	0.145700	0.322300
C2551	C255	0.049000	0.972000	0.164300
H1931	H193	0.047600	0.057900	0.161000
C2561	C256	0.136400	0.215400	0.627700
H1941	H194	0.124800	0.226500	0.657100
C2571	C257	0.047030	0.208100	0.418300
H1951	H195	0.040100	0.162600	0.386900
C2581	C258	0.180400	0.086200	0.191200
H1961	H196	0.182600	0.001300	0.197100
C2591	C259	0.288900	0.792400	0.650900
C2601	C260	0.152690	0.312200	0.610700
H1971	H197	0.152100	0.388100	0.629200
C2611	C261	0.162060	0.154400	0.221500
C2621	C262	0.303640	0.728600	0.695300
H1981	H198	0.297000	0.651700	0.706200
C2631	C263	0.189100	0.401500	0.549000
C2641	C264	0.029500	0.244400	0.458100
H1991	H199	0.010400	0.221200	0.452500
C2651	C265	0.033600	0.895700	0.126000
H2001	H200	0.022300	0.932700	0.096600
Co111	Co11	0.715470	0.152080	0.574850
Co121	Co12	0.008380	0.334560	0.569750
O711	O71	0.748100	0.297900	0.581100
O721	O72	0.518160	0.315100	0.456900
O731	O73	0.977380	0.372600	0.623100
O741	O74	0.581300	0.499600	0.242800
O751	O75	0.987890	0.556100	0.664000
O761	O76	0.596390	0.705500	0.391900
O771	O77	0.622590	0.502800	0.622700
O781	O78	0.753320	0.133600	0.635500
O791	O79	0.646760	0.590600	0.257600
N211	N21	0.693940	0.766900	0.141700
O801	O80	0.626210	0.414400	0.400200
O811	O81	0.691660	0.994200	0.581800
O821	O82	0.861740	0.443100	0.739400
N221	N22	0.537410	0.811100	0.504900
O831	O83	0.528530	0.139900	0.499800
C2661	C266	0.838180	0.393200	0.707500
C2671	C267	0.637670	0.267200	0.470700
H2011	H201	0.618800	0.240500	0.467500
O841	O84	0.700600	0.890400	0.503800
C2681	C268	0.675030	0.395900	0.443200
H2021	H202	0.681700	0.459600	0.421500
C2691	C269	0.588090	0.498000	0.540700
H2031	H203	0.592800	0.578400	0.530700
C2701	C270	0.823900	0.456300	0.663800
H2041	H204	0.830500	0.533500	0.653200
N231	N23	0.534030	0.271500	0.128900
C2711	C271	0.612570	0.557500	0.323700
C2721	C272	0.971450	0.467800	0.652700
N241	N24	0.685420	0.241600	0.515700
C2731	C273	0.602480	0.441000	0.586700
C2741	C274	0.827900	0.278300	0.723100
H2051	H205	0.837500	0.234500	0.752600
C2751	C275	0.596490	0.320600	0.600900
H2061	H206	0.606500	0.282500	0.631600
C2761	C276	0.585100	0.817200	0.472700
H2071	H207	0.603800	0.846300	0.478000
C2771	C277	0.676500	0.832200	0.173700
H2081	H208	0.675200	0.917600	0.168200
C2781	C278	0.600590	0.447600	0.287300
H2091	H209	0.590500	0.390300	0.310000
H2101	H210	0.616000	0.403200	0.271400
C2791	C279	0.646620	0.364100	0.436700
C2801	C280	0.566390	0.420100	0.206900
C2811	C281	0.799100	0.405100	0.634800
H2111	H211	0.789700	0.448000	0.604800
C2821	C282	0.941570	0.464600	0.674300
C2831	C283	0.564800	0.846200	0.510200
H2121	H212	0.570800	0.893900	0.541600
C2841	C284	0.909000	0.523000	0.742300
H2131	H213	0.905300	0.566000	0.774800
C2851	C285	0.567410	0.292600	0.211700
H2141	H214	0.578600	0.253800	0.240600
C2861	C286	0.534520	0.252600	0.491300
C2871	C287	0.762350	0.237100	0.620200
C2881	C288	0.657630	0.212300	0.509300
H2151	H215	0.651200	0.150500	0.532400
C2891	C289	0.636610	0.515000	0.366600
H2161	H216	0.642900	0.583700	0.391000
H2171	H217	0.652700	0.486700	0.347200
C2901	C290	0.637200	0.603000	0.601400
C2911	C291	0.550940	0.224500	0.171300
H2181	H218	0.551800	0.138400	0.174200
C2921	C292	0.669900	0.683500	0.539500
H2191	H219	0.680800	0.671700	0.509100
C2931	C293	0.660750	0.780900	0.213200
H2201	H220	0.649300	0.830200	0.234100
C2941	C294	0.653600	0.586900	0.558000
H2211	H221	0.654100	0.509900	0.540400
C2951	C295	0.566460	0.434100	0.509600
H2221	H222	0.556700	0.472500	0.478600
C2961	C296	0.575810	0.741400	0.426200
C2971	C297	0.936030	0.531300	0.722100
H2231	H223	0.950100	0.580900	0.740500
C2981	C298	0.893120	0.387900	0.665500
H2241	H224	0.878800	0.342400	0.645700
C2991	C299	0.920030	0.393900	0.647300
H2251	H225	0.923900	0.348500	0.615600
C3001	C300	0.669900	0.799400	0.566700
C3011	C301	0.575220	0.256900	0.568600
H2261	H226	0.571700	0.174300	0.577100
C3021	C302	0.559010	0.313200	0.523900
C3031	C303	0.695400	0.645900	0.152000
H2271	H227	0.707400	0.598400	0.131400
C3041	C304	0.625590	0.654300	0.287800
H2281	H228	0.634500	0.719500	0.311300
H2291	H229	0.611100	0.691100	0.261500
C3051	C305	0.694020	0.333700	0.482200
H2301	H230	0.713200	0.356400	0.485200
C3061	C306	0.887880	0.452100	0.714800
C3071	C307	0.586800	0.610200	0.351100
H2311	H231	0.577200	0.544200	0.369800
H2321	H232	0.573300	0.645700	0.322300
C3081	C308	0.549000	0.472000	0.164300
H2331	H233	0.547600	0.557900	0.161000
C3091	C309	0.636400	0.715400	0.627700
H2341	H234	0.624800	0.726500	0.657100
C3101	C310	0.547030	0.708100	0.418300
H2351	H235	0.540100	0.662600	0.386900
C3111	C311	0.680400	0.586200	0.191200
H2361	H236	0.682600	0.501300	0.197100
C3121	C312	0.788900	0.292400	0.650900
C3131	C313	0.652690	0.812200	0.610700
H2371	H237	0.652100	0.888100	0.629200
C3141	C314	0.662060	0.654400	0.221500
C3151	C315	0.803640	0.228600	0.695300
H2381	H238	0.797000	0.151700	0.706200
C3161	C316	0.689100	0.901500	0.549000
C3171	C317	0.529500	0.744400	0.458100
H2391	H239	0.510400	0.721200	0.452500
C3181	C318	0.533600	0.395700	0.126000
H2401	H240	0.522300	0.432700	0.096600
Co131	Co13	0.784530	0.652080	0.925150
Co141	Co14	0.491620	0.834560	0.930250
O851	O85	0.751900	0.797900	0.918900
O861	O86	0.981840	0.815100	0.043100
O871	O87	0.522620	0.872600	0.876900
O881	O88	0.918700	0.999600	0.257200
O891	O89	0.512110	0.056100	0.836000
O901	O90	0.903610	0.205500	0.108100
O911	O91	0.877410	0.002800	0.877300
O921	O92	0.746680	0.633600	0.864500
O931	O93	0.853240	0.090600	0.242400
N251	N25	0.806060	0.266900	0.358300
O941	O94	0.873790	0.914400	0.099800
O951	O95	0.808340	0.494200	0.918200
O961	O96	0.638260	0.943100	0.760600
N261	N26	0.962590	0.311100	0.995100
O971	O97	0.971470	0.639900	0.000200
C3191	C319	0.661820	0.893200	0.792500
C3201	C320	0.862330	0.767200	0.029300
H2411	H241	0.881200	0.740500	0.032500
O981	O98	0.799400	0.390400	0.996200
C3211	C321	0.824970	0.895900	0.056800
H2421	H242	0.818300	0.959600	0.078500
C3221	C322	0.911910	0.998000	0.959300
H2431	H243	0.907200	0.078400	0.969300
C3231	C323	0.676100	0.956300	0.836200
H2441	H244	0.669500	0.033500	0.846800
N271	N27	0.965970	0.771500	0.371100
C3241	C324	0.887430	0.057500	0.176300
C3251	C325	0.528550	0.967800	0.847300
N281	N28	0.814580	0.741600	0.984300
C3261	C326	0.897520	0.941000	0.913300
C3271	C327	0.672100	0.778300	0.776900
H2451	H245	0.662500	0.734500	0.747400
C3281	C328	0.903510	0.820600	0.899100
H2461	H246	0.893500	0.782500	0.868400
C3291	C329	0.914900	0.317200	0.027300
H2471	H247	0.896200	0.346300	0.022000
C3301	C330	0.823500	0.332200	0.326300
H2481	H248	0.824800	0.417600	0.331800
C3311	C331	0.899410	0.947600	0.212700
H2491	H249	0.909500	0.890300	0.190000
H2501	H250	0.884000	0.903200	0.228600
C3321	C332	0.853380	0.864100	0.063300
C3331	C333	0.933610	0.920100	0.293100
C3341	C334	0.700900	0.905100	0.865200
H2511	H251	0.710300	0.948000	0.895200
C3351	C335	0.558430	0.964600	0.825700
C3361	C336	0.935200	0.346200	0.989800
H2521	H252	0.929200	0.393900	0.958400
C3371	C337	0.591000	0.023000	0.757700
H2531	H253	0.594700	0.066000	0.725200
C3381	C338	0.932590	0.792600	0.288300
H2541	H254	0.921400	0.753800	0.259400
C3391	C339	0.965480	0.752600	0.008700
C3401	C340	0.737650	0.737100	0.879800
C3411	C341	0.842370	0.712300	0.990700
H2551	H255	0.848800	0.650500	0.967600
C3421	C342	0.863390	0.015000	0.133400
H2561	H256	0.857100	0.083700	0.109000
H2571	H257	0.847300	0.986700	0.152800
C3431	C343	0.862800	0.103000	0.898600
C3441	C344	0.949060	0.724500	0.328700
H2581	H258	0.948200	0.638400	0.325800
C3451	C345	0.830100	0.183500	0.960500
H2591	H259	0.819200	0.171700	0.990900
C3461	C346	0.839250	0.280900	0.286800
H2601	H260	0.850700	0.330200	0.265900
C3471	C347	0.846400	0.086900	0.942000
H2611	H261	0.845900	0.009900	0.959600
C3481	C348	0.933540	0.934100	0.990400
H2621	H262	0.943300	0.972500	0.021400
C3491	C349	0.924190	0.241400	0.073800
C3501	C350	0.563970	0.031300	0.777900
H2631	H263	0.549900	0.080900	0.759500
C3511	C351	0.606880	0.887900	0.834500
H2641	H264	0.621200	0.842400	0.854300
C3521	C352	0.579970	0.893900	0.852700
H2651	H265	0.576100	0.848500	0.884400
C3531	C353	0.830100	0.299400	0.933300
C3541	C354	0.924780	0.756900	0.931400
H2661	H266	0.928300	0.674300	0.922900
C3551	C355	0.940990	0.813200	0.976100
C3561	C356	0.804600	0.145900	0.348000
H2671	H267	0.792600	0.098400	0.368600
C3571	C357	0.874410	0.154300	0.212200
H2681	H268	0.865500	0.219500	0.188700
H2691	H269	0.888900	0.191100	0.238500
C3581	C358	0.805980	0.833700	0.017800
H2701	H270	0.786800	0.856400	0.014800
C3591	C359	0.612120	0.952100	0.785200
C3601	C360	0.913200	0.110200	0.148900
H2711	H271	0.922800	0.044200	0.130200
H2721	H272	0.926700	0.145700	0.177700
C3611	C361	0.951000	0.972000	0.335700
H2731	H273	0.952400	0.057900	0.339000
C3621	C362	0.863600	0.215400	0.872300
H2741	H274	0.875200	0.226500	0.842900
C3631	C363	0.952970	0.208100	0.081700
H2751	H275	0.959900	0.162600	0.113100
C3641	C364	0.819600	0.086200	0.308800
H2761	H276	0.817400	0.001300	0.302900
C3651	C365	0.711100	0.792400	0.849100
C3661	C366	0.847310	0.312200	0.889300
H2771	H277	0.847900	0.388100	0.870800
C3671	C367	0.837940	0.154400	0.278500
C3681	C368	0.696360	0.728600	0.804700
H2781	H278	0.703000	0.651700	0.793800
C3691	C369	0.810900	0.401500	0.951000
C3701	C370	0.970500	0.244400	0.041900
H2791	H279	0.989600	0.221200	0.047500
C3711	C371	0.966400	0.895700	0.374000
H2801	H280	0.977700	0.932700	0.403400
Co151	Co15	0.284530	0.152080	0.925150
Co161	Co16	0.991620	0.334560	0.930250
O991	O99	0.251900	0.297900	0.918900
O1001	O100	0.481840	0.315100	0.043100
O1011	O101	0.022620	0.372600	0.876900
O1021	O102	0.418700	0.499600	0.257200
O1031	O103	0.012110	0.556100	0.836000
O1041	O104	0.403610	0.705500	0.108100
O1051	O105	0.377410	0.502800	0.877300
O1061	O106	0.246680	0.133600	0.864500
O1071	O107	0.353240	0.590600	0.242400
N291	N29	0.306060	0.766900	0.358300
O1081	O108	0.373790	0.414400	0.099800
O1091	O109	0.308340	0.994200	0.918200
O1101	O110	0.138260	0.443100	0.760600
N301	N30	0.462590	0.811100	0.995100
O1111	O111	0.471470	0.139900	0.000200
C3721	C372	0.161820	0.393200	0.792500
C3731	C373	0.362330	0.267200	0.029300
H2811	H281	0.381200	0.240500	0.032500
O1121	O112	0.299400	0.890400	0.996200
C3741	C374	0.324970	0.395900	0.056800
H2821	H282	0.318300	0.459600	0.078500
C3751	C375	0.411910	0.498000	0.959300
H2831	H283	0.407200	0.578400	0.969300
C3761	C376	0.176100	0.456300	0.836200
H2841	H284	0.169500	0.533500	0.846800
N311	N31	0.465970	0.271500	0.371100
C3771	C377	0.387430	0.557500	0.176300
C3781	C378	0.028550	0.467800	0.847300
N321	N32	0.314580	0.241600	0.984300
C3791	C379	0.397520	0.441000	0.913300
C3801	C380	0.172100	0.278300	0.776900
H2851	H285	0.162500	0.234500	0.747400
C3811	C381	0.403510	0.320600	0.899100
H2861	H286	0.393500	0.282500	0.868400
C3821	C382	0.414900	0.817200	0.027300
H2871	H287	0.396200	0.846300	0.022000
C3831	C383	0.323500	0.832200	0.326300
H2881	H288	0.324800	0.917600	0.331800
C3841	C384	0.399410	0.447600	0.212700
H2891	H289	0.409500	0.390300	0.190000
H2901	H290	0.384000	0.403200	0.228600
C3851	C385	0.353380	0.364100	0.063300
C3861	C386	0.433610	0.420100	0.293100
C3871	C387	0.200900	0.405100	0.865200
H2911	H291	0.210300	0.448000	0.895200
C3881	C388	0.058430	0.464600	0.825700
C3891	C389	0.435200	0.846200	0.989800
H2921	H292	0.429200	0.893900	0.958400
C3901	C390	0.091000	0.523000	0.757700
H2931	H293	0.094700	0.566000	0.725200
C3911	C391	0.432590	0.292600	0.288300
H2941	H294	0.421400	0.253800	0.259400
C3921	C392	0.465480	0.252600	0.008700
C3931	C393	0.237650	0.237100	0.879800
C3941	C394	0.342370	0.212300	0.990700
H2951	H295	0.348800	0.150500	0.967600
C3951	C395	0.363390	0.515000	0.133400
H2961	H296	0.357100	0.583700	0.109000
H2971	H297	0.347300	0.486700	0.152800
C3961	C396	0.362800	0.603000	0.898600
C3971	C397	0.449060	0.224500	0.328700
H2981	H298	0.448200	0.138400	0.325800
C3981	C398	0.330100	0.683500	0.960500
H2991	H299	0.319200	0.671700	0.990900
C3991	C399	0.339250	0.780900	0.286800
H3001	H300	0.350700	0.830200	0.265900
C4001	C400	0.346400	0.586900	0.942000
H3011	H301	0.345900	0.509900	0.959600
C4011	C401	0.433540	0.434100	0.990400
H3021	H302	0.443300	0.472500	0.021400
C4021	C402	0.424190	0.741400	0.073800
C4031	C403	0.063970	0.531300	0.777900
H3031	H303	0.049900	0.580900	0.759500
C4041	C404	0.106880	0.387900	0.834500
H3041	H304	0.121200	0.342400	0.854300
C4051	C405	0.079970	0.393900	0.852700
H3051	H305	0.076100	0.348500	0.884400
C4061	C406	0.330100	0.799400	0.933300
C4071	C407	0.424780	0.256900	0.931400
H3061	H306	0.428300	0.174300	0.922900
C4081	C408	0.440990	0.313200	0.976100
C4091	C409	0.304600	0.645900	0.348000
H3071	H307	0.292600	0.598400	0.368600
C4101	C410	0.374410	0.654300	0.212200
H3081	H308	0.365500	0.719500	0.188700
H3091	H309	0.388900	0.691100	0.238500
C4111	C411	0.305980	0.333700	0.017800
H3101	H310	0.286800	0.356400	0.014800
C4121	C412	0.112120	0.452100	0.785200
C4131	C413	0.413200	0.610200	0.148900
H3111	H311	0.422800	0.544200	0.130200
H3121	H312	0.426700	0.645700	0.177700
C4141	C414	0.451000	0.472000	0.335700
H3131	H313	0.452400	0.557900	0.339000
C4151	C415	0.363600	0.715400	0.872300
H3141	H314	0.375200	0.726500	0.842900
C4161	C416	0.452970	0.708100	0.081700
H3151	H315	0.459900	0.662600	0.113100
C4171	C417	0.319600	0.586200	0.308800
H3161	H316	0.317400	0.501300	0.302900
C4181	C418	0.211100	0.292400	0.849100
C4191	C419	0.347310	0.812200	0.889300
H3171	H317	0.347900	0.888100	0.870800
C4201	C420	0.337940	0.654400	0.278500
C4211	C421	0.196360	0.228600	0.804700
H3181	H318	0.203000	0.151700	0.793800
C4221	C422	0.310900	0.901500	0.951000
C4231	C423	0.470500	0.744400	0.041900
H3191	H319	0.489600	0.721200	0.047500
C4241	C424	0.466400	0.395700	0.374000
H3201	H320	0.477700	0.432700	0.403400
