data_JAFPIQ_clean_PM
_symmetry_space_group_name_H-M	'P1'
_cell_length_a	5.748000
_cell_length_b	17.794000
_cell_length_c	18.339000
_cell_angle_alpha	95.830000
_cell_angle_beta	98.890000
_cell_angle_gamma	95.490000
_symmetry_Int_Tables_number 1

loop_
_symmetry_equiv_pos_as_xyz
'x,y,z'

loop_
_atom_site_label
_atom_site_type_symbol
_atom_site_fract_x
_atom_site_fract_y
_atom_site_fract_z
Ag11	Ag1	0.102480	0.551090	0.379650
Ag21	Ag2	0.364850	0.427630	0.500330
Ag31	Ag3	0.617910	0.034450	0.190560
Ag41	Ag4	0.267210	0.948600	0.006000
C11	C1	0.552900	0.457800	0.358000
C21	C2	0.583700	0.425800	0.281800
H11	H1	0.706000	0.391800	0.286700
H21	H2	0.639000	0.467200	0.256000
C31	C3	0.364200	0.383300	0.235100
H31	H3	0.402100	0.364400	0.187300
H41	H4	0.246600	0.418400	0.226300
C41	C4	0.396300	0.250200	0.267000
H51	H5	0.561300	0.267000	0.287200
H61	H6	0.387400	0.228600	0.215800
C51	C5	0.302100	0.188500	0.312100
H71	H7	0.411100	0.150200	0.315900
H81	H8	0.296800	0.211500	0.362000
C61	C6	0.060300	0.151000	0.277700
C71	C7	0.756400	0.911900	0.080400
C81	C8	0.830300	0.832900	0.085500
H91	H9	0.829800	0.808600	0.035600
H101	H10	0.991500	0.837400	0.112000
C91	C9	0.675600	0.782600	0.123600
H111	H11	0.685200	0.730000	0.105500
H121	H12	0.512500	0.792600	0.110100
C101	C10	0.595400	0.737900	0.245400
H131	H13	0.431300	0.748200	0.237400
H141	H14	0.601700	0.686400	0.223200
C111	C11	0.684800	0.744200	0.327100
H151	H15	0.851200	0.736600	0.335600
H161	H16	0.668600	0.794500	0.350200
C121	C12	0.551100	0.687900	0.359000
N11	N1	0.257100	0.317100	0.269300
H171	H17	0.099900	0.301100	0.242600
H181	H18	0.244400	0.333600	0.319800
N21	N2	0.884400	0.119100	0.251500
N31	N3	0.740400	0.793000	0.207700
H191	H19	0.718300	0.843900	0.225900
H201	H20	0.905300	0.787000	0.220700
N41	N4	0.445200	0.642300	0.384000
O11	O1	0.349100	0.446200	0.377900
O21	O2	0.730200	0.494200	0.400500
O31	O3	0.563000	0.926200	0.099000
O41	O4	0.890100	0.957900	0.053900
Ag51	Ag5	0.897520	0.448910	0.620350
Ag61	Ag6	0.635150	0.572370	0.499670
Ag71	Ag7	0.382090	0.965550	0.809440
Ag81	Ag8	0.732790	0.051400	0.994000
C131	C13	0.447100	0.542200	0.642000
C141	C14	0.416300	0.574200	0.718200
H211	H21	0.294000	0.608200	0.713300
H221	H22	0.361000	0.532800	0.744000
C151	C15	0.635800	0.616700	0.764900
H231	H23	0.597900	0.635600	0.812700
H241	H24	0.753400	0.581600	0.773700
C161	C16	0.603700	0.749800	0.733000
H251	H25	0.438700	0.733000	0.712800
H261	H26	0.612600	0.771400	0.784200
C171	C17	0.697900	0.811500	0.687900
H271	H27	0.588900	0.849800	0.684100
H281	H28	0.703200	0.788500	0.638000
C181	C18	0.939700	0.849000	0.722300
C191	C19	0.243600	0.088100	0.919600
C201	C20	0.169700	0.167100	0.914500
H291	H29	0.170200	0.191400	0.964400
H301	H30	0.008500	0.162600	0.888000
C211	C21	0.324400	0.217400	0.876400
H311	H31	0.314800	0.270000	0.894500
H321	H32	0.487500	0.207400	0.889900
C221	C22	0.404600	0.262100	0.754600
H331	H33	0.568700	0.251800	0.762600
H341	H34	0.398300	0.313600	0.776800
C231	C23	0.315200	0.255800	0.672900
H351	H35	0.148800	0.263400	0.664400
H361	H36	0.331400	0.205500	0.649800
C241	C24	0.448900	0.312100	0.641000
N51	N5	0.742900	0.682900	0.730700
H371	H37	0.900100	0.698900	0.757400
H381	H38	0.755600	0.666400	0.680200
N61	N6	0.115600	0.880900	0.748500
N71	N7	0.259600	0.207000	0.792300
H391	H39	0.281700	0.156100	0.774100
H401	H40	0.094700	0.213000	0.779300
N81	N8	0.554800	0.357700	0.616000
O51	O5	0.650900	0.553800	0.622100
O61	O6	0.269800	0.505800	0.599500
O71	O7	0.437000	0.073800	0.901000
O81	O8	0.109900	0.042100	0.946100
