data_JAHNEM01_clean_PM
_symmetry_space_group_name_H-M	'P1'
_cell_length_a	13.601300
_cell_length_b	13.601300
_cell_length_c	8.140400
_cell_angle_alpha	90.000000
_cell_angle_beta	90.000000
_cell_angle_gamma	120.000000
_symmetry_Int_Tables_number 1

loop_
_symmetry_equiv_pos_as_xyz
'x,y,z'

loop_
_atom_site_label
_atom_site_type_symbol
_atom_site_fract_x
_atom_site_fract_y
_atom_site_fract_z
Mn11	Mn1	0.296160	0.335030	0.543160
O11	O1	0.227300	0.180900	0.404300
C11	C1	0.529500	0.320800	0.555600
C21	C2	0.354900	0.556400	0.776200
O21	O2	0.245000	0.058500	0.246400
C31	C3	0.267000	0.158900	0.279900
N11	N1	0.345900	0.209800	0.002700
H11	H1	0.410300	0.257500	0.949100
H21	H2	0.286400	0.201100	0.942700
C41	C4	0.344600	0.254900	0.165100
H31	H3	0.421600	0.286800	0.209300
N21	N2	0.364400	0.426500	0.305500
H41	H4	0.347900	0.482700	0.297800
H51	H5	0.440500	0.458500	0.306000
C51	C5	0.318900	0.352800	0.159500
H61	H6	0.352300	0.397600	0.061200
H71	H7	0.237400	0.321900	0.153900
N31	N3	0.448500	0.318700	0.604300
N41	N4	0.366700	0.495500	0.691100
Mn21	Mn2	0.664970	0.961130	0.543160
O31	O3	0.819100	0.046400	0.404300
C61	C6	0.679200	0.208700	0.555600
C71	C7	0.443600	0.798500	0.776200
O41	O4	0.941500	0.186500	0.246400
C81	C8	0.841100	0.108100	0.279900
N51	N5	0.790200	0.136100	0.002700
H81	H8	0.742500	0.152800	0.949100
H91	H9	0.798900	0.085300	0.942700
C91	C9	0.745100	0.089700	0.165100
H101	H10	0.713200	0.134800	0.209300
N61	N6	0.573500	0.937900	0.305500
H111	H11	0.517300	0.865200	0.297800
H121	H12	0.541500	0.982000	0.306000
C101	C10	0.647200	0.966100	0.159500
H131	H13	0.602400	0.954700	0.061200
H141	H14	0.678100	0.915500	0.153900
N71	N7	0.681300	0.129800	0.604300
N81	N8	0.504500	0.871200	0.691100
Mn31	Mn3	0.038870	0.703840	0.543160
O51	O5	0.953600	0.772700	0.404300
C111	C11	0.791300	0.470500	0.555600
C121	C12	0.201500	0.645100	0.776200
O61	O6	0.813500	0.755000	0.246400
C131	C13	0.891900	0.733000	0.279900
N91	N9	0.863900	0.654100	0.002700
H151	H15	0.847200	0.589700	0.949100
H161	H16	0.914700	0.713600	0.942700
C141	C14	0.910300	0.655400	0.165100
H171	H17	0.865200	0.578400	0.209300
N101	N10	0.062100	0.635600	0.305500
H181	H18	0.134800	0.652100	0.297800
H191	H19	0.018000	0.559500	0.306000
C151	C15	0.033900	0.681100	0.159500
H201	H20	0.045300	0.647700	0.061200
H211	H21	0.084500	0.762600	0.153900
N111	N11	0.870200	0.551500	0.604300
N121	N12	0.128800	0.633300	0.691100
Mn41	Mn4	0.703840	0.664970	0.043160
O71	O7	0.772700	0.819100	0.904300
C161	C16	0.470500	0.679200	0.055600
C171	C17	0.645100	0.443600	0.276200
O81	O8	0.755000	0.941500	0.746400
C181	C18	0.733000	0.841100	0.779900
N131	N13	0.654100	0.790200	0.502700
H221	H22	0.589700	0.742500	0.449100
H231	H23	0.713600	0.798900	0.442700
C191	C19	0.655400	0.745100	0.665100
H241	H24	0.578400	0.713200	0.709300
N141	N14	0.635600	0.573500	0.805500
H251	H25	0.652100	0.517300	0.797800
H261	H26	0.559500	0.541500	0.806000
C201	C20	0.681100	0.647200	0.659500
H271	H27	0.647700	0.602400	0.561200
H281	H28	0.762600	0.678100	0.653900
N151	N15	0.551500	0.681300	0.104300
N161	N16	0.633300	0.504500	0.191100
Mn51	Mn5	0.335030	0.038870	0.043160
O91	O9	0.180900	0.953600	0.904300
C211	C21	0.320800	0.791300	0.055600
C221	C22	0.556400	0.201500	0.276200
O101	O10	0.058500	0.813500	0.746400
C231	C23	0.158900	0.891900	0.779900
N171	N17	0.209800	0.863900	0.502700
H291	H29	0.257500	0.847200	0.449100
H301	H30	0.201100	0.914700	0.442700
C241	C24	0.254900	0.910300	0.665100
H311	H31	0.286800	0.865200	0.709300
N181	N18	0.426500	0.062100	0.805500
H321	H32	0.482700	0.134800	0.797800
H331	H33	0.458500	0.018000	0.806000
C251	C25	0.352800	0.033900	0.659500
H341	H34	0.397600	0.045300	0.561200
H351	H35	0.321900	0.084500	0.653900
N191	N19	0.318700	0.870200	0.104300
N201	N20	0.495500	0.128800	0.191100
Mn61	Mn6	0.961130	0.296160	0.043160
O111	O11	0.046400	0.227300	0.904300
C261	C26	0.208700	0.529500	0.055600
C271	C27	0.798500	0.354900	0.276200
O121	O12	0.186500	0.245000	0.746400
C281	C28	0.108100	0.267000	0.779900
N211	N21	0.136100	0.345900	0.502700
H361	H36	0.152800	0.410300	0.449100
H371	H37	0.085300	0.286400	0.442700
C291	C29	0.089700	0.344600	0.665100
H381	H38	0.134800	0.421600	0.709300
N221	N22	0.937900	0.364400	0.805500
H391	H39	0.865200	0.347900	0.797800
H401	H40	0.982000	0.440500	0.806000
C301	C30	0.966100	0.318900	0.659500
H411	H41	0.954700	0.352300	0.561200
H421	H42	0.915500	0.237400	0.653900
N231	N23	0.129800	0.448500	0.104300
N241	N24	0.871200	0.366700	0.191100
Cr11	Cr1	0.333330	0.666670	0.926420
Cr21	Cr2	0.666670	0.333330	0.426420
