data_JAHXUM_clean_PM
_symmetry_space_group_name_H-M	'P1'
_cell_length_a	14.398200
_cell_length_b	15.017500
_cell_length_c	24.602900
_cell_angle_alpha	75.084600
_cell_angle_beta	72.985600
_cell_angle_gamma	61.355100
_symmetry_Int_Tables_number 1

loop_
_symmetry_equiv_pos_as_xyz
'x,y,z'

loop_
_atom_site_label
_atom_site_type_symbol
_atom_site_fract_x
_atom_site_fract_y
_atom_site_fract_z
Gd11	Gd1	0.850580	0.883260	0.689880
Gd21	Gd2	0.251290	0.632510	0.698650
Gd31	Gd3	0.423720	0.616740	0.810120
Gd41	Gd4	0.582450	0.867490	0.801350
Gd51	Gd5	0.149420	0.116740	0.310120
Gd61	Gd6	0.748710	0.367490	0.301350
Gd71	Gd7	0.576280	0.383260	0.189880
Gd81	Gd8	0.417550	0.132510	0.198650
H11	H1	0.990000	0.087700	0.717500
H21	H2	0.076200	0.171900	0.733300
H31	H3	0.236000	0.081300	0.766100
H41	H4	0.221600	0.820100	0.769900
H51	H5	0.693400	0.871400	0.538800
H61	H6	0.595700	0.830800	0.497800
H71	H7	0.474600	0.769000	0.554200
H81	H8	0.546200	0.787900	0.694700
H91	H9	0.591200	0.209800	0.631800
H101	H10	0.469100	0.356300	0.585100
H111	H11	0.523100	0.415100	0.490300
H121	H12	0.825800	0.199000	0.493600
H131	H13	0.773800	0.097000	0.757600
H141	H14	0.795200	0.412300	0.782500
H151	H15	0.981400	0.328100	0.766700
H161	H16	0.083400	0.418700	0.733900
H171	H17	0.811600	0.679900	0.730100
H181	H18	0.103600	0.628600	0.961200
H191	H19	0.924300	0.669200	0.002200
H201	H20	0.797800	0.731000	0.945800
H211	H21	0.028800	0.712100	0.805300
H221	H22	0.432800	0.290200	0.868200
H231	H23	0.410500	0.143700	0.914900
H241	H24	0.428500	0.084900	0.009700
H251	H25	0.518400	0.301000	0.006400
H261	H26	0.628400	0.403000	0.742400
H271	H27	0.010000	0.912300	0.282500
H281	H28	0.923800	0.828100	0.266700
H291	H29	0.764000	0.918700	0.233900
H301	H30	0.778400	0.179900	0.230100
H311	H31	0.306600	0.128600	0.461200
H321	H32	0.404300	0.169200	0.502200
H331	H33	0.525400	0.231000	0.445800
H341	H34	0.453800	0.212100	0.305300
H351	H35	0.408800	0.790200	0.368200
H361	H36	0.530900	0.643700	0.414900
H371	H37	0.476900	0.584900	0.509700
H381	H38	0.174200	0.801000	0.506400
H391	H39	0.226200	0.903000	0.242400
H401	H40	0.204800	0.587700	0.217500
H411	H41	0.018600	0.671900	0.233300
H421	H42	0.916600	0.581300	0.266100
H431	H43	0.188400	0.320100	0.269900
H441	H44	0.896400	0.371400	0.038800
H451	H45	0.075700	0.330800	0.997800
H461	H46	0.202200	0.269000	0.054200
H471	H47	0.971200	0.287900	0.194700
H481	H48	0.567200	0.709800	0.131800
H491	H49	0.589500	0.856300	0.085100
H501	H50	0.571500	0.915100	0.990300
H511	H51	0.481600	0.699000	0.993600
H521	H52	0.371600	0.597000	0.257600
H531	H53	0.779700	0.250000	0.750000
H541	H54	0.458800	0.250000	0.750000
H551	H55	0.220300	0.750000	0.250000
H561	H56	0.541200	0.750000	0.250000
C11	C1	0.052000	0.886100	0.724700
C21	C2	0.099900	0.944000	0.740200
C31	C3	0.054700	0.050400	0.730600
C41	C4	0.106000	0.100900	0.740300
C51	C5	0.201200	0.046700	0.760500
C61	C6	0.245000	0.940400	0.772400
C71	C7	0.192900	0.891000	0.762000
C81	C8	0.349200	0.877300	0.794100
C91	C9	0.698900	0.852000	0.648000
C101	C10	0.630100	0.833200	0.621400
C111	C11	0.644700	0.846400	0.562000
C121	C12	0.586000	0.822000	0.537600
C131	C13	0.513200	0.785300	0.571300
C141	C14	0.498000	0.772400	0.630200
C151	C15	0.556500	0.796500	0.654900
C161	C16	0.419200	0.733100	0.668700
C171	C17	0.804600	0.097500	0.597100
C181	C18	0.721500	0.190100	0.567700
C191	C19	0.614200	0.236300	0.594700
C201	C20	0.540200	0.323000	0.566200
C211	C21	0.572800	0.359100	0.509700
C221	C22	0.679200	0.311800	0.482200
C231	C23	0.753600	0.228900	0.511700
C241	C24	0.714200	0.346000	0.419800
C251	C25	0.608800	0.057300	0.764900
C261	C26	0.615300	0.157100	0.755700
C271	C27	0.711700	0.158200	0.754800
C281	C28	0.662800	0.613900	0.775300
C291	C29	0.784100	0.556000	0.759800
C301	C30	0.835700	0.449600	0.769400
C311	C31	0.947200	0.399100	0.759700
C321	C32	0.008400	0.453300	0.739500
C331	C33	0.957800	0.559600	0.727600
C341	C34	0.845900	0.609000	0.738000
C351	C35	0.020600	0.622700	0.705900
C361	C36	0.198900	0.648000	0.852000
C371	C37	0.084700	0.666800	0.878600
C381	C38	0.053100	0.653600	0.938000
C391	C39	0.945600	0.678000	0.962400
C401	C40	0.869800	0.714700	0.928700
C411	C41	0.900600	0.727600	0.869800
C421	C42	0.007900	0.703500	0.845100
C431	C43	0.821000	0.766900	0.831300
C441	C44	0.499200	0.402500	0.902900
C451	C45	0.479300	0.309900	0.932300
C461	C46	0.445200	0.263700	0.905300
C471	C47	0.429400	0.177000	0.933800
C481	C48	0.441600	0.140900	0.990300
C491	C49	0.473200	0.188200	0.017800
C501	C50	0.494200	0.271100	0.988300
C511	C51	0.480000	0.154000	0.080200
C521	C52	0.431000	0.442700	0.735100
C531	C53	0.528100	0.342900	0.744300
C541	C54	0.624700	0.341800	0.745200
C551	C55	0.948000	0.113900	0.275300
C561	C56	0.900100	0.056000	0.259800
C571	C57	0.945300	0.949600	0.269400
C581	C58	0.894000	0.899100	0.259700
C591	C59	0.798800	0.953300	0.239500
C601	C60	0.755000	0.059600	0.227600
C611	C61	0.807100	0.109000	0.238000
C621	C62	0.650800	0.122700	0.205900
C631	C63	0.301100	0.148000	0.352000
C641	C64	0.369900	0.166800	0.378600
C651	C65	0.355300	0.153600	0.438000
C661	C66	0.414000	0.178000	0.462400
C671	C67	0.486800	0.214700	0.428700
C681	C68	0.502000	0.227600	0.369800
C691	C69	0.443500	0.203500	0.345100
C701	C70	0.580800	0.266900	0.331300
C711	C71	0.195400	0.902500	0.402900
C721	C72	0.278500	0.809900	0.432300
C731	C73	0.385800	0.763700	0.405300
C741	C74	0.459800	0.677000	0.433800
C751	C75	0.427200	0.640900	0.490300
C761	C76	0.320800	0.688200	0.517800
C771	C77	0.246400	0.771100	0.488300
C781	C78	0.285800	0.654000	0.580200
C791	C79	0.391200	0.942700	0.235100
C801	C80	0.384700	0.842900	0.244300
C811	C81	0.288300	0.841800	0.245200
C821	C82	0.337200	0.386100	0.224700
C831	C83	0.215900	0.444000	0.240200
C841	C84	0.164300	0.550400	0.230600
C851	C85	0.052800	0.600900	0.240300
C861	C86	0.991600	0.546700	0.260500
C871	C87	0.042200	0.440400	0.272400
C881	C88	0.154100	0.391000	0.262000
C891	C89	0.979400	0.377300	0.294100
C901	C90	0.801100	0.352000	0.148000
C911	C91	0.915300	0.333200	0.121400
C921	C92	0.946900	0.346400	0.062000
C931	C93	0.054400	0.322000	0.037600
C941	C94	0.130200	0.285300	0.071300
C951	C95	0.099400	0.272400	0.130200
C961	C96	0.992100	0.296500	0.154900
C971	C97	0.179000	0.233100	0.168700
C981	C98	0.500800	0.597500	0.097100
C991	C99	0.520700	0.690100	0.067700
C1001	C100	0.554800	0.736300	0.094700
C1011	C101	0.570600	0.823000	0.066200
C1021	C102	0.558400	0.859100	0.009700
C1031	C103	0.526800	0.811800	0.982200
C1041	C104	0.505800	0.728900	0.011700
C1051	C105	0.520000	0.846000	0.919800
C1061	C106	0.569000	0.557300	0.264900
C1071	C107	0.471900	0.657100	0.255700
C1081	C108	0.375300	0.658200	0.254800
C1091	C109	0.715200	0.250000	0.750000
C1101	C110	0.523400	0.250000	0.750000
C1111	C111	0.284800	0.750000	0.250000
C1121	C112	0.476600	0.750000	0.250000
O11	O1	0.954530	0.933230	0.720710
O21	O2	0.112400	0.794590	0.717010
O31	O3	0.367100	0.788100	0.818900
O41	O4	0.411760	0.918290	0.785990
O51	O5	0.670700	0.864110	0.700890
O61	O6	0.784650	0.853670	0.618430
O71	O7	0.356880	0.723450	0.646990
O81	O8	0.418850	0.714630	0.721070
O91	O9	0.771470	0.048520	0.641740
O101	O10	0.901300	0.075000	0.575200
O111	O11	0.804160	0.286600	0.392680
O121	O12	0.653890	0.429340	0.394680
O131	O13	0.696340	0.973840	0.765480
O141	O14	0.519360	0.055650	0.773830
O151	O15	0.608470	0.566770	0.779290
O161	O16	0.624000	0.705410	0.782990
O171	O17	0.974100	0.711900	0.681100
O181	O18	0.116040	0.581710	0.714010
O191	O19	0.235700	0.635890	0.799110
O201	O20	0.256750	0.646330	0.881570
O211	O21	0.727320	0.776550	0.853010
O221	O22	0.854550	0.785370	0.778930
O231	O23	0.461730	0.451480	0.858260
O241	O24	0.551500	0.425000	0.924800
O251	O25	0.483440	0.213400	0.107320
O261	O26	0.477910	0.070660	0.105320
O271	O27	0.435660	0.526160	0.734520
O281	O28	0.348840	0.444350	0.726170
O291	O29	0.045470	0.066770	0.279290
O301	O30	0.887600	0.205410	0.282990
O311	O31	0.632900	0.211900	0.181100
O321	O32	0.588240	0.081710	0.214010
O331	O33	0.329300	0.135890	0.299110
O341	O34	0.215350	0.146330	0.381570
O351	O35	0.643120	0.276550	0.353010
O361	O36	0.581150	0.285370	0.278930
O371	O37	0.228530	0.951480	0.358260
O381	O38	0.098700	0.925000	0.424800
O391	O39	0.195840	0.713400	0.607320
O401	O40	0.346110	0.570660	0.605320
O411	O41	0.303660	0.026160	0.234520
O421	O42	0.480640	0.944350	0.226170
O431	O43	0.391530	0.433230	0.220710
O441	O44	0.376000	0.294590	0.217010
O451	O45	0.025900	0.288100	0.318900
O461	O46	0.883960	0.418290	0.285990
O471	O47	0.764300	0.364110	0.200890
O481	O48	0.743250	0.353670	0.118430
O491	O49	0.272680	0.223450	0.146990
O501	O50	0.145450	0.214630	0.221070
O511	O51	0.538270	0.548520	0.141740
O521	O52	0.448500	0.575000	0.075200
O531	O53	0.516560	0.786600	0.892680
O541	O54	0.522090	0.929340	0.894680
O551	O55	0.564340	0.473840	0.265480
O561	O56	0.651160	0.555650	0.273830
