data_JAJLEO_clean_PM
_symmetry_space_group_name_H-M	'P1'
_cell_length_a	10.559000
_cell_length_b	11.371000
_cell_length_c	11.671000
_cell_angle_alpha	104.700000
_cell_angle_beta	106.810000
_cell_angle_gamma	96.127000
_symmetry_Int_Tables_number 1

loop_
_symmetry_equiv_pos_as_xyz
'x,y,z'

loop_
_atom_site_label
_atom_site_type_symbol
_atom_site_fract_x
_atom_site_fract_y
_atom_site_fract_z
Dy11	Dy1	0.100580	0.560960	0.379310
O11	O1	0.255660	0.517200	0.280200
O21	O2	0.196220	0.482600	0.074230
O31	O3	0.946810	0.257180	0.691710
H11	H1	0.787100	0.135300	0.506600
O41	O4	0.822500	0.084000	0.545700
O51	O5	0.092890	0.709280	0.556900
O61	O6	0.961320	0.650640	0.659690
O71	O7	0.881950	0.541430	0.369670
O81	O8	0.738670	0.487560	0.461480
C11	C1	0.280030	0.520800	0.180980
C21	C2	0.423910	0.571620	0.197630
C31	C3	0.458500	0.647800	0.129900
C41	C4	0.594000	0.681200	0.144000
H21	H2	0.617900	0.731100	0.098700
C51	C5	0.694100	0.642600	0.223300
H31	H3	0.783600	0.664000	0.228800
C61	C6	0.660240	0.571660	0.294610
C71	C7	0.525800	0.537490	0.281450
H41	H4	0.503000	0.490600	0.329800
C81	C8	0.768170	0.530570	0.381290
C91	C9	0.360600	0.702800	0.050200
C101	C10	0.271500	0.767700	0.094400
H51	H5	0.263400	0.767600	0.171600
C111	C11	0.195100	0.832600	0.024700
H61	H6	0.138200	0.877800	0.056900
C121	C12	0.201800	0.831190	0.907290
C131	C13	0.285200	0.760500	0.860100
H71	H7	0.287000	0.754400	0.779600
C141	C14	0.365400	0.699200	0.931600
H81	H8	0.423300	0.655000	0.899900
C151	C15	0.127500	0.908950	0.837380
C161	C16	0.138600	0.034300	0.898400
H91	H9	0.191300	0.066700	0.982400
C171	C17	0.073900	0.111300	0.837600
H101	H10	0.083200	0.194500	0.880000
C181	C18	0.994800	0.063190	0.712600
C191	C19	0.985300	0.939830	0.649430
H111	H11	0.934300	0.908500	0.564800
C201	C20	0.050820	0.862670	0.710590
C211	C21	0.033710	0.728830	0.636530
C221	C22	0.920300	0.144600	0.649400
Dy21	Dy2	0.899420	0.439040	0.620690
O91	O9	0.744340	0.482800	0.719800
O101	O10	0.803780	0.517400	0.925770
O111	O11	0.053190	0.742820	0.308290
H121	H12	0.212900	0.864700	0.493400
O121	O12	0.177500	0.916000	0.454300
O131	O13	0.907110	0.290720	0.443100
O141	O14	0.038680	0.349360	0.340310
O151	O15	0.118050	0.458570	0.630330
O161	O16	0.261330	0.512440	0.538520
C231	C23	0.719970	0.479200	0.819020
C241	C24	0.576090	0.428380	0.802370
C251	C25	0.541500	0.352200	0.870100
C261	C26	0.406000	0.318800	0.856000
H131	H13	0.382100	0.268900	0.901300
C271	C27	0.305900	0.357400	0.776700
H141	H14	0.216400	0.336000	0.771200
C281	C28	0.339760	0.428340	0.705390
C291	C29	0.474200	0.462510	0.718550
H151	H15	0.497000	0.509400	0.670200
C301	C30	0.231830	0.469430	0.618710
C311	C31	0.639400	0.297200	0.949800
C321	C32	0.728500	0.232300	0.905600
H161	H16	0.736600	0.232400	0.828400
C331	C33	0.804900	0.167400	0.975300
H171	H17	0.861800	0.122200	0.943100
C341	C34	0.798200	0.168810	0.092710
C351	C35	0.714800	0.239500	0.139900
H181	H18	0.713000	0.245600	0.220400
C361	C36	0.634600	0.300800	0.068400
H191	H19	0.576700	0.345000	0.100100
C371	C37	0.872500	0.091050	0.162620
C381	C38	0.861400	0.965700	0.101600
H201	H20	0.808700	0.933300	0.017600
C391	C39	0.926100	0.888700	0.162400
H211	H21	0.916800	0.805500	0.120000
C401	C40	0.005200	0.936810	0.287400
C411	C41	0.014700	0.060170	0.350570
H221	H22	0.065700	0.091500	0.435200
C421	C42	0.949180	0.137330	0.289410
C431	C43	0.966290	0.271170	0.363470
C441	C44	0.079700	0.855400	0.350600
