data_JAKBUV_clean_PM
_symmetry_space_group_name_H-M	'P1'
_cell_length_a	10.098000
_cell_length_b	12.156000
_cell_length_c	17.119000
_cell_angle_alpha	90.000000
_cell_angle_beta	96.320000
_cell_angle_gamma	90.000000
_symmetry_Int_Tables_number 1

loop_
_symmetry_equiv_pos_as_xyz
'x,y,z'

loop_
_atom_site_label
_atom_site_type_symbol
_atom_site_fract_x
_atom_site_fract_y
_atom_site_fract_z
Mn11	Mn1	0.731100	0.774550	0.212300
C11	C1	0.652600	0.037300	0.192860
C21	C2	0.822600	0.513100	0.250890
C31	C3	0.962500	0.369600	0.279100
C41	C4	0.758600	0.838600	0.403310
N11	N1	0.673600	0.946400	0.184710
N21	N2	0.791500	0.601900	0.239280
C51	C5	0.550000	0.185800	0.236580
N31	N3	0.637300	0.143300	0.195200
N41	N4	0.843400	0.409100	0.264200
N51	N5	0.757100	0.816100	0.339470
N61	N6	0.767000	0.875700	0.474310
N71	N7	0.059200	0.324100	0.293900
N81	N8	0.478600	0.231100	0.272600
C61	C6	0.731800	0.816600	0.531670
N91	N9	0.705300	0.774700	0.586700
Mn21	Mn2	0.268900	0.274550	0.287700
C71	C7	0.347400	0.537300	0.307140
C81	C8	0.177400	0.013100	0.249110
C91	C9	0.037500	0.869600	0.220900
C101	C10	0.241400	0.338600	0.096690
N101	N10	0.326400	0.446400	0.315290
N111	N11	0.208500	0.101900	0.260720
C111	C11	0.450000	0.685800	0.263420
N121	N12	0.362700	0.643300	0.304800
N131	N13	0.156600	0.909100	0.235800
N141	N14	0.242900	0.316100	0.160530
N151	N15	0.233000	0.375700	0.025690
N161	N16	0.940800	0.824100	0.206100
N171	N17	0.521400	0.731100	0.227400
C121	C12	0.268200	0.316600	0.968330
N181	N18	0.294700	0.274700	0.913300
Mn31	Mn3	0.268900	0.225450	0.787700
C131	C13	0.347400	0.962700	0.807140
C141	C14	0.177400	0.486900	0.749110
C151	C15	0.037500	0.630400	0.720900
C161	C16	0.241400	0.161400	0.596690
N191	N19	0.326400	0.053600	0.815290
N201	N20	0.208500	0.398100	0.760720
C171	C17	0.450000	0.814200	0.763420
N211	N21	0.362700	0.856700	0.804800
N221	N22	0.156600	0.590900	0.735800
N231	N23	0.242900	0.183900	0.660530
N241	N24	0.233000	0.124300	0.525690
N251	N25	0.940800	0.675900	0.706100
N261	N26	0.521400	0.768900	0.727400
C181	C18	0.268200	0.183400	0.468330
N271	N27	0.294700	0.225300	0.413300
Mn41	Mn4	0.731100	0.725450	0.712300
C191	C19	0.652600	0.462700	0.692860
C201	C20	0.822600	0.986900	0.750890
C211	C21	0.962500	0.130400	0.779100
C221	C22	0.758600	0.661400	0.903310
N281	N28	0.673600	0.553600	0.684710
N291	N29	0.791500	0.898100	0.739280
C231	C23	0.550000	0.314200	0.736580
N301	N30	0.637300	0.356700	0.695200
N311	N31	0.843400	0.090900	0.764200
N321	N32	0.757100	0.683900	0.839470
N331	N33	0.767000	0.624300	0.974310
N341	N34	0.059200	0.175900	0.793900
N351	N35	0.478600	0.268900	0.772600
C241	C24	0.731800	0.683400	0.031670
N361	N36	0.705300	0.725300	0.086700
