data_JAKPET_clean_PM
_symmetry_space_group_name_H-M	'P1'
_cell_length_a	17.472200
_cell_length_b	17.472200
_cell_length_c	14.450800
_cell_angle_alpha	90.000000
_cell_angle_beta	90.000000
_cell_angle_gamma	90.000000
_symmetry_Int_Tables_number 1

loop_
_symmetry_equiv_pos_as_xyz
'x,y,z'

loop_
_atom_site_label
_atom_site_type_symbol
_atom_site_fract_x
_atom_site_fract_y
_atom_site_fract_z
Pb11	Pb1	0.033760	0.876440	0.397100
Pb21	Pb2	0.596360	0.587660	0.257930
O11	O1	0.092400	0.989400	0.416900
O21	O2	0.123400	0.087500	0.506000
O31	O3	0.959500	0.060700	0.117800
O41	O4	0.024500	0.143800	0.033100
O51	O5	0.161600	0.301600	0.283600
O61	O6	0.941200	0.794900	0.337300
O71	O7	0.044300	0.737500	0.386800
O81	O8	0.712600	0.652900	0.253500
O91	O9	0.716100	0.530800	0.222600
O101	O10	0.985400	0.454500	0.341900
O111	O11	0.634900	0.546200	0.395400
O121	O12	0.533500	0.561700	0.483900
O131	O13	0.529300	0.405200	0.778900
O141	O14	0.632800	0.423000	0.862900
O151	O15	0.834700	0.439300	0.598900
N11	N1	0.198700	0.325900	0.041500
N21	N2	0.935600	0.368400	0.183300
N31	N3	0.975000	0.296400	0.611800
C11	C1	0.098000	0.112700	0.346700
C21	C2	0.058900	0.088100	0.269300
H11	H1	0.036200	0.040000	0.268200
C31	C3	0.053800	0.136300	0.192900
C41	C4	0.090200	0.208500	0.194700
H21	H2	0.089500	0.239600	0.142500
C51	C5	0.126800	0.232700	0.273800
C61	C6	0.131400	0.184300	0.350300
H31	H3	0.156800	0.200200	0.403500
C71	C7	0.103800	0.058700	0.428600
C81	C8	0.010300	0.112300	0.108900
C91	C9	0.164100	0.353700	0.207100
H41	H4	0.177100	0.404300	0.229700
H51	H5	0.113800	0.356500	0.179000
C101	C10	0.220400	0.330600	0.136300
C111	C11	0.297900	0.315700	0.153700
H61	H6	0.316600	0.319000	0.213800
C121	C12	0.344700	0.296800	0.084900
H71	H7	0.394800	0.284900	0.101100
C131	C13	0.328200	0.293100	0.998800
H81	H8	0.364200	0.280800	0.953800
C141	C14	0.254300	0.308500	0.978100
H91	H9	0.240100	0.307200	0.916100
C151	C15	0.941500	0.658000	0.331600
C161	C16	0.868800	0.657700	0.295900
H101	H10	0.843600	0.703600	0.284300
C171	C17	0.833000	0.588200	0.277100
C181	C18	0.868500	0.520600	0.293500
H111	H11	0.842900	0.474700	0.283100
C191	C19	0.943400	0.520300	0.326000
C201	C20	0.979900	0.588600	0.347400
H121	H12	0.029100	0.588400	0.372000
C211	C21	0.979500	0.732400	0.352400
C221	C22	0.750100	0.590800	0.246600
C231	C23	0.946000	0.383800	0.358400
H131	H13	0.899200	0.394700	0.392100
H141	H14	0.977800	0.351800	0.397600
C241	C24	0.926000	0.339800	0.272600
C251	C25	0.896200	0.266400	0.280400
H151	H15	0.889000	0.244400	0.338400
C261	C26	0.877500	0.226600	0.201900
H161	H16	0.857800	0.177500	0.208800
C271	C27	0.885600	0.253100	0.118600
H171	H17	0.872300	0.224300	0.066900
C281	C28	0.913200	0.321700	0.111100
H181	H18	0.918400	0.341200	0.051600
C291	C29	0.642000	0.502200	0.549200
C301	C30	0.602500	0.479100	0.630000
H191	H19	0.549900	0.486700	0.634200
C311	C31	0.640900	0.445700	0.702000
C321	C32	0.720700	0.431900	0.696500
H201	H20	0.747200	0.410300	0.745800
C331	C33	0.758100	0.451700	0.615000
C341	C34	0.719300	0.486200	0.544100
H211	H21	0.745800	0.499200	0.490600
C351	C35	0.599900	0.539800	0.471600
C361	C36	0.598500	0.421800	0.787200
C371	C37	0.873300	0.386800	0.657300
H221	H22	0.844100	0.339800	0.662000
H231	H23	0.878500	0.408300	0.718900
C381	C38	0.949200	0.370700	0.618500
C391	C39	0.996800	0.427000	0.586700
H241	H24	0.982400	0.478200	0.587000
C401	C40	0.070400	0.402800	0.552900
H251	H25	0.103600	0.441400	0.534100
C411	C41	0.094100	0.337800	0.546200
H261	H26	0.142100	0.327000	0.521500
C421	C42	0.049000	0.284300	0.575300
H271	H27	0.066600	0.234100	0.571900
Pb31	Pb3	0.966240	0.123560	0.897100
Pb41	Pb4	0.403650	0.412340	0.757930
O161	O16	0.907600	0.010600	0.916900
O171	O17	0.876600	0.912500	0.006000
O181	O18	0.040500	0.939300	0.617800
O191	O19	0.975500	0.856200	0.533100
O201	O20	0.838400	0.698400	0.783600
O211	O21	0.058800	0.205100	0.837300
O221	O22	0.955700	0.262500	0.886800
O231	O23	0.287400	0.347100	0.753500
O241	O24	0.283900	0.469200	0.722600
O251	O25	0.014600	0.545500	0.841900
O261	O26	0.365100	0.453800	0.895400
O271	O27	0.466500	0.438300	0.983900
O281	O28	0.470700	0.594800	0.278900
O291	O29	0.367200	0.577000	0.362900
O301	O30	0.165300	0.560700	0.098900
N41	N4	0.801300	0.674100	0.541500
N51	N5	0.064400	0.631600	0.683300
N61	N6	0.025000	0.703600	0.111800
C431	C43	0.902000	0.887300	0.846700
C441	C44	0.941100	0.911900	0.769300
H281	H28	0.963800	0.960000	0.768200
C451	C45	0.946200	0.863700	0.692900
C461	C46	0.909800	0.791500	0.694700
H291	H29	0.910500	0.760400	0.642500
C471	C47	0.873200	0.767300	0.773800
C481	C48	0.868600	0.815700	0.850300
H301	H30	0.843200	0.799800	0.903500
C491	C49	0.896200	0.941300	0.928600
C501	C50	0.989700	0.887700	0.608900
C511	C51	0.835900	0.646300	0.707100
H311	H31	0.822900	0.595700	0.729700
H321	H32	0.886200	0.643500	0.679000
C521	C52	0.779600	0.669400	0.636300
C531	C53	0.702100	0.684300	0.653700
H331	H33	0.683400	0.681000	0.713800
C541	C54	0.655300	0.703200	0.584900
H341	H34	0.605200	0.715100	0.601100
C551	C55	0.671800	0.706900	0.498800
H351	H35	0.635800	0.719200	0.453800
C561	C56	0.745700	0.691500	0.478100
H361	H36	0.759900	0.692800	0.416100
C571	C57	0.058500	0.342000	0.831600
C581	C58	0.131200	0.342300	0.795900
H371	H37	0.156400	0.296400	0.784300
C591	C59	0.167000	0.411800	0.777100
C601	C60	0.131500	0.479400	0.793500
H381	H38	0.157100	0.525300	0.783100
C611	C61	0.056600	0.479700	0.826000
C621	C62	0.020100	0.411400	0.847400
H391	H39	0.970900	0.411600	0.872000
C631	C63	0.020500	0.267600	0.852400
C641	C64	0.249900	0.409200	0.746600
C651	C65	0.054000	0.616200	0.858400
H401	H40	0.100800	0.605300	0.892100
H411	H41	0.022200	0.648200	0.897600
C661	C66	0.074000	0.660200	0.772600
C671	C67	0.103800	0.733600	0.780400
H421	H42	0.111000	0.755600	0.838400
C681	C68	0.122500	0.773400	0.701900
H431	H43	0.142200	0.822500	0.708800
C691	C69	0.114400	0.746900	0.618600
H441	H44	0.127700	0.775700	0.566900
C701	C70	0.086800	0.678300	0.611100
H451	H45	0.081600	0.658800	0.551600
C711	C71	0.358000	0.497800	0.049200
C721	C72	0.397500	0.520900	0.130000
H461	H46	0.450100	0.513300	0.134200
C731	C73	0.359100	0.554300	0.202000
C741	C74	0.279300	0.568100	0.196500
H471	H47	0.252800	0.589700	0.245800
C751	C75	0.241900	0.548300	0.115000
C761	C76	0.280700	0.513800	0.044100
H481	H48	0.254200	0.500800	0.990600
C771	C77	0.400100	0.460200	0.971600
C781	C78	0.401500	0.578200	0.287200
C791	C79	0.126700	0.613200	0.157300
H491	H49	0.155900	0.660200	0.162000
H501	H50	0.121500	0.591700	0.218900
C801	C80	0.050800	0.629300	0.118500
C811	C81	0.003200	0.573000	0.086700
H511	H51	0.017600	0.521800	0.087000
C821	C82	0.929600	0.597200	0.052900
H521	H52	0.896400	0.558600	0.034100
C831	C83	0.905900	0.662200	0.046200
H531	H53	0.857900	0.673000	0.021500
C841	C84	0.951000	0.715700	0.075300
H541	H54	0.933400	0.765900	0.071900
Pb51	Pb5	0.123560	0.033760	0.647100
Pb61	Pb6	0.412340	0.596360	0.507930
O311	O31	0.010600	0.092400	0.666900
O321	O32	0.912500	0.123400	0.756000
O331	O33	0.939300	0.959500	0.367800
O341	O34	0.856200	0.024500	0.283100
O351	O35	0.698400	0.161600	0.533600
O361	O36	0.205100	0.941200	0.587300
O371	O37	0.262500	0.044300	0.636800
O381	O38	0.347100	0.712600	0.503500
O391	O39	0.469200	0.716100	0.472600
O401	O40	0.545500	0.985400	0.591900
O411	O41	0.453800	0.634900	0.645400
O421	O42	0.438300	0.533500	0.733900
O431	O43	0.594800	0.529300	0.028900
O441	O44	0.577000	0.632800	0.112900
O451	O45	0.560700	0.834700	0.848900
N71	N7	0.674100	0.198700	0.291500
N81	N8	0.631600	0.935600	0.433300
N91	N9	0.703600	0.975000	0.861800
C851	C85	0.887300	0.098000	0.596700
C861	C86	0.911900	0.058900	0.519300
H551	H55	0.960000	0.036200	0.518200
C871	C87	0.863700	0.053800	0.442900
C881	C88	0.791500	0.090200	0.444700
H561	H56	0.760400	0.089500	0.392500
C891	C89	0.767300	0.126800	0.523800
C901	C90	0.815700	0.131400	0.600300
H571	H57	0.799800	0.156800	0.653500
C911	C91	0.941300	0.103800	0.678600
C921	C92	0.887700	0.010300	0.358900
C931	C93	0.646300	0.164100	0.457100
H581	H58	0.595700	0.177100	0.479700
H591	H59	0.643500	0.113800	0.429000
C941	C94	0.669400	0.220400	0.386300
C951	C95	0.684300	0.297900	0.403700
H601	H60	0.681000	0.316600	0.463800
C961	C96	0.703200	0.344700	0.334900
H611	H61	0.715100	0.394800	0.351100
C971	C97	0.706900	0.328200	0.248800
H621	H62	0.719200	0.364200	0.203800
C981	C98	0.691500	0.254300	0.228100
H631	H63	0.692800	0.240100	0.166100
C991	C99	0.342000	0.941500	0.581600
C1001	C100	0.342300	0.868800	0.545900
H641	H64	0.296400	0.843600	0.534300
C1011	C101	0.411800	0.833000	0.527100
C1021	C102	0.479400	0.868500	0.543500
H651	H65	0.525300	0.842900	0.533100
C1031	C103	0.479700	0.943400	0.576000
C1041	C104	0.411400	0.979900	0.597400
H661	H66	0.411600	0.029100	0.622000
C1051	C105	0.267600	0.979500	0.602400
C1061	C106	0.409200	0.750100	0.496600
C1071	C107	0.616200	0.946000	0.608400
H671	H67	0.605300	0.899200	0.642100
H681	H68	0.648200	0.977800	0.647600
C1081	C108	0.660200	0.926000	0.522600
C1091	C109	0.733600	0.896200	0.530400
H691	H69	0.755600	0.889000	0.588400
C1101	C110	0.773400	0.877500	0.451900
H701	H70	0.822500	0.857800	0.458800
C1111	C111	0.746900	0.885600	0.368600
H711	H71	0.775700	0.872300	0.316900
C1121	C112	0.678300	0.913200	0.361100
H721	H72	0.658800	0.918400	0.301600
C1131	C113	0.497800	0.642000	0.799200
C1141	C114	0.520900	0.602500	0.880000
H731	H73	0.513300	0.549900	0.884200
C1151	C115	0.554300	0.640900	0.952000
C1161	C116	0.568100	0.720700	0.946500
H741	H74	0.589700	0.747200	0.995800
C1171	C117	0.548300	0.758100	0.865000
C1181	C118	0.513800	0.719300	0.794100
H751	H75	0.500800	0.745800	0.740600
C1191	C119	0.460200	0.599900	0.721600
C1201	C120	0.578200	0.598500	0.037200
C1211	C121	0.613200	0.873300	0.907300
H761	H76	0.660200	0.844100	0.912000
H771	H77	0.591700	0.878500	0.968900
C1221	C122	0.629300	0.949200	0.868500
C1231	C123	0.573000	0.996800	0.836700
H781	H78	0.521800	0.982400	0.837000
C1241	C124	0.597200	0.070400	0.802900
H791	H79	0.558600	0.103600	0.784100
C1251	C125	0.662200	0.094100	0.796200
H801	H80	0.673000	0.142100	0.771500
C1261	C126	0.715700	0.049000	0.825300
H811	H81	0.765900	0.066600	0.821900
Pb71	Pb7	0.876440	0.966240	0.147100
Pb81	Pb8	0.587660	0.403650	0.007930
O461	O46	0.989400	0.907600	0.166900
O471	O47	0.087500	0.876600	0.256000
O481	O48	0.060700	0.040500	0.867800
O491	O49	0.143800	0.975500	0.783100
O501	O50	0.301600	0.838400	0.033600
O511	O51	0.794900	0.058800	0.087300
O521	O52	0.737500	0.955700	0.136800
O531	O53	0.652900	0.287400	0.003500
O541	O54	0.530800	0.283900	0.972600
O551	O55	0.454500	0.014600	0.091900
O561	O56	0.546200	0.365100	0.145400
O571	O57	0.561700	0.466500	0.233900
O581	O58	0.405200	0.470700	0.528900
O591	O59	0.423000	0.367200	0.612900
O601	O60	0.439300	0.165300	0.348900
N101	N10	0.325900	0.801300	0.791500
N111	N11	0.368400	0.064400	0.933300
N121	N12	0.296400	0.025000	0.361800
C1271	C127	0.112700	0.902000	0.096700
C1281	C128	0.088100	0.941100	0.019300
H821	H82	0.040000	0.963800	0.018200
C1291	C129	0.136300	0.946200	0.942900
C1301	C130	0.208500	0.909800	0.944700
H831	H83	0.239600	0.910500	0.892500
C1311	C131	0.232700	0.873200	0.023800
C1321	C132	0.184300	0.868600	0.100300
H841	H84	0.200200	0.843200	0.153500
C1331	C133	0.058700	0.896200	0.178600
C1341	C134	0.112300	0.989700	0.858900
C1351	C135	0.353700	0.835900	0.957100
H851	H85	0.404300	0.822900	0.979700
H861	H86	0.356500	0.886200	0.929000
C1361	C136	0.330600	0.779600	0.886300
C1371	C137	0.315700	0.702100	0.903700
H871	H87	0.319000	0.683400	0.963800
C1381	C138	0.296800	0.655300	0.834900
H881	H88	0.284900	0.605200	0.851100
C1391	C139	0.293100	0.671800	0.748800
H891	H89	0.280800	0.635800	0.703800
C1401	C140	0.308500	0.745700	0.728100
H901	H90	0.307200	0.759900	0.666100
C1411	C141	0.658000	0.058500	0.081600
C1421	C142	0.657700	0.131200	0.045900
H911	H91	0.703600	0.156400	0.034300
C1431	C143	0.588200	0.167000	0.027100
C1441	C144	0.520600	0.131500	0.043500
H921	H92	0.474700	0.157100	0.033100
C1451	C145	0.520300	0.056600	0.076000
C1461	C146	0.588600	0.020100	0.097400
H931	H93	0.588400	0.970900	0.122000
C1471	C147	0.732400	0.020500	0.102400
C1481	C148	0.590800	0.249900	0.996600
C1491	C149	0.383800	0.054000	0.108400
H941	H94	0.394700	0.100800	0.142100
H951	H95	0.351800	0.022200	0.147600
C1501	C150	0.339800	0.074000	0.022600
C1511	C151	0.266400	0.103800	0.030400
H961	H96	0.244400	0.111000	0.088400
C1521	C152	0.226600	0.122500	0.951900
H971	H97	0.177500	0.142200	0.958800
C1531	C153	0.253100	0.114400	0.868600
H981	H98	0.224300	0.127700	0.816900
C1541	C154	0.321700	0.086800	0.861100
H991	H99	0.341200	0.081600	0.801600
C1551	C155	0.502200	0.358000	0.299200
C1561	C156	0.479100	0.397500	0.380000
H1001	H100	0.486700	0.450100	0.384200
C1571	C157	0.445700	0.359100	0.452000
C1581	C158	0.431900	0.279300	0.446500
H1011	H101	0.410300	0.252800	0.495800
C1591	C159	0.451700	0.241900	0.365000
C1601	C160	0.486200	0.280700	0.294100
H1021	H102	0.499200	0.254200	0.240600
C1611	C161	0.539800	0.400100	0.221600
C1621	C162	0.421800	0.401500	0.537200
C1631	C163	0.386800	0.126700	0.407300
H1031	H103	0.339800	0.155900	0.412000
H1041	H104	0.408300	0.121500	0.468900
C1641	C164	0.370700	0.050800	0.368500
C1651	C165	0.427000	0.003200	0.336700
H1051	H105	0.478200	0.017600	0.337000
C1661	C166	0.402800	0.929600	0.302900
H1061	H106	0.441400	0.896400	0.284100
C1671	C167	0.337800	0.905900	0.296200
H1071	H107	0.327000	0.857900	0.271500
C1681	C168	0.284300	0.951000	0.325300
H1081	H108	0.234100	0.933400	0.321900
