data_JALCAD_clean_PM
_symmetry_space_group_name_H-M	'P1'
_cell_length_a	21.493400
_cell_length_b	21.493400
_cell_length_c	21.493400
_cell_angle_alpha	90.000000
_cell_angle_beta	90.000000
_cell_angle_gamma	90.000000
_symmetry_Int_Tables_number 1

loop_
_symmetry_equiv_pos_as_xyz
'x,y,z'

loop_
_atom_site_label
_atom_site_type_symbol
_atom_site_fract_x
_atom_site_fract_y
_atom_site_fract_z
Al11	Al1	0.260720	0.198520	0.319230
C11	C1	0.456700	0.214350	0.330070
C21	C2	0.510890	0.218890	0.294350
H11	H1	0.508900	0.230100	0.251600
C31	C3	0.568370	0.206530	0.322990
C41	C4	0.570520	0.195200	0.385390
H21	H2	0.609600	0.188700	0.405000
C51	C5	0.516820	0.193000	0.420290
C61	C6	0.459090	0.202300	0.391720
H31	H3	0.421900	0.200300	0.415500
C71	C7	0.393460	0.223410	0.300890
C81	C8	0.628130	0.207190	0.288090
N11	N1	0.524000	0.191200	0.485860
O11	O1	0.348300	0.199780	0.330580
O21	O2	0.389450	0.252970	0.251280
O31	O3	0.673230	0.181200	0.314130
O41	O4	0.629610	0.233200	0.236040
Al21	Al2	0.739280	0.801480	0.319230
C91	C9	0.543300	0.785650	0.330070
C101	C10	0.489110	0.781110	0.294350
H41	H4	0.491100	0.769900	0.251600
C111	C11	0.431630	0.793470	0.322990
C121	C12	0.429480	0.804800	0.385390
H51	H5	0.390400	0.811300	0.405000
C131	C13	0.483180	0.807000	0.420290
C141	C14	0.540910	0.797700	0.391720
H61	H6	0.578100	0.799700	0.415500
C151	C15	0.606540	0.776590	0.300890
C161	C16	0.371870	0.792810	0.288090
N21	N2	0.476000	0.808800	0.485860
O51	O5	0.651700	0.800220	0.330580
O61	O6	0.610550	0.747030	0.251280
O71	O7	0.326770	0.818800	0.314130
O81	O8	0.370390	0.766800	0.236040
Al31	Al3	0.739280	0.198520	0.680770
C171	C17	0.543300	0.214350	0.669930
C181	C18	0.489110	0.218890	0.705650
H71	H7	0.491100	0.230100	0.748400
C191	C19	0.431630	0.206530	0.677010
C201	C20	0.429480	0.195200	0.614610
H81	H8	0.390400	0.188700	0.595000
C211	C21	0.483180	0.193000	0.579710
C221	C22	0.540910	0.202300	0.608280
H91	H9	0.578100	0.200300	0.584500
C231	C23	0.606540	0.223410	0.699110
C241	C24	0.371870	0.207190	0.711910
N31	N3	0.476000	0.191200	0.514140
O91	O9	0.651700	0.199780	0.669420
O101	O10	0.610550	0.252970	0.748720
O111	O11	0.326770	0.181200	0.685870
O121	O12	0.370390	0.233200	0.763960
Al41	Al4	0.260720	0.801480	0.680770
C251	C25	0.456700	0.785650	0.669930
C261	C26	0.510890	0.781110	0.705650
H101	H10	0.508900	0.769900	0.748400
C271	C27	0.568370	0.793470	0.677010
C281	C28	0.570520	0.804800	0.614610
H111	H11	0.609600	0.811300	0.595000
C291	C29	0.516820	0.807000	0.579710
C301	C30	0.459090	0.797700	0.608280
H121	H12	0.421900	0.799700	0.584500
C311	C31	0.393460	0.776590	0.699110
C321	C32	0.628130	0.792810	0.711910
N41	N4	0.524000	0.808800	0.514140
O131	O13	0.348300	0.800220	0.669420
O141	O14	0.389450	0.747030	0.748720
O151	O15	0.673230	0.818800	0.685870
O161	O16	0.629610	0.766800	0.763960
Al51	Al5	0.319230	0.260720	0.198520
C331	C33	0.330070	0.456700	0.214350
C341	C34	0.294350	0.510890	0.218890
H131	H13	0.251600	0.508900	0.230100
C351	C35	0.322990	0.568370	0.206530
C361	C36	0.385390	0.570520	0.195200
H141	H14	0.405000	0.609600	0.188700
C371	C37	0.420290	0.516820	0.193000
C381	C38	0.391720	0.459090	0.202300
H151	H15	0.415500	0.421900	0.200300
C391	C39	0.300890	0.393460	0.223410
C401	C40	0.288090	0.628130	0.207190
N51	N5	0.485860	0.524000	0.191200
O171	O17	0.330580	0.348300	0.199780
O181	O18	0.251280	0.389450	0.252970
O191	O19	0.314130	0.673230	0.181200
O201	O20	0.236040	0.629610	0.233200
Al61	Al6	0.319230	0.739280	0.801480
C411	C41	0.330070	0.543300	0.785650
C421	C42	0.294350	0.489110	0.781110
H161	H16	0.251600	0.491100	0.769900
C431	C43	0.322990	0.431630	0.793470
C441	C44	0.385390	0.429480	0.804800
H171	H17	0.405000	0.390400	0.811300
C451	C45	0.420290	0.483180	0.807000
C461	C46	0.391720	0.540910	0.797700
H181	H18	0.415500	0.578100	0.799700
C471	C47	0.300890	0.606540	0.776590
C481	C48	0.288090	0.371870	0.792810
N61	N6	0.485860	0.476000	0.808800
O211	O21	0.330580	0.651700	0.800220
O221	O22	0.251280	0.610550	0.747030
O231	O23	0.314130	0.326770	0.818800
O241	O24	0.236040	0.370390	0.766800
Al71	Al7	0.680770	0.739280	0.198520
C491	C49	0.669930	0.543300	0.214350
C501	C50	0.705650	0.489110	0.218890
H191	H19	0.748400	0.491100	0.230100
C511	C51	0.677010	0.431630	0.206530
C521	C52	0.614610	0.429480	0.195200
H201	H20	0.595000	0.390400	0.188700
C531	C53	0.579710	0.483180	0.193000
C541	C54	0.608280	0.540910	0.202300
H211	H21	0.584500	0.578100	0.200300
C551	C55	0.699110	0.606540	0.223410
C561	C56	0.711910	0.371870	0.207190
N71	N7	0.514140	0.476000	0.191200
O251	O25	0.669420	0.651700	0.199780
O261	O26	0.748720	0.610550	0.252970
O271	O27	0.685870	0.326770	0.181200
O281	O28	0.763960	0.370390	0.233200
Al81	Al8	0.680770	0.260720	0.801480
C571	C57	0.669930	0.456700	0.785650
C581	C58	0.705650	0.510890	0.781110
H221	H22	0.748400	0.508900	0.769900
C591	C59	0.677010	0.568370	0.793470
C601	C60	0.614610	0.570520	0.804800
H231	H23	0.595000	0.609600	0.811300
C611	C61	0.579710	0.516820	0.807000
C621	C62	0.608280	0.459090	0.797700
H241	H24	0.584500	0.421900	0.799700
C631	C63	0.699110	0.393460	0.776590
C641	C64	0.711910	0.628130	0.792810
N81	N8	0.514140	0.524000	0.808800
O291	O29	0.669420	0.348300	0.800220
O301	O30	0.748720	0.389450	0.747030
O311	O31	0.685870	0.673230	0.818800
O321	O32	0.763960	0.629610	0.766800
Al91	Al9	0.198520	0.319230	0.260720
C651	C65	0.214350	0.330070	0.456700
C661	C66	0.218890	0.294350	0.510890
H251	H25	0.230100	0.251600	0.508900
C671	C67	0.206530	0.322990	0.568370
C681	C68	0.195200	0.385390	0.570520
H261	H26	0.188700	0.405000	0.609600
C691	C69	0.193000	0.420290	0.516820
C701	C70	0.202300	0.391720	0.459090
H271	H27	0.200300	0.415500	0.421900
C711	C71	0.223410	0.300890	0.393460
C721	C72	0.207190	0.288090	0.628130
N91	N9	0.191200	0.485860	0.524000
O331	O33	0.199780	0.330580	0.348300
O341	O34	0.252970	0.251280	0.389450
O351	O35	0.181200	0.314130	0.673230
O361	O36	0.233200	0.236040	0.629610
Al101	Al10	0.801480	0.319230	0.739280
C731	C73	0.785650	0.330070	0.543300
C741	C74	0.781110	0.294350	0.489110
H281	H28	0.769900	0.251600	0.491100
C751	C75	0.793470	0.322990	0.431630
C761	C76	0.804800	0.385390	0.429480
H291	H29	0.811300	0.405000	0.390400
C771	C77	0.807000	0.420290	0.483180
C781	C78	0.797700	0.391720	0.540910
H301	H30	0.799700	0.415500	0.578100
C791	C79	0.776590	0.300890	0.606540
C801	C80	0.792810	0.288090	0.371870
N101	N10	0.808800	0.485860	0.476000
O371	O37	0.800220	0.330580	0.651700
O381	O38	0.747030	0.251280	0.610550
O391	O39	0.818800	0.314130	0.326770
O401	O40	0.766800	0.236040	0.370390
Al111	Al11	0.198520	0.680770	0.739280
C811	C81	0.214350	0.669930	0.543300
C821	C82	0.218890	0.705650	0.489110
H311	H31	0.230100	0.748400	0.491100
C831	C83	0.206530	0.677010	0.431630
C841	C84	0.195200	0.614610	0.429480
H321	H32	0.188700	0.595000	0.390400
C851	C85	0.193000	0.579710	0.483180
C861	C86	0.202300	0.608280	0.540910
H331	H33	0.200300	0.584500	0.578100
C871	C87	0.223410	0.699110	0.606540
C881	C88	0.207190	0.711910	0.371870
N111	N11	0.191200	0.514140	0.476000
O411	O41	0.199780	0.669420	0.651700
O421	O42	0.252970	0.748720	0.610550
O431	O43	0.181200	0.685870	0.326770
O441	O44	0.233200	0.763960	0.370390
Al121	Al12	0.801480	0.680770	0.260720
C891	C89	0.785650	0.669930	0.456700
C901	C90	0.781110	0.705650	0.510890
H341	H34	0.769900	0.748400	0.508900
C911	C91	0.793470	0.677010	0.568370
C921	C92	0.804800	0.614610	0.570520
H351	H35	0.811300	0.595000	0.609600
C931	C93	0.807000	0.579710	0.516820
C941	C94	0.797700	0.608280	0.459090
H361	H36	0.799700	0.584500	0.421900
C951	C95	0.776590	0.699110	0.393460
C961	C96	0.792810	0.711910	0.628130
N121	N12	0.808800	0.514140	0.524000
O451	O45	0.800220	0.669420	0.348300
O461	O46	0.747030	0.748720	0.389450
O471	O47	0.818800	0.685870	0.673230
O481	O48	0.766800	0.763960	0.629610
Al131	Al13	0.698520	0.760720	0.819230
C971	C97	0.714350	0.956700	0.830070
C981	C98	0.718890	0.010890	0.794350
H371	H37	0.730100	0.008900	0.751600
C991	C99	0.706530	0.068370	0.822990
C1001	C100	0.695200	0.070520	0.885390
H381	H38	0.688700	0.109600	0.905000
C1011	C101	0.693000	0.016820	0.920290
C1021	C102	0.702300	0.959090	0.891720
H391	H39	0.700300	0.921900	0.915500
C1031	C103	0.723410	0.893460	0.800890
C1041	C104	0.707190	0.128130	0.788090
N131	N13	0.691200	0.024000	0.985860
O491	O49	0.699780	0.848300	0.830580
O501	O50	0.752970	0.889450	0.751280
O511	O51	0.681200	0.173230	0.814130
O521	O52	0.733200	0.129610	0.736040
Al141	Al14	0.301480	0.239280	0.819230
C1051	C105	0.285650	0.043300	0.830070
C1061	C106	0.281110	0.989110	0.794350
H401	H40	0.269900	0.991100	0.751600
C1071	C107	0.293470	0.931630	0.822990
C1081	C108	0.304800	0.929480	0.885390
H411	H41	0.311300	0.890400	0.905000
C1091	C109	0.307000	0.983180	0.920290
C1101	C110	0.297700	0.040910	0.891720
H421	H42	0.299700	0.078100	0.915500
C1111	C111	0.276590	0.106540	0.800890
C1121	C112	0.292810	0.871870	0.788090
N141	N14	0.308800	0.976000	0.985860
O531	O53	0.300220	0.151700	0.830580
O541	O54	0.247030	0.110550	0.751280
O551	O55	0.318800	0.826770	0.814130
O561	O56	0.266800	0.870390	0.736040
Al151	Al15	0.698520	0.239280	0.180770
C1131	C113	0.714350	0.043300	0.169930
C1141	C114	0.718890	0.989110	0.205650
H431	H43	0.730100	0.991100	0.248400
C1151	C115	0.706530	0.931630	0.177010
C1161	C116	0.695200	0.929480	0.114610
H441	H44	0.688700	0.890400	0.095000
C1171	C117	0.693000	0.983180	0.079710
C1181	C118	0.702300	0.040910	0.108280
H451	H45	0.700300	0.078100	0.084500
C1191	C119	0.723410	0.106540	0.199110
C1201	C120	0.707190	0.871870	0.211910
N151	N15	0.691200	0.976000	0.014140
O571	O57	0.699780	0.151700	0.169420
O581	O58	0.752970	0.110550	0.248720
O591	O59	0.681200	0.826770	0.185870
O601	O60	0.733200	0.870390	0.263960
Al161	Al16	0.301480	0.760720	0.180770
C1211	C121	0.285650	0.956700	0.169930
C1221	C122	0.281110	0.010890	0.205650
H461	H46	0.269900	0.008900	0.248400
C1231	C123	0.293470	0.068370	0.177010
C1241	C124	0.304800	0.070520	0.114610
H471	H47	0.311300	0.109600	0.095000
C1251	C125	0.307000	0.016820	0.079710
C1261	C126	0.297700	0.959090	0.108280
H481	H48	0.299700	0.921900	0.084500
C1271	C127	0.276590	0.893460	0.199110
C1281	C128	0.292810	0.128130	0.211910
N161	N16	0.308800	0.024000	0.014140
O611	O61	0.300220	0.848300	0.169420
O621	O62	0.247030	0.889450	0.248720
O631	O63	0.318800	0.173230	0.185870
O641	O64	0.266800	0.129610	0.263960
Al171	Al17	0.760720	0.819230	0.698520
C1291	C129	0.956700	0.830070	0.714350
C1301	C130	0.010890	0.794350	0.718890
H491	H49	0.008900	0.751600	0.730100
C1311	C131	0.068370	0.822990	0.706530
C1321	C132	0.070520	0.885390	0.695200
H501	H50	0.109600	0.905000	0.688700
C1331	C133	0.016820	0.920290	0.693000
C1341	C134	0.959090	0.891720	0.702300
H511	H51	0.921900	0.915500	0.700300
C1351	C135	0.893460	0.800890	0.723410
C1361	C136	0.128130	0.788090	0.707190
N171	N17	0.024000	0.985860	0.691200
O651	O65	0.848300	0.830580	0.699780
O661	O66	0.889450	0.751280	0.752970
O671	O67	0.173230	0.814130	0.681200
O681	O68	0.129610	0.736040	0.733200
Al181	Al18	0.239280	0.819230	0.301480
C1371	C137	0.043300	0.830070	0.285650
C1381	C138	0.989110	0.794350	0.281110
H521	H52	0.991100	0.751600	0.269900
C1391	C139	0.931630	0.822990	0.293470
C1401	C140	0.929480	0.885390	0.304800
H531	H53	0.890400	0.905000	0.311300
C1411	C141	0.983180	0.920290	0.307000
C1421	C142	0.040910	0.891720	0.297700
H541	H54	0.078100	0.915500	0.299700
C1431	C143	0.106540	0.800890	0.276590
C1441	C144	0.871870	0.788090	0.292810
N181	N18	0.976000	0.985860	0.308800
O691	O69	0.151700	0.830580	0.300220
O701	O70	0.110550	0.751280	0.247030
O711	O71	0.826770	0.814130	0.318800
O721	O72	0.870390	0.736040	0.266800
Al191	Al19	0.239280	0.180770	0.698520
C1451	C145	0.043300	0.169930	0.714350
C1461	C146	0.989110	0.205650	0.718890
H551	H55	0.991100	0.248400	0.730100
C1471	C147	0.931630	0.177010	0.706530
C1481	C148	0.929480	0.114610	0.695200
H561	H56	0.890400	0.095000	0.688700
C1491	C149	0.983180	0.079710	0.693000
C1501	C150	0.040910	0.108280	0.702300
H571	H57	0.078100	0.084500	0.700300
C1511	C151	0.106540	0.199110	0.723410
C1521	C152	0.871870	0.211910	0.707190
N191	N19	0.976000	0.014140	0.691200
O731	O73	0.151700	0.169420	0.699780
O741	O74	0.110550	0.248720	0.752970
O751	O75	0.826770	0.185870	0.681200
O761	O76	0.870390	0.263960	0.733200
Al201	Al20	0.760720	0.180770	0.301480
C1531	C153	0.956700	0.169930	0.285650
C1541	C154	0.010890	0.205650	0.281110
H581	H58	0.008900	0.248400	0.269900
C1551	C155	0.068370	0.177010	0.293470
C1561	C156	0.070520	0.114610	0.304800
H591	H59	0.109600	0.095000	0.311300
C1571	C157	0.016820	0.079710	0.307000
C1581	C158	0.959090	0.108280	0.297700
H601	H60	0.921900	0.084500	0.299700
C1591	C159	0.893460	0.199110	0.276590
C1601	C160	0.128130	0.211910	0.292810
N201	N20	0.024000	0.014140	0.308800
O771	O77	0.848300	0.169420	0.300220
O781	O78	0.889450	0.248720	0.247030
O791	O79	0.173230	0.185870	0.318800
O801	O80	0.129610	0.263960	0.266800
Al211	Al21	0.819230	0.698520	0.760720
C1611	C161	0.830070	0.714350	0.956700
C1621	C162	0.794350	0.718890	0.010890
H611	H61	0.751600	0.730100	0.008900
C1631	C163	0.822990	0.706530	0.068370
C1641	C164	0.885390	0.695200	0.070520
H621	H62	0.905000	0.688700	0.109600
C1651	C165	0.920290	0.693000	0.016820
C1661	C166	0.891720	0.702300	0.959090
H631	H63	0.915500	0.700300	0.921900
C1671	C167	0.800890	0.723410	0.893460
C1681	C168	0.788090	0.707190	0.128130
N211	N21	0.985860	0.691200	0.024000
O811	O81	0.830580	0.699780	0.848300
O821	O82	0.751280	0.752970	0.889450
O831	O83	0.814130	0.681200	0.173230
O841	O84	0.736040	0.733200	0.129610
Al221	Al22	0.819230	0.301480	0.239280
C1691	C169	0.830070	0.285650	0.043300
C1701	C170	0.794350	0.281110	0.989110
H641	H64	0.751600	0.269900	0.991100
C1711	C171	0.822990	0.293470	0.931630
C1721	C172	0.885390	0.304800	0.929480
H651	H65	0.905000	0.311300	0.890400
C1731	C173	0.920290	0.307000	0.983180
C1741	C174	0.891720	0.297700	0.040910
H661	H66	0.915500	0.299700	0.078100
C1751	C175	0.800890	0.276590	0.106540
C1761	C176	0.788090	0.292810	0.871870
N221	N22	0.985860	0.308800	0.976000
O851	O85	0.830580	0.300220	0.151700
O861	O86	0.751280	0.247030	0.110550
O871	O87	0.814130	0.318800	0.826770
O881	O88	0.736040	0.266800	0.870390
Al231	Al23	0.180770	0.698520	0.239280
C1771	C177	0.169930	0.714350	0.043300
C1781	C178	0.205650	0.718890	0.989110
H671	H67	0.248400	0.730100	0.991100
C1791	C179	0.177010	0.706530	0.931630
C1801	C180	0.114610	0.695200	0.929480
H681	H68	0.095000	0.688700	0.890400
C1811	C181	0.079710	0.693000	0.983180
C1821	C182	0.108280	0.702300	0.040910
H691	H69	0.084500	0.700300	0.078100
C1831	C183	0.199110	0.723410	0.106540
C1841	C184	0.211910	0.707190	0.871870
N231	N23	0.014140	0.691200	0.976000
O891	O89	0.169420	0.699780	0.151700
O901	O90	0.248720	0.752970	0.110550
O911	O91	0.185870	0.681200	0.826770
O921	O92	0.263960	0.733200	0.870390
Al241	Al24	0.180770	0.301480	0.760720
C1851	C185	0.169930	0.285650	0.956700
C1861	C186	0.205650	0.281110	0.010890
H701	H70	0.248400	0.269900	0.008900
C1871	C187	0.177010	0.293470	0.068370
C1881	C188	0.114610	0.304800	0.070520
H711	H71	0.095000	0.311300	0.109600
C1891	C189	0.079710	0.307000	0.016820
C1901	C190	0.108280	0.297700	0.959090
H721	H72	0.084500	0.299700	0.921900
C1911	C191	0.199110	0.276590	0.893460
C1921	C192	0.211910	0.292810	0.128130
N241	N24	0.014140	0.308800	0.024000
O931	O93	0.169420	0.300220	0.848300
O941	O94	0.248720	0.247030	0.889450
O951	O95	0.185870	0.318800	0.173230
O961	O96	0.263960	0.266800	0.129610
O971	O97	0.259380	0.259380	0.259380
O981	O98	0.740620	0.740620	0.259380
O991	O99	0.740620	0.259380	0.740620
O1001	O100	0.259380	0.740620	0.740620
O1011	O101	0.759380	0.759380	0.759380
O1021	O102	0.240620	0.240620	0.759380
O1031	O103	0.759380	0.240620	0.240620
O1041	O104	0.240620	0.759380	0.240620
