data_JALLOA_clean_PM
_symmetry_space_group_name_H-M	'P1'
_cell_length_a	36.451400
_cell_length_b	36.451400
_cell_length_c	36.451400
_cell_angle_alpha	90.000000
_cell_angle_beta	90.000000
_cell_angle_gamma	90.000000
_symmetry_Int_Tables_number 1

loop_
_symmetry_equiv_pos_as_xyz
'x,y,z'

loop_
_atom_site_label
_atom_site_type_symbol
_atom_site_fract_x
_atom_site_fract_y
_atom_site_fract_z
O11	O1	0.799590	0.256340	0.390180
O21	O2	0.799590	0.756340	0.890180
O31	O3	0.299590	0.256340	0.890180
O41	O4	0.299590	0.756340	0.390180
O51	O5	0.950410	0.993660	0.890180
O61	O6	0.950410	0.493660	0.390180
O71	O7	0.450410	0.993660	0.390180
O81	O8	0.450410	0.493660	0.890180
O91	O9	0.450410	0.756340	0.359820
O101	O10	0.450410	0.256340	0.859820
O111	O11	0.950410	0.756340	0.859820
O121	O12	0.950410	0.256340	0.359820
O131	O13	0.299590	0.493660	0.859820
O141	O14	0.299590	0.993660	0.359820
O151	O15	0.799590	0.493660	0.359820
O161	O16	0.799590	0.993660	0.859820
O171	O17	0.390180	0.799590	0.256340
O181	O18	0.390180	0.299590	0.756340
O191	O19	0.890180	0.799590	0.756340
O201	O20	0.890180	0.299590	0.256340
O211	O21	0.890180	0.950410	0.993660
O221	O22	0.890180	0.450410	0.493660
O231	O23	0.390180	0.950410	0.493660
O241	O24	0.390180	0.450410	0.993660
O251	O25	0.359820	0.450410	0.756340
O261	O26	0.359820	0.950410	0.256340
O271	O27	0.859820	0.450410	0.256340
O281	O28	0.859820	0.950410	0.756340
O291	O29	0.859820	0.299590	0.493660
O301	O30	0.859820	0.799590	0.993660
O311	O31	0.359820	0.299590	0.993660
O321	O32	0.359820	0.799590	0.493660
O331	O33	0.256340	0.390180	0.799590
O341	O34	0.256340	0.890180	0.299590
O351	O35	0.756340	0.390180	0.299590
O361	O36	0.756340	0.890180	0.799590
O371	O37	0.993660	0.890180	0.950410
O381	O38	0.993660	0.390180	0.450410
O391	O39	0.493660	0.890180	0.450410
O401	O40	0.493660	0.390180	0.950410
O411	O41	0.756340	0.359820	0.450410
O421	O42	0.756340	0.859820	0.950410
O431	O43	0.256340	0.359820	0.950410
O441	O44	0.256340	0.859820	0.450410
O451	O45	0.493660	0.859820	0.299590
O461	O46	0.493660	0.359820	0.799590
O471	O47	0.993660	0.859820	0.799590
O481	O48	0.993660	0.359820	0.299590
O491	O49	0.006340	0.049590	0.109820
O501	O50	0.006340	0.549590	0.609820
O511	O51	0.506340	0.049590	0.609820
O521	O52	0.506340	0.549590	0.109820
O531	O53	0.743660	0.200410	0.609820
O541	O54	0.743660	0.700410	0.109820
O551	O55	0.243660	0.200410	0.109820
O561	O56	0.243660	0.700410	0.609820
O571	O57	0.506340	0.700410	0.140180
O581	O58	0.506340	0.200410	0.640180
O591	O59	0.006340	0.700410	0.640180
O601	O60	0.006340	0.200410	0.140180
O611	O61	0.243660	0.549590	0.640180
O621	O62	0.243660	0.049590	0.140180
O631	O63	0.743660	0.549590	0.140180
O641	O64	0.743660	0.049590	0.640180
O651	O65	0.549590	0.640180	0.243660
O661	O66	0.549590	0.140180	0.743660
O671	O67	0.049590	0.640180	0.743660
O681	O68	0.049590	0.140180	0.243660
O691	O69	0.700410	0.140180	0.506340
O701	O70	0.700410	0.640180	0.006340
O711	O71	0.200410	0.140180	0.006340
O721	O72	0.200410	0.640180	0.506340
O731	O73	0.200410	0.609820	0.743660
O741	O74	0.200410	0.109820	0.243660
O751	O75	0.700410	0.609820	0.243660
O761	O76	0.700410	0.109820	0.743660
O771	O77	0.049590	0.109820	0.006340
O781	O78	0.049590	0.609820	0.506340
O791	O79	0.549590	0.109820	0.506340
O801	O80	0.549590	0.609820	0.006340
O811	O81	0.140180	0.506340	0.700410
O821	O82	0.140180	0.006340	0.200410
O831	O83	0.640180	0.506340	0.200410
O841	O84	0.640180	0.006340	0.700410
O851	O85	0.640180	0.243660	0.549590
O861	O86	0.640180	0.743660	0.049590
O871	O87	0.140180	0.243660	0.049590
O881	O88	0.140180	0.743660	0.549590
O891	O89	0.109820	0.006340	0.049590
O901	O90	0.109820	0.506340	0.549590
O911	O91	0.609820	0.006340	0.549590
O921	O92	0.609820	0.506340	0.049590
O931	O93	0.609820	0.743660	0.200410
O941	O94	0.609820	0.243660	0.700410
O951	O95	0.109820	0.743660	0.700410
O961	O96	0.109820	0.243660	0.200410
O971	O97	0.200410	0.743660	0.609820
O981	O98	0.200410	0.243660	0.109820
O991	O99	0.700410	0.743660	0.109820
O1001	O100	0.700410	0.243660	0.609820
O1011	O101	0.049590	0.006340	0.109820
O1021	O102	0.049590	0.506340	0.609820
O1031	O103	0.549590	0.006340	0.609820
O1041	O104	0.549590	0.506340	0.109820
O1051	O105	0.549590	0.243660	0.640180
O1061	O106	0.549590	0.743660	0.140180
O1071	O107	0.049590	0.243660	0.140180
O1081	O108	0.049590	0.743660	0.640180
O1091	O109	0.700410	0.506340	0.140180
O1101	O110	0.700410	0.006340	0.640180
O1111	O111	0.200410	0.506340	0.640180
O1121	O112	0.200410	0.006340	0.140180
O1131	O113	0.609820	0.200410	0.743660
O1141	O114	0.609820	0.700410	0.243660
O1151	O115	0.109820	0.200410	0.243660
O1161	O116	0.109820	0.700410	0.743660
O1171	O117	0.109820	0.049590	0.006340
O1181	O118	0.109820	0.549590	0.506340
O1191	O119	0.609820	0.049590	0.506340
O1201	O120	0.609820	0.549590	0.006340
O1211	O121	0.640180	0.549590	0.243660
O1221	O122	0.640180	0.049590	0.743660
O1231	O123	0.140180	0.549590	0.743660
O1241	O124	0.140180	0.049590	0.243660
O1251	O125	0.140180	0.700410	0.506340
O1261	O126	0.140180	0.200410	0.006340
O1271	O127	0.640180	0.700410	0.006340
O1281	O128	0.640180	0.200410	0.506340
O1291	O129	0.743660	0.609820	0.200410
O1301	O130	0.743660	0.109820	0.700410
O1311	O131	0.243660	0.609820	0.700410
O1321	O132	0.243660	0.109820	0.200410
O1331	O133	0.006340	0.109820	0.049590
O1341	O134	0.006340	0.609820	0.549590
O1351	O135	0.506340	0.109820	0.549590
O1361	O136	0.506340	0.609820	0.049590
O1371	O137	0.243660	0.640180	0.549590
O1381	O138	0.243660	0.140180	0.049590
O1391	O139	0.743660	0.640180	0.049590
O1401	O140	0.743660	0.140180	0.549590
O1411	O141	0.506340	0.140180	0.700410
O1421	O142	0.506340	0.640180	0.200410
O1431	O143	0.006340	0.140180	0.200410
O1441	O144	0.006340	0.640180	0.700410
O1451	O145	0.993660	0.950410	0.890180
O1461	O146	0.993660	0.450410	0.390180
O1471	O147	0.493660	0.950410	0.390180
O1481	O148	0.493660	0.450410	0.890180
O1491	O149	0.256340	0.799590	0.390180
O1501	O150	0.256340	0.299590	0.890180
O1511	O151	0.756340	0.799590	0.890180
O1521	O152	0.756340	0.299590	0.390180
O1531	O153	0.493660	0.299590	0.859820
O1541	O154	0.493660	0.799590	0.359820
O1551	O155	0.993660	0.299590	0.359820
O1561	O156	0.993660	0.799590	0.859820
O1571	O157	0.756340	0.450410	0.359820
O1581	O158	0.756340	0.950410	0.859820
O1591	O159	0.256340	0.450410	0.859820
O1601	O160	0.256340	0.950410	0.359820
O1611	O161	0.450410	0.359820	0.756340
O1621	O162	0.450410	0.859820	0.256340
O1631	O163	0.950410	0.359820	0.256340
O1641	O164	0.950410	0.859820	0.756340
O1651	O165	0.299590	0.859820	0.493660
O1661	O166	0.299590	0.359820	0.993660
O1671	O167	0.799590	0.859820	0.993660
O1681	O168	0.799590	0.359820	0.493660
O1691	O169	0.799590	0.390180	0.256340
O1701	O170	0.799590	0.890180	0.756340
O1711	O171	0.299590	0.390180	0.756340
O1721	O172	0.299590	0.890180	0.256340
O1731	O173	0.950410	0.890180	0.993660
O1741	O174	0.950410	0.390180	0.493660
O1751	O175	0.450410	0.890180	0.493660
O1761	O176	0.450410	0.390180	0.993660
O1771	O177	0.859820	0.493660	0.299590
O1781	O178	0.859820	0.993660	0.799590
O1791	O179	0.359820	0.493660	0.799590
O1801	O180	0.359820	0.993660	0.299590
O1811	O181	0.359820	0.756340	0.450410
O1821	O182	0.359820	0.256340	0.950410
O1831	O183	0.859820	0.756340	0.950410
O1841	O184	0.859820	0.256340	0.450410
O1851	O185	0.890180	0.993660	0.950410
O1861	O186	0.890180	0.493660	0.450410
O1871	O187	0.390180	0.993660	0.450410
O1881	O188	0.390180	0.493660	0.950410
O1891	O189	0.390180	0.256340	0.799590
O1901	O190	0.390180	0.756340	0.299590
O1911	O191	0.890180	0.256340	0.299590
O1921	O192	0.890180	0.756340	0.799590
Ce11	Ce1	0.799700	0.226700	0.450300
O1931	O193	0.764300	0.180900	0.485700
Ce21	Ce2	0.799700	0.726700	0.950300
O1941	O194	0.764300	0.680900	0.985700
Ce31	Ce3	0.950300	0.023300	0.950300
O1951	O195	0.985700	0.069100	0.985700
Ce41	Ce4	0.950300	0.523300	0.450300
O1961	O196	0.985700	0.569100	0.485700
Ce51	Ce5	0.450300	0.023300	0.450300
O1971	O197	0.485700	0.069100	0.485700
Ce61	Ce6	0.450300	0.523300	0.950300
O1981	O198	0.485700	0.569100	0.985700
Ce71	Ce7	0.450300	0.726700	0.299700
O1991	O199	0.485700	0.680900	0.264300
Ce81	Ce8	0.950300	0.726700	0.799700
O2001	O200	0.985700	0.680900	0.764300
Ce91	Ce9	0.299700	0.523300	0.799700
O2011	O201	0.264300	0.569100	0.764300
Ce101	Ce10	0.299700	0.023300	0.299700
O2021	O202	0.264300	0.069100	0.264300
Ce111	Ce11	0.450300	0.799700	0.226700
O2031	O203	0.485700	0.764300	0.180900
Ce121	Ce12	0.950300	0.799700	0.726700
O2041	O204	0.985700	0.764300	0.680900
Ce131	Ce13	0.950300	0.950300	0.023300
O2051	O205	0.985700	0.985700	0.069100
Ce141	Ce14	0.950300	0.450300	0.523300
O2061	O206	0.985700	0.485700	0.569100
Ce151	Ce15	0.450300	0.950300	0.523300
O2071	O207	0.485700	0.985700	0.569100
Ce161	Ce16	0.450300	0.450300	0.023300
O2081	O208	0.485700	0.485700	0.069100
Ce171	Ce17	0.299700	0.450300	0.726700
O2091	O209	0.264300	0.485700	0.680900
Ce181	Ce18	0.299700	0.950300	0.226700
O2101	O210	0.264300	0.985700	0.180900
Ce191	Ce19	0.799700	0.299700	0.523300
O2111	O211	0.764300	0.264300	0.569100
Ce201	Ce20	0.799700	0.799700	0.023300
O2121	O212	0.764300	0.764300	0.069100
Ce211	Ce21	0.226700	0.450300	0.799700
O2131	O213	0.180900	0.485700	0.764300
Ce221	Ce22	0.226700	0.950300	0.299700
O2141	O214	0.180900	0.985700	0.264300
Ce231	Ce23	0.023300	0.950300	0.950300
O2151	O215	0.069100	0.985700	0.985700
Ce241	Ce24	0.023300	0.450300	0.450300
O2161	O216	0.069100	0.485700	0.485700
Ce251	Ce25	0.523300	0.950300	0.450300
O2171	O217	0.569100	0.985700	0.485700
Ce261	Ce26	0.523300	0.450300	0.950300
O2181	O218	0.569100	0.485700	0.985700
Ce271	Ce27	0.726700	0.299700	0.450300
O2191	O219	0.680900	0.264300	0.485700
Ce281	Ce28	0.726700	0.799700	0.950300
O2201	O220	0.680900	0.764300	0.985700
Ce291	Ce29	0.523300	0.799700	0.299700
O2211	O221	0.569100	0.764300	0.264300
Ce301	Ce30	0.023300	0.799700	0.799700
O2221	O222	0.069100	0.764300	0.764300
Ce311	Ce31	0.976700	0.049700	0.049700
O2231	O223	0.930900	0.014300	0.014300
Ce321	Ce32	0.976700	0.549700	0.549700
O2241	O224	0.930900	0.514300	0.514300
Ce331	Ce33	0.476700	0.049700	0.549700
O2251	O225	0.430900	0.014300	0.514300
Ce341	Ce34	0.476700	0.549700	0.049700
O2261	O226	0.430900	0.514300	0.014300
Ce351	Ce35	0.773300	0.200300	0.549700
O2271	O227	0.819100	0.235700	0.514300
Ce361	Ce36	0.773300	0.700300	0.049700
O2281	O228	0.819100	0.735700	0.014300
Ce371	Ce37	0.476700	0.700300	0.200300
O2291	O229	0.430900	0.735700	0.235700
Ce381	Ce38	0.976700	0.700300	0.700300
O2301	O230	0.930900	0.735700	0.735700
Ce391	Ce39	0.273300	0.549700	0.700300
O2311	O231	0.319100	0.514300	0.735700
Ce401	Ce40	0.273300	0.049700	0.200300
O2321	O232	0.319100	0.014300	0.235700
Ce411	Ce41	0.549700	0.700300	0.273300
O2331	O233	0.514300	0.735700	0.319100
Ce421	Ce42	0.049700	0.700300	0.773300
O2341	O234	0.014300	0.735700	0.819100
Ce431	Ce43	0.700300	0.200300	0.476700
O2351	O235	0.735700	0.235700	0.430900
Ce441	Ce44	0.700300	0.700300	0.976700
O2361	O236	0.735700	0.735700	0.930900
Ce451	Ce45	0.200300	0.549700	0.773300
O2371	O237	0.235700	0.514300	0.819100
Ce461	Ce46	0.200300	0.049700	0.273300
O2381	O238	0.235700	0.014300	0.319100
Ce471	Ce47	0.049700	0.049700	0.976700
O2391	O239	0.014300	0.014300	0.930900
Ce481	Ce48	0.049700	0.549700	0.476700
O2401	O240	0.014300	0.514300	0.430900
Ce491	Ce49	0.549700	0.049700	0.476700
O2411	O241	0.514300	0.014300	0.430900
Ce501	Ce50	0.549700	0.549700	0.976700
O2421	O242	0.514300	0.514300	0.930900
Ce511	Ce51	0.200300	0.476700	0.700300
O2431	O243	0.235700	0.430900	0.735700
Ce521	Ce52	0.200300	0.976700	0.200300
O2441	O244	0.235700	0.930900	0.235700
Ce531	Ce53	0.700300	0.273300	0.549700
O2451	O245	0.735700	0.319100	0.514300
Ce541	Ce54	0.700300	0.773300	0.049700
O2461	O246	0.735700	0.819100	0.014300
Ce551	Ce55	0.049700	0.976700	0.049700
O2471	O247	0.014300	0.930900	0.014300
Ce561	Ce56	0.049700	0.476700	0.549700
O2481	O248	0.014300	0.430900	0.514300
Ce571	Ce57	0.549700	0.976700	0.549700
O2491	O249	0.514300	0.930900	0.514300
Ce581	Ce58	0.549700	0.476700	0.049700
O2501	O250	0.514300	0.430900	0.014300
Ce591	Ce59	0.549700	0.773300	0.200300
O2511	O251	0.514300	0.819100	0.235700
Ce601	Ce60	0.049700	0.773300	0.700300
O2521	O252	0.014300	0.819100	0.735700
Ce611	Ce61	0.200300	0.773300	0.549700
O2531	O253	0.235700	0.819100	0.514300
Ce621	Ce62	0.200300	0.273300	0.049700
O2541	O254	0.235700	0.319100	0.014300
Ce631	Ce63	0.549700	0.273300	0.700300
O2551	O255	0.514300	0.319100	0.735700
Ce641	Ce64	0.049700	0.273300	0.200300
O2561	O256	0.014300	0.319100	0.235700
Ce651	Ce65	0.700300	0.476700	0.200300
O2571	O257	0.735700	0.430900	0.235700
Ce661	Ce66	0.700300	0.976700	0.700300
O2581	O258	0.735700	0.930900	0.735700
Ce671	Ce67	0.549700	0.200300	0.773300
O2591	O259	0.514300	0.235700	0.819100
Ce681	Ce68	0.049700	0.200300	0.273300
O2601	O260	0.014300	0.235700	0.319100
Ce691	Ce69	0.700300	0.549700	0.273300
O2611	O261	0.735700	0.514300	0.319100
Ce701	Ce70	0.700300	0.049700	0.773300
O2621	O262	0.735700	0.014300	0.819100
Ce711	Ce71	0.200300	0.700300	0.476700
O2631	O263	0.235700	0.735700	0.430900
Ce721	Ce72	0.200300	0.200300	0.976700
O2641	O264	0.235700	0.235700	0.930900
Ce731	Ce73	0.773300	0.549700	0.200300
O2651	O265	0.819100	0.514300	0.235700
Ce741	Ce74	0.773300	0.049700	0.700300
O2661	O266	0.819100	0.014300	0.735700
Ce751	Ce75	0.273300	0.700300	0.549700
O2671	O267	0.319100	0.735700	0.514300
Ce761	Ce76	0.273300	0.200300	0.049700
O2681	O268	0.319100	0.235700	0.014300
Ce771	Ce77	0.476700	0.200300	0.700300
O2691	O269	0.430900	0.235700	0.735700
Ce781	Ce78	0.976700	0.200300	0.200300
O2701	O270	0.930900	0.235700	0.235700
Ce791	Ce79	0.226700	0.799700	0.450300
O2711	O271	0.180900	0.764300	0.485700
Ce801	Ce80	0.226700	0.299700	0.950300
O2721	O272	0.180900	0.264300	0.985700
Ce811	Ce81	0.523300	0.299700	0.799700
O2731	O273	0.569100	0.264300	0.764300
Ce821	Ce82	0.023300	0.299700	0.299700
O2741	O274	0.069100	0.264300	0.264300
Ce831	Ce83	0.726700	0.450300	0.299700
O2751	O275	0.680900	0.485700	0.264300
Ce841	Ce84	0.726700	0.950300	0.799700
O2761	O276	0.680900	0.985700	0.764300
Ce851	Ce85	0.450300	0.299700	0.726700
O2771	O277	0.485700	0.264300	0.680900
Ce861	Ce86	0.950300	0.299700	0.226700
O2781	O278	0.985700	0.264300	0.180900
Ce871	Ce87	0.299700	0.799700	0.523300
O2791	O279	0.264300	0.764300	0.569100
Ce881	Ce88	0.299700	0.299700	0.023300
O2801	O280	0.264300	0.264300	0.069100
Ce891	Ce89	0.799700	0.450300	0.226700
O2811	O281	0.764300	0.485700	0.180900
Ce901	Ce90	0.799700	0.950300	0.726700
O2821	O282	0.764300	0.985700	0.680900
Ce911	Ce91	0.799700	0.523300	0.299700
O2831	O283	0.764300	0.569100	0.264300
Ce921	Ce92	0.799700	0.023300	0.799700
O2841	O284	0.764300	0.069100	0.764300
Ce931	Ce93	0.299700	0.726700	0.450300
O2851	O285	0.264300	0.680900	0.485700
Ce941	Ce94	0.299700	0.226700	0.950300
O2861	O286	0.264300	0.180900	0.985700
Ce951	Ce95	0.450300	0.226700	0.799700
O2871	O287	0.485700	0.180900	0.764300
Ce961	Ce96	0.950300	0.226700	0.299700
O2881	O288	0.985700	0.180900	0.264300
O2891	O289	0.788650	0.288650	0.461350
O2901	O290	0.788650	0.788650	0.961350
O2911	O291	0.961350	0.961350	0.961350
O2921	O292	0.961350	0.461350	0.461350
O2931	O293	0.461350	0.961350	0.461350
O2941	O294	0.461350	0.461350	0.961350
O2951	O295	0.461350	0.788650	0.288650
O2961	O296	0.961350	0.788650	0.788650
O2971	O297	0.288650	0.461350	0.788650
O2981	O298	0.288650	0.961350	0.288650
O2991	O299	0.961350	0.288650	0.288650
O3001	O300	0.788650	0.961350	0.788650
O3011	O301	0.288650	0.288650	0.961350
O3021	O302	0.038650	0.038650	0.038650
O3031	O303	0.038650	0.538650	0.538650
O3041	O304	0.538650	0.038650	0.538650
O3051	O305	0.538650	0.538650	0.038650
O3061	O306	0.711350	0.211350	0.538650
O3071	O307	0.711350	0.711350	0.038650
O3081	O308	0.538650	0.711350	0.211350
O3091	O309	0.038650	0.711350	0.711350
O3101	O310	0.211350	0.538650	0.711350
O3111	O311	0.211350	0.038650	0.211350
O3121	O312	0.211350	0.711350	0.538650
O3131	O313	0.211350	0.211350	0.038650
O3141	O314	0.538650	0.211350	0.711350
O3151	O315	0.038650	0.211350	0.211350
O3161	O316	0.711350	0.538650	0.211350
O3171	O317	0.711350	0.038650	0.711350
O3181	O318	0.288650	0.788650	0.461350
O3191	O319	0.461350	0.288650	0.788650
O3201	O320	0.788650	0.461350	0.288650
C11	C1	0.783070	0.283070	0.376780
C21	C2	0.803130	0.303130	0.349380
C31	C3	0.783070	0.783070	0.876780
C41	C4	0.803130	0.803130	0.849380
C51	C5	0.966930	0.966930	0.876780
C61	C6	0.946870	0.946870	0.849380
C71	C7	0.966930	0.466930	0.376780
C81	C8	0.946870	0.446870	0.349380
C91	C9	0.466930	0.966930	0.376780
C101	C10	0.446870	0.946870	0.349380
C111	C11	0.466930	0.466930	0.876780
C121	C12	0.446870	0.446870	0.849380
C131	C13	0.466930	0.783070	0.373220
C141	C14	0.446870	0.803130	0.400620
C151	C15	0.966930	0.783070	0.873220
C161	C16	0.946870	0.803130	0.900620
C171	C17	0.283070	0.466930	0.873220
C181	C18	0.303130	0.446870	0.900620
C191	C19	0.283070	0.966930	0.373220
C201	C20	0.303130	0.946870	0.400620
C211	C21	0.376780	0.783070	0.283070
C221	C22	0.349380	0.803130	0.303130
C231	C23	0.876780	0.783070	0.783070
C241	C24	0.849380	0.803130	0.803130
C251	C25	0.876780	0.966930	0.966930
C261	C26	0.849380	0.946870	0.946870
C271	C27	0.876780	0.466930	0.466930
C281	C28	0.849380	0.446870	0.446870
C291	C29	0.376780	0.966930	0.466930
C301	C30	0.349380	0.946870	0.446870
C311	C31	0.376780	0.466930	0.966930
C321	C32	0.349380	0.446870	0.946870
C331	C33	0.373220	0.466930	0.783070
C341	C34	0.400620	0.446870	0.803130
C351	C35	0.373220	0.966930	0.283070
C361	C36	0.400620	0.946870	0.303130
C371	C37	0.873220	0.283070	0.466930
C381	C38	0.900620	0.303130	0.446870
C391	C39	0.873220	0.783070	0.966930
C401	C40	0.900620	0.803130	0.946870
C411	C41	0.283070	0.376780	0.783070
C421	C42	0.303130	0.349380	0.803130
C431	C43	0.283070	0.876780	0.283070
C441	C44	0.303130	0.849380	0.303130
C451	C45	0.783070	0.876780	0.783070
C461	C46	0.803130	0.849380	0.803130
C471	C47	0.966930	0.876780	0.966930
C481	C48	0.946870	0.849380	0.946870
C491	C49	0.966930	0.376780	0.466930
C501	C50	0.946870	0.349380	0.446870
C511	C51	0.466930	0.876780	0.466930
C521	C52	0.446870	0.849380	0.446870
C531	C53	0.466930	0.376780	0.966930
C541	C54	0.446870	0.349380	0.946870
C551	C55	0.783070	0.373220	0.466930
C561	C56	0.803130	0.400620	0.446870
C571	C57	0.783070	0.873220	0.966930
C581	C58	0.803130	0.900620	0.946870
C591	C59	0.466930	0.873220	0.283070
C601	C60	0.446870	0.900620	0.303130
C611	C61	0.966930	0.873220	0.783070
C621	C62	0.946870	0.900620	0.803130
C631	C63	0.033070	0.033070	0.123220
C641	C64	0.053130	0.053130	0.150620
C651	C65	0.033070	0.533070	0.623220
C661	C66	0.053130	0.553130	0.650620
C671	C67	0.533070	0.033070	0.623220
C681	C68	0.553130	0.053130	0.650620
C691	C69	0.533070	0.533070	0.123220
C701	C70	0.553130	0.553130	0.150620
C711	C71	0.716930	0.216930	0.623220
C721	C72	0.696870	0.196870	0.650620
C731	C73	0.716930	0.716930	0.123220
C741	C74	0.696870	0.696870	0.150620
C751	C75	0.533070	0.716930	0.126780
C761	C76	0.553130	0.696870	0.099380
C771	C77	0.033070	0.716930	0.626780
C781	C78	0.053130	0.696870	0.599380
C791	C79	0.216930	0.533070	0.626780
C801	C80	0.196870	0.553130	0.599380
C811	C81	0.216930	0.033070	0.126780
C821	C82	0.196870	0.053130	0.099380
C831	C83	0.533070	0.626780	0.216930
C841	C84	0.553130	0.599380	0.196870
C851	C85	0.033070	0.626780	0.716930
C861	C86	0.053130	0.599380	0.696870
C871	C87	0.716930	0.126780	0.533070
C881	C88	0.696870	0.099380	0.553130
C891	C89	0.716930	0.626780	0.033070
C901	C90	0.696870	0.599380	0.053130
C911	C91	0.216930	0.623220	0.716930
C921	C92	0.196870	0.650620	0.696870
C931	C93	0.216930	0.123220	0.216930
C941	C94	0.196870	0.150620	0.196870
C951	C95	0.716930	0.123220	0.716930
C961	C96	0.696870	0.150620	0.696870
C971	C97	0.033070	0.123220	0.033070
C981	C98	0.053130	0.150620	0.053130
C991	C99	0.033070	0.623220	0.533070
C1001	C100	0.053130	0.650620	0.553130
C1011	C101	0.533070	0.123220	0.533070
C1021	C102	0.553130	0.150620	0.553130
C1031	C103	0.533070	0.623220	0.033070
C1041	C104	0.553130	0.650620	0.053130
C1051	C105	0.126780	0.533070	0.716930
C1061	C106	0.099380	0.553130	0.696870
C1071	C107	0.126780	0.033070	0.216930
C1081	C108	0.099380	0.053130	0.196870
C1091	C109	0.626780	0.216930	0.533070
C1101	C110	0.599380	0.196870	0.553130
C1111	C111	0.626780	0.716930	0.033070
C1121	C112	0.599380	0.696870	0.053130
C1131	C113	0.123220	0.033070	0.033070
C1141	C114	0.150620	0.053130	0.053130
C1151	C115	0.123220	0.533070	0.533070
C1161	C116	0.150620	0.553130	0.553130
C1171	C117	0.623220	0.033070	0.533070
C1181	C118	0.650620	0.053130	0.553130
C1191	C119	0.623220	0.533070	0.033070
C1201	C120	0.650620	0.553130	0.053130
C1211	C121	0.623220	0.716930	0.216930
C1221	C122	0.650620	0.696870	0.196870
C1231	C123	0.123220	0.716930	0.716930
C1241	C124	0.150620	0.696870	0.696870
C1251	C125	0.216930	0.716930	0.623220
C1261	C126	0.196870	0.696870	0.650620
C1271	C127	0.216930	0.216930	0.123220
C1281	C128	0.196870	0.196870	0.150620
C1291	C129	0.533070	0.216930	0.626780
C1301	C130	0.553130	0.196870	0.599380
C1311	C131	0.033070	0.216930	0.126780
C1321	C132	0.053130	0.196870	0.099380
C1331	C133	0.716930	0.533070	0.126780
C1341	C134	0.696870	0.553130	0.099380
C1351	C135	0.716930	0.033070	0.626780
C1361	C136	0.696870	0.053130	0.599380
C1371	C137	0.623220	0.216930	0.716930
C1381	C138	0.650620	0.196870	0.696870
C1391	C139	0.123220	0.216930	0.216930
C1401	C140	0.150620	0.196870	0.196870
C1411	C141	0.626780	0.533070	0.216930
C1421	C142	0.599380	0.553130	0.196870
C1431	C143	0.626780	0.033070	0.716930
C1441	C144	0.599380	0.053130	0.696870
C1451	C145	0.126780	0.716930	0.533070
C1461	C146	0.099380	0.696870	0.553130
C1471	C147	0.126780	0.216930	0.033070
C1481	C148	0.099380	0.196870	0.053130
C1491	C149	0.716930	0.623220	0.216930
C1501	C150	0.696870	0.650620	0.196870
C1511	C151	0.216930	0.626780	0.533070
C1521	C152	0.196870	0.599380	0.553130
C1531	C153	0.216930	0.126780	0.033070
C1541	C154	0.196870	0.099380	0.053130
C1551	C155	0.533070	0.126780	0.716930
C1561	C156	0.553130	0.099380	0.696870
C1571	C157	0.033070	0.126780	0.216930
C1581	C158	0.053130	0.099380	0.196870
C1591	C159	0.283070	0.783070	0.376780
C1601	C160	0.303130	0.803130	0.349380
C1611	C161	0.283070	0.283070	0.876780
C1621	C162	0.303130	0.303130	0.849380
C1631	C163	0.466930	0.283070	0.873220
C1641	C164	0.446870	0.303130	0.900620
C1651	C165	0.966930	0.283070	0.373220
C1661	C166	0.946870	0.303130	0.400620
C1671	C167	0.783070	0.466930	0.373220
C1681	C168	0.803130	0.446870	0.400620
C1691	C169	0.783070	0.966930	0.873220
C1701	C170	0.803130	0.946870	0.900620
C1711	C171	0.466930	0.373220	0.783070
C1721	C172	0.446870	0.400620	0.803130
C1731	C173	0.966930	0.373220	0.283070
C1741	C174	0.946870	0.400620	0.303130
C1751	C175	0.283070	0.873220	0.466930
C1761	C176	0.303130	0.900620	0.446870
C1771	C177	0.283070	0.373220	0.966930
C1781	C178	0.303130	0.400620	0.946870
C1791	C179	0.783070	0.376780	0.283070
C1801	C180	0.803130	0.349380	0.303130
C1811	C181	0.873220	0.466930	0.283070
C1821	C182	0.900620	0.446870	0.303130
C1831	C183	0.873220	0.966930	0.783070
C1841	C184	0.900620	0.946870	0.803130
C1851	C185	0.373220	0.783070	0.466930
C1861	C186	0.400620	0.803130	0.446870
C1871	C187	0.373220	0.283070	0.966930
C1881	C188	0.400620	0.303130	0.946870
C1891	C189	0.376780	0.283070	0.783070
C1901	C190	0.349380	0.303130	0.803130
C1911	C191	0.876780	0.283070	0.283070
C1921	C192	0.849380	0.303130	0.303130
C1931	C193	0.787820	0.333450	0.333450
C1941	C194	0.787820	0.833450	0.833450
C1951	C195	0.287820	0.333450	0.833450
C1961	C196	0.287820	0.833450	0.333450
C1971	C197	0.962180	0.916550	0.833450
C1981	C198	0.962180	0.416550	0.333450
C1991	C199	0.462180	0.833450	0.416550
C2001	C200	0.462180	0.333450	0.916550
C2011	C201	0.962180	0.333450	0.416550
C2021	C202	0.287820	0.416550	0.916550
C2031	C203	0.787820	0.416550	0.416550
C2041	C204	0.333450	0.787820	0.333450
C2051	C205	0.333450	0.287820	0.833450
C2061	C206	0.833450	0.787820	0.833450
C2071	C207	0.833450	0.287820	0.333450
C2081	C208	0.833450	0.962180	0.916550
C2091	C209	0.333450	0.962180	0.416550
C2101	C210	0.416550	0.462180	0.833450
C2111	C211	0.416550	0.962180	0.333450
C2121	C212	0.916550	0.287820	0.416550
C2131	C213	0.916550	0.787820	0.916550
C2141	C214	0.416550	0.787820	0.416550
C2151	C215	0.333450	0.333450	0.787820
C2161	C216	0.333450	0.833450	0.287820
C2171	C217	0.833450	0.333450	0.287820
C2181	C218	0.833450	0.833450	0.787820
C2191	C219	0.916550	0.833450	0.962180
C2201	C220	0.916550	0.333450	0.462180
C2211	C221	0.416550	0.333450	0.962180
C2221	C222	0.833450	0.416550	0.462180
C2231	C223	0.333450	0.416550	0.962180
C2241	C224	0.416550	0.916550	0.287820
C2251	C225	0.416550	0.416550	0.787820
C2261	C226	0.083450	0.037820	0.166550
C2271	C227	0.083450	0.537820	0.666550
C2281	C228	0.666550	0.212180	0.666550
C2291	C229	0.666550	0.712180	0.166550
C2301	C230	0.166550	0.212180	0.166550
C2311	C231	0.166550	0.712180	0.666550
C2321	C232	0.583450	0.712180	0.083450
C2331	C233	0.583450	0.212180	0.583450
C2341	C234	0.083450	0.212180	0.083450
C2351	C235	0.166550	0.537820	0.583450
C2361	C236	0.666550	0.537820	0.083450
C2371	C237	0.537820	0.583450	0.166550
C2381	C238	0.537820	0.083450	0.666550
C2391	C239	0.712180	0.083450	0.583450
C2401	C240	0.212180	0.083450	0.083450
C2411	C241	0.212180	0.666550	0.666550
C2421	C242	0.212180	0.166550	0.166550
C2431	C243	0.712180	0.666550	0.166550
C2441	C244	0.712180	0.166550	0.666550
C2451	C245	0.037820	0.166550	0.083450
C2461	C246	0.037820	0.666550	0.583450
C2471	C247	0.537820	0.666550	0.083450
C2481	C248	0.083450	0.583450	0.712180
C2491	C249	0.083450	0.083450	0.212180
C2501	C250	0.583450	0.166550	0.537820
C2511	C251	0.583450	0.666550	0.037820
C2521	C252	0.083450	0.666550	0.537820
C2531	C253	0.166550	0.083450	0.037820
C2541	C254	0.666550	0.083450	0.537820
C2551	C255	0.666550	0.666550	0.212180
C2561	C256	0.666550	0.166550	0.712180
C2571	C257	0.166550	0.666550	0.712180
C2581	C258	0.166550	0.166550	0.212180
C2591	C259	0.037820	0.083450	0.166550
C2601	C260	0.037820	0.583450	0.666550
C2611	C261	0.537820	0.166550	0.583450
C2621	C262	0.712180	0.583450	0.083450
C2631	C263	0.212180	0.583450	0.583450
C2641	C264	0.166550	0.037820	0.083450
C2651	C265	0.666550	0.037820	0.583450
C2661	C266	0.583450	0.537820	0.166550
C2671	C267	0.583450	0.037820	0.666550
C2681	C268	0.083450	0.712180	0.583450
C2691	C269	0.083450	0.166550	0.037820
C2701	C270	0.166550	0.583450	0.537820
C2711	C271	0.666550	0.583450	0.037820
C2721	C272	0.583450	0.083450	0.712180
C2731	C273	0.583450	0.583450	0.212180
C2741	C274	0.916550	0.962180	0.833450
C2751	C275	0.916550	0.462180	0.333450
C2761	C276	0.416550	0.287820	0.916550
C2771	C277	0.833450	0.462180	0.416550
C2781	C278	0.333450	0.462180	0.916550
C2791	C279	0.462180	0.416550	0.833450
C2801	C280	0.462180	0.916550	0.333450
C2811	C281	0.287820	0.916550	0.416550
C2821	C282	0.787820	0.916550	0.916550
C2831	C283	0.962180	0.833450	0.916550
C2841	C284	0.916550	0.416550	0.287820
C2851	C285	0.916550	0.916550	0.787820
C2861	C286	0.416550	0.833450	0.462180
C2871	C287	0.833450	0.916550	0.962180
C2881	C288	0.333450	0.916550	0.462180
