data_JASNAT_clean_PM
_symmetry_space_group_name_H-M	'P1'
_cell_length_a	10.883000
_cell_length_b	10.925800
_cell_length_c	14.065800
_cell_angle_alpha	92.417000
_cell_angle_beta	90.099000
_cell_angle_gamma	101.723000
_symmetry_Int_Tables_number 1

loop_
_symmetry_equiv_pos_as_xyz
'x,y,z'

loop_
_atom_site_label
_atom_site_type_symbol
_atom_site_fract_x
_atom_site_fract_y
_atom_site_fract_z
Zn11	Zn1	0.265040	0.344380	0.890780
Zn21	Zn2	0.262090	0.331560	0.681860
H11	H1	0.661800	0.356800	0.930600
H21	H2	0.873700	0.349200	0.929800
H31	H3	0.654000	0.326500	0.643900
H41	H4	0.255200	0.717400	0.643700
H51	H5	0.265200	0.744400	0.927100
H61	H6	0.250300	0.953000	0.924200
H71	H7	0.237800	0.927400	0.639300
H81	H8	0.865700	0.319500	0.643300
H91	H9	0.084900	0.319500	0.521300
H101	H10	0.079100	0.314800	0.358600
H111	H11	0.447900	0.362300	0.359500
H121	H12	0.443400	0.358500	0.522600
H131	H13	0.075000	0.324200	0.212200
H141	H14	0.451200	0.353300	0.214400
H151	H15	0.081900	0.323900	0.049600
H161	H16	0.445500	0.351200	0.051600
C11	C1	0.499700	0.349500	0.787600
C21	C2	0.636300	0.342900	0.787900
C31	C3	0.702600	0.349200	0.872500
C41	C4	0.829100	0.344600	0.872000
C51	C5	0.698500	0.331300	0.701800
C61	C6	0.279300	0.577400	0.787600
C71	C7	0.266600	0.711600	0.786000
C81	C8	0.255600	0.765300	0.700800
C91	C9	0.261800	0.781500	0.868300
C101	C10	0.242400	0.098500	0.778200
C111	C11	0.245100	0.961200	0.782000
C121	C12	0.252100	0.906300	0.866700
C131	C13	0.244900	0.891200	0.697900
C141	C14	0.027900	0.328300	0.787200
C151	C15	0.889500	0.333100	0.787200
C161	C16	0.824300	0.326800	0.701300
C171	C17	0.160700	0.325900	0.488200
C181	C18	0.156900	0.324600	0.390200
C191	C19	0.263400	0.337200	0.338800
C201	C20	0.370300	0.351200	0.390600
C211	C21	0.367100	0.349300	0.489000
C221	C22	0.262900	0.337600	0.234400
C231	C23	0.152300	0.329800	0.181200
C241	C24	0.374000	0.346900	0.182500
C251	C25	0.157400	0.330500	0.083900
C261	C26	0.369900	0.346600	0.084800
N11	N1	0.263800	0.335300	0.537000
N21	N2	0.265100	0.340200	0.034800
O11	O1	0.449700	0.357200	0.866900
O21	O2	0.446800	0.345000	0.707900
O31	O3	0.283900	0.531700	0.867700
O41	O4	0.285800	0.521100	0.710600
O51	O5	0.243900	0.157200	0.857700
O61	O6	0.239600	0.145000	0.698800
O71	O7	0.080500	0.331200	0.865900
O81	O8	0.078700	0.323800	0.707400
Zn31	Zn3	0.734960	0.655620	0.109220
Zn41	Zn4	0.737910	0.668440	0.318140
H171	H17	0.338200	0.643200	0.069400
H181	H18	0.126300	0.650800	0.070200
H191	H19	0.346000	0.673500	0.356100
H201	H20	0.744800	0.282600	0.356300
H211	H21	0.734800	0.255600	0.072900
H221	H22	0.749700	0.047000	0.075800
H231	H23	0.762200	0.072600	0.360700
H241	H24	0.134300	0.680500	0.356700
H251	H25	0.915100	0.680500	0.478700
H261	H26	0.920900	0.685200	0.641400
H271	H27	0.552100	0.637700	0.640500
H281	H28	0.556600	0.641500	0.477400
H291	H29	0.925000	0.675800	0.787800
H301	H30	0.548800	0.646700	0.785600
H311	H31	0.918100	0.676100	0.950400
H321	H32	0.554500	0.648800	0.948400
C271	C27	0.500300	0.650500	0.212400
C281	C28	0.363700	0.657100	0.212100
C291	C29	0.297400	0.650800	0.127500
C301	C30	0.170900	0.655400	0.128000
C311	C31	0.301500	0.668700	0.298200
C321	C32	0.720700	0.422600	0.212400
C331	C33	0.733400	0.288400	0.214000
C341	C34	0.744400	0.234700	0.299200
C351	C35	0.738200	0.218500	0.131700
C361	C36	0.757600	0.901500	0.221800
C371	C37	0.754900	0.038800	0.218000
C381	C38	0.747900	0.093700	0.133300
C391	C39	0.755100	0.108800	0.302100
C401	C40	0.972100	0.671700	0.212800
C411	C41	0.110500	0.666900	0.212800
C421	C42	0.175700	0.673200	0.298700
C431	C43	0.839300	0.674100	0.511800
C441	C44	0.843100	0.675400	0.609800
C451	C45	0.736600	0.662800	0.661200
C461	C46	0.629700	0.648800	0.609400
C471	C47	0.632900	0.650700	0.511000
C481	C48	0.737100	0.662400	0.765600
C491	C49	0.847700	0.670200	0.818800
C501	C50	0.626000	0.653100	0.817500
C511	C51	0.842600	0.669500	0.916100
C521	C52	0.630100	0.653400	0.915200
N31	N3	0.736200	0.664700	0.463000
N41	N4	0.734900	0.659800	0.965200
O91	O9	0.550300	0.642800	0.133100
O101	O10	0.553200	0.655000	0.292100
O111	O11	0.716100	0.468300	0.132300
O121	O12	0.714200	0.478900	0.289400
O131	O13	0.756100	0.842800	0.142300
O141	O14	0.760400	0.855000	0.301200
O151	O15	0.919500	0.668800	0.134100
O161	O16	0.921300	0.676200	0.292600
