data_JEBDOK_clean_PM
_symmetry_space_group_name_H-M	'P1'
_cell_length_a	7.953000
_cell_length_b	11.099200
_cell_length_c	11.099200
_cell_angle_alpha	65.516600
_cell_angle_beta	76.181600
_cell_angle_gamma	103.818000
_symmetry_Int_Tables_number 1

loop_
_symmetry_equiv_pos_as_xyz
'x,y,z'

loop_
_atom_site_label
_atom_site_type_symbol
_atom_site_fract_x
_atom_site_fract_y
_atom_site_fract_z
In11	In1	0.951900	0.597220	0.397720
In21	In2	0.349620	0.397720	0.005060
In31	In3	0.354680	0.005060	0.597220
In41	In4	0.849620	0.994940	0.602280
In51	In5	0.854680	0.402780	0.994940
In61	In6	0.451900	0.602280	0.402780
H11	H1	0.699200	0.666200	0.489200
H21	H2	0.188400	0.489200	0.844600
H31	H3	0.033000	0.844600	0.666200
H41	H4	0.688400	0.155400	0.510800
H51	H5	0.533000	0.333800	0.155400
H61	H6	0.199200	0.510800	0.333800
C11	C1	0.931400	0.574100	0.682100
C21	C2	0.862200	0.417000	0.717000
C31	C3	0.613500	0.682100	0.743800
C41	C4	0.579200	0.717000	0.866000
C51	C5	0.357300	0.743800	0.574100
C61	C6	0.445200	0.866000	0.417000
C71	C7	0.113500	0.256200	0.317900
C81	C8	0.079200	0.134000	0.283000
C91	C9	0.857300	0.425900	0.256200
C101	C10	0.945200	0.583000	0.134000
C111	C11	0.431400	0.317900	0.425900
C121	C12	0.362200	0.283000	0.583000
O11	O1	0.709900	0.638800	0.430600
O21	O2	0.993600	0.669900	0.551100
O31	O3	0.844700	0.394600	0.619300
O41	O4	0.329500	0.620000	0.596300
O51	O5	0.493800	0.832700	0.324800
O61	O6	0.140500	0.430600	0.930600
O71	O7	0.544700	0.551100	0.779000
O81	O8	0.464000	0.619300	0.986100
O91	O9	0.925800	0.596300	0.783700
O101	O10	0.818600	0.324800	0.842500
O111	O11	0.071100	0.930600	0.638800
O121	O12	0.323700	0.779000	0.669900
O131	O13	0.450100	0.986100	0.394600
O141	O14	0.709500	0.783700	0.620000
O151	O15	0.661100	0.842500	0.832700
O161	O16	0.640500	0.069400	0.569400
O171	O17	0.044700	0.221000	0.448900
O181	O18	0.964000	0.013900	0.380700
O191	O19	0.425800	0.216300	0.403700
O201	O20	0.318600	0.157500	0.675200
O211	O21	0.571100	0.361200	0.069400
O221	O22	0.823700	0.330100	0.221000
O231	O23	0.950100	0.605400	0.013900
O241	O24	0.209500	0.380000	0.216300
O251	O25	0.161100	0.167300	0.157500
O261	O26	0.209900	0.569400	0.361200
O271	O27	0.493600	0.448900	0.330100
O281	O28	0.344700	0.380700	0.605400
O291	O29	0.829500	0.403700	0.380000
O301	O30	0.993800	0.675200	0.167300
