data_JENKET_SL_PM
_symmetry_space_group_name_H-M	'P1'
_cell_length_a	41.041000
_cell_length_b	10.128700
_cell_length_c	40.382200
_cell_angle_alpha	90.000000
_cell_angle_beta	90.000000
_cell_angle_gamma	90.000000
_symmetry_Int_Tables_number 1

loop_
_symmetry_equiv_pos_as_xyz
'x,y,z'

loop_
_atom_site_label
_atom_site_type_symbol
_atom_site_fract_x
_atom_site_fract_y
_atom_site_fract_z
Zn11	Zn1	0.059300	0.072300	0.793310
Zn21	Zn2	0.393540	0.296190	0.290060
Zn31	Zn3	0.464520	0.236070	0.267000
Zn41	Zn4	0.933100	0.435520	0.334670
H51	H5	0.320900	0.654800	0.899300
H61	H6	0.303700	0.450900	0.982600
H71	H7	0.376700	0.711700	0.979600
H81	H8	0.399400	0.573500	0.016600
H91	H9	0.414700	0.517200	0.069300
H101	H10	0.321400	0.433100	0.090700
H111	H11	0.307100	0.492800	0.037600
H121	H12	0.428400	0.395800	0.111100
H131	H13	0.444100	0.336900	0.164000
H141	H14	0.351500	0.380600	0.193900
H151	H15	0.336400	0.445200	0.141500
H161	H16	0.250500	0.460400	0.960500
H171	H17	0.205600	0.362800	0.932400
H181	H18	0.260500	0.358300	0.848800
H191	H19	0.301700	0.466700	0.876900
H201	H20	0.230400	0.165200	0.839200
H211	H21	0.188700	0.055300	0.812300
H221	H22	0.122700	0.247900	0.867400
H231	H23	0.163700	0.357000	0.895400
H241	H24	0.384000	0.915000	0.956600
H251	H25	0.365200	0.721900	0.871700
H261	H26	0.110500	0.695600	0.512300
H271	H27	0.186000	0.441600	0.516400
H281	H28	0.175400	0.680700	0.437900
H291	H29	0.084800	0.835700	0.486700
H301	H30	0.054100	0.979400	0.457200
H311	H31	0.113100	0.938600	0.381000
H321	H32	0.145100	0.792300	0.410100
H331	H33	0.044900	0.185700	0.433500
H341	H34	0.010800	0.322000	0.403800
H351	H35	0.031900	0.123700	0.320300
H361	H36	0.067100	0.982300	0.349900
H371	H37	0.230300	0.668600	0.437400
H381	H38	0.279100	0.589000	0.417300
H391	H39	0.256900	0.228600	0.452000
H401	H40	0.211500	0.309500	0.476100
H411	H41	0.122000	0.690600	0.569500
H421	H42	0.103000	0.623500	0.620700
H431	H43	0.130600	0.254600	0.599200
H441	H44	0.146100	0.318300	0.547900
H451	H45	0.104900	0.565000	0.670900
H461	H46	0.088400	0.503900	0.723000
H471	H47	0.083800	0.130500	0.692300
H481	H48	0.097000	0.199000	0.639700
H491	H49	0.287400	0.158100	0.408500
H501	H50	0.333900	0.075900	0.385100
H511	H51	0.372100	0.441500	0.385900
H521	H52	0.328100	0.517800	0.412400
H531	H53	0.490000	0.186100	0.198200
H541	H54	0.508400	0.012300	0.165400
H551	H55	0.528300	0.819800	0.192800
H561	H56	0.512900	0.781600	0.245600
H571	H57	0.489600	0.951700	0.276100
H581	H58	0.416600	0.061100	0.928600
H591	H59	0.398600	0.866400	0.843500
H601	H60	0.469700	0.089600	0.898300
H611	H61	0.501400	0.226600	0.869900
H621	H62	0.403400	0.097300	0.824800
H631	H63	0.437600	0.236600	0.795400
H641	H64	0.369400	0.002900	0.291700
H651	H65	0.324800	0.331000	0.297600
H661	H66	0.322300	0.884900	0.292100
H671	H67	0.274000	0.217800	0.304000
H681	H68	0.276800	0.987100	0.306800
C691	C69	0.351890	0.702700	0.936730
C701	C70	0.325690	0.636800	0.921640
C711	C71	0.306440	0.544700	0.938830
C721	C72	0.315460	0.515500	0.970910
C731	C73	0.340920	0.577100	0.986380
C741	C74	0.359050	0.670000	0.969050
C751	C75	0.351460	0.537800	0.021070
C761	C76	0.383350	0.544300	0.031550
C771	C77	0.392700	0.509500	0.063150
C781	C78	0.370710	0.464200	0.085680
C791	C79	0.337550	0.460300	0.075710
C801	C80	0.329120	0.496600	0.043830
C811	C81	0.380900	0.426900	0.120770
C821	C82	0.412730	0.393800	0.128100
C831	C83	0.422200	0.357800	0.159620
C841	C84	0.398900	0.352500	0.185220
C851	C85	0.367430	0.384600	0.177270
C861	C86	0.358200	0.422400	0.145830
C871	C87	0.279670	0.477000	0.921210
C881	C88	0.252080	0.442700	0.937700
C891	C89	0.225200	0.380200	0.921160
C901	C90	0.228990	0.346300	0.888230
C911	C91	0.257910	0.379700	0.871320
C921	C92	0.282500	0.444400	0.888290
C931	C93	0.202190	0.274200	0.870400
C941	C94	0.208670	0.182600	0.845170
C951	C95	0.183790	0.117500	0.828850
C961	C96	0.144560	0.232200	0.861830
C971	C97	0.169000	0.297000	0.878520
C981	C98	0.387110	0.904300	0.933650
C991	C99	0.372100	0.801300	0.917700
C1001	C100	0.376000	0.789300	0.883240
C1011	C101	0.409270	0.316500	0.219450
C1021	C102	0.138230	0.701400	0.471040
C1031	C103	0.128990	0.657800	0.502310
C1041	C104	0.146320	0.558500	0.519780
C1051	C105	0.174200	0.507400	0.505190
C1061	C106	0.185170	0.551100	0.474240
C1071	C107	0.167580	0.648300	0.458230
C1081	C108	0.118720	0.797800	0.451870
C1091	C109	0.090970	0.856100	0.464910
C1101	C110	0.072530	0.941400	0.447190
C1111	C111	0.079810	0.973400	0.415720
C1121	C112	0.107150	0.917000	0.402770
C1131	C113	0.126600	0.829500	0.420120
C1141	C114	0.058900	0.067400	0.395730
C1151	C115	0.042170	0.171100	0.410630
C1161	C116	0.021760	0.253100	0.392890
C1171	C117	0.017330	0.235600	0.359920
C1181	C118	0.034500	0.134400	0.343260
C1191	C119	0.055560	0.049400	0.360930
C1201	C120	0.214880	0.496900	0.459760
C1211	C121	0.236020	0.579900	0.441090
C1221	C122	0.264870	0.530800	0.428320
C1231	C123	0.273860	0.395600	0.431230
C1241	C124	0.252160	0.318800	0.449330
C1251	C125	0.224510	0.366700	0.463440
C1261	C126	0.134940	0.516800	0.552390
C1271	C127	0.123140	0.600500	0.575010
C1281	C128	0.112400	0.561200	0.606410
C1291	C129	0.115620	0.430100	0.616680
C1301	C130	0.128330	0.344000	0.593350
C1311	C131	0.137720	0.381400	0.562650
C1321	C132	0.104510	0.389800	0.650240
C1331	C133	0.100710	0.475300	0.675040
C1341	C134	0.091000	0.439700	0.706380
C1351	C135	0.085150	0.307900	0.713090
C1361	C136	0.087900	0.220400	0.688300
C1371	C137	0.096500	0.261200	0.656990
C1381	C138	0.303070	0.347000	0.415240
C1391	C139	0.305240	0.214600	0.405000
C1401	C140	0.332610	0.166300	0.390130
C1411	C141	0.355310	0.382200	0.391170
C1421	C142	0.329050	0.427700	0.406850
C1431	C143	0.993130	0.311200	0.339340
C1441	C144	0.493910	0.102900	0.207720
C1451	C145	0.506400	0.002600	0.188510
C1461	C146	0.516300	0.883700	0.204500
C1471	C147	0.508740	0.863700	0.235560
C1481	C148	0.494400	0.965700	0.253580
C1491	C149	0.358800	0.249700	0.382320
C1501	C150	0.152190	0.143500	0.836730
C1511	C151	0.411670	0.980800	0.882670
C1521	C152	0.406540	0.992000	0.916900
C1531	C153	0.432190	0.079200	0.864120
C1541	C154	0.125030	0.071900	0.818670
C1551	C155	0.395750	0.876800	0.866430
C1561	C156	0.387460	0.199900	0.363640
C1571	C157	0.075460	0.265300	0.746610
C1581	C158	0.473450	0.249700	0.829110
C1591	C159	0.462890	0.120200	0.877470
C1601	C160	0.481460	0.200500	0.860450
C1611	C161	0.423450	0.123300	0.834070
C1621	C162	0.444000	0.207500	0.816500
C1631	C163	0.349560	0.048200	0.294110
C1641	C164	0.324670	0.238200	0.298200
C1651	C165	0.494720	0.341100	0.809950
C1661	C166	0.322000	0.976600	0.295600
C1671	C167	0.293760	0.172000	0.301900
C1681	C168	0.295600	0.036500	0.301900
N1691	N169	0.487160	0.083400	0.240060
N1701	N170	0.350440	0.181200	0.295820
O1711	O171	0.438310	0.285700	0.225010
O1721	O172	0.387390	0.319700	0.241250
O1731	O173	0.060080	0.880600	0.795450
O1741	O174	0.077980	0.341700	0.770930
O1751	O175	0.994440	0.308100	0.309690
O1761	O176	0.972430	0.370900	0.356040
O1771	O177	0.425710	0.119800	0.288920
O1781	O178	0.132270	0.974200	0.801210
O1791	O179	0.394410	0.079700	0.364540
O1801	O180	0.095910	0.117400	0.823160
O1811	O181	0.403990	0.284100	0.347150
O1821	O182	0.066950	0.142400	0.749930
O1831	O183	0.484280	0.399400	0.784870
O1841	O184	0.524830	0.350100	0.819550
H1851	H185	0.425710	0.015150	0.283970
H1861	H186	0.439920	0.380600	0.320210
Zn1871	Zn187	0.940700	0.927700	0.293310
Zn1881	Zn188	0.606460	0.703810	0.790060
Zn1891	Zn189	0.535480	0.763930	0.767000
Zn1901	Zn190	0.066900	0.564480	0.834670
H1911	H191	0.679100	0.345200	0.399300
H1921	H192	0.696300	0.549100	0.482600
H1931	H193	0.623300	0.288300	0.479600
H1941	H194	0.600600	0.426500	0.516600
H1951	H195	0.585300	0.482800	0.569300
H1961	H196	0.678600	0.566900	0.590700
H1971	H197	0.692900	0.507200	0.537600
H1981	H198	0.571600	0.604200	0.611100
H1991	H199	0.555900	0.663100	0.664000
H2001	H200	0.648500	0.619400	0.693900
H2011	H201	0.663600	0.554800	0.641500
H2021	H202	0.749500	0.539600	0.460500
H2031	H203	0.794400	0.637200	0.432400
H2041	H204	0.739500	0.641700	0.348800
H2051	H205	0.698300	0.533300	0.376900
H2061	H206	0.769600	0.834800	0.339200
H2071	H207	0.811300	0.944700	0.312300
H2081	H208	0.877300	0.752100	0.367400
H2091	H209	0.836300	0.643000	0.395400
H2101	H210	0.616000	0.085000	0.456600
H2111	H211	0.634800	0.278100	0.371700
H2121	H212	0.889500	0.304400	0.012300
H2131	H213	0.814000	0.558400	0.016400
H2141	H214	0.824600	0.319300	0.937900
H2151	H215	0.915200	0.164300	0.986700
H2161	H216	0.945900	0.020600	0.957200
H2171	H217	0.886900	0.061400	0.881000
H2181	H218	0.854900	0.207700	0.910100
H2191	H219	0.955100	0.814300	0.933500
H2201	H220	0.989200	0.678000	0.903800
H2211	H221	0.968100	0.876300	0.820300
H2221	H222	0.932900	0.017700	0.849900
H2231	H223	0.769700	0.331400	0.937400
H2241	H224	0.720900	0.411000	0.917300
H2251	H225	0.743100	0.771400	0.952000
H2261	H226	0.788500	0.690500	0.976100
H2271	H227	0.878000	0.309400	0.069500
H2281	H228	0.897000	0.376500	0.120700
H2291	H229	0.869400	0.745400	0.099200
H2301	H230	0.853900	0.681700	0.047900
H2311	H231	0.895100	0.435000	0.170900
H2321	H232	0.911600	0.496100	0.223000
H2331	H233	0.916200	0.869500	0.192300
H2341	H234	0.903000	0.801000	0.139700
H2351	H235	0.712600	0.841900	0.908500
H2361	H236	0.666100	0.924100	0.885100
H2371	H237	0.627900	0.558500	0.885900
H2381	H238	0.671900	0.482200	0.912400
H2391	H239	0.510000	0.813900	0.698200
H2401	H240	0.491600	0.987700	0.665400
H2411	H241	0.471700	0.180200	0.692800
H2421	H242	0.487100	0.218400	0.745600
H2431	H243	0.510400	0.048300	0.776100
H2441	H244	0.583400	0.938900	0.428600
H2451	H245	0.601400	0.133600	0.343500
H2461	H246	0.530300	0.910400	0.398300
H2471	H247	0.498600	0.773400	0.369900
H2481	H248	0.596600	0.902700	0.324800
H2491	H249	0.562400	0.763400	0.295400
H2501	H250	0.630600	0.997100	0.791700
H2511	H251	0.675200	0.669000	0.797600
H2521	H252	0.677700	0.115100	0.792100
H2531	H253	0.726000	0.782200	0.804000
H2541	H254	0.723200	0.012900	0.806800
C2551	C255	0.648110	0.297300	0.436730
C2561	C256	0.674310	0.363200	0.421640
C2571	C257	0.693560	0.455300	0.438830
C2581	C258	0.684540	0.484500	0.470910
C2591	C259	0.659080	0.422900	0.486380
C2601	C260	0.640950	0.330000	0.469050
C2611	C261	0.648540	0.462200	0.521070
C2621	C262	0.616650	0.455700	0.531550
C2631	C263	0.607300	0.490500	0.563150
C2641	C264	0.629290	0.535800	0.585680
C2651	C265	0.662450	0.539700	0.575710
C2661	C266	0.670880	0.503400	0.543830
C2671	C267	0.619100	0.573100	0.620770
C2681	C268	0.587270	0.606200	0.628100
C2691	C269	0.577800	0.642200	0.659620
C2701	C270	0.601100	0.647500	0.685220
C2711	C271	0.632570	0.615400	0.677270
C2721	C272	0.641800	0.577600	0.645830
C2731	C273	0.720330	0.523000	0.421210
C2741	C274	0.747920	0.557300	0.437700
C2751	C275	0.774800	0.619800	0.421160
C2761	C276	0.771010	0.653700	0.388230
C2771	C277	0.742090	0.620300	0.371320
C2781	C278	0.717500	0.555600	0.388290
C2791	C279	0.797810	0.725800	0.370400
C2801	C280	0.791330	0.817400	0.345170
C2811	C281	0.816210	0.882500	0.328850
C2821	C282	0.855440	0.767800	0.361830
C2831	C283	0.831000	0.703000	0.378520
C2841	C284	0.612890	0.095700	0.433650
C2851	C285	0.627900	0.198700	0.417700
C2861	C286	0.624000	0.210700	0.383240
C2871	C287	0.590730	0.683500	0.719450
C2881	C288	0.861770	0.298600	0.971040
C2891	C289	0.871010	0.342200	0.002310
C2901	C290	0.853680	0.441500	0.019780
C2911	C291	0.825800	0.492600	0.005190
C2921	C292	0.814830	0.448900	0.974240
C2931	C293	0.832420	0.351700	0.958230
C2941	C294	0.881280	0.202200	0.951870
C2951	C295	0.909030	0.143900	0.964910
C2961	C296	0.927470	0.058600	0.947190
C2971	C297	0.920190	0.026600	0.915720
C2981	C298	0.892850	0.083000	0.902770
C2991	C299	0.873400	0.170500	0.920120
C3001	C300	0.941100	0.932600	0.895730
C3011	C301	0.957830	0.828900	0.910630
C3021	C302	0.978240	0.746900	0.892890
C3031	C303	0.982670	0.764400	0.859920
C3041	C304	0.965500	0.865600	0.843260
C3051	C305	0.944440	0.950600	0.860930
C3061	C306	0.785120	0.503100	0.959760
C3071	C307	0.763980	0.420100	0.941090
C3081	C308	0.735130	0.469200	0.928320
C3091	C309	0.726140	0.604400	0.931230
C3101	C310	0.747840	0.681200	0.949330
C3111	C311	0.775490	0.633300	0.963440
C3121	C312	0.865060	0.483200	0.052390
C3131	C313	0.876860	0.399500	0.075010
C3141	C314	0.887600	0.438800	0.106410
C3151	C315	0.884380	0.569900	0.116680
C3161	C316	0.871670	0.656000	0.093350
C3171	C317	0.862280	0.618600	0.062650
C3181	C318	0.895490	0.610200	0.150240
C3191	C319	0.899290	0.524700	0.175040
C3201	C320	0.909000	0.560300	0.206380
C3211	C321	0.914850	0.692100	0.213090
C3221	C322	0.912100	0.779600	0.188300
C3231	C323	0.903500	0.738800	0.156990
C3241	C324	0.696930	0.653000	0.915240
C3251	C325	0.694760	0.785400	0.905000
C3261	C326	0.667390	0.833700	0.890130
C3271	C327	0.644690	0.617800	0.891170
C3281	C328	0.670950	0.572300	0.906850
C3291	C329	0.006870	0.688800	0.839340
C3301	C330	0.506090	0.897100	0.707720
C3311	C331	0.493600	0.997400	0.688510
C3321	C332	0.483700	0.116300	0.704500
C3331	C333	0.491260	0.136300	0.735560
C3341	C334	0.505600	0.034300	0.753580
C3351	C335	0.641200	0.750300	0.882320
C3361	C336	0.847810	0.856500	0.336730
C3371	C337	0.588330	0.019200	0.382670
C3381	C338	0.593460	0.008000	0.416900
C3391	C339	0.567810	0.920800	0.364120
C3401	C340	0.874970	0.928100	0.318670
C3411	C341	0.604250	0.123200	0.366430
C3421	C342	0.612540	0.800100	0.863640
C3431	C343	0.924540	0.734700	0.246610
C3441	C344	0.526550	0.750300	0.329110
C3451	C345	0.537110	0.879800	0.377470
C3461	C346	0.518540	0.799500	0.360450
C3471	C347	0.576550	0.876700	0.334070
C3481	C348	0.556000	0.792500	0.316500
C3491	C349	0.650440	0.951800	0.794110
C3501	C350	0.675330	0.761800	0.798200
C3511	C351	0.505280	0.658900	0.309950
C3521	C352	0.678000	0.023400	0.795600
C3531	C353	0.706240	0.828000	0.801900
C3541	C354	0.704400	0.963500	0.801900
N3551	N355	0.512840	0.916600	0.740060
N3561	N356	0.649560	0.818800	0.795820
O3571	O357	0.561690	0.714300	0.725010
O3581	O358	0.612610	0.680300	0.741250
O3591	O359	0.939920	0.119400	0.295450
O3601	O360	0.922020	0.658300	0.270930
O3611	O361	0.005560	0.691900	0.809690
O3621	O362	0.027570	0.629100	0.856040
O3631	O363	0.574290	0.880200	0.788920
O3641	O364	0.867730	0.025800	0.301210
O3651	O365	0.605590	0.920300	0.864540
O3661	O366	0.904090	0.882600	0.323160
O3671	O367	0.596010	0.715900	0.847150
O3681	O368	0.933050	0.857600	0.249930
O3691	O369	0.515720	0.600600	0.284870
O3701	O370	0.475170	0.649900	0.319550
H3711	H371	0.574290	0.984850	0.783970
H3721	H372	0.560080	0.619400	0.820210
Zn3731	Zn373	0.559300	0.427700	0.793310
Zn3741	Zn374	0.893540	0.203810	0.290060
Zn3751	Zn375	0.964520	0.263930	0.267000
Zn3761	Zn376	0.433100	0.064480	0.334670
H3771	H377	0.820900	0.845200	0.899300
H3781	H378	0.803700	0.049100	0.982600
H3791	H379	0.876700	0.788300	0.979600
H3801	H380	0.899400	0.926500	0.016600
H3811	H381	0.914700	0.982800	0.069300
H3821	H382	0.821400	0.066900	0.090700
H3831	H383	0.807100	0.007200	0.037600
H3841	H384	0.928400	0.104200	0.111100
H3851	H385	0.944100	0.163100	0.164000
H3861	H386	0.851500	0.119400	0.193900
H3871	H387	0.836400	0.054800	0.141500
H3881	H388	0.750500	0.039600	0.960500
H3891	H389	0.705600	0.137200	0.932400
H3901	H390	0.760500	0.141700	0.848800
H3911	H391	0.801700	0.033300	0.876900
H3921	H392	0.730400	0.334800	0.839200
H3931	H393	0.688700	0.444700	0.812300
H3941	H394	0.622700	0.252100	0.867400
H3951	H395	0.663700	0.143000	0.895400
H3961	H396	0.884000	0.585000	0.956600
H3971	H397	0.865200	0.778100	0.871700
H3981	H398	0.610500	0.804400	0.512300
H3991	H399	0.686000	0.058400	0.516400
H4001	H400	0.675400	0.819300	0.437900
H4011	H401	0.584800	0.664300	0.486700
H4021	H402	0.554100	0.520600	0.457200
H4031	H403	0.613100	0.561400	0.381000
H4041	H404	0.645100	0.707700	0.410100
H4051	H405	0.544900	0.314300	0.433500
H4061	H406	0.510800	0.178000	0.403800
H4071	H407	0.531900	0.376300	0.320300
H4081	H408	0.567100	0.517700	0.349900
H4091	H409	0.730300	0.831400	0.437400
H4101	H410	0.779100	0.911000	0.417300
H4111	H411	0.756900	0.271400	0.452000
H4121	H412	0.711500	0.190500	0.476100
H4131	H413	0.622000	0.809400	0.569500
H4141	H414	0.603000	0.876500	0.620700
H4151	H415	0.630600	0.245400	0.599200
H4161	H416	0.646100	0.181700	0.547900
H4171	H417	0.604900	0.935000	0.670900
H4181	H418	0.588400	0.996100	0.723000
H4191	H419	0.583800	0.369500	0.692300
H4201	H420	0.597000	0.301000	0.639700
H4211	H421	0.787400	0.341900	0.408500
H4221	H422	0.833900	0.424100	0.385100
H4231	H423	0.872100	0.058500	0.385900
H4241	H424	0.828100	0.982200	0.412400
H4251	H425	0.990000	0.313900	0.198200
H4261	H426	0.008400	0.487700	0.165400
H4271	H427	0.028300	0.680200	0.192800
H4281	H428	0.012900	0.718400	0.245600
H4291	H429	0.989600	0.548300	0.276100
H4301	H430	0.916600	0.438900	0.928600
H4311	H431	0.898600	0.633600	0.843500
H4321	H432	0.969700	0.410400	0.898300
H4331	H433	0.001400	0.273400	0.869900
H4341	H434	0.903400	0.402700	0.824800
H4351	H435	0.937600	0.263400	0.795400
H4361	H436	0.869400	0.497100	0.291700
H4371	H437	0.824800	0.169000	0.297600
H4381	H438	0.822300	0.615100	0.292100
H4391	H439	0.774000	0.282200	0.304000
H4401	H440	0.776800	0.512900	0.306800
C4411	C441	0.851890	0.797300	0.936730
C4421	C442	0.825690	0.863200	0.921640
C4431	C443	0.806440	0.955300	0.938830
C4441	C444	0.815460	0.984500	0.970910
C4451	C445	0.840920	0.922900	0.986380
C4461	C446	0.859050	0.830000	0.969050
C4471	C447	0.851460	0.962200	0.021070
C4481	C448	0.883350	0.955700	0.031550
C4491	C449	0.892700	0.990500	0.063150
C4501	C450	0.870710	0.035800	0.085680
C4511	C451	0.837550	0.039700	0.075710
C4521	C452	0.829120	0.003400	0.043830
C4531	C453	0.880900	0.073100	0.120770
C4541	C454	0.912730	0.106200	0.128100
C4551	C455	0.922200	0.142200	0.159620
C4561	C456	0.898900	0.147500	0.185220
C4571	C457	0.867430	0.115400	0.177270
C4581	C458	0.858200	0.077600	0.145830
C4591	C459	0.779670	0.023000	0.921210
C4601	C460	0.752080	0.057300	0.937700
C4611	C461	0.725200	0.119800	0.921160
C4621	C462	0.728990	0.153700	0.888230
C4631	C463	0.757910	0.120300	0.871320
C4641	C464	0.782500	0.055600	0.888290
C4651	C465	0.702190	0.225800	0.870400
C4661	C466	0.708670	0.317400	0.845170
C4671	C467	0.683790	0.382500	0.828850
C4681	C468	0.644560	0.267800	0.861830
C4691	C469	0.669000	0.203000	0.878520
C4701	C470	0.887110	0.595700	0.933650
C4711	C471	0.872100	0.698700	0.917700
C4721	C472	0.876000	0.710700	0.883240
C4731	C473	0.909270	0.183500	0.219450
C4741	C474	0.638230	0.798600	0.471040
C4751	C475	0.628990	0.842200	0.502310
C4761	C476	0.646320	0.941500	0.519780
C4771	C477	0.674200	0.992600	0.505190
C4781	C478	0.685170	0.948900	0.474240
C4791	C479	0.667580	0.851700	0.458230
C4801	C480	0.618720	0.702200	0.451870
C4811	C481	0.590970	0.643900	0.464910
C4821	C482	0.572530	0.558600	0.447190
C4831	C483	0.579810	0.526600	0.415720
C4841	C484	0.607150	0.583000	0.402770
C4851	C485	0.626600	0.670500	0.420120
C4861	C486	0.558900	0.432600	0.395730
C4871	C487	0.542170	0.328900	0.410630
C4881	C488	0.521760	0.246900	0.392890
C4891	C489	0.517330	0.264400	0.359920
C4901	C490	0.534500	0.365600	0.343260
C4911	C491	0.555560	0.450600	0.360930
C4921	C492	0.714880	0.003100	0.459760
C4931	C493	0.736020	0.920100	0.441090
C4941	C494	0.764870	0.969200	0.428320
C4951	C495	0.773860	0.104400	0.431230
C4961	C496	0.752160	0.181200	0.449330
C4971	C497	0.724510	0.133300	0.463440
C4981	C498	0.634940	0.983200	0.552390
C4991	C499	0.623140	0.899500	0.575010
C5001	C500	0.612400	0.938800	0.606410
C5011	C501	0.615620	0.069900	0.616680
C5021	C502	0.628330	0.156000	0.593350
C5031	C503	0.637720	0.118600	0.562650
C5041	C504	0.604510	0.110200	0.650240
C5051	C505	0.600710	0.024700	0.675040
C5061	C506	0.591000	0.060300	0.706380
C5071	C507	0.585150	0.192100	0.713090
C5081	C508	0.587900	0.279600	0.688300
C5091	C509	0.596500	0.238800	0.656990
C5101	C510	0.803070	0.153000	0.415240
C5111	C511	0.805240	0.285400	0.405000
C5121	C512	0.832610	0.333700	0.390130
C5131	C513	0.855310	0.117800	0.391170
C5141	C514	0.829050	0.072300	0.406850
C5151	C515	0.493130	0.188800	0.339340
C5161	C516	0.993910	0.397100	0.207720
C5171	C517	0.006400	0.497400	0.188510
C5181	C518	0.016300	0.616300	0.204500
C5191	C519	0.008740	0.636300	0.235560
C5201	C520	0.994400	0.534300	0.253580
C5211	C521	0.858800	0.250300	0.382320
C5221	C522	0.652190	0.356500	0.836730
C5231	C523	0.911670	0.519200	0.882670
C5241	C524	0.906540	0.508000	0.916900
C5251	C525	0.932190	0.420800	0.864120
C5261	C526	0.625030	0.428100	0.818670
C5271	C527	0.895750	0.623200	0.866430
C5281	C528	0.887460	0.300100	0.363640
C5291	C529	0.575460	0.234700	0.746610
C5301	C530	0.973450	0.250300	0.829110
C5311	C531	0.962890	0.379800	0.877470
C5321	C532	0.981460	0.299500	0.860450
C5331	C533	0.923450	0.376700	0.834070
C5341	C534	0.944000	0.292500	0.816500
C5351	C535	0.849560	0.451800	0.294110
C5361	C536	0.824670	0.261800	0.298200
C5371	C537	0.994720	0.158900	0.809950
C5381	C538	0.822000	0.523400	0.295600
C5391	C539	0.793760	0.328000	0.301900
C5401	C540	0.795600	0.463500	0.301900
N5411	N541	0.987160	0.416600	0.240060
N5421	N542	0.850440	0.318800	0.295820
O5431	O543	0.938310	0.214300	0.225010
O5441	O544	0.887390	0.180300	0.241250
O5451	O545	0.560080	0.619400	0.795450
O5461	O546	0.577980	0.158300	0.770930
O5471	O547	0.494440	0.191900	0.309690
O5481	O548	0.472430	0.129100	0.356040
O5491	O549	0.925710	0.380200	0.288920
O5501	O550	0.632270	0.525800	0.801210
O5511	O551	0.894410	0.420300	0.364540
O5521	O552	0.595910	0.382600	0.823160
O5531	O553	0.903990	0.215900	0.347150
O5541	O554	0.566950	0.357600	0.749930
O5551	O555	0.984280	0.100600	0.784870
O5561	O556	0.024830	0.149900	0.819550
H5571	H557	0.925710	0.484850	0.283970
H5581	H558	0.939920	0.119400	0.320210
Zn5591	Zn559	0.440700	0.572300	0.293310
Zn5601	Zn560	0.106460	0.796190	0.790060
Zn5611	Zn561	0.035480	0.736070	0.767000
Zn5621	Zn562	0.566900	0.935520	0.834670
H5631	H563	0.179100	0.154800	0.399300
H5641	H564	0.196300	0.950900	0.482600
H5651	H565	0.123300	0.211700	0.479600
H5661	H566	0.100600	0.073500	0.516600
H5671	H567	0.085300	0.017200	0.569300
H5681	H568	0.178600	0.933100	0.590700
H5691	H569	0.192900	0.992800	0.537600
H5701	H570	0.071600	0.895800	0.611100
H5711	H571	0.055900	0.836900	0.664000
H5721	H572	0.148500	0.880600	0.693900
H5731	H573	0.163600	0.945200	0.641500
H5741	H574	0.249500	0.960400	0.460500
H5751	H575	0.294400	0.862800	0.432400
H5761	H576	0.239500	0.858300	0.348800
H5771	H577	0.198300	0.966700	0.376900
H5781	H578	0.269600	0.665200	0.339200
H5791	H579	0.311300	0.555300	0.312300
H5801	H580	0.377300	0.747900	0.367400
H5811	H581	0.336300	0.857000	0.395400
H5821	H582	0.116000	0.415000	0.456600
H5831	H583	0.134800	0.221900	0.371700
H5841	H584	0.389500	0.195600	0.012300
H5851	H585	0.314000	0.941600	0.016400
H5861	H586	0.324600	0.180700	0.937900
H5871	H587	0.415200	0.335700	0.986700
H5881	H588	0.445900	0.479400	0.957200
H5891	H589	0.386900	0.438600	0.881000
H5901	H590	0.354900	0.292300	0.910100
H5911	H591	0.455100	0.685700	0.933500
H5921	H592	0.489200	0.822000	0.903800
H5931	H593	0.468100	0.623700	0.820300
H5941	H594	0.432900	0.482300	0.849900
H5951	H595	0.269700	0.168600	0.937400
H5961	H596	0.220900	0.089000	0.917300
H5971	H597	0.243100	0.728600	0.952000
H5981	H598	0.288500	0.809500	0.976100
H5991	H599	0.378000	0.190600	0.069500
H6001	H600	0.397000	0.123500	0.120700
H6011	H601	0.369400	0.754600	0.099200
H6021	H602	0.353900	0.818300	0.047900
H6031	H603	0.395100	0.065000	0.170900
H6041	H604	0.411600	0.003900	0.223000
H6051	H605	0.416200	0.630500	0.192300
H6061	H606	0.403000	0.699000	0.139700
H6071	H607	0.212600	0.658100	0.908500
H6081	H608	0.166100	0.575900	0.885100
H6091	H609	0.127900	0.941500	0.885900
H6101	H610	0.171900	0.017800	0.912400
H6111	H611	0.010000	0.686100	0.698200
H6121	H612	0.991600	0.512300	0.665400
H6131	H613	0.971700	0.319800	0.692800
H6141	H614	0.987100	0.281600	0.745600
H6151	H615	0.010400	0.451700	0.776100
H6161	H616	0.083400	0.561100	0.428600
H6171	H617	0.101400	0.366400	0.343500
H6181	H618	0.030300	0.589600	0.398300
H6191	H619	0.998600	0.726600	0.369900
H6201	H620	0.096600	0.597300	0.324800
H6211	H621	0.062400	0.736600	0.295400
H6221	H622	0.130600	0.502900	0.791700
H6231	H623	0.175200	0.831000	0.797600
H6241	H624	0.177700	0.384900	0.792100
H6251	H625	0.226000	0.717800	0.804000
H6261	H626	0.223200	0.487100	0.806800
C6271	C627	0.148110	0.202700	0.436730
C6281	C628	0.174310	0.136800	0.421640
C6291	C629	0.193560	0.044700	0.438830
C6301	C630	0.184540	0.015500	0.470910
C6311	C631	0.159080	0.077100	0.486380
C6321	C632	0.140950	0.170000	0.469050
C6331	C633	0.148540	0.037800	0.521070
C6341	C634	0.116650	0.044300	0.531550
C6351	C635	0.107300	0.009500	0.563150
C6361	C636	0.129290	0.964200	0.585680
C6371	C637	0.162450	0.960300	0.575710
C6381	C638	0.170880	0.996600	0.543830
C6391	C639	0.119100	0.926900	0.620770
C6401	C640	0.087270	0.893800	0.628100
C6411	C641	0.077800	0.857800	0.659620
C6421	C642	0.101100	0.852500	0.685220
C6431	C643	0.132570	0.884600	0.677270
C6441	C644	0.141800	0.922400	0.645830
C6451	C645	0.220330	0.977000	0.421210
C6461	C646	0.247920	0.942700	0.437700
C6471	C647	0.274800	0.880200	0.421160
C6481	C648	0.271010	0.846300	0.388230
C6491	C649	0.242090	0.879700	0.371320
C6501	C650	0.217500	0.944400	0.388290
C6511	C651	0.297810	0.774200	0.370400
C6521	C652	0.291330	0.682600	0.345170
C6531	C653	0.316210	0.617500	0.328850
C6541	C654	0.355440	0.732200	0.361830
C6551	C655	0.331000	0.797000	0.378520
C6561	C656	0.112890	0.404300	0.433650
C6571	C657	0.127900	0.301300	0.417700
C6581	C658	0.124000	0.289300	0.383240
C6591	C659	0.090730	0.816500	0.719450
C6601	C660	0.361770	0.201400	0.971040
C6611	C661	0.371010	0.157800	0.002310
C6621	C662	0.353680	0.058500	0.019780
C6631	C663	0.325800	0.007400	0.005190
C6641	C664	0.314830	0.051100	0.974240
C6651	C665	0.332420	0.148300	0.958230
C6661	C666	0.381280	0.297800	0.951870
C6671	C667	0.409030	0.356100	0.964910
C6681	C668	0.427470	0.441400	0.947190
C6691	C669	0.420190	0.473400	0.915720
C6701	C670	0.392850	0.417000	0.902770
C6711	C671	0.373400	0.329500	0.920120
C6721	C672	0.441100	0.567400	0.895730
C6731	C673	0.457830	0.671100	0.910630
C6741	C674	0.478240	0.753100	0.892890
C6751	C675	0.482670	0.735600	0.859920
C6761	C676	0.465500	0.634400	0.843260
C6771	C677	0.444440	0.549400	0.860930
C6781	C678	0.285120	0.996900	0.959760
C6791	C679	0.263980	0.079900	0.941090
C6801	C680	0.235130	0.030800	0.928320
C6811	C681	0.226140	0.895600	0.931230
C6821	C682	0.247840	0.818800	0.949330
C6831	C683	0.275490	0.866700	0.963440
C6841	C684	0.365060	0.016800	0.052390
C6851	C685	0.376860	0.100500	0.075010
C6861	C686	0.387600	0.061200	0.106410
C6871	C687	0.384380	0.930100	0.116680
C6881	C688	0.371670	0.844000	0.093350
C6891	C689	0.362280	0.881400	0.062650
C6901	C690	0.395490	0.889800	0.150240
C6911	C691	0.399290	0.975300	0.175040
C6921	C692	0.409000	0.939700	0.206380
C6931	C693	0.414850	0.807900	0.213090
C6941	C694	0.412100	0.720400	0.188300
C6951	C695	0.403500	0.761200	0.156990
C6961	C696	0.196930	0.847000	0.915240
C6971	C697	0.194760	0.714600	0.905000
C6981	C698	0.167390	0.666300	0.890130
C6991	C699	0.144690	0.882200	0.891170
C7001	C700	0.170950	0.927700	0.906850
C7011	C701	0.506870	0.811200	0.839340
C7021	C702	0.006090	0.602900	0.707720
C7031	C703	0.993600	0.502600	0.688510
C7041	C704	0.983700	0.383700	0.704500
C7051	C705	0.991260	0.363700	0.735560
C7061	C706	0.005600	0.465700	0.753580
C7071	C707	0.141200	0.749700	0.882320
C7081	C708	0.347810	0.643500	0.336730
C7091	C709	0.088330	0.480800	0.382670
C7101	C710	0.093460	0.492000	0.416900
C7111	C711	0.067810	0.579200	0.364120
C7121	C712	0.374970	0.571900	0.318670
C7131	C713	0.104250	0.376800	0.366430
C7141	C714	0.112540	0.699900	0.863640
C7151	C715	0.424540	0.765300	0.246610
C7161	C716	0.026550	0.749700	0.329110
C7171	C717	0.037110	0.620200	0.377470
C7181	C718	0.018540	0.700500	0.360450
C7191	C719	0.076550	0.623300	0.334070
C7201	C720	0.056000	0.707500	0.316500
C7211	C721	0.150440	0.548200	0.794110
C7221	C722	0.175330	0.738200	0.798200
C7231	C723	0.005280	0.841100	0.309950
C7241	C724	0.178000	0.476600	0.795600
C7251	C725	0.206240	0.672000	0.801900
C7261	C726	0.204400	0.536500	0.801900
N7271	N727	0.012840	0.583400	0.740060
N7281	N728	0.149560	0.681200	0.795820
O7291	O729	0.061690	0.785700	0.725010
O7301	O730	0.112610	0.819700	0.741250
O7311	O731	0.439920	0.380600	0.295450
O7321	O732	0.422020	0.841700	0.270930
O7331	O733	0.505560	0.808100	0.809690
O7341	O734	0.527570	0.870900	0.856040
O7351	O735	0.074290	0.619800	0.788920
O7361	O736	0.367730	0.474200	0.301210
O7371	O737	0.105590	0.579700	0.864540
O7381	O738	0.404090	0.617400	0.323160
O7391	O739	0.096010	0.784100	0.847150
O7401	O740	0.433050	0.642400	0.249930
O7411	O741	0.015720	0.899400	0.284870
O7421	O742	0.975170	0.850100	0.319550
H7431	H743	0.074290	0.515150	0.783970
H7441	H744	0.060080	0.880600	0.820210
