data_JENKIX_SL_PM
_symmetry_space_group_name_H-M	'P1'
_cell_length_a	45.922200
_cell_length_b	15.076300
_cell_length_c	34.621500
_cell_angle_alpha	90.000000
_cell_angle_beta	117.310000
_cell_angle_gamma	90.000000
_symmetry_Int_Tables_number 1

loop_
_symmetry_equiv_pos_as_xyz
'x,y,z'

loop_
_atom_site_label
_atom_site_type_symbol
_atom_site_fract_x
_atom_site_fract_y
_atom_site_fract_z
Zn11	Zn1	0.207200	0.617490	0.008190
Zn21	Zn2	0.720200	0.785980	0.350550
Zn31	Zn3	0.285830	0.197080	0.394690
Zn41	Zn4	0.268780	0.750120	0.050500
O51	O5	0.219900	0.733670	0.998920
C61	C6	0.385300	0.040100	0.258480
C71	C7	0.367800	0.974400	0.267570
H81	H8	0.344800	0.980200	0.256500
C91	C9	0.383490	0.901200	0.292420
C101	C10	0.417440	0.893800	0.308170
H111	H11	0.428400	0.843100	0.324800
O121	O12	0.684380	0.764850	0.398860
O131	O13	0.679120	0.839850	0.340590
C141	C14	0.368120	0.116100	0.230040
C151	C15	0.382940	0.199400	0.237020
H161	H16	0.404100	0.208000	0.260800
C171	C17	0.367010	0.270300	0.209430
H181	H18	0.377500	0.326400	0.214600
C191	C19	0.336040	0.260000	0.174460
C201	C20	0.321150	0.176300	0.166910
H211	H21	0.300100	0.167700	0.143100
C221	C22	0.337140	0.106100	0.194180
H231	H23	0.326900	0.049600	0.188500
C241	C24	0.318180	0.337400	0.147310
C251	C25	0.334390	0.404800	0.137350
H261	H26	0.357300	0.400500	0.146800
C271	C27	0.317210	0.478300	0.113690
H281	H28	0.328500	0.524500	0.107400
C291	C29	0.283600	0.484900	0.099070
C301	C30	0.267300	0.417900	0.108920
H311	H31	0.244400	0.422300	0.099400
C321	C32	0.284530	0.344600	0.132600
H331	H33	0.273200	0.298700	0.138900
C341	C34	0.264860	0.563300	0.073820
O351	O35	0.278900	0.615850	0.059560
O361	O36	0.235460	0.572450	0.067380
C371	C37	0.365030	0.828700	0.301360
C381	C38	0.333240	0.806500	0.270750
H391	H39	0.322300	0.841400	0.245300
C401	C40	0.317400	0.732800	0.277480
H411	H41	0.295800	0.718400	0.256200
C421	C42	0.332480	0.681000	0.314180
C431	C43	0.363950	0.706100	0.345630
H441	H44	0.374600	0.672800	0.371800
C451	C45	0.379700	0.778800	0.338990
H461	H46	0.401000	0.794600	0.360800
C471	C47	0.316840	0.599800	0.321090
C481	C48	0.283020	0.590700	0.301790
H491	H49	0.269500	0.636800	0.283800
C501	C50	0.268660	0.514800	0.308510
H511	H51	0.245500	0.509900	0.295600
C521	C52	0.288380	0.445900	0.334330
C531	C53	0.321990	0.454600	0.352750
H541	H54	0.335600	0.407700	0.370000
C551	C55	0.336130	0.530000	0.346510
H561	H56	0.359300	0.534800	0.359600
C571	C57	0.273620	0.363800	0.342600
O581	O58	0.242720	0.362810	0.327270
O591	O59	0.293200	0.304710	0.365430
C601	C60	0.471610	0.945400	0.315160
C611	C61	0.489360	0.882800	0.344270
H621	H62	0.479300	0.849500	0.358200
C631	C63	0.521730	0.865400	0.354630
H641	H64	0.533100	0.820000	0.375000
C651	C65	0.537790	0.912300	0.336100
C661	C66	0.521500	0.981400	0.311770
H671	H67	0.532500	0.020400	0.301300
C681	C68	0.488750	0.998400	0.301050
H691	H69	0.478200	0.048300	0.283500
C701	C70	0.572130	0.889700	0.344910
C711	C71	0.593940	0.850600	0.383160
H721	H72	0.587300	0.839000	0.404900
C731	C73	0.625080	0.828000	0.390800
H741	H74	0.639600	0.801000	0.417600
C751	C75	0.635550	0.844300	0.359620
C761	C76	0.614270	0.886500	0.321710
H771	H77	0.621300	0.900700	0.300600
C781	C78	0.582790	0.908300	0.314140
H791	H79	0.568300	0.936400	0.287600
C801	C80	0.668980	0.815100	0.367500
C811	C81	0.435530	0.958400	0.300140
C821	C82	0.419230	0.031500	0.275830
H831	H83	0.431400	0.076900	0.270800
O841	O84	0.755150	0.762890	0.409900
C851	C85	0.364070	0.931400	0.860100
C861	C86	0.344060	0.984000	0.870950
H871	H87	0.321200	0.972200	0.858100
C881	C88	0.356860	0.053400	0.900150
C891	C89	0.390440	0.068900	0.919770
H901	H90	0.399500	0.114100	0.941100
C911	C91	0.411090	0.018800	0.908570
C921	C92	0.397220	0.950600	0.878460
H931	H93	0.410900	0.916400	0.870300
C941	C94	0.350030	0.854200	0.830180
C951	C95	0.367720	0.775400	0.838000
H961	H96	0.389100	0.771700	0.861900
C971	C97	0.354620	0.702900	0.811550
H981	H98	0.367100	0.649800	0.817400
C991	C99	0.323270	0.705700	0.776190
C1001	C100	0.306290	0.785500	0.768040
H1011	H101	0.285300	0.790000	0.743700
C1021	C102	0.319310	0.857900	0.794590
H1031	H103	0.307000	0.911400	0.788400
C1041	C104	0.308720	0.625900	0.749040
C1051	C105	0.328450	0.561600	0.743710
H1061	H106	0.351500	0.570000	0.757000
C1071	C107	0.315280	0.486700	0.719690
H1081	H108	0.329200	0.443600	0.716700
C1091	C109	0.281500	0.473200	0.699490
C1101	C110	0.261600	0.536300	0.704310
H1111	H111	0.238500	0.527700	0.690700
C1121	C112	0.274900	0.611900	0.728780
H1131	H113	0.260900	0.654700	0.731800
C1141	C114	0.267410	0.392200	0.672650
O1151	O115	0.287520	0.334500	0.672890
O1161	O116	0.236900	0.386010	0.652940
C1171	C117	0.334840	0.114200	0.908680
C1181	C118	0.312040	0.163400	0.873830
H1191	H119	0.309400	0.153300	0.845300
C1201	C120	0.293400	0.226700	0.880930
H1211	H121	0.278200	0.260600	0.857100
C1221	C122	0.296290	0.242100	0.922170
C1231	C123	0.318050	0.189200	0.956160
H1241	H124	0.319700	0.196000	0.984400
C1251	C125	0.337240	0.127100	0.949350
H1261	H126	0.352300	0.092800	0.973100
C1271	C127	0.277370	0.314700	0.929290
C1281	C128	0.264700	0.306700	0.959000
H1291	H129	0.267000	0.252300	0.974000
C1301	C130	0.248770	0.377500	0.966570
H1311	H131	0.240100	0.371300	0.986600
C1321	C132	0.245450	0.457000	0.945240
C1331	C133	0.257290	0.464600	0.915090
H1341	H134	0.254600	0.518600	0.899700
C1351	C135	0.272930	0.393800	0.907310
H1361	H136	0.280800	0.399800	0.886400
C1371	C137	0.230990	0.535600	0.956190
O1381	O138	0.213800	0.521560	0.975510
O1391	O139	0.237440	0.609970	0.946630
C1401	C140	0.446620	0.039400	0.927460
C1411	C141	0.459010	0.122900	0.941840
H1421	H142	0.444400	0.169600	0.939700
C1431	C143	0.492280	0.140400	0.959300
H1441	H144	0.500100	0.198600	0.969300
C1451	C145	0.514310	0.075200	0.962570
C1461	C146	0.502070	0.990300	0.948840
H1471	H147	0.516800	0.943900	0.951200
C1481	C148	0.469010	0.972000	0.931790
H1491	H149	0.461400	0.913300	0.923000
C1501	C150	0.550050	0.093000	0.980580
C1511	C151	0.566500	0.150900	0.014460
H1521	H152	0.554600	0.182800	0.026300
C1531	C153	0.600200	0.163900	0.031710
H1541	H154	0.611200	0.202700	0.055700
C1551	C155	0.617480	0.119900	0.013730
C1561	C156	0.601340	0.061000	0.979810
H1571	H157	0.613200	0.030600	0.967500
C1581	C158	0.567990	0.046000	0.963560
H1591	H159	0.557300	0.003900	0.941000
C1601	C160	0.653170	0.134500	0.029630
O1611	O161	0.669340	0.168520	0.066430
O1621	O162	0.664110	0.109760	0.003900
H1631	H163	0.255150	0.670780	0.909900
H1641	H164	0.219900	0.200000	0.498920
Zn1651	Zn165	0.707200	0.117490	0.008190
Zn1661	Zn166	0.220200	0.285980	0.350550
Zn1671	Zn167	0.785830	0.697080	0.394690
Zn1681	Zn168	0.768780	0.250120	0.050500
O1691	O169	0.719900	0.233670	0.998920
C1701	C170	0.885300	0.540100	0.258480
C1711	C171	0.867800	0.474400	0.267570
H1721	H172	0.844800	0.480200	0.256500
C1731	C173	0.883490	0.401200	0.292420
C1741	C174	0.917440	0.393800	0.308170
H1751	H175	0.928400	0.343100	0.324800
O1761	O176	0.184380	0.264850	0.398860
O1771	O177	0.179120	0.339850	0.340590
C1781	C178	0.868120	0.616100	0.230040
C1791	C179	0.882940	0.699400	0.237020
H1801	H180	0.904100	0.708000	0.260800
C1811	C181	0.867010	0.770300	0.209430
H1821	H182	0.877500	0.826400	0.214600
C1831	C183	0.836040	0.760000	0.174460
C1841	C184	0.821150	0.676300	0.166910
H1851	H185	0.800100	0.667700	0.143100
C1861	C186	0.837140	0.606100	0.194180
H1871	H187	0.826900	0.549600	0.188500
C1881	C188	0.818180	0.837400	0.147310
C1891	C189	0.834390	0.904800	0.137350
H1901	H190	0.857300	0.900500	0.146800
C1911	C191	0.817210	0.978300	0.113690
H1921	H192	0.828500	0.024500	0.107400
C1931	C193	0.783600	0.984900	0.099070
C1941	C194	0.767300	0.917900	0.108920
H1951	H195	0.744400	0.922300	0.099400
C1961	C196	0.784530	0.844600	0.132600
H1971	H197	0.773200	0.798700	0.138900
C1981	C198	0.764860	0.063300	0.073820
O1991	O199	0.778900	0.115850	0.059560
O2001	O200	0.735460	0.072450	0.067380
C2011	C201	0.865030	0.328700	0.301360
C2021	C202	0.833240	0.306500	0.270750
H2031	H203	0.822300	0.341400	0.245300
C2041	C204	0.817400	0.232800	0.277480
H2051	H205	0.795800	0.218400	0.256200
C2061	C206	0.832480	0.181000	0.314180
C2071	C207	0.863950	0.206100	0.345630
H2081	H208	0.874600	0.172800	0.371800
C2091	C209	0.879700	0.278800	0.338990
H2101	H210	0.901000	0.294600	0.360800
C2111	C211	0.816840	0.099800	0.321090
C2121	C212	0.783020	0.090700	0.301790
H2131	H213	0.769500	0.136800	0.283800
C2141	C214	0.768660	0.014800	0.308510
H2151	H215	0.745500	0.009900	0.295600
C2161	C216	0.788380	0.945900	0.334330
C2171	C217	0.821990	0.954600	0.352750
H2181	H218	0.835600	0.907700	0.370000
C2191	C219	0.836130	0.030000	0.346510
H2201	H220	0.859300	0.034800	0.359600
C2211	C221	0.773620	0.863800	0.342600
O2221	O222	0.742720	0.862810	0.327270
O2231	O223	0.793200	0.804710	0.365430
C2241	C224	0.971610	0.445400	0.315160
C2251	C225	0.989360	0.382800	0.344270
H2261	H226	0.979300	0.349500	0.358200
C2271	C227	0.021730	0.365400	0.354630
H2281	H228	0.033100	0.320000	0.375000
C2291	C229	0.037790	0.412300	0.336100
C2301	C230	0.021500	0.481400	0.311770
H2311	H231	0.032500	0.520400	0.301300
C2321	C232	0.988750	0.498400	0.301050
H2331	H233	0.978200	0.548300	0.283500
C2341	C234	0.072130	0.389700	0.344910
C2351	C235	0.093940	0.350600	0.383160
H2361	H236	0.087300	0.339000	0.404900
C2371	C237	0.125080	0.328000	0.390800
H2381	H238	0.139600	0.301000	0.417600
C2391	C239	0.135550	0.344300	0.359620
C2401	C240	0.114270	0.386500	0.321710
H2411	H241	0.121300	0.400700	0.300600
C2421	C242	0.082790	0.408300	0.314140
H2431	H243	0.068300	0.436400	0.287600
C2441	C244	0.168980	0.315100	0.367500
C2451	C245	0.935530	0.458400	0.300140
C2461	C246	0.919230	0.531500	0.275830
H2471	H247	0.931400	0.576900	0.270800
O2481	O248	0.255150	0.262890	0.409900
C2491	C249	0.864070	0.431400	0.860100
C2501	C250	0.844060	0.484000	0.870950
H2511	H251	0.821200	0.472200	0.858100
C2521	C252	0.856860	0.553400	0.900150
C2531	C253	0.890440	0.568900	0.919770
H2541	H254	0.899500	0.614100	0.941100
C2551	C255	0.911090	0.518800	0.908570
C2561	C256	0.897220	0.450600	0.878460
H2571	H257	0.910900	0.416400	0.870300
C2581	C258	0.850030	0.354200	0.830180
C2591	C259	0.867720	0.275400	0.838000
H2601	H260	0.889100	0.271700	0.861900
C2611	C261	0.854620	0.202900	0.811550
H2621	H262	0.867100	0.149800	0.817400
C2631	C263	0.823270	0.205700	0.776190
C2641	C264	0.806290	0.285500	0.768040
H2651	H265	0.785300	0.290000	0.743700
C2661	C266	0.819310	0.357900	0.794590
H2671	H267	0.807000	0.411400	0.788400
C2681	C268	0.808720	0.125900	0.749040
C2691	C269	0.828450	0.061600	0.743710
H2701	H270	0.851500	0.070000	0.757000
C2711	C271	0.815280	0.986700	0.719690
H2721	H272	0.829200	0.943600	0.716700
C2731	C273	0.781500	0.973200	0.699490
C2741	C274	0.761600	0.036300	0.704310
H2751	H275	0.738500	0.027700	0.690700
C2761	C276	0.774900	0.111900	0.728780
H2771	H277	0.760900	0.154700	0.731800
C2781	C278	0.767410	0.892200	0.672650
O2791	O279	0.787520	0.834500	0.672890
O2801	O280	0.736900	0.886010	0.652940
C2811	C281	0.834840	0.614200	0.908680
C2821	C282	0.812040	0.663400	0.873830
H2831	H283	0.809400	0.653300	0.845300
C2841	C284	0.793400	0.726700	0.880930
H2851	H285	0.778200	0.760600	0.857100
C2861	C286	0.796290	0.742100	0.922170
C2871	C287	0.818050	0.689200	0.956160
H2881	H288	0.819700	0.696000	0.984400
C2891	C289	0.837240	0.627100	0.949350
H2901	H290	0.852300	0.592800	0.973100
C2911	C291	0.777370	0.814700	0.929290
C2921	C292	0.764700	0.806700	0.959000
H2931	H293	0.767000	0.752300	0.974000
C2941	C294	0.748770	0.877500	0.966570
H2951	H295	0.740100	0.871300	0.986600
C2961	C296	0.745450	0.957000	0.945240
C2971	C297	0.757290	0.964600	0.915090
H2981	H298	0.754600	0.018600	0.899700
C2991	C299	0.772930	0.893800	0.907310
H3001	H300	0.780800	0.899800	0.886400
C3011	C301	0.730990	0.035600	0.956190
O3021	O302	0.713800	0.021560	0.975510
O3031	O303	0.737440	0.109970	0.946630
C3041	C304	0.946620	0.539400	0.927460
C3051	C305	0.959010	0.622900	0.941840
H3061	H306	0.944400	0.669600	0.939700
C3071	C307	0.992280	0.640400	0.959300
H3081	H308	0.000100	0.698600	0.969300
C3091	C309	0.014310	0.575200	0.962570
C3101	C310	0.002070	0.490300	0.948840
H3111	H311	0.016800	0.443900	0.951200
C3121	C312	0.969010	0.472000	0.931790
H3131	H313	0.961400	0.413300	0.923000
C3141	C314	0.050050	0.593000	0.980580
C3151	C315	0.066500	0.650900	0.014460
H3161	H316	0.054600	0.682800	0.026300
C3171	C317	0.100200	0.663900	0.031710
H3181	H318	0.111200	0.702700	0.055700
C3191	C319	0.117480	0.619900	0.013730
C3201	C320	0.101340	0.561000	0.979810
H3211	H321	0.113200	0.530600	0.967500
C3221	C322	0.067990	0.546000	0.963560
H3231	H323	0.057300	0.503900	0.941000
C3241	C324	0.153170	0.634500	0.029630
O3251	O325	0.169340	0.668520	0.066430
O3261	O326	0.164110	0.609760	0.003900
H3271	H327	0.755150	0.170780	0.909900
H3281	H328	0.719900	0.700000	0.498920
Zn3291	Zn329	0.792800	0.617490	0.491810
Zn3301	Zn330	0.279800	0.785980	0.149450
Zn3311	Zn331	0.714170	0.197080	0.105310
Zn3321	Zn332	0.731220	0.750120	0.449500
O3331	O333	0.780100	0.733670	0.501080
C3341	C334	0.614700	0.040100	0.241520
C3351	C335	0.632200	0.974400	0.232430
H3361	H336	0.655200	0.980200	0.243500
C3371	C337	0.616510	0.901200	0.207580
C3381	C338	0.582560	0.893800	0.191830
H3391	H339	0.571600	0.843100	0.175200
O3401	O340	0.315620	0.764850	0.101140
O3411	O341	0.320880	0.839850	0.159410
C3421	C342	0.631880	0.116100	0.269960
C3431	C343	0.617060	0.199400	0.262980
H3441	H344	0.595900	0.208000	0.239200
C3451	C345	0.632990	0.270300	0.290570
H3461	H346	0.622500	0.326400	0.285400
C3471	C347	0.663960	0.260000	0.325540
C3481	C348	0.678850	0.176300	0.333090
H3491	H349	0.699900	0.167700	0.356900
C3501	C350	0.662860	0.106100	0.305820
H3511	H351	0.673100	0.049600	0.311500
C3521	C352	0.681820	0.337400	0.352690
C3531	C353	0.665610	0.404800	0.362650
H3541	H354	0.642700	0.400500	0.353200
C3551	C355	0.682790	0.478300	0.386310
H3561	H356	0.671500	0.524500	0.392600
C3571	C357	0.716400	0.484900	0.400930
C3581	C358	0.732700	0.417900	0.391080
H3591	H359	0.755600	0.422300	0.400600
C3601	C360	0.715470	0.344600	0.367400
H3611	H361	0.726800	0.298700	0.361100
C3621	C362	0.735140	0.563300	0.426180
O3631	O363	0.721100	0.615850	0.440440
O3641	O364	0.764540	0.572450	0.432620
C3651	C365	0.634970	0.828700	0.198640
C3661	C366	0.666760	0.806500	0.229250
H3671	H367	0.677700	0.841400	0.254700
C3681	C368	0.682600	0.732800	0.222520
H3691	H369	0.704200	0.718400	0.243800
C3701	C370	0.667520	0.681000	0.185820
C3711	C371	0.636050	0.706100	0.154370
H3721	H372	0.625400	0.672800	0.128200
C3731	C373	0.620300	0.778800	0.161010
H3741	H374	0.599000	0.794600	0.139200
C3751	C375	0.683160	0.599800	0.178910
C3761	C376	0.716980	0.590700	0.198210
H3771	H377	0.730500	0.636800	0.216200
C3781	C378	0.731340	0.514800	0.191490
H3791	H379	0.754500	0.509900	0.204400
C3801	C380	0.711620	0.445900	0.165670
C3811	C381	0.678010	0.454600	0.147250
H3821	H382	0.664400	0.407700	0.130000
C3831	C383	0.663870	0.530000	0.153490
H3841	H384	0.640700	0.534800	0.140400
C3851	C385	0.726380	0.363800	0.157400
O3861	O386	0.757280	0.362810	0.172730
O3871	O387	0.706800	0.304710	0.134570
C3881	C388	0.528390	0.945400	0.184840
C3891	C389	0.510640	0.882800	0.155730
H3901	H390	0.520700	0.849500	0.141800
C3911	C391	0.478270	0.865400	0.145370
H3921	H392	0.466900	0.820000	0.125000
C3931	C393	0.462210	0.912300	0.163900
C3941	C394	0.478500	0.981400	0.188230
H3951	H395	0.467500	0.020400	0.198700
C3961	C396	0.511250	0.998400	0.198950
H3971	H397	0.521800	0.048300	0.216500
C3981	C398	0.427870	0.889700	0.155090
C3991	C399	0.406060	0.850600	0.116840
H4001	H400	0.412700	0.839000	0.095100
C4011	C401	0.374920	0.828000	0.109200
H4021	H402	0.360400	0.801000	0.082400
C4031	C403	0.364450	0.844300	0.140380
C4041	C404	0.385730	0.886500	0.178290
H4051	H405	0.378700	0.900700	0.199400
C4061	C406	0.417210	0.908300	0.185860
H4071	H407	0.431700	0.936400	0.212400
C4081	C408	0.331020	0.815100	0.132500
C4091	C409	0.564470	0.958400	0.199860
C4101	C410	0.580770	0.031500	0.224170
H4111	H411	0.568600	0.076900	0.229200
O4121	O412	0.244850	0.762890	0.090100
C4131	C413	0.635930	0.931400	0.639900
C4141	C414	0.655940	0.984000	0.629050
H4151	H415	0.678800	0.972200	0.641900
C4161	C416	0.643140	0.053400	0.599850
C4171	C417	0.609560	0.068900	0.580230
H4181	H418	0.600500	0.114100	0.558900
C4191	C419	0.588910	0.018800	0.591430
C4201	C420	0.602780	0.950600	0.621540
H4211	H421	0.589100	0.916400	0.629700
C4221	C422	0.649970	0.854200	0.669820
C4231	C423	0.632280	0.775400	0.662000
H4241	H424	0.610900	0.771700	0.638100
C4251	C425	0.645380	0.702900	0.688450
H4261	H426	0.632900	0.649800	0.682600
C4271	C427	0.676730	0.705700	0.723810
C4281	C428	0.693710	0.785500	0.731960
H4291	H429	0.714700	0.790000	0.756300
C4301	C430	0.680690	0.857900	0.705410
H4311	H431	0.693000	0.911400	0.711600
C4321	C432	0.691280	0.625900	0.750960
C4331	C433	0.671550	0.561600	0.756290
H4341	H434	0.648500	0.570000	0.743000
C4351	C435	0.684720	0.486700	0.780310
H4361	H436	0.670800	0.443600	0.783300
C4371	C437	0.718500	0.473200	0.800510
C4381	C438	0.738400	0.536300	0.795690
H4391	H439	0.761500	0.527700	0.809300
C4401	C440	0.725100	0.611900	0.771220
H4411	H441	0.739100	0.654700	0.768200
C4421	C442	0.732590	0.392200	0.827350
O4431	O443	0.712480	0.334500	0.827110
O4441	O444	0.763100	0.386010	0.847060
C4451	C445	0.665160	0.114200	0.591320
C4461	C446	0.687960	0.163400	0.626170
H4471	H447	0.690600	0.153300	0.654700
C4481	C448	0.706600	0.226700	0.619070
H4491	H449	0.721800	0.260600	0.642900
C4501	C450	0.703710	0.242100	0.577830
C4511	C451	0.681950	0.189200	0.543840
H4521	H452	0.680300	0.196000	0.515600
C4531	C453	0.662760	0.127100	0.550650
H4541	H454	0.647700	0.092800	0.526900
C4551	C455	0.722630	0.314700	0.570710
C4561	C456	0.735300	0.306700	0.541000
H4571	H457	0.733000	0.252300	0.526000
C4581	C458	0.751230	0.377500	0.533430
H4591	H459	0.759900	0.371300	0.513400
C4601	C460	0.754550	0.457000	0.554760
C4611	C461	0.742710	0.464600	0.584910
H4621	H462	0.745400	0.518600	0.600300
C4631	C463	0.727070	0.393800	0.592690
H4641	H464	0.719200	0.399800	0.613600
C4651	C465	0.769010	0.535600	0.543810
O4661	O466	0.786200	0.521560	0.524490
O4671	O467	0.762560	0.609970	0.553370
C4681	C468	0.553380	0.039400	0.572540
C4691	C469	0.540990	0.122900	0.558160
H4701	H470	0.555600	0.169600	0.560300
C4711	C471	0.507720	0.140400	0.540700
H4721	H472	0.499900	0.198600	0.530700
C4731	C473	0.485690	0.075200	0.537430
C4741	C474	0.497930	0.990300	0.551160
H4751	H475	0.483200	0.943900	0.548800
C4761	C476	0.530990	0.972000	0.568210
H4771	H477	0.538600	0.913300	0.577000
C4781	C478	0.449950	0.093000	0.519420
C4791	C479	0.433500	0.150900	0.485540
H4801	H480	0.445400	0.182800	0.473700
C4811	C481	0.399800	0.163900	0.468290
H4821	H482	0.388800	0.202700	0.444300
C4831	C483	0.382520	0.119900	0.486270
C4841	C484	0.398660	0.061000	0.520190
H4851	H485	0.386800	0.030600	0.532500
C4861	C486	0.432010	0.046000	0.536440
H4871	H487	0.442700	0.003900	0.559000
C4881	C488	0.346830	0.134500	0.470370
O4891	O489	0.330660	0.168520	0.433570
O4901	O490	0.335890	0.109760	0.496100
H4911	H491	0.744850	0.670780	0.590100
H4921	H492	0.780100	0.200000	0.001080
Zn4931	Zn493	0.292800	0.117490	0.491810
Zn4941	Zn494	0.779800	0.285980	0.149450
Zn4951	Zn495	0.214170	0.697080	0.105310
Zn4961	Zn496	0.231220	0.250120	0.449500
O4971	O497	0.280100	0.233670	0.501080
C4981	C498	0.114700	0.540100	0.241520
C4991	C499	0.132200	0.474400	0.232430
H5001	H500	0.155200	0.480200	0.243500
C5011	C501	0.116510	0.401200	0.207580
C5021	C502	0.082560	0.393800	0.191830
H5031	H503	0.071600	0.343100	0.175200
O5041	O504	0.815620	0.264850	0.101140
O5051	O505	0.820880	0.339850	0.159410
C5061	C506	0.131880	0.616100	0.269960
C5071	C507	0.117060	0.699400	0.262980
H5081	H508	0.095900	0.708000	0.239200
C5091	C509	0.132990	0.770300	0.290570
H5101	H510	0.122500	0.826400	0.285400
C5111	C511	0.163960	0.760000	0.325540
C5121	C512	0.178850	0.676300	0.333090
H5131	H513	0.199900	0.667700	0.356900
C5141	C514	0.162860	0.606100	0.305820
H5151	H515	0.173100	0.549600	0.311500
C5161	C516	0.181820	0.837400	0.352690
C5171	C517	0.165610	0.904800	0.362650
H5181	H518	0.142700	0.900500	0.353200
C5191	C519	0.182790	0.978300	0.386310
H5201	H520	0.171500	0.024500	0.392600
C5211	C521	0.216400	0.984900	0.400930
C5221	C522	0.232700	0.917900	0.391080
H5231	H523	0.255600	0.922300	0.400600
C5241	C524	0.215470	0.844600	0.367400
H5251	H525	0.226800	0.798700	0.361100
C5261	C526	0.235140	0.063300	0.426180
O5271	O527	0.221100	0.115850	0.440440
O5281	O528	0.264540	0.072450	0.432620
C5291	C529	0.134970	0.328700	0.198640
C5301	C530	0.166760	0.306500	0.229250
H5311	H531	0.177700	0.341400	0.254700
C5321	C532	0.182600	0.232800	0.222520
H5331	H533	0.204200	0.218400	0.243800
C5341	C534	0.167520	0.181000	0.185820
C5351	C535	0.136050	0.206100	0.154370
H5361	H536	0.125400	0.172800	0.128200
C5371	C537	0.120300	0.278800	0.161010
H5381	H538	0.099000	0.294600	0.139200
C5391	C539	0.183160	0.099800	0.178910
C5401	C540	0.216980	0.090700	0.198210
H5411	H541	0.230500	0.136800	0.216200
C5421	C542	0.231340	0.014800	0.191490
H5431	H543	0.254500	0.009900	0.204400
C5441	C544	0.211620	0.945900	0.165670
C5451	C545	0.178010	0.954600	0.147250
H5461	H546	0.164400	0.907700	0.130000
C5471	C547	0.163870	0.030000	0.153490
H5481	H548	0.140700	0.034800	0.140400
C5491	C549	0.226380	0.863800	0.157400
O5501	O550	0.257280	0.862810	0.172730
O5511	O551	0.206800	0.804710	0.134570
C5521	C552	0.028390	0.445400	0.184840
C5531	C553	0.010640	0.382800	0.155730
H5541	H554	0.020700	0.349500	0.141800
C5551	C555	0.978270	0.365400	0.145370
H5561	H556	0.966900	0.320000	0.125000
C5571	C557	0.962210	0.412300	0.163900
C5581	C558	0.978500	0.481400	0.188230
H5591	H559	0.967500	0.520400	0.198700
C5601	C560	0.011250	0.498400	0.198950
H5611	H561	0.021800	0.548300	0.216500
C5621	C562	0.927870	0.389700	0.155090
C5631	C563	0.906060	0.350600	0.116840
H5641	H564	0.912700	0.339000	0.095100
C5651	C565	0.874920	0.328000	0.109200
H5661	H566	0.860400	0.301000	0.082400
C5671	C567	0.864450	0.344300	0.140380
C5681	C568	0.885730	0.386500	0.178290
H5691	H569	0.878700	0.400700	0.199400
C5701	C570	0.917210	0.408300	0.185860
H5711	H571	0.931700	0.436400	0.212400
C5721	C572	0.831020	0.315100	0.132500
C5731	C573	0.064470	0.458400	0.199860
C5741	C574	0.080770	0.531500	0.224170
H5751	H575	0.068600	0.576900	0.229200
O5761	O576	0.744850	0.262890	0.090100
C5771	C577	0.135930	0.431400	0.639900
C5781	C578	0.155940	0.484000	0.629050
H5791	H579	0.178800	0.472200	0.641900
C5801	C580	0.143140	0.553400	0.599850
C5811	C581	0.109560	0.568900	0.580230
H5821	H582	0.100500	0.614100	0.558900
C5831	C583	0.088910	0.518800	0.591430
C5841	C584	0.102780	0.450600	0.621540
H5851	H585	0.089100	0.416400	0.629700
C5861	C586	0.149970	0.354200	0.669820
C5871	C587	0.132280	0.275400	0.662000
H5881	H588	0.110900	0.271700	0.638100
C5891	C589	0.145380	0.202900	0.688450
H5901	H590	0.132900	0.149800	0.682600
C5911	C591	0.176730	0.205700	0.723810
C5921	C592	0.193710	0.285500	0.731960
H5931	H593	0.214700	0.290000	0.756300
C5941	C594	0.180690	0.357900	0.705410
H5951	H595	0.193000	0.411400	0.711600
C5961	C596	0.191280	0.125900	0.750960
C5971	C597	0.171550	0.061600	0.756290
H5981	H598	0.148500	0.070000	0.743000
C5991	C599	0.184720	0.986700	0.780310
H6001	H600	0.170800	0.943600	0.783300
C6011	C601	0.218500	0.973200	0.800510
C6021	C602	0.238400	0.036300	0.795690
H6031	H603	0.261500	0.027700	0.809300
C6041	C604	0.225100	0.111900	0.771220
H6051	H605	0.239100	0.154700	0.768200
C6061	C606	0.232590	0.892200	0.827350
O6071	O607	0.212480	0.834500	0.827110
O6081	O608	0.263100	0.886010	0.847060
C6091	C609	0.165160	0.614200	0.591320
C6101	C610	0.187960	0.663400	0.626170
H6111	H611	0.190600	0.653300	0.654700
C6121	C612	0.206600	0.726700	0.619070
H6131	H613	0.221800	0.760600	0.642900
C6141	C614	0.203710	0.742100	0.577830
C6151	C615	0.181950	0.689200	0.543840
H6161	H616	0.180300	0.696000	0.515600
C6171	C617	0.162760	0.627100	0.550650
H6181	H618	0.147700	0.592800	0.526900
C6191	C619	0.222630	0.814700	0.570710
C6201	C620	0.235300	0.806700	0.541000
H6211	H621	0.233000	0.752300	0.526000
C6221	C622	0.251230	0.877500	0.533430
H6231	H623	0.259900	0.871300	0.513400
C6241	C624	0.254550	0.957000	0.554760
C6251	C625	0.242710	0.964600	0.584910
H6261	H626	0.245400	0.018600	0.600300
C6271	C627	0.227070	0.893800	0.592690
H6281	H628	0.219200	0.899800	0.613600
C6291	C629	0.269010	0.035600	0.543810
O6301	O630	0.286200	0.021560	0.524490
O6311	O631	0.262560	0.109970	0.553370
C6321	C632	0.053380	0.539400	0.572540
C6331	C633	0.040990	0.622900	0.558160
H6341	H634	0.055600	0.669600	0.560300
C6351	C635	0.007720	0.640400	0.540700
H6361	H636	0.999900	0.698600	0.530700
C6371	C637	0.985690	0.575200	0.537430
C6381	C638	0.997930	0.490300	0.551160
H6391	H639	0.983200	0.443900	0.548800
C6401	C640	0.030990	0.472000	0.568210
H6411	H641	0.038600	0.413300	0.577000
C6421	C642	0.949950	0.593000	0.519420
C6431	C643	0.933500	0.650900	0.485540
H6441	H644	0.945400	0.682800	0.473700
C6451	C645	0.899800	0.663900	0.468290
H6461	H646	0.888800	0.702700	0.444300
C6471	C647	0.882520	0.619900	0.486270
C6481	C648	0.898660	0.561000	0.520190
H6491	H649	0.886800	0.530600	0.532500
C6501	C650	0.932010	0.546000	0.536440
H6511	H651	0.942700	0.503900	0.559000
C6521	C652	0.846830	0.634500	0.470370
O6531	O653	0.830660	0.668520	0.433570
O6541	O654	0.835890	0.609760	0.496100
H6551	H655	0.244850	0.170780	0.590100
H6561	H656	0.280100	0.700000	0.001080
Zn6571	Zn657	0.792800	0.382510	0.991810
Zn6581	Zn658	0.279800	0.214020	0.649450
Zn6591	Zn659	0.714170	0.802920	0.605310
Zn6601	Zn660	0.731220	0.249880	0.949500
O6611	O661	0.780100	0.266330	0.001080
C6621	C662	0.614700	0.959900	0.741520
C6631	C663	0.632200	0.025600	0.732430
H6641	H664	0.655200	0.019800	0.743500
C6651	C665	0.616510	0.098800	0.707580
C6661	C666	0.582560	0.106200	0.691830
H6671	H667	0.571600	0.156900	0.675200
O6681	O668	0.315620	0.235150	0.601140
O6691	O669	0.320880	0.160150	0.659410
C6701	C670	0.631880	0.883900	0.769960
C6711	C671	0.617060	0.800600	0.762980
H6721	H672	0.595900	0.792000	0.739200
C6731	C673	0.632990	0.729700	0.790570
H6741	H674	0.622500	0.673600	0.785400
C6751	C675	0.663960	0.740000	0.825540
C6761	C676	0.678850	0.823700	0.833090
H6771	H677	0.699900	0.832300	0.856900
C6781	C678	0.662860	0.893900	0.805820
H6791	H679	0.673100	0.950400	0.811500
C6801	C680	0.681820	0.662600	0.852690
C6811	C681	0.665610	0.595200	0.862650
H6821	H682	0.642700	0.599500	0.853200
C6831	C683	0.682790	0.521700	0.886310
H6841	H684	0.671500	0.475500	0.892600
C6851	C685	0.716400	0.515100	0.900930
C6861	C686	0.732700	0.582100	0.891080
H6871	H687	0.755600	0.577700	0.900600
C6881	C688	0.715470	0.655400	0.867400
H6891	H689	0.726800	0.701300	0.861100
C6901	C690	0.735140	0.436700	0.926180
O6911	O691	0.721100	0.384150	0.940440
O6921	O692	0.764540	0.427550	0.932620
C6931	C693	0.634970	0.171300	0.698640
C6941	C694	0.666760	0.193500	0.729250
H6951	H695	0.677700	0.158600	0.754700
C6961	C696	0.682600	0.267200	0.722520
H6971	H697	0.704200	0.281600	0.743800
C6981	C698	0.667520	0.319000	0.685820
C6991	C699	0.636050	0.293900	0.654370
H7001	H700	0.625400	0.327200	0.628200
C7011	C701	0.620300	0.221200	0.661010
H7021	H702	0.599000	0.205400	0.639200
C7031	C703	0.683160	0.400200	0.678910
C7041	C704	0.716980	0.409300	0.698210
H7051	H705	0.730500	0.363200	0.716200
C7061	C706	0.731340	0.485200	0.691490
H7071	H707	0.754500	0.490100	0.704400
C7081	C708	0.711620	0.554100	0.665670
C7091	C709	0.678010	0.545400	0.647250
H7101	H710	0.664400	0.592300	0.630000
C7111	C711	0.663870	0.470000	0.653490
H7121	H712	0.640700	0.465200	0.640400
C7131	C713	0.726380	0.636200	0.657400
O7141	O714	0.757280	0.637190	0.672730
O7151	O715	0.706800	0.695290	0.634570
C7161	C716	0.528390	0.054600	0.684840
C7171	C717	0.510640	0.117200	0.655730
H7181	H718	0.520700	0.150500	0.641800
C7191	C719	0.478270	0.134600	0.645370
H7201	H720	0.466900	0.180000	0.625000
C7211	C721	0.462210	0.087700	0.663900
C7221	C722	0.478500	0.018600	0.688230
H7231	H723	0.467500	0.979600	0.698700
C7241	C724	0.511250	0.001600	0.698950
H7251	H725	0.521800	0.951700	0.716500
C7261	C726	0.427870	0.110300	0.655090
C7271	C727	0.406060	0.149400	0.616840
H7281	H728	0.412700	0.161000	0.595100
C7291	C729	0.374920	0.172000	0.609200
H7301	H730	0.360400	0.199000	0.582400
C7311	C731	0.364450	0.155700	0.640380
C7321	C732	0.385730	0.113500	0.678290
H7331	H733	0.378700	0.099300	0.699400
C7341	C734	0.417210	0.091700	0.685860
H7351	H735	0.431700	0.063600	0.712400
C7361	C736	0.331020	0.184900	0.632500
C7371	C737	0.564470	0.041600	0.699860
C7381	C738	0.580770	0.968500	0.724170
H7391	H739	0.568600	0.923100	0.729200
O7401	O740	0.244850	0.237110	0.590100
C7411	C741	0.635930	0.068600	0.139900
C7421	C742	0.655940	0.016000	0.129050
H7431	H743	0.678800	0.027800	0.141900
C7441	C744	0.643140	0.946600	0.099850
C7451	C745	0.609560	0.931100	0.080230
H7461	H746	0.600500	0.885900	0.058900
C7471	C747	0.588910	0.981200	0.091430
C7481	C748	0.602780	0.049400	0.121540
H7491	H749	0.589100	0.083600	0.129700
C7501	C750	0.649970	0.145800	0.169820
C7511	C751	0.632280	0.224600	0.162000
H7521	H752	0.610900	0.228300	0.138100
C7531	C753	0.645380	0.297100	0.188450
H7541	H754	0.632900	0.350200	0.182600
C7551	C755	0.676730	0.294300	0.223810
C7561	C756	0.693710	0.214500	0.231960
H7571	H757	0.714700	0.210000	0.256300
C7581	C758	0.680690	0.142100	0.205410
H7591	H759	0.693000	0.088600	0.211600
C7601	C760	0.691280	0.374100	0.250960
C7611	C761	0.671550	0.438400	0.256290
H7621	H762	0.648500	0.430000	0.243000
C7631	C763	0.684720	0.513300	0.280310
H7641	H764	0.670800	0.556400	0.283300
C7651	C765	0.718500	0.526800	0.300510
C7661	C766	0.738400	0.463700	0.295690
H7671	H767	0.761500	0.472300	0.309300
C7681	C768	0.725100	0.388100	0.271220
H7691	H769	0.739100	0.345300	0.268200
C7701	C770	0.732590	0.607800	0.327350
O7711	O771	0.712480	0.665500	0.327110
O7721	O772	0.763100	0.613990	0.347060
C7731	C773	0.665160	0.885800	0.091320
C7741	C774	0.687960	0.836600	0.126170
H7751	H775	0.690600	0.846700	0.154700
C7761	C776	0.706600	0.773300	0.119070
H7771	H777	0.721800	0.739400	0.142900
C7781	C778	0.703710	0.757900	0.077830
C7791	C779	0.681950	0.810800	0.043840
H7801	H780	0.680300	0.804000	0.015600
C7811	C781	0.662760	0.872900	0.050650
H7821	H782	0.647700	0.907200	0.026900
C7831	C783	0.722630	0.685300	0.070710
C7841	C784	0.735300	0.693300	0.041000
H7851	H785	0.733000	0.747700	0.026000
C7861	C786	0.751230	0.622500	0.033430
H7871	H787	0.759900	0.628700	0.013400
C7881	C788	0.754550	0.543000	0.054760
C7891	C789	0.742710	0.535400	0.084910
H7901	H790	0.745400	0.481400	0.100300
C7911	C791	0.727070	0.606200	0.092690
H7921	H792	0.719200	0.600200	0.113600
C7931	C793	0.769010	0.464400	0.043810
O7941	O794	0.786200	0.478440	0.024490
O7951	O795	0.762560	0.390030	0.053370
C7961	C796	0.553380	0.960600	0.072540
C7971	C797	0.540990	0.877100	0.058160
H7981	H798	0.555600	0.830400	0.060300
C7991	C799	0.507720	0.859600	0.040700
H8001	H800	0.499900	0.801400	0.030700
C8011	C801	0.485690	0.924800	0.037430
C8021	C802	0.497930	0.009700	0.051160
H8031	H803	0.483200	0.056100	0.048800
C8041	C804	0.530990	0.028000	0.068210
H8051	H805	0.538600	0.086700	0.077000
C8061	C806	0.449950	0.907000	0.019420
C8071	C807	0.433500	0.849100	0.985540
H8081	H808	0.445400	0.817200	0.973700
C8091	C809	0.399800	0.836100	0.968290
H8101	H810	0.388800	0.797300	0.944300
C8111	C811	0.382520	0.880100	0.986270
C8121	C812	0.398660	0.939000	0.020190
H8131	H813	0.386800	0.969400	0.032500
C8141	C814	0.432010	0.954000	0.036440
H8151	H815	0.442700	0.996100	0.059000
C8161	C816	0.346830	0.865500	0.970370
O8171	O817	0.330660	0.831480	0.933570
O8181	O818	0.335890	0.890240	0.996100
H8191	H819	0.744850	0.329220	0.090100
H8201	H820	0.780100	0.800000	0.501080
Zn8211	Zn821	0.292800	0.882510	0.991810
Zn8221	Zn822	0.779800	0.714020	0.649450
Zn8231	Zn823	0.214170	0.302920	0.605310
Zn8241	Zn824	0.231220	0.749880	0.949500
O8251	O825	0.280100	0.766330	0.001080
C8261	C826	0.114700	0.459900	0.741520
C8271	C827	0.132200	0.525600	0.732430
H8281	H828	0.155200	0.519800	0.743500
C8291	C829	0.116510	0.598800	0.707580
C8301	C830	0.082560	0.606200	0.691830
H8311	H831	0.071600	0.656900	0.675200
O8321	O832	0.815620	0.735150	0.601140
O8331	O833	0.820880	0.660150	0.659410
C8341	C834	0.131880	0.383900	0.769960
C8351	C835	0.117060	0.300600	0.762980
H8361	H836	0.095900	0.292000	0.739200
C8371	C837	0.132990	0.229700	0.790570
H8381	H838	0.122500	0.173600	0.785400
C8391	C839	0.163960	0.240000	0.825540
C8401	C840	0.178850	0.323700	0.833090
H8411	H841	0.199900	0.332300	0.856900
C8421	C842	0.162860	0.393900	0.805820
H8431	H843	0.173100	0.450400	0.811500
C8441	C844	0.181820	0.162600	0.852690
C8451	C845	0.165610	0.095200	0.862650
H8461	H846	0.142700	0.099500	0.853200
C8471	C847	0.182790	0.021700	0.886310
H8481	H848	0.171500	0.975500	0.892600
C8491	C849	0.216400	0.015100	0.900930
C8501	C850	0.232700	0.082100	0.891080
H8511	H851	0.255600	0.077700	0.900600
C8521	C852	0.215470	0.155400	0.867400
H8531	H853	0.226800	0.201300	0.861100
C8541	C854	0.235140	0.936700	0.926180
O8551	O855	0.221100	0.884150	0.940440
O8561	O856	0.264540	0.927550	0.932620
C8571	C857	0.134970	0.671300	0.698640
C8581	C858	0.166760	0.693500	0.729250
H8591	H859	0.177700	0.658600	0.754700
C8601	C860	0.182600	0.767200	0.722520
H8611	H861	0.204200	0.781600	0.743800
C8621	C862	0.167520	0.819000	0.685820
C8631	C863	0.136050	0.793900	0.654370
H8641	H864	0.125400	0.827200	0.628200
C8651	C865	0.120300	0.721200	0.661010
H8661	H866	0.099000	0.705400	0.639200
C8671	C867	0.183160	0.900200	0.678910
C8681	C868	0.216980	0.909300	0.698210
H8691	H869	0.230500	0.863200	0.716200
C8701	C870	0.231340	0.985200	0.691490
H8711	H871	0.254500	0.990100	0.704400
C8721	C872	0.211620	0.054100	0.665670
C8731	C873	0.178010	0.045400	0.647250
H8741	H874	0.164400	0.092300	0.630000
C8751	C875	0.163870	0.970000	0.653490
H8761	H876	0.140700	0.965200	0.640400
C8771	C877	0.226380	0.136200	0.657400
O8781	O878	0.257280	0.137190	0.672730
O8791	O879	0.206800	0.195290	0.634570
C8801	C880	0.028390	0.554600	0.684840
C8811	C881	0.010640	0.617200	0.655730
H8821	H882	0.020700	0.650500	0.641800
C8831	C883	0.978270	0.634600	0.645370
H8841	H884	0.966900	0.680000	0.625000
C8851	C885	0.962210	0.587700	0.663900
C8861	C886	0.978500	0.518600	0.688230
H8871	H887	0.967500	0.479600	0.698700
C8881	C888	0.011250	0.501600	0.698950
H8891	H889	0.021800	0.451700	0.716500
C8901	C890	0.927870	0.610300	0.655090
C8911	C891	0.906060	0.649400	0.616840
H8921	H892	0.912700	0.661000	0.595100
C8931	C893	0.874920	0.672000	0.609200
H8941	H894	0.860400	0.699000	0.582400
C8951	C895	0.864450	0.655700	0.640380
C8961	C896	0.885730	0.613500	0.678290
H8971	H897	0.878700	0.599300	0.699400
C8981	C898	0.917210	0.591700	0.685860
H8991	H899	0.931700	0.563600	0.712400
C9001	C900	0.831020	0.684900	0.632500
C9011	C901	0.064470	0.541600	0.699860
C9021	C902	0.080770	0.468500	0.724170
H9031	H903	0.068600	0.423100	0.729200
O9041	O904	0.744850	0.737110	0.590100
C9051	C905	0.135930	0.568600	0.139900
C9061	C906	0.155940	0.516000	0.129050
H9071	H907	0.178800	0.527800	0.141900
C9081	C908	0.143140	0.446600	0.099850
C9091	C909	0.109560	0.431100	0.080230
H9101	H910	0.100500	0.385900	0.058900
C9111	C911	0.088910	0.481200	0.091430
C9121	C912	0.102780	0.549400	0.121540
H9131	H913	0.089100	0.583600	0.129700
C9141	C914	0.149970	0.645800	0.169820
C9151	C915	0.132280	0.724600	0.162000
H9161	H916	0.110900	0.728300	0.138100
C9171	C917	0.145380	0.797100	0.188450
H9181	H918	0.132900	0.850200	0.182600
C9191	C919	0.176730	0.794300	0.223810
C9201	C920	0.193710	0.714500	0.231960
H9211	H921	0.214700	0.710000	0.256300
C9221	C922	0.180690	0.642100	0.205410
H9231	H923	0.193000	0.588600	0.211600
C9241	C924	0.191280	0.874100	0.250960
C9251	C925	0.171550	0.938400	0.256290
H9261	H926	0.148500	0.930000	0.243000
C9271	C927	0.184720	0.013300	0.280310
H9281	H928	0.170800	0.056400	0.283300
C9291	C929	0.218500	0.026800	0.300510
C9301	C930	0.238400	0.963700	0.295690
H9311	H931	0.261500	0.972300	0.309300
C9321	C932	0.225100	0.888100	0.271220
H9331	H933	0.239100	0.845300	0.268200
C9341	C934	0.232590	0.107800	0.327350
O9351	O935	0.212480	0.165500	0.327110
O9361	O936	0.263100	0.113990	0.347060
C9371	C937	0.165160	0.385800	0.091320
C9381	C938	0.187960	0.336600	0.126170
H9391	H939	0.190600	0.346700	0.154700
C9401	C940	0.206600	0.273300	0.119070
H9411	H941	0.221800	0.239400	0.142900
C9421	C942	0.203710	0.257900	0.077830
C9431	C943	0.181950	0.310800	0.043840
H9441	H944	0.180300	0.304000	0.015600
C9451	C945	0.162760	0.372900	0.050650
H9461	H946	0.147700	0.407200	0.026900
C9471	C947	0.222630	0.185300	0.070710
C9481	C948	0.235300	0.193300	0.041000
H9491	H949	0.233000	0.247700	0.026000
C9501	C950	0.251230	0.122500	0.033430
H9511	H951	0.259900	0.128700	0.013400
C9521	C952	0.254550	0.043000	0.054760
C9531	C953	0.242710	0.035400	0.084910
H9541	H954	0.245400	0.981400	0.100300
C9551	C955	0.227070	0.106200	0.092690
H9561	H956	0.219200	0.100200	0.113600
C9571	C957	0.269010	0.964400	0.043810
O9581	O958	0.286200	0.978440	0.024490
O9591	O959	0.262560	0.890030	0.053370
C9601	C960	0.053380	0.460600	0.072540
C9611	C961	0.040990	0.377100	0.058160
H9621	H962	0.055600	0.330400	0.060300
C9631	C963	0.007720	0.359600	0.040700
H9641	H964	0.999900	0.301400	0.030700
C9651	C965	0.985690	0.424800	0.037430
C9661	C966	0.997930	0.509700	0.051160
H9671	H967	0.983200	0.556100	0.048800
C9681	C968	0.030990	0.528000	0.068210
H9691	H969	0.038600	0.586700	0.077000
C9701	C970	0.949950	0.407000	0.019420
C9711	C971	0.933500	0.349100	0.985540
H9721	H972	0.945400	0.317200	0.973700
C9731	C973	0.899800	0.336100	0.968290
H9741	H974	0.888800	0.297300	0.944300
C9751	C975	0.882520	0.380100	0.986270
C9761	C976	0.898660	0.439000	0.020190
H9771	H977	0.886800	0.469400	0.032500
C9781	C978	0.932010	0.454000	0.036440
H9791	H979	0.942700	0.496100	0.059000
C9801	C980	0.846830	0.365500	0.970370
O9811	O981	0.830660	0.331480	0.933570
O9821	O982	0.835890	0.390240	0.996100
H9831	H983	0.244850	0.829220	0.090100
H9841	H984	0.280100	0.300000	0.501080
Zn9851	Zn985	0.207200	0.382510	0.508190
Zn9861	Zn986	0.720200	0.214020	0.850550
Zn9871	Zn987	0.285830	0.802920	0.894690
Zn9881	Zn988	0.268780	0.249880	0.550500
O9891	O989	0.219900	0.266330	0.498920
C9901	C990	0.385300	0.959900	0.758480
C9911	C991	0.367800	0.025600	0.767570
H9921	H992	0.344800	0.019800	0.756500
C9931	C993	0.383490	0.098800	0.792420
C9941	C994	0.417440	0.106200	0.808170
H9951	H995	0.428400	0.156900	0.824800
O9961	O996	0.684380	0.235150	0.898860
O9971	O997	0.679120	0.160150	0.840590
C9981	C998	0.368120	0.883900	0.730040
C9991	C999	0.382940	0.800600	0.737020
H10001	H1000	0.404100	0.792000	0.760800
C10011	C1001	0.367010	0.729700	0.709430
H10021	H1002	0.377500	0.673600	0.714600
C10031	C1003	0.336040	0.740000	0.674460
C10041	C1004	0.321150	0.823700	0.666910
H10051	H1005	0.300100	0.832300	0.643100
C10061	C1006	0.337140	0.893900	0.694180
H10071	H1007	0.326900	0.950400	0.688500
C10081	C1008	0.318180	0.662600	0.647310
C10091	C1009	0.334390	0.595200	0.637350
H10101	H1010	0.357300	0.599500	0.646800
C10111	C1011	0.317210	0.521700	0.613690
H10121	H1012	0.328500	0.475500	0.607400
C10131	C1013	0.283600	0.515100	0.599070
C10141	C1014	0.267300	0.582100	0.608920
H10151	H1015	0.244400	0.577700	0.599400
C10161	C1016	0.284530	0.655400	0.632600
H10171	H1017	0.273200	0.701300	0.638900
C10181	C1018	0.264860	0.436700	0.573820
O10191	O1019	0.278900	0.384150	0.559560
O10201	O1020	0.235460	0.427550	0.567380
C10211	C1021	0.365030	0.171300	0.801360
C10221	C1022	0.333240	0.193500	0.770750
H10231	H1023	0.322300	0.158600	0.745300
C10241	C1024	0.317400	0.267200	0.777480
H10251	H1025	0.295800	0.281600	0.756200
C10261	C1026	0.332480	0.319000	0.814180
C10271	C1027	0.363950	0.293900	0.845630
H10281	H1028	0.374600	0.327200	0.871800
C10291	C1029	0.379700	0.221200	0.838990
H10301	H1030	0.401000	0.205400	0.860800
C10311	C1031	0.316840	0.400200	0.821090
C10321	C1032	0.283020	0.409300	0.801790
H10331	H1033	0.269500	0.363200	0.783800
C10341	C1034	0.268660	0.485200	0.808510
H10351	H1035	0.245500	0.490100	0.795600
C10361	C1036	0.288380	0.554100	0.834330
C10371	C1037	0.321990	0.545400	0.852750
H10381	H1038	0.335600	0.592300	0.870000
C10391	C1039	0.336130	0.470000	0.846510
H10401	H1040	0.359300	0.465200	0.859600
C10411	C1041	0.273620	0.636200	0.842600
O10421	O1042	0.242720	0.637190	0.827270
O10431	O1043	0.293200	0.695290	0.865430
C10441	C1044	0.471610	0.054600	0.815160
C10451	C1045	0.489360	0.117200	0.844270
H10461	H1046	0.479300	0.150500	0.858200
C10471	C1047	0.521730	0.134600	0.854630
H10481	H1048	0.533100	0.180000	0.875000
C10491	C1049	0.537790	0.087700	0.836100
C10501	C1050	0.521500	0.018600	0.811770
H10511	H1051	0.532500	0.979600	0.801300
C10521	C1052	0.488750	0.001600	0.801050
H10531	H1053	0.478200	0.951700	0.783500
C10541	C1054	0.572130	0.110300	0.844910
C10551	C1055	0.593940	0.149400	0.883160
H10561	H1056	0.587300	0.161000	0.904900
C10571	C1057	0.625080	0.172000	0.890800
H10581	H1058	0.639600	0.199000	0.917600
C10591	C1059	0.635550	0.155700	0.859620
C10601	C1060	0.614270	0.113500	0.821710
H10611	H1061	0.621300	0.099300	0.800600
C10621	C1062	0.582790	0.091700	0.814140
H10631	H1063	0.568300	0.063600	0.787600
C10641	C1064	0.668980	0.184900	0.867500
C10651	C1065	0.435530	0.041600	0.800140
C10661	C1066	0.419230	0.968500	0.775830
H10671	H1067	0.431400	0.923100	0.770800
O10681	O1068	0.755150	0.237110	0.909900
C10691	C1069	0.364070	0.068600	0.360100
C10701	C1070	0.344060	0.016000	0.370950
H10711	H1071	0.321200	0.027800	0.358100
C10721	C1072	0.356860	0.946600	0.400150
C10731	C1073	0.390440	0.931100	0.419770
H10741	H1074	0.399500	0.885900	0.441100
C10751	C1075	0.411090	0.981200	0.408570
C10761	C1076	0.397220	0.049400	0.378460
H10771	H1077	0.410900	0.083600	0.370300
C10781	C1078	0.350030	0.145800	0.330180
C10791	C1079	0.367720	0.224600	0.338000
H10801	H1080	0.389100	0.228300	0.361900
C10811	C1081	0.354620	0.297100	0.311550
H10821	H1082	0.367100	0.350200	0.317400
C10831	C1083	0.323270	0.294300	0.276190
C10841	C1084	0.306290	0.214500	0.268040
H10851	H1085	0.285300	0.210000	0.243700
C10861	C1086	0.319310	0.142100	0.294590
H10871	H1087	0.307000	0.088600	0.288400
C10881	C1088	0.308720	0.374100	0.249040
C10891	C1089	0.328450	0.438400	0.243710
H10901	H1090	0.351500	0.430000	0.257000
C10911	C1091	0.315280	0.513300	0.219690
H10921	H1092	0.329200	0.556400	0.216700
C10931	C1093	0.281500	0.526800	0.199490
C10941	C1094	0.261600	0.463700	0.204310
H10951	H1095	0.238500	0.472300	0.190700
C10961	C1096	0.274900	0.388100	0.228780
H10971	H1097	0.260900	0.345300	0.231800
C10981	C1098	0.267410	0.607800	0.172650
O10991	O1099	0.287520	0.665500	0.172890
O11001	O1100	0.236900	0.613990	0.152940
C11011	C1101	0.334840	0.885800	0.408680
C11021	C1102	0.312040	0.836600	0.373830
H11031	H1103	0.309400	0.846700	0.345300
C11041	C1104	0.293400	0.773300	0.380930
H11051	H1105	0.278200	0.739400	0.357100
C11061	C1106	0.296290	0.757900	0.422170
C11071	C1107	0.318050	0.810800	0.456160
H11081	H1108	0.319700	0.804000	0.484400
C11091	C1109	0.337240	0.872900	0.449350
H11101	H1110	0.352300	0.907200	0.473100
C11111	C1111	0.277370	0.685300	0.429290
C11121	C1112	0.264700	0.693300	0.459000
H11131	H1113	0.267000	0.747700	0.474000
C11141	C1114	0.248770	0.622500	0.466570
H11151	H1115	0.240100	0.628700	0.486600
C11161	C1116	0.245450	0.543000	0.445240
C11171	C1117	0.257290	0.535400	0.415090
H11181	H1118	0.254600	0.481400	0.399700
C11191	C1119	0.272930	0.606200	0.407310
H11201	H1120	0.280800	0.600200	0.386400
C11211	C1121	0.230990	0.464400	0.456190
O11221	O1122	0.213800	0.478440	0.475510
O11231	O1123	0.237440	0.390030	0.446630
C11241	C1124	0.446620	0.960600	0.427460
C11251	C1125	0.459010	0.877100	0.441840
H11261	H1126	0.444400	0.830400	0.439700
C11271	C1127	0.492280	0.859600	0.459300
H11281	H1128	0.500100	0.801400	0.469300
C11291	C1129	0.514310	0.924800	0.462570
C11301	C1130	0.502070	0.009700	0.448840
H11311	H1131	0.516800	0.056100	0.451200
C11321	C1132	0.469010	0.028000	0.431790
H11331	H1133	0.461400	0.086700	0.423000
C11341	C1134	0.550050	0.907000	0.480580
C11351	C1135	0.566500	0.849100	0.514460
H11361	H1136	0.554600	0.817200	0.526300
C11371	C1137	0.600200	0.836100	0.531710
H11381	H1138	0.611200	0.797300	0.555700
C11391	C1139	0.617480	0.880100	0.513730
C11401	C1140	0.601340	0.939000	0.479810
H11411	H1141	0.613200	0.969400	0.467500
C11421	C1142	0.567990	0.954000	0.463560
H11431	H1143	0.557300	0.996100	0.441000
C11441	C1144	0.653170	0.865500	0.529630
O11451	O1145	0.669340	0.831480	0.566430
O11461	O1146	0.664110	0.890240	0.503900
H11471	H1147	0.255150	0.329220	0.409900
H11481	H1148	0.219900	0.800000	0.998920
Zn11491	Zn1149	0.707200	0.882510	0.508190
Zn11501	Zn1150	0.220200	0.714020	0.850550
Zn11511	Zn1151	0.785830	0.302920	0.894690
Zn11521	Zn1152	0.768780	0.749880	0.550500
O11531	O1153	0.719900	0.766330	0.498920
C11541	C1154	0.885300	0.459900	0.758480
C11551	C1155	0.867800	0.525600	0.767570
H11561	H1156	0.844800	0.519800	0.756500
C11571	C1157	0.883490	0.598800	0.792420
C11581	C1158	0.917440	0.606200	0.808170
H11591	H1159	0.928400	0.656900	0.824800
O11601	O1160	0.184380	0.735150	0.898860
O11611	O1161	0.179120	0.660150	0.840590
C11621	C1162	0.868120	0.383900	0.730040
C11631	C1163	0.882940	0.300600	0.737020
H11641	H1164	0.904100	0.292000	0.760800
C11651	C1165	0.867010	0.229700	0.709430
H11661	H1166	0.877500	0.173600	0.714600
C11671	C1167	0.836040	0.240000	0.674460
C11681	C1168	0.821150	0.323700	0.666910
H11691	H1169	0.800100	0.332300	0.643100
C11701	C1170	0.837140	0.393900	0.694180
H11711	H1171	0.826900	0.450400	0.688500
C11721	C1172	0.818180	0.162600	0.647310
C11731	C1173	0.834390	0.095200	0.637350
H11741	H1174	0.857300	0.099500	0.646800
C11751	C1175	0.817210	0.021700	0.613690
H11761	H1176	0.828500	0.975500	0.607400
C11771	C1177	0.783600	0.015100	0.599070
C11781	C1178	0.767300	0.082100	0.608920
H11791	H1179	0.744400	0.077700	0.599400
C11801	C1180	0.784530	0.155400	0.632600
H11811	H1181	0.773200	0.201300	0.638900
C11821	C1182	0.764860	0.936700	0.573820
O11831	O1183	0.778900	0.884150	0.559560
O11841	O1184	0.735460	0.927550	0.567380
C11851	C1185	0.865030	0.671300	0.801360
C11861	C1186	0.833240	0.693500	0.770750
H11871	H1187	0.822300	0.658600	0.745300
C11881	C1188	0.817400	0.767200	0.777480
H11891	H1189	0.795800	0.781600	0.756200
C11901	C1190	0.832480	0.819000	0.814180
C11911	C1191	0.863950	0.793900	0.845630
H11921	H1192	0.874600	0.827200	0.871800
C11931	C1193	0.879700	0.721200	0.838990
H11941	H1194	0.901000	0.705400	0.860800
C11951	C1195	0.816840	0.900200	0.821090
C11961	C1196	0.783020	0.909300	0.801790
H11971	H1197	0.769500	0.863200	0.783800
C11981	C1198	0.768660	0.985200	0.808510
H11991	H1199	0.745500	0.990100	0.795600
C12001	C1200	0.788380	0.054100	0.834330
C12011	C1201	0.821990	0.045400	0.852750
H12021	H1202	0.835600	0.092300	0.870000
C12031	C1203	0.836130	0.970000	0.846510
H12041	H1204	0.859300	0.965200	0.859600
C12051	C1205	0.773620	0.136200	0.842600
O12061	O1206	0.742720	0.137190	0.827270
O12071	O1207	0.793200	0.195290	0.865430
C12081	C1208	0.971610	0.554600	0.815160
C12091	C1209	0.989360	0.617200	0.844270
H12101	H1210	0.979300	0.650500	0.858200
C12111	C1211	0.021730	0.634600	0.854630
H12121	H1212	0.033100	0.680000	0.875000
C12131	C1213	0.037790	0.587700	0.836100
C12141	C1214	0.021500	0.518600	0.811770
H12151	H1215	0.032500	0.479600	0.801300
C12161	C1216	0.988750	0.501600	0.801050
H12171	H1217	0.978200	0.451700	0.783500
C12181	C1218	0.072130	0.610300	0.844910
C12191	C1219	0.093940	0.649400	0.883160
H12201	H1220	0.087300	0.661000	0.904900
C12211	C1221	0.125080	0.672000	0.890800
H12221	H1222	0.139600	0.699000	0.917600
C12231	C1223	0.135550	0.655700	0.859620
C12241	C1224	0.114270	0.613500	0.821710
H12251	H1225	0.121300	0.599300	0.800600
C12261	C1226	0.082790	0.591700	0.814140
H12271	H1227	0.068300	0.563600	0.787600
C12281	C1228	0.168980	0.684900	0.867500
C12291	C1229	0.935530	0.541600	0.800140
C12301	C1230	0.919230	0.468500	0.775830
H12311	H1231	0.931400	0.423100	0.770800
O12321	O1232	0.255150	0.737110	0.909900
C12331	C1233	0.864070	0.568600	0.360100
C12341	C1234	0.844060	0.516000	0.370950
H12351	H1235	0.821200	0.527800	0.358100
C12361	C1236	0.856860	0.446600	0.400150
C12371	C1237	0.890440	0.431100	0.419770
H12381	H1238	0.899500	0.385900	0.441100
C12391	C1239	0.911090	0.481200	0.408570
C12401	C1240	0.897220	0.549400	0.378460
H12411	H1241	0.910900	0.583600	0.370300
C12421	C1242	0.850030	0.645800	0.330180
C12431	C1243	0.867720	0.724600	0.338000
H12441	H1244	0.889100	0.728300	0.361900
C12451	C1245	0.854620	0.797100	0.311550
H12461	H1246	0.867100	0.850200	0.317400
C12471	C1247	0.823270	0.794300	0.276190
C12481	C1248	0.806290	0.714500	0.268040
H12491	H1249	0.785300	0.710000	0.243700
C12501	C1250	0.819310	0.642100	0.294590
H12511	H1251	0.807000	0.588600	0.288400
C12521	C1252	0.808720	0.874100	0.249040
C12531	C1253	0.828450	0.938400	0.243710
H12541	H1254	0.851500	0.930000	0.257000
C12551	C1255	0.815280	0.013300	0.219690
H12561	H1256	0.829200	0.056400	0.216700
C12571	C1257	0.781500	0.026800	0.199490
C12581	C1258	0.761600	0.963700	0.204310
H12591	H1259	0.738500	0.972300	0.190700
C12601	C1260	0.774900	0.888100	0.228780
H12611	H1261	0.760900	0.845300	0.231800
C12621	C1262	0.767410	0.107800	0.172650
O12631	O1263	0.787520	0.165500	0.172890
O12641	O1264	0.736900	0.113990	0.152940
C12651	C1265	0.834840	0.385800	0.408680
C12661	C1266	0.812040	0.336600	0.373830
H12671	H1267	0.809400	0.346700	0.345300
C12681	C1268	0.793400	0.273300	0.380930
H12691	H1269	0.778200	0.239400	0.357100
C12701	C1270	0.796290	0.257900	0.422170
C12711	C1271	0.818050	0.310800	0.456160
H12721	H1272	0.819700	0.304000	0.484400
C12731	C1273	0.837240	0.372900	0.449350
H12741	H1274	0.852300	0.407200	0.473100
C12751	C1275	0.777370	0.185300	0.429290
C12761	C1276	0.764700	0.193300	0.459000
H12771	H1277	0.767000	0.247700	0.474000
C12781	C1278	0.748770	0.122500	0.466570
H12791	H1279	0.740100	0.128700	0.486600
C12801	C1280	0.745450	0.043000	0.445240
C12811	C1281	0.757290	0.035400	0.415090
H12821	H1282	0.754600	0.981400	0.399700
C12831	C1283	0.772930	0.106200	0.407310
H12841	H1284	0.780800	0.100200	0.386400
C12851	C1285	0.730990	0.964400	0.456190
O12861	O1286	0.713800	0.978440	0.475510
O12871	O1287	0.737440	0.890030	0.446630
C12881	C1288	0.946620	0.460600	0.427460
C12891	C1289	0.959010	0.377100	0.441840
H12901	H1290	0.944400	0.330400	0.439700
C12911	C1291	0.992280	0.359600	0.459300
H12921	H1292	0.000100	0.301400	0.469300
C12931	C1293	0.014310	0.424800	0.462570
C12941	C1294	0.002070	0.509700	0.448840
H12951	H1295	0.016800	0.556100	0.451200
C12961	C1296	0.969010	0.528000	0.431790
H12971	H1297	0.961400	0.586700	0.423000
C12981	C1298	0.050050	0.407000	0.480580
C12991	C1299	0.066500	0.349100	0.514460
H13001	H1300	0.054600	0.317200	0.526300
C13011	C1301	0.100200	0.336100	0.531710
H13021	H1302	0.111200	0.297300	0.555700
C13031	C1303	0.117480	0.380100	0.513730
C13041	C1304	0.101340	0.439000	0.479810
H13051	H1305	0.113200	0.469400	0.467500
C13061	C1306	0.067990	0.454000	0.463560
H13071	H1307	0.057300	0.496100	0.441000
C13081	C1308	0.153170	0.365500	0.529630
O13091	O1309	0.169340	0.331480	0.566430
O13101	O1310	0.164110	0.390240	0.503900
H13111	H1311	0.755150	0.829220	0.409900
H13121	H1312	0.719900	0.300000	0.998920
