data_JETNOL_clean_PM
_symmetry_space_group_name_H-M	'P1'
_cell_length_a	7.705300
_cell_length_b	7.705300
_cell_length_c	14.815500
_cell_angle_alpha	90.000000
_cell_angle_beta	90.000000
_cell_angle_gamma	120.000000
_symmetry_Int_Tables_number 1

loop_
_symmetry_equiv_pos_as_xyz
'x,y,z'

loop_
_atom_site_label
_atom_site_type_symbol
_atom_site_fract_x
_atom_site_fract_y
_atom_site_fract_z
La11	La1	0.666670	0.333340	0.750000
La21	La2	0.333330	0.666660	0.250000
Cr11	Cr1	0.000000	0.000000	0.500000
Cr21	Cr2	0.000000	0.000000	0.000000
C11	C1	0.251600	0.109200	0.580700
C21	C2	0.857600	0.748400	0.580700
C31	C3	0.890800	0.142400	0.580700
C41	C4	0.748400	0.890800	0.080700
C51	C5	0.142400	0.251600	0.080700
C61	C6	0.109200	0.857600	0.080700
C71	C7	0.748400	0.890800	0.419300
C81	C8	0.142400	0.251600	0.419300
C91	C9	0.109200	0.857600	0.419300
C101	C10	0.251600	0.109200	0.919300
C111	C11	0.857600	0.748400	0.919300
C121	C12	0.890800	0.142400	0.919300
N11	N1	0.389700	0.169800	0.625400
N21	N2	0.780100	0.610300	0.625400
N31	N3	0.830200	0.219900	0.625400
N41	N4	0.610300	0.830200	0.125400
N51	N5	0.219900	0.389700	0.125400
N61	N6	0.169800	0.780100	0.125400
N71	N7	0.610300	0.830200	0.374600
N81	N8	0.219900	0.389700	0.374600
N91	N9	0.169800	0.780100	0.374600
N101	N10	0.389700	0.169800	0.874600
N111	N11	0.780100	0.610300	0.874600
N121	N12	0.830200	0.219900	0.874600
