data_JETZAK_clean_PM
_symmetry_space_group_name_H-M	'P1'
_cell_length_a	11.391800
_cell_length_b	11.429900
_cell_length_c	26.998000
_cell_angle_alpha	90.000000
_cell_angle_beta	90.000000
_cell_angle_gamma	94.283000
_symmetry_Int_Tables_number 1

loop_
_symmetry_equiv_pos_as_xyz
'x,y,z'

loop_
_atom_site_label
_atom_site_type_symbol
_atom_site_fract_x
_atom_site_fract_y
_atom_site_fract_z
Mg11	Mg1	0.860260	0.249970	0.461720
Mg21	Mg2	0.639740	0.750030	0.961720
Mg31	Mg3	0.139740	0.750030	0.538280
Mg41	Mg4	0.360260	0.249970	0.038280
Mg51	Mg5	0.000000	0.000000	0.500000
Mg61	Mg6	0.500000	0.000000	0.000000
H11	H1	0.176900	0.472000	0.460500
H21	H2	0.352100	0.588300	0.473300
H31	H3	0.495300	0.313800	0.539100
H41	H4	0.320000	0.197500	0.526300
H51	H5	0.761500	0.308100	0.622000
H61	H6	0.712100	0.257700	0.703300
H71	H7	0.776600	0.922300	0.674600
H81	H8	0.826300	0.972400	0.593200
H91	H9	0.794800	0.192100	0.787900
H101	H10	0.708900	0.144400	0.865100
H111	H11	0.541000	0.852500	0.807800
H121	H12	0.617300	0.901400	0.729200
H131	H13	0.323100	0.528000	0.960500
H141	H14	0.147900	0.411700	0.973300
H151	H15	0.004700	0.686200	0.039100
H161	H16	0.180000	0.802500	0.026300
H171	H17	0.738500	0.691900	0.122000
H181	H18	0.787900	0.742300	0.203300
H191	H19	0.723400	0.077700	0.174600
H201	H20	0.673700	0.027600	0.093200
H211	H21	0.705200	0.807900	0.287900
H221	H22	0.791100	0.855600	0.365100
H231	H23	0.959000	0.147500	0.307800
H241	H24	0.882700	0.098600	0.229200
H251	H25	0.823100	0.528000	0.539500
H261	H26	0.647900	0.411700	0.526700
H271	H27	0.504700	0.686200	0.460900
H281	H28	0.680000	0.802500	0.473700
H291	H29	0.238500	0.691900	0.378000
H301	H30	0.287900	0.742300	0.296700
H311	H31	0.223400	0.077700	0.325400
H321	H32	0.173700	0.027600	0.406800
H331	H33	0.205200	0.807900	0.212100
H341	H34	0.291100	0.855600	0.134900
H351	H35	0.459000	0.147500	0.192200
H361	H36	0.382700	0.098600	0.270800
H371	H37	0.676900	0.472000	0.039500
H381	H38	0.852100	0.588300	0.026700
H391	H39	0.995300	0.313800	0.960900
H401	H40	0.820000	0.197500	0.973700
H411	H41	0.261500	0.308100	0.878000
H421	H42	0.212100	0.257700	0.796700
H431	H43	0.276600	0.922300	0.825400
H441	H44	0.326300	0.972400	0.906800
H451	H45	0.294800	0.192100	0.712100
H461	H46	0.208900	0.144400	0.634900
H471	H47	0.041000	0.852500	0.692200
H481	H48	0.117300	0.901400	0.770800
C11	C1	0.115800	0.251500	0.480980
C21	C2	0.232000	0.323800	0.492200
C31	C3	0.241500	0.439900	0.476500
C41	C4	0.345600	0.509000	0.484000
C51	C5	0.440200	0.462000	0.507400
C61	C6	0.430600	0.345900	0.523100
C71	C7	0.326500	0.276800	0.515600
C81	C8	0.828500	0.181400	0.547760
C91	C9	0.799400	0.145300	0.599690
C101	C10	0.764800	0.229200	0.632650
C111	C11	0.735000	0.199100	0.681100
C121	C12	0.738200	0.084900	0.697320
C131	C13	0.773200	0.001200	0.663940
C141	C14	0.803200	0.030800	0.615480
C151	C15	0.703100	0.052300	0.748700
C161	C16	0.741000	0.125100	0.791600
C171	C17	0.695000	0.092500	0.837900
C181	C18	0.632000	0.990100	0.845250
C191	C19	0.594100	0.919900	0.803600
C201	C20	0.636300	0.951900	0.756500
C211	C21	0.593900	0.949400	0.896300
C221	C22	0.384200	0.748500	0.980980
C231	C23	0.268000	0.676200	0.992200
C241	C24	0.258500	0.560100	0.976500
C251	C25	0.154400	0.491000	0.984000
C261	C26	0.059800	0.538000	0.007400
C271	C27	0.069400	0.654100	0.023100
C281	C28	0.173500	0.723200	0.015600
C291	C29	0.671500	0.818600	0.047760
C301	C30	0.700600	0.854700	0.099690
C311	C31	0.735200	0.770800	0.132650
C321	C32	0.765000	0.800900	0.181100
C331	C33	0.761800	0.915100	0.197320
C341	C34	0.726800	0.998800	0.163940
C351	C35	0.696800	0.969200	0.115480
C361	C36	0.796900	0.947700	0.248700
C371	C37	0.759000	0.874900	0.291600
C381	C38	0.805000	0.907500	0.337900
C391	C39	0.868000	0.009900	0.345250
C401	C40	0.905900	0.080100	0.303600
C411	C41	0.863700	0.048100	0.256500
C421	C42	0.906100	0.050600	0.396300
C431	C43	0.884200	0.748500	0.519020
C441	C44	0.768000	0.676200	0.507800
C451	C45	0.758500	0.560100	0.523500
C461	C46	0.654400	0.491000	0.516000
C471	C47	0.559800	0.538000	0.492600
C481	C48	0.569400	0.654100	0.476900
C491	C49	0.673500	0.723200	0.484400
C501	C50	0.171500	0.818600	0.452240
C511	C51	0.200600	0.854700	0.400310
C521	C52	0.235200	0.770800	0.367350
C531	C53	0.265000	0.800900	0.318900
C541	C54	0.261800	0.915100	0.302680
C551	C55	0.226800	0.998800	0.336060
C561	C56	0.196800	0.969200	0.384520
C571	C57	0.296900	0.947700	0.251300
C581	C58	0.259000	0.874900	0.208400
C591	C59	0.305000	0.907500	0.162100
C601	C60	0.368000	0.009900	0.154750
C611	C61	0.405900	0.080100	0.196400
C621	C62	0.363700	0.048100	0.243500
C631	C63	0.406100	0.050600	0.103700
C641	C64	0.615800	0.251500	0.019020
C651	C65	0.732000	0.323800	0.007800
C661	C66	0.741500	0.439900	0.023500
C671	C67	0.845600	0.509000	0.016000
C681	C68	0.940200	0.462000	0.992600
C691	C69	0.930600	0.345900	0.976900
C701	C70	0.826500	0.276800	0.984400
C711	C71	0.328500	0.181400	0.952240
C721	C72	0.299400	0.145300	0.900310
C731	C73	0.264800	0.229200	0.867350
C741	C74	0.235000	0.199100	0.818900
C751	C75	0.238200	0.084900	0.802680
C761	C76	0.273200	0.001200	0.836060
C771	C77	0.303200	0.030800	0.884520
C781	C78	0.203100	0.052300	0.751300
C791	C79	0.241000	0.125100	0.708400
C801	C80	0.195000	0.092500	0.662100
C811	C81	0.132000	0.990100	0.654750
C821	C82	0.094100	0.919900	0.696400
C831	C83	0.136300	0.951900	0.743500
C841	C84	0.093900	0.949400	0.603700
O11	O1	0.811700	0.283990	0.534530
O21	O2	0.866860	0.109670	0.517050
O31	O3	0.577000	0.841900	0.902600
O41	O4	0.026650	0.309040	0.475870
O51	O5	0.563120	0.021560	0.926940
O61	O6	0.117520	0.142690	0.483130
O71	O7	0.688300	0.716010	0.034530
O81	O8	0.633140	0.890330	0.017050
O91	O9	0.923000	0.158100	0.402600
O101	O10	0.473350	0.690960	0.975870
O111	O11	0.936880	0.978440	0.426940
O121	O12	0.382480	0.857310	0.983130
O131	O13	0.188300	0.716010	0.465470
O141	O14	0.133140	0.890330	0.482950
O151	O15	0.423000	0.158100	0.097400
O161	O16	0.973350	0.690960	0.524130
O171	O17	0.436880	0.978440	0.073060
O181	O18	0.882480	0.857310	0.516870
O191	O19	0.311700	0.283990	0.965470
O201	O20	0.366860	0.109670	0.982950
O211	O21	0.077000	0.841900	0.597400
O221	O22	0.526650	0.309040	0.024130
O231	O23	0.063120	0.021560	0.573060
O241	O24	0.617520	0.142690	0.016870
