data_JEXXAM07_clean_PM
_symmetry_space_group_name_H-M	'P1'
_cell_length_a	7.289100
_cell_length_b	7.289100
_cell_length_c	8.047000
_cell_angle_alpha	90.000000
_cell_angle_beta	90.000000
_cell_angle_gamma	120.000000
_symmetry_Int_Tables_number 1

loop_
_symmetry_equiv_pos_as_xyz
'x,y,z'

loop_
_atom_site_label
_atom_site_type_symbol
_atom_site_fract_x
_atom_site_fract_y
_atom_site_fract_z
O11	O1	0.690300	0.110700	0.106100
O21	O2	0.889300	0.579600	0.106100
O31	O3	0.420400	0.309700	0.106100
O41	O4	0.309700	0.889300	0.606100
O51	O5	0.110700	0.420400	0.606100
O61	O6	0.579600	0.690300	0.606100
O71	O7	0.110700	0.690300	0.893900
O81	O8	0.579600	0.889300	0.893900
O91	O9	0.309700	0.420400	0.893900
O101	O10	0.889300	0.309700	0.393900
O111	O11	0.420400	0.110700	0.393900
O121	O12	0.690300	0.579600	0.393900
Ni11	Ni1	0.666670	0.333330	0.250000
Ni21	Ni2	0.333330	0.666670	0.750000
C11	C1	0.558600	0.000000	0.000000
H11	H1	0.431000	0.000000	0.000000
C21	C2	0.000000	0.558600	0.000000
H21	H2	0.000000	0.431000	0.000000
C31	C3	0.441400	0.441400	0.000000
H31	H3	0.569000	0.569000	0.000000
C41	C4	0.441400	0.000000	0.500000
H41	H4	0.569000	0.000000	0.500000
C51	C5	0.000000	0.441400	0.500000
H51	H5	0.000000	0.569000	0.500000
C61	C6	0.558600	0.558600	0.500000
H61	H6	0.431000	0.431000	0.500000
