data_JEXXAM06_clean_PM
_symmetry_space_group_name_H-M	'P1'
_cell_length_a	7.261000
_cell_length_b	7.261000
_cell_length_c	8.081100
_cell_angle_alpha	90.000000
_cell_angle_beta	90.000000
_cell_angle_gamma	120.000000
_symmetry_Int_Tables_number 1

loop_
_symmetry_equiv_pos_as_xyz
'x,y,z'

loop_
_atom_site_label
_atom_site_type_symbol
_atom_site_fract_x
_atom_site_fract_y
_atom_site_fract_z
O11	O1	0.691500	0.111400	0.106680
O21	O2	0.888600	0.580100	0.106680
O31	O3	0.419900	0.308500	0.106680
O41	O4	0.308500	0.888600	0.606680
O51	O5	0.111400	0.419900	0.606680
O61	O6	0.580100	0.691500	0.606680
O71	O7	0.111400	0.691500	0.893320
O81	O8	0.580100	0.888600	0.893320
O91	O9	0.308500	0.419900	0.893320
O101	O10	0.888600	0.308500	0.393320
O111	O11	0.419900	0.111400	0.393320
O121	O12	0.691500	0.580100	0.393320
Ni11	Ni1	0.666670	0.333330	0.250000
Ni21	Ni2	0.333330	0.666670	0.750000
C11	C1	0.556400	0.000000	0.000000
H11	H1	0.428300	0.000000	0.000000
C21	C2	0.000000	0.556400	0.000000
H21	H2	0.000000	0.428300	0.000000
C31	C3	0.443600	0.443600	0.000000
H31	H3	0.571700	0.571700	0.000000
C41	C4	0.443600	0.000000	0.500000
H41	H4	0.571700	0.000000	0.500000
C51	C5	0.000000	0.443600	0.500000
H51	H5	0.000000	0.571700	0.500000
C61	C6	0.556400	0.556400	0.500000
H61	H6	0.428300	0.428300	0.500000
