data_JIQVAH_clean_PM
_symmetry_space_group_name_H-M	'P1'
_cell_length_a	8.680000
_cell_length_b	11.086300
_cell_length_c	25.090300
_cell_angle_alpha	90.000000
_cell_angle_beta	90.000000
_cell_angle_gamma	101.550000
_symmetry_Int_Tables_number 1

loop_
_symmetry_equiv_pos_as_xyz
'x,y,z'

loop_
_atom_site_label
_atom_site_type_symbol
_atom_site_fract_x
_atom_site_fract_y
_atom_site_fract_z
Yb11	Yb1	0.808090	0.858780	0.594850
Yb21	Yb2	0.191910	0.141220	0.094850
Yb31	Yb3	0.191910	0.141220	0.405150
Yb41	Yb4	0.808090	0.858780	0.905150
H11	H1	0.069200	0.514300	0.623900
H21	H2	0.194200	0.381800	0.578000
H31	H3	0.538100	0.019100	0.704200
H41	H4	0.930800	0.485700	0.123900
H51	H5	0.805800	0.618200	0.078000
H61	H6	0.461900	0.980900	0.204200
H71	H7	0.930800	0.485700	0.376100
H81	H8	0.805800	0.618200	0.422000
H91	H9	0.461900	0.980900	0.295800
H101	H10	0.069200	0.514300	0.876100
H111	H11	0.194200	0.381800	0.922000
H121	H12	0.538100	0.019100	0.795800
Ru11	Ru1	0.387860	0.164430	0.610990
Ru21	Ru2	0.612140	0.835570	0.110990
Ru31	Ru3	0.612140	0.835570	0.389010
Ru41	Ru4	0.387860	0.164430	0.889010
Ru51	Ru5	0.011550	0.572900	0.750000
Ru61	Ru6	0.988450	0.427100	0.250000
C11	C1	0.263900	0.304300	0.693900
C21	C2	0.189500	0.384900	0.721600
C31	C3	0.118900	0.461400	0.643200
C41	C4	0.194200	0.379600	0.615000
C51	C5	0.486300	0.072600	0.722100
C61	C6	0.343200	0.222400	0.722300
C71	C7	0.192300	0.032600	0.613200
C81	C8	0.513300	0.038600	0.596400
C91	C9	0.657800	0.813900	0.465800
C101	C10	0.589500	0.290600	0.600200
C111	C11	0.926200	0.666900	0.693300
C121	C12	0.736100	0.695700	0.193900
C131	C13	0.810500	0.615100	0.221600
C141	C14	0.881100	0.538600	0.143200
C151	C15	0.805800	0.620400	0.115000
C161	C16	0.513700	0.927400	0.222100
C171	C17	0.656800	0.777600	0.222300
C181	C18	0.807700	0.967400	0.113200
C191	C19	0.486700	0.961400	0.096400
C201	C20	0.342200	0.186100	0.965800
C211	C21	0.410500	0.709400	0.100200
C221	C22	0.073800	0.333100	0.193300
C231	C23	0.736100	0.695700	0.306100
C241	C24	0.810500	0.615100	0.278400
C251	C25	0.881100	0.538600	0.356800
C261	C26	0.805800	0.620400	0.385000
C271	C27	0.513700	0.927400	0.277900
C281	C28	0.656800	0.777600	0.277700
C291	C29	0.807700	0.967400	0.386800
C301	C30	0.486700	0.961400	0.403600
C311	C31	0.342200	0.186100	0.534200
C321	C32	0.410500	0.709400	0.399800
C331	C33	0.073800	0.333100	0.306700
C341	C34	0.263900	0.304300	0.806100
C351	C35	0.189500	0.384900	0.778400
C361	C36	0.118900	0.461400	0.856800
C371	C37	0.194200	0.379600	0.885000
C381	C38	0.486300	0.072600	0.777900
C391	C39	0.343200	0.222400	0.777700
C401	C40	0.192300	0.032600	0.886800
C411	C41	0.513300	0.038600	0.903600
C421	C42	0.657800	0.813900	0.034200
C431	C43	0.589500	0.290600	0.899800
C441	C44	0.926200	0.666900	0.806700
C451	C45	0.820100	0.438100	0.750000
C461	C46	0.201600	0.708200	0.750000
C471	C47	0.179900	0.561900	0.250000
C481	C48	0.798400	0.291800	0.250000
N11	N1	0.265400	0.299000	0.639600
N21	N2	0.115800	0.466000	0.695500
N31	N3	0.414200	0.147200	0.693900
N41	N4	0.079500	0.953900	0.612000
N51	N5	0.592400	0.965700	0.591300
N61	N6	0.686400	0.803800	0.510000
N71	N7	0.705700	0.357400	0.590100
N81	N8	0.881800	0.719900	0.659200
N91	N9	0.734600	0.701000	0.139600
N101	N10	0.884200	0.534000	0.195500
N111	N11	0.585800	0.852800	0.193900
N121	N12	0.920500	0.046100	0.112000
N131	N13	0.407600	0.034300	0.091300
N141	N14	0.313600	0.196200	0.010000
N151	N15	0.294300	0.642600	0.090100
N161	N16	0.118200	0.280100	0.159200
N171	N17	0.734600	0.701000	0.360400
N181	N18	0.884200	0.534000	0.304500
N191	N19	0.585800	0.852800	0.306100
N201	N20	0.920500	0.046100	0.388000
N211	N21	0.407600	0.034300	0.408700
N221	N22	0.313600	0.196200	0.490000
N231	N23	0.294300	0.642600	0.409900
N241	N24	0.118200	0.280100	0.340800
N251	N25	0.265400	0.299000	0.860400
N261	N26	0.115800	0.466000	0.804500
N271	N27	0.414200	0.147200	0.806100
N281	N28	0.079500	0.953900	0.888000
N291	N29	0.592400	0.965700	0.908700
N301	N30	0.686400	0.803800	0.990000
N311	N31	0.705700	0.357400	0.909900
N321	N32	0.881800	0.719900	0.840800
N331	N33	0.712900	0.357900	0.750000
N341	N34	0.310000	0.791500	0.750000
N351	N35	0.287100	0.642100	0.250000
N361	N36	0.690000	0.208500	0.250000
