data_JIYXUL_clean_PM
_symmetry_space_group_name_H-M	'P1'
_cell_length_a	12.589800
_cell_length_b	14.933900
_cell_length_c	19.739000
_cell_angle_alpha	111.350000
_cell_angle_beta	101.661000
_cell_angle_gamma	93.977000
_symmetry_Int_Tables_number 1

loop_
_symmetry_equiv_pos_as_xyz
'x,y,z'

loop_
_atom_site_label
_atom_site_type_symbol
_atom_site_fract_x
_atom_site_fract_y
_atom_site_fract_z
Na11	Na1	0.894300	0.410300	0.421400
Na21	Na2	0.021900	0.026800	0.426400
Na31	Na3	0.621300	0.108400	0.387200
Na41	Na4	0.830500	0.425500	0.136400
Na51	Na5	0.356900	0.461800	0.952800
Na61	Na6	0.057100	0.145300	0.758200
Na71	Na7	0.105700	0.589700	0.578600
Na81	Na8	0.978100	0.973200	0.573600
Na91	Na9	0.378700	0.891600	0.612800
Na101	Na10	0.169500	0.574500	0.863600
Na111	Na11	0.643100	0.538200	0.047200
Na121	Na12	0.942900	0.854700	0.241800
Na131	Na13	0.500000	0.000000	0.500000
Fe11	Fe1	0.346630	0.353350	0.481660
Fe21	Fe2	0.794970	0.316410	0.563530
Fe31	Fe3	0.653370	0.646650	0.518340
Fe41	Fe4	0.205030	0.683590	0.436470
Sb11	Sb1	0.400510	0.491580	0.355930
Sb21	Sb2	0.599490	0.508420	0.644070
W11	W1	0.605290	0.374710	0.419460
W21	W2	0.457450	0.228250	0.246350
W31	W3	0.646180	0.410710	0.267830
W41	W4	0.596350	0.664720	0.341570
W51	W5	0.450350	0.522700	0.170650
W61	W6	0.332860	0.680930	0.292610
W71	W7	0.120200	0.477930	0.265670
W81	W8	0.239220	0.318840	0.145970
W91	W9	0.194160	0.282430	0.293550
W101	W10	0.394710	0.625290	0.580540
W111	W11	0.542550	0.771750	0.753650
W121	W12	0.353820	0.589290	0.732170
W131	W13	0.403650	0.335280	0.658430
W141	W14	0.549650	0.477300	0.829350
W151	W15	0.667140	0.319070	0.707390
W161	W16	0.879800	0.522070	0.734330
W171	W17	0.760780	0.681160	0.854030
W181	W18	0.805840	0.717570	0.706450
C11	C1	0.153700	0.234300	0.477500
C21	C2	0.230500	0.163800	0.442400
C31	C3	0.917800	0.181400	0.602600
C41	C4	0.852200	0.125700	0.520700
C51	C5	0.846300	0.765700	0.522500
C61	C6	0.769500	0.836200	0.557600
C71	C7	0.082200	0.818600	0.397400
C81	C8	0.147800	0.874300	0.479300
O11	O1	0.700100	0.333000	0.476700
O21	O2	0.480900	0.359100	0.447400
O31	O3	0.638900	0.504200	0.466300
O41	O4	0.704400	0.384000	0.352200
O51	O5	0.552600	0.239800	0.335400
O61	O6	0.502300	0.396400	0.322100
O71	O7	0.329000	0.229500	0.283600
O81	O8	0.577200	0.275800	0.215000
O91	O9	0.368900	0.272800	0.172700
O101	O10	0.756700	0.402100	0.228400
O111	O11	0.663900	0.546200	0.322900
O121	O12	0.537100	0.434200	0.193400
O131	O13	0.428200	0.343100	0.573600
O141	O14	0.484100	0.745400	0.330800
O151	O15	0.574700	0.622200	0.232100
O161	O16	0.433500	0.561700	0.291700
O171	O17	0.467000	0.513200	0.083400
O181	O18	0.322800	0.429200	0.141400
O191	O19	0.363800	0.626300	0.191900
O201	O20	0.676700	0.303600	0.612100
O211	O21	0.208300	0.579300	0.252700
O221	O22	0.989500	0.504700	0.243700
O231	O23	0.833100	0.452000	0.632100
O241	O24	0.122800	0.396300	0.162900
O251	O25	0.081200	0.360900	0.282300
O261	O26	0.274100	0.407700	0.272600
O271	O27	0.168600	0.236500	0.183600
O281	O28	0.259500	0.359700	0.389400
O291	O29	0.318400	0.204100	0.437000
O301	O30	0.196800	0.324600	0.504200
O311	O31	0.901800	0.269100	0.631100
O321	O32	0.781100	0.172300	0.496600
O331	O33	0.929200	0.337800	0.518200
O341	O34	0.868600	0.043700	0.485200
O351	O35	0.200700	0.075400	0.421400
O361	O36	0.061600	0.202500	0.478200
O371	O37	0.977900	0.138800	0.633300
O381	O38	0.911800	0.541900	0.540200
O391	O39	0.624200	0.955600	0.416600
O401	O40	0.666700	0.377100	0.038300
O411	O41	0.758900	0.579100	0.169400
O421	O42	0.525900	0.152300	0.485900
O431	O43	0.965100	0.028200	0.303500
O441	O44	0.299900	0.667000	0.523300
O451	O45	0.519100	0.640900	0.552600
O461	O46	0.361100	0.495800	0.533700
O471	O47	0.295600	0.616000	0.647800
O481	O48	0.447400	0.760200	0.664600
O491	O49	0.497700	0.603600	0.677900
O501	O50	0.671000	0.770500	0.716400
O511	O51	0.422800	0.724200	0.785000
O521	O52	0.631100	0.727200	0.827300
O531	O53	0.243300	0.597900	0.771600
O541	O54	0.336100	0.453800	0.677100
O551	O55	0.462900	0.565800	0.806600
O561	O56	0.571800	0.656900	0.426400
O571	O57	0.515900	0.254600	0.669200
O581	O58	0.425300	0.377800	0.767900
O591	O59	0.566500	0.438300	0.708300
O601	O60	0.533000	0.486800	0.916600
O611	O61	0.677200	0.570800	0.858600
O621	O62	0.636200	0.373700	0.808100
O631	O63	0.323300	0.696400	0.387900
O641	O64	0.791700	0.420700	0.747300
O651	O65	0.010500	0.495300	0.756300
O661	O66	0.166900	0.548000	0.367900
O671	O67	0.877200	0.603700	0.837100
O681	O68	0.918800	0.639100	0.717700
O691	O69	0.725900	0.592300	0.727400
O701	O70	0.831400	0.763500	0.816400
O711	O71	0.740500	0.640300	0.610600
O721	O72	0.681600	0.795900	0.563000
O731	O73	0.803200	0.675400	0.495800
O741	O74	0.098200	0.730900	0.368900
O751	O75	0.218900	0.827700	0.503400
O761	O76	0.070800	0.662200	0.481800
O771	O77	0.131400	0.956300	0.514800
O781	O78	0.799300	0.924600	0.578600
O791	O79	0.938400	0.797500	0.521800
O801	O80	0.022100	0.861200	0.366700
O811	O81	0.088200	0.458100	0.459800
O821	O82	0.375800	0.044400	0.583400
O831	O83	0.333300	0.622900	0.961700
O841	O84	0.241100	0.420900	0.830600
O851	O85	0.474100	0.847700	0.514100
O861	O86	0.034900	0.971800	0.696500
