data_JIZWOG_clean_PM
_symmetry_space_group_name_H-M	'P1'
_cell_length_a	13.224600
_cell_length_b	17.892300
_cell_length_c	11.083600
_cell_angle_alpha	90.000000
_cell_angle_beta	89.801000
_cell_angle_gamma	90.000000
_symmetry_Int_Tables_number 1

loop_
_symmetry_equiv_pos_as_xyz
'x,y,z'

loop_
_atom_site_label
_atom_site_type_symbol
_atom_site_fract_x
_atom_site_fract_y
_atom_site_fract_z
Al11	Al1	0.116200	0.237200	0.241600
O11	O1	0.942700	0.683500	0.618800
O21	O2	0.163900	0.161800	0.136500
O31	O3	0.100000	0.333100	0.326200
O41	O4	0.327300	0.794600	0.887600
Al21	Al2	0.131000	0.733800	0.754400
O51	O5	0.006700	0.722000	0.833400
O61	O6	0.255900	0.739000	0.681200
O71	O7	0.164000	0.810800	0.866600
O81	O8	0.944100	0.296300	0.350500
O91	O9	0.096000	0.660900	0.627700
O101	O10	0.330400	0.161900	0.143200
C11	C1	0.151900	0.932290	0.024210
C21	C2	0.164010	0.998730	0.109000
C31	C3	0.344200	0.014900	0.048150
C41	C4	0.332960	0.948650	0.963080
C51	C5	0.253830	0.892760	0.007310
C61	C6	0.241670	0.053690	0.060780
C71	C7	0.245750	0.827620	0.921990
C81	C8	0.246780	0.124580	0.133190
C91	C9	0.924160	0.515030	0.541130
C101	C10	0.916880	0.451080	0.451210
C111	C11	0.100640	0.466840	0.405210
C121	C12	0.108230	0.531970	0.493500
C131	C13	0.005530	0.571670	0.506060
C141	C14	0.019320	0.411350	0.443690
C151	C15	0.010410	0.634390	0.596620
C161	C16	0.015670	0.342850	0.364940
O111	O11	0.176000	0.277200	0.097000
Al31	Al3	0.374600	0.727300	0.760900
O121	O12	0.560600	0.163000	0.358400
O131	O13	0.329500	0.648600	0.859700
O141	O14	0.406100	0.797900	0.647000
O151	O15	0.157200	0.647400	0.861600
Al41	Al4	0.372200	0.234000	0.264900
O161	O16	0.493100	0.232500	0.189400
O171	O17	0.241800	0.254700	0.311500
O181	O18	0.330700	0.305200	0.140900
O191	O19	0.568400	0.817500	0.639500
O201	O20	0.393500	0.162000	0.380900
C171	C17	0.336330	0.429830	0.007550
C181	C18	0.324640	0.493640	0.917550
C191	C19	0.144730	0.512550	0.977510
C201	C20	0.155570	0.448960	0.067780
C211	C21	0.234080	0.391380	0.027890
C221	C22	0.247590	0.550400	0.961500
C231	C23	0.241770	0.328910	0.118320
C241	C24	0.242970	0.618990	0.883480
C251	C25	0.569050	0.018410	0.464340
C261	C26	0.575810	0.954750	0.554860
C271	C27	0.390420	0.967380	0.593360
C281	C28	0.383270	0.032200	0.504450
C291	C29	0.484960	0.073670	0.495810
C301	C30	0.474520	0.913260	0.558470
C311	C31	0.480660	0.136140	0.404750
C321	C32	0.478100	0.844970	0.637710
Al51	Al5	0.883800	0.737200	0.758400
O211	O21	0.057300	0.183500	0.381200
O221	O22	0.836100	0.661800	0.863500
O231	O23	0.900000	0.833100	0.673800
O241	O24	0.672700	0.294600	0.112400
Al61	Al6	0.869000	0.233800	0.245600
O251	O25	0.993300	0.222000	0.166600
O261	O26	0.744100	0.239000	0.318800
O271	O27	0.836000	0.310800	0.133400
O281	O28	0.055900	0.796300	0.649500
O291	O29	0.904000	0.160900	0.372300
O301	O30	0.669600	0.661900	0.856800
C331	C33	0.848100	0.432290	0.975790
C341	C34	0.835990	0.498730	0.891000
C351	C35	0.655800	0.514900	0.951850
C361	C36	0.667040	0.448650	0.036920
C371	C37	0.746170	0.392760	0.992690
C381	C38	0.758330	0.553690	0.939220
C391	C39	0.754250	0.327620	0.078010
C401	C40	0.753220	0.624580	0.866810
C411	C41	0.075840	0.015030	0.458870
C421	C42	0.083120	0.951080	0.548790
C431	C43	0.899360	0.966840	0.594790
C441	C44	0.891770	0.031970	0.506500
C451	C45	0.994470	0.071670	0.493940
C461	C46	0.980680	0.911350	0.556310
C471	C47	0.989590	0.134390	0.403380
C481	C48	0.984330	0.842850	0.635060
O311	O31	0.824000	0.777200	0.903000
Al71	Al7	0.625400	0.227300	0.239100
O321	O32	0.439400	0.663000	0.641600
O331	O33	0.670500	0.148600	0.140300
O341	O34	0.593900	0.297900	0.353000
O351	O35	0.842800	0.147400	0.138400
Al81	Al8	0.627800	0.734000	0.735100
O361	O36	0.506900	0.732500	0.810600
O371	O37	0.758200	0.754700	0.688500
O381	O38	0.669300	0.805200	0.859100
O391	O39	0.431600	0.317500	0.360500
O401	O40	0.606500	0.662000	0.619100
C491	C49	0.663670	0.929830	0.992450
C501	C50	0.675360	0.993640	0.082450
C511	C51	0.855270	0.012550	0.022490
C521	C52	0.844430	0.948960	0.932220
C531	C53	0.765920	0.891380	0.972110
C541	C54	0.752410	0.050400	0.038500
C551	C55	0.758230	0.828910	0.881680
C561	C56	0.757030	0.118990	0.116520
C571	C57	0.430950	0.518410	0.535660
C581	C58	0.424190	0.454750	0.445140
C591	C59	0.609580	0.467380	0.406640
C601	C60	0.616730	0.532200	0.495550
C611	C61	0.515040	0.573670	0.504190
C621	C62	0.525480	0.413260	0.441530
C631	C63	0.519340	0.636140	0.595250
C641	C64	0.521900	0.344970	0.362290
