data_JIZWEW_clean_PM
_symmetry_space_group_name_H-M	'P1'
_cell_length_a	6.610300
_cell_length_b	17.898400
_cell_length_c	11.098900
_cell_angle_alpha	90.000000
_cell_angle_beta	91.246100
_cell_angle_gamma	90.000000
_symmetry_Int_Tables_number 1

loop_
_symmetry_equiv_pos_as_xyz
'x,y,z'

loop_
_atom_site_label
_atom_site_type_symbol
_atom_site_fract_x
_atom_site_fract_y
_atom_site_fract_z
Al11	Al1	0.229700	0.223890	0.254300
O11	O1	0.987400	0.221000	0.155100
O21	O2	0.824000	0.649200	0.620700
O31	O3	0.364500	0.145200	0.168300
O41	O4	0.166000	0.308300	0.355700
O51	O5	0.671400	0.796500	0.858500
Al21	Al2	0.245700	0.723220	0.754300
O61	O6	0.497100	0.732400	0.679300
O71	O7	0.363700	0.795730	0.860500
O81	O8	0.884800	0.298500	0.344000
O91	O9	0.681500	0.139700	0.157500
O101	O10	0.181800	0.650500	0.636800
C11	C1	0.321030	0.943580	0.956440
C21	C2	0.332830	0.004990	0.050820
C31	C3	0.703380	0.016740	0.019760
C41	C4	0.688860	0.956370	0.924280
C51	C5	0.520120	0.901300	0.950410
C61	C6	0.505450	0.058970	0.027020
C71	C7	0.516010	0.840250	0.857510
C81	C8	0.511910	0.122830	0.115260
C91	C9	0.845980	0.510300	0.567570
C101	C10	0.821680	0.441300	0.489000
C111	C11	0.167990	0.458240	0.416210
C121	C12	0.195680	0.528750	0.492190
C131	C13	0.994780	0.566490	0.516940
C141	C14	0.024890	0.403700	0.475700
C151	C15	0.009090	0.633770	0.598670
C161	C16	0.016240	0.329250	0.412610
Al31	Al3	0.770300	0.723890	0.745700
O111	O11	0.012600	0.721000	0.844900
O121	O12	0.176000	0.149200	0.379300
O131	O13	0.635500	0.645200	0.831700
O141	O14	0.834000	0.808300	0.644300
O151	O15	0.328600	0.296500	0.141500
Al41	Al4	0.754300	0.223220	0.245700
O161	O16	0.502900	0.232400	0.320700
O171	O17	0.636300	0.295730	0.139500
O181	O18	0.115200	0.798500	0.656000
O191	O19	0.318500	0.639700	0.842500
O201	O20	0.818200	0.150500	0.363200
C171	C17	0.678970	0.443580	0.043560
C181	C18	0.667170	0.504990	0.949180
C191	C19	0.296620	0.516740	0.980240
C201	C20	0.311140	0.456370	0.075720
C211	C21	0.479880	0.401300	0.049590
C221	C22	0.494550	0.558970	0.972980
C231	C23	0.483990	0.340250	0.142490
C241	C24	0.488090	0.622830	0.884740
C251	C25	0.154020	0.010300	0.432430
C261	C26	0.178320	0.941300	0.511000
C271	C27	0.832010	0.958240	0.583790
C281	C28	0.804320	0.028750	0.507810
C291	C29	0.005220	0.066490	0.483060
C301	C30	0.975110	0.903700	0.524300
C311	C31	0.990910	0.133770	0.401330
C321	C32	0.983760	0.829250	0.587390
