data_JODGEP_clean_PM
_symmetry_space_group_name_H-M	'P1'
_cell_length_a	6.945700
_cell_length_b	19.230700
_cell_length_c	19.668100
_cell_angle_alpha	71.654900
_cell_angle_beta	79.829800
_cell_angle_gamma	79.596000
_symmetry_Int_Tables_number 1

loop_
_symmetry_equiv_pos_as_xyz
'x,y,z'

loop_
_atom_site_label
_atom_site_type_symbol
_atom_site_fract_x
_atom_site_fract_y
_atom_site_fract_z
Er11	Er1	0.837280	0.619910	0.765890
Er21	Er2	0.768230	0.382350	0.610590
Er31	Er3	0.223080	0.880090	0.734110
Er41	Er4	0.761170	0.117650	0.889410
Er51	Er5	0.162720	0.380090	0.234110
Er61	Er6	0.231770	0.617650	0.389410
Er71	Er7	0.776920	0.119910	0.265890
Er81	Er8	0.238830	0.882350	0.110590
Cu11	Cu1	0.750100	0.489810	0.002350
Cu21	Cu2	0.242260	0.010190	0.497650
Cu31	Cu3	0.249900	0.510190	0.997650
Cu41	Cu4	0.757740	0.989810	0.502350
H11	H1	0.890100	0.732100	0.980500
H21	H2	0.682400	0.340500	0.855100
H31	H3	0.602700	0.767900	0.519500
H41	H4	0.878000	0.159500	0.644900
H51	H5	0.109900	0.267900	0.019500
H61	H6	0.317600	0.659500	0.144900
H71	H7	0.397300	0.232100	0.480500
H81	H8	0.122000	0.840500	0.355100
C11	C1	0.781700	0.584100	0.079300
C21	C2	0.824200	0.624200	0.002600
C31	C3	0.873100	0.693800	0.963600
C41	C4	0.891000	0.691400	0.893000
C51	C5	0.948500	0.747100	0.821500
C61	C6	0.675300	0.353400	0.005600
C71	C7	0.709100	0.394200	0.929400
C81	C8	0.707400	0.382800	0.863400
C91	C9	0.749300	0.448500	0.813300
C101	C10	0.761000	0.475400	0.734200
C111	C11	0.084300	0.486700	0.522900
C121	C12	0.445100	0.915900	0.420700
C131	C13	0.451000	0.875800	0.497400
C141	C14	0.530500	0.806200	0.536400
C151	C15	0.475400	0.808600	0.607000
C161	C16	0.517100	0.752900	0.678500
C171	C17	0.034300	0.146600	0.494400
C181	C18	0.032700	0.105800	0.570600
C191	C19	0.953600	0.117200	0.636600
C201	C20	0.011100	0.051500	0.686700
C211	C21	0.970600	0.024600	0.765800
C221	C22	0.093900	0.013300	0.977100
C231	C23	0.218300	0.415900	0.920700
C241	C24	0.175800	0.375800	0.997400
C251	C25	0.126900	0.306200	0.036400
C261	C26	0.109000	0.308600	0.107000
C271	C27	0.051500	0.252900	0.178500
C281	C28	0.324700	0.646600	0.994400
C291	C29	0.290900	0.605800	0.070600
C301	C30	0.292600	0.617200	0.136600
C311	C31	0.250700	0.551500	0.186700
C321	C32	0.239000	0.524600	0.265800
C331	C33	0.915700	0.513300	0.477100
C341	C34	0.554900	0.084100	0.579300
C351	C35	0.549000	0.124200	0.502600
C361	C36	0.469500	0.193800	0.463600
C371	C37	0.524600	0.191400	0.393000
C381	C38	0.482900	0.247100	0.321500
C391	C39	0.965700	0.853400	0.505600
C401	C40	0.967300	0.894200	0.429400
C411	C41	0.046400	0.882800	0.363400
C421	C42	0.988900	0.948500	0.313300
C431	C43	0.029400	0.975400	0.234200
C441	C44	0.906100	0.986700	0.022900
C451	C45	0.892000	0.250000	0.750000
C461	C46	0.668000	0.250000	0.750000
C471	C47	0.108000	0.750000	0.250000
C481	C48	0.332000	0.750000	0.250000
N11	N1	0.820500	0.585500	0.956900
N21	N2	0.859500	0.627000	0.888600
N31	N3	0.753100	0.462800	0.916800
N41	N4	0.778300	0.496700	0.846300
N51	N5	0.362900	0.914500	0.543100
N61	N6	0.375100	0.873000	0.611400
N71	N7	0.132700	0.037200	0.583200
N81	N8	0.121300	0.003300	0.653700
N91	N9	0.179500	0.414500	0.043100
N101	N10	0.140500	0.373000	0.111400
N111	N11	0.246900	0.537200	0.083200
N121	N12	0.221700	0.503300	0.153700
N131	N13	0.637100	0.085500	0.456900
N141	N14	0.624900	0.127000	0.388600
N151	N15	0.867300	0.962800	0.416800
N161	N16	0.878700	0.996700	0.346300
O11	O1	0.749600	0.517400	0.090400
O21	O2	0.779400	0.611900	0.127300
O31	O3	0.913700	0.731400	0.767600
O41	O4	0.024400	0.800700	0.821500
O51	O5	0.670400	0.392200	0.049400
O61	O6	0.651700	0.287900	0.027100
O71	O7	0.786000	0.542300	0.704900
O81	O8	0.741500	0.431600	0.700600
O91	O9	0.972900	0.297900	0.698900
O101	O10	0.598400	0.292200	0.695400
O111	O11	0.060500	0.435500	0.579500
O121	O12	0.233200	0.520300	0.498900
O131	O13	0.357400	0.982600	0.409600
O141	O14	0.518600	0.888100	0.372700
O151	O15	0.412700	0.768600	0.732400
O161	O16	0.646600	0.699300	0.678500
O171	O17	0.112000	0.107800	0.450600
O181	O18	0.966700	0.212100	0.472900
O191	O19	0.033200	0.957700	0.795100
O201	O20	0.873700	0.068400	0.799400
O211	O21	0.969700	0.202100	0.801100
O221	O22	0.586000	0.207800	0.804600
O231	O23	0.075500	0.064500	0.920500
O241	O24	0.252400	0.979700	0.001100
O251	O25	0.250400	0.482600	0.909600
O261	O26	0.220600	0.388100	0.872700
O271	O27	0.086300	0.268600	0.232400
O281	O28	0.975600	0.199300	0.178500
O291	O29	0.329600	0.607800	0.950600
O301	O30	0.348300	0.712100	0.972900
O311	O31	0.214000	0.457700	0.295100
O321	O32	0.258500	0.568400	0.299400
O331	O33	0.027100	0.702100	0.301100
O341	O34	0.401600	0.707800	0.304600
O351	O35	0.939500	0.564500	0.420500
O361	O36	0.766800	0.479700	0.501100
O371	O37	0.642600	0.017400	0.590400
O381	O38	0.481400	0.111900	0.627300
O391	O39	0.587300	0.231400	0.267600
O401	O40	0.353400	0.300700	0.321500
O411	O41	0.888000	0.892200	0.549400
O421	O42	0.033300	0.787900	0.527100
O431	O43	0.966800	0.042300	0.204900
O441	O44	0.126300	0.931600	0.200600
O451	O45	0.030300	0.797900	0.198900
O461	O46	0.414000	0.792200	0.195400
O471	O47	0.924500	0.935500	0.079500
O481	O48	0.747600	0.020300	0.998900
