data_JOJLOK_clean_PM
_symmetry_space_group_name_H-M	'P1'
_cell_length_a	6.660200
_cell_length_b	11.694100
_cell_length_c	22.788000
_cell_angle_alpha	90.000000
_cell_angle_beta	90.000000
_cell_angle_gamma	90.000000
_symmetry_Int_Tables_number 1

loop_
_symmetry_equiv_pos_as_xyz
'x,y,z'

loop_
_atom_site_label
_atom_site_type_symbol
_atom_site_fract_x
_atom_site_fract_y
_atom_site_fract_z
Th11	Th1	0.767000	0.404130	0.862010
Th21	Th2	0.733000	0.595870	0.362010
Th31	Th3	0.233000	0.904130	0.637990
Th41	Th4	0.267000	0.095870	0.137990
H11	H1	0.751600	0.970500	0.030600
H21	H2	0.742900	0.097900	0.868900
H31	H3	0.210800	0.469200	0.775200
H41	H4	0.398700	0.417400	0.696100
H51	H5	0.738100	0.942800	0.928800
H61	H6	0.289400	0.279700	0.634700
H71	H7	0.748400	0.029500	0.530600
H81	H8	0.757100	0.902100	0.368900
H91	H9	0.289200	0.530800	0.275200
H101	H10	0.101300	0.582600	0.196100
H111	H11	0.761900	0.057200	0.428800
H121	H12	0.210600	0.720300	0.134700
H131	H13	0.248400	0.470500	0.469400
H141	H14	0.257100	0.597900	0.631100
H151	H15	0.789200	0.969200	0.724800
H161	H16	0.601300	0.917400	0.803900
H171	H17	0.261900	0.442800	0.571200
H181	H18	0.710600	0.779700	0.865300
H191	H19	0.251600	0.529500	0.969400
H201	H20	0.242900	0.402100	0.131100
H211	H21	0.710800	0.030800	0.224800
H221	H22	0.898700	0.082600	0.303900
H231	H23	0.238100	0.557200	0.071200
H241	H24	0.789400	0.220300	0.365300
C11	C1	0.754000	0.231800	0.986900
C21	C2	0.766000	0.354300	0.005400
C31	C3	0.761000	0.142000	0.026900
C41	C4	0.760000	0.155500	0.092000
C51	C5	0.752000	0.032700	0.005300
C61	C6	0.745000	0.109400	0.909300
C71	C7	0.163700	0.411200	0.751000
C81	C8	0.277000	0.381200	0.703100
C91	C9	0.744000	0.016100	0.944600
C101	C10	0.723000	0.224500	0.746100
C111	C11	0.917000	0.281200	0.727200
C121	C12	0.023000	0.246900	0.677900
C131	C13	0.213000	0.300900	0.666900
C141	C14	0.946700	0.159700	0.635000
C151	C15	0.746000	0.768200	0.486900
C161	C16	0.734000	0.645700	0.505400
C171	C17	0.739000	0.858000	0.526900
C181	C18	0.740000	0.844500	0.592000
C191	C19	0.748000	0.967300	0.505300
C201	C20	0.755000	0.890600	0.409300
C211	C21	0.336300	0.588800	0.251000
C221	C22	0.223000	0.618800	0.203100
C231	C23	0.756000	0.983900	0.444600
C241	C24	0.777000	0.775500	0.246100
C251	C25	0.583000	0.718800	0.227200
C261	C26	0.477000	0.753100	0.177900
C271	C27	0.287000	0.699100	0.166900
C281	C28	0.553300	0.840300	0.135000
C291	C29	0.246000	0.731800	0.513100
C301	C30	0.234000	0.854300	0.494600
C311	C31	0.239000	0.642000	0.473100
C321	C32	0.240000	0.655500	0.408000
C331	C33	0.248000	0.532700	0.494700
C341	C34	0.255000	0.609400	0.590700
C351	C35	0.836300	0.911200	0.749000
C361	C36	0.723000	0.881200	0.796900
C371	C37	0.256000	0.516100	0.555400
C381	C38	0.277000	0.724500	0.753900
C391	C39	0.083000	0.781200	0.772800
C401	C40	0.977000	0.746900	0.822100
C411	C41	0.787000	0.800900	0.833100
C421	C42	0.053300	0.659700	0.865000
C431	C43	0.254000	0.268200	0.013100
C441	C44	0.266000	0.145700	0.994600
C451	C45	0.261000	0.358000	0.973100
C461	C46	0.260000	0.344500	0.908000
C471	C47	0.252000	0.467300	0.994700
C481	C48	0.245000	0.390600	0.090700
C491	C49	0.663700	0.088800	0.249000
C501	C50	0.777000	0.118800	0.296900
C511	C51	0.244000	0.483900	0.055400
C521	C52	0.223000	0.275500	0.253900
C531	C53	0.417000	0.218800	0.272800
C541	C54	0.523000	0.253100	0.322100
C551	C55	0.713000	0.199100	0.333100
C561	C56	0.446700	0.340300	0.365000
N11	N1	0.749000	0.216500	0.929000
N21	N2	0.989500	0.361400	0.764600
N31	N3	0.751000	0.783500	0.429000
N41	N4	0.510500	0.638600	0.264600
N51	N5	0.251000	0.716500	0.571000
N61	N6	0.010500	0.861400	0.735400
N71	N7	0.249000	0.283500	0.071000
N81	N8	0.489500	0.138600	0.235400
O11	O1	0.770400	0.427900	0.963900
O21	O2	0.773900	0.378100	0.057800
O31	O3	0.639400	0.159800	0.712800
O41	O4	0.669700	0.251300	0.799200
O51	O5	0.589100	0.168600	0.116700
O61	O6	0.006100	0.057800	0.639000
O71	O7	0.917700	0.144300	0.119700
O81	O8	0.828600	0.193400	0.594900
O91	O9	0.729600	0.572100	0.463900
O101	O10	0.726100	0.621900	0.557800
O111	O11	0.860600	0.840200	0.212800
O121	O12	0.830300	0.748700	0.299200
O131	O13	0.910900	0.831400	0.616700
O141	O14	0.493900	0.942200	0.139000
O151	O15	0.582300	0.855700	0.619700
O161	O16	0.671400	0.806600	0.094900
O171	O17	0.229600	0.927900	0.536100
O181	O18	0.226100	0.878100	0.442200
O191	O19	0.360600	0.659800	0.787200
O201	O20	0.330300	0.751300	0.700800
O211	O21	0.410900	0.668600	0.383300
O221	O22	0.993900	0.557800	0.861000
O231	O23	0.082300	0.644300	0.380300
O241	O24	0.171400	0.693400	0.905100
O251	O25	0.270400	0.072100	0.036100
O261	O26	0.273900	0.121900	0.942200
O271	O27	0.139400	0.340200	0.287200
O281	O28	0.169700	0.248700	0.200800
O291	O29	0.089100	0.331400	0.883300
O301	O30	0.506100	0.442200	0.361000
O311	O31	0.417700	0.355700	0.880300
O321	O32	0.328600	0.306600	0.405100
