data_JOJMEB_clean_PM
_symmetry_space_group_name_H-M	'P1'
_cell_length_a	7.245300
_cell_length_b	9.421800
_cell_length_c	14.091700
_cell_angle_alpha	78.313900
_cell_angle_beta	75.103400
_cell_angle_gamma	67.387600
_symmetry_Int_Tables_number 1

loop_
_symmetry_equiv_pos_as_xyz
'x,y,z'

loop_
_atom_site_label
_atom_site_type_symbol
_atom_site_fract_x
_atom_site_fract_y
_atom_site_fract_z
Th11	Th1	0.227200	0.750000	0.250000
Th21	Th2	0.772800	0.250000	0.750000
H11	H1	0.821100	0.493500	0.928100
H21	H2	0.804700	0.376800	0.476400
H31	H3	0.242700	0.006500	0.571900
H41	H4	0.657900	0.123200	0.023600
H51	H5	0.178900	0.506500	0.071900
H61	H6	0.195300	0.623200	0.523600
H71	H7	0.757300	0.993500	0.428100
H81	H8	0.342100	0.876800	0.976400
C11	C1	0.578400	0.580900	0.034700
C21	C2	0.659600	0.679700	0.073500
C31	C3	0.689600	0.494800	0.956400
C41	C4	0.884800	0.426200	0.487800
C51	C5	0.969300	0.512900	0.408900
C61	C6	0.949400	0.516900	0.304500
C71	C7	0.194000	0.919100	0.465300
C81	C8	0.412800	0.820300	0.426500
C91	C9	0.140800	0.005200	0.543600
C101	C10	0.798800	0.073800	0.012200
C111	C11	0.891100	0.987100	0.091100
C121	C12	0.770800	0.983100	0.195500
C131	C13	0.421600	0.419100	0.965300
C141	C14	0.340400	0.320300	0.926500
C151	C15	0.310400	0.505200	0.043600
C161	C16	0.115200	0.573800	0.512200
C171	C17	0.030700	0.487100	0.591100
C181	C18	0.050600	0.483100	0.695500
C191	C19	0.806000	0.080900	0.534700
C201	C20	0.587200	0.179700	0.573500
C211	C21	0.859200	0.994800	0.456400
C221	C22	0.201200	0.926200	0.987800
C231	C23	0.108900	0.012900	0.908900
C241	C24	0.229200	0.016900	0.804500
N11	N1	0.388600	0.586090	0.079310
N21	N2	0.084270	0.587760	0.421100
N31	N3	0.054000	0.913910	0.420690
N41	N4	0.093130	0.912240	0.078900
N51	N5	0.611400	0.413910	0.920690
N61	N6	0.915730	0.412240	0.578900
N71	N7	0.946000	0.086090	0.579310
N81	N8	0.906870	0.087760	0.921100
O11	O1	0.534210	0.758510	0.142270
O21	O2	0.832080	0.681060	0.037180
O31	O3	0.849440	0.444040	0.290680
O41	O4	0.047810	0.588490	0.238890
O51	O5	0.434990	0.741490	0.357730
O61	O6	0.550320	0.818940	0.462820
O71	O7	0.584160	0.055960	0.209320
O81	O8	0.875190	0.911510	0.261110
O91	O9	0.465790	0.241490	0.857730
O101	O10	0.167920	0.318940	0.962820
O111	O11	0.150560	0.555960	0.709320
O121	O12	0.952190	0.411510	0.761110
O131	O13	0.565010	0.258510	0.642270
O141	O14	0.449680	0.181060	0.537180
O151	O15	0.415840	0.944040	0.790680
O161	O16	0.124810	0.088490	0.738890
