data_JOKYIR_clean_PM
_symmetry_space_group_name_H-M	'P1'
_cell_length_a	14.104000
_cell_length_b	26.799000
_cell_length_c	7.657000
_cell_angle_alpha	90.000000
_cell_angle_beta	90.000000
_cell_angle_gamma	90.000000
_symmetry_Int_Tables_number 1

loop_
_symmetry_equiv_pos_as_xyz
'x,y,z'

loop_
_atom_site_label
_atom_site_type_symbol
_atom_site_fract_x
_atom_site_fract_y
_atom_site_fract_z
Cd11	Cd1	0.216400	0.115070	0.123400
N11	N1	0.241000	0.171600	0.897000
N21	N2	0.241400	0.171100	0.335000
N31	N3	0.165400	0.052700	0.336000
N41	N4	0.368600	0.080700	0.119000
N51	N5	0.175600	0.056000	0.903000
N61	N6	0.052100	0.127500	0.078000
C11	C1	0.243500	0.200900	0.787000
C21	C2	0.245400	0.201300	0.442000
C31	C3	0.104100	0.032900	0.401000
C41	C4	0.418300	0.050200	0.075000
C51	C5	0.074000	0.059700	0.874000
C61	C6	0.020000	0.094000	0.939000
C71	C7	0.913100	0.094300	0.908000
Cd21	Cd2	0.283600	0.884930	0.623400
N71	N7	0.259000	0.828400	0.397000
N81	N8	0.258600	0.828900	0.835000
N91	N9	0.334600	0.947300	0.836000
N101	N10	0.131400	0.919300	0.619000
N111	N11	0.324400	0.944000	0.403000
N121	N12	0.447900	0.872500	0.578000
C81	C8	0.256500	0.799100	0.287000
C91	C9	0.254600	0.798700	0.942000
C101	C10	0.395900	0.967100	0.901000
C111	C11	0.081700	0.949800	0.575000
C121	C12	0.426000	0.940300	0.374000
C131	C13	0.480000	0.906000	0.439000
C141	C14	0.586900	0.905700	0.408000
Cd31	Cd3	0.783600	0.615070	0.876600
N131	N13	0.759000	0.671600	0.103000
N141	N14	0.758600	0.671100	0.665000
N151	N15	0.834600	0.552700	0.664000
N161	N16	0.631400	0.580700	0.881000
N171	N17	0.824400	0.556000	0.097000
N181	N18	0.947900	0.627500	0.922000
C151	C15	0.756500	0.700900	0.213000
C161	C16	0.754600	0.701300	0.558000
C171	C17	0.895900	0.532900	0.599000
C181	C18	0.581700	0.550200	0.925000
C191	C19	0.926000	0.559700	0.126000
C201	C20	0.980000	0.594000	0.061000
C211	C21	0.086900	0.594300	0.092000
Cd41	Cd4	0.716400	0.384930	0.376600
N191	N19	0.741000	0.328400	0.603000
N201	N20	0.741400	0.328900	0.165000
N211	N21	0.665400	0.447300	0.164000
N221	N22	0.868600	0.419300	0.381000
N231	N23	0.675600	0.444000	0.597000
N241	N24	0.552100	0.372500	0.422000
C221	C22	0.743500	0.299100	0.713000
C231	C23	0.745400	0.298700	0.058000
C241	C24	0.604100	0.467100	0.099000
C251	C25	0.918300	0.449800	0.425000
C261	C26	0.574000	0.440300	0.626000
C271	C27	0.520000	0.406000	0.561000
C281	C28	0.413100	0.405700	0.592000
Cd51	Cd5	0.783600	0.884930	0.876600
N251	N25	0.759000	0.828400	0.103000
N261	N26	0.758600	0.828900	0.665000
N271	N27	0.834600	0.947300	0.664000
N281	N28	0.631400	0.919300	0.881000
N291	N29	0.824400	0.944000	0.097000
N301	N30	0.947900	0.872500	0.922000
C291	C29	0.756500	0.799100	0.213000
C301	C30	0.754600	0.798700	0.558000
C311	C31	0.895900	0.967100	0.599000
C321	C32	0.581700	0.949800	0.925000
C331	C33	0.926000	0.940300	0.126000
C341	C34	0.980000	0.906000	0.061000
C351	C35	0.086900	0.905700	0.092000
Cd61	Cd6	0.716400	0.115070	0.376600
N311	N31	0.741000	0.171600	0.603000
N321	N32	0.741400	0.171100	0.165000
N331	N33	0.665400	0.052700	0.164000
N341	N34	0.868600	0.080700	0.381000
N351	N35	0.675600	0.056000	0.597000
N361	N36	0.552100	0.127500	0.422000
C361	C36	0.743500	0.200900	0.713000
C371	C37	0.745400	0.201300	0.058000
C381	C38	0.604100	0.032900	0.099000
C391	C39	0.918300	0.050200	0.425000
C401	C40	0.574000	0.059700	0.626000
C411	C41	0.520000	0.094000	0.561000
C421	C42	0.413100	0.094300	0.592000
Cd71	Cd7	0.216400	0.384930	0.123400
N371	N37	0.241000	0.328400	0.897000
N381	N38	0.241400	0.328900	0.335000
N391	N39	0.165400	0.447300	0.336000
N401	N40	0.368600	0.419300	0.119000
N411	N41	0.175600	0.444000	0.903000
N421	N42	0.052100	0.372500	0.078000
C431	C43	0.243500	0.299100	0.787000
C441	C44	0.245400	0.298700	0.442000
C451	C45	0.104100	0.467100	0.401000
C461	C46	0.418300	0.449800	0.075000
C471	C47	0.074000	0.440300	0.874000
C481	C48	0.020000	0.406000	0.939000
C491	C49	0.913100	0.405700	0.908000
Cd81	Cd8	0.283600	0.615070	0.623400
N431	N43	0.259000	0.671600	0.397000
N441	N44	0.258600	0.671100	0.835000
N451	N45	0.334600	0.552700	0.836000
N461	N46	0.131400	0.580700	0.619000
N471	N47	0.324400	0.556000	0.403000
N481	N48	0.447900	0.627500	0.578000
C501	C50	0.256500	0.700900	0.287000
C511	C51	0.254600	0.701300	0.942000
C521	C52	0.395900	0.532900	0.901000
C531	C53	0.081700	0.550200	0.575000
C541	C54	0.426000	0.559700	0.374000
C551	C55	0.480000	0.594000	0.439000
C561	C56	0.586900	0.594300	0.408000
Ni11	Ni1	0.246400	0.250000	0.614500
Ni21	Ni2	0.253600	0.750000	0.114500
Ni31	Ni3	0.753600	0.750000	0.385500
Ni41	Ni4	0.746400	0.250000	0.885500
Ni51	Ni5	0.000000	0.000000	0.500000
Ni61	Ni6	0.500000	0.000000	0.000000
Ni71	Ni7	0.000000	0.500000	0.500000
Ni81	Ni8	0.500000	0.500000	0.000000
