data_JONKEE_clean_PM
_symmetry_space_group_name_H-M	'P1'
_cell_length_a	47.007200
_cell_length_b	47.007200
_cell_length_c	47.007200
_cell_angle_alpha	90.000000
_cell_angle_beta	90.000000
_cell_angle_gamma	90.000000
_symmetry_Int_Tables_number 1

loop_
_symmetry_equiv_pos_as_xyz
'x,y,z'

loop_
_atom_site_label
_atom_site_type_symbol
_atom_site_fract_x
_atom_site_fract_y
_atom_site_fract_z
Cu11	Cu1	0.376690	0.412800	0.529510
Cu21	Cu2	0.350040	0.475430	0.557950
N11	N1	0.358460	0.472810	0.516470
N21	N2	0.370860	0.448800	0.504520
N31	N3	0.393420	0.428070	0.565410
N41	N4	0.385910	0.455140	0.575530
N51	N5	0.358390	0.516770	0.407990
N61	N6	0.387950	0.515730	0.409670
C11	C1	0.348200	0.504360	0.430640
H11	H1	0.329000	0.501900	0.434800
N71	N7	0.370400	0.495690	0.447040
C21	C2	0.376790	0.454500	0.478060
H21	H2	0.385200	0.442100	0.465100
N81	N8	0.481530	0.438220	0.643240
N91	N9	0.440460	0.436520	0.622320
N101	N10	0.461750	0.425720	0.661650
N111	N11	0.420110	0.438770	0.601410
C31	C3	0.401890	0.460920	0.597250
H31	H3	0.401100	0.477400	0.608200
C41	C4	0.437330	0.425100	0.648640
H41	H4	0.420500	0.418000	0.656200
C51	C5	0.414050	0.418720	0.581330
H51	H5	0.423200	0.401300	0.579300
C61	C6	0.357690	0.492480	0.497190
H61	H6	0.350800	0.510900	0.499700
C71	C7	0.394640	0.503340	0.433550
H71	H7	0.413000	0.500300	0.440200
C81	C8	0.468100	0.444790	0.619910
H81	H8	0.476100	0.453700	0.604200
N121	N12	0.368560	0.481850	0.472710
Cu31	Cu3	0.376690	0.912800	0.029510
Cu41	Cu4	0.350040	0.975430	0.057950
N131	N13	0.358460	0.972810	0.016470
N141	N14	0.370860	0.948800	0.004520
N151	N15	0.393420	0.928070	0.065410
N161	N16	0.385910	0.955140	0.075530
N171	N17	0.358390	0.016770	0.907990
N181	N18	0.387950	0.015730	0.909670
C91	C9	0.348200	0.004360	0.930640
H91	H9	0.329000	0.001900	0.934800
N191	N19	0.370400	0.995690	0.947040
C101	C10	0.376790	0.954500	0.978060
H101	H10	0.385200	0.942100	0.965100
N201	N20	0.481530	0.938220	0.143240
N211	N21	0.440460	0.936520	0.122320
N221	N22	0.461750	0.925720	0.161650
N231	N23	0.420110	0.938770	0.101410
C111	C11	0.401890	0.960920	0.097250
H111	H11	0.401100	0.977400	0.108200
C121	C12	0.437330	0.925100	0.148640
H121	H12	0.420500	0.918000	0.156200
C131	C13	0.414050	0.918720	0.081330
H131	H13	0.423200	0.901300	0.079300
C141	C14	0.357690	0.992480	0.997190
H141	H14	0.350800	0.010900	0.999700
C151	C15	0.394640	0.003340	0.933550
H151	H15	0.413000	0.000300	0.940200
C161	C16	0.468100	0.944790	0.119910
H161	H16	0.476100	0.953700	0.104200
N241	N24	0.368560	0.981850	0.972710
Cu51	Cu5	0.876690	0.412800	0.029510
Cu61	Cu6	0.850040	0.475430	0.057950
N251	N25	0.858460	0.472810	0.016470
N261	N26	0.870860	0.448800	0.004520
N271	N27	0.893420	0.428070	0.065410
N281	N28	0.885910	0.455140	0.075530
N291	N29	0.858390	0.516770	0.907990
N301	N30	0.887950	0.515730	0.909670
C171	C17	0.848200	0.504360	0.930640
H171	H17	0.829000	0.501900	0.934800
N311	N31	0.870400	0.495690	0.947040
C181	C18	0.876790	0.454500	0.978060
H181	H18	0.885200	0.442100	0.965100
N321	N32	0.981530	0.438220	0.143240
N331	N33	0.940460	0.436520	0.122320
N341	N34	0.961750	0.425720	0.161650
N351	N35	0.920110	0.438770	0.101410
C191	C19	0.901890	0.460920	0.097250
H191	H19	0.901100	0.477400	0.108200
C201	C20	0.937330	0.425100	0.148640
H201	H20	0.920500	0.418000	0.156200
C211	C21	0.914050	0.418720	0.081330
H211	H21	0.923200	0.401300	0.079300
C221	C22	0.857690	0.492480	0.997190
H221	H22	0.850800	0.510900	0.999700
C231	C23	0.894640	0.503340	0.933550
H231	H23	0.913000	0.500300	0.940200
C241	C24	0.968100	0.444790	0.119910
H241	H24	0.976100	0.453700	0.104200
N361	N36	0.868560	0.481850	0.972710
Cu71	Cu7	0.876690	0.912800	0.529510
Cu81	Cu8	0.850040	0.975430	0.557950
N371	N37	0.858460	0.972810	0.516470
N381	N38	0.870860	0.948800	0.504520
N391	N39	0.893420	0.928070	0.565410
N401	N40	0.885910	0.955140	0.575530
N411	N41	0.858390	0.016770	0.407990
N421	N42	0.887950	0.015730	0.409670
C251	C25	0.848200	0.004360	0.430640
H251	H25	0.829000	0.001900	0.434800
N431	N43	0.870400	0.995690	0.447040
C261	C26	0.876790	0.954500	0.478060
H261	H26	0.885200	0.942100	0.465100
N441	N44	0.981530	0.938220	0.643240
N451	N45	0.940460	0.936520	0.622320
N461	N46	0.961750	0.925720	0.661650
N471	N47	0.920110	0.938770	0.601410
C271	C27	0.901890	0.960920	0.597250
H271	H27	0.901100	0.977400	0.608200
C281	C28	0.937330	0.925100	0.648640
H281	H28	0.920500	0.918000	0.656200
C291	C29	0.914050	0.918720	0.581330
H291	H29	0.923200	0.901300	0.579300
C301	C30	0.857690	0.992480	0.497190
H301	H30	0.850800	0.010900	0.499700
C311	C31	0.894640	0.003340	0.433550
H311	H31	0.913000	0.000300	0.440200
C321	C32	0.968100	0.944790	0.619910
H321	H32	0.976100	0.953700	0.604200
N481	N48	0.868560	0.981850	0.472710
Cu91	Cu9	0.873310	0.337200	0.029510
Cu101	Cu10	0.899960	0.274570	0.057950
N491	N49	0.891540	0.277190	0.016470
N501	N50	0.879140	0.301200	0.004520
N511	N51	0.856580	0.321930	0.065410
N521	N52	0.864090	0.294860	0.075530
N531	N53	0.891610	0.233230	0.907990
N541	N54	0.862050	0.234270	0.909670
C331	C33	0.901800	0.245640	0.930640
H331	H33	0.921000	0.248100	0.934800
N551	N55	0.879600	0.254310	0.947040
C341	C34	0.873210	0.295500	0.978060
H341	H34	0.864800	0.307900	0.965100
N561	N56	0.768470	0.311780	0.143240
N571	N57	0.809540	0.313480	0.122320
N581	N58	0.788250	0.324280	0.161650
N591	N59	0.829890	0.311230	0.101410
C351	C35	0.848110	0.289080	0.097250
H351	H35	0.848900	0.272600	0.108200
C361	C36	0.812670	0.324900	0.148640
H361	H36	0.829500	0.332000	0.156200
C371	C37	0.835950	0.331280	0.081330
H371	H37	0.826800	0.348700	0.079300
C381	C38	0.892310	0.257520	0.997190
H381	H38	0.899200	0.239100	0.999700
C391	C39	0.855360	0.246660	0.933550
H391	H39	0.837000	0.249700	0.940200
C401	C40	0.781900	0.305210	0.119910
H401	H40	0.773900	0.296300	0.104200
N601	N60	0.881440	0.268150	0.972710
Cu111	Cu11	0.873310	0.837200	0.529510
Cu121	Cu12	0.899960	0.774570	0.557950
N611	N61	0.891540	0.777190	0.516470
N621	N62	0.879140	0.801200	0.504520
N631	N63	0.856580	0.821930	0.565410
N641	N64	0.864090	0.794860	0.575530
N651	N65	0.891610	0.733230	0.407990
N661	N66	0.862050	0.734270	0.409670
C411	C41	0.901800	0.745640	0.430640
H411	H41	0.921000	0.748100	0.434800
N671	N67	0.879600	0.754310	0.447040
C421	C42	0.873210	0.795500	0.478060
H421	H42	0.864800	0.807900	0.465100
N681	N68	0.768470	0.811780	0.643240
N691	N69	0.809540	0.813480	0.622320
N701	N70	0.788250	0.824280	0.661650
N711	N71	0.829890	0.811230	0.601410
C431	C43	0.848110	0.789080	0.597250
H431	H43	0.848900	0.772600	0.608200
C441	C44	0.812670	0.824900	0.648640
H441	H44	0.829500	0.832000	0.656200
C451	C45	0.835950	0.831280	0.581330
H451	H45	0.826800	0.848700	0.579300
C461	C46	0.892310	0.757520	0.497190
H461	H46	0.899200	0.739100	0.499700
C471	C47	0.855360	0.746660	0.433550
H471	H47	0.837000	0.749700	0.440200
C481	C48	0.781900	0.805210	0.619910
H481	H48	0.773900	0.796300	0.604200
N721	N72	0.881440	0.768150	0.472710
Cu131	Cu13	0.373310	0.337200	0.529510
Cu141	Cu14	0.399960	0.274570	0.557950
N731	N73	0.391540	0.277190	0.516470
N741	N74	0.379140	0.301200	0.504520
N751	N75	0.356580	0.321930	0.565410
N761	N76	0.364090	0.294860	0.575530
N771	N77	0.391610	0.233230	0.407990
N781	N78	0.362050	0.234270	0.409670
C491	C49	0.401800	0.245640	0.430640
H491	H49	0.421000	0.248100	0.434800
N791	N79	0.379600	0.254310	0.447040
C501	C50	0.373210	0.295500	0.478060
H501	H50	0.364800	0.307900	0.465100
N801	N80	0.268470	0.311780	0.643240
N811	N81	0.309540	0.313480	0.622320
N821	N82	0.288250	0.324280	0.661650
N831	N83	0.329890	0.311230	0.601410
C511	C51	0.348110	0.289080	0.597250
H511	H51	0.348900	0.272600	0.608200
C521	C52	0.312670	0.324900	0.648640
H521	H52	0.329500	0.332000	0.656200
C531	C53	0.335950	0.331280	0.581330
H531	H53	0.326800	0.348700	0.579300
C541	C54	0.392310	0.257520	0.497190
H541	H54	0.399200	0.239100	0.499700
C551	C55	0.355360	0.246660	0.433550
H551	H55	0.337000	0.249700	0.440200
C561	C56	0.281900	0.305210	0.619910
H561	H56	0.273900	0.296300	0.604200
N841	N84	0.381440	0.268150	0.472710
Cu151	Cu15	0.373310	0.837200	0.029510
Cu161	Cu16	0.399960	0.774570	0.057950
N851	N85	0.391540	0.777190	0.016470
N861	N86	0.379140	0.801200	0.004520
N871	N87	0.356580	0.821930	0.065410
N881	N88	0.364090	0.794860	0.075530
N891	N89	0.391610	0.733230	0.907990
N901	N90	0.362050	0.734270	0.909670
C571	C57	0.401800	0.745640	0.930640
H571	H57	0.421000	0.748100	0.934800
N911	N91	0.379600	0.754310	0.947040
C581	C58	0.373210	0.795500	0.978060
H581	H58	0.364800	0.807900	0.965100
N921	N92	0.268470	0.811780	0.143240
N931	N93	0.309540	0.813480	0.122320
N941	N94	0.288250	0.824280	0.161650
N951	N95	0.329890	0.811230	0.101410
C591	C59	0.348110	0.789080	0.097250
H591	H59	0.348900	0.772600	0.108200
C601	C60	0.312670	0.824900	0.148640
H601	H60	0.329500	0.832000	0.156200
C611	C61	0.335950	0.831280	0.081330
H611	H61	0.326800	0.848700	0.079300
C621	C62	0.392310	0.757520	0.997190
H621	H62	0.399200	0.739100	0.999700
C631	C63	0.355360	0.746660	0.933550
H631	H63	0.337000	0.749700	0.940200
C641	C64	0.281900	0.805210	0.119910
H641	H64	0.273900	0.796300	0.104200
N961	N96	0.381440	0.768150	0.972710
Cu171	Cu17	0.373310	0.912800	0.720500
Cu181	Cu18	0.399960	0.975430	0.692050
N971	N97	0.391540	0.972810	0.733530
N981	N98	0.379140	0.948800	0.745480
N991	N99	0.356580	0.928070	0.684590
N1001	N100	0.364090	0.955140	0.674470
N1011	N101	0.391610	0.016770	0.842010
N1021	N102	0.362050	0.015730	0.840330
C651	C65	0.401800	0.004360	0.819360
H651	H65	0.421000	0.001900	0.815200
N1031	N103	0.379600	0.995690	0.802960
C661	C66	0.373210	0.954500	0.771940
H661	H66	0.364800	0.942100	0.784900
N1041	N104	0.268470	0.938220	0.606760
N1051	N105	0.309540	0.936520	0.627680
N1061	N106	0.288250	0.925720	0.588350
N1071	N107	0.329890	0.938770	0.648590
C671	C67	0.348110	0.960920	0.652750
H671	H67	0.348900	0.977400	0.641800
C681	C68	0.312670	0.925100	0.601360
H681	H68	0.329500	0.918000	0.593800
C691	C69	0.335950	0.918720	0.668670
H691	H69	0.326800	0.901300	0.670700
C701	C70	0.392310	0.992480	0.752810
H701	H70	0.399200	0.010900	0.750300
C711	C71	0.355360	0.003340	0.816450
H711	H71	0.337000	0.000300	0.809800
C721	C72	0.281900	0.944790	0.630090
H721	H72	0.273900	0.953700	0.645800
N1081	N108	0.381440	0.981850	0.777290
Cu191	Cu19	0.373310	0.412800	0.220500
Cu201	Cu20	0.399960	0.475430	0.192050
N1091	N109	0.391540	0.472810	0.233530
N1101	N110	0.379140	0.448800	0.245480
N1111	N111	0.356580	0.428070	0.184590
N1121	N112	0.364090	0.455140	0.174470
N1131	N113	0.391610	0.516770	0.342010
N1141	N114	0.362050	0.515730	0.340330
C731	C73	0.401800	0.504360	0.319360
H731	H73	0.421000	0.501900	0.315200
N1151	N115	0.379600	0.495690	0.302960
C741	C74	0.373210	0.454500	0.271940
H741	H74	0.364800	0.442100	0.284900
N1161	N116	0.268470	0.438220	0.106760
N1171	N117	0.309540	0.436520	0.127680
N1181	N118	0.288250	0.425720	0.088350
N1191	N119	0.329890	0.438770	0.148590
C751	C75	0.348110	0.460920	0.152750
H751	H75	0.348900	0.477400	0.141800
C761	C76	0.312670	0.425100	0.101360
H761	H76	0.329500	0.418000	0.093800
C771	C77	0.335950	0.418720	0.168670
H771	H77	0.326800	0.401300	0.170700
C781	C78	0.392310	0.492480	0.252810
H781	H78	0.399200	0.510900	0.250300
C791	C79	0.355360	0.503340	0.316450
H791	H79	0.337000	0.500300	0.309800
C801	C80	0.281900	0.444790	0.130090
H801	H80	0.273900	0.453700	0.145800
N1201	N120	0.381440	0.481850	0.277290
Cu211	Cu21	0.873310	0.912800	0.220500
Cu221	Cu22	0.899960	0.975430	0.192050
N1211	N121	0.891540	0.972810	0.233530
N1221	N122	0.879140	0.948800	0.245480
N1231	N123	0.856580	0.928070	0.184590
N1241	N124	0.864090	0.955140	0.174470
N1251	N125	0.891610	0.016770	0.342010
N1261	N126	0.862050	0.015730	0.340330
C811	C81	0.901800	0.004360	0.319360
H811	H81	0.921000	0.001900	0.315200
N1271	N127	0.879600	0.995690	0.302960
C821	C82	0.873210	0.954500	0.271940
H821	H82	0.864800	0.942100	0.284900
N1281	N128	0.768470	0.938220	0.106760
N1291	N129	0.809540	0.936520	0.127680
N1301	N130	0.788250	0.925720	0.088350
N1311	N131	0.829890	0.938770	0.148590
C831	C83	0.848110	0.960920	0.152750
H831	H83	0.848900	0.977400	0.141800
C841	C84	0.812670	0.925100	0.101360
H841	H84	0.829500	0.918000	0.093800
C851	C85	0.835950	0.918720	0.168670
H851	H85	0.826800	0.901300	0.170700
C861	C86	0.892310	0.992480	0.252810
H861	H86	0.899200	0.010900	0.250300
C871	C87	0.855360	0.003340	0.316450
H871	H87	0.837000	0.000300	0.309800
C881	C88	0.781900	0.944790	0.130090
H881	H88	0.773900	0.953700	0.145800
N1321	N132	0.881440	0.981850	0.277290
Cu231	Cu23	0.873310	0.412800	0.720500
Cu241	Cu24	0.899960	0.475430	0.692050
N1331	N133	0.891540	0.472810	0.733530
N1341	N134	0.879140	0.448800	0.745480
N1351	N135	0.856580	0.428070	0.684590
N1361	N136	0.864090	0.455140	0.674470
N1371	N137	0.891610	0.516770	0.842010
N1381	N138	0.862050	0.515730	0.840330
C891	C89	0.901800	0.504360	0.819360
H891	H89	0.921000	0.501900	0.815200
N1391	N139	0.879600	0.495690	0.802960
C901	C90	0.873210	0.454500	0.771940
H901	H90	0.864800	0.442100	0.784900
N1401	N140	0.768470	0.438220	0.606760
N1411	N141	0.809540	0.436520	0.627680
N1421	N142	0.788250	0.425720	0.588350
N1431	N143	0.829890	0.438770	0.648590
C911	C91	0.848110	0.460920	0.652750
H911	H91	0.848900	0.477400	0.641800
C921	C92	0.812670	0.425100	0.601360
H921	H92	0.829500	0.418000	0.593800
C931	C93	0.835950	0.418720	0.668670
H931	H93	0.826800	0.401300	0.670700
C941	C94	0.892310	0.492480	0.752810
H941	H94	0.899200	0.510900	0.750300
C951	C95	0.855360	0.503340	0.816450
H951	H95	0.837000	0.500300	0.809800
C961	C96	0.781900	0.444790	0.630090
H961	H96	0.773900	0.453700	0.645800
N1441	N144	0.881440	0.481850	0.777290
Cu251	Cu25	0.876690	0.837200	0.220500
Cu261	Cu26	0.850040	0.774570	0.192050
N1451	N145	0.858460	0.777190	0.233530
N1461	N146	0.870860	0.801200	0.245480
N1471	N147	0.893420	0.821930	0.184590
N1481	N148	0.885910	0.794860	0.174470
N1491	N149	0.858390	0.733230	0.342010
N1501	N150	0.887950	0.734270	0.340330
C971	C97	0.848200	0.745640	0.319360
H971	H97	0.829000	0.748100	0.315200
N1511	N151	0.870400	0.754310	0.302960
C981	C98	0.876790	0.795500	0.271940
H981	H98	0.885200	0.807900	0.284900
N1521	N152	0.981530	0.811780	0.106760
N1531	N153	0.940460	0.813480	0.127680
N1541	N154	0.961750	0.824280	0.088350
N1551	N155	0.920110	0.811230	0.148590
C991	C99	0.901890	0.789080	0.152750
H991	H99	0.901100	0.772600	0.141800
C1001	C100	0.937330	0.824900	0.101360
H1001	H100	0.920500	0.832000	0.093800
C1011	C101	0.914050	0.831280	0.168670
H1011	H101	0.923200	0.848700	0.170700
C1021	C102	0.857690	0.757520	0.252810
H1021	H102	0.850800	0.739100	0.250300
C1031	C103	0.894640	0.746660	0.316450
H1031	H103	0.913000	0.749700	0.309800
C1041	C104	0.968100	0.805210	0.130090
H1041	H104	0.976100	0.796300	0.145800
N1561	N156	0.868560	0.768150	0.277290
Cu271	Cu27	0.876690	0.337200	0.720500
Cu281	Cu28	0.850040	0.274570	0.692050
N1571	N157	0.858460	0.277190	0.733530
N1581	N158	0.870860	0.301200	0.745480
N1591	N159	0.893420	0.321930	0.684590
N1601	N160	0.885910	0.294860	0.674470
N1611	N161	0.858390	0.233230	0.842010
N1621	N162	0.887950	0.234270	0.840330
C1051	C105	0.848200	0.245640	0.819360
H1051	H105	0.829000	0.248100	0.815200
N1631	N163	0.870400	0.254310	0.802960
C1061	C106	0.876790	0.295500	0.771940
H1061	H106	0.885200	0.307900	0.784900
N1641	N164	0.981530	0.311780	0.606760
N1651	N165	0.940460	0.313480	0.627680
N1661	N166	0.961750	0.324280	0.588350
N1671	N167	0.920110	0.311230	0.648590
C1071	C107	0.901890	0.289080	0.652750
H1071	H107	0.901100	0.272600	0.641800
C1081	C108	0.937330	0.324900	0.601360
H1081	H108	0.920500	0.332000	0.593800
C1091	C109	0.914050	0.331280	0.668670
H1091	H109	0.923200	0.348700	0.670700
C1101	C110	0.857690	0.257520	0.752810
H1101	H110	0.850800	0.239100	0.750300
C1111	C111	0.894640	0.246660	0.816450
H1111	H111	0.913000	0.249700	0.809800
C1121	C112	0.968100	0.305210	0.630090
H1121	H112	0.976100	0.296300	0.645800
N1681	N168	0.868560	0.268150	0.777290
Cu291	Cu29	0.376690	0.837200	0.720500
Cu301	Cu30	0.350040	0.774570	0.692050
N1691	N169	0.358460	0.777190	0.733530
N1701	N170	0.370860	0.801200	0.745480
N1711	N171	0.393420	0.821930	0.684590
N1721	N172	0.385910	0.794860	0.674470
N1731	N173	0.358390	0.733230	0.842010
N1741	N174	0.387950	0.734270	0.840330
C1131	C113	0.348200	0.745640	0.819360
H1131	H113	0.329000	0.748100	0.815200
N1751	N175	0.370400	0.754310	0.802960
C1141	C114	0.376790	0.795500	0.771940
H1141	H114	0.385200	0.807900	0.784900
N1761	N176	0.481530	0.811780	0.606760
N1771	N177	0.440460	0.813480	0.627680
N1781	N178	0.461750	0.824280	0.588350
N1791	N179	0.420110	0.811230	0.648590
C1151	C115	0.401890	0.789080	0.652750
H1151	H115	0.401100	0.772600	0.641800
C1161	C116	0.437330	0.824900	0.601360
H1161	H116	0.420500	0.832000	0.593800
C1171	C117	0.414050	0.831280	0.668670
H1171	H117	0.423200	0.848700	0.670700
C1181	C118	0.357690	0.757520	0.752810
H1181	H118	0.350800	0.739100	0.750300
C1191	C119	0.394640	0.746660	0.816450
H1191	H119	0.413000	0.749700	0.809800
C1201	C120	0.468100	0.805210	0.630090
H1201	H120	0.476100	0.796300	0.645800
N1801	N180	0.368560	0.768150	0.777290
Cu311	Cu31	0.376690	0.337200	0.220500
Cu321	Cu32	0.350040	0.274570	0.192050
N1811	N181	0.358460	0.277190	0.233530
N1821	N182	0.370860	0.301200	0.245480
N1831	N183	0.393420	0.321930	0.184590
N1841	N184	0.385910	0.294860	0.174470
N1851	N185	0.358390	0.233230	0.342010
N1861	N186	0.387950	0.234270	0.340330
C1211	C121	0.348200	0.245640	0.319360
H1211	H121	0.329000	0.248100	0.315200
N1871	N187	0.370400	0.254310	0.302960
C1221	C122	0.376790	0.295500	0.271940
H1221	H122	0.385200	0.307900	0.284900
N1881	N188	0.481530	0.311780	0.106760
N1891	N189	0.440460	0.313480	0.127680
N1901	N190	0.461750	0.324280	0.088350
N1911	N191	0.420110	0.311230	0.148590
C1231	C123	0.401890	0.289080	0.152750
H1231	H123	0.401100	0.272600	0.141800
C1241	C124	0.437330	0.324900	0.101360
H1241	H124	0.420500	0.332000	0.093800
C1251	C125	0.414050	0.331280	0.168670
H1251	H125	0.423200	0.348700	0.170700
C1261	C126	0.357690	0.257520	0.252810
H1261	H126	0.350800	0.239100	0.250300
C1271	C127	0.394640	0.246660	0.316450
H1271	H127	0.413000	0.249700	0.309800
C1281	C128	0.468100	0.305210	0.130090
H1281	H128	0.476100	0.296300	0.145800
N1921	N192	0.368560	0.268150	0.277290
Cu331	Cu33	0.529510	0.376690	0.412800
Cu341	Cu34	0.557950	0.350040	0.475430
N1931	N193	0.516470	0.358460	0.472810
N1941	N194	0.504520	0.370860	0.448800
N1951	N195	0.565410	0.393420	0.428070
N1961	N196	0.575530	0.385910	0.455140
N1971	N197	0.407990	0.358390	0.516770
N1981	N198	0.409670	0.387950	0.515730
C1291	C129	0.430640	0.348200	0.504360
H1291	H129	0.434800	0.329000	0.501900
N1991	N199	0.447040	0.370400	0.495690
C1301	C130	0.478060	0.376790	0.454500
H1301	H130	0.465100	0.385200	0.442100
N2001	N200	0.643240	0.481530	0.438220
N2011	N201	0.622320	0.440460	0.436520
N2021	N202	0.661650	0.461750	0.425720
N2031	N203	0.601410	0.420110	0.438770
C1311	C131	0.597250	0.401890	0.460920
H1311	H131	0.608200	0.401100	0.477400
C1321	C132	0.648640	0.437330	0.425100
H1321	H132	0.656200	0.420500	0.418000
C1331	C133	0.581330	0.414050	0.418720
H1331	H133	0.579300	0.423200	0.401300
C1341	C134	0.497190	0.357690	0.492480
H1341	H134	0.499700	0.350800	0.510900
C1351	C135	0.433550	0.394640	0.503340
H1351	H135	0.440200	0.413000	0.500300
C1361	C136	0.619910	0.468100	0.444790
H1361	H136	0.604200	0.476100	0.453700
N2041	N204	0.472710	0.368560	0.481850
Cu351	Cu35	0.529510	0.876690	0.912800
Cu361	Cu36	0.557950	0.850040	0.975430
N2051	N205	0.516470	0.858460	0.972810
N2061	N206	0.504520	0.870860	0.948800
N2071	N207	0.565410	0.893420	0.928070
N2081	N208	0.575530	0.885910	0.955140
N2091	N209	0.407990	0.858390	0.016770
N2101	N210	0.409670	0.887950	0.015730
C1371	C137	0.430640	0.848200	0.004360
H1371	H137	0.434800	0.829000	0.001900
N2111	N211	0.447040	0.870400	0.995690
C1381	C138	0.478060	0.876790	0.954500
H1381	H138	0.465100	0.885200	0.942100
N2121	N212	0.643240	0.981530	0.938220
N2131	N213	0.622320	0.940460	0.936520
N2141	N214	0.661650	0.961750	0.925720
N2151	N215	0.601410	0.920110	0.938770
C1391	C139	0.597250	0.901890	0.960920
H1391	H139	0.608200	0.901100	0.977400
C1401	C140	0.648640	0.937330	0.925100
H1401	H140	0.656200	0.920500	0.918000
C1411	C141	0.581330	0.914050	0.918720
H1411	H141	0.579300	0.923200	0.901300
C1421	C142	0.497190	0.857690	0.992480
H1421	H142	0.499700	0.850800	0.010900
C1431	C143	0.433550	0.894640	0.003340
H1431	H143	0.440200	0.913000	0.000300
C1441	C144	0.619910	0.968100	0.944790
H1441	H144	0.604200	0.976100	0.953700
N2161	N216	0.472710	0.868560	0.981850
Cu371	Cu37	0.029510	0.376690	0.912800
Cu381	Cu38	0.057950	0.350040	0.975430
N2171	N217	0.016470	0.358460	0.972810
N2181	N218	0.004520	0.370860	0.948800
N2191	N219	0.065410	0.393420	0.928070
N2201	N220	0.075530	0.385910	0.955140
N2211	N221	0.907990	0.358390	0.016770
N2221	N222	0.909670	0.387950	0.015730
C1451	C145	0.930640	0.348200	0.004360
H1451	H145	0.934800	0.329000	0.001900
N2231	N223	0.947040	0.370400	0.995690
C1461	C146	0.978060	0.376790	0.954500
H1461	H146	0.965100	0.385200	0.942100
N2241	N224	0.143240	0.481530	0.938220
N2251	N225	0.122320	0.440460	0.936520
N2261	N226	0.161650	0.461750	0.925720
N2271	N227	0.101410	0.420110	0.938770
C1471	C147	0.097250	0.401890	0.960920
H1471	H147	0.108200	0.401100	0.977400
C1481	C148	0.148640	0.437330	0.925100
H1481	H148	0.156200	0.420500	0.918000
C1491	C149	0.081330	0.414050	0.918720
H1491	H149	0.079300	0.423200	0.901300
C1501	C150	0.997190	0.357690	0.992480
H1501	H150	0.999700	0.350800	0.010900
C1511	C151	0.933550	0.394640	0.003340
H1511	H151	0.940200	0.413000	0.000300
C1521	C152	0.119910	0.468100	0.944790
H1521	H152	0.104200	0.476100	0.953700
N2281	N228	0.972710	0.368560	0.981850
Cu391	Cu39	0.029510	0.876690	0.412800
Cu401	Cu40	0.057950	0.850040	0.475430
N2291	N229	0.016470	0.858460	0.472810
N2301	N230	0.004520	0.870860	0.448800
N2311	N231	0.065410	0.893420	0.428070
N2321	N232	0.075530	0.885910	0.455140
N2331	N233	0.907990	0.858390	0.516770
N2341	N234	0.909670	0.887950	0.515730
C1531	C153	0.930640	0.848200	0.504360
H1531	H153	0.934800	0.829000	0.501900
N2351	N235	0.947040	0.870400	0.495690
C1541	C154	0.978060	0.876790	0.454500
H1541	H154	0.965100	0.885200	0.442100
N2361	N236	0.143240	0.981530	0.438220
N2371	N237	0.122320	0.940460	0.436520
N2381	N238	0.161650	0.961750	0.425720
N2391	N239	0.101410	0.920110	0.438770
C1551	C155	0.097250	0.901890	0.460920
H1551	H155	0.108200	0.901100	0.477400
C1561	C156	0.148640	0.937330	0.425100
H1561	H156	0.156200	0.920500	0.418000
C1571	C157	0.081330	0.914050	0.418720
H1571	H157	0.079300	0.923200	0.401300
C1581	C158	0.997190	0.857690	0.492480
H1581	H158	0.999700	0.850800	0.510900
C1591	C159	0.933550	0.894640	0.503340
H1591	H159	0.940200	0.913000	0.500300
C1601	C160	0.119910	0.968100	0.444790
H1601	H160	0.104200	0.976100	0.453700
N2401	N240	0.972710	0.868560	0.481850
Cu411	Cu41	0.029510	0.873310	0.337200
Cu421	Cu42	0.057950	0.899960	0.274570
N2411	N241	0.016470	0.891540	0.277190
N2421	N242	0.004520	0.879140	0.301200
N2431	N243	0.065410	0.856580	0.321930
N2441	N244	0.075530	0.864090	0.294860
N2451	N245	0.907990	0.891610	0.233230
N2461	N246	0.909670	0.862050	0.234270
C1611	C161	0.930640	0.901800	0.245640
H1611	H161	0.934800	0.921000	0.248100
N2471	N247	0.947040	0.879600	0.254310
C1621	C162	0.978060	0.873210	0.295500
H1621	H162	0.965100	0.864800	0.307900
N2481	N248	0.143240	0.768470	0.311780
N2491	N249	0.122320	0.809540	0.313480
N2501	N250	0.161650	0.788250	0.324280
N2511	N251	0.101410	0.829890	0.311230
C1631	C163	0.097250	0.848110	0.289080
H1631	H163	0.108200	0.848900	0.272600
C1641	C164	0.148640	0.812670	0.324900
H1641	H164	0.156200	0.829500	0.332000
C1651	C165	0.081330	0.835950	0.331280
H1651	H165	0.079300	0.826800	0.348700
C1661	C166	0.997190	0.892310	0.257520
H1661	H166	0.999700	0.899200	0.239100
C1671	C167	0.933550	0.855360	0.246660
H1671	H167	0.940200	0.837000	0.249700
C1681	C168	0.119910	0.781900	0.305210
H1681	H168	0.104200	0.773900	0.296300
N2521	N252	0.972710	0.881440	0.268150
Cu431	Cu43	0.029510	0.373310	0.837200
Cu441	Cu44	0.057950	0.399960	0.774570
N2531	N253	0.016470	0.391540	0.777190
N2541	N254	0.004520	0.379140	0.801200
N2551	N255	0.065410	0.356580	0.821930
N2561	N256	0.075530	0.364090	0.794860
N2571	N257	0.907990	0.391610	0.733230
N2581	N258	0.909670	0.362050	0.734270
C1691	C169	0.930640	0.401800	0.745640
H1691	H169	0.934800	0.421000	0.748100
N2591	N259	0.947040	0.379600	0.754310
C1701	C170	0.978060	0.373210	0.795500
H1701	H170	0.965100	0.364800	0.807900
N2601	N260	0.143240	0.268470	0.811780
N2611	N261	0.122320	0.309540	0.813480
N2621	N262	0.161650	0.288250	0.824280
N2631	N263	0.101410	0.329890	0.811230
C1711	C171	0.097250	0.348110	0.789080
H1711	H171	0.108200	0.348900	0.772600
C1721	C172	0.148640	0.312670	0.824900
H1721	H172	0.156200	0.329500	0.832000
C1731	C173	0.081330	0.335950	0.831280
H1731	H173	0.079300	0.326800	0.848700
C1741	C174	0.997190	0.392310	0.757520
H1741	H174	0.999700	0.399200	0.739100
C1751	C175	0.933550	0.355360	0.746660
H1751	H175	0.940200	0.337000	0.749700
C1761	C176	0.119910	0.281900	0.805210
H1761	H176	0.104200	0.273900	0.796300
N2641	N264	0.972710	0.381440	0.768150
Cu451	Cu45	0.529510	0.873310	0.837200
Cu461	Cu46	0.557950	0.899960	0.774570
N2651	N265	0.516470	0.891540	0.777190
N2661	N266	0.504520	0.879140	0.801200
N2671	N267	0.565410	0.856580	0.821930
N2681	N268	0.575530	0.864090	0.794860
N2691	N269	0.407990	0.891610	0.733230
N2701	N270	0.409670	0.862050	0.734270
C1771	C177	0.430640	0.901800	0.745640
H1771	H177	0.434800	0.921000	0.748100
N2711	N271	0.447040	0.879600	0.754310
C1781	C178	0.478060	0.873210	0.795500
H1781	H178	0.465100	0.864800	0.807900
N2721	N272	0.643240	0.768470	0.811780
N2731	N273	0.622320	0.809540	0.813480
N2741	N274	0.661650	0.788250	0.824280
N2751	N275	0.601410	0.829890	0.811230
C1791	C179	0.597250	0.848110	0.789080
H1791	H179	0.608200	0.848900	0.772600
C1801	C180	0.648640	0.812670	0.824900
H1801	H180	0.656200	0.829500	0.832000
C1811	C181	0.581330	0.835950	0.831280
H1811	H181	0.579300	0.826800	0.848700
C1821	C182	0.497190	0.892310	0.757520
H1821	H182	0.499700	0.899200	0.739100
C1831	C183	0.433550	0.855360	0.746660
H1831	H183	0.440200	0.837000	0.749700
C1841	C184	0.619910	0.781900	0.805210
H1841	H184	0.604200	0.773900	0.796300
N2761	N276	0.472710	0.881440	0.768150
Cu471	Cu47	0.529510	0.373310	0.337200
Cu481	Cu48	0.557950	0.399960	0.274570
N2771	N277	0.516470	0.391540	0.277190
N2781	N278	0.504520	0.379140	0.301200
N2791	N279	0.565410	0.356580	0.321930
N2801	N280	0.575530	0.364090	0.294860
N2811	N281	0.407990	0.391610	0.233230
N2821	N282	0.409670	0.362050	0.234270
C1851	C185	0.430640	0.401800	0.245640
H1851	H185	0.434800	0.421000	0.248100
N2831	N283	0.447040	0.379600	0.254310
C1861	C186	0.478060	0.373210	0.295500
H1861	H186	0.465100	0.364800	0.307900
N2841	N284	0.643240	0.268470	0.311780
N2851	N285	0.622320	0.309540	0.313480
N2861	N286	0.661650	0.288250	0.324280
N2871	N287	0.601410	0.329890	0.311230
C1871	C187	0.597250	0.348110	0.289080
H1871	H187	0.608200	0.348900	0.272600
C1881	C188	0.648640	0.312670	0.324900
H1881	H188	0.656200	0.329500	0.332000
C1891	C189	0.581330	0.335950	0.331280
H1891	H189	0.579300	0.326800	0.348700
C1901	C190	0.497190	0.392310	0.257520
H1901	H190	0.499700	0.399200	0.239100
C1911	C191	0.433550	0.355360	0.246660
H1911	H191	0.440200	0.337000	0.249700
C1921	C192	0.619910	0.281900	0.305210
H1921	H192	0.604200	0.273900	0.296300
N2881	N288	0.472710	0.381440	0.268150
Cu491	Cu49	0.720500	0.373310	0.912800
Cu501	Cu50	0.692050	0.399960	0.975430
N2891	N289	0.733530	0.391540	0.972810
N2901	N290	0.745480	0.379140	0.948800
N2911	N291	0.684590	0.356580	0.928070
N2921	N292	0.674470	0.364090	0.955140
N2931	N293	0.842010	0.391610	0.016770
N2941	N294	0.840330	0.362050	0.015730
C1931	C193	0.819360	0.401800	0.004360
H1931	H193	0.815200	0.421000	0.001900
N2951	N295	0.802960	0.379600	0.995690
C1941	C194	0.771940	0.373210	0.954500
H1941	H194	0.784900	0.364800	0.942100
N2961	N296	0.606760	0.268470	0.938220
N2971	N297	0.627680	0.309540	0.936520
N2981	N298	0.588350	0.288250	0.925720
N2991	N299	0.648590	0.329890	0.938770
C1951	C195	0.652750	0.348110	0.960920
H1951	H195	0.641800	0.348900	0.977400
C1961	C196	0.601360	0.312670	0.925100
H1961	H196	0.593800	0.329500	0.918000
C1971	C197	0.668670	0.335950	0.918720
H1971	H197	0.670700	0.326800	0.901300
C1981	C198	0.752810	0.392310	0.992480
H1981	H198	0.750300	0.399200	0.010900
C1991	C199	0.816450	0.355360	0.003340
H1991	H199	0.809800	0.337000	0.000300
C2001	C200	0.630090	0.281900	0.944790
H2001	H200	0.645800	0.273900	0.953700
N3001	N300	0.777290	0.381440	0.981850
Cu511	Cu51	0.720500	0.873310	0.412800
Cu521	Cu52	0.692050	0.899960	0.475430
N3011	N301	0.733530	0.891540	0.472810
N3021	N302	0.745480	0.879140	0.448800
N3031	N303	0.684590	0.856580	0.428070
N3041	N304	0.674470	0.864090	0.455140
N3051	N305	0.842010	0.891610	0.516770
N3061	N306	0.840330	0.862050	0.515730
C2011	C201	0.819360	0.901800	0.504360
H2011	H201	0.815200	0.921000	0.501900
N3071	N307	0.802960	0.879600	0.495690
C2021	C202	0.771940	0.873210	0.454500
H2021	H202	0.784900	0.864800	0.442100
N3081	N308	0.606760	0.768470	0.438220
N3091	N309	0.627680	0.809540	0.436520
N3101	N310	0.588350	0.788250	0.425720
N3111	N311	0.648590	0.829890	0.438770
C2031	C203	0.652750	0.848110	0.460920
H2031	H203	0.641800	0.848900	0.477400
C2041	C204	0.601360	0.812670	0.425100
H2041	H204	0.593800	0.829500	0.418000
C2051	C205	0.668670	0.835950	0.418720
H2051	H205	0.670700	0.826800	0.401300
C2061	C206	0.752810	0.892310	0.492480
H2061	H206	0.750300	0.899200	0.510900
C2071	C207	0.816450	0.855360	0.503340
H2071	H207	0.809800	0.837000	0.500300
C2081	C208	0.630090	0.781900	0.444790
H2081	H208	0.645800	0.773900	0.453700
N3121	N312	0.777290	0.881440	0.481850
Cu531	Cu53	0.220500	0.373310	0.412800
Cu541	Cu54	0.192050	0.399960	0.475430
N3131	N313	0.233530	0.391540	0.472810
N3141	N314	0.245480	0.379140	0.448800
N3151	N315	0.184590	0.356580	0.428070
N3161	N316	0.174470	0.364090	0.455140
N3171	N317	0.342010	0.391610	0.516770
N3181	N318	0.340330	0.362050	0.515730
C2091	C209	0.319360	0.401800	0.504360
H2091	H209	0.315200	0.421000	0.501900
N3191	N319	0.302960	0.379600	0.495690
C2101	C210	0.271940	0.373210	0.454500
H2101	H210	0.284900	0.364800	0.442100
N3201	N320	0.106760	0.268470	0.438220
N3211	N321	0.127680	0.309540	0.436520
N3221	N322	0.088350	0.288250	0.425720
N3231	N323	0.148590	0.329890	0.438770
C2111	C211	0.152750	0.348110	0.460920
H2111	H211	0.141800	0.348900	0.477400
C2121	C212	0.101360	0.312670	0.425100
H2121	H212	0.093800	0.329500	0.418000
C2131	C213	0.168670	0.335950	0.418720
H2131	H213	0.170700	0.326800	0.401300
C2141	C214	0.252810	0.392310	0.492480
H2141	H214	0.250300	0.399200	0.510900
C2151	C215	0.316450	0.355360	0.503340
H2151	H215	0.309800	0.337000	0.500300
C2161	C216	0.130090	0.281900	0.444790
H2161	H216	0.145800	0.273900	0.453700
N3241	N324	0.277290	0.381440	0.481850
Cu551	Cu55	0.220500	0.873310	0.912800
Cu561	Cu56	0.192050	0.899960	0.975430
N3251	N325	0.233530	0.891540	0.972810
N3261	N326	0.245480	0.879140	0.948800
N3271	N327	0.184590	0.856580	0.928070
N3281	N328	0.174470	0.864090	0.955140
N3291	N329	0.342010	0.891610	0.016770
N3301	N330	0.340330	0.862050	0.015730
C2171	C217	0.319360	0.901800	0.004360
H2171	H217	0.315200	0.921000	0.001900
N3311	N331	0.302960	0.879600	0.995690
C2181	C218	0.271940	0.873210	0.954500
H2181	H218	0.284900	0.864800	0.942100
N3321	N332	0.106760	0.768470	0.938220
N3331	N333	0.127680	0.809540	0.936520
N3341	N334	0.088350	0.788250	0.925720
N3351	N335	0.148590	0.829890	0.938770
C2191	C219	0.152750	0.848110	0.960920
H2191	H219	0.141800	0.848900	0.977400
C2201	C220	0.101360	0.812670	0.925100
H2201	H220	0.093800	0.829500	0.918000
C2211	C221	0.168670	0.835950	0.918720
H2211	H221	0.170700	0.826800	0.901300
C2221	C222	0.252810	0.892310	0.992480
H2221	H222	0.250300	0.899200	0.010900
C2231	C223	0.316450	0.855360	0.003340
H2231	H223	0.309800	0.837000	0.000300
C2241	C224	0.130090	0.781900	0.944790
H2241	H224	0.145800	0.773900	0.953700
N3361	N336	0.277290	0.881440	0.981850
Cu571	Cu57	0.220500	0.876690	0.837200
Cu581	Cu58	0.192050	0.850040	0.774570
N3371	N337	0.233530	0.858460	0.777190
N3381	N338	0.245480	0.870860	0.801200
N3391	N339	0.184590	0.893420	0.821930
N3401	N340	0.174470	0.885910	0.794860
N3411	N341	0.342010	0.858390	0.733230
N3421	N342	0.340330	0.887950	0.734270
C2251	C225	0.319360	0.848200	0.745640
H2251	H225	0.315200	0.829000	0.748100
N3431	N343	0.302960	0.870400	0.754310
C2261	C226	0.271940	0.876790	0.795500
H2261	H226	0.284900	0.885200	0.807900
N3441	N344	0.106760	0.981530	0.811780
N3451	N345	0.127680	0.940460	0.813480
N3461	N346	0.088350	0.961750	0.824280
N3471	N347	0.148590	0.920110	0.811230
C2271	C227	0.152750	0.901890	0.789080
H2271	H227	0.141800	0.901100	0.772600
C2281	C228	0.101360	0.937330	0.824900
H2281	H228	0.093800	0.920500	0.832000
C2291	C229	0.168670	0.914050	0.831280
H2291	H229	0.170700	0.923200	0.848700
C2301	C230	0.252810	0.857690	0.757520
H2301	H230	0.250300	0.850800	0.739100
C2311	C231	0.316450	0.894640	0.746660
H2311	H231	0.309800	0.913000	0.749700
C2321	C232	0.130090	0.968100	0.805210
H2321	H232	0.145800	0.976100	0.796300
N3481	N348	0.277290	0.868560	0.768150
Cu591	Cu59	0.220500	0.376690	0.337200
Cu601	Cu60	0.192050	0.350040	0.274570
N3491	N349	0.233530	0.358460	0.277190
N3501	N350	0.245480	0.370860	0.301200
N3511	N351	0.184590	0.393420	0.321930
N3521	N352	0.174470	0.385910	0.294860
N3531	N353	0.342010	0.358390	0.233230
N3541	N354	0.340330	0.387950	0.234270
C2331	C233	0.319360	0.348200	0.245640
H2331	H233	0.315200	0.329000	0.248100
N3551	N355	0.302960	0.370400	0.254310
C2341	C234	0.271940	0.376790	0.295500
H2341	H234	0.284900	0.385200	0.307900
N3561	N356	0.106760	0.481530	0.311780
N3571	N357	0.127680	0.440460	0.313480
N3581	N358	0.088350	0.461750	0.324280
N3591	N359	0.148590	0.420110	0.311230
C2351	C235	0.152750	0.401890	0.289080
H2351	H235	0.141800	0.401100	0.272600
C2361	C236	0.101360	0.437330	0.324900
H2361	H236	0.093800	0.420500	0.332000
C2371	C237	0.168670	0.414050	0.331280
H2371	H237	0.170700	0.423200	0.348700
C2381	C238	0.252810	0.357690	0.257520
H2381	H238	0.250300	0.350800	0.239100
C2391	C239	0.316450	0.394640	0.246660
H2391	H239	0.309800	0.413000	0.249700
C2401	C240	0.130090	0.468100	0.305210
H2401	H240	0.145800	0.476100	0.296300
N3601	N360	0.277290	0.368560	0.268150
Cu611	Cu61	0.720500	0.876690	0.337200
Cu621	Cu62	0.692050	0.850040	0.274570
N3611	N361	0.733530	0.858460	0.277190
N3621	N362	0.745480	0.870860	0.301200
N3631	N363	0.684590	0.893420	0.321930
N3641	N364	0.674470	0.885910	0.294860
N3651	N365	0.842010	0.858390	0.233230
N3661	N366	0.840330	0.887950	0.234270
C2411	C241	0.819360	0.848200	0.245640
H2411	H241	0.815200	0.829000	0.248100
N3671	N367	0.802960	0.870400	0.254310
C2421	C242	0.771940	0.876790	0.295500
H2421	H242	0.784900	0.885200	0.307900
N3681	N368	0.606760	0.981530	0.311780
N3691	N369	0.627680	0.940460	0.313480
N3701	N370	0.588350	0.961750	0.324280
N3711	N371	0.648590	0.920110	0.311230
C2431	C243	0.652750	0.901890	0.289080
H2431	H243	0.641800	0.901100	0.272600
C2441	C244	0.601360	0.937330	0.324900
H2441	H244	0.593800	0.920500	0.332000
C2451	C245	0.668670	0.914050	0.331280
H2451	H245	0.670700	0.923200	0.348700
C2461	C246	0.752810	0.857690	0.257520
H2461	H246	0.750300	0.850800	0.239100
C2471	C247	0.816450	0.894640	0.246660
H2471	H247	0.809800	0.913000	0.249700
C2481	C248	0.630090	0.968100	0.305210
H2481	H248	0.645800	0.976100	0.296300
N3721	N372	0.777290	0.868560	0.268150
Cu631	Cu63	0.720500	0.376690	0.837200
Cu641	Cu64	0.692050	0.350040	0.774570
N3731	N373	0.733530	0.358460	0.777190
N3741	N374	0.745480	0.370860	0.801200
N3751	N375	0.684590	0.393420	0.821930
N3761	N376	0.674470	0.385910	0.794860
N3771	N377	0.842010	0.358390	0.733230
N3781	N378	0.840330	0.387950	0.734270
C2491	C249	0.819360	0.348200	0.745640
H2491	H249	0.815200	0.329000	0.748100
N3791	N379	0.802960	0.370400	0.754310
C2501	C250	0.771940	0.376790	0.795500
H2501	H250	0.784900	0.385200	0.807900
N3801	N380	0.606760	0.481530	0.811780
N3811	N381	0.627680	0.440460	0.813480
N3821	N382	0.588350	0.461750	0.824280
N3831	N383	0.648590	0.420110	0.811230
C2511	C251	0.652750	0.401890	0.789080
H2511	H251	0.641800	0.401100	0.772600
C2521	C252	0.601360	0.437330	0.824900
H2521	H252	0.593800	0.420500	0.832000
C2531	C253	0.668670	0.414050	0.831280
H2531	H253	0.670700	0.423200	0.848700
C2541	C254	0.752810	0.357690	0.757520
H2541	H254	0.750300	0.350800	0.739100
C2551	C255	0.816450	0.394640	0.746660
H2551	H255	0.809800	0.413000	0.749700
C2561	C256	0.630090	0.468100	0.805210
H2561	H256	0.645800	0.476100	0.796300
N3841	N384	0.777290	0.368560	0.768150
Cu651	Cu65	0.412800	0.529510	0.376690
Cu661	Cu66	0.475430	0.557950	0.350040
N3851	N385	0.472810	0.516470	0.358460
N3861	N386	0.448800	0.504520	0.370860
N3871	N387	0.428070	0.565410	0.393420
N3881	N388	0.455140	0.575530	0.385910
N3891	N389	0.516770	0.407990	0.358390
N3901	N390	0.515730	0.409670	0.387950
C2571	C257	0.504360	0.430640	0.348200
H2571	H257	0.501900	0.434800	0.329000
N3911	N391	0.495690	0.447040	0.370400
C2581	C258	0.454500	0.478060	0.376790
H2581	H258	0.442100	0.465100	0.385200
N3921	N392	0.438220	0.643240	0.481530
N3931	N393	0.436520	0.622320	0.440460
N3941	N394	0.425720	0.661650	0.461750
N3951	N395	0.438770	0.601410	0.420110
C2591	C259	0.460920	0.597250	0.401890
H2591	H259	0.477400	0.608200	0.401100
C2601	C260	0.425100	0.648640	0.437330
H2601	H260	0.418000	0.656200	0.420500
C2611	C261	0.418720	0.581330	0.414050
H2611	H261	0.401300	0.579300	0.423200
C2621	C262	0.492480	0.497190	0.357690
H2621	H262	0.510900	0.499700	0.350800
C2631	C263	0.503340	0.433550	0.394640
H2631	H263	0.500300	0.440200	0.413000
C2641	C264	0.444790	0.619910	0.468100
H2641	H264	0.453700	0.604200	0.476100
N3961	N396	0.481850	0.472710	0.368560
Cu671	Cu67	0.412800	0.029510	0.876690
Cu681	Cu68	0.475430	0.057950	0.850040
N3971	N397	0.472810	0.016470	0.858460
N3981	N398	0.448800	0.004520	0.870860
N3991	N399	0.428070	0.065410	0.893420
N4001	N400	0.455140	0.075530	0.885910
N4011	N401	0.516770	0.907990	0.858390
N4021	N402	0.515730	0.909670	0.887950
C2651	C265	0.504360	0.930640	0.848200
H2651	H265	0.501900	0.934800	0.829000
N4031	N403	0.495690	0.947040	0.870400
C2661	C266	0.454500	0.978060	0.876790
H2661	H266	0.442100	0.965100	0.885200
N4041	N404	0.438220	0.143240	0.981530
N4051	N405	0.436520	0.122320	0.940460
N4061	N406	0.425720	0.161650	0.961750
N4071	N407	0.438770	0.101410	0.920110
C2671	C267	0.460920	0.097250	0.901890
H2671	H267	0.477400	0.108200	0.901100
C2681	C268	0.425100	0.148640	0.937330
H2681	H268	0.418000	0.156200	0.920500
C2691	C269	0.418720	0.081330	0.914050
H2691	H269	0.401300	0.079300	0.923200
C2701	C270	0.492480	0.997190	0.857690
H2701	H270	0.510900	0.999700	0.850800
C2711	C271	0.503340	0.933550	0.894640
H2711	H271	0.500300	0.940200	0.913000
C2721	C272	0.444790	0.119910	0.968100
H2721	H272	0.453700	0.104200	0.976100
N4081	N408	0.481850	0.972710	0.868560
Cu691	Cu69	0.912800	0.529510	0.876690
Cu701	Cu70	0.975430	0.557950	0.850040
N4091	N409	0.972810	0.516470	0.858460
N4101	N410	0.948800	0.504520	0.870860
N4111	N411	0.928070	0.565410	0.893420
N4121	N412	0.955140	0.575530	0.885910
N4131	N413	0.016770	0.407990	0.858390
N4141	N414	0.015730	0.409670	0.887950
C2731	C273	0.004360	0.430640	0.848200
H2731	H273	0.001900	0.434800	0.829000
N4151	N415	0.995690	0.447040	0.870400
C2741	C274	0.954500	0.478060	0.876790
H2741	H274	0.942100	0.465100	0.885200
N4161	N416	0.938220	0.643240	0.981530
N4171	N417	0.936520	0.622320	0.940460
N4181	N418	0.925720	0.661650	0.961750
N4191	N419	0.938770	0.601410	0.920110
C2751	C275	0.960920	0.597250	0.901890
H2751	H275	0.977400	0.608200	0.901100
C2761	C276	0.925100	0.648640	0.937330
H2761	H276	0.918000	0.656200	0.920500
C2771	C277	0.918720	0.581330	0.914050
H2771	H277	0.901300	0.579300	0.923200
C2781	C278	0.992480	0.497190	0.857690
H2781	H278	0.010900	0.499700	0.850800
C2791	C279	0.003340	0.433550	0.894640
H2791	H279	0.000300	0.440200	0.913000
C2801	C280	0.944790	0.619910	0.968100
H2801	H280	0.953700	0.604200	0.976100
N4201	N420	0.981850	0.472710	0.868560
Cu711	Cu71	0.912800	0.029510	0.376690
Cu721	Cu72	0.975430	0.057950	0.350040
N4211	N421	0.972810	0.016470	0.358460
N4221	N422	0.948800	0.004520	0.370860
N4231	N423	0.928070	0.065410	0.393420
N4241	N424	0.955140	0.075530	0.385910
N4251	N425	0.016770	0.907990	0.358390
N4261	N426	0.015730	0.909670	0.387950
C2811	C281	0.004360	0.930640	0.348200
H2811	H281	0.001900	0.934800	0.329000
N4271	N427	0.995690	0.947040	0.370400
C2821	C282	0.954500	0.978060	0.376790
H2821	H282	0.942100	0.965100	0.385200
N4281	N428	0.938220	0.143240	0.481530
N4291	N429	0.936520	0.122320	0.440460
N4301	N430	0.925720	0.161650	0.461750
N4311	N431	0.938770	0.101410	0.420110
C2831	C283	0.960920	0.097250	0.401890
H2831	H283	0.977400	0.108200	0.401100
C2841	C284	0.925100	0.148640	0.437330
H2841	H284	0.918000	0.156200	0.420500
C2851	C285	0.918720	0.081330	0.414050
H2851	H285	0.901300	0.079300	0.423200
C2861	C286	0.992480	0.997190	0.357690
H2861	H286	0.010900	0.999700	0.350800
C2871	C287	0.003340	0.933550	0.394640
H2871	H287	0.000300	0.940200	0.413000
C2881	C288	0.944790	0.119910	0.468100
H2881	H288	0.953700	0.104200	0.476100
N4321	N432	0.981850	0.972710	0.368560
Cu731	Cu73	0.337200	0.029510	0.873310
Cu741	Cu74	0.274570	0.057950	0.899960
N4331	N433	0.277190	0.016470	0.891540
N4341	N434	0.301200	0.004520	0.879140
N4351	N435	0.321930	0.065410	0.856580
N4361	N436	0.294860	0.075530	0.864090
N4371	N437	0.233230	0.907990	0.891610
N4381	N438	0.234270	0.909670	0.862050
C2891	C289	0.245640	0.930640	0.901800
H2891	H289	0.248100	0.934800	0.921000
N4391	N439	0.254310	0.947040	0.879600
C2901	C290	0.295500	0.978060	0.873210
H2901	H290	0.307900	0.965100	0.864800
N4401	N440	0.311780	0.143240	0.768470
N4411	N441	0.313480	0.122320	0.809540
N4421	N442	0.324280	0.161650	0.788250
N4431	N443	0.311230	0.101410	0.829890
C2911	C291	0.289080	0.097250	0.848110
H2911	H291	0.272600	0.108200	0.848900
C2921	C292	0.324900	0.148640	0.812670
H2921	H292	0.332000	0.156200	0.829500
C2931	C293	0.331280	0.081330	0.835950
H2931	H293	0.348700	0.079300	0.826800
C2941	C294	0.257520	0.997190	0.892310
H2941	H294	0.239100	0.999700	0.899200
C2951	C295	0.246660	0.933550	0.855360
H2951	H295	0.249700	0.940200	0.837000
C2961	C296	0.305210	0.119910	0.781900
H2961	H296	0.296300	0.104200	0.773900
N4441	N444	0.268150	0.972710	0.881440
Cu751	Cu75	0.337200	0.529510	0.373310
Cu761	Cu76	0.274570	0.557950	0.399960
N4451	N445	0.277190	0.516470	0.391540
N4461	N446	0.301200	0.504520	0.379140
N4471	N447	0.321930	0.565410	0.356580
N4481	N448	0.294860	0.575530	0.364090
N4491	N449	0.233230	0.407990	0.391610
N4501	N450	0.234270	0.409670	0.362050
C2971	C297	0.245640	0.430640	0.401800
H2971	H297	0.248100	0.434800	0.421000
N4511	N451	0.254310	0.447040	0.379600
C2981	C298	0.295500	0.478060	0.373210
H2981	H298	0.307900	0.465100	0.364800
N4521	N452	0.311780	0.643240	0.268470
N4531	N453	0.313480	0.622320	0.309540
N4541	N454	0.324280	0.661650	0.288250
N4551	N455	0.311230	0.601410	0.329890
C2991	C299	0.289080	0.597250	0.348110
H2991	H299	0.272600	0.608200	0.348900
C3001	C300	0.324900	0.648640	0.312670
H3001	H300	0.332000	0.656200	0.329500
C3011	C301	0.331280	0.581330	0.335950
H3011	H301	0.348700	0.579300	0.326800
C3021	C302	0.257520	0.497190	0.392310
H3021	H302	0.239100	0.499700	0.399200
C3031	C303	0.246660	0.433550	0.355360
H3031	H303	0.249700	0.440200	0.337000
C3041	C304	0.305210	0.619910	0.281900
H3041	H304	0.296300	0.604200	0.273900
N4561	N456	0.268150	0.472710	0.381440
Cu771	Cu77	0.837200	0.029510	0.373310
Cu781	Cu78	0.774570	0.057950	0.399960
N4571	N457	0.777190	0.016470	0.391540
N4581	N458	0.801200	0.004520	0.379140
N4591	N459	0.821930	0.065410	0.356580
N4601	N460	0.794860	0.075530	0.364090
N4611	N461	0.733230	0.907990	0.391610
N4621	N462	0.734270	0.909670	0.362050
C3051	C305	0.745640	0.930640	0.401800
H3051	H305	0.748100	0.934800	0.421000
N4631	N463	0.754310	0.947040	0.379600
C3061	C306	0.795500	0.978060	0.373210
H3061	H306	0.807900	0.965100	0.364800
N4641	N464	0.811780	0.143240	0.268470
N4651	N465	0.813480	0.122320	0.309540
N4661	N466	0.824280	0.161650	0.288250
N4671	N467	0.811230	0.101410	0.329890
C3071	C307	0.789080	0.097250	0.348110
H3071	H307	0.772600	0.108200	0.348900
C3081	C308	0.824900	0.148640	0.312670
H3081	H308	0.832000	0.156200	0.329500
C3091	C309	0.831280	0.081330	0.335950
H3091	H309	0.848700	0.079300	0.326800
C3101	C310	0.757520	0.997190	0.392310
H3101	H310	0.739100	0.999700	0.399200
C3111	C311	0.746660	0.933550	0.355360
H3111	H311	0.749700	0.940200	0.337000
C3121	C312	0.805210	0.119910	0.281900
H3121	H312	0.796300	0.104200	0.273900
N4681	N468	0.768150	0.972710	0.381440
Cu791	Cu79	0.837200	0.529510	0.873310
Cu801	Cu80	0.774570	0.557950	0.899960
N4691	N469	0.777190	0.516470	0.891540
N4701	N470	0.801200	0.504520	0.879140
N4711	N471	0.821930	0.565410	0.856580
N4721	N472	0.794860	0.575530	0.864090
N4731	N473	0.733230	0.407990	0.891610
N4741	N474	0.734270	0.409670	0.862050
C3131	C313	0.745640	0.430640	0.901800
H3131	H313	0.748100	0.434800	0.921000
N4751	N475	0.754310	0.447040	0.879600
C3141	C314	0.795500	0.478060	0.873210
H3141	H314	0.807900	0.465100	0.864800
N4761	N476	0.811780	0.643240	0.768470
N4771	N477	0.813480	0.622320	0.809540
N4781	N478	0.824280	0.661650	0.788250
N4791	N479	0.811230	0.601410	0.829890
C3151	C315	0.789080	0.597250	0.848110
H3151	H315	0.772600	0.608200	0.848900
C3161	C316	0.824900	0.648640	0.812670
H3161	H316	0.832000	0.656200	0.829500
C3171	C317	0.831280	0.581330	0.835950
H3171	H317	0.848700	0.579300	0.826800
C3181	C318	0.757520	0.497190	0.892310
H3181	H318	0.739100	0.499700	0.899200
C3191	C319	0.746660	0.433550	0.855360
H3191	H319	0.749700	0.440200	0.837000
C3201	C320	0.805210	0.619910	0.781900
H3201	H320	0.796300	0.604200	0.773900
N4801	N480	0.768150	0.472710	0.881440
Cu811	Cu81	0.912800	0.720500	0.373310
Cu821	Cu82	0.975430	0.692050	0.399960
N4811	N481	0.972810	0.733530	0.391540
N4821	N482	0.948800	0.745480	0.379140
N4831	N483	0.928070	0.684590	0.356580
N4841	N484	0.955140	0.674470	0.364090
N4851	N485	0.016770	0.842010	0.391610
N4861	N486	0.015730	0.840330	0.362050
C3211	C321	0.004360	0.819360	0.401800
H3211	H321	0.001900	0.815200	0.421000
N4871	N487	0.995690	0.802960	0.379600
C3221	C322	0.954500	0.771940	0.373210
H3221	H322	0.942100	0.784900	0.364800
N4881	N488	0.938220	0.606760	0.268470
N4891	N489	0.936520	0.627680	0.309540
N4901	N490	0.925720	0.588350	0.288250
N4911	N491	0.938770	0.648590	0.329890
C3231	C323	0.960920	0.652750	0.348110
H3231	H323	0.977400	0.641800	0.348900
C3241	C324	0.925100	0.601360	0.312670
H3241	H324	0.918000	0.593800	0.329500
C3251	C325	0.918720	0.668670	0.335950
H3251	H325	0.901300	0.670700	0.326800
C3261	C326	0.992480	0.752810	0.392310
H3261	H326	0.010900	0.750300	0.399200
C3271	C327	0.003340	0.816450	0.355360
H3271	H327	0.000300	0.809800	0.337000
C3281	C328	0.944790	0.630090	0.281900
H3281	H328	0.953700	0.645800	0.273900
N4921	N492	0.981850	0.777290	0.381440
Cu831	Cu83	0.912800	0.220500	0.873310
Cu841	Cu84	0.975430	0.192050	0.899960
N4931	N493	0.972810	0.233530	0.891540
N4941	N494	0.948800	0.245480	0.879140
N4951	N495	0.928070	0.184590	0.856580
N4961	N496	0.955140	0.174470	0.864090
N4971	N497	0.016770	0.342010	0.891610
N4981	N498	0.015730	0.340330	0.862050
C3291	C329	0.004360	0.319360	0.901800
H3291	H329	0.001900	0.315200	0.921000
N4991	N499	0.995690	0.302960	0.879600
C3301	C330	0.954500	0.271940	0.873210
H3301	H330	0.942100	0.284900	0.864800
N5001	N500	0.938220	0.106760	0.768470
N5011	N501	0.936520	0.127680	0.809540
N5021	N502	0.925720	0.088350	0.788250
N5031	N503	0.938770	0.148590	0.829890
C3311	C331	0.960920	0.152750	0.848110
H3311	H331	0.977400	0.141800	0.848900
C3321	C332	0.925100	0.101360	0.812670
H3321	H332	0.918000	0.093800	0.829500
C3331	C333	0.918720	0.168670	0.835950
H3331	H333	0.901300	0.170700	0.826800
C3341	C334	0.992480	0.252810	0.892310
H3341	H334	0.010900	0.250300	0.899200
C3351	C335	0.003340	0.316450	0.855360
H3351	H335	0.000300	0.309800	0.837000
C3361	C336	0.944790	0.130090	0.781900
H3361	H336	0.953700	0.145800	0.773900
N5041	N504	0.981850	0.277290	0.881440
Cu851	Cu85	0.412800	0.720500	0.873310
Cu861	Cu86	0.475430	0.692050	0.899960
N5051	N505	0.472810	0.733530	0.891540
N5061	N506	0.448800	0.745480	0.879140
N5071	N507	0.428070	0.684590	0.856580
N5081	N508	0.455140	0.674470	0.864090
N5091	N509	0.516770	0.842010	0.891610
N5101	N510	0.515730	0.840330	0.862050
C3371	C337	0.504360	0.819360	0.901800
H3371	H337	0.501900	0.815200	0.921000
N5111	N511	0.495690	0.802960	0.879600
C3381	C338	0.454500	0.771940	0.873210
H3381	H338	0.442100	0.784900	0.864800
N5121	N512	0.438220	0.606760	0.768470
N5131	N513	0.436520	0.627680	0.809540
N5141	N514	0.425720	0.588350	0.788250
N5151	N515	0.438770	0.648590	0.829890
C3391	C339	0.460920	0.652750	0.848110
H3391	H339	0.477400	0.641800	0.848900
C3401	C340	0.425100	0.601360	0.812670
H3401	H340	0.418000	0.593800	0.829500
C3411	C341	0.418720	0.668670	0.835950
H3411	H341	0.401300	0.670700	0.826800
C3421	C342	0.492480	0.752810	0.892310
H3421	H342	0.510900	0.750300	0.899200
C3431	C343	0.503340	0.816450	0.855360
H3431	H343	0.500300	0.809800	0.837000
C3441	C344	0.444790	0.630090	0.781900
H3441	H344	0.453700	0.645800	0.773900
N5161	N516	0.481850	0.777290	0.881440
Cu871	Cu87	0.412800	0.220500	0.373310
Cu881	Cu88	0.475430	0.192050	0.399960
N5171	N517	0.472810	0.233530	0.391540
N5181	N518	0.448800	0.245480	0.379140
N5191	N519	0.428070	0.184590	0.356580
N5201	N520	0.455140	0.174470	0.364090
N5211	N521	0.516770	0.342010	0.391610
N5221	N522	0.515730	0.340330	0.362050
C3451	C345	0.504360	0.319360	0.401800
H3451	H345	0.501900	0.315200	0.421000
N5231	N523	0.495690	0.302960	0.379600
C3461	C346	0.454500	0.271940	0.373210
H3461	H346	0.442100	0.284900	0.364800
N5241	N524	0.438220	0.106760	0.268470
N5251	N525	0.436520	0.127680	0.309540
N5261	N526	0.425720	0.088350	0.288250
N5271	N527	0.438770	0.148590	0.329890
C3471	C347	0.460920	0.152750	0.348110
H3471	H347	0.477400	0.141800	0.348900
C3481	C348	0.425100	0.101360	0.312670
H3481	H348	0.418000	0.093800	0.329500
C3491	C349	0.418720	0.168670	0.335950
H3491	H349	0.401300	0.170700	0.326800
C3501	C350	0.492480	0.252810	0.392310
H3501	H350	0.510900	0.250300	0.399200
C3511	C351	0.503340	0.316450	0.355360
H3511	H351	0.500300	0.309800	0.337000
C3521	C352	0.444790	0.130090	0.281900
H3521	H352	0.453700	0.145800	0.273900
N5281	N528	0.481850	0.277290	0.381440
Cu891	Cu89	0.837200	0.220500	0.876690
Cu901	Cu90	0.774570	0.192050	0.850040
N5291	N529	0.777190	0.233530	0.858460
N5301	N530	0.801200	0.245480	0.870860
N5311	N531	0.821930	0.184590	0.893420
N5321	N532	0.794860	0.174470	0.885910
N5331	N533	0.733230	0.342010	0.858390
N5341	N534	0.734270	0.340330	0.887950
C3531	C353	0.745640	0.319360	0.848200
H3531	H353	0.748100	0.315200	0.829000
N5351	N535	0.754310	0.302960	0.870400
C3541	C354	0.795500	0.271940	0.876790
H3541	H354	0.807900	0.284900	0.885200
N5361	N536	0.811780	0.106760	0.981530
N5371	N537	0.813480	0.127680	0.940460
N5381	N538	0.824280	0.088350	0.961750
N5391	N539	0.811230	0.148590	0.920110
C3551	C355	0.789080	0.152750	0.901890
H3551	H355	0.772600	0.141800	0.901100
C3561	C356	0.824900	0.101360	0.937330
H3561	H356	0.832000	0.093800	0.920500
C3571	C357	0.831280	0.168670	0.914050
H3571	H357	0.848700	0.170700	0.923200
C3581	C358	0.757520	0.252810	0.857690
H3581	H358	0.739100	0.250300	0.850800
C3591	C359	0.746660	0.316450	0.894640
H3591	H359	0.749700	0.309800	0.913000
C3601	C360	0.805210	0.130090	0.968100
H3601	H360	0.796300	0.145800	0.976100
N5401	N540	0.768150	0.277290	0.868560
Cu911	Cu91	0.837200	0.720500	0.376690
Cu921	Cu92	0.774570	0.692050	0.350040
N5411	N541	0.777190	0.733530	0.358460
N5421	N542	0.801200	0.745480	0.370860
N5431	N543	0.821930	0.684590	0.393420
N5441	N544	0.794860	0.674470	0.385910
N5451	N545	0.733230	0.842010	0.358390
N5461	N546	0.734270	0.840330	0.387950
C3611	C361	0.745640	0.819360	0.348200
H3611	H361	0.748100	0.815200	0.329000
N5471	N547	0.754310	0.802960	0.370400
C3621	C362	0.795500	0.771940	0.376790
H3621	H362	0.807900	0.784900	0.385200
N5481	N548	0.811780	0.606760	0.481530
N5491	N549	0.813480	0.627680	0.440460
N5501	N550	0.824280	0.588350	0.461750
N5511	N551	0.811230	0.648590	0.420110
C3631	C363	0.789080	0.652750	0.401890
H3631	H363	0.772600	0.641800	0.401100
C3641	C364	0.824900	0.601360	0.437330
H3641	H364	0.832000	0.593800	0.420500
C3651	C365	0.831280	0.668670	0.414050
H3651	H365	0.848700	0.670700	0.423200
C3661	C366	0.757520	0.752810	0.357690
H3661	H366	0.739100	0.750300	0.350800
C3671	C367	0.746660	0.816450	0.394640
H3671	H367	0.749700	0.809800	0.413000
C3681	C368	0.805210	0.630090	0.468100
H3681	H368	0.796300	0.645800	0.476100
N5521	N552	0.768150	0.777290	0.368560
Cu931	Cu93	0.337200	0.220500	0.376690
Cu941	Cu94	0.274570	0.192050	0.350040
N5531	N553	0.277190	0.233530	0.358460
N5541	N554	0.301200	0.245480	0.370860
N5551	N555	0.321930	0.184590	0.393420
N5561	N556	0.294860	0.174470	0.385910
N5571	N557	0.233230	0.342010	0.358390
N5581	N558	0.234270	0.340330	0.387950
C3691	C369	0.245640	0.319360	0.348200
H3691	H369	0.248100	0.315200	0.329000
N5591	N559	0.254310	0.302960	0.370400
C3701	C370	0.295500	0.271940	0.376790
H3701	H370	0.307900	0.284900	0.385200
N5601	N560	0.311780	0.106760	0.481530
N5611	N561	0.313480	0.127680	0.440460
N5621	N562	0.324280	0.088350	0.461750
N5631	N563	0.311230	0.148590	0.420110
C3711	C371	0.289080	0.152750	0.401890
H3711	H371	0.272600	0.141800	0.401100
C3721	C372	0.324900	0.101360	0.437330
H3721	H372	0.332000	0.093800	0.420500
C3731	C373	0.331280	0.168670	0.414050
H3731	H373	0.348700	0.170700	0.423200
C3741	C374	0.257520	0.252810	0.357690
H3741	H374	0.239100	0.250300	0.350800
C3751	C375	0.246660	0.316450	0.394640
H3751	H375	0.249700	0.309800	0.413000
C3761	C376	0.305210	0.130090	0.468100
H3761	H376	0.296300	0.145800	0.476100
N5641	N564	0.268150	0.277290	0.368560
Cu951	Cu95	0.337200	0.720500	0.876690
Cu961	Cu96	0.274570	0.692050	0.850040
N5651	N565	0.277190	0.733530	0.858460
N5661	N566	0.301200	0.745480	0.870860
N5671	N567	0.321930	0.684590	0.893420
N5681	N568	0.294860	0.674470	0.885910
N5691	N569	0.233230	0.842010	0.858390
N5701	N570	0.234270	0.840330	0.887950
C3771	C377	0.245640	0.819360	0.848200
H3771	H377	0.248100	0.815200	0.829000
N5711	N571	0.254310	0.802960	0.870400
C3781	C378	0.295500	0.771940	0.876790
H3781	H378	0.307900	0.784900	0.885200
N5721	N572	0.311780	0.606760	0.981530
N5731	N573	0.313480	0.627680	0.940460
N5741	N574	0.324280	0.588350	0.961750
N5751	N575	0.311230	0.648590	0.920110
C3791	C379	0.289080	0.652750	0.901890
H3791	H379	0.272600	0.641800	0.901100
C3801	C380	0.324900	0.601360	0.937330
H3801	H380	0.332000	0.593800	0.920500
C3811	C381	0.331280	0.668670	0.914050
H3811	H381	0.348700	0.670700	0.923200
C3821	C382	0.257520	0.752810	0.857690
H3821	H382	0.239100	0.750300	0.850800
C3831	C383	0.246660	0.816450	0.894640
H3831	H383	0.249700	0.809800	0.913000
C3841	C384	0.305210	0.630090	0.968100
H3841	H384	0.296300	0.645800	0.976100
N5761	N576	0.268150	0.777290	0.868560
Cu971	Cu97	0.162800	0.626690	0.470500
Cu981	Cu98	0.225430	0.600040	0.442050
N5771	N577	0.222810	0.608460	0.483530
N5781	N578	0.198800	0.620860	0.495480
N5791	N579	0.178070	0.643420	0.434590
N5801	N580	0.205140	0.635910	0.424470
N5811	N581	0.266770	0.608390	0.592010
N5821	N582	0.265730	0.637950	0.590330
C3851	C385	0.254360	0.598200	0.569360
H3851	H385	0.251900	0.579000	0.565200
N5831	N583	0.245690	0.620400	0.552960
C3861	C386	0.204500	0.626790	0.521940
H3861	H386	0.192100	0.635200	0.534900
N5841	N584	0.188220	0.731530	0.356760
N5851	N585	0.186520	0.690460	0.377680
N5861	N586	0.175720	0.711750	0.338350
N5871	N587	0.188770	0.670110	0.398590
C3871	C387	0.210920	0.651890	0.402750
H3871	H387	0.227400	0.651100	0.391800
C3881	C388	0.175100	0.687330	0.351360
H3881	H388	0.168000	0.670500	0.343800
C3891	C389	0.168720	0.664050	0.418670
H3891	H389	0.151300	0.673200	0.420700
C3901	C390	0.242480	0.607690	0.502810
H3901	H390	0.260900	0.600800	0.500300
C3911	C391	0.253340	0.644640	0.566450
H3911	H391	0.250300	0.663000	0.559800
C3921	C392	0.194790	0.718100	0.380090
H3921	H392	0.203700	0.726100	0.395800
N5881	N588	0.231850	0.618560	0.527290
Cu991	Cu99	0.162800	0.126690	0.970500
Cu1001	Cu100	0.225430	0.100040	0.942050
N5891	N589	0.222810	0.108460	0.983530
N5901	N590	0.198800	0.120860	0.995480
N5911	N591	0.178070	0.143420	0.934590
N5921	N592	0.205140	0.135910	0.924470
N5931	N593	0.266770	0.108390	0.092010
N5941	N594	0.265730	0.137950	0.090330
C3931	C393	0.254360	0.098200	0.069360
H3931	H393	0.251900	0.079000	0.065200
N5951	N595	0.245690	0.120400	0.052960
C3941	C394	0.204500	0.126790	0.021940
H3941	H394	0.192100	0.135200	0.034900
N5961	N596	0.188220	0.231530	0.856760
N5971	N597	0.186520	0.190460	0.877680
N5981	N598	0.175720	0.211750	0.838350
N5991	N599	0.188770	0.170110	0.898590
C3951	C395	0.210920	0.151890	0.902750
H3951	H395	0.227400	0.151100	0.891800
C3961	C396	0.175100	0.187330	0.851360
H3961	H396	0.168000	0.170500	0.843800
C3971	C397	0.168720	0.164050	0.918670
H3971	H397	0.151300	0.173200	0.920700
C3981	C398	0.242480	0.107690	0.002810
H3981	H398	0.260900	0.100800	0.000300
C3991	C399	0.253340	0.144640	0.066450
H3991	H399	0.250300	0.163000	0.059800
C4001	C400	0.194790	0.218100	0.880090
H4001	H400	0.203700	0.226100	0.895800
N6001	N600	0.231850	0.118560	0.027290
Cu1011	Cu101	0.662800	0.626690	0.970500
Cu1021	Cu102	0.725430	0.600040	0.942050
N6011	N601	0.722810	0.608460	0.983530
N6021	N602	0.698800	0.620860	0.995480
N6031	N603	0.678070	0.643420	0.934590
N6041	N604	0.705140	0.635910	0.924470
N6051	N605	0.766770	0.608390	0.092010
N6061	N606	0.765730	0.637950	0.090330
C4011	C401	0.754360	0.598200	0.069360
H4011	H401	0.751900	0.579000	0.065200
N6071	N607	0.745690	0.620400	0.052960
C4021	C402	0.704500	0.626790	0.021940
H4021	H402	0.692100	0.635200	0.034900
N6081	N608	0.688220	0.731530	0.856760
N6091	N609	0.686520	0.690460	0.877680
N6101	N610	0.675720	0.711750	0.838350
N6111	N611	0.688770	0.670110	0.898590
C4031	C403	0.710920	0.651890	0.902750
H4031	H403	0.727400	0.651100	0.891800
C4041	C404	0.675100	0.687330	0.851360
H4041	H404	0.668000	0.670500	0.843800
C4051	C405	0.668720	0.664050	0.918670
H4051	H405	0.651300	0.673200	0.920700
C4061	C406	0.742480	0.607690	0.002810
H4061	H406	0.760900	0.600800	0.000300
C4071	C407	0.753340	0.644640	0.066450
H4071	H407	0.750300	0.663000	0.059800
C4081	C408	0.694790	0.718100	0.880090
H4081	H408	0.703700	0.726100	0.895800
N6121	N612	0.731850	0.618560	0.027290
Cu1031	Cu103	0.662800	0.126690	0.470500
Cu1041	Cu104	0.725430	0.100040	0.442050
N6131	N613	0.722810	0.108460	0.483530
N6141	N614	0.698800	0.120860	0.495480
N6151	N615	0.678070	0.143420	0.434590
N6161	N616	0.705140	0.135910	0.424470
N6171	N617	0.766770	0.108390	0.592010
N6181	N618	0.765730	0.137950	0.590330
C4091	C409	0.754360	0.098200	0.569360
H4091	H409	0.751900	0.079000	0.565200
N6191	N619	0.745690	0.120400	0.552960
C4101	C410	0.704500	0.126790	0.521940
H4101	H410	0.692100	0.135200	0.534900
N6201	N620	0.688220	0.231530	0.356760
N6211	N621	0.686520	0.190460	0.377680
N6221	N622	0.675720	0.211750	0.338350
N6231	N623	0.688770	0.170110	0.398590
C4111	C411	0.710920	0.151890	0.402750
H4111	H411	0.727400	0.151100	0.391800
C4121	C412	0.675100	0.187330	0.351360
H4121	H412	0.668000	0.170500	0.343800
C4131	C413	0.668720	0.164050	0.418670
H4131	H413	0.651300	0.173200	0.420700
C4141	C414	0.742480	0.107690	0.502810
H4141	H414	0.760900	0.100800	0.500300
C4151	C415	0.753340	0.144640	0.566450
H4151	H415	0.750300	0.163000	0.559800
C4161	C416	0.694790	0.218100	0.380090
H4161	H416	0.703700	0.226100	0.395800
N6241	N624	0.731850	0.118560	0.527290
Cu1051	Cu105	0.087200	0.123310	0.970500
Cu1061	Cu106	0.024570	0.149960	0.942050
N6251	N625	0.027190	0.141540	0.983530
N6261	N626	0.051200	0.129140	0.995480
N6271	N627	0.071930	0.106580	0.934590
N6281	N628	0.044860	0.114090	0.924470
N6291	N629	0.983230	0.141610	0.092010
N6301	N630	0.984270	0.112050	0.090330
C4171	C417	0.995640	0.151800	0.069360
H4171	H417	0.998100	0.171000	0.065200
N6311	N631	0.004310	0.129600	0.052960
C4181	C418	0.045500	0.123210	0.021940
H4181	H418	0.057900	0.114800	0.034900
N6321	N632	0.061780	0.018470	0.856760
N6331	N633	0.063480	0.059540	0.877680
N6341	N634	0.074280	0.038250	0.838350
N6351	N635	0.061230	0.079890	0.898590
C4191	C419	0.039080	0.098110	0.902750
H4191	H419	0.022600	0.098900	0.891800
C4201	C420	0.074900	0.062670	0.851360
H4201	H420	0.082000	0.079500	0.843800
C4211	C421	0.081280	0.085950	0.918670
H4211	H421	0.098700	0.076800	0.920700
C4221	C422	0.007520	0.142310	0.002810
H4221	H422	0.989100	0.149200	0.000300
C4231	C423	0.996660	0.105360	0.066450
H4231	H423	0.999700	0.087000	0.059800
C4241	C424	0.055210	0.031900	0.880090
H4241	H424	0.046300	0.023900	0.895800
N6361	N636	0.018150	0.131440	0.027290
Cu1071	Cu107	0.087200	0.623310	0.470500
Cu1081	Cu108	0.024570	0.649960	0.442050
N6371	N637	0.027190	0.641540	0.483530
N6381	N638	0.051200	0.629140	0.495480
N6391	N639	0.071930	0.606580	0.434590
N6401	N640	0.044860	0.614090	0.424470
N6411	N641	0.983230	0.641610	0.592010
N6421	N642	0.984270	0.612050	0.590330
C4251	C425	0.995640	0.651800	0.569360
H4251	H425	0.998100	0.671000	0.565200
N6431	N643	0.004310	0.629600	0.552960
C4261	C426	0.045500	0.623210	0.521940
H4261	H426	0.057900	0.614800	0.534900
N6441	N644	0.061780	0.518470	0.356760
N6451	N645	0.063480	0.559540	0.377680
N6461	N646	0.074280	0.538250	0.338350
N6471	N647	0.061230	0.579890	0.398590
C4271	C427	0.039080	0.598110	0.402750
H4271	H427	0.022600	0.598900	0.391800
C4281	C428	0.074900	0.562670	0.351360
H4281	H428	0.082000	0.579500	0.343800
C4291	C429	0.081280	0.585950	0.418670
H4291	H429	0.098700	0.576800	0.420700
C4301	C430	0.007520	0.642310	0.502810
H4301	H430	0.989100	0.649200	0.500300
C4311	C431	0.996660	0.605360	0.566450
H4311	H431	0.999700	0.587000	0.559800
C4321	C432	0.055210	0.531900	0.380090
H4321	H432	0.046300	0.523900	0.395800
N6481	N648	0.018150	0.631440	0.527290
Cu1091	Cu109	0.587200	0.123310	0.470500
Cu1101	Cu110	0.524570	0.149960	0.442050
N6491	N649	0.527190	0.141540	0.483530
N6501	N650	0.551200	0.129140	0.495480
N6511	N651	0.571930	0.106580	0.434590
N6521	N652	0.544860	0.114090	0.424470
N6531	N653	0.483230	0.141610	0.592010
N6541	N654	0.484270	0.112050	0.590330
C4331	C433	0.495640	0.151800	0.569360
H4331	H433	0.498100	0.171000	0.565200
N6551	N655	0.504310	0.129600	0.552960
C4341	C434	0.545500	0.123210	0.521940
H4341	H434	0.557900	0.114800	0.534900
N6561	N656	0.561780	0.018470	0.356760
N6571	N657	0.563480	0.059540	0.377680
N6581	N658	0.574280	0.038250	0.338350
N6591	N659	0.561230	0.079890	0.398590
C4351	C435	0.539080	0.098110	0.402750
H4351	H435	0.522600	0.098900	0.391800
C4361	C436	0.574900	0.062670	0.351360
H4361	H436	0.582000	0.079500	0.343800
C4371	C437	0.581280	0.085950	0.418670
H4371	H437	0.598700	0.076800	0.420700
C4381	C438	0.507520	0.142310	0.502810
H4381	H438	0.489100	0.149200	0.500300
C4391	C439	0.496660	0.105360	0.566450
H4391	H439	0.499700	0.087000	0.559800
C4401	C440	0.555210	0.031900	0.380090
H4401	H440	0.546300	0.023900	0.395800
N6601	N660	0.518150	0.131440	0.527290
Cu1111	Cu111	0.587200	0.623310	0.970500
Cu1121	Cu112	0.524570	0.649960	0.942050
N6611	N661	0.527190	0.641540	0.983530
N6621	N662	0.551200	0.629140	0.995480
N6631	N663	0.571930	0.606580	0.934590
N6641	N664	0.544860	0.614090	0.924470
N6651	N665	0.483230	0.641610	0.092010
N6661	N666	0.484270	0.612050	0.090330
C4411	C441	0.495640	0.651800	0.069360
H4411	H441	0.498100	0.671000	0.065200
N6671	N667	0.504310	0.629600	0.052960
C4421	C442	0.545500	0.623210	0.021940
H4421	H442	0.557900	0.614800	0.034900
N6681	N668	0.561780	0.518470	0.856760
N6691	N669	0.563480	0.559540	0.877680
N6701	N670	0.574280	0.538250	0.838350
N6711	N671	0.561230	0.579890	0.898590
C4431	C443	0.539080	0.598110	0.902750
H4431	H443	0.522600	0.598900	0.891800
C4441	C444	0.574900	0.562670	0.851360
H4441	H444	0.582000	0.579500	0.843800
C4451	C445	0.581280	0.585950	0.918670
H4451	H445	0.598700	0.576800	0.920700
C4461	C446	0.507520	0.642310	0.002810
H4461	H446	0.489100	0.649200	0.000300
C4471	C447	0.496660	0.605360	0.066450
H4471	H447	0.499700	0.587000	0.059800
C4481	C448	0.555210	0.531900	0.880090
H4481	H448	0.546300	0.523900	0.895800
N6721	N672	0.518150	0.631440	0.027290
Cu1131	Cu113	0.662800	0.623310	0.279510
Cu1141	Cu114	0.725430	0.649960	0.307950
N6731	N673	0.722810	0.641540	0.266470
N6741	N674	0.698800	0.629140	0.254520
N6751	N675	0.678070	0.606580	0.315410
N6761	N676	0.705140	0.614090	0.325530
N6771	N677	0.766770	0.641610	0.157990
N6781	N678	0.765730	0.612050	0.159670
C4491	C449	0.754360	0.651800	0.180640
H4491	H449	0.751900	0.671000	0.184800
N6791	N679	0.745690	0.629600	0.197040
C4501	C450	0.704500	0.623210	0.228060
H4501	H450	0.692100	0.614800	0.215100
N6801	N680	0.688220	0.518470	0.393240
N6811	N681	0.686520	0.559540	0.372320
N6821	N682	0.675720	0.538250	0.411650
N6831	N683	0.688770	0.579890	0.351410
C4511	C451	0.710920	0.598110	0.347250
H4511	H451	0.727400	0.598900	0.358200
C4521	C452	0.675100	0.562670	0.398640
H4521	H452	0.668000	0.579500	0.406200
C4531	C453	0.668720	0.585950	0.331330
H4531	H453	0.651300	0.576800	0.329300
C4541	C454	0.742480	0.642310	0.247190
H4541	H454	0.760900	0.649200	0.249700
C4551	C455	0.753340	0.605360	0.183550
H4551	H455	0.750300	0.587000	0.190200
C4561	C456	0.694790	0.531900	0.369910
H4561	H456	0.703700	0.523900	0.354200
N6841	N684	0.731850	0.631440	0.222710
Cu1151	Cu115	0.662800	0.123310	0.779510
Cu1161	Cu116	0.725430	0.149960	0.807950
N6851	N685	0.722810	0.141540	0.766470
N6861	N686	0.698800	0.129140	0.754520
N6871	N687	0.678070	0.106580	0.815410
N6881	N688	0.705140	0.114090	0.825530
N6891	N689	0.766770	0.141610	0.657990
N6901	N690	0.765730	0.112050	0.659670
C4571	C457	0.754360	0.151800	0.680640
H4571	H457	0.751900	0.171000	0.684800
N6911	N691	0.745690	0.129600	0.697040
C4581	C458	0.704500	0.123210	0.728060
H4581	H458	0.692100	0.114800	0.715100
N6921	N692	0.688220	0.018470	0.893240
N6931	N693	0.686520	0.059540	0.872320
N6941	N694	0.675720	0.038250	0.911650
N6951	N695	0.688770	0.079890	0.851410
C4591	C459	0.710920	0.098110	0.847250
H4591	H459	0.727400	0.098900	0.858200
C4601	C460	0.675100	0.062670	0.898640
H4601	H460	0.668000	0.079500	0.906200
C4611	C461	0.668720	0.085950	0.831330
H4611	H461	0.651300	0.076800	0.829300
C4621	C462	0.742480	0.142310	0.747190
H4621	H462	0.760900	0.149200	0.749700
C4631	C463	0.753340	0.105360	0.683550
H4631	H463	0.750300	0.087000	0.690200
C4641	C464	0.694790	0.031900	0.869910
H4641	H464	0.703700	0.023900	0.854200
N6961	N696	0.731850	0.131440	0.722710
Cu1171	Cu117	0.162800	0.623310	0.779510
Cu1181	Cu118	0.225430	0.649960	0.807950
N6971	N697	0.222810	0.641540	0.766470
N6981	N698	0.198800	0.629140	0.754520
N6991	N699	0.178070	0.606580	0.815410
N7001	N700	0.205140	0.614090	0.825530
N7011	N701	0.266770	0.641610	0.657990
N7021	N702	0.265730	0.612050	0.659670
C4651	C465	0.254360	0.651800	0.680640
H4651	H465	0.251900	0.671000	0.684800
N7031	N703	0.245690	0.629600	0.697040
C4661	C466	0.204500	0.623210	0.728060
H4661	H466	0.192100	0.614800	0.715100
N7041	N704	0.188220	0.518470	0.893240
N7051	N705	0.186520	0.559540	0.872320
N7061	N706	0.175720	0.538250	0.911650
N7071	N707	0.188770	0.579890	0.851410
C4671	C467	0.210920	0.598110	0.847250
H4671	H467	0.227400	0.598900	0.858200
C4681	C468	0.175100	0.562670	0.898640
H4681	H468	0.168000	0.579500	0.906200
C4691	C469	0.168720	0.585950	0.831330
H4691	H469	0.151300	0.576800	0.829300
C4701	C470	0.242480	0.642310	0.747190
H4701	H470	0.260900	0.649200	0.749700
C4711	C471	0.253340	0.605360	0.683550
H4711	H471	0.250300	0.587000	0.690200
C4721	C472	0.194790	0.531900	0.869910
H4721	H472	0.203700	0.523900	0.854200
N7081	N708	0.231850	0.631440	0.722710
Cu1191	Cu119	0.162800	0.123310	0.279510
Cu1201	Cu120	0.225430	0.149960	0.307950
N7091	N709	0.222810	0.141540	0.266470
N7101	N710	0.198800	0.129140	0.254520
N7111	N711	0.178070	0.106580	0.315410
N7121	N712	0.205140	0.114090	0.325530
N7131	N713	0.266770	0.141610	0.157990
N7141	N714	0.265730	0.112050	0.159670
C4731	C473	0.254360	0.151800	0.180640
H4731	H473	0.251900	0.171000	0.184800
N7151	N715	0.245690	0.129600	0.197040
C4741	C474	0.204500	0.123210	0.228060
H4741	H474	0.192100	0.114800	0.215100
N7161	N716	0.188220	0.018470	0.393240
N7171	N717	0.186520	0.059540	0.372320
N7181	N718	0.175720	0.038250	0.411650
N7191	N719	0.188770	0.079890	0.351410
C4751	C475	0.210920	0.098110	0.347250
H4751	H475	0.227400	0.098900	0.358200
C4761	C476	0.175100	0.062670	0.398640
H4761	H476	0.168000	0.079500	0.406200
C4771	C477	0.168720	0.085950	0.331330
H4771	H477	0.151300	0.076800	0.329300
C4781	C478	0.242480	0.142310	0.247190
H4781	H478	0.260900	0.149200	0.249700
C4791	C479	0.253340	0.105360	0.183550
H4791	H479	0.250300	0.087000	0.190200
C4801	C480	0.194790	0.031900	0.369910
H4801	H480	0.203700	0.023900	0.354200
N7201	N720	0.231850	0.131440	0.222710
Cu1211	Cu121	0.587200	0.126690	0.779510
Cu1221	Cu122	0.524570	0.100040	0.807950
N7211	N721	0.527190	0.108460	0.766470
N7221	N722	0.551200	0.120860	0.754520
N7231	N723	0.571930	0.143420	0.815410
N7241	N724	0.544860	0.135910	0.825530
N7251	N725	0.483230	0.108390	0.657990
N7261	N726	0.484270	0.137950	0.659670
C4811	C481	0.495640	0.098200	0.680640
H4811	H481	0.498100	0.079000	0.684800
N7271	N727	0.504310	0.120400	0.697040
C4821	C482	0.545500	0.126790	0.728060
H4821	H482	0.557900	0.135200	0.715100
N7281	N728	0.561780	0.231530	0.893240
N7291	N729	0.563480	0.190460	0.872320
N7301	N730	0.574280	0.211750	0.911650
N7311	N731	0.561230	0.170110	0.851410
C4831	C483	0.539080	0.151890	0.847250
H4831	H483	0.522600	0.151100	0.858200
C4841	C484	0.574900	0.187330	0.898640
H4841	H484	0.582000	0.170500	0.906200
C4851	C485	0.581280	0.164050	0.831330
H4851	H485	0.598700	0.173200	0.829300
C4861	C486	0.507520	0.107690	0.747190
H4861	H486	0.489100	0.100800	0.749700
C4871	C487	0.496660	0.144640	0.683550
H4871	H487	0.499700	0.163000	0.690200
C4881	C488	0.555210	0.218100	0.869910
H4881	H488	0.546300	0.226100	0.854200
N7321	N732	0.518150	0.118560	0.722710
Cu1231	Cu123	0.587200	0.626690	0.279510
Cu1241	Cu124	0.524570	0.600040	0.307950
N7331	N733	0.527190	0.608460	0.266470
N7341	N734	0.551200	0.620860	0.254520
N7351	N735	0.571930	0.643420	0.315410
N7361	N736	0.544860	0.635910	0.325530
N7371	N737	0.483230	0.608390	0.157990
N7381	N738	0.484270	0.637950	0.159670
C4891	C489	0.495640	0.598200	0.180640
H4891	H489	0.498100	0.579000	0.184800
N7391	N739	0.504310	0.620400	0.197040
C4901	C490	0.545500	0.626790	0.228060
H4901	H490	0.557900	0.635200	0.215100
N7401	N740	0.561780	0.731530	0.393240
N7411	N741	0.563480	0.690460	0.372320
N7421	N742	0.574280	0.711750	0.411650
N7431	N743	0.561230	0.670110	0.351410
C4911	C491	0.539080	0.651890	0.347250
H4911	H491	0.522600	0.651100	0.358200
C4921	C492	0.574900	0.687330	0.398640
H4921	H492	0.582000	0.670500	0.406200
C4931	C493	0.581280	0.664050	0.331330
H4931	H493	0.598700	0.673200	0.329300
C4941	C494	0.507520	0.607690	0.247190
H4941	H494	0.489100	0.600800	0.249700
C4951	C495	0.496660	0.644640	0.183550
H4951	H495	0.499700	0.663000	0.190200
C4961	C496	0.555210	0.718100	0.369910
H4961	H496	0.546300	0.726100	0.354200
N7441	N744	0.518150	0.618560	0.222710
Cu1251	Cu125	0.087200	0.126690	0.279510
Cu1261	Cu126	0.024570	0.100040	0.307950
N7451	N745	0.027190	0.108460	0.266470
N7461	N746	0.051200	0.120860	0.254520
N7471	N747	0.071930	0.143420	0.315410
N7481	N748	0.044860	0.135910	0.325530
N7491	N749	0.983230	0.108390	0.157990
N7501	N750	0.984270	0.137950	0.159670
C4971	C497	0.995640	0.098200	0.180640
H4971	H497	0.998100	0.079000	0.184800
N7511	N751	0.004310	0.120400	0.197040
C4981	C498	0.045500	0.126790	0.228060
H4981	H498	0.057900	0.135200	0.215100
N7521	N752	0.061780	0.231530	0.393240
N7531	N753	0.063480	0.190460	0.372320
N7541	N754	0.074280	0.211750	0.411650
N7551	N755	0.061230	0.170110	0.351410
C4991	C499	0.039080	0.151890	0.347250
H4991	H499	0.022600	0.151100	0.358200
C5001	C500	0.074900	0.187330	0.398640
H5001	H500	0.082000	0.170500	0.406200
C5011	C501	0.081280	0.164050	0.331330
H5011	H501	0.098700	0.173200	0.329300
C5021	C502	0.007520	0.107690	0.247190
H5021	H502	0.989100	0.100800	0.249700
C5031	C503	0.996660	0.144640	0.183550
H5031	H503	0.999700	0.163000	0.190200
C5041	C504	0.055210	0.218100	0.369910
H5041	H504	0.046300	0.226100	0.354200
N7561	N756	0.018150	0.118560	0.222710
Cu1271	Cu127	0.087200	0.626690	0.779510
Cu1281	Cu128	0.024570	0.600040	0.807950
N7571	N757	0.027190	0.608460	0.766470
N7581	N758	0.051200	0.620860	0.754520
N7591	N759	0.071930	0.643420	0.815410
N7601	N760	0.044860	0.635910	0.825530
N7611	N761	0.983230	0.608390	0.657990
N7621	N762	0.984270	0.637950	0.659670
C5051	C505	0.995640	0.598200	0.680640
H5051	H505	0.998100	0.579000	0.684800
N7631	N763	0.004310	0.620400	0.697040
C5061	C506	0.045500	0.626790	0.728060
H5061	H506	0.057900	0.635200	0.715100
N7641	N764	0.061780	0.731530	0.893240
N7651	N765	0.063480	0.690460	0.872320
N7661	N766	0.074280	0.711750	0.911650
N7671	N767	0.061230	0.670110	0.851410
C5071	C507	0.039080	0.651890	0.847250
H5071	H507	0.022600	0.651100	0.858200
C5081	C508	0.074900	0.687330	0.898640
H5081	H508	0.082000	0.670500	0.906200
C5091	C509	0.081280	0.664050	0.831330
H5091	H509	0.098700	0.673200	0.829300
C5101	C510	0.007520	0.607690	0.747190
H5101	H510	0.989100	0.600800	0.749700
C5111	C511	0.996660	0.644640	0.683550
H5111	H511	0.999700	0.663000	0.690200
C5121	C512	0.055210	0.718100	0.869910
H5121	H512	0.046300	0.726100	0.854200
N7681	N768	0.018150	0.618560	0.722710
Cu1291	Cu129	0.126690	0.779510	0.587200
Cu1301	Cu130	0.100040	0.807950	0.524570
N7691	N769	0.108460	0.766470	0.527190
N7701	N770	0.120860	0.754520	0.551200
N7711	N771	0.143420	0.815410	0.571930
N7721	N772	0.135910	0.825530	0.544860
N7731	N773	0.108390	0.657990	0.483230
N7741	N774	0.137950	0.659670	0.484270
C5131	C513	0.098200	0.680640	0.495640
H5131	H513	0.079000	0.684800	0.498100
N7751	N775	0.120400	0.697040	0.504310
C5141	C514	0.126790	0.728060	0.545500
H5141	H514	0.135200	0.715100	0.557900
N7761	N776	0.231530	0.893240	0.561780
N7771	N777	0.190460	0.872320	0.563480
N7781	N778	0.211750	0.911650	0.574280
N7791	N779	0.170110	0.851410	0.561230
C5151	C515	0.151890	0.847250	0.539080
H5151	H515	0.151100	0.858200	0.522600
C5161	C516	0.187330	0.898640	0.574900
H5161	H516	0.170500	0.906200	0.582000
C5171	C517	0.164050	0.831330	0.581280
H5171	H517	0.173200	0.829300	0.598700
C5181	C518	0.107690	0.747190	0.507520
H5181	H518	0.100800	0.749700	0.489100
C5191	C519	0.144640	0.683550	0.496660
H5191	H519	0.163000	0.690200	0.499700
C5201	C520	0.218100	0.869910	0.555210
H5201	H520	0.226100	0.854200	0.546300
N7801	N780	0.118560	0.722710	0.518150
Cu1311	Cu131	0.126690	0.279510	0.087200
Cu1321	Cu132	0.100040	0.307950	0.024570
N7811	N781	0.108460	0.266470	0.027190
N7821	N782	0.120860	0.254520	0.051200
N7831	N783	0.143420	0.315410	0.071930
N7841	N784	0.135910	0.325530	0.044860
N7851	N785	0.108390	0.157990	0.983230
N7861	N786	0.137950	0.159670	0.984270
C5211	C521	0.098200	0.180640	0.995640
H5211	H521	0.079000	0.184800	0.998100
N7871	N787	0.120400	0.197040	0.004310
C5221	C522	0.126790	0.228060	0.045500
H5221	H522	0.135200	0.215100	0.057900
N7881	N788	0.231530	0.393240	0.061780
N7891	N789	0.190460	0.372320	0.063480
N7901	N790	0.211750	0.411650	0.074280
N7911	N791	0.170110	0.351410	0.061230
C5231	C523	0.151890	0.347250	0.039080
H5231	H523	0.151100	0.358200	0.022600
C5241	C524	0.187330	0.398640	0.074900
H5241	H524	0.170500	0.406200	0.082000
C5251	C525	0.164050	0.331330	0.081280
H5251	H525	0.173200	0.329300	0.098700
C5261	C526	0.107690	0.247190	0.007520
H5261	H526	0.100800	0.249700	0.989100
C5271	C527	0.144640	0.183550	0.996660
H5271	H527	0.163000	0.190200	0.999700
C5281	C528	0.218100	0.369910	0.055210
H5281	H528	0.226100	0.354200	0.046300
N7921	N792	0.118560	0.222710	0.018150
Cu1331	Cu133	0.626690	0.779510	0.087200
Cu1341	Cu134	0.600040	0.807950	0.024570
N7931	N793	0.608460	0.766470	0.027190
N7941	N794	0.620860	0.754520	0.051200
N7951	N795	0.643420	0.815410	0.071930
N7961	N796	0.635910	0.825530	0.044860
N7971	N797	0.608390	0.657990	0.983230
N7981	N798	0.637950	0.659670	0.984270
C5291	C529	0.598200	0.680640	0.995640
H5291	H529	0.579000	0.684800	0.998100
N7991	N799	0.620400	0.697040	0.004310
C5301	C530	0.626790	0.728060	0.045500
H5301	H530	0.635200	0.715100	0.057900
N8001	N800	0.731530	0.893240	0.061780
N8011	N801	0.690460	0.872320	0.063480
N8021	N802	0.711750	0.911650	0.074280
N8031	N803	0.670110	0.851410	0.061230
C5311	C531	0.651890	0.847250	0.039080
H5311	H531	0.651100	0.858200	0.022600
C5321	C532	0.687330	0.898640	0.074900
H5321	H532	0.670500	0.906200	0.082000
C5331	C533	0.664050	0.831330	0.081280
H5331	H533	0.673200	0.829300	0.098700
C5341	C534	0.607690	0.747190	0.007520
H5341	H534	0.600800	0.749700	0.989100
C5351	C535	0.644640	0.683550	0.996660
H5351	H535	0.663000	0.690200	0.999700
C5361	C536	0.718100	0.869910	0.055210
H5361	H536	0.726100	0.854200	0.046300
N8041	N804	0.618560	0.722710	0.018150
Cu1351	Cu135	0.626690	0.279510	0.587200
Cu1361	Cu136	0.600040	0.307950	0.524570
N8051	N805	0.608460	0.266470	0.527190
N8061	N806	0.620860	0.254520	0.551200
N8071	N807	0.643420	0.315410	0.571930
N8081	N808	0.635910	0.325530	0.544860
N8091	N809	0.608390	0.157990	0.483230
N8101	N810	0.637950	0.159670	0.484270
C5371	C537	0.598200	0.180640	0.495640
H5371	H537	0.579000	0.184800	0.498100
N8111	N811	0.620400	0.197040	0.504310
C5381	C538	0.626790	0.228060	0.545500
H5381	H538	0.635200	0.215100	0.557900
N8121	N812	0.731530	0.393240	0.561780
N8131	N813	0.690460	0.372320	0.563480
N8141	N814	0.711750	0.411650	0.574280
N8151	N815	0.670110	0.351410	0.561230
C5391	C539	0.651890	0.347250	0.539080
H5391	H539	0.651100	0.358200	0.522600
C5401	C540	0.687330	0.398640	0.574900
H5401	H540	0.670500	0.406200	0.582000
C5411	C541	0.664050	0.331330	0.581280
H5411	H541	0.673200	0.329300	0.598700
C5421	C542	0.607690	0.247190	0.507520
H5421	H542	0.600800	0.249700	0.489100
C5431	C543	0.644640	0.183550	0.496660
H5431	H543	0.663000	0.190200	0.499700
C5441	C544	0.718100	0.369910	0.555210
H5441	H544	0.726100	0.354200	0.546300
N8161	N816	0.618560	0.222710	0.518150
Cu1371	Cu137	0.623310	0.279510	0.662800
Cu1381	Cu138	0.649960	0.307950	0.725430
N8171	N817	0.641540	0.266470	0.722810
N8181	N818	0.629140	0.254520	0.698800
N8191	N819	0.606580	0.315410	0.678070
N8201	N820	0.614090	0.325530	0.705140
N8211	N821	0.641610	0.157990	0.766770
N8221	N822	0.612050	0.159670	0.765730
C5451	C545	0.651800	0.180640	0.754360
H5451	H545	0.671000	0.184800	0.751900
N8231	N823	0.629600	0.197040	0.745690
C5461	C546	0.623210	0.228060	0.704500
H5461	H546	0.614800	0.215100	0.692100
N8241	N824	0.518470	0.393240	0.688220
N8251	N825	0.559540	0.372320	0.686520
N8261	N826	0.538250	0.411650	0.675720
N8271	N827	0.579890	0.351410	0.688770
C5471	C547	0.598110	0.347250	0.710920
H5471	H547	0.598900	0.358200	0.727400
C5481	C548	0.562670	0.398640	0.675100
H5481	H548	0.579500	0.406200	0.668000
C5491	C549	0.585950	0.331330	0.668720
H5491	H549	0.576800	0.329300	0.651300
C5501	C550	0.642310	0.247190	0.742480
H5501	H550	0.649200	0.249700	0.760900
C5511	C551	0.605360	0.183550	0.753340
H5511	H551	0.587000	0.190200	0.750300
C5521	C552	0.531900	0.369910	0.694790
H5521	H552	0.523900	0.354200	0.703700
N8281	N828	0.631440	0.222710	0.731850
Cu1391	Cu139	0.623310	0.779510	0.162800
Cu1401	Cu140	0.649960	0.807950	0.225430
N8291	N829	0.641540	0.766470	0.222810
N8301	N830	0.629140	0.754520	0.198800
N8311	N831	0.606580	0.815410	0.178070
N8321	N832	0.614090	0.825530	0.205140
N8331	N833	0.641610	0.657990	0.266770
N8341	N834	0.612050	0.659670	0.265730
C5531	C553	0.651800	0.680640	0.254360
H5531	H553	0.671000	0.684800	0.251900
N8351	N835	0.629600	0.697040	0.245690
C5541	C554	0.623210	0.728060	0.204500
H5541	H554	0.614800	0.715100	0.192100
N8361	N836	0.518470	0.893240	0.188220
N8371	N837	0.559540	0.872320	0.186520
N8381	N838	0.538250	0.911650	0.175720
N8391	N839	0.579890	0.851410	0.188770
C5551	C555	0.598110	0.847250	0.210920
H5551	H555	0.598900	0.858200	0.227400
C5561	C556	0.562670	0.898640	0.175100
H5561	H556	0.579500	0.906200	0.168000
C5571	C557	0.585950	0.831330	0.168720
H5571	H557	0.576800	0.829300	0.151300
C5581	C558	0.642310	0.747190	0.242480
H5581	H558	0.649200	0.749700	0.260900
C5591	C559	0.605360	0.683550	0.253340
H5591	H559	0.587000	0.690200	0.250300
C5601	C560	0.531900	0.869910	0.194790
H5601	H560	0.523900	0.854200	0.203700
N8401	N840	0.631440	0.722710	0.231850
Cu1411	Cu141	0.123310	0.279510	0.162800
Cu1421	Cu142	0.149960	0.307950	0.225430
N8411	N841	0.141540	0.266470	0.222810
N8421	N842	0.129140	0.254520	0.198800
N8431	N843	0.106580	0.315410	0.178070
N8441	N844	0.114090	0.325530	0.205140
N8451	N845	0.141610	0.157990	0.266770
N8461	N846	0.112050	0.159670	0.265730
C5611	C561	0.151800	0.180640	0.254360
H5611	H561	0.171000	0.184800	0.251900
N8471	N847	0.129600	0.197040	0.245690
C5621	C562	0.123210	0.228060	0.204500
H5621	H562	0.114800	0.215100	0.192100
N8481	N848	0.018470	0.393240	0.188220
N8491	N849	0.059540	0.372320	0.186520
N8501	N850	0.038250	0.411650	0.175720
N8511	N851	0.079890	0.351410	0.188770
C5631	C563	0.098110	0.347250	0.210920
H5631	H563	0.098900	0.358200	0.227400
C5641	C564	0.062670	0.398640	0.175100
H5641	H564	0.079500	0.406200	0.168000
C5651	C565	0.085950	0.331330	0.168720
H5651	H565	0.076800	0.329300	0.151300
C5661	C566	0.142310	0.247190	0.242480
H5661	H566	0.149200	0.249700	0.260900
C5671	C567	0.105360	0.183550	0.253340
H5671	H567	0.087000	0.190200	0.250300
C5681	C568	0.031900	0.369910	0.194790
H5681	H568	0.023900	0.354200	0.203700
N8521	N852	0.131440	0.222710	0.231850
Cu1431	Cu143	0.123310	0.779510	0.662800
Cu1441	Cu144	0.149960	0.807950	0.725430
N8531	N853	0.141540	0.766470	0.722810
N8541	N854	0.129140	0.754520	0.698800
N8551	N855	0.106580	0.815410	0.678070
N8561	N856	0.114090	0.825530	0.705140
N8571	N857	0.141610	0.657990	0.766770
N8581	N858	0.112050	0.659670	0.765730
C5691	C569	0.151800	0.680640	0.754360
H5691	H569	0.171000	0.684800	0.751900
N8591	N859	0.129600	0.697040	0.745690
C5701	C570	0.123210	0.728060	0.704500
H5701	H570	0.114800	0.715100	0.692100
N8601	N860	0.018470	0.893240	0.688220
N8611	N861	0.059540	0.872320	0.686520
N8621	N862	0.038250	0.911650	0.675720
N8631	N863	0.079890	0.851410	0.688770
C5711	C571	0.098110	0.847250	0.710920
H5711	H571	0.098900	0.858200	0.727400
C5721	C572	0.062670	0.898640	0.675100
H5721	H572	0.079500	0.906200	0.668000
C5731	C573	0.085950	0.831330	0.668720
H5731	H573	0.076800	0.829300	0.651300
C5741	C574	0.142310	0.747190	0.742480
H5741	H574	0.149200	0.749700	0.760900
C5751	C575	0.105360	0.683550	0.753340
H5751	H575	0.087000	0.690200	0.750300
C5761	C576	0.031900	0.869910	0.694790
H5761	H576	0.023900	0.854200	0.703700
N8641	N864	0.131440	0.722710	0.731850
Cu1451	Cu145	0.123310	0.970500	0.087200
Cu1461	Cu146	0.149960	0.942050	0.024570
N8651	N865	0.141540	0.983530	0.027190
N8661	N866	0.129140	0.995480	0.051200
N8671	N867	0.106580	0.934590	0.071930
N8681	N868	0.114090	0.924470	0.044860
N8691	N869	0.141610	0.092010	0.983230
N8701	N870	0.112050	0.090330	0.984270
C5771	C577	0.151800	0.069360	0.995640
H5771	H577	0.171000	0.065200	0.998100
N8711	N871	0.129600	0.052960	0.004310
C5781	C578	0.123210	0.021940	0.045500
H5781	H578	0.114800	0.034900	0.057900
N8721	N872	0.018470	0.856760	0.061780
N8731	N873	0.059540	0.877680	0.063480
N8741	N874	0.038250	0.838350	0.074280
N8751	N875	0.079890	0.898590	0.061230
C5791	C579	0.098110	0.902750	0.039080
H5791	H579	0.098900	0.891800	0.022600
C5801	C580	0.062670	0.851360	0.074900
H5801	H580	0.079500	0.843800	0.082000
C5811	C581	0.085950	0.918670	0.081280
H5811	H581	0.076800	0.920700	0.098700
C5821	C582	0.142310	0.002810	0.007520
H5821	H582	0.149200	0.000300	0.989100
C5831	C583	0.105360	0.066450	0.996660
H5831	H583	0.087000	0.059800	0.999700
C5841	C584	0.031900	0.880090	0.055210
H5841	H584	0.023900	0.895800	0.046300
N8761	N876	0.131440	0.027290	0.018150
Cu1471	Cu147	0.123310	0.470500	0.587200
Cu1481	Cu148	0.149960	0.442050	0.524570
N8771	N877	0.141540	0.483530	0.527190
N8781	N878	0.129140	0.495480	0.551200
N8791	N879	0.106580	0.434590	0.571930
N8801	N880	0.114090	0.424470	0.544860
N8811	N881	0.141610	0.592010	0.483230
N8821	N882	0.112050	0.590330	0.484270
C5851	C585	0.151800	0.569360	0.495640
H5851	H585	0.171000	0.565200	0.498100
N8831	N883	0.129600	0.552960	0.504310
C5861	C586	0.123210	0.521940	0.545500
H5861	H586	0.114800	0.534900	0.557900
N8841	N884	0.018470	0.356760	0.561780
N8851	N885	0.059540	0.377680	0.563480
N8861	N886	0.038250	0.338350	0.574280
N8871	N887	0.079890	0.398590	0.561230
C5871	C587	0.098110	0.402750	0.539080
H5871	H587	0.098900	0.391800	0.522600
C5881	C588	0.062670	0.351360	0.574900
H5881	H588	0.079500	0.343800	0.582000
C5891	C589	0.085950	0.418670	0.581280
H5891	H589	0.076800	0.420700	0.598700
C5901	C590	0.142310	0.502810	0.507520
H5901	H590	0.149200	0.500300	0.489100
C5911	C591	0.105360	0.566450	0.496660
H5911	H591	0.087000	0.559800	0.499700
C5921	C592	0.031900	0.380090	0.555210
H5921	H592	0.023900	0.395800	0.546300
N8881	N888	0.131440	0.527290	0.518150
Cu1491	Cu149	0.623310	0.970500	0.587200
Cu1501	Cu150	0.649960	0.942050	0.524570
N8891	N889	0.641540	0.983530	0.527190
N8901	N890	0.629140	0.995480	0.551200
N8911	N891	0.606580	0.934590	0.571930
N8921	N892	0.614090	0.924470	0.544860
N8931	N893	0.641610	0.092010	0.483230
N8941	N894	0.612050	0.090330	0.484270
C5931	C593	0.651800	0.069360	0.495640
H5931	H593	0.671000	0.065200	0.498100
N8951	N895	0.629600	0.052960	0.504310
C5941	C594	0.623210	0.021940	0.545500
H5941	H594	0.614800	0.034900	0.557900
N8961	N896	0.518470	0.856760	0.561780
N8971	N897	0.559540	0.877680	0.563480
N8981	N898	0.538250	0.838350	0.574280
N8991	N899	0.579890	0.898590	0.561230
C5951	C595	0.598110	0.902750	0.539080
H5951	H595	0.598900	0.891800	0.522600
C5961	C596	0.562670	0.851360	0.574900
H5961	H596	0.579500	0.843800	0.582000
C5971	C597	0.585950	0.918670	0.581280
H5971	H597	0.576800	0.920700	0.598700
C5981	C598	0.642310	0.002810	0.507520
H5981	H598	0.649200	0.000300	0.489100
C5991	C599	0.605360	0.066450	0.496660
H5991	H599	0.587000	0.059800	0.499700
C6001	C600	0.531900	0.880090	0.555210
H6001	H600	0.523900	0.895800	0.546300
N9001	N900	0.631440	0.027290	0.518150
Cu1511	Cu151	0.623310	0.470500	0.087200
Cu1521	Cu152	0.649960	0.442050	0.024570
N9011	N901	0.641540	0.483530	0.027190
N9021	N902	0.629140	0.495480	0.051200
N9031	N903	0.606580	0.434590	0.071930
N9041	N904	0.614090	0.424470	0.044860
N9051	N905	0.641610	0.592010	0.983230
N9061	N906	0.612050	0.590330	0.984270
C6011	C601	0.651800	0.569360	0.995640
H6011	H601	0.671000	0.565200	0.998100
N9071	N907	0.629600	0.552960	0.004310
C6021	C602	0.623210	0.521940	0.045500
H6021	H602	0.614800	0.534900	0.057900
N9081	N908	0.518470	0.356760	0.061780
N9091	N909	0.559540	0.377680	0.063480
N9101	N910	0.538250	0.338350	0.074280
N9111	N911	0.579890	0.398590	0.061230
C6031	C603	0.598110	0.402750	0.039080
H6031	H603	0.598900	0.391800	0.022600
C6041	C604	0.562670	0.351360	0.074900
H6041	H604	0.579500	0.343800	0.082000
C6051	C605	0.585950	0.418670	0.081280
H6051	H605	0.576800	0.420700	0.098700
C6061	C606	0.642310	0.502810	0.007520
H6061	H606	0.649200	0.500300	0.989100
C6071	C607	0.605360	0.566450	0.996660
H6071	H607	0.587000	0.559800	0.999700
C6081	C608	0.531900	0.380090	0.055210
H6081	H608	0.523900	0.395800	0.046300
N9121	N912	0.631440	0.527290	0.018150
Cu1531	Cu153	0.626690	0.470500	0.162800
Cu1541	Cu154	0.600040	0.442050	0.225430
N9131	N913	0.608460	0.483530	0.222810
N9141	N914	0.620860	0.495480	0.198800
N9151	N915	0.643420	0.434590	0.178070
N9161	N916	0.635910	0.424470	0.205140
N9171	N917	0.608390	0.592010	0.266770
N9181	N918	0.637950	0.590330	0.265730
C6091	C609	0.598200	0.569360	0.254360
H6091	H609	0.579000	0.565200	0.251900
N9191	N919	0.620400	0.552960	0.245690
C6101	C610	0.626790	0.521940	0.204500
H6101	H610	0.635200	0.534900	0.192100
N9201	N920	0.731530	0.356760	0.188220
N9211	N921	0.690460	0.377680	0.186520
N9221	N922	0.711750	0.338350	0.175720
N9231	N923	0.670110	0.398590	0.188770
C6111	C611	0.651890	0.402750	0.210920
H6111	H611	0.651100	0.391800	0.227400
C6121	C612	0.687330	0.351360	0.175100
H6121	H612	0.670500	0.343800	0.168000
C6131	C613	0.664050	0.418670	0.168720
H6131	H613	0.673200	0.420700	0.151300
C6141	C614	0.607690	0.502810	0.242480
H6141	H614	0.600800	0.500300	0.260900
C6151	C615	0.644640	0.566450	0.253340
H6151	H615	0.663000	0.559800	0.250300
C6161	C616	0.718100	0.380090	0.194790
H6161	H616	0.726100	0.395800	0.203700
N9241	N924	0.618560	0.527290	0.231850
Cu1551	Cu155	0.626690	0.970500	0.662800
Cu1561	Cu156	0.600040	0.942050	0.725430
N9251	N925	0.608460	0.983530	0.722810
N9261	N926	0.620860	0.995480	0.698800
N9271	N927	0.643420	0.934590	0.678070
N9281	N928	0.635910	0.924470	0.705140
N9291	N929	0.608390	0.092010	0.766770
N9301	N930	0.637950	0.090330	0.765730
C6171	C617	0.598200	0.069360	0.754360
H6171	H617	0.579000	0.065200	0.751900
N9311	N931	0.620400	0.052960	0.745690
C6181	C618	0.626790	0.021940	0.704500
H6181	H618	0.635200	0.034900	0.692100
N9321	N932	0.731530	0.856760	0.688220
N9331	N933	0.690460	0.877680	0.686520
N9341	N934	0.711750	0.838350	0.675720
N9351	N935	0.670110	0.898590	0.688770
C6191	C619	0.651890	0.902750	0.710920
H6191	H619	0.651100	0.891800	0.727400
C6201	C620	0.687330	0.851360	0.675100
H6201	H620	0.670500	0.843800	0.668000
C6211	C621	0.664050	0.918670	0.668720
H6211	H621	0.673200	0.920700	0.651300
C6221	C622	0.607690	0.002810	0.742480
H6221	H622	0.600800	0.000300	0.760900
C6231	C623	0.644640	0.066450	0.753340
H6231	H623	0.663000	0.059800	0.750300
C6241	C624	0.718100	0.880090	0.694790
H6241	H624	0.726100	0.895800	0.703700
N9361	N936	0.618560	0.027290	0.731850
Cu1571	Cu157	0.126690	0.470500	0.662800
Cu1581	Cu158	0.100040	0.442050	0.725430
N9371	N937	0.108460	0.483530	0.722810
N9381	N938	0.120860	0.495480	0.698800
N9391	N939	0.143420	0.434590	0.678070
N9401	N940	0.135910	0.424470	0.705140
N9411	N941	0.108390	0.592010	0.766770
N9421	N942	0.137950	0.590330	0.765730
C6251	C625	0.098200	0.569360	0.754360
H6251	H625	0.079000	0.565200	0.751900
N9431	N943	0.120400	0.552960	0.745690
C6261	C626	0.126790	0.521940	0.704500
H6261	H626	0.135200	0.534900	0.692100
N9441	N944	0.231530	0.356760	0.688220
N9451	N945	0.190460	0.377680	0.686520
N9461	N946	0.211750	0.338350	0.675720
N9471	N947	0.170110	0.398590	0.688770
C6271	C627	0.151890	0.402750	0.710920
H6271	H627	0.151100	0.391800	0.727400
C6281	C628	0.187330	0.351360	0.675100
H6281	H628	0.170500	0.343800	0.668000
C6291	C629	0.164050	0.418670	0.668720
H6291	H629	0.173200	0.420700	0.651300
C6301	C630	0.107690	0.502810	0.742480
H6301	H630	0.100800	0.500300	0.760900
C6311	C631	0.144640	0.566450	0.753340
H6311	H631	0.163000	0.559800	0.750300
C6321	C632	0.218100	0.380090	0.694790
H6321	H632	0.226100	0.395800	0.703700
N9481	N948	0.118560	0.527290	0.731850
Cu1591	Cu159	0.126690	0.970500	0.162800
Cu1601	Cu160	0.100040	0.942050	0.225430
N9491	N949	0.108460	0.983530	0.222810
N9501	N950	0.120860	0.995480	0.198800
N9511	N951	0.143420	0.934590	0.178070
N9521	N952	0.135910	0.924470	0.205140
N9531	N953	0.108390	0.092010	0.266770
N9541	N954	0.137950	0.090330	0.265730
C6331	C633	0.098200	0.069360	0.254360
H6331	H633	0.079000	0.065200	0.251900
N9551	N955	0.120400	0.052960	0.245690
C6341	C634	0.126790	0.021940	0.204500
H6341	H634	0.135200	0.034900	0.192100
N9561	N956	0.231530	0.856760	0.188220
N9571	N957	0.190460	0.877680	0.186520
N9581	N958	0.211750	0.838350	0.175720
N9591	N959	0.170110	0.898590	0.188770
C6351	C635	0.151890	0.902750	0.210920
H6351	H635	0.151100	0.891800	0.227400
C6361	C636	0.187330	0.851360	0.175100
H6361	H636	0.170500	0.843800	0.168000
C6371	C637	0.164050	0.918670	0.168720
H6371	H637	0.173200	0.920700	0.151300
C6381	C638	0.107690	0.002810	0.242480
H6381	H638	0.100800	0.000300	0.260900
C6391	C639	0.144640	0.066450	0.253340
H6391	H639	0.163000	0.059800	0.250300
C6401	C640	0.218100	0.880090	0.194790
H6401	H640	0.226100	0.895800	0.203700
N9601	N960	0.118560	0.027290	0.231850
Cu1611	Cu161	0.279510	0.662800	0.623310
Cu1621	Cu162	0.307950	0.725430	0.649960
N9611	N961	0.266470	0.722810	0.641540
N9621	N962	0.254520	0.698800	0.629140
N9631	N963	0.315410	0.678070	0.606580
N9641	N964	0.325530	0.705140	0.614090
N9651	N965	0.157990	0.766770	0.641610
N9661	N966	0.159670	0.765730	0.612050
C6411	C641	0.180640	0.754360	0.651800
H6411	H641	0.184800	0.751900	0.671000
N9671	N967	0.197040	0.745690	0.629600
C6421	C642	0.228060	0.704500	0.623210
H6421	H642	0.215100	0.692100	0.614800
N9681	N968	0.393240	0.688220	0.518470
N9691	N969	0.372320	0.686520	0.559540
N9701	N970	0.411650	0.675720	0.538250
N9711	N971	0.351410	0.688770	0.579890
C6431	C643	0.347250	0.710920	0.598110
H6431	H643	0.358200	0.727400	0.598900
C6441	C644	0.398640	0.675100	0.562670
H6441	H644	0.406200	0.668000	0.579500
C6451	C645	0.331330	0.668720	0.585950
H6451	H645	0.329300	0.651300	0.576800
C6461	C646	0.247190	0.742480	0.642310
H6461	H646	0.249700	0.760900	0.649200
C6471	C647	0.183550	0.753340	0.605360
H6471	H647	0.190200	0.750300	0.587000
C6481	C648	0.369910	0.694790	0.531900
H6481	H648	0.354200	0.703700	0.523900
N9721	N972	0.222710	0.731850	0.631440
Cu1631	Cu163	0.279510	0.162800	0.123310
Cu1641	Cu164	0.307950	0.225430	0.149960
N9731	N973	0.266470	0.222810	0.141540
N9741	N974	0.254520	0.198800	0.129140
N9751	N975	0.315410	0.178070	0.106580
N9761	N976	0.325530	0.205140	0.114090
N9771	N977	0.157990	0.266770	0.141610
N9781	N978	0.159670	0.265730	0.112050
C6491	C649	0.180640	0.254360	0.151800
H6491	H649	0.184800	0.251900	0.171000
N9791	N979	0.197040	0.245690	0.129600
C6501	C650	0.228060	0.204500	0.123210
H6501	H650	0.215100	0.192100	0.114800
N9801	N980	0.393240	0.188220	0.018470
N9811	N981	0.372320	0.186520	0.059540
N9821	N982	0.411650	0.175720	0.038250
N9831	N983	0.351410	0.188770	0.079890
C6511	C651	0.347250	0.210920	0.098110
H6511	H651	0.358200	0.227400	0.098900
C6521	C652	0.398640	0.175100	0.062670
H6521	H652	0.406200	0.168000	0.079500
C6531	C653	0.331330	0.168720	0.085950
H6531	H653	0.329300	0.151300	0.076800
C6541	C654	0.247190	0.242480	0.142310
H6541	H654	0.249700	0.260900	0.149200
C6551	C655	0.183550	0.253340	0.105360
H6551	H655	0.190200	0.250300	0.087000
C6561	C656	0.369910	0.194790	0.031900
H6561	H656	0.354200	0.203700	0.023900
N9841	N984	0.222710	0.231850	0.131440
Cu1651	Cu165	0.779510	0.662800	0.123310
Cu1661	Cu166	0.807950	0.725430	0.149960
N9851	N985	0.766470	0.722810	0.141540
N9861	N986	0.754520	0.698800	0.129140
N9871	N987	0.815410	0.678070	0.106580
N9881	N988	0.825530	0.705140	0.114090
N9891	N989	0.657990	0.766770	0.141610
N9901	N990	0.659670	0.765730	0.112050
C6571	C657	0.680640	0.754360	0.151800
H6571	H657	0.684800	0.751900	0.171000
N9911	N991	0.697040	0.745690	0.129600
C6581	C658	0.728060	0.704500	0.123210
H6581	H658	0.715100	0.692100	0.114800
N9921	N992	0.893240	0.688220	0.018470
N9931	N993	0.872320	0.686520	0.059540
N9941	N994	0.911650	0.675720	0.038250
N9951	N995	0.851410	0.688770	0.079890
C6591	C659	0.847250	0.710920	0.098110
H6591	H659	0.858200	0.727400	0.098900
C6601	C660	0.898640	0.675100	0.062670
H6601	H660	0.906200	0.668000	0.079500
C6611	C661	0.831330	0.668720	0.085950
H6611	H661	0.829300	0.651300	0.076800
C6621	C662	0.747190	0.742480	0.142310
H6621	H662	0.749700	0.760900	0.149200
C6631	C663	0.683550	0.753340	0.105360
H6631	H663	0.690200	0.750300	0.087000
C6641	C664	0.869910	0.694790	0.031900
H6641	H664	0.854200	0.703700	0.023900
N9961	N996	0.722710	0.731850	0.131440
Cu1671	Cu167	0.779510	0.162800	0.623310
Cu1681	Cu168	0.807950	0.225430	0.649960
N9971	N997	0.766470	0.222810	0.641540
N9981	N998	0.754520	0.198800	0.629140
N9991	N999	0.815410	0.178070	0.606580
N10001	N1000	0.825530	0.205140	0.614090
N10011	N1001	0.657990	0.266770	0.641610
N10021	N1002	0.659670	0.265730	0.612050
C6651	C665	0.680640	0.254360	0.651800
H6651	H665	0.684800	0.251900	0.671000
N10031	N1003	0.697040	0.245690	0.629600
C6661	C666	0.728060	0.204500	0.623210
H6661	H666	0.715100	0.192100	0.614800
N10041	N1004	0.893240	0.188220	0.518470
N10051	N1005	0.872320	0.186520	0.559540
N10061	N1006	0.911650	0.175720	0.538250
N10071	N1007	0.851410	0.188770	0.579890
C6671	C667	0.847250	0.210920	0.598110
H6671	H667	0.858200	0.227400	0.598900
C6681	C668	0.898640	0.175100	0.562670
H6681	H668	0.906200	0.168000	0.579500
C6691	C669	0.831330	0.168720	0.585950
H6691	H669	0.829300	0.151300	0.576800
C6701	C670	0.747190	0.242480	0.642310
H6701	H670	0.749700	0.260900	0.649200
C6711	C671	0.683550	0.253340	0.605360
H6711	H671	0.690200	0.250300	0.587000
C6721	C672	0.869910	0.194790	0.531900
H6721	H672	0.854200	0.203700	0.523900
N10081	N1008	0.722710	0.231850	0.631440
Cu1691	Cu169	0.779510	0.587200	0.126690
Cu1701	Cu170	0.807950	0.524570	0.100040
N10091	N1009	0.766470	0.527190	0.108460
N10101	N1010	0.754520	0.551200	0.120860
N10111	N1011	0.815410	0.571930	0.143420
N10121	N1012	0.825530	0.544860	0.135910
N10131	N1013	0.657990	0.483230	0.108390
N10141	N1014	0.659670	0.484270	0.137950
C6731	C673	0.680640	0.495640	0.098200
H6731	H673	0.684800	0.498100	0.079000
N10151	N1015	0.697040	0.504310	0.120400
C6741	C674	0.728060	0.545500	0.126790
H6741	H674	0.715100	0.557900	0.135200
N10161	N1016	0.893240	0.561780	0.231530
N10171	N1017	0.872320	0.563480	0.190460
N10181	N1018	0.911650	0.574280	0.211750
N10191	N1019	0.851410	0.561230	0.170110
C6751	C675	0.847250	0.539080	0.151890
H6751	H675	0.858200	0.522600	0.151100
C6761	C676	0.898640	0.574900	0.187330
H6761	H676	0.906200	0.582000	0.170500
C6771	C677	0.831330	0.581280	0.164050
H6771	H677	0.829300	0.598700	0.173200
C6781	C678	0.747190	0.507520	0.107690
H6781	H678	0.749700	0.489100	0.100800
C6791	C679	0.683550	0.496660	0.144640
H6791	H679	0.690200	0.499700	0.163000
C6801	C680	0.869910	0.555210	0.218100
H6801	H680	0.854200	0.546300	0.226100
N10201	N1020	0.722710	0.518150	0.118560
Cu1711	Cu171	0.779510	0.087200	0.626690
Cu1721	Cu172	0.807950	0.024570	0.600040
N10211	N1021	0.766470	0.027190	0.608460
N10221	N1022	0.754520	0.051200	0.620860
N10231	N1023	0.815410	0.071930	0.643420
N10241	N1024	0.825530	0.044860	0.635910
N10251	N1025	0.657990	0.983230	0.608390
N10261	N1026	0.659670	0.984270	0.637950
C6811	C681	0.680640	0.995640	0.598200
H6811	H681	0.684800	0.998100	0.579000
N10271	N1027	0.697040	0.004310	0.620400
C6821	C682	0.728060	0.045500	0.626790
H6821	H682	0.715100	0.057900	0.635200
N10281	N1028	0.893240	0.061780	0.731530
N10291	N1029	0.872320	0.063480	0.690460
N10301	N1030	0.911650	0.074280	0.711750
N10311	N1031	0.851410	0.061230	0.670110
C6831	C683	0.847250	0.039080	0.651890
H6831	H683	0.858200	0.022600	0.651100
C6841	C684	0.898640	0.074900	0.687330
H6841	H684	0.906200	0.082000	0.670500
C6851	C685	0.831330	0.081280	0.664050
H6851	H685	0.829300	0.098700	0.673200
C6861	C686	0.747190	0.007520	0.607690
H6861	H686	0.749700	0.989100	0.600800
C6871	C687	0.683550	0.996660	0.644640
H6871	H687	0.690200	0.999700	0.663000
C6881	C688	0.869910	0.055210	0.718100
H6881	H688	0.854200	0.046300	0.726100
N10321	N1032	0.722710	0.018150	0.618560
Cu1731	Cu173	0.279510	0.587200	0.626690
Cu1741	Cu174	0.307950	0.524570	0.600040
N10331	N1033	0.266470	0.527190	0.608460
N10341	N1034	0.254520	0.551200	0.620860
N10351	N1035	0.315410	0.571930	0.643420
N10361	N1036	0.325530	0.544860	0.635910
N10371	N1037	0.157990	0.483230	0.608390
N10381	N1038	0.159670	0.484270	0.637950
C6891	C689	0.180640	0.495640	0.598200
H6891	H689	0.184800	0.498100	0.579000
N10391	N1039	0.197040	0.504310	0.620400
C6901	C690	0.228060	0.545500	0.626790
H6901	H690	0.215100	0.557900	0.635200
N10401	N1040	0.393240	0.561780	0.731530
N10411	N1041	0.372320	0.563480	0.690460
N10421	N1042	0.411650	0.574280	0.711750
N10431	N1043	0.351410	0.561230	0.670110
C6911	C691	0.347250	0.539080	0.651890
H6911	H691	0.358200	0.522600	0.651100
C6921	C692	0.398640	0.574900	0.687330
H6921	H692	0.406200	0.582000	0.670500
C6931	C693	0.331330	0.581280	0.664050
H6931	H693	0.329300	0.598700	0.673200
C6941	C694	0.247190	0.507520	0.607690
H6941	H694	0.249700	0.489100	0.600800
C6951	C695	0.183550	0.496660	0.644640
H6951	H695	0.190200	0.499700	0.663000
C6961	C696	0.369910	0.555210	0.718100
H6961	H696	0.354200	0.546300	0.726100
N10441	N1044	0.222710	0.518150	0.618560
Cu1751	Cu175	0.279510	0.087200	0.126690
Cu1761	Cu176	0.307950	0.024570	0.100040
N10451	N1045	0.266470	0.027190	0.108460
N10461	N1046	0.254520	0.051200	0.120860
N10471	N1047	0.315410	0.071930	0.143420
N10481	N1048	0.325530	0.044860	0.135910
N10491	N1049	0.157990	0.983230	0.108390
N10501	N1050	0.159670	0.984270	0.137950
C6971	C697	0.180640	0.995640	0.098200
H6971	H697	0.184800	0.998100	0.079000
N10511	N1051	0.197040	0.004310	0.120400
C6981	C698	0.228060	0.045500	0.126790
H6981	H698	0.215100	0.057900	0.135200
N10521	N1052	0.393240	0.061780	0.231530
N10531	N1053	0.372320	0.063480	0.190460
N10541	N1054	0.411650	0.074280	0.211750
N10551	N1055	0.351410	0.061230	0.170110
C6991	C699	0.347250	0.039080	0.151890
H6991	H699	0.358200	0.022600	0.151100
C7001	C700	0.398640	0.074900	0.187330
H7001	H700	0.406200	0.082000	0.170500
C7011	C701	0.331330	0.081280	0.164050
H7011	H701	0.329300	0.098700	0.173200
C7021	C702	0.247190	0.007520	0.107690
H7021	H702	0.249700	0.989100	0.100800
C7031	C703	0.183550	0.996660	0.144640
H7031	H703	0.190200	0.999700	0.163000
C7041	C704	0.369910	0.055210	0.218100
H7041	H704	0.354200	0.046300	0.226100
N10561	N1056	0.222710	0.018150	0.118560
Cu1771	Cu177	0.470500	0.162800	0.626690
Cu1781	Cu178	0.442050	0.225430	0.600040
N10571	N1057	0.483530	0.222810	0.608460
N10581	N1058	0.495480	0.198800	0.620860
N10591	N1059	0.434590	0.178070	0.643420
N10601	N1060	0.424470	0.205140	0.635910
N10611	N1061	0.592010	0.266770	0.608390
N10621	N1062	0.590330	0.265730	0.637950
C7051	C705	0.569360	0.254360	0.598200
H7051	H705	0.565200	0.251900	0.579000
N10631	N1063	0.552960	0.245690	0.620400
C7061	C706	0.521940	0.204500	0.626790
H7061	H706	0.534900	0.192100	0.635200
N10641	N1064	0.356760	0.188220	0.731530
N10651	N1065	0.377680	0.186520	0.690460
N10661	N1066	0.338350	0.175720	0.711750
N10671	N1067	0.398590	0.188770	0.670110
C7071	C707	0.402750	0.210920	0.651890
H7071	H707	0.391800	0.227400	0.651100
C7081	C708	0.351360	0.175100	0.687330
H7081	H708	0.343800	0.168000	0.670500
C7091	C709	0.418670	0.168720	0.664050
H7091	H709	0.420700	0.151300	0.673200
C7101	C710	0.502810	0.242480	0.607690
H7101	H710	0.500300	0.260900	0.600800
C7111	C711	0.566450	0.253340	0.644640
H7111	H711	0.559800	0.250300	0.663000
C7121	C712	0.380090	0.194790	0.718100
H7121	H712	0.395800	0.203700	0.726100
N10681	N1068	0.527290	0.231850	0.618560
Cu1791	Cu179	0.470500	0.662800	0.126690
Cu1801	Cu180	0.442050	0.725430	0.100040
N10691	N1069	0.483530	0.722810	0.108460
N10701	N1070	0.495480	0.698800	0.120860
N10711	N1071	0.434590	0.678070	0.143420
N10721	N1072	0.424470	0.705140	0.135910
N10731	N1073	0.592010	0.766770	0.108390
N10741	N1074	0.590330	0.765730	0.137950
C7131	C713	0.569360	0.754360	0.098200
H7131	H713	0.565200	0.751900	0.079000
N10751	N1075	0.552960	0.745690	0.120400
C7141	C714	0.521940	0.704500	0.126790
H7141	H714	0.534900	0.692100	0.135200
N10761	N1076	0.356760	0.688220	0.231530
N10771	N1077	0.377680	0.686520	0.190460
N10781	N1078	0.338350	0.675720	0.211750
N10791	N1079	0.398590	0.688770	0.170110
C7151	C715	0.402750	0.710920	0.151890
H7151	H715	0.391800	0.727400	0.151100
C7161	C716	0.351360	0.675100	0.187330
H7161	H716	0.343800	0.668000	0.170500
C7171	C717	0.418670	0.668720	0.164050
H7171	H717	0.420700	0.651300	0.173200
C7181	C718	0.502810	0.742480	0.107690
H7181	H718	0.500300	0.760900	0.100800
C7191	C719	0.566450	0.753340	0.144640
H7191	H719	0.559800	0.750300	0.163000
C7201	C720	0.380090	0.694790	0.218100
H7201	H720	0.395800	0.703700	0.226100
N10801	N1080	0.527290	0.731850	0.118560
Cu1811	Cu181	0.970500	0.162800	0.126690
Cu1821	Cu182	0.942050	0.225430	0.100040
N10811	N1081	0.983530	0.222810	0.108460
N10821	N1082	0.995480	0.198800	0.120860
N10831	N1083	0.934590	0.178070	0.143420
N10841	N1084	0.924470	0.205140	0.135910
N10851	N1085	0.092010	0.266770	0.108390
N10861	N1086	0.090330	0.265730	0.137950
C7211	C721	0.069360	0.254360	0.098200
H7211	H721	0.065200	0.251900	0.079000
N10871	N1087	0.052960	0.245690	0.120400
C7221	C722	0.021940	0.204500	0.126790
H7221	H722	0.034900	0.192100	0.135200
N10881	N1088	0.856760	0.188220	0.231530
N10891	N1089	0.877680	0.186520	0.190460
N10901	N1090	0.838350	0.175720	0.211750
N10911	N1091	0.898590	0.188770	0.170110
C7231	C723	0.902750	0.210920	0.151890
H7231	H723	0.891800	0.227400	0.151100
C7241	C724	0.851360	0.175100	0.187330
H7241	H724	0.843800	0.168000	0.170500
C7251	C725	0.918670	0.168720	0.164050
H7251	H725	0.920700	0.151300	0.173200
C7261	C726	0.002810	0.242480	0.107690
H7261	H726	0.000300	0.260900	0.100800
C7271	C727	0.066450	0.253340	0.144640
H7271	H727	0.059800	0.250300	0.163000
C7281	C728	0.880090	0.194790	0.218100
H7281	H728	0.895800	0.203700	0.226100
N10921	N1092	0.027290	0.231850	0.118560
Cu1831	Cu183	0.970500	0.662800	0.626690
Cu1841	Cu184	0.942050	0.725430	0.600040
N10931	N1093	0.983530	0.722810	0.608460
N10941	N1094	0.995480	0.698800	0.620860
N10951	N1095	0.934590	0.678070	0.643420
N10961	N1096	0.924470	0.705140	0.635910
N10971	N1097	0.092010	0.766770	0.608390
N10981	N1098	0.090330	0.765730	0.637950
C7291	C729	0.069360	0.754360	0.598200
H7291	H729	0.065200	0.751900	0.579000
N10991	N1099	0.052960	0.745690	0.620400
C7301	C730	0.021940	0.704500	0.626790
H7301	H730	0.034900	0.692100	0.635200
N11001	N1100	0.856760	0.688220	0.731530
N11011	N1101	0.877680	0.686520	0.690460
N11021	N1102	0.838350	0.675720	0.711750
N11031	N1103	0.898590	0.688770	0.670110
C7311	C731	0.902750	0.710920	0.651890
H7311	H731	0.891800	0.727400	0.651100
C7321	C732	0.851360	0.675100	0.687330
H7321	H732	0.843800	0.668000	0.670500
C7331	C733	0.918670	0.668720	0.664050
H7331	H733	0.920700	0.651300	0.673200
C7341	C734	0.002810	0.742480	0.607690
H7341	H734	0.000300	0.760900	0.600800
C7351	C735	0.066450	0.753340	0.644640
H7351	H735	0.059800	0.750300	0.663000
C7361	C736	0.880090	0.694790	0.718100
H7361	H736	0.895800	0.703700	0.726100
N11041	N1104	0.027290	0.731850	0.618560
Cu1851	Cu185	0.970500	0.087200	0.123310
Cu1861	Cu186	0.942050	0.024570	0.149960
N11051	N1105	0.983530	0.027190	0.141540
N11061	N1106	0.995480	0.051200	0.129140
N11071	N1107	0.934590	0.071930	0.106580
N11081	N1108	0.924470	0.044860	0.114090
N11091	N1109	0.092010	0.983230	0.141610
N11101	N1110	0.090330	0.984270	0.112050
C7371	C737	0.069360	0.995640	0.151800
H7371	H737	0.065200	0.998100	0.171000
N11111	N1111	0.052960	0.004310	0.129600
C7381	C738	0.021940	0.045500	0.123210
H7381	H738	0.034900	0.057900	0.114800
N11121	N1112	0.856760	0.061780	0.018470
N11131	N1113	0.877680	0.063480	0.059540
N11141	N1114	0.838350	0.074280	0.038250
N11151	N1115	0.898590	0.061230	0.079890
C7391	C739	0.902750	0.039080	0.098110
H7391	H739	0.891800	0.022600	0.098900
C7401	C740	0.851360	0.074900	0.062670
H7401	H740	0.843800	0.082000	0.079500
C7411	C741	0.918670	0.081280	0.085950
H7411	H741	0.920700	0.098700	0.076800
C7421	C742	0.002810	0.007520	0.142310
H7421	H742	0.000300	0.989100	0.149200
C7431	C743	0.066450	0.996660	0.105360
H7431	H743	0.059800	0.999700	0.087000
C7441	C744	0.880090	0.055210	0.031900
H7441	H744	0.895800	0.046300	0.023900
N11161	N1116	0.027290	0.018150	0.131440
Cu1871	Cu187	0.970500	0.587200	0.623310
Cu1881	Cu188	0.942050	0.524570	0.649960
N11171	N1117	0.983530	0.527190	0.641540
N11181	N1118	0.995480	0.551200	0.629140
N11191	N1119	0.934590	0.571930	0.606580
N11201	N1120	0.924470	0.544860	0.614090
N11211	N1121	0.092010	0.483230	0.641610
N11221	N1122	0.090330	0.484270	0.612050
C7451	C745	0.069360	0.495640	0.651800
H7451	H745	0.065200	0.498100	0.671000
N11231	N1123	0.052960	0.504310	0.629600
C7461	C746	0.021940	0.545500	0.623210
H7461	H746	0.034900	0.557900	0.614800
N11241	N1124	0.856760	0.561780	0.518470
N11251	N1125	0.877680	0.563480	0.559540
N11261	N1126	0.838350	0.574280	0.538250
N11271	N1127	0.898590	0.561230	0.579890
C7471	C747	0.902750	0.539080	0.598110
H7471	H747	0.891800	0.522600	0.598900
C7481	C748	0.851360	0.574900	0.562670
H7481	H748	0.843800	0.582000	0.579500
C7491	C749	0.918670	0.581280	0.585950
H7491	H749	0.920700	0.598700	0.576800
C7501	C750	0.002810	0.507520	0.642310
H7501	H750	0.000300	0.489100	0.649200
C7511	C751	0.066450	0.496660	0.605360
H7511	H751	0.059800	0.499700	0.587000
C7521	C752	0.880090	0.555210	0.531900
H7521	H752	0.895800	0.546300	0.523900
N11281	N1128	0.027290	0.518150	0.631440
Cu1891	Cu189	0.470500	0.087200	0.623310
Cu1901	Cu190	0.442050	0.024570	0.649960
N11291	N1129	0.483530	0.027190	0.641540
N11301	N1130	0.495480	0.051200	0.629140
N11311	N1131	0.434590	0.071930	0.606580
N11321	N1132	0.424470	0.044860	0.614090
N11331	N1133	0.592010	0.983230	0.641610
N11341	N1134	0.590330	0.984270	0.612050
C7531	C753	0.569360	0.995640	0.651800
H7531	H753	0.565200	0.998100	0.671000
N11351	N1135	0.552960	0.004310	0.629600
C7541	C754	0.521940	0.045500	0.623210
H7541	H754	0.534900	0.057900	0.614800
N11361	N1136	0.356760	0.061780	0.518470
N11371	N1137	0.377680	0.063480	0.559540
N11381	N1138	0.338350	0.074280	0.538250
N11391	N1139	0.398590	0.061230	0.579890
C7551	C755	0.402750	0.039080	0.598110
H7551	H755	0.391800	0.022600	0.598900
C7561	C756	0.351360	0.074900	0.562670
H7561	H756	0.343800	0.082000	0.579500
C7571	C757	0.418670	0.081280	0.585950
H7571	H757	0.420700	0.098700	0.576800
C7581	C758	0.502810	0.007520	0.642310
H7581	H758	0.500300	0.989100	0.649200
C7591	C759	0.566450	0.996660	0.605360
H7591	H759	0.559800	0.999700	0.587000
C7601	C760	0.380090	0.055210	0.531900
H7601	H760	0.395800	0.046300	0.523900
N11401	N1140	0.527290	0.018150	0.631440
Cu1911	Cu191	0.470500	0.587200	0.123310
Cu1921	Cu192	0.442050	0.524570	0.149960
N11411	N1141	0.483530	0.527190	0.141540
N11421	N1142	0.495480	0.551200	0.129140
N11431	N1143	0.434590	0.571930	0.106580
N11441	N1144	0.424470	0.544860	0.114090
N11451	N1145	0.592010	0.483230	0.141610
N11461	N1146	0.590330	0.484270	0.112050
C7611	C761	0.569360	0.495640	0.151800
H7611	H761	0.565200	0.498100	0.171000
N11471	N1147	0.552960	0.504310	0.129600
C7621	C762	0.521940	0.545500	0.123210
H7621	H762	0.534900	0.557900	0.114800
N11481	N1148	0.356760	0.561780	0.018470
N11491	N1149	0.377680	0.563480	0.059540
N11501	N1150	0.338350	0.574280	0.038250
N11511	N1151	0.398590	0.561230	0.079890
C7631	C763	0.402750	0.539080	0.098110
H7631	H763	0.391800	0.522600	0.098900
C7641	C764	0.351360	0.574900	0.062670
H7641	H764	0.343800	0.582000	0.079500
C7651	C765	0.418670	0.581280	0.085950
H7651	H765	0.420700	0.598700	0.076800
C7661	C766	0.502810	0.507520	0.142310
H7661	H766	0.500300	0.489100	0.149200
C7671	C767	0.566450	0.496660	0.105360
H7671	H767	0.559800	0.499700	0.087000
C7681	C768	0.380090	0.555210	0.031900
H7681	H768	0.395800	0.546300	0.023900
N11521	N1152	0.527290	0.518150	0.131440
Cu1931	Cu193	0.623310	0.587200	0.470500
Cu1941	Cu194	0.649960	0.524570	0.442050
N11531	N1153	0.641540	0.527190	0.483530
N11541	N1154	0.629140	0.551200	0.495480
N11551	N1155	0.606580	0.571930	0.434590
N11561	N1156	0.614090	0.544860	0.424470
N11571	N1157	0.641610	0.483230	0.592010
N11581	N1158	0.612050	0.484270	0.590330
C7691	C769	0.651800	0.495640	0.569360
H7691	H769	0.671000	0.498100	0.565200
N11591	N1159	0.629600	0.504310	0.552960
C7701	C770	0.623210	0.545500	0.521940
H7701	H770	0.614800	0.557900	0.534900
N11601	N1160	0.518470	0.561780	0.356760
N11611	N1161	0.559540	0.563480	0.377680
N11621	N1162	0.538250	0.574280	0.338350
N11631	N1163	0.579890	0.561230	0.398590
C7711	C771	0.598110	0.539080	0.402750
H7711	H771	0.598900	0.522600	0.391800
C7721	C772	0.562670	0.574900	0.351360
H7721	H772	0.579500	0.582000	0.343800
C7731	C773	0.585950	0.581280	0.418670
H7731	H773	0.576800	0.598700	0.420700
C7741	C774	0.642310	0.507520	0.502810
H7741	H774	0.649200	0.489100	0.500300
C7751	C775	0.605360	0.496660	0.566450
H7751	H775	0.587000	0.499700	0.559800
C7761	C776	0.531900	0.555210	0.380090
H7761	H776	0.523900	0.546300	0.395800
N11641	N1164	0.631440	0.518150	0.527290
Cu1951	Cu195	0.623310	0.087200	0.970500
Cu1961	Cu196	0.649960	0.024570	0.942050
N11651	N1165	0.641540	0.027190	0.983530
N11661	N1166	0.629140	0.051200	0.995480
N11671	N1167	0.606580	0.071930	0.934590
N11681	N1168	0.614090	0.044860	0.924470
N11691	N1169	0.641610	0.983230	0.092010
N11701	N1170	0.612050	0.984270	0.090330
C7771	C777	0.651800	0.995640	0.069360
H7771	H777	0.671000	0.998100	0.065200
N11711	N1171	0.629600	0.004310	0.052960
C7781	C778	0.623210	0.045500	0.021940
H7781	H778	0.614800	0.057900	0.034900
N11721	N1172	0.518470	0.061780	0.856760
N11731	N1173	0.559540	0.063480	0.877680
N11741	N1174	0.538250	0.074280	0.838350
N11751	N1175	0.579890	0.061230	0.898590
C7791	C779	0.598110	0.039080	0.902750
H7791	H779	0.598900	0.022600	0.891800
C7801	C780	0.562670	0.074900	0.851360
H7801	H780	0.579500	0.082000	0.843800
C7811	C781	0.585950	0.081280	0.918670
H7811	H781	0.576800	0.098700	0.920700
C7821	C782	0.642310	0.007520	0.002810
H7821	H782	0.649200	0.989100	0.000300
C7831	C783	0.605360	0.996660	0.066450
H7831	H783	0.587000	0.999700	0.059800
C7841	C784	0.531900	0.055210	0.880090
H7841	H784	0.523900	0.046300	0.895800
N11761	N1176	0.631440	0.018150	0.027290
Cu1971	Cu197	0.123310	0.587200	0.970500
Cu1981	Cu198	0.149960	0.524570	0.942050
N11771	N1177	0.141540	0.527190	0.983530
N11781	N1178	0.129140	0.551200	0.995480
N11791	N1179	0.106580	0.571930	0.934590
N11801	N1180	0.114090	0.544860	0.924470
N11811	N1181	0.141610	0.483230	0.092010
N11821	N1182	0.112050	0.484270	0.090330
C7851	C785	0.151800	0.495640	0.069360
H7851	H785	0.171000	0.498100	0.065200
N11831	N1183	0.129600	0.504310	0.052960
C7861	C786	0.123210	0.545500	0.021940
H7861	H786	0.114800	0.557900	0.034900
N11841	N1184	0.018470	0.561780	0.856760
N11851	N1185	0.059540	0.563480	0.877680
N11861	N1186	0.038250	0.574280	0.838350
N11871	N1187	0.079890	0.561230	0.898590
C7871	C787	0.098110	0.539080	0.902750
H7871	H787	0.098900	0.522600	0.891800
C7881	C788	0.062670	0.574900	0.851360
H7881	H788	0.079500	0.582000	0.843800
C7891	C789	0.085950	0.581280	0.918670
H7891	H789	0.076800	0.598700	0.920700
C7901	C790	0.142310	0.507520	0.002810
H7901	H790	0.149200	0.489100	0.000300
C7911	C791	0.105360	0.496660	0.066450
H7911	H791	0.087000	0.499700	0.059800
C7921	C792	0.031900	0.555210	0.880090
H7921	H792	0.023900	0.546300	0.895800
N11881	N1188	0.131440	0.518150	0.027290
Cu1991	Cu199	0.123310	0.087200	0.470500
Cu2001	Cu200	0.149960	0.024570	0.442050
N11891	N1189	0.141540	0.027190	0.483530
N11901	N1190	0.129140	0.051200	0.495480
N11911	N1191	0.106580	0.071930	0.434590
N11921	N1192	0.114090	0.044860	0.424470
N11931	N1193	0.141610	0.983230	0.592010
N11941	N1194	0.112050	0.984270	0.590330
C7931	C793	0.151800	0.995640	0.569360
H7931	H793	0.171000	0.998100	0.565200
N11951	N1195	0.129600	0.004310	0.552960
C7941	C794	0.123210	0.045500	0.521940
H7941	H794	0.114800	0.057900	0.534900
N11961	N1196	0.018470	0.061780	0.356760
N11971	N1197	0.059540	0.063480	0.377680
N11981	N1198	0.038250	0.074280	0.338350
N11991	N1199	0.079890	0.061230	0.398590
C7951	C795	0.098110	0.039080	0.402750
H7951	H795	0.098900	0.022600	0.391800
C7961	C796	0.062670	0.074900	0.351360
H7961	H796	0.079500	0.082000	0.343800
C7971	C797	0.085950	0.081280	0.418670
H7971	H797	0.076800	0.098700	0.420700
C7981	C798	0.142310	0.007520	0.502810
H7981	H798	0.149200	0.989100	0.500300
C7991	C799	0.105360	0.996660	0.566450
H7991	H799	0.087000	0.999700	0.559800
C8001	C800	0.031900	0.055210	0.380090
H8001	H800	0.023900	0.046300	0.395800
N12001	N1200	0.131440	0.018150	0.527290
Cu2011	Cu201	0.126690	0.662800	0.970500
Cu2021	Cu202	0.100040	0.725430	0.942050
N12011	N1201	0.108460	0.722810	0.983530
N12021	N1202	0.120860	0.698800	0.995480
N12031	N1203	0.143420	0.678070	0.934590
N12041	N1204	0.135910	0.705140	0.924470
N12051	N1205	0.108390	0.766770	0.092010
N12061	N1206	0.137950	0.765730	0.090330
C8011	C801	0.098200	0.754360	0.069360
H8011	H801	0.079000	0.751900	0.065200
N12071	N1207	0.120400	0.745690	0.052960
C8021	C802	0.126790	0.704500	0.021940
H8021	H802	0.135200	0.692100	0.034900
N12081	N1208	0.231530	0.688220	0.856760
N12091	N1209	0.190460	0.686520	0.877680
N12101	N1210	0.211750	0.675720	0.838350
N12111	N1211	0.170110	0.688770	0.898590
C8031	C803	0.151890	0.710920	0.902750
H8031	H803	0.151100	0.727400	0.891800
C8041	C804	0.187330	0.675100	0.851360
H8041	H804	0.170500	0.668000	0.843800
C8051	C805	0.164050	0.668720	0.918670
H8051	H805	0.173200	0.651300	0.920700
C8061	C806	0.107690	0.742480	0.002810
H8061	H806	0.100800	0.760900	0.000300
C8071	C807	0.144640	0.753340	0.066450
H8071	H807	0.163000	0.750300	0.059800
C8081	C808	0.218100	0.694790	0.880090
H8081	H808	0.226100	0.703700	0.895800
N12121	N1212	0.118560	0.731850	0.027290
Cu2031	Cu203	0.126690	0.162800	0.470500
Cu2041	Cu204	0.100040	0.225430	0.442050
N12131	N1213	0.108460	0.222810	0.483530
N12141	N1214	0.120860	0.198800	0.495480
N12151	N1215	0.143420	0.178070	0.434590
N12161	N1216	0.135910	0.205140	0.424470
N12171	N1217	0.108390	0.266770	0.592010
N12181	N1218	0.137950	0.265730	0.590330
C8091	C809	0.098200	0.254360	0.569360
H8091	H809	0.079000	0.251900	0.565200
N12191	N1219	0.120400	0.245690	0.552960
C8101	C810	0.126790	0.204500	0.521940
H8101	H810	0.135200	0.192100	0.534900
N12201	N1220	0.231530	0.188220	0.356760
N12211	N1221	0.190460	0.186520	0.377680
N12221	N1222	0.211750	0.175720	0.338350
N12231	N1223	0.170110	0.188770	0.398590
C8111	C811	0.151890	0.210920	0.402750
H8111	H811	0.151100	0.227400	0.391800
C8121	C812	0.187330	0.175100	0.351360
H8121	H812	0.170500	0.168000	0.343800
C8131	C813	0.164050	0.168720	0.418670
H8131	H813	0.173200	0.151300	0.420700
C8141	C814	0.107690	0.242480	0.502810
H8141	H814	0.100800	0.260900	0.500300
C8151	C815	0.144640	0.253340	0.566450
H8151	H815	0.163000	0.250300	0.559800
C8161	C816	0.218100	0.194790	0.380090
H8161	H816	0.226100	0.203700	0.395800
N12241	N1224	0.118560	0.231850	0.527290
Cu2051	Cu205	0.626690	0.662800	0.470500
Cu2061	Cu206	0.600040	0.725430	0.442050
N12251	N1225	0.608460	0.722810	0.483530
N12261	N1226	0.620860	0.698800	0.495480
N12271	N1227	0.643420	0.678070	0.434590
N12281	N1228	0.635910	0.705140	0.424470
N12291	N1229	0.608390	0.766770	0.592010
N12301	N1230	0.637950	0.765730	0.590330
C8171	C817	0.598200	0.754360	0.569360
H8171	H817	0.579000	0.751900	0.565200
N12311	N1231	0.620400	0.745690	0.552960
C8181	C818	0.626790	0.704500	0.521940
H8181	H818	0.635200	0.692100	0.534900
N12321	N1232	0.731530	0.688220	0.356760
N12331	N1233	0.690460	0.686520	0.377680
N12341	N1234	0.711750	0.675720	0.338350
N12351	N1235	0.670110	0.688770	0.398590
C8191	C819	0.651890	0.710920	0.402750
H8191	H819	0.651100	0.727400	0.391800
C8201	C820	0.687330	0.675100	0.351360
H8201	H820	0.670500	0.668000	0.343800
C8211	C821	0.664050	0.668720	0.418670
H8211	H821	0.673200	0.651300	0.420700
C8221	C822	0.607690	0.742480	0.502810
H8221	H822	0.600800	0.760900	0.500300
C8231	C823	0.644640	0.753340	0.566450
H8231	H823	0.663000	0.750300	0.559800
C8241	C824	0.718100	0.694790	0.380090
H8241	H824	0.726100	0.703700	0.395800
N12361	N1236	0.618560	0.731850	0.527290
Cu2071	Cu207	0.626690	0.162800	0.970500
Cu2081	Cu208	0.600040	0.225430	0.942050
N12371	N1237	0.608460	0.222810	0.983530
N12381	N1238	0.620860	0.198800	0.995480
N12391	N1239	0.643420	0.178070	0.934590
N12401	N1240	0.635910	0.205140	0.924470
N12411	N1241	0.608390	0.266770	0.092010
N12421	N1242	0.637950	0.265730	0.090330
C8251	C825	0.598200	0.254360	0.069360
H8251	H825	0.579000	0.251900	0.065200
N12431	N1243	0.620400	0.245690	0.052960
C8261	C826	0.626790	0.204500	0.021940
H8261	H826	0.635200	0.192100	0.034900
N12441	N1244	0.731530	0.188220	0.856760
N12451	N1245	0.690460	0.186520	0.877680
N12461	N1246	0.711750	0.175720	0.838350
N12471	N1247	0.670110	0.188770	0.898590
C8271	C827	0.651890	0.210920	0.902750
H8271	H827	0.651100	0.227400	0.891800
C8281	C828	0.687330	0.175100	0.851360
H8281	H828	0.670500	0.168000	0.843800
C8291	C829	0.664050	0.168720	0.918670
H8291	H829	0.673200	0.151300	0.920700
C8301	C830	0.607690	0.242480	0.002810
H8301	H830	0.600800	0.260900	0.000300
C8311	C831	0.644640	0.253340	0.066450
H8311	H831	0.663000	0.250300	0.059800
C8321	C832	0.718100	0.194790	0.880090
H8321	H832	0.726100	0.203700	0.895800
N12481	N1248	0.618560	0.231850	0.027290
Cu2091	Cu209	0.626690	0.087200	0.279510
Cu2101	Cu210	0.600040	0.024570	0.307950
N12491	N1249	0.608460	0.027190	0.266470
N12501	N1250	0.620860	0.051200	0.254520
N12511	N1251	0.643420	0.071930	0.315410
N12521	N1252	0.635910	0.044860	0.325530
N12531	N1253	0.608390	0.983230	0.157990
N12541	N1254	0.637950	0.984270	0.159670
C8331	C833	0.598200	0.995640	0.180640
H8331	H833	0.579000	0.998100	0.184800
N12551	N1255	0.620400	0.004310	0.197040
C8341	C834	0.626790	0.045500	0.228060
H8341	H834	0.635200	0.057900	0.215100
N12561	N1256	0.731530	0.061780	0.393240
N12571	N1257	0.690460	0.063480	0.372320
N12581	N1258	0.711750	0.074280	0.411650
N12591	N1259	0.670110	0.061230	0.351410
C8351	C835	0.651890	0.039080	0.347250
H8351	H835	0.651100	0.022600	0.358200
C8361	C836	0.687330	0.074900	0.398640
H8361	H836	0.670500	0.082000	0.406200
C8371	C837	0.664050	0.081280	0.331330
H8371	H837	0.673200	0.098700	0.329300
C8381	C838	0.607690	0.007520	0.247190
H8381	H838	0.600800	0.989100	0.249700
C8391	C839	0.644640	0.996660	0.183550
H8391	H839	0.663000	0.999700	0.190200
C8401	C840	0.718100	0.055210	0.369910
H8401	H840	0.726100	0.046300	0.354200
N12601	N1260	0.618560	0.018150	0.222710
Cu2111	Cu211	0.626690	0.587200	0.779510
Cu2121	Cu212	0.600040	0.524570	0.807950
N12611	N1261	0.608460	0.527190	0.766470
N12621	N1262	0.620860	0.551200	0.754520
N12631	N1263	0.643420	0.571930	0.815410
N12641	N1264	0.635910	0.544860	0.825530
N12651	N1265	0.608390	0.483230	0.657990
N12661	N1266	0.637950	0.484270	0.659670
C8411	C841	0.598200	0.495640	0.680640
H8411	H841	0.579000	0.498100	0.684800
N12671	N1267	0.620400	0.504310	0.697040
C8421	C842	0.626790	0.545500	0.728060
H8421	H842	0.635200	0.557900	0.715100
N12681	N1268	0.731530	0.561780	0.893240
N12691	N1269	0.690460	0.563480	0.872320
N12701	N1270	0.711750	0.574280	0.911650
N12711	N1271	0.670110	0.561230	0.851410
C8431	C843	0.651890	0.539080	0.847250
H8431	H843	0.651100	0.522600	0.858200
C8441	C844	0.687330	0.574900	0.898640
H8441	H844	0.670500	0.582000	0.906200
C8451	C845	0.664050	0.581280	0.831330
H8451	H845	0.673200	0.598700	0.829300
C8461	C846	0.607690	0.507520	0.747190
H8461	H846	0.600800	0.489100	0.749700
C8471	C847	0.644640	0.496660	0.683550
H8471	H847	0.663000	0.499700	0.690200
C8481	C848	0.718100	0.555210	0.869910
H8481	H848	0.726100	0.546300	0.854200
N12721	N1272	0.618560	0.518150	0.722710
Cu2131	Cu213	0.126690	0.087200	0.779510
Cu2141	Cu214	0.100040	0.024570	0.807950
N12731	N1273	0.108460	0.027190	0.766470
N12741	N1274	0.120860	0.051200	0.754520
N12751	N1275	0.143420	0.071930	0.815410
N12761	N1276	0.135910	0.044860	0.825530
N12771	N1277	0.108390	0.983230	0.657990
N12781	N1278	0.137950	0.984270	0.659670
C8491	C849	0.098200	0.995640	0.680640
H8491	H849	0.079000	0.998100	0.684800
N12791	N1279	0.120400	0.004310	0.697040
C8501	C850	0.126790	0.045500	0.728060
H8501	H850	0.135200	0.057900	0.715100
N12801	N1280	0.231530	0.061780	0.893240
N12811	N1281	0.190460	0.063480	0.872320
N12821	N1282	0.211750	0.074280	0.911650
N12831	N1283	0.170110	0.061230	0.851410
C8511	C851	0.151890	0.039080	0.847250
H8511	H851	0.151100	0.022600	0.858200
C8521	C852	0.187330	0.074900	0.898640
H8521	H852	0.170500	0.082000	0.906200
C8531	C853	0.164050	0.081280	0.831330
H8531	H853	0.173200	0.098700	0.829300
C8541	C854	0.107690	0.007520	0.747190
H8541	H854	0.100800	0.989100	0.749700
C8551	C855	0.144640	0.996660	0.683550
H8551	H855	0.163000	0.999700	0.690200
C8561	C856	0.218100	0.055210	0.869910
H8561	H856	0.226100	0.046300	0.854200
N12841	N1284	0.118560	0.018150	0.722710
Cu2151	Cu215	0.126690	0.587200	0.279510
Cu2161	Cu216	0.100040	0.524570	0.307950
N12851	N1285	0.108460	0.527190	0.266470
N12861	N1286	0.120860	0.551200	0.254520
N12871	N1287	0.143420	0.571930	0.315410
N12881	N1288	0.135910	0.544860	0.325530
N12891	N1289	0.108390	0.483230	0.157990
N12901	N1290	0.137950	0.484270	0.159670
C8571	C857	0.098200	0.495640	0.180640
H8571	H857	0.079000	0.498100	0.184800
N12911	N1291	0.120400	0.504310	0.197040
C8581	C858	0.126790	0.545500	0.228060
H8581	H858	0.135200	0.557900	0.215100
N12921	N1292	0.231530	0.561780	0.393240
N12931	N1293	0.190460	0.563480	0.372320
N12941	N1294	0.211750	0.574280	0.411650
N12951	N1295	0.170110	0.561230	0.351410
C8591	C859	0.151890	0.539080	0.347250
H8591	H859	0.151100	0.522600	0.358200
C8601	C860	0.187330	0.574900	0.398640
H8601	H860	0.170500	0.582000	0.406200
C8611	C861	0.164050	0.581280	0.331330
H8611	H861	0.173200	0.598700	0.329300
C8621	C862	0.107690	0.507520	0.247190
H8621	H862	0.100800	0.489100	0.249700
C8631	C863	0.144640	0.496660	0.183550
H8631	H863	0.163000	0.499700	0.190200
C8641	C864	0.218100	0.555210	0.369910
H8641	H864	0.226100	0.546300	0.354200
N12961	N1296	0.118560	0.518150	0.222710
Cu2171	Cu217	0.123310	0.162800	0.779510
Cu2181	Cu218	0.149960	0.225430	0.807950
N12971	N1297	0.141540	0.222810	0.766470
N12981	N1298	0.129140	0.198800	0.754520
N12991	N1299	0.106580	0.178070	0.815410
N13001	N1300	0.114090	0.205140	0.825530
N13011	N1301	0.141610	0.266770	0.657990
N13021	N1302	0.112050	0.265730	0.659670
C8651	C865	0.151800	0.254360	0.680640
H8651	H865	0.171000	0.251900	0.684800
N13031	N1303	0.129600	0.245690	0.697040
C8661	C866	0.123210	0.204500	0.728060
H8661	H866	0.114800	0.192100	0.715100
N13041	N1304	0.018470	0.188220	0.893240
N13051	N1305	0.059540	0.186520	0.872320
N13061	N1306	0.038250	0.175720	0.911650
N13071	N1307	0.079890	0.188770	0.851410
C8671	C867	0.098110	0.210920	0.847250
H8671	H867	0.098900	0.227400	0.858200
C8681	C868	0.062670	0.175100	0.898640
H8681	H868	0.079500	0.168000	0.906200
C8691	C869	0.085950	0.168720	0.831330
H8691	H869	0.076800	0.151300	0.829300
C8701	C870	0.142310	0.242480	0.747190
H8701	H870	0.149200	0.260900	0.749700
C8711	C871	0.105360	0.253340	0.683550
H8711	H871	0.087000	0.250300	0.690200
C8721	C872	0.031900	0.194790	0.869910
H8721	H872	0.023900	0.203700	0.854200
N13081	N1308	0.131440	0.231850	0.722710
Cu2191	Cu219	0.123310	0.662800	0.279510
Cu2201	Cu220	0.149960	0.725430	0.307950
N13091	N1309	0.141540	0.722810	0.266470
N13101	N1310	0.129140	0.698800	0.254520
N13111	N1311	0.106580	0.678070	0.315410
N13121	N1312	0.114090	0.705140	0.325530
N13131	N1313	0.141610	0.766770	0.157990
N13141	N1314	0.112050	0.765730	0.159670
C8731	C873	0.151800	0.754360	0.180640
H8731	H873	0.171000	0.751900	0.184800
N13151	N1315	0.129600	0.745690	0.197040
C8741	C874	0.123210	0.704500	0.228060
H8741	H874	0.114800	0.692100	0.215100
N13161	N1316	0.018470	0.688220	0.393240
N13171	N1317	0.059540	0.686520	0.372320
N13181	N1318	0.038250	0.675720	0.411650
N13191	N1319	0.079890	0.688770	0.351410
C8751	C875	0.098110	0.710920	0.347250
H8751	H875	0.098900	0.727400	0.358200
C8761	C876	0.062670	0.675100	0.398640
H8761	H876	0.079500	0.668000	0.406200
C8771	C877	0.085950	0.668720	0.331330
H8771	H877	0.076800	0.651300	0.329300
C8781	C878	0.142310	0.742480	0.247190
H8781	H878	0.149200	0.760900	0.249700
C8791	C879	0.105360	0.753340	0.183550
H8791	H879	0.087000	0.750300	0.190200
C8801	C880	0.031900	0.694790	0.369910
H8801	H880	0.023900	0.703700	0.354200
N13201	N1320	0.131440	0.731850	0.222710
Cu2211	Cu221	0.623310	0.162800	0.279510
Cu2221	Cu222	0.649960	0.225430	0.307950
N13211	N1321	0.641540	0.222810	0.266470
N13221	N1322	0.629140	0.198800	0.254520
N13231	N1323	0.606580	0.178070	0.315410
N13241	N1324	0.614090	0.205140	0.325530
N13251	N1325	0.641610	0.266770	0.157990
N13261	N1326	0.612050	0.265730	0.159670
C8811	C881	0.651800	0.254360	0.180640
H8811	H881	0.671000	0.251900	0.184800
N13271	N1327	0.629600	0.245690	0.197040
C8821	C882	0.623210	0.204500	0.228060
H8821	H882	0.614800	0.192100	0.215100
N13281	N1328	0.518470	0.188220	0.393240
N13291	N1329	0.559540	0.186520	0.372320
N13301	N1330	0.538250	0.175720	0.411650
N13311	N1331	0.579890	0.188770	0.351410
C8831	C883	0.598110	0.210920	0.347250
H8831	H883	0.598900	0.227400	0.358200
C8841	C884	0.562670	0.175100	0.398640
H8841	H884	0.579500	0.168000	0.406200
C8851	C885	0.585950	0.168720	0.331330
H8851	H885	0.576800	0.151300	0.329300
C8861	C886	0.642310	0.242480	0.247190
H8861	H886	0.649200	0.260900	0.249700
C8871	C887	0.605360	0.253340	0.183550
H8871	H887	0.587000	0.250300	0.190200
C8881	C888	0.531900	0.194790	0.369910
H8881	H888	0.523900	0.203700	0.354200
N13321	N1332	0.631440	0.231850	0.222710
Cu2231	Cu223	0.623310	0.662800	0.779510
Cu2241	Cu224	0.649960	0.725430	0.807950
N13331	N1333	0.641540	0.722810	0.766470
N13341	N1334	0.629140	0.698800	0.754520
N13351	N1335	0.606580	0.678070	0.815410
N13361	N1336	0.614090	0.705140	0.825530
N13371	N1337	0.641610	0.766770	0.657990
N13381	N1338	0.612050	0.765730	0.659670
C8891	C889	0.651800	0.754360	0.680640
H8891	H889	0.671000	0.751900	0.684800
N13391	N1339	0.629600	0.745690	0.697040
C8901	C890	0.623210	0.704500	0.728060
H8901	H890	0.614800	0.692100	0.715100
N13401	N1340	0.518470	0.688220	0.893240
N13411	N1341	0.559540	0.686520	0.872320
N13421	N1342	0.538250	0.675720	0.911650
N13431	N1343	0.579890	0.688770	0.851410
C8911	C891	0.598110	0.710920	0.847250
H8911	H891	0.598900	0.727400	0.858200
C8921	C892	0.562670	0.675100	0.898640
H8921	H892	0.579500	0.668000	0.906200
C8931	C893	0.585950	0.668720	0.831330
H8931	H893	0.576800	0.651300	0.829300
C8941	C894	0.642310	0.742480	0.747190
H8941	H894	0.649200	0.760900	0.749700
C8951	C895	0.605360	0.753340	0.683550
H8951	H895	0.587000	0.750300	0.690200
C8961	C896	0.531900	0.694790	0.869910
H8961	H896	0.523900	0.703700	0.854200
N13441	N1344	0.631440	0.731850	0.722710
Cu2251	Cu225	0.470500	0.623310	0.587200
Cu2261	Cu226	0.442050	0.649960	0.524570
N13451	N1345	0.483530	0.641540	0.527190
N13461	N1346	0.495480	0.629140	0.551200
N13471	N1347	0.434590	0.606580	0.571930
N13481	N1348	0.424470	0.614090	0.544860
N13491	N1349	0.592010	0.641610	0.483230
N13501	N1350	0.590330	0.612050	0.484270
C8971	C897	0.569360	0.651800	0.495640
H8971	H897	0.565200	0.671000	0.498100
N13511	N1351	0.552960	0.629600	0.504310
C8981	C898	0.521940	0.623210	0.545500
H8981	H898	0.534900	0.614800	0.557900
N13521	N1352	0.356760	0.518470	0.561780
N13531	N1353	0.377680	0.559540	0.563480
N13541	N1354	0.338350	0.538250	0.574280
N13551	N1355	0.398590	0.579890	0.561230
C8991	C899	0.402750	0.598110	0.539080
H8991	H899	0.391800	0.598900	0.522600
C9001	C900	0.351360	0.562670	0.574900
H9001	H900	0.343800	0.579500	0.582000
C9011	C901	0.418670	0.585950	0.581280
H9011	H901	0.420700	0.576800	0.598700
C9021	C902	0.502810	0.642310	0.507520
H9021	H902	0.500300	0.649200	0.489100
C9031	C903	0.566450	0.605360	0.496660
H9031	H903	0.559800	0.587000	0.499700
C9041	C904	0.380090	0.531900	0.555210
H9041	H904	0.395800	0.523900	0.546300
N13561	N1356	0.527290	0.631440	0.518150
Cu2271	Cu227	0.470500	0.123310	0.087200
Cu2281	Cu228	0.442050	0.149960	0.024570
N13571	N1357	0.483530	0.141540	0.027190
N13581	N1358	0.495480	0.129140	0.051200
N13591	N1359	0.434590	0.106580	0.071930
N13601	N1360	0.424470	0.114090	0.044860
N13611	N1361	0.592010	0.141610	0.983230
N13621	N1362	0.590330	0.112050	0.984270
C9051	C905	0.569360	0.151800	0.995640
H9051	H905	0.565200	0.171000	0.998100
N13631	N1363	0.552960	0.129600	0.004310
C9061	C906	0.521940	0.123210	0.045500
H9061	H906	0.534900	0.114800	0.057900
N13641	N1364	0.356760	0.018470	0.061780
N13651	N1365	0.377680	0.059540	0.063480
N13661	N1366	0.338350	0.038250	0.074280
N13671	N1367	0.398590	0.079890	0.061230
C9071	C907	0.402750	0.098110	0.039080
H9071	H907	0.391800	0.098900	0.022600
C9081	C908	0.351360	0.062670	0.074900
H9081	H908	0.343800	0.079500	0.082000
C9091	C909	0.418670	0.085950	0.081280
H9091	H909	0.420700	0.076800	0.098700
C9101	C910	0.502810	0.142310	0.007520
H9101	H910	0.500300	0.149200	0.989100
C9111	C911	0.566450	0.105360	0.996660
H9111	H911	0.559800	0.087000	0.999700
C9121	C912	0.380090	0.031900	0.055210
H9121	H912	0.395800	0.023900	0.046300
N13681	N1368	0.527290	0.131440	0.018150
Cu2291	Cu229	0.970500	0.623310	0.087200
Cu2301	Cu230	0.942050	0.649960	0.024570
N13691	N1369	0.983530	0.641540	0.027190
N13701	N1370	0.995480	0.629140	0.051200
N13711	N1371	0.934590	0.606580	0.071930
N13721	N1372	0.924470	0.614090	0.044860
N13731	N1373	0.092010	0.641610	0.983230
N13741	N1374	0.090330	0.612050	0.984270
C9131	C913	0.069360	0.651800	0.995640
H9131	H913	0.065200	0.671000	0.998100
N13751	N1375	0.052960	0.629600	0.004310
C9141	C914	0.021940	0.623210	0.045500
H9141	H914	0.034900	0.614800	0.057900
N13761	N1376	0.856760	0.518470	0.061780
N13771	N1377	0.877680	0.559540	0.063480
N13781	N1378	0.838350	0.538250	0.074280
N13791	N1379	0.898590	0.579890	0.061230
C9151	C915	0.902750	0.598110	0.039080
H9151	H915	0.891800	0.598900	0.022600
C9161	C916	0.851360	0.562670	0.074900
H9161	H916	0.843800	0.579500	0.082000
C9171	C917	0.918670	0.585950	0.081280
H9171	H917	0.920700	0.576800	0.098700
C9181	C918	0.002810	0.642310	0.007520
H9181	H918	0.000300	0.649200	0.989100
C9191	C919	0.066450	0.605360	0.996660
H9191	H919	0.059800	0.587000	0.999700
C9201	C920	0.880090	0.531900	0.055210
H9201	H920	0.895800	0.523900	0.046300
N13801	N1380	0.027290	0.631440	0.018150
Cu2311	Cu231	0.970500	0.123310	0.587200
Cu2321	Cu232	0.942050	0.149960	0.524570
N13811	N1381	0.983530	0.141540	0.527190
N13821	N1382	0.995480	0.129140	0.551200
N13831	N1383	0.934590	0.106580	0.571930
N13841	N1384	0.924470	0.114090	0.544860
N13851	N1385	0.092010	0.141610	0.483230
N13861	N1386	0.090330	0.112050	0.484270
C9211	C921	0.069360	0.151800	0.495640
H9211	H921	0.065200	0.171000	0.498100
N13871	N1387	0.052960	0.129600	0.504310
C9221	C922	0.021940	0.123210	0.545500
H9221	H922	0.034900	0.114800	0.557900
N13881	N1388	0.856760	0.018470	0.561780
N13891	N1389	0.877680	0.059540	0.563480
N13901	N1390	0.838350	0.038250	0.574280
N13911	N1391	0.898590	0.079890	0.561230
C9231	C923	0.902750	0.098110	0.539080
H9231	H923	0.891800	0.098900	0.522600
C9241	C924	0.851360	0.062670	0.574900
H9241	H924	0.843800	0.079500	0.582000
C9251	C925	0.918670	0.085950	0.581280
H9251	H925	0.920700	0.076800	0.598700
C9261	C926	0.002810	0.142310	0.507520
H9261	H926	0.000300	0.149200	0.489100
C9271	C927	0.066450	0.105360	0.496660
H9271	H927	0.059800	0.087000	0.499700
C9281	C928	0.880090	0.031900	0.555210
H9281	H928	0.895800	0.023900	0.546300
N13921	N1392	0.027290	0.131440	0.518150
Cu2331	Cu233	0.970500	0.126690	0.662800
Cu2341	Cu234	0.942050	0.100040	0.725430
N13931	N1393	0.983530	0.108460	0.722810
N13941	N1394	0.995480	0.120860	0.698800
N13951	N1395	0.934590	0.143420	0.678070
N13961	N1396	0.924470	0.135910	0.705140
N13971	N1397	0.092010	0.108390	0.766770
N13981	N1398	0.090330	0.137950	0.765730
C9291	C929	0.069360	0.098200	0.754360
H9291	H929	0.065200	0.079000	0.751900
N13991	N1399	0.052960	0.120400	0.745690
C9301	C930	0.021940	0.126790	0.704500
H9301	H930	0.034900	0.135200	0.692100
N14001	N1400	0.856760	0.231530	0.688220
N14011	N1401	0.877680	0.190460	0.686520
N14021	N1402	0.838350	0.211750	0.675720
N14031	N1403	0.898590	0.170110	0.688770
C9311	C931	0.902750	0.151890	0.710920
H9311	H931	0.891800	0.151100	0.727400
C9321	C932	0.851360	0.187330	0.675100
H9321	H932	0.843800	0.170500	0.668000
C9331	C933	0.918670	0.164050	0.668720
H9331	H933	0.920700	0.173200	0.651300
C9341	C934	0.002810	0.107690	0.742480
H9341	H934	0.000300	0.100800	0.760900
C9351	C935	0.066450	0.144640	0.753340
H9351	H935	0.059800	0.163000	0.750300
C9361	C936	0.880090	0.218100	0.694790
H9361	H936	0.895800	0.226100	0.703700
N14041	N1404	0.027290	0.118560	0.731850
Cu2351	Cu235	0.970500	0.626690	0.162800
Cu2361	Cu236	0.942050	0.600040	0.225430
N14051	N1405	0.983530	0.608460	0.222810
N14061	N1406	0.995480	0.620860	0.198800
N14071	N1407	0.934590	0.643420	0.178070
N14081	N1408	0.924470	0.635910	0.205140
N14091	N1409	0.092010	0.608390	0.266770
N14101	N1410	0.090330	0.637950	0.265730
C9371	C937	0.069360	0.598200	0.254360
H9371	H937	0.065200	0.579000	0.251900
N14111	N1411	0.052960	0.620400	0.245690
C9381	C938	0.021940	0.626790	0.204500
H9381	H938	0.034900	0.635200	0.192100
N14121	N1412	0.856760	0.731530	0.188220
N14131	N1413	0.877680	0.690460	0.186520
N14141	N1414	0.838350	0.711750	0.175720
N14151	N1415	0.898590	0.670110	0.188770
C9391	C939	0.902750	0.651890	0.210920
H9391	H939	0.891800	0.651100	0.227400
C9401	C940	0.851360	0.687330	0.175100
H9401	H940	0.843800	0.670500	0.168000
C9411	C941	0.918670	0.664050	0.168720
H9411	H941	0.920700	0.673200	0.151300
C9421	C942	0.002810	0.607690	0.242480
H9421	H942	0.000300	0.600800	0.260900
C9431	C943	0.066450	0.644640	0.253340
H9431	H943	0.059800	0.663000	0.250300
C9441	C944	0.880090	0.718100	0.194790
H9441	H944	0.895800	0.726100	0.203700
N14161	N1416	0.027290	0.618560	0.231850
Cu2371	Cu237	0.470500	0.126690	0.162800
Cu2381	Cu238	0.442050	0.100040	0.225430
N14171	N1417	0.483530	0.108460	0.222810
N14181	N1418	0.495480	0.120860	0.198800
N14191	N1419	0.434590	0.143420	0.178070
N14201	N1420	0.424470	0.135910	0.205140
N14211	N1421	0.592010	0.108390	0.266770
N14221	N1422	0.590330	0.137950	0.265730
C9451	C945	0.569360	0.098200	0.254360
H9451	H945	0.565200	0.079000	0.251900
N14231	N1423	0.552960	0.120400	0.245690
C9461	C946	0.521940	0.126790	0.204500
H9461	H946	0.534900	0.135200	0.192100
N14241	N1424	0.356760	0.231530	0.188220
N14251	N1425	0.377680	0.190460	0.186520
N14261	N1426	0.338350	0.211750	0.175720
N14271	N1427	0.398590	0.170110	0.188770
C9471	C947	0.402750	0.151890	0.210920
H9471	H947	0.391800	0.151100	0.227400
C9481	C948	0.351360	0.187330	0.175100
H9481	H948	0.343800	0.170500	0.168000
C9491	C949	0.418670	0.164050	0.168720
H9491	H949	0.420700	0.173200	0.151300
C9501	C950	0.502810	0.107690	0.242480
H9501	H950	0.500300	0.100800	0.260900
C9511	C951	0.566450	0.144640	0.253340
H9511	H951	0.559800	0.163000	0.250300
C9521	C952	0.380090	0.218100	0.194790
H9521	H952	0.395800	0.226100	0.203700
N14281	N1428	0.527290	0.118560	0.231850
Cu2391	Cu239	0.470500	0.626690	0.662800
Cu2401	Cu240	0.442050	0.600040	0.725430
N14291	N1429	0.483530	0.608460	0.722810
N14301	N1430	0.495480	0.620860	0.698800
N14311	N1431	0.434590	0.643420	0.678070
N14321	N1432	0.424470	0.635910	0.705140
N14331	N1433	0.592010	0.608390	0.766770
N14341	N1434	0.590330	0.637950	0.765730
C9531	C953	0.569360	0.598200	0.754360
H9531	H953	0.565200	0.579000	0.751900
N14351	N1435	0.552960	0.620400	0.745690
C9541	C954	0.521940	0.626790	0.704500
H9541	H954	0.534900	0.635200	0.692100
N14361	N1436	0.356760	0.731530	0.688220
N14371	N1437	0.377680	0.690460	0.686520
N14381	N1438	0.338350	0.711750	0.675720
N14391	N1439	0.398590	0.670110	0.688770
C9551	C955	0.402750	0.651890	0.710920
H9551	H955	0.391800	0.651100	0.727400
C9561	C956	0.351360	0.687330	0.675100
H9561	H956	0.343800	0.670500	0.668000
C9571	C957	0.418670	0.664050	0.668720
H9571	H957	0.420700	0.673200	0.651300
C9581	C958	0.502810	0.607690	0.742480
H9581	H958	0.500300	0.600800	0.760900
C9591	C959	0.566450	0.644640	0.753340
H9591	H959	0.559800	0.663000	0.750300
C9601	C960	0.380090	0.718100	0.694790
H9601	H960	0.395800	0.726100	0.703700
N14401	N1440	0.527290	0.618560	0.731850
Cu2411	Cu241	0.279510	0.626690	0.087200
Cu2421	Cu242	0.307950	0.600040	0.024570
N14411	N1441	0.266470	0.608460	0.027190
N14421	N1442	0.254520	0.620860	0.051200
N14431	N1443	0.315410	0.643420	0.071930
N14441	N1444	0.325530	0.635910	0.044860
N14451	N1445	0.157990	0.608390	0.983230
N14461	N1446	0.159670	0.637950	0.984270
C9611	C961	0.180640	0.598200	0.995640
H9611	H961	0.184800	0.579000	0.998100
N14471	N1447	0.197040	0.620400	0.004310
C9621	C962	0.228060	0.626790	0.045500
H9621	H962	0.215100	0.635200	0.057900
N14481	N1448	0.393240	0.731530	0.061780
N14491	N1449	0.372320	0.690460	0.063480
N14501	N1450	0.411650	0.711750	0.074280
N14511	N1451	0.351410	0.670110	0.061230
C9631	C963	0.347250	0.651890	0.039080
H9631	H963	0.358200	0.651100	0.022600
C9641	C964	0.398640	0.687330	0.074900
H9641	H964	0.406200	0.670500	0.082000
C9651	C965	0.331330	0.664050	0.081280
H9651	H965	0.329300	0.673200	0.098700
C9661	C966	0.247190	0.607690	0.007520
H9661	H966	0.249700	0.600800	0.989100
C9671	C967	0.183550	0.644640	0.996660
H9671	H967	0.190200	0.663000	0.999700
C9681	C968	0.369910	0.718100	0.055210
H9681	H968	0.354200	0.726100	0.046300
N14521	N1452	0.222710	0.618560	0.018150
Cu2431	Cu243	0.279510	0.126690	0.587200
Cu2441	Cu244	0.307950	0.100040	0.524570
N14531	N1453	0.266470	0.108460	0.527190
N14541	N1454	0.254520	0.120860	0.551200
N14551	N1455	0.315410	0.143420	0.571930
N14561	N1456	0.325530	0.135910	0.544860
N14571	N1457	0.157990	0.108390	0.483230
N14581	N1458	0.159670	0.137950	0.484270
C9691	C969	0.180640	0.098200	0.495640
H9691	H969	0.184800	0.079000	0.498100
N14591	N1459	0.197040	0.120400	0.504310
C9701	C970	0.228060	0.126790	0.545500
H9701	H970	0.215100	0.135200	0.557900
N14601	N1460	0.393240	0.231530	0.561780
N14611	N1461	0.372320	0.190460	0.563480
N14621	N1462	0.411650	0.211750	0.574280
N14631	N1463	0.351410	0.170110	0.561230
C9711	C971	0.347250	0.151890	0.539080
H9711	H971	0.358200	0.151100	0.522600
C9721	C972	0.398640	0.187330	0.574900
H9721	H972	0.406200	0.170500	0.582000
C9731	C973	0.331330	0.164050	0.581280
H9731	H973	0.329300	0.173200	0.598700
C9741	C974	0.247190	0.107690	0.507520
H9741	H974	0.249700	0.100800	0.489100
C9751	C975	0.183550	0.144640	0.496660
H9751	H975	0.190200	0.163000	0.499700
C9761	C976	0.369910	0.218100	0.555210
H9761	H976	0.354200	0.226100	0.546300
N14641	N1464	0.222710	0.118560	0.518150
Cu2451	Cu245	0.779510	0.626690	0.587200
Cu2461	Cu246	0.807950	0.600040	0.524570
N14651	N1465	0.766470	0.608460	0.527190
N14661	N1466	0.754520	0.620860	0.551200
N14671	N1467	0.815410	0.643420	0.571930
N14681	N1468	0.825530	0.635910	0.544860
N14691	N1469	0.657990	0.608390	0.483230
N14701	N1470	0.659670	0.637950	0.484270
C9771	C977	0.680640	0.598200	0.495640
H9771	H977	0.684800	0.579000	0.498100
N14711	N1471	0.697040	0.620400	0.504310
C9781	C978	0.728060	0.626790	0.545500
H9781	H978	0.715100	0.635200	0.557900
N14721	N1472	0.893240	0.731530	0.561780
N14731	N1473	0.872320	0.690460	0.563480
N14741	N1474	0.911650	0.711750	0.574280
N14751	N1475	0.851410	0.670110	0.561230
C9791	C979	0.847250	0.651890	0.539080
H9791	H979	0.858200	0.651100	0.522600
C9801	C980	0.898640	0.687330	0.574900
H9801	H980	0.906200	0.670500	0.582000
C9811	C981	0.831330	0.664050	0.581280
H9811	H981	0.829300	0.673200	0.598700
C9821	C982	0.747190	0.607690	0.507520
H9821	H982	0.749700	0.600800	0.489100
C9831	C983	0.683550	0.644640	0.496660
H9831	H983	0.690200	0.663000	0.499700
C9841	C984	0.869910	0.718100	0.555210
H9841	H984	0.854200	0.726100	0.546300
N14761	N1476	0.722710	0.618560	0.518150
Cu2471	Cu247	0.779510	0.126690	0.087200
Cu2481	Cu248	0.807950	0.100040	0.024570
N14771	N1477	0.766470	0.108460	0.027190
N14781	N1478	0.754520	0.120860	0.051200
N14791	N1479	0.815410	0.143420	0.071930
N14801	N1480	0.825530	0.135910	0.044860
N14811	N1481	0.657990	0.108390	0.983230
N14821	N1482	0.659670	0.137950	0.984270
C9851	C985	0.680640	0.098200	0.995640
H9851	H985	0.684800	0.079000	0.998100
N14831	N1483	0.697040	0.120400	0.004310
C9861	C986	0.728060	0.126790	0.045500
H9861	H986	0.715100	0.135200	0.057900
N14841	N1484	0.893240	0.231530	0.061780
N14851	N1485	0.872320	0.190460	0.063480
N14861	N1486	0.911650	0.211750	0.074280
N14871	N1487	0.851410	0.170110	0.061230
C9871	C987	0.847250	0.151890	0.039080
H9871	H987	0.858200	0.151100	0.022600
C9881	C988	0.898640	0.187330	0.074900
H9881	H988	0.906200	0.170500	0.082000
C9891	C989	0.831330	0.164050	0.081280
H9891	H989	0.829300	0.173200	0.098700
C9901	C990	0.747190	0.107690	0.007520
H9901	H990	0.749700	0.100800	0.989100
C9911	C991	0.683550	0.144640	0.996660
H9911	H991	0.690200	0.163000	0.999700
C9921	C992	0.869910	0.218100	0.055210
H9921	H992	0.854200	0.226100	0.046300
N14881	N1488	0.722710	0.118560	0.018150
Cu2491	Cu249	0.779510	0.123310	0.162800
Cu2501	Cu250	0.807950	0.149960	0.225430
N14891	N1489	0.766470	0.141540	0.222810
N14901	N1490	0.754520	0.129140	0.198800
N14911	N1491	0.815410	0.106580	0.178070
N14921	N1492	0.825530	0.114090	0.205140
N14931	N1493	0.657990	0.141610	0.266770
N14941	N1494	0.659670	0.112050	0.265730
C9931	C993	0.680640	0.151800	0.254360
H9931	H993	0.684800	0.171000	0.251900
N14951	N1495	0.697040	0.129600	0.245690
C9941	C994	0.728060	0.123210	0.204500
H9941	H994	0.715100	0.114800	0.192100
N14961	N1496	0.893240	0.018470	0.188220
N14971	N1497	0.872320	0.059540	0.186520
N14981	N1498	0.911650	0.038250	0.175720
N14991	N1499	0.851410	0.079890	0.188770
C9951	C995	0.847250	0.098110	0.210920
H9951	H995	0.858200	0.098900	0.227400
C9961	C996	0.898640	0.062670	0.175100
H9961	H996	0.906200	0.079500	0.168000
C9971	C997	0.831330	0.085950	0.168720
H9971	H997	0.829300	0.076800	0.151300
C9981	C998	0.747190	0.142310	0.242480
H9981	H998	0.749700	0.149200	0.260900
C9991	C999	0.683550	0.105360	0.253340
H9991	H999	0.690200	0.087000	0.250300
C10001	C1000	0.869910	0.031900	0.194790
H10001	H1000	0.854200	0.023900	0.203700
N15001	N1500	0.722710	0.131440	0.231850
Cu2511	Cu251	0.779510	0.623310	0.662800
Cu2521	Cu252	0.807950	0.649960	0.725430
N15011	N1501	0.766470	0.641540	0.722810
N15021	N1502	0.754520	0.629140	0.698800
N15031	N1503	0.815410	0.606580	0.678070
N15041	N1504	0.825530	0.614090	0.705140
N15051	N1505	0.657990	0.641610	0.766770
N15061	N1506	0.659670	0.612050	0.765730
C10011	C1001	0.680640	0.651800	0.754360
H10011	H1001	0.684800	0.671000	0.751900
N15071	N1507	0.697040	0.629600	0.745690
C10021	C1002	0.728060	0.623210	0.704500
H10021	H1002	0.715100	0.614800	0.692100
N15081	N1508	0.893240	0.518470	0.688220
N15091	N1509	0.872320	0.559540	0.686520
N15101	N1510	0.911650	0.538250	0.675720
N15111	N1511	0.851410	0.579890	0.688770
C10031	C1003	0.847250	0.598110	0.710920
H10031	H1003	0.858200	0.598900	0.727400
C10041	C1004	0.898640	0.562670	0.675100
H10041	H1004	0.906200	0.579500	0.668000
C10051	C1005	0.831330	0.585950	0.668720
H10051	H1005	0.829300	0.576800	0.651300
C10061	C1006	0.747190	0.642310	0.742480
H10061	H1006	0.749700	0.649200	0.760900
C10071	C1007	0.683550	0.605360	0.753340
H10071	H1007	0.690200	0.587000	0.750300
C10081	C1008	0.869910	0.531900	0.694790
H10081	H1008	0.854200	0.523900	0.703700
N15121	N1512	0.722710	0.631440	0.731850
Cu2531	Cu253	0.279510	0.123310	0.662800
Cu2541	Cu254	0.307950	0.149960	0.725430
N15131	N1513	0.266470	0.141540	0.722810
N15141	N1514	0.254520	0.129140	0.698800
N15151	N1515	0.315410	0.106580	0.678070
N15161	N1516	0.325530	0.114090	0.705140
N15171	N1517	0.157990	0.141610	0.766770
N15181	N1518	0.159670	0.112050	0.765730
C10091	C1009	0.180640	0.151800	0.754360
H10091	H1009	0.184800	0.171000	0.751900
N15191	N1519	0.197040	0.129600	0.745690
C10101	C1010	0.228060	0.123210	0.704500
H10101	H1010	0.215100	0.114800	0.692100
N15201	N1520	0.393240	0.018470	0.688220
N15211	N1521	0.372320	0.059540	0.686520
N15221	N1522	0.411650	0.038250	0.675720
N15231	N1523	0.351410	0.079890	0.688770
C10111	C1011	0.347250	0.098110	0.710920
H10111	H1011	0.358200	0.098900	0.727400
C10121	C1012	0.398640	0.062670	0.675100
H10121	H1012	0.406200	0.079500	0.668000
C10131	C1013	0.331330	0.085950	0.668720
H10131	H1013	0.329300	0.076800	0.651300
C10141	C1014	0.247190	0.142310	0.742480
H10141	H1014	0.249700	0.149200	0.760900
C10151	C1015	0.183550	0.105360	0.753340
H10151	H1015	0.190200	0.087000	0.750300
C10161	C1016	0.369910	0.031900	0.694790
H10161	H1016	0.354200	0.023900	0.703700
N15241	N1524	0.222710	0.131440	0.731850
Cu2551	Cu255	0.279510	0.623310	0.162800
Cu2561	Cu256	0.307950	0.649960	0.225430
N15251	N1525	0.266470	0.641540	0.222810
N15261	N1526	0.254520	0.629140	0.198800
N15271	N1527	0.315410	0.606580	0.178070
N15281	N1528	0.325530	0.614090	0.205140
N15291	N1529	0.157990	0.641610	0.266770
N15301	N1530	0.159670	0.612050	0.265730
C10171	C1017	0.180640	0.651800	0.254360
H10171	H1017	0.184800	0.671000	0.251900
N15311	N1531	0.197040	0.629600	0.245690
C10181	C1018	0.228060	0.623210	0.204500
H10181	H1018	0.215100	0.614800	0.192100
N15321	N1532	0.393240	0.518470	0.188220
N15331	N1533	0.372320	0.559540	0.186520
N15341	N1534	0.411650	0.538250	0.175720
N15351	N1535	0.351410	0.579890	0.188770
C10191	C1019	0.347250	0.598110	0.210920
H10191	H1019	0.358200	0.598900	0.227400
C10201	C1020	0.398640	0.562670	0.175100
H10201	H1020	0.406200	0.579500	0.168000
C10211	C1021	0.331330	0.585950	0.168720
H10211	H1021	0.329300	0.576800	0.151300
C10221	C1022	0.247190	0.642310	0.242480
H10221	H1022	0.249700	0.649200	0.260900
C10231	C1023	0.183550	0.605360	0.253340
H10231	H1023	0.190200	0.587000	0.250300
C10241	C1024	0.369910	0.531900	0.194790
H10241	H1024	0.354200	0.523900	0.203700
N15361	N1536	0.222710	0.631440	0.231850
Cu2571	Cu257	0.587200	0.470500	0.623310
Cu2581	Cu258	0.524570	0.442050	0.649960
N15371	N1537	0.527190	0.483530	0.641540
N15381	N1538	0.551200	0.495480	0.629140
N15391	N1539	0.571930	0.434590	0.606580
N15401	N1540	0.544860	0.424470	0.614090
N15411	N1541	0.483230	0.592010	0.641610
N15421	N1542	0.484270	0.590330	0.612050
C10251	C1025	0.495640	0.569360	0.651800
H10251	H1025	0.498100	0.565200	0.671000
N15431	N1543	0.504310	0.552960	0.629600
C10261	C1026	0.545500	0.521940	0.623210
H10261	H1026	0.557900	0.534900	0.614800
N15441	N1544	0.561780	0.356760	0.518470
N15451	N1545	0.563480	0.377680	0.559540
N15461	N1546	0.574280	0.338350	0.538250
N15471	N1547	0.561230	0.398590	0.579890
C10271	C1027	0.539080	0.402750	0.598110
H10271	H1027	0.522600	0.391800	0.598900
C10281	C1028	0.574900	0.351360	0.562670
H10281	H1028	0.582000	0.343800	0.579500
C10291	C1029	0.581280	0.418670	0.585950
H10291	H1029	0.598700	0.420700	0.576800
C10301	C1030	0.507520	0.502810	0.642310
H10301	H1030	0.489100	0.500300	0.649200
C10311	C1031	0.496660	0.566450	0.605360
H10311	H1031	0.499700	0.559800	0.587000
C10321	C1032	0.555210	0.380090	0.531900
H10321	H1032	0.546300	0.395800	0.523900
N15481	N1548	0.518150	0.527290	0.631440
Cu2591	Cu259	0.587200	0.970500	0.123310
Cu2601	Cu260	0.524570	0.942050	0.149960
N15491	N1549	0.527190	0.983530	0.141540
N15501	N1550	0.551200	0.995480	0.129140
N15511	N1551	0.571930	0.934590	0.106580
N15521	N1552	0.544860	0.924470	0.114090
N15531	N1553	0.483230	0.092010	0.141610
N15541	N1554	0.484270	0.090330	0.112050
C10331	C1033	0.495640	0.069360	0.151800
H10331	H1033	0.498100	0.065200	0.171000
N15551	N1555	0.504310	0.052960	0.129600
C10341	C1034	0.545500	0.021940	0.123210
H10341	H1034	0.557900	0.034900	0.114800
N15561	N1556	0.561780	0.856760	0.018470
N15571	N1557	0.563480	0.877680	0.059540
N15581	N1558	0.574280	0.838350	0.038250
N15591	N1559	0.561230	0.898590	0.079890
C10351	C1035	0.539080	0.902750	0.098110
H10351	H1035	0.522600	0.891800	0.098900
C10361	C1036	0.574900	0.851360	0.062670
H10361	H1036	0.582000	0.843800	0.079500
C10371	C1037	0.581280	0.918670	0.085950
H10371	H1037	0.598700	0.920700	0.076800
C10381	C1038	0.507520	0.002810	0.142310
H10381	H1038	0.489100	0.000300	0.149200
C10391	C1039	0.496660	0.066450	0.105360
H10391	H1039	0.499700	0.059800	0.087000
C10401	C1040	0.555210	0.880090	0.031900
H10401	H1040	0.546300	0.895800	0.023900
N15601	N1560	0.518150	0.027290	0.131440
Cu2611	Cu261	0.087200	0.470500	0.123310
Cu2621	Cu262	0.024570	0.442050	0.149960
N15611	N1561	0.027190	0.483530	0.141540
N15621	N1562	0.051200	0.495480	0.129140
N15631	N1563	0.071930	0.434590	0.106580
N15641	N1564	0.044860	0.424470	0.114090
N15651	N1565	0.983230	0.592010	0.141610
N15661	N1566	0.984270	0.590330	0.112050
C10411	C1041	0.995640	0.569360	0.151800
H10411	H1041	0.998100	0.565200	0.171000
N15671	N1567	0.004310	0.552960	0.129600
C10421	C1042	0.045500	0.521940	0.123210
H10421	H1042	0.057900	0.534900	0.114800
N15681	N1568	0.061780	0.356760	0.018470
N15691	N1569	0.063480	0.377680	0.059540
N15701	N1570	0.074280	0.338350	0.038250
N15711	N1571	0.061230	0.398590	0.079890
C10431	C1043	0.039080	0.402750	0.098110
H10431	H1043	0.022600	0.391800	0.098900
C10441	C1044	0.074900	0.351360	0.062670
H10441	H1044	0.082000	0.343800	0.079500
C10451	C1045	0.081280	0.418670	0.085950
H10451	H1045	0.098700	0.420700	0.076800
C10461	C1046	0.007520	0.502810	0.142310
H10461	H1046	0.989100	0.500300	0.149200
C10471	C1047	0.996660	0.566450	0.105360
H10471	H1047	0.999700	0.559800	0.087000
C10481	C1048	0.055210	0.380090	0.031900
H10481	H1048	0.046300	0.395800	0.023900
N15721	N1572	0.018150	0.527290	0.131440
Cu2631	Cu263	0.087200	0.970500	0.623310
Cu2641	Cu264	0.024570	0.942050	0.649960
N15731	N1573	0.027190	0.983530	0.641540
N15741	N1574	0.051200	0.995480	0.629140
N15751	N1575	0.071930	0.934590	0.606580
N15761	N1576	0.044860	0.924470	0.614090
N15771	N1577	0.983230	0.092010	0.641610
N15781	N1578	0.984270	0.090330	0.612050
C10491	C1049	0.995640	0.069360	0.651800
H10491	H1049	0.998100	0.065200	0.671000
N15791	N1579	0.004310	0.052960	0.629600
C10501	C1050	0.045500	0.021940	0.623210
H10501	H1050	0.057900	0.034900	0.614800
N15801	N1580	0.061780	0.856760	0.518470
N15811	N1581	0.063480	0.877680	0.559540
N15821	N1582	0.074280	0.838350	0.538250
N15831	N1583	0.061230	0.898590	0.579890
C10511	C1051	0.039080	0.902750	0.598110
H10511	H1051	0.022600	0.891800	0.598900
C10521	C1052	0.074900	0.851360	0.562670
H10521	H1052	0.082000	0.843800	0.579500
C10531	C1053	0.081280	0.918670	0.585950
H10531	H1053	0.098700	0.920700	0.576800
C10541	C1054	0.007520	0.002810	0.642310
H10541	H1054	0.989100	0.000300	0.649200
C10551	C1055	0.996660	0.066450	0.605360
H10551	H1055	0.999700	0.059800	0.587000
C10561	C1056	0.055210	0.880090	0.531900
H10561	H1056	0.046300	0.895800	0.523900
N15841	N1584	0.018150	0.027290	0.631440
Cu2651	Cu265	0.662800	0.970500	0.126690
Cu2661	Cu266	0.725430	0.942050	0.100040
N15851	N1585	0.722810	0.983530	0.108460
N15861	N1586	0.698800	0.995480	0.120860
N15871	N1587	0.678070	0.934590	0.143420
N15881	N1588	0.705140	0.924470	0.135910
N15891	N1589	0.766770	0.092010	0.108390
N15901	N1590	0.765730	0.090330	0.137950
C10571	C1057	0.754360	0.069360	0.098200
H10571	H1057	0.751900	0.065200	0.079000
N15911	N1591	0.745690	0.052960	0.120400
C10581	C1058	0.704500	0.021940	0.126790
H10581	H1058	0.692100	0.034900	0.135200
N15921	N1592	0.688220	0.856760	0.231530
N15931	N1593	0.686520	0.877680	0.190460
N15941	N1594	0.675720	0.838350	0.211750
N15951	N1595	0.688770	0.898590	0.170110
C10591	C1059	0.710920	0.902750	0.151890
H10591	H1059	0.727400	0.891800	0.151100
C10601	C1060	0.675100	0.851360	0.187330
H10601	H1060	0.668000	0.843800	0.170500
C10611	C1061	0.668720	0.918670	0.164050
H10611	H1061	0.651300	0.920700	0.173200
C10621	C1062	0.742480	0.002810	0.107690
H10621	H1062	0.760900	0.000300	0.100800
C10631	C1063	0.753340	0.066450	0.144640
H10631	H1063	0.750300	0.059800	0.163000
C10641	C1064	0.694790	0.880090	0.218100
H10641	H1064	0.703700	0.895800	0.226100
N15961	N1596	0.731850	0.027290	0.118560
Cu2671	Cu267	0.662800	0.470500	0.626690
Cu2681	Cu268	0.725430	0.442050	0.600040
N15971	N1597	0.722810	0.483530	0.608460
N15981	N1598	0.698800	0.495480	0.620860
N15991	N1599	0.678070	0.434590	0.643420
N16001	N1600	0.705140	0.424470	0.635910
N16011	N1601	0.766770	0.592010	0.608390
N16021	N1602	0.765730	0.590330	0.637950
C10651	C1065	0.754360	0.569360	0.598200
H10651	H1065	0.751900	0.565200	0.579000
N16031	N1603	0.745690	0.552960	0.620400
C10661	C1066	0.704500	0.521940	0.626790
H10661	H1066	0.692100	0.534900	0.635200
N16041	N1604	0.688220	0.356760	0.731530
N16051	N1605	0.686520	0.377680	0.690460
N16061	N1606	0.675720	0.338350	0.711750
N16071	N1607	0.688770	0.398590	0.670110
C10671	C1067	0.710920	0.402750	0.651890
H10671	H1067	0.727400	0.391800	0.651100
C10681	C1068	0.675100	0.351360	0.687330
H10681	H1068	0.668000	0.343800	0.670500
C10691	C1069	0.668720	0.418670	0.664050
H10691	H1069	0.651300	0.420700	0.673200
C10701	C1070	0.742480	0.502810	0.607690
H10701	H1070	0.760900	0.500300	0.600800
C10711	C1071	0.753340	0.566450	0.644640
H10711	H1071	0.750300	0.559800	0.663000
C10721	C1072	0.694790	0.380090	0.718100
H10721	H1072	0.703700	0.395800	0.726100
N16081	N1608	0.731850	0.527290	0.618560
Cu2691	Cu269	0.162800	0.970500	0.626690
Cu2701	Cu270	0.225430	0.942050	0.600040
N16091	N1609	0.222810	0.983530	0.608460
N16101	N1610	0.198800	0.995480	0.620860
N16111	N1611	0.178070	0.934590	0.643420
N16121	N1612	0.205140	0.924470	0.635910
N16131	N1613	0.266770	0.092010	0.608390
N16141	N1614	0.265730	0.090330	0.637950
C10731	C1073	0.254360	0.069360	0.598200
H10731	H1073	0.251900	0.065200	0.579000
N16151	N1615	0.245690	0.052960	0.620400
C10741	C1074	0.204500	0.021940	0.626790
H10741	H1074	0.192100	0.034900	0.635200
N16161	N1616	0.188220	0.856760	0.731530
N16171	N1617	0.186520	0.877680	0.690460
N16181	N1618	0.175720	0.838350	0.711750
N16191	N1619	0.188770	0.898590	0.670110
C10751	C1075	0.210920	0.902750	0.651890
H10751	H1075	0.227400	0.891800	0.651100
C10761	C1076	0.175100	0.851360	0.687330
H10761	H1076	0.168000	0.843800	0.670500
C10771	C1077	0.168720	0.918670	0.664050
H10771	H1077	0.151300	0.920700	0.673200
C10781	C1078	0.242480	0.002810	0.607690
H10781	H1078	0.260900	0.000300	0.600800
C10791	C1079	0.253340	0.066450	0.644640
H10791	H1079	0.250300	0.059800	0.663000
C10801	C1080	0.194790	0.880090	0.718100
H10801	H1080	0.203700	0.895800	0.726100
N16201	N1620	0.231850	0.027290	0.618560
Cu2711	Cu271	0.162800	0.470500	0.126690
Cu2721	Cu272	0.225430	0.442050	0.100040
N16211	N1621	0.222810	0.483530	0.108460
N16221	N1622	0.198800	0.495480	0.120860
N16231	N1623	0.178070	0.434590	0.143420
N16241	N1624	0.205140	0.424470	0.135910
N16251	N1625	0.266770	0.592010	0.108390
N16261	N1626	0.265730	0.590330	0.137950
C10811	C1081	0.254360	0.569360	0.098200
H10811	H1081	0.251900	0.565200	0.079000
N16271	N1627	0.245690	0.552960	0.120400
C10821	C1082	0.204500	0.521940	0.126790
H10821	H1082	0.192100	0.534900	0.135200
N16281	N1628	0.188220	0.356760	0.231530
N16291	N1629	0.186520	0.377680	0.190460
N16301	N1630	0.175720	0.338350	0.211750
N16311	N1631	0.188770	0.398590	0.170110
C10831	C1083	0.210920	0.402750	0.151890
H10831	H1083	0.227400	0.391800	0.151100
C10841	C1084	0.175100	0.351360	0.187330
H10841	H1084	0.168000	0.343800	0.170500
C10851	C1085	0.168720	0.418670	0.164050
H10851	H1085	0.151300	0.420700	0.173200
C10861	C1086	0.242480	0.502810	0.107690
H10861	H1086	0.260900	0.500300	0.100800
C10871	C1087	0.253340	0.566450	0.144640
H10871	H1087	0.250300	0.559800	0.163000
C10881	C1088	0.194790	0.380090	0.218100
H10881	H1088	0.203700	0.395800	0.226100
N16321	N1632	0.231850	0.527290	0.118560
Cu2731	Cu273	0.087200	0.279510	0.626690
Cu2741	Cu274	0.024570	0.307950	0.600040
N16331	N1633	0.027190	0.266470	0.608460
N16341	N1634	0.051200	0.254520	0.620860
N16351	N1635	0.071930	0.315410	0.643420
N16361	N1636	0.044860	0.325530	0.635910
N16371	N1637	0.983230	0.157990	0.608390
N16381	N1638	0.984270	0.159670	0.637950
C10891	C1089	0.995640	0.180640	0.598200
H10891	H1089	0.998100	0.184800	0.579000
N16391	N1639	0.004310	0.197040	0.620400
C10901	C1090	0.045500	0.228060	0.626790
H10901	H1090	0.057900	0.215100	0.635200
N16401	N1640	0.061780	0.393240	0.731530
N16411	N1641	0.063480	0.372320	0.690460
N16421	N1642	0.074280	0.411650	0.711750
N16431	N1643	0.061230	0.351410	0.670110
C10911	C1091	0.039080	0.347250	0.651890
H10911	H1091	0.022600	0.358200	0.651100
C10921	C1092	0.074900	0.398640	0.687330
H10921	H1092	0.082000	0.406200	0.670500
C10931	C1093	0.081280	0.331330	0.664050
H10931	H1093	0.098700	0.329300	0.673200
C10941	C1094	0.007520	0.247190	0.607690
H10941	H1094	0.989100	0.249700	0.600800
C10951	C1095	0.996660	0.183550	0.644640
H10951	H1095	0.999700	0.190200	0.663000
C10961	C1096	0.055210	0.369910	0.718100
H10961	H1096	0.046300	0.354200	0.726100
N16441	N1644	0.018150	0.222710	0.618560
Cu2751	Cu275	0.087200	0.779510	0.126690
Cu2761	Cu276	0.024570	0.807950	0.100040
N16451	N1645	0.027190	0.766470	0.108460
N16461	N1646	0.051200	0.754520	0.120860
N16471	N1647	0.071930	0.815410	0.143420
N16481	N1648	0.044860	0.825530	0.135910
N16491	N1649	0.983230	0.657990	0.108390
N16501	N1650	0.984270	0.659670	0.137950
C10971	C1097	0.995640	0.680640	0.098200
H10971	H1097	0.998100	0.684800	0.079000
N16511	N1651	0.004310	0.697040	0.120400
C10981	C1098	0.045500	0.728060	0.126790
H10981	H1098	0.057900	0.715100	0.135200
N16521	N1652	0.061780	0.893240	0.231530
N16531	N1653	0.063480	0.872320	0.190460
N16541	N1654	0.074280	0.911650	0.211750
N16551	N1655	0.061230	0.851410	0.170110
C10991	C1099	0.039080	0.847250	0.151890
H10991	H1099	0.022600	0.858200	0.151100
C11001	C1100	0.074900	0.898640	0.187330
H11001	H1100	0.082000	0.906200	0.170500
C11011	C1101	0.081280	0.831330	0.164050
H11011	H1101	0.098700	0.829300	0.173200
C11021	C1102	0.007520	0.747190	0.107690
H11021	H1102	0.989100	0.749700	0.100800
C11031	C1103	0.996660	0.683550	0.144640
H11031	H1103	0.999700	0.690200	0.163000
C11041	C1104	0.055210	0.869910	0.218100
H11041	H1104	0.046300	0.854200	0.226100
N16561	N1656	0.018150	0.722710	0.118560
Cu2771	Cu277	0.587200	0.279510	0.126690
Cu2781	Cu278	0.524570	0.307950	0.100040
N16571	N1657	0.527190	0.266470	0.108460
N16581	N1658	0.551200	0.254520	0.120860
N16591	N1659	0.571930	0.315410	0.143420
N16601	N1660	0.544860	0.325530	0.135910
N16611	N1661	0.483230	0.157990	0.108390
N16621	N1662	0.484270	0.159670	0.137950
C11051	C1105	0.495640	0.180640	0.098200
H11051	H1105	0.498100	0.184800	0.079000
N16631	N1663	0.504310	0.197040	0.120400
C11061	C1106	0.545500	0.228060	0.126790
H11061	H1106	0.557900	0.215100	0.135200
N16641	N1664	0.561780	0.393240	0.231530
N16651	N1665	0.563480	0.372320	0.190460
N16661	N1666	0.574280	0.411650	0.211750
N16671	N1667	0.561230	0.351410	0.170110
C11071	C1107	0.539080	0.347250	0.151890
H11071	H1107	0.522600	0.358200	0.151100
C11081	C1108	0.574900	0.398640	0.187330
H11081	H1108	0.582000	0.406200	0.170500
C11091	C1109	0.581280	0.331330	0.164050
H11091	H1109	0.598700	0.329300	0.173200
C11101	C1110	0.507520	0.247190	0.107690
H11101	H1110	0.489100	0.249700	0.100800
C11111	C1111	0.496660	0.183550	0.144640
H11111	H1111	0.499700	0.190200	0.163000
C11121	C1112	0.555210	0.369910	0.218100
H11121	H1112	0.546300	0.354200	0.226100
N16681	N1668	0.518150	0.222710	0.118560
Cu2791	Cu279	0.587200	0.779510	0.626690
Cu2801	Cu280	0.524570	0.807950	0.600040
N16691	N1669	0.527190	0.766470	0.608460
N16701	N1670	0.551200	0.754520	0.620860
N16711	N1671	0.571930	0.815410	0.643420
N16721	N1672	0.544860	0.825530	0.635910
N16731	N1673	0.483230	0.657990	0.608390
N16741	N1674	0.484270	0.659670	0.637950
C11131	C1113	0.495640	0.680640	0.598200
H11131	H1113	0.498100	0.684800	0.579000
N16751	N1675	0.504310	0.697040	0.620400
C11141	C1114	0.545500	0.728060	0.626790
H11141	H1114	0.557900	0.715100	0.635200
N16761	N1676	0.561780	0.893240	0.731530
N16771	N1677	0.563480	0.872320	0.690460
N16781	N1678	0.574280	0.911650	0.711750
N16791	N1679	0.561230	0.851410	0.670110
C11151	C1115	0.539080	0.847250	0.651890
H11151	H1115	0.522600	0.858200	0.651100
C11161	C1116	0.574900	0.898640	0.687330
H11161	H1116	0.582000	0.906200	0.670500
C11171	C1117	0.581280	0.831330	0.664050
H11171	H1117	0.598700	0.829300	0.673200
C11181	C1118	0.507520	0.747190	0.607690
H11181	H1118	0.489100	0.749700	0.600800
C11191	C1119	0.496660	0.683550	0.644640
H11191	H1119	0.499700	0.690200	0.663000
C11201	C1120	0.555210	0.869910	0.718100
H11201	H1120	0.546300	0.854200	0.726100
N16801	N1680	0.518150	0.722710	0.618560
Cu2811	Cu281	0.162800	0.779510	0.123310
Cu2821	Cu282	0.225430	0.807950	0.149960
N16811	N1681	0.222810	0.766470	0.141540
N16821	N1682	0.198800	0.754520	0.129140
N16831	N1683	0.178070	0.815410	0.106580
N16841	N1684	0.205140	0.825530	0.114090
N16851	N1685	0.266770	0.657990	0.141610
N16861	N1686	0.265730	0.659670	0.112050
C11211	C1121	0.254360	0.680640	0.151800
H11211	H1121	0.251900	0.684800	0.171000
N16871	N1687	0.245690	0.697040	0.129600
C11221	C1122	0.204500	0.728060	0.123210
H11221	H1122	0.192100	0.715100	0.114800
N16881	N1688	0.188220	0.893240	0.018470
N16891	N1689	0.186520	0.872320	0.059540
N16901	N1690	0.175720	0.911650	0.038250
N16911	N1691	0.188770	0.851410	0.079890
C11231	C1123	0.210920	0.847250	0.098110
H11231	H1123	0.227400	0.858200	0.098900
C11241	C1124	0.175100	0.898640	0.062670
H11241	H1124	0.168000	0.906200	0.079500
C11251	C1125	0.168720	0.831330	0.085950
H11251	H1125	0.151300	0.829300	0.076800
C11261	C1126	0.242480	0.747190	0.142310
H11261	H1126	0.260900	0.749700	0.149200
C11271	C1127	0.253340	0.683550	0.105360
H11271	H1127	0.250300	0.690200	0.087000
C11281	C1128	0.194790	0.869910	0.031900
H11281	H1128	0.203700	0.854200	0.023900
N16921	N1692	0.231850	0.722710	0.131440
Cu2831	Cu283	0.162800	0.279510	0.623310
Cu2841	Cu284	0.225430	0.307950	0.649960
N16931	N1693	0.222810	0.266470	0.641540
N16941	N1694	0.198800	0.254520	0.629140
N16951	N1695	0.178070	0.315410	0.606580
N16961	N1696	0.205140	0.325530	0.614090
N16971	N1697	0.266770	0.157990	0.641610
N16981	N1698	0.265730	0.159670	0.612050
C11291	C1129	0.254360	0.180640	0.651800
H11291	H1129	0.251900	0.184800	0.671000
N16991	N1699	0.245690	0.197040	0.629600
C11301	C1130	0.204500	0.228060	0.623210
H11301	H1130	0.192100	0.215100	0.614800
N17001	N1700	0.188220	0.393240	0.518470
N17011	N1701	0.186520	0.372320	0.559540
N17021	N1702	0.175720	0.411650	0.538250
N17031	N1703	0.188770	0.351410	0.579890
C11311	C1131	0.210920	0.347250	0.598110
H11311	H1131	0.227400	0.358200	0.598900
C11321	C1132	0.175100	0.398640	0.562670
H11321	H1132	0.168000	0.406200	0.579500
C11331	C1133	0.168720	0.331330	0.585950
H11331	H1133	0.151300	0.329300	0.576800
C11341	C1134	0.242480	0.247190	0.642310
H11341	H1134	0.260900	0.249700	0.649200
C11351	C1135	0.253340	0.183550	0.605360
H11351	H1135	0.250300	0.190200	0.587000
C11361	C1136	0.194790	0.369910	0.531900
H11361	H1136	0.203700	0.354200	0.523900
N17041	N1704	0.231850	0.222710	0.631440
Cu2851	Cu285	0.662800	0.779510	0.623310
Cu2861	Cu286	0.725430	0.807950	0.649960
N17051	N1705	0.722810	0.766470	0.641540
N17061	N1706	0.698800	0.754520	0.629140
N17071	N1707	0.678070	0.815410	0.606580
N17081	N1708	0.705140	0.825530	0.614090
N17091	N1709	0.766770	0.657990	0.641610
N17101	N1710	0.765730	0.659670	0.612050
C11371	C1137	0.754360	0.680640	0.651800
H11371	H1137	0.751900	0.684800	0.671000
N17111	N1711	0.745690	0.697040	0.629600
C11381	C1138	0.704500	0.728060	0.623210
H11381	H1138	0.692100	0.715100	0.614800
N17121	N1712	0.688220	0.893240	0.518470
N17131	N1713	0.686520	0.872320	0.559540
N17141	N1714	0.675720	0.911650	0.538250
N17151	N1715	0.688770	0.851410	0.579890
C11391	C1139	0.710920	0.847250	0.598110
H11391	H1139	0.727400	0.858200	0.598900
C11401	C1140	0.675100	0.898640	0.562670
H11401	H1140	0.668000	0.906200	0.579500
C11411	C1141	0.668720	0.831330	0.585950
H11411	H1141	0.651300	0.829300	0.576800
C11421	C1142	0.742480	0.747190	0.642310
H11421	H1142	0.760900	0.749700	0.649200
C11431	C1143	0.753340	0.683550	0.605360
H11431	H1143	0.750300	0.690200	0.587000
C11441	C1144	0.694790	0.869910	0.531900
H11441	H1144	0.703700	0.854200	0.523900
N17161	N1716	0.731850	0.722710	0.631440
Cu2871	Cu287	0.662800	0.279510	0.123310
Cu2881	Cu288	0.725430	0.307950	0.149960
N17171	N1717	0.722810	0.266470	0.141540
N17181	N1718	0.698800	0.254520	0.129140
N17191	N1719	0.678070	0.315410	0.106580
N17201	N1720	0.705140	0.325530	0.114090
N17211	N1721	0.766770	0.157990	0.141610
N17221	N1722	0.765730	0.159670	0.112050
C11451	C1145	0.754360	0.180640	0.151800
H11451	H1145	0.751900	0.184800	0.171000
N17231	N1723	0.745690	0.197040	0.129600
C11461	C1146	0.704500	0.228060	0.123210
H11461	H1146	0.692100	0.215100	0.114800
N17241	N1724	0.688220	0.393240	0.018470
N17251	N1725	0.686520	0.372320	0.059540
N17261	N1726	0.675720	0.411650	0.038250
N17271	N1727	0.688770	0.351410	0.079890
C11471	C1147	0.710920	0.347250	0.098110
H11471	H1147	0.727400	0.358200	0.098900
C11481	C1148	0.675100	0.398640	0.062670
H11481	H1148	0.668000	0.406200	0.079500
C11491	C1149	0.668720	0.331330	0.085950
H11491	H1149	0.651300	0.329300	0.076800
C11501	C1150	0.742480	0.247190	0.142310
H11501	H1150	0.760900	0.249700	0.149200
C11511	C1151	0.753340	0.183550	0.105360
H11511	H1151	0.750300	0.190200	0.087000
C11521	C1152	0.694790	0.369910	0.031900
H11521	H1152	0.703700	0.354200	0.023900
N17281	N1728	0.731850	0.222710	0.131440
Cu2891	Cu289	0.837200	0.373310	0.529510
Cu2901	Cu290	0.774570	0.399960	0.557950
N17291	N1729	0.777190	0.391540	0.516470
N17301	N1730	0.801200	0.379140	0.504520
N17311	N1731	0.821930	0.356580	0.565410
N17321	N1732	0.794860	0.364090	0.575530
N17331	N1733	0.733230	0.391610	0.407990
N17341	N1734	0.734270	0.362050	0.409670
C11531	C1153	0.745640	0.401800	0.430640
H11531	H1153	0.748100	0.421000	0.434800
N17351	N1735	0.754310	0.379600	0.447040
C11541	C1154	0.795500	0.373210	0.478060
H11541	H1154	0.807900	0.364800	0.465100
N17361	N1736	0.811780	0.268470	0.643240
N17371	N1737	0.813480	0.309540	0.622320
N17381	N1738	0.824280	0.288250	0.661650
N17391	N1739	0.811230	0.329890	0.601410
C11551	C1155	0.789080	0.348110	0.597250
H11551	H1155	0.772600	0.348900	0.608200
C11561	C1156	0.824900	0.312670	0.648640
H11561	H1156	0.832000	0.329500	0.656200
C11571	C1157	0.831280	0.335950	0.581330
H11571	H1157	0.848700	0.326800	0.579300
C11581	C1158	0.757520	0.392310	0.497190
H11581	H1158	0.739100	0.399200	0.499700
C11591	C1159	0.746660	0.355360	0.433550
H11591	H1159	0.749700	0.337000	0.440200
C11601	C1160	0.805210	0.281900	0.619910
H11601	H1160	0.796300	0.273900	0.604200
N17401	N1740	0.768150	0.381440	0.472710
Cu2911	Cu291	0.837200	0.873310	0.029510
Cu2921	Cu292	0.774570	0.899960	0.057950
N17411	N1741	0.777190	0.891540	0.016470
N17421	N1742	0.801200	0.879140	0.004520
N17431	N1743	0.821930	0.856580	0.065410
N17441	N1744	0.794860	0.864090	0.075530
N17451	N1745	0.733230	0.891610	0.907990
N17461	N1746	0.734270	0.862050	0.909670
C11611	C1161	0.745640	0.901800	0.930640
H11611	H1161	0.748100	0.921000	0.934800
N17471	N1747	0.754310	0.879600	0.947040
C11621	C1162	0.795500	0.873210	0.978060
H11621	H1162	0.807900	0.864800	0.965100
N17481	N1748	0.811780	0.768470	0.143240
N17491	N1749	0.813480	0.809540	0.122320
N17501	N1750	0.824280	0.788250	0.161650
N17511	N1751	0.811230	0.829890	0.101410
C11631	C1163	0.789080	0.848110	0.097250
H11631	H1163	0.772600	0.848900	0.108200
C11641	C1164	0.824900	0.812670	0.148640
H11641	H1164	0.832000	0.829500	0.156200
C11651	C1165	0.831280	0.835950	0.081330
H11651	H1165	0.848700	0.826800	0.079300
C11661	C1166	0.757520	0.892310	0.997190
H11661	H1166	0.739100	0.899200	0.999700
C11671	C1167	0.746660	0.855360	0.933550
H11671	H1167	0.749700	0.837000	0.940200
C11681	C1168	0.805210	0.781900	0.119910
H11681	H1168	0.796300	0.773900	0.104200
N17521	N1752	0.768150	0.881440	0.972710
Cu2931	Cu293	0.337200	0.373310	0.029510
Cu2941	Cu294	0.274570	0.399960	0.057950
N17531	N1753	0.277190	0.391540	0.016470
N17541	N1754	0.301200	0.379140	0.004520
N17551	N1755	0.321930	0.356580	0.065410
N17561	N1756	0.294860	0.364090	0.075530
N17571	N1757	0.233230	0.391610	0.907990
N17581	N1758	0.234270	0.362050	0.909670
C11691	C1169	0.245640	0.401800	0.930640
H11691	H1169	0.248100	0.421000	0.934800
N17591	N1759	0.254310	0.379600	0.947040
C11701	C1170	0.295500	0.373210	0.978060
H11701	H1170	0.307900	0.364800	0.965100
N17601	N1760	0.311780	0.268470	0.143240
N17611	N1761	0.313480	0.309540	0.122320
N17621	N1762	0.324280	0.288250	0.161650
N17631	N1763	0.311230	0.329890	0.101410
C11711	C1171	0.289080	0.348110	0.097250
H11711	H1171	0.272600	0.348900	0.108200
C11721	C1172	0.324900	0.312670	0.148640
H11721	H1172	0.332000	0.329500	0.156200
C11731	C1173	0.331280	0.335950	0.081330
H11731	H1173	0.348700	0.326800	0.079300
C11741	C1174	0.257520	0.392310	0.997190
H11741	H1174	0.239100	0.399200	0.999700
C11751	C1175	0.246660	0.355360	0.933550
H11751	H1175	0.249700	0.337000	0.940200
C11761	C1176	0.305210	0.281900	0.119910
H11761	H1176	0.296300	0.273900	0.104200
N17641	N1764	0.268150	0.381440	0.972710
Cu2951	Cu295	0.337200	0.873310	0.529510
Cu2961	Cu296	0.274570	0.899960	0.557950
N17651	N1765	0.277190	0.891540	0.516470
N17661	N1766	0.301200	0.879140	0.504520
N17671	N1767	0.321930	0.856580	0.565410
N17681	N1768	0.294860	0.864090	0.575530
N17691	N1769	0.233230	0.891610	0.407990
N17701	N1770	0.234270	0.862050	0.409670
C11771	C1177	0.245640	0.901800	0.430640
H11771	H1177	0.248100	0.921000	0.434800
N17711	N1771	0.254310	0.879600	0.447040
C11781	C1178	0.295500	0.873210	0.478060
H11781	H1178	0.307900	0.864800	0.465100
N17721	N1772	0.311780	0.768470	0.643240
N17731	N1773	0.313480	0.809540	0.622320
N17741	N1774	0.324280	0.788250	0.661650
N17751	N1775	0.311230	0.829890	0.601410
C11791	C1179	0.289080	0.848110	0.597250
H11791	H1179	0.272600	0.848900	0.608200
C11801	C1180	0.324900	0.812670	0.648640
H11801	H1180	0.332000	0.829500	0.656200
C11811	C1181	0.331280	0.835950	0.581330
H11811	H1181	0.348700	0.826800	0.579300
C11821	C1182	0.257520	0.892310	0.497190
H11821	H1182	0.239100	0.899200	0.499700
C11831	C1183	0.246660	0.855360	0.433550
H11831	H1183	0.249700	0.837000	0.440200
C11841	C1184	0.305210	0.781900	0.619910
H11841	H1184	0.296300	0.773900	0.604200
N17761	N1776	0.268150	0.881440	0.472710
Cu2971	Cu297	0.912800	0.876690	0.029510
Cu2981	Cu298	0.975430	0.850040	0.057950
N17771	N1777	0.972810	0.858460	0.016470
N17781	N1778	0.948800	0.870860	0.004520
N17791	N1779	0.928070	0.893420	0.065410
N17801	N1780	0.955140	0.885910	0.075530
N17811	N1781	0.016770	0.858390	0.907990
N17821	N1782	0.015730	0.887950	0.909670
C11851	C1185	0.004360	0.848200	0.930640
H11851	H1185	0.001900	0.829000	0.934800
N17831	N1783	0.995690	0.870400	0.947040
C11861	C1186	0.954500	0.876790	0.978060
H11861	H1186	0.942100	0.885200	0.965100
N17841	N1784	0.938220	0.981530	0.143240
N17851	N1785	0.936520	0.940460	0.122320
N17861	N1786	0.925720	0.961750	0.161650
N17871	N1787	0.938770	0.920110	0.101410
C11871	C1187	0.960920	0.901890	0.097250
H11871	H1187	0.977400	0.901100	0.108200
C11881	C1188	0.925100	0.937330	0.148640
H11881	H1188	0.918000	0.920500	0.156200
C11891	C1189	0.918720	0.914050	0.081330
H11891	H1189	0.901300	0.923200	0.079300
C11901	C1190	0.992480	0.857690	0.997190
H11901	H1190	0.010900	0.850800	0.999700
C11911	C1191	0.003340	0.894640	0.933550
H11911	H1191	0.000300	0.913000	0.940200
C11921	C1192	0.944790	0.968100	0.119910
H11921	H1192	0.953700	0.976100	0.104200
N17881	N1788	0.981850	0.868560	0.972710
Cu2991	Cu299	0.912800	0.376690	0.529510
Cu3001	Cu300	0.975430	0.350040	0.557950
N17891	N1789	0.972810	0.358460	0.516470
N17901	N1790	0.948800	0.370860	0.504520
N17911	N1791	0.928070	0.393420	0.565410
N17921	N1792	0.955140	0.385910	0.575530
N17931	N1793	0.016770	0.358390	0.407990
N17941	N1794	0.015730	0.387950	0.409670
C11931	C1193	0.004360	0.348200	0.430640
H11931	H1193	0.001900	0.329000	0.434800
N17951	N1795	0.995690	0.370400	0.447040
C11941	C1194	0.954500	0.376790	0.478060
H11941	H1194	0.942100	0.385200	0.465100
N17961	N1796	0.938220	0.481530	0.643240
N17971	N1797	0.936520	0.440460	0.622320
N17981	N1798	0.925720	0.461750	0.661650
N17991	N1799	0.938770	0.420110	0.601410
C11951	C1195	0.960920	0.401890	0.597250
H11951	H1195	0.977400	0.401100	0.608200
C11961	C1196	0.925100	0.437330	0.648640
H11961	H1196	0.918000	0.420500	0.656200
C11971	C1197	0.918720	0.414050	0.581330
H11971	H1197	0.901300	0.423200	0.579300
C11981	C1198	0.992480	0.357690	0.497190
H11981	H1198	0.010900	0.350800	0.499700
C11991	C1199	0.003340	0.394640	0.433550
H11991	H1199	0.000300	0.413000	0.440200
C12001	C1200	0.944790	0.468100	0.619910
H12001	H1200	0.953700	0.476100	0.604200
N18001	N1800	0.981850	0.368560	0.472710
Cu3011	Cu301	0.412800	0.876690	0.529510
Cu3021	Cu302	0.475430	0.850040	0.557950
N18011	N1801	0.472810	0.858460	0.516470
N18021	N1802	0.448800	0.870860	0.504520
N18031	N1803	0.428070	0.893420	0.565410
N18041	N1804	0.455140	0.885910	0.575530
N18051	N1805	0.516770	0.858390	0.407990
N18061	N1806	0.515730	0.887950	0.409670
C12011	C1201	0.504360	0.848200	0.430640
H12011	H1201	0.501900	0.829000	0.434800
N18071	N1807	0.495690	0.870400	0.447040
C12021	C1202	0.454500	0.876790	0.478060
H12021	H1202	0.442100	0.885200	0.465100
N18081	N1808	0.438220	0.981530	0.643240
N18091	N1809	0.436520	0.940460	0.622320
N18101	N1810	0.425720	0.961750	0.661650
N18111	N1811	0.438770	0.920110	0.601410
C12031	C1203	0.460920	0.901890	0.597250
H12031	H1203	0.477400	0.901100	0.608200
C12041	C1204	0.425100	0.937330	0.648640
H12041	H1204	0.418000	0.920500	0.656200
C12051	C1205	0.418720	0.914050	0.581330
H12051	H1205	0.401300	0.923200	0.579300
C12061	C1206	0.492480	0.857690	0.497190
H12061	H1206	0.510900	0.850800	0.499700
C12071	C1207	0.503340	0.894640	0.433550
H12071	H1207	0.500300	0.913000	0.440200
C12081	C1208	0.444790	0.968100	0.619910
H12081	H1208	0.453700	0.976100	0.604200
N18121	N1812	0.481850	0.868560	0.472710
Cu3031	Cu303	0.412800	0.376690	0.029510
Cu3041	Cu304	0.475430	0.350040	0.057950
N18131	N1813	0.472810	0.358460	0.016470
N18141	N1814	0.448800	0.370860	0.004520
N18151	N1815	0.428070	0.393420	0.065410
N18161	N1816	0.455140	0.385910	0.075530
N18171	N1817	0.516770	0.358390	0.907990
N18181	N1818	0.515730	0.387950	0.909670
C12091	C1209	0.504360	0.348200	0.930640
H12091	H1209	0.501900	0.329000	0.934800
N18191	N1819	0.495690	0.370400	0.947040
C12101	C1210	0.454500	0.376790	0.978060
H12101	H1210	0.442100	0.385200	0.965100
N18201	N1820	0.438220	0.481530	0.143240
N18211	N1821	0.436520	0.440460	0.122320
N18221	N1822	0.425720	0.461750	0.161650
N18231	N1823	0.438770	0.420110	0.101410
C12111	C1211	0.460920	0.401890	0.097250
H12111	H1211	0.477400	0.401100	0.108200
C12121	C1212	0.425100	0.437330	0.148640
H12121	H1212	0.418000	0.420500	0.156200
C12131	C1213	0.418720	0.414050	0.081330
H12131	H1213	0.401300	0.423200	0.079300
C12141	C1214	0.492480	0.357690	0.997190
H12141	H1214	0.510900	0.350800	0.999700
C12151	C1215	0.503340	0.394640	0.933550
H12151	H1215	0.500300	0.413000	0.940200
C12161	C1216	0.444790	0.468100	0.119910
H12161	H1216	0.453700	0.476100	0.104200
N18241	N1824	0.481850	0.368560	0.972710
Cu3051	Cu305	0.337200	0.376690	0.720500
Cu3061	Cu306	0.274570	0.350040	0.692050
N18251	N1825	0.277190	0.358460	0.733530
N18261	N1826	0.301200	0.370860	0.745480
N18271	N1827	0.321930	0.393420	0.684590
N18281	N1828	0.294860	0.385910	0.674470
N18291	N1829	0.233230	0.358390	0.842010
N18301	N1830	0.234270	0.387950	0.840330
C12171	C1217	0.245640	0.348200	0.819360
H12171	H1217	0.248100	0.329000	0.815200
N18311	N1831	0.254310	0.370400	0.802960
C12181	C1218	0.295500	0.376790	0.771940
H12181	H1218	0.307900	0.385200	0.784900
N18321	N1832	0.311780	0.481530	0.606760
N18331	N1833	0.313480	0.440460	0.627680
N18341	N1834	0.324280	0.461750	0.588350
N18351	N1835	0.311230	0.420110	0.648590
C12191	C1219	0.289080	0.401890	0.652750
H12191	H1219	0.272600	0.401100	0.641800
C12201	C1220	0.324900	0.437330	0.601360
H12201	H1220	0.332000	0.420500	0.593800
C12211	C1221	0.331280	0.414050	0.668670
H12211	H1221	0.348700	0.423200	0.670700
C12221	C1222	0.257520	0.357690	0.752810
H12221	H1222	0.239100	0.350800	0.750300
C12231	C1223	0.246660	0.394640	0.816450
H12231	H1223	0.249700	0.413000	0.809800
C12241	C1224	0.305210	0.468100	0.630090
H12241	H1224	0.296300	0.476100	0.645800
N18361	N1836	0.268150	0.368560	0.777290
Cu3071	Cu307	0.337200	0.876690	0.220500
Cu3081	Cu308	0.274570	0.850040	0.192050
N18371	N1837	0.277190	0.858460	0.233530
N18381	N1838	0.301200	0.870860	0.245480
N18391	N1839	0.321930	0.893420	0.184590
N18401	N1840	0.294860	0.885910	0.174470
N18411	N1841	0.233230	0.858390	0.342010
N18421	N1842	0.234270	0.887950	0.340330
C12251	C1225	0.245640	0.848200	0.319360
H12251	H1225	0.248100	0.829000	0.315200
N18431	N1843	0.254310	0.870400	0.302960
C12261	C1226	0.295500	0.876790	0.271940
H12261	H1226	0.307900	0.885200	0.284900
N18441	N1844	0.311780	0.981530	0.106760
N18451	N1845	0.313480	0.940460	0.127680
N18461	N1846	0.324280	0.961750	0.088350
N18471	N1847	0.311230	0.920110	0.148590
C12271	C1227	0.289080	0.901890	0.152750
H12271	H1227	0.272600	0.901100	0.141800
C12281	C1228	0.324900	0.937330	0.101360
H12281	H1228	0.332000	0.920500	0.093800
C12291	C1229	0.331280	0.914050	0.168670
H12291	H1229	0.348700	0.923200	0.170700
C12301	C1230	0.257520	0.857690	0.252810
H12301	H1230	0.239100	0.850800	0.250300
C12311	C1231	0.246660	0.894640	0.316450
H12311	H1231	0.249700	0.913000	0.309800
C12321	C1232	0.305210	0.968100	0.130090
H12321	H1232	0.296300	0.976100	0.145800
N18481	N1848	0.268150	0.868560	0.277290
Cu3091	Cu309	0.837200	0.376690	0.220500
Cu3101	Cu310	0.774570	0.350040	0.192050
N18491	N1849	0.777190	0.358460	0.233530
N18501	N1850	0.801200	0.370860	0.245480
N18511	N1851	0.821930	0.393420	0.184590
N18521	N1852	0.794860	0.385910	0.174470
N18531	N1853	0.733230	0.358390	0.342010
N18541	N1854	0.734270	0.387950	0.340330
C12331	C1233	0.745640	0.348200	0.319360
H12331	H1233	0.748100	0.329000	0.315200
N18551	N1855	0.754310	0.370400	0.302960
C12341	C1234	0.795500	0.376790	0.271940
H12341	H1234	0.807900	0.385200	0.284900
N18561	N1856	0.811780	0.481530	0.106760
N18571	N1857	0.813480	0.440460	0.127680
N18581	N1858	0.824280	0.461750	0.088350
N18591	N1859	0.811230	0.420110	0.148590
C12351	C1235	0.789080	0.401890	0.152750
H12351	H1235	0.772600	0.401100	0.141800
C12361	C1236	0.824900	0.437330	0.101360
H12361	H1236	0.832000	0.420500	0.093800
C12371	C1237	0.831280	0.414050	0.168670
H12371	H1237	0.848700	0.423200	0.170700
C12381	C1238	0.757520	0.357690	0.252810
H12381	H1238	0.739100	0.350800	0.250300
C12391	C1239	0.746660	0.394640	0.316450
H12391	H1239	0.749700	0.413000	0.309800
C12401	C1240	0.805210	0.468100	0.130090
H12401	H1240	0.796300	0.476100	0.145800
N18601	N1860	0.768150	0.368560	0.277290
Cu3111	Cu311	0.837200	0.876690	0.720500
Cu3121	Cu312	0.774570	0.850040	0.692050
N18611	N1861	0.777190	0.858460	0.733530
N18621	N1862	0.801200	0.870860	0.745480
N18631	N1863	0.821930	0.893420	0.684590
N18641	N1864	0.794860	0.885910	0.674470
N18651	N1865	0.733230	0.858390	0.842010
N18661	N1866	0.734270	0.887950	0.840330
C12411	C1241	0.745640	0.848200	0.819360
H12411	H1241	0.748100	0.829000	0.815200
N18671	N1867	0.754310	0.870400	0.802960
C12421	C1242	0.795500	0.876790	0.771940
H12421	H1242	0.807900	0.885200	0.784900
N18681	N1868	0.811780	0.981530	0.606760
N18691	N1869	0.813480	0.940460	0.627680
N18701	N1870	0.824280	0.961750	0.588350
N18711	N1871	0.811230	0.920110	0.648590
C12431	C1243	0.789080	0.901890	0.652750
H12431	H1243	0.772600	0.901100	0.641800
C12441	C1244	0.824900	0.937330	0.601360
H12441	H1244	0.832000	0.920500	0.593800
C12451	C1245	0.831280	0.914050	0.668670
H12451	H1245	0.848700	0.923200	0.670700
C12461	C1246	0.757520	0.857690	0.752810
H12461	H1246	0.739100	0.850800	0.750300
C12471	C1247	0.746660	0.894640	0.816450
H12471	H1247	0.749700	0.913000	0.809800
C12481	C1248	0.805210	0.968100	0.630090
H12481	H1248	0.796300	0.976100	0.645800
N18721	N1872	0.768150	0.868560	0.777290
Cu3131	Cu313	0.412800	0.873310	0.220500
Cu3141	Cu314	0.475430	0.899960	0.192050
N18731	N1873	0.472810	0.891540	0.233530
N18741	N1874	0.448800	0.879140	0.245480
N18751	N1875	0.428070	0.856580	0.184590
N18761	N1876	0.455140	0.864090	0.174470
N18771	N1877	0.516770	0.891610	0.342010
N18781	N1878	0.515730	0.862050	0.340330
C12491	C1249	0.504360	0.901800	0.319360
H12491	H1249	0.501900	0.921000	0.315200
N18791	N1879	0.495690	0.879600	0.302960
C12501	C1250	0.454500	0.873210	0.271940
H12501	H1250	0.442100	0.864800	0.284900
N18801	N1880	0.438220	0.768470	0.106760
N18811	N1881	0.436520	0.809540	0.127680
N18821	N1882	0.425720	0.788250	0.088350
N18831	N1883	0.438770	0.829890	0.148590
C12511	C1251	0.460920	0.848110	0.152750
H12511	H1251	0.477400	0.848900	0.141800
C12521	C1252	0.425100	0.812670	0.101360
H12521	H1252	0.418000	0.829500	0.093800
C12531	C1253	0.418720	0.835950	0.168670
H12531	H1253	0.401300	0.826800	0.170700
C12541	C1254	0.492480	0.892310	0.252810
H12541	H1254	0.510900	0.899200	0.250300
C12551	C1255	0.503340	0.855360	0.316450
H12551	H1255	0.500300	0.837000	0.309800
C12561	C1256	0.444790	0.781900	0.130090
H12561	H1256	0.453700	0.773900	0.145800
N18841	N1884	0.481850	0.881440	0.277290
Cu3151	Cu315	0.412800	0.373310	0.720500
Cu3161	Cu316	0.475430	0.399960	0.692050
N18851	N1885	0.472810	0.391540	0.733530
N18861	N1886	0.448800	0.379140	0.745480
N18871	N1887	0.428070	0.356580	0.684590
N18881	N1888	0.455140	0.364090	0.674470
N18891	N1889	0.516770	0.391610	0.842010
N18901	N1890	0.515730	0.362050	0.840330
C12571	C1257	0.504360	0.401800	0.819360
H12571	H1257	0.501900	0.421000	0.815200
N18911	N1891	0.495690	0.379600	0.802960
C12581	C1258	0.454500	0.373210	0.771940
H12581	H1258	0.442100	0.364800	0.784900
N18921	N1892	0.438220	0.268470	0.606760
N18931	N1893	0.436520	0.309540	0.627680
N18941	N1894	0.425720	0.288250	0.588350
N18951	N1895	0.438770	0.329890	0.648590
C12591	C1259	0.460920	0.348110	0.652750
H12591	H1259	0.477400	0.348900	0.641800
C12601	C1260	0.425100	0.312670	0.601360
H12601	H1260	0.418000	0.329500	0.593800
C12611	C1261	0.418720	0.335950	0.668670
H12611	H1261	0.401300	0.326800	0.670700
C12621	C1262	0.492480	0.392310	0.752810
H12621	H1262	0.510900	0.399200	0.750300
C12631	C1263	0.503340	0.355360	0.816450
H12631	H1263	0.500300	0.337000	0.809800
C12641	C1264	0.444790	0.281900	0.630090
H12641	H1264	0.453700	0.273900	0.645800
N18961	N1896	0.481850	0.381440	0.777290
Cu3171	Cu317	0.912800	0.873310	0.720500
Cu3181	Cu318	0.975430	0.899960	0.692050
N18971	N1897	0.972810	0.891540	0.733530
N18981	N1898	0.948800	0.879140	0.745480
N18991	N1899	0.928070	0.856580	0.684590
N19001	N1900	0.955140	0.864090	0.674470
N19011	N1901	0.016770	0.891610	0.842010
N19021	N1902	0.015730	0.862050	0.840330
C12651	C1265	0.004360	0.901800	0.819360
H12651	H1265	0.001900	0.921000	0.815200
N19031	N1903	0.995690	0.879600	0.802960
C12661	C1266	0.954500	0.873210	0.771940
H12661	H1266	0.942100	0.864800	0.784900
N19041	N1904	0.938220	0.768470	0.606760
N19051	N1905	0.936520	0.809540	0.627680
N19061	N1906	0.925720	0.788250	0.588350
N19071	N1907	0.938770	0.829890	0.648590
C12671	C1267	0.960920	0.848110	0.652750
H12671	H1267	0.977400	0.848900	0.641800
C12681	C1268	0.925100	0.812670	0.601360
H12681	H1268	0.918000	0.829500	0.593800
C12691	C1269	0.918720	0.835950	0.668670
H12691	H1269	0.901300	0.826800	0.670700
C12701	C1270	0.992480	0.892310	0.752810
H12701	H1270	0.010900	0.899200	0.750300
C12711	C1271	0.003340	0.855360	0.816450
H12711	H1271	0.000300	0.837000	0.809800
C12721	C1272	0.944790	0.781900	0.630090
H12721	H1272	0.953700	0.773900	0.645800
N19081	N1908	0.981850	0.881440	0.777290
Cu3191	Cu319	0.912800	0.373310	0.220500
Cu3201	Cu320	0.975430	0.399960	0.192050
N19091	N1909	0.972810	0.391540	0.233530
N19101	N1910	0.948800	0.379140	0.245480
N19111	N1911	0.928070	0.356580	0.184590
N19121	N1912	0.955140	0.364090	0.174470
N19131	N1913	0.016770	0.391610	0.342010
N19141	N1914	0.015730	0.362050	0.340330
C12731	C1273	0.004360	0.401800	0.319360
H12731	H1273	0.001900	0.421000	0.315200
N19151	N1915	0.995690	0.379600	0.302960
C12741	C1274	0.954500	0.373210	0.271940
H12741	H1274	0.942100	0.364800	0.284900
N19161	N1916	0.938220	0.268470	0.106760
N19171	N1917	0.936520	0.309540	0.127680
N19181	N1918	0.925720	0.288250	0.088350
N19191	N1919	0.938770	0.329890	0.148590
C12751	C1275	0.960920	0.348110	0.152750
H12751	H1275	0.977400	0.348900	0.141800
C12761	C1276	0.925100	0.312670	0.101360
H12761	H1276	0.918000	0.329500	0.093800
C12771	C1277	0.918720	0.335950	0.168670
H12771	H1277	0.901300	0.326800	0.170700
C12781	C1278	0.992480	0.392310	0.252810
H12781	H1278	0.010900	0.399200	0.250300
C12791	C1279	0.003340	0.355360	0.316450
H12791	H1279	0.000300	0.337000	0.309800
C12801	C1280	0.944790	0.281900	0.130090
H12801	H1280	0.953700	0.273900	0.145800
N19201	N1920	0.981850	0.381440	0.277290
Cu3211	Cu321	0.873310	0.220500	0.412800
Cu3221	Cu322	0.899960	0.192050	0.475430
N19211	N1921	0.891540	0.233530	0.472810
N19221	N1922	0.879140	0.245480	0.448800
N19231	N1923	0.856580	0.184590	0.428070
N19241	N1924	0.864090	0.174470	0.455140
N19251	N1925	0.891610	0.342010	0.516770
N19261	N1926	0.862050	0.340330	0.515730
C12811	C1281	0.901800	0.319360	0.504360
H12811	H1281	0.921000	0.315200	0.501900
N19271	N1927	0.879600	0.302960	0.495690
C12821	C1282	0.873210	0.271940	0.454500
H12821	H1282	0.864800	0.284900	0.442100
N19281	N1928	0.768470	0.106760	0.438220
N19291	N1929	0.809540	0.127680	0.436520
N19301	N1930	0.788250	0.088350	0.425720
N19311	N1931	0.829890	0.148590	0.438770
C12831	C1283	0.848110	0.152750	0.460920
H12831	H1283	0.848900	0.141800	0.477400
C12841	C1284	0.812670	0.101360	0.425100
H12841	H1284	0.829500	0.093800	0.418000
C12851	C1285	0.835950	0.168670	0.418720
H12851	H1285	0.826800	0.170700	0.401300
C12861	C1286	0.892310	0.252810	0.492480
H12861	H1286	0.899200	0.250300	0.510900
C12871	C1287	0.855360	0.316450	0.503340
H12871	H1287	0.837000	0.309800	0.500300
C12881	C1288	0.781900	0.130090	0.444790
H12881	H1288	0.773900	0.145800	0.453700
N19321	N1932	0.881440	0.277290	0.481850
Cu3231	Cu323	0.873310	0.720500	0.912800
Cu3241	Cu324	0.899960	0.692050	0.975430
N19331	N1933	0.891540	0.733530	0.972810
N19341	N1934	0.879140	0.745480	0.948800
N19351	N1935	0.856580	0.684590	0.928070
N19361	N1936	0.864090	0.674470	0.955140
N19371	N1937	0.891610	0.842010	0.016770
N19381	N1938	0.862050	0.840330	0.015730
C12891	C1289	0.901800	0.819360	0.004360
H12891	H1289	0.921000	0.815200	0.001900
N19391	N1939	0.879600	0.802960	0.995690
C12901	C1290	0.873210	0.771940	0.954500
H12901	H1290	0.864800	0.784900	0.942100
N19401	N1940	0.768470	0.606760	0.938220
N19411	N1941	0.809540	0.627680	0.936520
N19421	N1942	0.788250	0.588350	0.925720
N19431	N1943	0.829890	0.648590	0.938770
C12911	C1291	0.848110	0.652750	0.960920
H12911	H1291	0.848900	0.641800	0.977400
C12921	C1292	0.812670	0.601360	0.925100
H12921	H1292	0.829500	0.593800	0.918000
C12931	C1293	0.835950	0.668670	0.918720
H12931	H1293	0.826800	0.670700	0.901300
C12941	C1294	0.892310	0.752810	0.992480
H12941	H1294	0.899200	0.750300	0.010900
C12951	C1295	0.855360	0.816450	0.003340
H12951	H1295	0.837000	0.809800	0.000300
C12961	C1296	0.781900	0.630090	0.944790
H12961	H1296	0.773900	0.645800	0.953700
N19441	N1944	0.881440	0.777290	0.981850
Cu3251	Cu325	0.373310	0.220500	0.912800
Cu3261	Cu326	0.399960	0.192050	0.975430
N19451	N1945	0.391540	0.233530	0.972810
N19461	N1946	0.379140	0.245480	0.948800
N19471	N1947	0.356580	0.184590	0.928070
N19481	N1948	0.364090	0.174470	0.955140
N19491	N1949	0.391610	0.342010	0.016770
N19501	N1950	0.362050	0.340330	0.015730
C12971	C1297	0.401800	0.319360	0.004360
H12971	H1297	0.421000	0.315200	0.001900
N19511	N1951	0.379600	0.302960	0.995690
C12981	C1298	0.373210	0.271940	0.954500
H12981	H1298	0.364800	0.284900	0.942100
N19521	N1952	0.268470	0.106760	0.938220
N19531	N1953	0.309540	0.127680	0.936520
N19541	N1954	0.288250	0.088350	0.925720
N19551	N1955	0.329890	0.148590	0.938770
C12991	C1299	0.348110	0.152750	0.960920
H12991	H1299	0.348900	0.141800	0.977400
C13001	C1300	0.312670	0.101360	0.925100
H13001	H1300	0.329500	0.093800	0.918000
C13011	C1301	0.335950	0.168670	0.918720
H13011	H1301	0.326800	0.170700	0.901300
C13021	C1302	0.392310	0.252810	0.992480
H13021	H1302	0.399200	0.250300	0.010900
C13031	C1303	0.355360	0.316450	0.003340
H13031	H1303	0.337000	0.309800	0.000300
C13041	C1304	0.281900	0.130090	0.944790
H13041	H1304	0.273900	0.145800	0.953700
N19561	N1956	0.381440	0.277290	0.981850
Cu3271	Cu327	0.373310	0.720500	0.412800
Cu3281	Cu328	0.399960	0.692050	0.475430
N19571	N1957	0.391540	0.733530	0.472810
N19581	N1958	0.379140	0.745480	0.448800
N19591	N1959	0.356580	0.684590	0.428070
N19601	N1960	0.364090	0.674470	0.455140
N19611	N1961	0.391610	0.842010	0.516770
N19621	N1962	0.362050	0.840330	0.515730
C13051	C1305	0.401800	0.819360	0.504360
H13051	H1305	0.421000	0.815200	0.501900
N19631	N1963	0.379600	0.802960	0.495690
C13061	C1306	0.373210	0.771940	0.454500
H13061	H1306	0.364800	0.784900	0.442100
N19641	N1964	0.268470	0.606760	0.438220
N19651	N1965	0.309540	0.627680	0.436520
N19661	N1966	0.288250	0.588350	0.425720
N19671	N1967	0.329890	0.648590	0.438770
C13071	C1307	0.348110	0.652750	0.460920
H13071	H1307	0.348900	0.641800	0.477400
C13081	C1308	0.312670	0.601360	0.425100
H13081	H1308	0.329500	0.593800	0.418000
C13091	C1309	0.335950	0.668670	0.418720
H13091	H1309	0.326800	0.670700	0.401300
C13101	C1310	0.392310	0.752810	0.492480
H13101	H1310	0.399200	0.750300	0.510900
C13111	C1311	0.355360	0.816450	0.503340
H13111	H1311	0.337000	0.809800	0.500300
C13121	C1312	0.281900	0.630090	0.444790
H13121	H1312	0.273900	0.645800	0.453700
N19681	N1968	0.381440	0.777290	0.481850
Cu3291	Cu329	0.376690	0.720500	0.337200
Cu3301	Cu330	0.350040	0.692050	0.274570
N19691	N1969	0.358460	0.733530	0.277190
N19701	N1970	0.370860	0.745480	0.301200
N19711	N1971	0.393420	0.684590	0.321930
N19721	N1972	0.385910	0.674470	0.294860
N19731	N1973	0.358390	0.842010	0.233230
N19741	N1974	0.387950	0.840330	0.234270
C13131	C1313	0.348200	0.819360	0.245640
H13131	H1313	0.329000	0.815200	0.248100
N19751	N1975	0.370400	0.802960	0.254310
C13141	C1314	0.376790	0.771940	0.295500
H13141	H1314	0.385200	0.784900	0.307900
N19761	N1976	0.481530	0.606760	0.311780
N19771	N1977	0.440460	0.627680	0.313480
N19781	N1978	0.461750	0.588350	0.324280
N19791	N1979	0.420110	0.648590	0.311230
C13151	C1315	0.401890	0.652750	0.289080
H13151	H1315	0.401100	0.641800	0.272600
C13161	C1316	0.437330	0.601360	0.324900
H13161	H1316	0.420500	0.593800	0.332000
C13171	C1317	0.414050	0.668670	0.331280
H13171	H1317	0.423200	0.670700	0.348700
C13181	C1318	0.357690	0.752810	0.257520
H13181	H1318	0.350800	0.750300	0.239100
C13191	C1319	0.394640	0.816450	0.246660
H13191	H1319	0.413000	0.809800	0.249700
C13201	C1320	0.468100	0.630090	0.305210
H13201	H1320	0.476100	0.645800	0.296300
N19801	N1980	0.368560	0.777290	0.268150
Cu3311	Cu331	0.376690	0.220500	0.837200
Cu3321	Cu332	0.350040	0.192050	0.774570
N19811	N1981	0.358460	0.233530	0.777190
N19821	N1982	0.370860	0.245480	0.801200
N19831	N1983	0.393420	0.184590	0.821930
N19841	N1984	0.385910	0.174470	0.794860
N19851	N1985	0.358390	0.342010	0.733230
N19861	N1986	0.387950	0.340330	0.734270
C13211	C1321	0.348200	0.319360	0.745640
H13211	H1321	0.329000	0.315200	0.748100
N19871	N1987	0.370400	0.302960	0.754310
C13221	C1322	0.376790	0.271940	0.795500
H13221	H1322	0.385200	0.284900	0.807900
N19881	N1988	0.481530	0.106760	0.811780
N19891	N1989	0.440460	0.127680	0.813480
N19901	N1990	0.461750	0.088350	0.824280
N19911	N1991	0.420110	0.148590	0.811230
C13231	C1323	0.401890	0.152750	0.789080
H13231	H1323	0.401100	0.141800	0.772600
C13241	C1324	0.437330	0.101360	0.824900
H13241	H1324	0.420500	0.093800	0.832000
C13251	C1325	0.414050	0.168670	0.831280
H13251	H1325	0.423200	0.170700	0.848700
C13261	C1326	0.357690	0.252810	0.757520
H13261	H1326	0.350800	0.250300	0.739100
C13271	C1327	0.394640	0.316450	0.746660
H13271	H1327	0.413000	0.309800	0.749700
C13281	C1328	0.468100	0.130090	0.805210
H13281	H1328	0.476100	0.145800	0.796300
N19921	N1992	0.368560	0.277290	0.768150
Cu3331	Cu333	0.876690	0.720500	0.837200
Cu3341	Cu334	0.850040	0.692050	0.774570
N19931	N1993	0.858460	0.733530	0.777190
N19941	N1994	0.870860	0.745480	0.801200
N19951	N1995	0.893420	0.684590	0.821930
N19961	N1996	0.885910	0.674470	0.794860
N19971	N1997	0.858390	0.842010	0.733230
N19981	N1998	0.887950	0.840330	0.734270
C13291	C1329	0.848200	0.819360	0.745640
H13291	H1329	0.829000	0.815200	0.748100
N19991	N1999	0.870400	0.802960	0.754310
C13301	C1330	0.876790	0.771940	0.795500
H13301	H1330	0.885200	0.784900	0.807900
N20001	N2000	0.981530	0.606760	0.811780
N20011	N2001	0.940460	0.627680	0.813480
N20021	N2002	0.961750	0.588350	0.824280
N20031	N2003	0.920110	0.648590	0.811230
C13311	C1331	0.901890	0.652750	0.789080
H13311	H1331	0.901100	0.641800	0.772600
C13321	C1332	0.937330	0.601360	0.824900
H13321	H1332	0.920500	0.593800	0.832000
C13331	C1333	0.914050	0.668670	0.831280
H13331	H1333	0.923200	0.670700	0.848700
C13341	C1334	0.857690	0.752810	0.757520
H13341	H1334	0.850800	0.750300	0.739100
C13351	C1335	0.894640	0.816450	0.746660
H13351	H1335	0.913000	0.809800	0.749700
C13361	C1336	0.968100	0.630090	0.805210
H13361	H1336	0.976100	0.645800	0.796300
N20041	N2004	0.868560	0.777290	0.768150
Cu3351	Cu335	0.876690	0.220500	0.337200
Cu3361	Cu336	0.850040	0.192050	0.274570
N20051	N2005	0.858460	0.233530	0.277190
N20061	N2006	0.870860	0.245480	0.301200
N20071	N2007	0.893420	0.184590	0.321930
N20081	N2008	0.885910	0.174470	0.294860
N20091	N2009	0.858390	0.342010	0.233230
N20101	N2010	0.887950	0.340330	0.234270
C13371	C1337	0.848200	0.319360	0.245640
H13371	H1337	0.829000	0.315200	0.248100
N20111	N2011	0.870400	0.302960	0.254310
C13381	C1338	0.876790	0.271940	0.295500
H13381	H1338	0.885200	0.284900	0.307900
N20121	N2012	0.981530	0.106760	0.311780
N20131	N2013	0.940460	0.127680	0.313480
N20141	N2014	0.961750	0.088350	0.324280
N20151	N2015	0.920110	0.148590	0.311230
C13391	C1339	0.901890	0.152750	0.289080
H13391	H1339	0.901100	0.141800	0.272600
C13401	C1340	0.937330	0.101360	0.324900
H13401	H1340	0.920500	0.093800	0.332000
C13411	C1341	0.914050	0.168670	0.331280
H13411	H1341	0.923200	0.170700	0.348700
C13421	C1342	0.857690	0.252810	0.257520
H13421	H1342	0.850800	0.250300	0.239100
C13431	C1343	0.894640	0.316450	0.246660
H13431	H1343	0.913000	0.309800	0.249700
C13441	C1344	0.968100	0.130090	0.305210
H13441	H1344	0.976100	0.145800	0.296300
N20161	N2016	0.868560	0.277290	0.268150
Cu3371	Cu337	0.876690	0.029510	0.912800
Cu3381	Cu338	0.850040	0.057950	0.975430
N20171	N2017	0.858460	0.016470	0.972810
N20181	N2018	0.870860	0.004520	0.948800
N20191	N2019	0.893420	0.065410	0.928070
N20201	N2020	0.885910	0.075530	0.955140
N20211	N2021	0.858390	0.907990	0.016770
N20221	N2022	0.887950	0.909670	0.015730
C13451	C1345	0.848200	0.930640	0.004360
H13451	H1345	0.829000	0.934800	0.001900
N20231	N2023	0.870400	0.947040	0.995690
C13461	C1346	0.876790	0.978060	0.954500
H13461	H1346	0.885200	0.965100	0.942100
N20241	N2024	0.981530	0.143240	0.938220
N20251	N2025	0.940460	0.122320	0.936520
N20261	N2026	0.961750	0.161650	0.925720
N20271	N2027	0.920110	0.101410	0.938770
C13471	C1347	0.901890	0.097250	0.960920
H13471	H1347	0.901100	0.108200	0.977400
C13481	C1348	0.937330	0.148640	0.925100
H13481	H1348	0.920500	0.156200	0.918000
C13491	C1349	0.914050	0.081330	0.918720
H13491	H1349	0.923200	0.079300	0.901300
C13501	C1350	0.857690	0.997190	0.992480
H13501	H1350	0.850800	0.999700	0.010900
C13511	C1351	0.894640	0.933550	0.003340
H13511	H1351	0.913000	0.940200	0.000300
C13521	C1352	0.968100	0.119910	0.944790
H13521	H1352	0.976100	0.104200	0.953700
N20281	N2028	0.868560	0.972710	0.981850
Cu3391	Cu339	0.876690	0.529510	0.412800
Cu3401	Cu340	0.850040	0.557950	0.475430
N20291	N2029	0.858460	0.516470	0.472810
N20301	N2030	0.870860	0.504520	0.448800
N20311	N2031	0.893420	0.565410	0.428070
N20321	N2032	0.885910	0.575530	0.455140
N20331	N2033	0.858390	0.407990	0.516770
N20341	N2034	0.887950	0.409670	0.515730
C13531	C1353	0.848200	0.430640	0.504360
H13531	H1353	0.829000	0.434800	0.501900
N20351	N2035	0.870400	0.447040	0.495690
C13541	C1354	0.876790	0.478060	0.454500
H13541	H1354	0.885200	0.465100	0.442100
N20361	N2036	0.981530	0.643240	0.438220
N20371	N2037	0.940460	0.622320	0.436520
N20381	N2038	0.961750	0.661650	0.425720
N20391	N2039	0.920110	0.601410	0.438770
C13551	C1355	0.901890	0.597250	0.460920
H13551	H1355	0.901100	0.608200	0.477400
C13561	C1356	0.937330	0.648640	0.425100
H13561	H1356	0.920500	0.656200	0.418000
C13571	C1357	0.914050	0.581330	0.418720
H13571	H1357	0.923200	0.579300	0.401300
C13581	C1358	0.857690	0.497190	0.492480
H13581	H1358	0.850800	0.499700	0.510900
C13591	C1359	0.894640	0.433550	0.503340
H13591	H1359	0.913000	0.440200	0.500300
C13601	C1360	0.968100	0.619910	0.444790
H13601	H1360	0.976100	0.604200	0.453700
N20401	N2040	0.868560	0.472710	0.481850
Cu3411	Cu341	0.376690	0.029510	0.412800
Cu3421	Cu342	0.350040	0.057950	0.475430
N20411	N2041	0.358460	0.016470	0.472810
N20421	N2042	0.370860	0.004520	0.448800
N20431	N2043	0.393420	0.065410	0.428070
N20441	N2044	0.385910	0.075530	0.455140
N20451	N2045	0.358390	0.907990	0.516770
N20461	N2046	0.387950	0.909670	0.515730
C13611	C1361	0.348200	0.930640	0.504360
H13611	H1361	0.329000	0.934800	0.501900
N20471	N2047	0.370400	0.947040	0.495690
C13621	C1362	0.376790	0.978060	0.454500
H13621	H1362	0.385200	0.965100	0.442100
N20481	N2048	0.481530	0.143240	0.438220
N20491	N2049	0.440460	0.122320	0.436520
N20501	N2050	0.461750	0.161650	0.425720
N20511	N2051	0.420110	0.101410	0.438770
C13631	C1363	0.401890	0.097250	0.460920
H13631	H1363	0.401100	0.108200	0.477400
C13641	C1364	0.437330	0.148640	0.425100
H13641	H1364	0.420500	0.156200	0.418000
C13651	C1365	0.414050	0.081330	0.418720
H13651	H1365	0.423200	0.079300	0.401300
C13661	C1366	0.357690	0.997190	0.492480
H13661	H1366	0.350800	0.999700	0.510900
C13671	C1367	0.394640	0.933550	0.503340
H13671	H1367	0.413000	0.940200	0.500300
C13681	C1368	0.468100	0.119910	0.444790
H13681	H1368	0.476100	0.104200	0.453700
N20521	N2052	0.368560	0.972710	0.481850
Cu3431	Cu343	0.376690	0.529510	0.912800
Cu3441	Cu344	0.350040	0.557950	0.975430
N20531	N2053	0.358460	0.516470	0.972810
N20541	N2054	0.370860	0.504520	0.948800
N20551	N2055	0.393420	0.565410	0.928070
N20561	N2056	0.385910	0.575530	0.955140
N20571	N2057	0.358390	0.407990	0.016770
N20581	N2058	0.387950	0.409670	0.015730
C13691	C1369	0.348200	0.430640	0.004360
H13691	H1369	0.329000	0.434800	0.001900
N20591	N2059	0.370400	0.447040	0.995690
C13701	C1370	0.376790	0.478060	0.954500
H13701	H1370	0.385200	0.465100	0.942100
N20601	N2060	0.481530	0.643240	0.938220
N20611	N2061	0.440460	0.622320	0.936520
N20621	N2062	0.461750	0.661650	0.925720
N20631	N2063	0.420110	0.601410	0.938770
C13711	C1371	0.401890	0.597250	0.960920
H13711	H1371	0.401100	0.608200	0.977400
C13721	C1372	0.437330	0.648640	0.925100
H13721	H1372	0.420500	0.656200	0.918000
C13731	C1373	0.414050	0.581330	0.918720
H13731	H1373	0.423200	0.579300	0.901300
C13741	C1374	0.357690	0.497190	0.992480
H13741	H1374	0.350800	0.499700	0.010900
C13751	C1375	0.394640	0.433550	0.003340
H13751	H1375	0.413000	0.440200	0.000300
C13761	C1376	0.468100	0.619910	0.944790
H13761	H1376	0.476100	0.604200	0.953700
N20641	N2064	0.368560	0.472710	0.981850
Cu3451	Cu345	0.373310	0.529510	0.837200
Cu3461	Cu346	0.399960	0.557950	0.774570
N20651	N2065	0.391540	0.516470	0.777190
N20661	N2066	0.379140	0.504520	0.801200
N20671	N2067	0.356580	0.565410	0.821930
N20681	N2068	0.364090	0.575530	0.794860
N20691	N2069	0.391610	0.407990	0.733230
N20701	N2070	0.362050	0.409670	0.734270
C13771	C1377	0.401800	0.430640	0.745640
H13771	H1377	0.421000	0.434800	0.748100
N20711	N2071	0.379600	0.447040	0.754310
C13781	C1378	0.373210	0.478060	0.795500
H13781	H1378	0.364800	0.465100	0.807900
N20721	N2072	0.268470	0.643240	0.811780
N20731	N2073	0.309540	0.622320	0.813480
N20741	N2074	0.288250	0.661650	0.824280
N20751	N2075	0.329890	0.601410	0.811230
C13791	C1379	0.348110	0.597250	0.789080
H13791	H1379	0.348900	0.608200	0.772600
C13801	C1380	0.312670	0.648640	0.824900
H13801	H1380	0.329500	0.656200	0.832000
C13811	C1381	0.335950	0.581330	0.831280
H13811	H1381	0.326800	0.579300	0.848700
C13821	C1382	0.392310	0.497190	0.757520
H13821	H1382	0.399200	0.499700	0.739100
C13831	C1383	0.355360	0.433550	0.746660
H13831	H1383	0.337000	0.440200	0.749700
C13841	C1384	0.281900	0.619910	0.805210
H13841	H1384	0.273900	0.604200	0.796300
N20761	N2076	0.381440	0.472710	0.768150
Cu3471	Cu347	0.373310	0.029510	0.337200
Cu3481	Cu348	0.399960	0.057950	0.274570
N20771	N2077	0.391540	0.016470	0.277190
N20781	N2078	0.379140	0.004520	0.301200
N20791	N2079	0.356580	0.065410	0.321930
N20801	N2080	0.364090	0.075530	0.294860
N20811	N2081	0.391610	0.907990	0.233230
N20821	N2082	0.362050	0.909670	0.234270
C13851	C1385	0.401800	0.930640	0.245640
H13851	H1385	0.421000	0.934800	0.248100
N20831	N2083	0.379600	0.947040	0.254310
C13861	C1386	0.373210	0.978060	0.295500
H13861	H1386	0.364800	0.965100	0.307900
N20841	N2084	0.268470	0.143240	0.311780
N20851	N2085	0.309540	0.122320	0.313480
N20861	N2086	0.288250	0.161650	0.324280
N20871	N2087	0.329890	0.101410	0.311230
C13871	C1387	0.348110	0.097250	0.289080
H13871	H1387	0.348900	0.108200	0.272600
C13881	C1388	0.312670	0.148640	0.324900
H13881	H1388	0.329500	0.156200	0.332000
C13891	C1389	0.335950	0.081330	0.331280
H13891	H1389	0.326800	0.079300	0.348700
C13901	C1390	0.392310	0.997190	0.257520
H13901	H1390	0.399200	0.999700	0.239100
C13911	C1391	0.355360	0.933550	0.246660
H13911	H1391	0.337000	0.940200	0.249700
C13921	C1392	0.281900	0.119910	0.305210
H13921	H1392	0.273900	0.104200	0.296300
N20881	N2088	0.381440	0.972710	0.268150
Cu3491	Cu349	0.873310	0.529510	0.337200
Cu3501	Cu350	0.899960	0.557950	0.274570
N20891	N2089	0.891540	0.516470	0.277190
N20901	N2090	0.879140	0.504520	0.301200
N20911	N2091	0.856580	0.565410	0.321930
N20921	N2092	0.864090	0.575530	0.294860
N20931	N2093	0.891610	0.407990	0.233230
N20941	N2094	0.862050	0.409670	0.234270
C13931	C1393	0.901800	0.430640	0.245640
H13931	H1393	0.921000	0.434800	0.248100
N20951	N2095	0.879600	0.447040	0.254310
C13941	C1394	0.873210	0.478060	0.295500
H13941	H1394	0.864800	0.465100	0.307900
N20961	N2096	0.768470	0.643240	0.311780
N20971	N2097	0.809540	0.622320	0.313480
N20981	N2098	0.788250	0.661650	0.324280
N20991	N2099	0.829890	0.601410	0.311230
C13951	C1395	0.848110	0.597250	0.289080
H13951	H1395	0.848900	0.608200	0.272600
C13961	C1396	0.812670	0.648640	0.324900
H13961	H1396	0.829500	0.656200	0.332000
C13971	C1397	0.835950	0.581330	0.331280
H13971	H1397	0.826800	0.579300	0.348700
C13981	C1398	0.892310	0.497190	0.257520
H13981	H1398	0.899200	0.499700	0.239100
C13991	C1399	0.855360	0.433550	0.246660
H13991	H1399	0.837000	0.440200	0.249700
C14001	C1400	0.781900	0.619910	0.305210
H14001	H1400	0.773900	0.604200	0.296300
N21001	N2100	0.881440	0.472710	0.268150
Cu3511	Cu351	0.873310	0.029510	0.837200
Cu3521	Cu352	0.899960	0.057950	0.774570
N21011	N2101	0.891540	0.016470	0.777190
N21021	N2102	0.879140	0.004520	0.801200
N21031	N2103	0.856580	0.065410	0.821930
N21041	N2104	0.864090	0.075530	0.794860
N21051	N2105	0.891610	0.907990	0.733230
N21061	N2106	0.862050	0.909670	0.734270
C14011	C1401	0.901800	0.930640	0.745640
H14011	H1401	0.921000	0.934800	0.748100
N21071	N2107	0.879600	0.947040	0.754310
C14021	C1402	0.873210	0.978060	0.795500
H14021	H1402	0.864800	0.965100	0.807900
N21081	N2108	0.768470	0.143240	0.811780
N21091	N2109	0.809540	0.122320	0.813480
N21101	N2110	0.788250	0.161650	0.824280
N21111	N2111	0.829890	0.101410	0.811230
C14031	C1403	0.848110	0.097250	0.789080
H14031	H1403	0.848900	0.108200	0.772600
C14041	C1404	0.812670	0.148640	0.824900
H14041	H1404	0.829500	0.156200	0.832000
C14051	C1405	0.835950	0.081330	0.831280
H14051	H1405	0.826800	0.079300	0.848700
C14061	C1406	0.892310	0.997190	0.757520
H14061	H1406	0.899200	0.999700	0.739100
C14071	C1407	0.855360	0.933550	0.746660
H14071	H1407	0.837000	0.940200	0.749700
C14081	C1408	0.781900	0.119910	0.805210
H14081	H1408	0.773900	0.104200	0.796300
N21121	N2112	0.881440	0.972710	0.768150
Cu3531	Cu353	0.720500	0.337200	0.376690
Cu3541	Cu354	0.692050	0.274570	0.350040
N21131	N2113	0.733530	0.277190	0.358460
N21141	N2114	0.745480	0.301200	0.370860
N21151	N2115	0.684590	0.321930	0.393420
N21161	N2116	0.674470	0.294860	0.385910
N21171	N2117	0.842010	0.233230	0.358390
N21181	N2118	0.840330	0.234270	0.387950
C14091	C1409	0.819360	0.245640	0.348200
H14091	H1409	0.815200	0.248100	0.329000
N21191	N2119	0.802960	0.254310	0.370400
C14101	C1410	0.771940	0.295500	0.376790
H14101	H1410	0.784900	0.307900	0.385200
N21201	N2120	0.606760	0.311780	0.481530
N21211	N2121	0.627680	0.313480	0.440460
N21221	N2122	0.588350	0.324280	0.461750
N21231	N2123	0.648590	0.311230	0.420110
C14111	C1411	0.652750	0.289080	0.401890
H14111	H1411	0.641800	0.272600	0.401100
C14121	C1412	0.601360	0.324900	0.437330
H14121	H1412	0.593800	0.332000	0.420500
C14131	C1413	0.668670	0.331280	0.414050
H14131	H1413	0.670700	0.348700	0.423200
C14141	C1414	0.752810	0.257520	0.357690
H14141	H1414	0.750300	0.239100	0.350800
C14151	C1415	0.816450	0.246660	0.394640
H14151	H1415	0.809800	0.249700	0.413000
C14161	C1416	0.630090	0.305210	0.468100
H14161	H1416	0.645800	0.296300	0.476100
N21241	N2124	0.777290	0.268150	0.368560
Cu3551	Cu355	0.720500	0.837200	0.876690
Cu3561	Cu356	0.692050	0.774570	0.850040
N21251	N2125	0.733530	0.777190	0.858460
N21261	N2126	0.745480	0.801200	0.870860
N21271	N2127	0.684590	0.821930	0.893420
N21281	N2128	0.674470	0.794860	0.885910
N21291	N2129	0.842010	0.733230	0.858390
N21301	N2130	0.840330	0.734270	0.887950
C14171	C1417	0.819360	0.745640	0.848200
H14171	H1417	0.815200	0.748100	0.829000
N21311	N2131	0.802960	0.754310	0.870400
C14181	C1418	0.771940	0.795500	0.876790
H14181	H1418	0.784900	0.807900	0.885200
N21321	N2132	0.606760	0.811780	0.981530
N21331	N2133	0.627680	0.813480	0.940460
N21341	N2134	0.588350	0.824280	0.961750
N21351	N2135	0.648590	0.811230	0.920110
C14191	C1419	0.652750	0.789080	0.901890
H14191	H1419	0.641800	0.772600	0.901100
C14201	C1420	0.601360	0.824900	0.937330
H14201	H1420	0.593800	0.832000	0.920500
C14211	C1421	0.668670	0.831280	0.914050
H14211	H1421	0.670700	0.848700	0.923200
C14221	C1422	0.752810	0.757520	0.857690
H14221	H1422	0.750300	0.739100	0.850800
C14231	C1423	0.816450	0.746660	0.894640
H14231	H1423	0.809800	0.749700	0.913000
C14241	C1424	0.630090	0.805210	0.968100
H14241	H1424	0.645800	0.796300	0.976100
N21361	N2136	0.777290	0.768150	0.868560
Cu3571	Cu357	0.220500	0.337200	0.876690
Cu3581	Cu358	0.192050	0.274570	0.850040
N21371	N2137	0.233530	0.277190	0.858460
N21381	N2138	0.245480	0.301200	0.870860
N21391	N2139	0.184590	0.321930	0.893420
N21401	N2140	0.174470	0.294860	0.885910
N21411	N2141	0.342010	0.233230	0.858390
N21421	N2142	0.340330	0.234270	0.887950
C14251	C1425	0.319360	0.245640	0.848200
H14251	H1425	0.315200	0.248100	0.829000
N21431	N2143	0.302960	0.254310	0.870400
C14261	C1426	0.271940	0.295500	0.876790
H14261	H1426	0.284900	0.307900	0.885200
N21441	N2144	0.106760	0.311780	0.981530
N21451	N2145	0.127680	0.313480	0.940460
N21461	N2146	0.088350	0.324280	0.961750
N21471	N2147	0.148590	0.311230	0.920110
C14271	C1427	0.152750	0.289080	0.901890
H14271	H1427	0.141800	0.272600	0.901100
C14281	C1428	0.101360	0.324900	0.937330
H14281	H1428	0.093800	0.332000	0.920500
C14291	C1429	0.168670	0.331280	0.914050
H14291	H1429	0.170700	0.348700	0.923200
C14301	C1430	0.252810	0.257520	0.857690
H14301	H1430	0.250300	0.239100	0.850800
C14311	C1431	0.316450	0.246660	0.894640
H14311	H1431	0.309800	0.249700	0.913000
C14321	C1432	0.130090	0.305210	0.968100
H14321	H1432	0.145800	0.296300	0.976100
N21481	N2148	0.277290	0.268150	0.868560
Cu3591	Cu359	0.220500	0.837200	0.376690
Cu3601	Cu360	0.192050	0.774570	0.350040
N21491	N2149	0.233530	0.777190	0.358460
N21501	N2150	0.245480	0.801200	0.370860
N21511	N2151	0.184590	0.821930	0.393420
N21521	N2152	0.174470	0.794860	0.385910
N21531	N2153	0.342010	0.733230	0.358390
N21541	N2154	0.340330	0.734270	0.387950
C14331	C1433	0.319360	0.745640	0.348200
H14331	H1433	0.315200	0.748100	0.329000
N21551	N2155	0.302960	0.754310	0.370400
C14341	C1434	0.271940	0.795500	0.376790
H14341	H1434	0.284900	0.807900	0.385200
N21561	N2156	0.106760	0.811780	0.481530
N21571	N2157	0.127680	0.813480	0.440460
N21581	N2158	0.088350	0.824280	0.461750
N21591	N2159	0.148590	0.811230	0.420110
C14351	C1435	0.152750	0.789080	0.401890
H14351	H1435	0.141800	0.772600	0.401100
C14361	C1436	0.101360	0.824900	0.437330
H14361	H1436	0.093800	0.832000	0.420500
C14371	C1437	0.168670	0.831280	0.414050
H14371	H1437	0.170700	0.848700	0.423200
C14381	C1438	0.252810	0.757520	0.357690
H14381	H1438	0.250300	0.739100	0.350800
C14391	C1439	0.316450	0.746660	0.394640
H14391	H1439	0.309800	0.749700	0.413000
C14401	C1440	0.130090	0.805210	0.468100
H14401	H1440	0.145800	0.796300	0.476100
N21601	N2160	0.277290	0.768150	0.368560
Cu3611	Cu361	0.220500	0.412800	0.873310
Cu3621	Cu362	0.192050	0.475430	0.899960
N21611	N2161	0.233530	0.472810	0.891540
N21621	N2162	0.245480	0.448800	0.879140
N21631	N2163	0.184590	0.428070	0.856580
N21641	N2164	0.174470	0.455140	0.864090
N21651	N2165	0.342010	0.516770	0.891610
N21661	N2166	0.340330	0.515730	0.862050
C14411	C1441	0.319360	0.504360	0.901800
H14411	H1441	0.315200	0.501900	0.921000
N21671	N2167	0.302960	0.495690	0.879600
C14421	C1442	0.271940	0.454500	0.873210
H14421	H1442	0.284900	0.442100	0.864800
N21681	N2168	0.106760	0.438220	0.768470
N21691	N2169	0.127680	0.436520	0.809540
N21701	N2170	0.088350	0.425720	0.788250
N21711	N2171	0.148590	0.438770	0.829890
C14431	C1443	0.152750	0.460920	0.848110
H14431	H1443	0.141800	0.477400	0.848900
C14441	C1444	0.101360	0.425100	0.812670
H14441	H1444	0.093800	0.418000	0.829500
C14451	C1445	0.168670	0.418720	0.835950
H14451	H1445	0.170700	0.401300	0.826800
C14461	C1446	0.252810	0.492480	0.892310
H14461	H1446	0.250300	0.510900	0.899200
C14471	C1447	0.316450	0.503340	0.855360
H14471	H1447	0.309800	0.500300	0.837000
C14481	C1448	0.130090	0.444790	0.781900
H14481	H1448	0.145800	0.453700	0.773900
N21721	N2172	0.277290	0.481850	0.881440
Cu3631	Cu363	0.220500	0.912800	0.373310
Cu3641	Cu364	0.192050	0.975430	0.399960
N21731	N2173	0.233530	0.972810	0.391540
N21741	N2174	0.245480	0.948800	0.379140
N21751	N2175	0.184590	0.928070	0.356580
N21761	N2176	0.174470	0.955140	0.364090
N21771	N2177	0.342010	0.016770	0.391610
N21781	N2178	0.340330	0.015730	0.362050
C14491	C1449	0.319360	0.004360	0.401800
H14491	H1449	0.315200	0.001900	0.421000
N21791	N2179	0.302960	0.995690	0.379600
C14501	C1450	0.271940	0.954500	0.373210
H14501	H1450	0.284900	0.942100	0.364800
N21801	N2180	0.106760	0.938220	0.268470
N21811	N2181	0.127680	0.936520	0.309540
N21821	N2182	0.088350	0.925720	0.288250
N21831	N2183	0.148590	0.938770	0.329890
C14511	C1451	0.152750	0.960920	0.348110
H14511	H1451	0.141800	0.977400	0.348900
C14521	C1452	0.101360	0.925100	0.312670
H14521	H1452	0.093800	0.918000	0.329500
C14531	C1453	0.168670	0.918720	0.335950
H14531	H1453	0.170700	0.901300	0.326800
C14541	C1454	0.252810	0.992480	0.392310
H14541	H1454	0.250300	0.010900	0.399200
C14551	C1455	0.316450	0.003340	0.355360
H14551	H1455	0.309800	0.000300	0.337000
C14561	C1456	0.130090	0.944790	0.281900
H14561	H1456	0.145800	0.953700	0.273900
N21841	N2184	0.277290	0.981850	0.381440
Cu3651	Cu365	0.720500	0.412800	0.373310
Cu3661	Cu366	0.692050	0.475430	0.399960
N21851	N2185	0.733530	0.472810	0.391540
N21861	N2186	0.745480	0.448800	0.379140
N21871	N2187	0.684590	0.428070	0.356580
N21881	N2188	0.674470	0.455140	0.364090
N21891	N2189	0.842010	0.516770	0.391610
N21901	N2190	0.840330	0.515730	0.362050
C14571	C1457	0.819360	0.504360	0.401800
H14571	H1457	0.815200	0.501900	0.421000
N21911	N2191	0.802960	0.495690	0.379600
C14581	C1458	0.771940	0.454500	0.373210
H14581	H1458	0.784900	0.442100	0.364800
N21921	N2192	0.606760	0.438220	0.268470
N21931	N2193	0.627680	0.436520	0.309540
N21941	N2194	0.588350	0.425720	0.288250
N21951	N2195	0.648590	0.438770	0.329890
C14591	C1459	0.652750	0.460920	0.348110
H14591	H1459	0.641800	0.477400	0.348900
C14601	C1460	0.601360	0.425100	0.312670
H14601	H1460	0.593800	0.418000	0.329500
C14611	C1461	0.668670	0.418720	0.335950
H14611	H1461	0.670700	0.401300	0.326800
C14621	C1462	0.752810	0.492480	0.392310
H14621	H1462	0.750300	0.510900	0.399200
C14631	C1463	0.816450	0.503340	0.355360
H14631	H1463	0.809800	0.500300	0.337000
C14641	C1464	0.630090	0.444790	0.281900
H14641	H1464	0.645800	0.453700	0.273900
N21961	N2196	0.777290	0.481850	0.381440
Cu3671	Cu367	0.720500	0.912800	0.873310
Cu3681	Cu368	0.692050	0.975430	0.899960
N21971	N2197	0.733530	0.972810	0.891540
N21981	N2198	0.745480	0.948800	0.879140
N21991	N2199	0.684590	0.928070	0.856580
N22001	N2200	0.674470	0.955140	0.864090
N22011	N2201	0.842010	0.016770	0.891610
N22021	N2202	0.840330	0.015730	0.862050
C14651	C1465	0.819360	0.004360	0.901800
H14651	H1465	0.815200	0.001900	0.921000
N22031	N2203	0.802960	0.995690	0.879600
C14661	C1466	0.771940	0.954500	0.873210
H14661	H1466	0.784900	0.942100	0.864800
N22041	N2204	0.606760	0.938220	0.768470
N22051	N2205	0.627680	0.936520	0.809540
N22061	N2206	0.588350	0.925720	0.788250
N22071	N2207	0.648590	0.938770	0.829890
C14671	C1467	0.652750	0.960920	0.848110
H14671	H1467	0.641800	0.977400	0.848900
C14681	C1468	0.601360	0.925100	0.812670
H14681	H1468	0.593800	0.918000	0.829500
C14691	C1469	0.668670	0.918720	0.835950
H14691	H1469	0.670700	0.901300	0.826800
C14701	C1470	0.752810	0.992480	0.892310
H14701	H1470	0.750300	0.010900	0.899200
C14711	C1471	0.816450	0.003340	0.855360
H14711	H1471	0.809800	0.000300	0.837000
C14721	C1472	0.630090	0.944790	0.781900
H14721	H1472	0.645800	0.953700	0.773900
N22081	N2208	0.777290	0.981850	0.881440
Cu3691	Cu369	0.529510	0.837200	0.373310
Cu3701	Cu370	0.557950	0.774570	0.399960
N22091	N2209	0.516470	0.777190	0.391540
N22101	N2210	0.504520	0.801200	0.379140
N22111	N2211	0.565410	0.821930	0.356580
N22121	N2212	0.575530	0.794860	0.364090
N22131	N2213	0.407990	0.733230	0.391610
N22141	N2214	0.409670	0.734270	0.362050
C14731	C1473	0.430640	0.745640	0.401800
H14731	H1473	0.434800	0.748100	0.421000
N22151	N2215	0.447040	0.754310	0.379600
C14741	C1474	0.478060	0.795500	0.373210
H14741	H1474	0.465100	0.807900	0.364800
N22161	N2216	0.643240	0.811780	0.268470
N22171	N2217	0.622320	0.813480	0.309540
N22181	N2218	0.661650	0.824280	0.288250
N22191	N2219	0.601410	0.811230	0.329890
C14751	C1475	0.597250	0.789080	0.348110
H14751	H1475	0.608200	0.772600	0.348900
C14761	C1476	0.648640	0.824900	0.312670
H14761	H1476	0.656200	0.832000	0.329500
C14771	C1477	0.581330	0.831280	0.335950
H14771	H1477	0.579300	0.848700	0.326800
C14781	C1478	0.497190	0.757520	0.392310
H14781	H1478	0.499700	0.739100	0.399200
C14791	C1479	0.433550	0.746660	0.355360
H14791	H1479	0.440200	0.749700	0.337000
C14801	C1480	0.619910	0.805210	0.281900
H14801	H1480	0.604200	0.796300	0.273900
N22201	N2220	0.472710	0.768150	0.381440
Cu3711	Cu371	0.529510	0.337200	0.873310
Cu3721	Cu372	0.557950	0.274570	0.899960
N22211	N2221	0.516470	0.277190	0.891540
N22221	N2222	0.504520	0.301200	0.879140
N22231	N2223	0.565410	0.321930	0.856580
N22241	N2224	0.575530	0.294860	0.864090
N22251	N2225	0.407990	0.233230	0.891610
N22261	N2226	0.409670	0.234270	0.862050
C14811	C1481	0.430640	0.245640	0.901800
H14811	H1481	0.434800	0.248100	0.921000
N22271	N2227	0.447040	0.254310	0.879600
C14821	C1482	0.478060	0.295500	0.873210
H14821	H1482	0.465100	0.307900	0.864800
N22281	N2228	0.643240	0.311780	0.768470
N22291	N2229	0.622320	0.313480	0.809540
N22301	N2230	0.661650	0.324280	0.788250
N22311	N2231	0.601410	0.311230	0.829890
C14831	C1483	0.597250	0.289080	0.848110
H14831	H1483	0.608200	0.272600	0.848900
C14841	C1484	0.648640	0.324900	0.812670
H14841	H1484	0.656200	0.332000	0.829500
C14851	C1485	0.581330	0.331280	0.835950
H14851	H1485	0.579300	0.348700	0.826800
C14861	C1486	0.497190	0.257520	0.892310
H14861	H1486	0.499700	0.239100	0.899200
C14871	C1487	0.433550	0.246660	0.855360
H14871	H1487	0.440200	0.249700	0.837000
C14881	C1488	0.619910	0.305210	0.781900
H14881	H1488	0.604200	0.296300	0.773900
N22321	N2232	0.472710	0.268150	0.881440
Cu3731	Cu373	0.029510	0.837200	0.873310
Cu3741	Cu374	0.057950	0.774570	0.899960
N22331	N2233	0.016470	0.777190	0.891540
N22341	N2234	0.004520	0.801200	0.879140
N22351	N2235	0.065410	0.821930	0.856580
N22361	N2236	0.075530	0.794860	0.864090
N22371	N2237	0.907990	0.733230	0.891610
N22381	N2238	0.909670	0.734270	0.862050
C14891	C1489	0.930640	0.745640	0.901800
H14891	H1489	0.934800	0.748100	0.921000
N22391	N2239	0.947040	0.754310	0.879600
C14901	C1490	0.978060	0.795500	0.873210
H14901	H1490	0.965100	0.807900	0.864800
N22401	N2240	0.143240	0.811780	0.768470
N22411	N2241	0.122320	0.813480	0.809540
N22421	N2242	0.161650	0.824280	0.788250
N22431	N2243	0.101410	0.811230	0.829890
C14911	C1491	0.097250	0.789080	0.848110
H14911	H1491	0.108200	0.772600	0.848900
C14921	C1492	0.148640	0.824900	0.812670
H14921	H1492	0.156200	0.832000	0.829500
C14931	C1493	0.081330	0.831280	0.835950
H14931	H1493	0.079300	0.848700	0.826800
C14941	C1494	0.997190	0.757520	0.892310
H14941	H1494	0.999700	0.739100	0.899200
C14951	C1495	0.933550	0.746660	0.855360
H14951	H1495	0.940200	0.749700	0.837000
C14961	C1496	0.119910	0.805210	0.781900
H14961	H1496	0.104200	0.796300	0.773900
N22441	N2244	0.972710	0.768150	0.881440
Cu3751	Cu375	0.029510	0.337200	0.373310
Cu3761	Cu376	0.057950	0.274570	0.399960
N22451	N2245	0.016470	0.277190	0.391540
N22461	N2246	0.004520	0.301200	0.379140
N22471	N2247	0.065410	0.321930	0.356580
N22481	N2248	0.075530	0.294860	0.364090
N22491	N2249	0.907990	0.233230	0.391610
N22501	N2250	0.909670	0.234270	0.362050
C14971	C1497	0.930640	0.245640	0.401800
H14971	H1497	0.934800	0.248100	0.421000
N22511	N2251	0.947040	0.254310	0.379600
C14981	C1498	0.978060	0.295500	0.373210
H14981	H1498	0.965100	0.307900	0.364800
N22521	N2252	0.143240	0.311780	0.268470
N22531	N2253	0.122320	0.313480	0.309540
N22541	N2254	0.161650	0.324280	0.288250
N22551	N2255	0.101410	0.311230	0.329890
C14991	C1499	0.097250	0.289080	0.348110
H14991	H1499	0.108200	0.272600	0.348900
C15001	C1500	0.148640	0.324900	0.312670
H15001	H1500	0.156200	0.332000	0.329500
C15011	C1501	0.081330	0.331280	0.335950
H15011	H1501	0.079300	0.348700	0.326800
C15021	C1502	0.997190	0.257520	0.392310
H15021	H1502	0.999700	0.239100	0.399200
C15031	C1503	0.933550	0.246660	0.355360
H15031	H1503	0.940200	0.249700	0.337000
C15041	C1504	0.119910	0.305210	0.281900
H15041	H1504	0.104200	0.296300	0.273900
N22561	N2256	0.972710	0.268150	0.381440
Cu3771	Cu377	0.029510	0.912800	0.876690
Cu3781	Cu378	0.057950	0.975430	0.850040
N22571	N2257	0.016470	0.972810	0.858460
N22581	N2258	0.004520	0.948800	0.870860
N22591	N2259	0.065410	0.928070	0.893420
N22601	N2260	0.075530	0.955140	0.885910
N22611	N2261	0.907990	0.016770	0.858390
N22621	N2262	0.909670	0.015730	0.887950
C15051	C1505	0.930640	0.004360	0.848200
H15051	H1505	0.934800	0.001900	0.829000
N22631	N2263	0.947040	0.995690	0.870400
C15061	C1506	0.978060	0.954500	0.876790
H15061	H1506	0.965100	0.942100	0.885200
N22641	N2264	0.143240	0.938220	0.981530
N22651	N2265	0.122320	0.936520	0.940460
N22661	N2266	0.161650	0.925720	0.961750
N22671	N2267	0.101410	0.938770	0.920110
C15071	C1507	0.097250	0.960920	0.901890
H15071	H1507	0.108200	0.977400	0.901100
C15081	C1508	0.148640	0.925100	0.937330
H15081	H1508	0.156200	0.918000	0.920500
C15091	C1509	0.081330	0.918720	0.914050
H15091	H1509	0.079300	0.901300	0.923200
C15101	C1510	0.997190	0.992480	0.857690
H15101	H1510	0.999700	0.010900	0.850800
C15111	C1511	0.933550	0.003340	0.894640
H15111	H1511	0.940200	0.000300	0.913000
C15121	C1512	0.119910	0.944790	0.968100
H15121	H1512	0.104200	0.953700	0.976100
N22681	N2268	0.972710	0.981850	0.868560
Cu3791	Cu379	0.029510	0.412800	0.376690
Cu3801	Cu380	0.057950	0.475430	0.350040
N22691	N2269	0.016470	0.472810	0.358460
N22701	N2270	0.004520	0.448800	0.370860
N22711	N2271	0.065410	0.428070	0.393420
N22721	N2272	0.075530	0.455140	0.385910
N22731	N2273	0.907990	0.516770	0.358390
N22741	N2274	0.909670	0.515730	0.387950
C15131	C1513	0.930640	0.504360	0.348200
H15131	H1513	0.934800	0.501900	0.329000
N22751	N2275	0.947040	0.495690	0.370400
C15141	C1514	0.978060	0.454500	0.376790
H15141	H1514	0.965100	0.442100	0.385200
N22761	N2276	0.143240	0.438220	0.481530
N22771	N2277	0.122320	0.436520	0.440460
N22781	N2278	0.161650	0.425720	0.461750
N22791	N2279	0.101410	0.438770	0.420110
C15151	C1515	0.097250	0.460920	0.401890
H15151	H1515	0.108200	0.477400	0.401100
C15161	C1516	0.148640	0.425100	0.437330
H15161	H1516	0.156200	0.418000	0.420500
C15171	C1517	0.081330	0.418720	0.414050
H15171	H1517	0.079300	0.401300	0.423200
C15181	C1518	0.997190	0.492480	0.357690
H15181	H1518	0.999700	0.510900	0.350800
C15191	C1519	0.933550	0.503340	0.394640
H15191	H1519	0.940200	0.500300	0.413000
C15201	C1520	0.119910	0.444790	0.468100
H15201	H1520	0.104200	0.453700	0.476100
N22801	N2280	0.972710	0.481850	0.368560
Cu3811	Cu381	0.529510	0.912800	0.376690
Cu3821	Cu382	0.557950	0.975430	0.350040
N22811	N2281	0.516470	0.972810	0.358460
N22821	N2282	0.504520	0.948800	0.370860
N22831	N2283	0.565410	0.928070	0.393420
N22841	N2284	0.575530	0.955140	0.385910
N22851	N2285	0.407990	0.016770	0.358390
N22861	N2286	0.409670	0.015730	0.387950
C15211	C1521	0.430640	0.004360	0.348200
H15211	H1521	0.434800	0.001900	0.329000
N22871	N2287	0.447040	0.995690	0.370400
C15221	C1522	0.478060	0.954500	0.376790
H15221	H1522	0.465100	0.942100	0.385200
N22881	N2288	0.643240	0.938220	0.481530
N22891	N2289	0.622320	0.936520	0.440460
N22901	N2290	0.661650	0.925720	0.461750
N22911	N2291	0.601410	0.938770	0.420110
C15231	C1523	0.597250	0.960920	0.401890
H15231	H1523	0.608200	0.977400	0.401100
C15241	C1524	0.648640	0.925100	0.437330
H15241	H1524	0.656200	0.918000	0.420500
C15251	C1525	0.581330	0.918720	0.414050
H15251	H1525	0.579300	0.901300	0.423200
C15261	C1526	0.497190	0.992480	0.357690
H15261	H1526	0.499700	0.010900	0.350800
C15271	C1527	0.433550	0.003340	0.394640
H15271	H1527	0.440200	0.000300	0.413000
C15281	C1528	0.619910	0.944790	0.468100
H15281	H1528	0.604200	0.953700	0.476100
N22921	N2292	0.472710	0.981850	0.368560
Cu3831	Cu383	0.529510	0.412800	0.876690
Cu3841	Cu384	0.557950	0.475430	0.850040
N22931	N2293	0.516470	0.472810	0.858460
N22941	N2294	0.504520	0.448800	0.870860
N22951	N2295	0.565410	0.428070	0.893420
N22961	N2296	0.575530	0.455140	0.885910
N22971	N2297	0.407990	0.516770	0.858390
N22981	N2298	0.409670	0.515730	0.887950
C15291	C1529	0.430640	0.504360	0.848200
H15291	H1529	0.434800	0.501900	0.829000
N22991	N2299	0.447040	0.495690	0.870400
C15301	C1530	0.478060	0.454500	0.876790
H15301	H1530	0.465100	0.442100	0.885200
N23001	N2300	0.643240	0.438220	0.981530
N23011	N2301	0.622320	0.436520	0.940460
N23021	N2302	0.661650	0.425720	0.961750
N23031	N2303	0.601410	0.438770	0.920110
C15311	C1531	0.597250	0.460920	0.901890
H15311	H1531	0.608200	0.477400	0.901100
C15321	C1532	0.648640	0.425100	0.937330
H15321	H1532	0.656200	0.418000	0.920500
C15331	C1533	0.581330	0.418720	0.914050
H15331	H1533	0.579300	0.401300	0.923200
C15341	C1534	0.497190	0.492480	0.857690
H15341	H1534	0.499700	0.510900	0.850800
C15351	C1535	0.433550	0.503340	0.894640
H15351	H1535	0.440200	0.500300	0.913000
C15361	C1536	0.619910	0.444790	0.968100
H15361	H1536	0.604200	0.453700	0.976100
N23041	N2304	0.472710	0.481850	0.868560
