data_JOPWUI_clean_PM
_symmetry_space_group_name_H-M	'P1'
_cell_length_a	17.957200
_cell_length_b	17.957200
_cell_length_c	17.957200
_cell_angle_alpha	96.281300
_cell_angle_beta	96.281300
_cell_angle_gamma	96.281300
_symmetry_Int_Tables_number 1

loop_
_symmetry_equiv_pos_as_xyz
'x,y,z'

loop_
_atom_site_label
_atom_site_type_symbol
_atom_site_fract_x
_atom_site_fract_y
_atom_site_fract_z
Cd11	Cd1	0.975490	0.494380	0.687990
Cd21	Cd2	0.125970	0.125970	0.125970
Cd31	Cd3	0.024510	0.505620	0.312010
Cd41	Cd4	0.494380	0.687990	0.975490
Cd51	Cd5	0.000000	0.500000	0.500000
Cd61	Cd6	0.505620	0.312010	0.024510
Cd71	Cd7	0.687990	0.975490	0.494380
Cd81	Cd8	0.312010	0.024510	0.505620
Cd91	Cd9	0.000000	0.000000	0.000000
Cd101	Cd10	0.500000	0.500000	0.000000
Cd111	Cd11	0.874030	0.874030	0.874030
Cd121	Cd12	0.500000	0.000000	0.500000
H11	H1	0.368100	0.470900	0.617100
H21	H2	0.924500	0.920100	0.158700
H31	H3	0.506500	0.627900	0.567000
H41	H4	0.269400	0.969100	0.745900
H51	H5	0.289300	0.829800	0.664600
H61	H6	0.640400	0.766800	0.356400
H71	H7	0.898300	0.601600	0.147500
H81	H8	0.627900	0.567000	0.506500
H91	H9	0.631900	0.529100	0.382900
H101	H10	0.323100	0.793600	0.378900
H111	H11	0.147500	0.898300	0.601600
H121	H12	0.733800	0.031600	0.771900
H131	H13	0.601600	0.147500	0.898300
H141	H14	0.621100	0.676900	0.206400
H151	H15	0.968400	0.228100	0.266200
H161	H16	0.771900	0.733800	0.031600
H171	H17	0.178700	0.860300	0.378900
H181	H18	0.730600	0.030900	0.254100
H191	H19	0.793600	0.378900	0.323100
H201	H20	0.117000	0.192400	0.796800
H211	H21	0.572900	0.885500	0.289600
H221	H22	0.567000	0.506500	0.627900
H231	H23	0.337200	0.490500	0.103300
H241	H24	0.170200	0.335400	0.710700
H251	H25	0.707000	0.084400	0.888400
H261	H26	0.103300	0.337200	0.490500
H271	H27	0.339800	0.687100	0.841400
H281	H28	0.158600	0.660200	0.312900
H291	H29	0.359600	0.233200	0.643600
H301	H30	0.696600	0.794600	0.174300
H311	H31	0.969100	0.745900	0.269400
H321	H32	0.705600	0.170400	0.547100
H331	H33	0.378900	0.323100	0.793600
H341	H34	0.660200	0.312900	0.158600
H351	H35	0.920100	0.158700	0.924500
H361	H36	0.188700	0.695400	0.475300
H371	H37	0.205400	0.825700	0.303400
H381	H38	0.541900	0.094400	0.674500
H391	H39	0.452900	0.294400	0.829600
H401	H40	0.031600	0.771900	0.733800
H411	H41	0.427100	0.114500	0.710400
H421	H42	0.565200	0.173900	0.553800
H431	H43	0.710700	0.170200	0.335400
H441	H44	0.829600	0.452900	0.294400
H451	H45	0.475300	0.188700	0.695400
H461	H46	0.101700	0.398400	0.852500
H471	H47	0.794600	0.174300	0.696600
H481	H48	0.509500	0.896700	0.662800
H491	H49	0.398400	0.852500	0.101700
H501	H50	0.695400	0.475300	0.188700
H511	H51	0.729900	0.780200	0.446400
H521	H52	0.553600	0.270100	0.219800
H531	H53	0.275700	0.449800	0.403000
H541	H54	0.553800	0.565200	0.173900
H551	H55	0.083600	0.732400	0.869000
H561	H56	0.841300	0.075500	0.079900
H571	H57	0.266200	0.968400	0.228100
H581	H58	0.664600	0.289300	0.829800
H591	H59	0.493500	0.372100	0.433000
H601	H60	0.446400	0.729900	0.780200
H611	H61	0.403000	0.275700	0.449800
H621	H62	0.158700	0.924500	0.920100
H631	H63	0.203200	0.883000	0.807600
H641	H64	0.687100	0.841400	0.339800
H651	H65	0.449800	0.403000	0.275700
H661	H66	0.382900	0.631900	0.529100
H671	H67	0.643600	0.359600	0.233200
H681	H68	0.335400	0.710700	0.170200
H691	H69	0.732400	0.869000	0.083600
H701	H70	0.860300	0.378900	0.178700
H711	H71	0.111600	0.293000	0.915600
H721	H72	0.905600	0.325500	0.458100
H731	H73	0.131000	0.916400	0.267600
H741	H74	0.293000	0.915600	0.111600
H751	H75	0.356400	0.640400	0.766800
H761	H76	0.191800	0.255000	0.458400
H771	H77	0.206400	0.621100	0.676900
H781	H78	0.796800	0.117000	0.192400
H791	H79	0.170400	0.547100	0.705600
H801	H80	0.841400	0.339800	0.687100
H811	H81	0.674500	0.541900	0.094400
H821	H82	0.829800	0.664600	0.289300
H831	H83	0.524700	0.811300	0.304600
H841	H84	0.294400	0.829600	0.452900
H851	H85	0.114500	0.710400	0.427100
H861	H86	0.916400	0.267600	0.131000
H871	H87	0.710400	0.427100	0.114500
H881	H88	0.254100	0.730600	0.030900
H891	H89	0.745000	0.541600	0.808200
H901	H90	0.470900	0.617100	0.368100
H911	H91	0.541600	0.808200	0.745000
H921	H92	0.869000	0.083600	0.732400
H931	H93	0.372100	0.433000	0.493500
H941	H94	0.303400	0.205400	0.825700
H951	H95	0.219800	0.553600	0.270100
H961	H96	0.173900	0.553800	0.565200
H971	H97	0.458100	0.905600	0.325500
H981	H98	0.233200	0.643600	0.359600
H991	H99	0.139700	0.621100	0.821300
H1001	H100	0.174300	0.696600	0.794600
H1011	H101	0.079900	0.841300	0.075500
H1021	H102	0.662800	0.509500	0.896700
H1031	H103	0.255000	0.458400	0.191800
H1041	H104	0.433000	0.493500	0.372100
H1051	H105	0.766800	0.356400	0.640400
H1061	H106	0.378900	0.178700	0.860300
H1071	H107	0.780200	0.446400	0.729900
H1081	H108	0.821300	0.139700	0.621100
H1091	H109	0.888400	0.707000	0.084400
H1101	H110	0.825700	0.303400	0.205400
H1111	H111	0.075500	0.079900	0.841300
H1121	H112	0.228100	0.266200	0.968400
H1131	H113	0.617100	0.368100	0.470900
H1141	H114	0.304600	0.524700	0.811300
H1151	H115	0.434800	0.826100	0.446200
H1161	H116	0.094400	0.674500	0.541900
H1171	H117	0.312900	0.158600	0.660200
H1181	H118	0.325500	0.458100	0.905600
H1191	H119	0.597000	0.724300	0.550200
H1201	H120	0.458400	0.191800	0.255000
H1211	H121	0.529100	0.382900	0.631900
H1221	H122	0.826100	0.446200	0.434800
H1231	H123	0.883000	0.807600	0.203200
H1241	H124	0.084400	0.888400	0.707000
H1251	H125	0.289600	0.572900	0.885500
H1261	H126	0.270100	0.219800	0.553600
H1271	H127	0.676900	0.206400	0.621100
H1281	H128	0.446200	0.434800	0.826100
H1291	H129	0.547100	0.705600	0.170400
H1301	H130	0.807600	0.203200	0.883000
H1311	H131	0.267600	0.131000	0.916400
H1321	H132	0.724300	0.550200	0.597000
H1331	H133	0.885500	0.289600	0.572900
H1341	H134	0.550200	0.597000	0.724300
H1351	H135	0.808200	0.745000	0.541600
H1361	H136	0.915600	0.111600	0.293000
H1371	H137	0.621100	0.821300	0.139700
H1381	H138	0.852500	0.101700	0.398400
H1391	H139	0.896700	0.662800	0.509500
H1401	H140	0.811300	0.304600	0.524700
H1411	H141	0.745900	0.269400	0.969100
H1421	H142	0.490500	0.103300	0.337200
H1431	H143	0.192400	0.796800	0.117000
H1441	H144	0.030900	0.254100	0.730600
C11	C1	0.148300	0.389700	0.875800
C21	C2	0.344800	0.177400	0.814400
C31	C3	0.212000	0.439500	0.874500
C41	C4	0.272000	0.640900	0.228400
C51	C5	0.679600	0.471800	0.865400
C61	C6	0.253700	0.081500	0.894300
C71	C7	0.874500	0.212000	0.439500
C81	C8	0.925400	0.603300	0.378900
C91	C9	0.245600	0.614300	0.789100
C101	C10	0.342700	0.601700	0.129100
C111	C11	0.503100	0.474400	0.215200
C121	C12	0.398300	0.870900	0.657300
C131	C13	0.785900	0.470700	0.449300
C141	C14	0.957800	0.897000	0.189300
C151	C15	0.654500	0.027800	0.635700
C161	C16	0.054200	0.999100	0.180400
C171	C17	0.210900	0.754400	0.385700
C181	C18	0.944900	0.224200	0.309500
C191	C19	0.525600	0.784800	0.496900
C201	C20	0.031800	0.931200	0.210100
C211	C21	0.897000	0.189300	0.957800
C221	C22	0.532700	0.546600	0.725900
C231	C23	0.945800	0.000900	0.819600
C241	C24	0.968200	0.068800	0.789900
C251	C25	0.214200	0.933200	0.828600
C261	C26	0.717500	0.575600	0.093000
C271	C27	0.851700	0.610300	0.124200
C281	C28	0.941600	0.174000	0.723900
C291	C29	0.216600	0.581200	0.707500
C301	C30	0.601700	0.129100	0.342700
C311	C31	0.378900	0.925400	0.603300
C321	C32	0.849000	0.486300	0.580600
C331	C33	0.984300	0.793100	0.255300
C341	C34	0.513700	0.419400	0.151000
C351	C35	0.345500	0.972200	0.364300
C361	C36	0.826000	0.276100	0.058400
C371	C37	0.766400	0.749500	0.434300
C381	C38	0.551600	0.834900	0.267600
C391	C39	0.729400	0.480400	0.396800
C401	C40	0.385700	0.210900	0.754400
C411	C41	0.309500	0.944900	0.224200
C421	C42	0.434300	0.766400	0.749500
C431	C43	0.655200	0.822600	0.185600
C441	C44	0.657300	0.398300	0.870900
C451	C45	0.058400	0.826000	0.276100
C461	C46	0.638900	0.059400	0.711500
C471	C47	0.812000	0.728300	0.491500
C481	C48	0.419400	0.151000	0.513700
C491	C49	0.580600	0.849000	0.486300
C501	C50	0.674300	0.087400	0.845200
C511	C51	0.449300	0.785900	0.470700
C521	C52	0.581200	0.707500	0.216600
C531	C53	0.508000	0.331600	0.456900
C541	C54	0.093000	0.717500	0.575600
C551	C55	0.508500	0.188000	0.271700
C561	C56	0.448400	0.165100	0.732400
C571	C57	0.543100	0.492000	0.668400
C581	C58	0.074600	0.396700	0.621100
C591	C59	0.822600	0.185600	0.655200
C601	C60	0.151000	0.513700	0.419400
C611	C61	0.470700	0.449300	0.785900
C621	C62	0.529300	0.550700	0.214100
C631	C63	0.491500	0.812000	0.728300
C641	C64	0.174000	0.723900	0.941600
C651	C65	0.319700	0.660500	0.174900
C661	C66	0.418800	0.292500	0.783400
C671	C67	0.667400	0.789900	0.319200
C681	C68	0.154800	0.325700	0.912600
C691	C69	0.267600	0.551600	0.834900
C701	C70	0.206900	0.744700	0.015700
C711	C71	0.171400	0.785800	0.066800
C721	C72	0.274100	0.467300	0.453400
C731	C73	0.621100	0.074600	0.396700
C741	C74	0.789900	0.968200	0.068800
C751	C75	0.467300	0.453400	0.274100
C761	C76	0.389700	0.875800	0.148300
C771	C77	0.125500	0.788000	0.560500
C781	C78	0.680800	0.332600	0.210100
C791	C79	0.614300	0.789100	0.245600
C801	C80	0.129100	0.342700	0.601700
C811	C81	0.775800	0.690500	0.055100
C821	C82	0.339500	0.825100	0.680300
C831	C83	0.749500	0.434300	0.766400
C841	C84	0.825100	0.680300	0.339500
C851	C85	0.789100	0.245600	0.614300
C861	C86	0.728300	0.491500	0.812000
C871	C87	0.288500	0.361100	0.940600
C881	C88	0.668400	0.543100	0.492000
C891	C89	0.560500	0.125500	0.788000
C901	C90	0.396800	0.729400	0.480400
C911	C91	0.810700	0.042200	0.103000
C921	C92	0.255300	0.984300	0.793100
C931	C93	0.492000	0.668400	0.543100
C941	C94	0.189300	0.957800	0.897000
C951	C95	0.690500	0.055100	0.775800
C961	C96	0.771600	0.728000	0.359100
C971	C97	0.471800	0.865400	0.679600
C981	C98	0.361100	0.940600	0.288500
C991	C99	0.271700	0.508500	0.188000
C1001	C100	0.000900	0.819600	0.945800
C1011	C101	0.918500	0.105700	0.746300
C1021	C102	0.224200	0.309500	0.944900
C1031	C103	0.933200	0.828600	0.214200
C1041	C104	0.250500	0.565700	0.233600
C1051	C105	0.785800	0.066800	0.171400
C1061	C106	0.081500	0.894300	0.253700
C1071	C107	0.669800	0.519700	0.418900
C1081	C108	0.744700	0.015700	0.206900
C1091	C109	0.931200	0.210100	0.031800
C1101	C110	0.550700	0.214100	0.529300
C1111	C111	0.424400	0.907000	0.282500
C1121	C112	0.124200	0.851700	0.610300
C1131	C113	0.725900	0.532700	0.546600
C1141	C114	0.453400	0.274100	0.467300
C1151	C115	0.660500	0.174900	0.319700
C1161	C116	0.319200	0.667400	0.789900
C1171	C117	0.819600	0.945800	0.000900
C1181	C118	0.320400	0.528200	0.134600
C1191	C119	0.359100	0.771600	0.728000
C1201	C120	0.814400	0.344800	0.177400
C1211	C121	0.603200	0.270600	0.519600
C1221	C122	0.180400	0.054200	0.999100
C1231	C123	0.865400	0.679600	0.471800
C1241	C124	0.728000	0.359100	0.771600
C1251	C125	0.894300	0.253700	0.081500
C1261	C126	0.396700	0.621100	0.074600
C1271	C127	0.456900	0.508000	0.331600
C1281	C128	0.210100	0.031800	0.931200
C1291	C129	0.331600	0.456900	0.508000
C1301	C130	0.480300	0.581100	0.330200
C1311	C131	0.185600	0.655200	0.822600
C1321	C132	0.565700	0.233600	0.250500
C1331	C133	0.474400	0.215200	0.503100
C1341	C134	0.732400	0.448400	0.165100
C1351	C135	0.332600	0.210100	0.680800
C1361	C136	0.610300	0.124200	0.851700
C1371	C137	0.711500	0.638900	0.059400
C1381	C138	0.068800	0.789900	0.968200
C1391	C139	0.055100	0.775800	0.690500
C1401	C140	0.907000	0.282500	0.424400
C1411	C141	0.103000	0.810700	0.042200
C1421	C142	0.228400	0.272000	0.640900
C1431	C143	0.066800	0.171400	0.785800
C1441	C144	0.027800	0.635700	0.654500
C1451	C145	0.793100	0.255300	0.984300
C1461	C146	0.784800	0.496900	0.525600
C1471	C147	0.270600	0.519600	0.603200
C1481	C148	0.330200	0.480300	0.581100
C1491	C149	0.834900	0.267600	0.551600
C1501	C150	0.680300	0.339500	0.825100
C1511	C151	0.418900	0.669800	0.519700
C1521	C152	0.875800	0.148300	0.389700
C1531	C153	0.575600	0.093000	0.717500
C1541	C154	0.828600	0.214200	0.933200
C1551	C155	0.134600	0.320400	0.528200
C1561	C156	0.789900	0.319200	0.667400
C1571	C157	0.546600	0.725900	0.532700
C1581	C158	0.640900	0.228400	0.272000
C1591	C159	0.707500	0.216600	0.581200
C1601	C160	0.519700	0.418900	0.669800
C1611	C161	0.746300	0.918500	0.105700
C1621	C162	0.870900	0.657300	0.398300
C1631	C163	0.059400	0.711500	0.638900
C1641	C164	0.177400	0.814400	0.344800
C1651	C165	0.972200	0.364300	0.345500
C1661	C166	0.783400	0.418800	0.292500
C1671	C167	0.105700	0.746300	0.918500
C1681	C168	0.486300	0.580600	0.849000
C1691	C169	0.214100	0.529300	0.550700
C1701	C170	0.912600	0.154800	0.325700
C1711	C171	0.042200	0.103000	0.810700
C1721	C172	0.282500	0.424400	0.907000
C1731	C173	0.940600	0.288500	0.361100
C1741	C174	0.188000	0.271700	0.508500
C1751	C175	0.439500	0.874500	0.212000
C1761	C176	0.276100	0.058400	0.826000
C1771	C177	0.845200	0.674300	0.087400
C1781	C178	0.754400	0.385700	0.210900
C1791	C179	0.723900	0.941600	0.174000
C1801	C180	0.215200	0.503100	0.474400
C1811	C181	0.233600	0.250500	0.565700
C1821	C182	0.999100	0.180400	0.054200
C1831	C183	0.788000	0.560500	0.125500
C1841	C184	0.364300	0.345500	0.972200
C1851	C185	0.528200	0.134600	0.320400
C1861	C186	0.165100	0.732400	0.448400
C1871	C187	0.015700	0.206900	0.744700
C1881	C188	0.519600	0.603200	0.270600
C1891	C189	0.496900	0.525600	0.784800
C1901	C190	0.480400	0.396800	0.729400
C1911	C191	0.603300	0.378900	0.925400
C1921	C192	0.174900	0.319700	0.660500
C1931	C193	0.087400	0.845200	0.674300
C1941	C194	0.581100	0.330200	0.480300
C1951	C195	0.635700	0.654500	0.027800
C1961	C196	0.325700	0.912600	0.154800
C1971	C197	0.292500	0.783400	0.418800
C1981	C198	0.210100	0.680800	0.332600
O11	O1	0.215900	0.683100	0.899100
O21	O2	0.679400	0.053000	0.404400
O31	O3	0.987800	0.376400	0.283000
O41	O4	0.351400	0.148100	0.487700
O51	O5	0.424600	0.388300	0.961500
O61	O6	0.899100	0.215900	0.683100
O71	O7	0.128400	0.012900	0.022800
O81	O8	0.902900	0.452400	0.560300
O91	O9	0.097100	0.547600	0.439700
O101	O10	0.022800	0.128400	0.012900
O111	O11	0.301000	0.727500	0.748300
O121	O12	0.871600	0.987100	0.977200
O131	O13	0.798600	0.498800	0.161900
O141	O14	0.717000	0.012200	0.623600
O151	O15	0.046700	0.410400	0.548600
O161	O16	0.410400	0.548600	0.046700
O171	O17	0.683100	0.899100	0.215900
O181	O18	0.161900	0.798600	0.498800
O191	O19	0.451400	0.953300	0.589600
O201	O20	0.838100	0.201400	0.501200
O211	O21	0.458600	0.319600	0.724900
O221	O22	0.272500	0.251700	0.699000
O231	O23	0.452400	0.560300	0.902900
O241	O24	0.251700	0.699000	0.272500
O251	O25	0.012200	0.623600	0.717000
O261	O26	0.784100	0.316900	0.100900
O271	O27	0.388300	0.961500	0.424600
O281	O28	0.148100	0.487700	0.351400
O291	O29	0.541400	0.680400	0.275100
O301	O30	0.560300	0.902900	0.452400
O311	O31	0.204800	0.119600	0.035300
O321	O32	0.119600	0.035300	0.204800
O331	O33	0.795200	0.880400	0.964700
O341	O34	0.319600	0.724900	0.458600
O351	O35	0.053000	0.404400	0.679400
O361	O36	0.947000	0.595600	0.320600
O371	O37	0.404400	0.679400	0.053000
O381	O38	0.595600	0.320600	0.947000
O391	O39	0.376400	0.283000	0.987800
O401	O40	0.977200	0.871600	0.987100
O411	O41	0.680400	0.275100	0.541400
O421	O42	0.283000	0.987800	0.376400
O431	O43	0.100900	0.784100	0.316900
O441	O44	0.498800	0.161900	0.798600
O451	O45	0.589600	0.451400	0.953300
O461	O46	0.623600	0.717000	0.012200
O471	O47	0.320600	0.947000	0.595600
O481	O48	0.724900	0.458600	0.319600
O491	O49	0.851900	0.512300	0.648600
O501	O50	0.961500	0.424600	0.388300
O511	O51	0.275100	0.541400	0.680400
O521	O52	0.439700	0.097100	0.547600
O531	O53	0.699000	0.272500	0.251700
O541	O54	0.748300	0.301000	0.727500
O551	O55	0.501200	0.838100	0.201400
O561	O56	0.964700	0.795200	0.880400
O571	O57	0.648600	0.851900	0.512300
O581	O58	0.035300	0.204800	0.119600
O591	O59	0.487700	0.351400	0.148100
O601	O60	0.987100	0.977200	0.871600
O611	O61	0.547600	0.439700	0.097100
O621	O62	0.316900	0.100900	0.784100
O631	O63	0.611700	0.038500	0.575400
O641	O64	0.012900	0.022800	0.128400
O651	O65	0.038500	0.575400	0.611700
O661	O66	0.201400	0.501200	0.838100
O671	O67	0.548600	0.046700	0.410400
O681	O68	0.575400	0.611700	0.038500
O691	O69	0.880400	0.964700	0.795200
O701	O70	0.953300	0.589600	0.451400
O711	O71	0.512300	0.648600	0.851900
O721	O72	0.727500	0.748300	0.301000
