data_JORRAL_clean_PM
_symmetry_space_group_name_H-M	'P1'
_cell_length_a	10.475900
_cell_length_b	33.017000
_cell_length_c	28.548000
_cell_angle_alpha	90.000000
_cell_angle_beta	97.288000
_cell_angle_gamma	90.000000
_symmetry_Int_Tables_number 1

loop_
_symmetry_equiv_pos_as_xyz
'x,y,z'

loop_
_atom_site_label
_atom_site_type_symbol
_atom_site_fract_x
_atom_site_fract_y
_atom_site_fract_z
O11	O1	0.842000	0.303470	0.741690
O21	O2	0.015700	0.340830	0.755120
C11	C1	0.929600	0.319000	0.769200
C21	C2	0.933600	0.312500	0.821100
C31	C3	0.020300	0.335600	0.854300
C41	C4	0.018200	0.332100	0.903000
Cd11	Cd1	0.094640	0.412820	0.196760
Cd21	Cd2	0.917290	0.344890	0.674900
N11	N1	0.988300	0.464390	0.225490
N21	N2	0.905100	0.504220	0.275200
N31	N3	0.245400	0.533960	0.309350
N41	N4	0.155900	0.593890	0.305660
N51	N5	0.024800	0.291040	0.651160
N61	N6	0.140800	0.235310	0.656740
N71	N7	0.839200	0.192780	0.672210
N81	N8	0.961400	0.141870	0.698010
O31	O3	0.262300	0.376080	0.234370
O41	O4	0.161400	0.400080	0.291590
O51	O5	0.816500	0.365540	0.590370
O61	O6	0.733300	0.318880	0.631030
O71	O7	0.263200	0.397130	0.375970
H11	H1	0.205900	0.398300	0.353600
O81	O8	0.682300	0.393540	0.516480
H21	H2	0.738000	0.392400	0.539400
O91	O9	0.005000	0.433790	0.122490
O101	O10	0.146200	0.386300	0.114750
O111	O11	0.161800	0.355730	0.034000
H31	H3	0.170200	0.357800	0.062800
O121	O12	0.102800	0.361050	0.837720
H41	H4	0.093100	0.360200	0.808800
C51	C5	0.257800	0.384000	0.276300
C61	C6	0.730700	0.338980	0.594400
C71	C7	0.484100	0.362470	0.297300
H51	H5	0.484900	0.356800	0.265500
C81	C8	0.373600	0.375070	0.312300
C91	C9	0.370800	0.382890	0.361100
C101	C10	0.480300	0.378940	0.393700
C111	C11	0.594700	0.365900	0.377100
C121	C12	0.595600	0.357800	0.328000
C131	C13	0.713800	0.345600	0.311500
H61	H6	0.713700	0.337600	0.280200
C141	C14	0.828300	0.345800	0.342000
H71	H7	0.906300	0.341000	0.330600
C151	C15	0.824700	0.353300	0.389300
H81	H8	0.900000	0.350900	0.410100
C161	C16	0.714100	0.364000	0.406200
H91	H9	0.717000	0.370300	0.438100
C171	C17	0.473500	0.391180	0.444400
H101	H10	0.388600	0.402300	0.446400
H111	H11	0.535300	0.412800	0.452400
C181	C18	0.545300	0.300000	0.555100
H121	H12	0.563500	0.280800	0.578900
C191	C19	0.624300	0.333300	0.554700
C201	C20	0.602100	0.361360	0.517020
C211	C21	0.499400	0.357390	0.482300
C221	C22	0.414300	0.325200	0.484100
C231	C23	0.440100	0.294200	0.521500
C241	C24	0.351400	0.262400	0.523900
H131	H13	0.367300	0.243400	0.547900
C251	C25	0.243900	0.258500	0.492500
H141	H14	0.188100	0.236800	0.494600
C261	C26	0.218300	0.286800	0.457500
H151	H15	0.143900	0.283900	0.436200
C271	C27	0.298600	0.319600	0.452300
H161	H16	0.276900	0.338100	0.428100
C281	C28	0.062700	0.411600	0.098000
C291	C29	0.948300	0.443860	0.026400
H171	H17	0.913300	0.461800	0.046300
C301	C30	0.028200	0.413920	0.045800
C311	C31	0.082400	0.385000	0.014700
C321	C32	0.054800	0.387600	0.965500
C331	C33	0.972300	0.420100	0.946200
C341	C34	0.917100	0.448540	0.977300
C351	C35	0.834400	0.481300	0.958500
H181	H18	0.798700	0.499300	0.978400
C361	C36	0.810000	0.485100	0.909100
H191	H19	0.755900	0.505600	0.895900
C371	C37	0.865300	0.458900	0.879700
H201	H20	0.848400	0.462500	0.847200
C381	C38	0.943200	0.428100	0.896600
H211	H21	0.979100	0.411600	0.875300
C391	C39	0.112500	0.358500	0.935200
H221	H22	0.169400	0.340800	0.955300
H231	H23	0.165000	0.373500	0.915600
C401	C40	0.854300	0.285700	0.838400
H241	H24	0.798700	0.270300	0.817500
C411	C41	0.853700	0.280500	0.888300
C421	C42	0.935400	0.304300	0.919300
C431	C43	0.931300	0.297700	0.969100
H251	H25	0.985100	0.312800	0.990900
C441	C44	0.850200	0.269900	0.984800
H261	H26	0.849400	0.266500	0.017100
C451	C45	0.770900	0.247300	0.954100
H271	H27	0.716200	0.228300	0.965000
C461	C46	0.772500	0.252900	0.905500
H281	H28	0.717300	0.237700	0.884300
C471	C47	0.972800	0.471700	0.269800
H291	H29	0.006700	0.455300	0.294800
C481	C48	0.874100	0.519500	0.231800
H301	H30	0.825700	0.542700	0.224000
C491	C49	0.925800	0.495060	0.201600
H311	H31	0.919300	0.498800	0.169100
C501	C50	0.869000	0.520700	0.318000
H321	H32	0.890200	0.549300	0.319500
H331	H33	0.918900	0.507500	0.344700
C511	C51	0.730100	0.515800	0.322200
C521	C52	0.675600	0.480500	0.327200
H341	H34	0.729100	0.457900	0.330500
C531	C53	0.544200	0.474000	0.328000
H351	H35	0.512600	0.447800	0.329700
C541	C54	0.465000	0.505260	0.326500
C551	C55	0.520900	0.541400	0.320300
H361	H36	0.469000	0.564300	0.318000
C561	C56	0.649300	0.546300	0.317000
H371	H37	0.679900	0.572000	0.310900
C571	C57	0.323300	0.499320	0.329200
H381	H38	0.294400	0.474900	0.312200
H391	H39	0.310100	0.495700	0.362000
C581	C58	0.212400	0.566830	0.333800
H401	H40	0.228200	0.569500	0.366400
C591	C59	0.154000	0.576910	0.260500
H411	H41	0.118000	0.589300	0.232600
C601	C60	0.209700	0.541170	0.262700
H421	H42	0.222000	0.524300	0.237600
C611	C61	0.095200	0.265880	0.680100
H431	H43	0.110700	0.269200	0.712700
C621	C62	0.023500	0.274780	0.607100
H441	H44	0.980400	0.285600	0.579400
C631	C63	0.094500	0.240560	0.609900
H451	H45	0.109300	0.223800	0.585000
C641	C64	0.222500	0.202210	0.678100
H461	H46	0.188700	0.176500	0.665500
H471	H47	0.219700	0.202000	0.712000
C651	C65	0.359400	0.206480	0.668800
C661	C66	0.413600	0.179500	0.641500
H481	H48	0.364400	0.157900	0.628500
C671	C67	0.537100	0.182900	0.632500
H491	H49	0.569800	0.163800	0.613300
C681	C68	0.615300	0.213940	0.651000
C691	C69	0.562200	0.240900	0.679500
H501	H50	0.612300	0.262100	0.693100
C701	C70	0.436100	0.237400	0.688600
H511	H51	0.402900	0.256000	0.708300
C711	C71	0.751000	0.218100	0.641700
H521	H52	0.756700	0.211000	0.609000
H531	H53	0.777100	0.246200	0.646100
C721	C72	0.885200	0.156930	0.661900
H541	H54	0.866300	0.144100	0.632900
C731	C73	0.963700	0.170040	0.731900
H551	H55	0.011500	0.167900	0.761500
C741	C74	0.889500	0.201130	0.717800
H561	H56	0.874400	0.224000	0.735200
O131	O13	0.158000	0.803470	0.758310
O141	O14	0.984300	0.840830	0.744880
C751	C75	0.070400	0.819000	0.730800
C761	C76	0.066400	0.812500	0.678900
C771	C77	0.979700	0.835600	0.645700
C781	C78	0.981800	0.832100	0.597000
Cd31	Cd3	0.905360	0.912820	0.303240
Cd41	Cd4	0.082710	0.844890	0.825100
N91	N9	0.011700	0.964390	0.274510
N101	N10	0.094900	0.004220	0.224800
N111	N11	0.754600	0.033960	0.190650
N121	N12	0.844100	0.093890	0.194340
N131	N13	0.975200	0.791040	0.848840
N141	N14	0.859200	0.735310	0.843260
N151	N15	0.160800	0.692780	0.827790
N161	N16	0.038600	0.641870	0.801990
O151	O15	0.737700	0.876080	0.265630
O161	O16	0.838600	0.900080	0.208410
O171	O17	0.183500	0.865540	0.909630
O181	O18	0.266700	0.818880	0.868970
O191	O19	0.736800	0.897130	0.124030
H571	H57	0.794100	0.898300	0.146400
O201	O20	0.317700	0.893540	0.983520
H581	H58	0.262000	0.892400	0.960600
O211	O21	0.995000	0.933790	0.377510
O221	O22	0.853800	0.886300	0.385250
O231	O23	0.838200	0.855730	0.466000
H591	H59	0.829800	0.857800	0.437200
O241	O24	0.897200	0.861050	0.662280
H601	H60	0.906900	0.860200	0.691200
C791	C79	0.742200	0.884000	0.223700
C801	C80	0.269300	0.838980	0.905600
C811	C81	0.515900	0.862470	0.202700
H611	H61	0.515100	0.856800	0.234500
C821	C82	0.626400	0.875070	0.187700
C831	C83	0.629200	0.882890	0.138900
C841	C84	0.519700	0.878940	0.106300
C851	C85	0.405300	0.865900	0.122900
C861	C86	0.404400	0.857800	0.172000
C871	C87	0.286200	0.845600	0.188500
H621	H62	0.286300	0.837600	0.219800
C881	C88	0.171700	0.845800	0.158000
H631	H63	0.093700	0.841000	0.169400
C891	C89	0.175300	0.853300	0.110700
H641	H64	0.100000	0.850900	0.089900
C901	C90	0.285900	0.864000	0.093800
H651	H65	0.283000	0.870300	0.061900
C911	C91	0.526500	0.891180	0.055600
H661	H66	0.611400	0.902300	0.053600
H671	H67	0.464700	0.912800	0.047600
C921	C92	0.454700	0.800000	0.944900
H681	H68	0.436500	0.780800	0.921100
C931	C93	0.375700	0.833300	0.945300
C941	C94	0.397900	0.861360	0.982980
C951	C95	0.500600	0.857390	0.017700
C961	C96	0.585700	0.825200	0.015900
C971	C97	0.559900	0.794200	0.978500
C981	C98	0.648600	0.762400	0.976100
H691	H69	0.632700	0.743400	0.952100
C991	C99	0.756100	0.758500	0.007500
H701	H70	0.811900	0.736800	0.005400
C1001	C100	0.781700	0.786800	0.042500
H711	H71	0.856100	0.783900	0.063800
C1011	C101	0.701400	0.819600	0.047700
H721	H72	0.723100	0.838100	0.071900
C1021	C102	0.937300	0.911600	0.402000
C1031	C103	0.051700	0.943860	0.473600
H731	H73	0.086700	0.961800	0.453700
C1041	C104	0.971800	0.913920	0.454200
C1051	C105	0.917600	0.885000	0.485300
C1061	C106	0.945200	0.887600	0.534500
C1071	C107	0.027700	0.920100	0.553800
C1081	C108	0.082900	0.948540	0.522700
C1091	C109	0.165600	0.981300	0.541500
H741	H74	0.201300	0.999300	0.521600
C1101	C110	0.190000	0.985100	0.590900
H751	H75	0.244100	0.005600	0.604100
C1111	C111	0.134700	0.958900	0.620300
H761	H76	0.151600	0.962500	0.652800
C1121	C112	0.056800	0.928100	0.603400
H771	H77	0.020900	0.911600	0.624700
C1131	C113	0.887500	0.858500	0.564800
H781	H78	0.830600	0.840800	0.544700
H791	H79	0.835000	0.873500	0.584400
C1141	C114	0.145700	0.785700	0.661600
H801	H80	0.201300	0.770300	0.682500
C1151	C115	0.146300	0.780500	0.611700
C1161	C116	0.064600	0.804300	0.580700
C1171	C117	0.068700	0.797700	0.530900
H811	H81	0.014900	0.812800	0.509100
C1181	C118	0.149800	0.769900	0.515200
H821	H82	0.150600	0.766500	0.482900
C1191	C119	0.229100	0.747300	0.545900
H831	H83	0.283800	0.728300	0.535000
C1201	C120	0.227500	0.752900	0.594500
H841	H84	0.282700	0.737700	0.615700
C1211	C121	0.027200	0.971700	0.230200
H851	H85	0.993300	0.955300	0.205200
C1221	C122	0.125900	0.019500	0.268200
H861	H86	0.174300	0.042700	0.276000
C1231	C123	0.074200	0.995060	0.298400
H871	H87	0.080700	0.998800	0.330900
C1241	C124	0.131000	0.020700	0.182000
H881	H88	0.109800	0.049300	0.180500
H891	H89	0.081100	0.007500	0.155300
C1251	C125	0.269900	0.015800	0.177800
C1261	C126	0.324400	0.980500	0.172800
H901	H90	0.270900	0.957900	0.169500
C1271	C127	0.455800	0.974000	0.172000
H911	H91	0.487400	0.947800	0.170300
C1281	C128	0.535000	0.005260	0.173500
C1291	C129	0.479100	0.041400	0.179700
H921	H92	0.531000	0.064300	0.182000
C1301	C130	0.350700	0.046300	0.183000
H931	H93	0.320100	0.072000	0.189100
C1311	C131	0.676700	0.999320	0.170800
H941	H94	0.705600	0.974900	0.187800
H951	H95	0.689900	0.995700	0.138000
C1321	C132	0.787600	0.066830	0.166200
H961	H96	0.771800	0.069500	0.133600
C1331	C133	0.846000	0.076910	0.239500
H971	H97	0.882000	0.089300	0.267400
C1341	C134	0.790300	0.041170	0.237300
H981	H98	0.778000	0.024300	0.262400
C1351	C135	0.904800	0.765880	0.819900
H991	H99	0.889300	0.769200	0.787300
C1361	C136	0.976500	0.774780	0.892900
H1001	H100	0.019600	0.785600	0.920600
C1371	C137	0.905500	0.740560	0.890100
H1011	H101	0.890700	0.723800	0.915000
C1381	C138	0.777500	0.702210	0.821900
H1021	H102	0.811300	0.676500	0.834500
H1031	H103	0.780300	0.702000	0.788000
C1391	C139	0.640600	0.706480	0.831200
C1401	C140	0.586400	0.679500	0.858500
H1041	H104	0.635600	0.657900	0.871500
C1411	C141	0.462900	0.682900	0.867500
H1051	H105	0.430200	0.663800	0.886700
C1421	C142	0.384700	0.713940	0.849000
C1431	C143	0.437800	0.740900	0.820500
H1061	H106	0.387700	0.762100	0.806900
C1441	C144	0.563900	0.737400	0.811400
H1071	H107	0.597100	0.756000	0.791700
C1451	C145	0.249000	0.718100	0.858300
H1081	H108	0.243300	0.711000	0.891000
H1091	H109	0.222900	0.746200	0.853900
C1461	C146	0.114800	0.656930	0.838100
H1101	H110	0.133700	0.644100	0.867100
C1471	C147	0.036300	0.670040	0.768100
H1111	H111	0.988500	0.667900	0.738500
C1481	C148	0.110500	0.701130	0.782200
H1121	H112	0.125600	0.724000	0.764800
O251	O25	0.158000	0.696530	0.258310
O261	O26	0.984300	0.659170	0.244880
C1491	C149	0.070400	0.681000	0.230800
C1501	C150	0.066400	0.687500	0.178900
C1511	C151	0.979700	0.664400	0.145700
C1521	C152	0.981800	0.667900	0.097000
Cd51	Cd5	0.905360	0.587180	0.803240
Cd61	Cd6	0.082710	0.655110	0.325100
N171	N17	0.011700	0.535610	0.774510
N181	N18	0.094900	0.495780	0.724800
N191	N19	0.754600	0.466040	0.690650
N201	N20	0.844100	0.406110	0.694340
N211	N21	0.975200	0.708960	0.348840
N221	N22	0.859200	0.764690	0.343260
N231	N23	0.160800	0.807220	0.327790
N241	N24	0.038600	0.858130	0.301990
O271	O27	0.737700	0.623920	0.765630
O281	O28	0.838600	0.599920	0.708410
O291	O29	0.183500	0.634460	0.409630
O301	O30	0.266700	0.681120	0.368970
O311	O31	0.736800	0.602870	0.624030
H1131	H113	0.794100	0.601700	0.646400
O321	O32	0.317700	0.606460	0.483520
H1141	H114	0.262000	0.607600	0.460600
O331	O33	0.995000	0.566210	0.877510
O341	O34	0.853800	0.613700	0.885250
O351	O35	0.838200	0.644270	0.966000
H1151	H115	0.829800	0.642200	0.937200
O361	O36	0.897200	0.638950	0.162280
H1161	H116	0.906900	0.639800	0.191200
C1531	C153	0.742200	0.616000	0.723700
C1541	C154	0.269300	0.661020	0.405600
C1551	C155	0.515900	0.637530	0.702700
H1171	H117	0.515100	0.643200	0.734500
C1561	C156	0.626400	0.624930	0.687700
C1571	C157	0.629200	0.617110	0.638900
C1581	C158	0.519700	0.621060	0.606300
C1591	C159	0.405300	0.634100	0.622900
C1601	C160	0.404400	0.642200	0.672000
C1611	C161	0.286200	0.654400	0.688500
H1181	H118	0.286300	0.662400	0.719800
C1621	C162	0.171700	0.654200	0.658000
H1191	H119	0.093700	0.659000	0.669400
C1631	C163	0.175300	0.646700	0.610700
H1201	H120	0.100000	0.649100	0.589900
C1641	C164	0.285900	0.636000	0.593800
H1211	H121	0.283000	0.629700	0.561900
C1651	C165	0.526500	0.608820	0.555600
H1221	H122	0.611400	0.597700	0.553600
H1231	H123	0.464700	0.587200	0.547600
C1661	C166	0.454700	0.700000	0.444900
H1241	H124	0.436500	0.719200	0.421100
C1671	C167	0.375700	0.666700	0.445300
C1681	C168	0.397900	0.638640	0.482980
C1691	C169	0.500600	0.642610	0.517700
C1701	C170	0.585700	0.674800	0.515900
C1711	C171	0.559900	0.705800	0.478500
C1721	C172	0.648600	0.737600	0.476100
H1251	H125	0.632700	0.756600	0.452100
C1731	C173	0.756100	0.741500	0.507500
H1261	H126	0.811900	0.763200	0.505400
C1741	C174	0.781700	0.713200	0.542500
H1271	H127	0.856100	0.716100	0.563800
C1751	C175	0.701400	0.680400	0.547700
H1281	H128	0.723100	0.661900	0.571900
C1761	C176	0.937300	0.588400	0.902000
C1771	C177	0.051700	0.556140	0.973600
H1291	H129	0.086700	0.538200	0.953700
C1781	C178	0.971800	0.586080	0.954200
C1791	C179	0.917600	0.615000	0.985300
C1801	C180	0.945200	0.612400	0.034500
C1811	C181	0.027700	0.579900	0.053800
C1821	C182	0.082900	0.551460	0.022700
C1831	C183	0.165600	0.518700	0.041500
H1301	H130	0.201300	0.500700	0.021600
C1841	C184	0.190000	0.514900	0.090900
H1311	H131	0.244100	0.494400	0.104100
C1851	C185	0.134700	0.541100	0.120300
H1321	H132	0.151600	0.537500	0.152800
C1861	C186	0.056800	0.571900	0.103400
H1331	H133	0.020900	0.588400	0.124700
C1871	C187	0.887500	0.641500	0.064800
H1341	H134	0.830600	0.659200	0.044700
H1351	H135	0.835000	0.626500	0.084400
C1881	C188	0.145700	0.714300	0.161600
H1361	H136	0.201300	0.729700	0.182500
C1891	C189	0.146300	0.719500	0.111700
C1901	C190	0.064600	0.695700	0.080700
C1911	C191	0.068700	0.702300	0.030900
H1371	H137	0.014900	0.687200	0.009100
C1921	C192	0.149800	0.730100	0.015200
H1381	H138	0.150600	0.733500	0.982900
C1931	C193	0.229100	0.752700	0.045900
H1391	H139	0.283800	0.771700	0.035000
C1941	C194	0.227500	0.747100	0.094500
H1401	H140	0.282700	0.762300	0.115700
C1951	C195	0.027200	0.528300	0.730200
H1411	H141	0.993300	0.544700	0.705200
C1961	C196	0.125900	0.480500	0.768200
H1421	H142	0.174300	0.457300	0.776000
C1971	C197	0.074200	0.504940	0.798400
H1431	H143	0.080700	0.501200	0.830900
C1981	C198	0.131000	0.479300	0.682000
H1441	H144	0.109800	0.450700	0.680500
H1451	H145	0.081100	0.492500	0.655300
C1991	C199	0.269900	0.484200	0.677800
C2001	C200	0.324400	0.519500	0.672800
H1461	H146	0.270900	0.542100	0.669500
C2011	C201	0.455800	0.526000	0.672000
H1471	H147	0.487400	0.552200	0.670300
C2021	C202	0.535000	0.494740	0.673500
C2031	C203	0.479100	0.458600	0.679700
H1481	H148	0.531000	0.435700	0.682000
C2041	C204	0.350700	0.453700	0.683000
H1491	H149	0.320100	0.428000	0.689100
C2051	C205	0.676700	0.500680	0.670800
H1501	H150	0.705600	0.525100	0.687800
H1511	H151	0.689900	0.504300	0.638000
C2061	C206	0.787600	0.433170	0.666200
H1521	H152	0.771800	0.430500	0.633600
C2071	C207	0.846000	0.423090	0.739500
H1531	H153	0.882000	0.410700	0.767400
C2081	C208	0.790300	0.458830	0.737300
H1541	H154	0.778000	0.475700	0.762400
C2091	C209	0.904800	0.734120	0.319900
H1551	H155	0.889300	0.730800	0.287300
C2101	C210	0.976500	0.725220	0.392900
H1561	H156	0.019600	0.714400	0.420600
C2111	C211	0.905500	0.759440	0.390100
H1571	H157	0.890700	0.776200	0.415000
C2121	C212	0.777500	0.797790	0.321900
H1581	H158	0.811300	0.823500	0.334500
H1591	H159	0.780300	0.798000	0.288000
C2131	C213	0.640600	0.793520	0.331200
C2141	C214	0.586400	0.820500	0.358500
H1601	H160	0.635600	0.842100	0.371500
C2151	C215	0.462900	0.817100	0.367500
H1611	H161	0.430200	0.836200	0.386700
C2161	C216	0.384700	0.786060	0.349000
C2171	C217	0.437800	0.759100	0.320500
H1621	H162	0.387700	0.737900	0.306900
C2181	C218	0.563900	0.762600	0.311400
H1631	H163	0.597100	0.744000	0.291700
C2191	C219	0.249000	0.781900	0.358300
H1641	H164	0.243300	0.789000	0.391000
H1651	H165	0.222900	0.753800	0.353900
C2201	C220	0.114800	0.843070	0.338100
H1661	H166	0.133700	0.855900	0.367100
C2211	C221	0.036300	0.829960	0.268100
H1671	H167	0.988500	0.832100	0.238500
C2221	C222	0.110500	0.798870	0.282200
H1681	H168	0.125600	0.776000	0.264800
O371	O37	0.842000	0.196530	0.241690
O381	O38	0.015700	0.159170	0.255120
C2231	C223	0.929600	0.181000	0.269200
C2241	C224	0.933600	0.187500	0.321100
C2251	C225	0.020300	0.164400	0.354300
C2261	C226	0.018200	0.167900	0.403000
Cd71	Cd7	0.094640	0.087180	0.696760
Cd81	Cd8	0.917290	0.155110	0.174900
N251	N25	0.988300	0.035610	0.725490
N261	N26	0.905100	0.995780	0.775200
N271	N27	0.245400	0.966040	0.809350
N281	N28	0.155900	0.906110	0.805660
N291	N29	0.024800	0.208960	0.151160
N301	N30	0.140800	0.264690	0.156740
N311	N31	0.839200	0.307220	0.172210
N321	N32	0.961400	0.358130	0.198010
O391	O39	0.262300	0.123920	0.734370
O401	O40	0.161400	0.099920	0.791590
O411	O41	0.816500	0.134460	0.090370
O421	O42	0.733300	0.181120	0.131030
O431	O43	0.263200	0.102870	0.875970
H1691	H169	0.205900	0.101700	0.853600
O441	O44	0.682300	0.106460	0.016480
H1701	H170	0.738000	0.107600	0.039400
O451	O45	0.005000	0.066210	0.622490
O461	O46	0.146200	0.113700	0.614750
O471	O47	0.161800	0.144270	0.534000
H1711	H171	0.170200	0.142200	0.562800
O481	O48	0.102800	0.138950	0.337720
H1721	H172	0.093100	0.139800	0.308800
C2271	C227	0.257800	0.116000	0.776300
C2281	C228	0.730700	0.161020	0.094400
C2291	C229	0.484100	0.137530	0.797300
H1731	H173	0.484900	0.143200	0.765500
C2301	C230	0.373600	0.124930	0.812300
C2311	C231	0.370800	0.117110	0.861100
C2321	C232	0.480300	0.121060	0.893700
C2331	C233	0.594700	0.134100	0.877100
C2341	C234	0.595600	0.142200	0.828000
C2351	C235	0.713800	0.154400	0.811500
H1741	H174	0.713700	0.162400	0.780200
C2361	C236	0.828300	0.154200	0.842000
H1751	H175	0.906300	0.159000	0.830600
C2371	C237	0.824700	0.146700	0.889300
H1761	H176	0.900000	0.149100	0.910100
C2381	C238	0.714100	0.136000	0.906200
H1771	H177	0.717000	0.129700	0.938100
C2391	C239	0.473500	0.108820	0.944400
H1781	H178	0.388600	0.097700	0.946400
H1791	H179	0.535300	0.087200	0.952400
C2401	C240	0.545300	0.200000	0.055100
H1801	H180	0.563500	0.219200	0.078900
C2411	C241	0.624300	0.166700	0.054700
C2421	C242	0.602100	0.138640	0.017020
C2431	C243	0.499400	0.142610	0.982300
C2441	C244	0.414300	0.174800	0.984100
C2451	C245	0.440100	0.205800	0.021500
C2461	C246	0.351400	0.237600	0.023900
H1811	H181	0.367300	0.256600	0.047900
C2471	C247	0.243900	0.241500	0.992500
H1821	H182	0.188100	0.263200	0.994600
C2481	C248	0.218300	0.213200	0.957500
H1831	H183	0.143900	0.216100	0.936200
C2491	C249	0.298600	0.180400	0.952300
H1841	H184	0.276900	0.161900	0.928100
C2501	C250	0.062700	0.088400	0.598000
C2511	C251	0.948300	0.056140	0.526400
H1851	H185	0.913300	0.038200	0.546300
C2521	C252	0.028200	0.086080	0.545800
C2531	C253	0.082400	0.115000	0.514700
C2541	C254	0.054800	0.112400	0.465500
C2551	C255	0.972300	0.079900	0.446200
C2561	C256	0.917100	0.051460	0.477300
C2571	C257	0.834400	0.018700	0.458500
H1861	H186	0.798700	0.000700	0.478400
C2581	C258	0.810000	0.014900	0.409100
H1871	H187	0.755900	0.994400	0.395900
C2591	C259	0.865300	0.041100	0.379700
H1881	H188	0.848400	0.037500	0.347200
C2601	C260	0.943200	0.071900	0.396600
H1891	H189	0.979100	0.088400	0.375300
C2611	C261	0.112500	0.141500	0.435200
H1901	H190	0.169400	0.159200	0.455300
H1911	H191	0.165000	0.126500	0.415600
C2621	C262	0.854300	0.214300	0.338400
H1921	H192	0.798700	0.229700	0.317500
C2631	C263	0.853700	0.219500	0.388300
C2641	C264	0.935400	0.195700	0.419300
C2651	C265	0.931300	0.202300	0.469100
H1931	H193	0.985100	0.187200	0.490900
C2661	C266	0.850200	0.230100	0.484800
H1941	H194	0.849400	0.233500	0.517100
C2671	C267	0.770900	0.252700	0.454100
H1951	H195	0.716200	0.271700	0.465000
C2681	C268	0.772500	0.247100	0.405500
H1961	H196	0.717300	0.262300	0.384300
C2691	C269	0.972800	0.028300	0.769800
H1971	H197	0.006700	0.044700	0.794800
C2701	C270	0.874100	0.980500	0.731800
H1981	H198	0.825700	0.957300	0.724000
C2711	C271	0.925800	0.004940	0.701600
H1991	H199	0.919300	0.001200	0.669100
C2721	C272	0.869000	0.979300	0.818000
H2001	H200	0.890200	0.950700	0.819500
H2011	H201	0.918900	0.992500	0.844700
C2731	C273	0.730100	0.984200	0.822200
C2741	C274	0.675600	0.019500	0.827200
H2021	H202	0.729100	0.042100	0.830500
C2751	C275	0.544200	0.026000	0.828000
H2031	H203	0.512600	0.052200	0.829700
C2761	C276	0.465000	0.994740	0.826500
C2771	C277	0.520900	0.958600	0.820300
H2041	H204	0.469000	0.935700	0.818000
C2781	C278	0.649300	0.953700	0.817000
H2051	H205	0.679900	0.928000	0.810900
C2791	C279	0.323300	0.000680	0.829200
H2061	H206	0.294400	0.025100	0.812200
H2071	H207	0.310100	0.004300	0.862000
C2801	C280	0.212400	0.933170	0.833800
H2081	H208	0.228200	0.930500	0.866400
C2811	C281	0.154000	0.923090	0.760500
H2091	H209	0.118000	0.910700	0.732600
C2821	C282	0.209700	0.958830	0.762700
H2101	H210	0.222000	0.975700	0.737600
C2831	C283	0.095200	0.234120	0.180100
H2111	H211	0.110700	0.230800	0.212700
C2841	C284	0.023500	0.225220	0.107100
H2121	H212	0.980400	0.214400	0.079400
C2851	C285	0.094500	0.259440	0.109900
H2131	H213	0.109300	0.276200	0.085000
C2861	C286	0.222500	0.297790	0.178100
H2141	H214	0.188700	0.323500	0.165500
H2151	H215	0.219700	0.298000	0.212000
C2871	C287	0.359400	0.293520	0.168800
C2881	C288	0.413600	0.320500	0.141500
H2161	H216	0.364400	0.342100	0.128500
C2891	C289	0.537100	0.317100	0.132500
H2171	H217	0.569800	0.336200	0.113300
C2901	C290	0.615300	0.286060	0.151000
C2911	C291	0.562200	0.259100	0.179500
H2181	H218	0.612300	0.237900	0.193100
C2921	C292	0.436100	0.262600	0.188600
H2191	H219	0.402900	0.244000	0.208300
C2931	C293	0.751000	0.281900	0.141700
H2201	H220	0.756700	0.289000	0.109000
H2211	H221	0.777100	0.253800	0.146100
C2941	C294	0.885200	0.343070	0.161900
H2221	H222	0.866300	0.355900	0.132900
C2951	C295	0.963700	0.329960	0.231900
H2231	H223	0.011500	0.332100	0.261500
C2961	C296	0.889500	0.298870	0.217800
H2241	H224	0.874400	0.276000	0.235200
