data_JORVET_clean_PM
_symmetry_space_group_name_H-M	'P1'
_cell_length_a	18.115800
_cell_length_b	22.152000
_cell_length_c	30.718000
_cell_angle_alpha	82.208200
_cell_angle_beta	72.850100
_cell_angle_gamma	65.864400
_symmetry_Int_Tables_number 1

loop_
_symmetry_equiv_pos_as_xyz
'x,y,z'

loop_
_atom_site_label
_atom_site_type_symbol
_atom_site_fract_x
_atom_site_fract_y
_atom_site_fract_z
Zn11	Zn1	0.009910	0.285080	0.311300
Zn21	Zn2	0.486240	0.733820	0.694320
Zn31	Zn3	0.606290	0.214920	0.188700
Zn41	Zn4	0.128070	0.912690	0.705460
Zn51	Zn5	0.393710	0.785080	0.811300
Zn61	Zn6	0.871930	0.087310	0.294540
Zn71	Zn7	0.914380	0.766180	0.805680
Zn81	Zn8	0.746220	0.587310	0.794540
Zn91	Zn9	0.085620	0.233820	0.194320
Zn101	Zn10	0.513760	0.266180	0.305680
Zn111	Zn11	0.253780	0.412690	0.205460
Zn121	Zn12	0.990090	0.714920	0.688700
H11	H1	0.187600	0.687800	0.456600
H21	H2	0.000900	0.862400	0.125200
H31	H3	0.265500	0.253000	0.422400
H41	H4	0.328300	0.295700	0.516100
H51	H5	0.916500	0.525800	0.095000
H61	H6	0.668000	0.187800	0.956600
H71	H7	0.824400	0.316800	0.885000
H81	H8	0.531000	0.355000	0.437200
H91	H9	0.083500	0.474200	0.905000
H101	H10	0.087000	0.804400	0.324000
H111	H11	0.865500	0.901200	0.108000
H121	H12	0.059100	0.753000	0.922400
H131	H13	0.432000	0.456300	0.517700
H141	H14	0.175600	0.683200	0.115000
H151	H15	0.231300	0.919900	0.471100
H161	H16	0.713100	0.434400	0.113800
H171	H17	0.514500	0.728900	0.867700
H181	H18	0.286900	0.565600	0.886200
H191	H19	0.190100	0.192000	0.513000
H201	H20	0.036200	0.133000	0.183200
H211	H21	0.776900	0.230700	0.727100
H221	H22	0.874300	0.635600	0.677800
H231	H23	0.895200	0.083400	0.709400
H241	H24	0.379600	0.457500	0.898100
H251	H25	0.276400	0.605800	0.491800
H261	H26	0.406000	0.043700	0.982300
H271	H27	0.241100	0.125900	0.445500
H281	H28	0.723600	0.394200	0.508200
H291	H29	0.816600	0.962100	0.847700
H301	H30	0.851000	0.511500	0.045700
H311	H31	0.749000	0.368600	0.416400
H321	H32	0.466000	0.868600	0.916400
H331	H33	0.778300	0.823700	0.442900
H341	H34	0.622300	0.580100	0.028900
H351	H35	0.377700	0.419900	0.971100
H361	H36	0.537300	0.974200	0.405000
H371	H37	0.734200	0.873800	0.009200
H381	H38	0.111100	0.771100	0.632300
H391	H39	0.099400	0.514100	0.625500
H401	H40	0.215400	0.695600	0.176000
H411	H41	0.352400	0.367000	0.316800
H421	H42	0.394300	0.533500	0.512900
H431	H43	0.152800	0.919600	0.793000
H441	H44	0.898600	0.439100	0.685100
H451	H45	0.186300	0.331000	0.135200
H461	H46	0.955100	0.323700	0.942900
H471	H47	0.239000	0.985900	0.874500
H481	H48	0.688000	0.416600	0.790600
H491	H49	0.053900	0.841300	0.811100
H501	H50	0.784600	0.304400	0.824000
H511	H51	0.265800	0.126200	0.990800
H521	H52	0.470400	0.857000	0.578800
H531	H53	0.859900	0.795700	0.016100
H541	H54	0.134600	0.419600	0.293000
H551	H55	0.591800	0.011500	0.545700
H561	H56	0.400400	0.319500	0.136500
H571	H57	0.529600	0.143000	0.421200
H581	H58	0.858100	0.567600	0.976600
H591	H59	0.440700	0.966500	0.987100
H601	H60	0.534000	0.131400	0.083600
H611	H61	0.134500	0.098800	0.892000
H621	H62	0.647600	0.633000	0.683200
H631	H63	0.251000	0.631400	0.583600
H641	H64	0.166700	0.667800	0.392000
H651	H65	0.265300	0.730700	0.227100
H661	H66	0.988200	0.094700	0.208700
H671	H67	0.101400	0.560900	0.314900
H681	H68	0.973800	0.816800	0.385000
H691	H69	0.044900	0.676300	0.057100
H701	H70	0.735200	0.042500	0.601900
H711	H71	0.469000	0.645000	0.562800
H721	H72	0.874700	0.598800	0.392000
H731	H73	0.568000	0.543700	0.482300
H741	H74	0.223100	0.769300	0.272900
H751	H75	0.652500	0.169000	0.364800
H761	H76	0.074800	0.264000	0.592200
H771	H77	0.940900	0.247000	0.077600
H781	H78	0.847200	0.080400	0.207000
H791	H79	0.140100	0.204300	0.983900
H801	H80	0.742500	0.425300	0.650100
H811	H81	0.261300	0.065600	0.386200
H821	H82	0.688100	0.571200	0.946000
H831	H83	0.187700	0.864400	0.822200
H841	H84	0.773500	0.167800	0.892000
H851	H85	0.408200	0.988500	0.454300
H861	H86	0.620400	0.542500	0.101900
H871	H87	0.734700	0.269300	0.772900
H881	H88	0.906200	0.643000	0.921200
H891	H89	0.022800	0.060900	0.814900
H901	H90	0.904800	0.419000	0.863000
H911	H91	0.796300	0.692800	0.432800
H921	H92	0.559300	0.033500	0.012900
H931	H93	0.264800	0.957500	0.398100
H941	H94	0.768700	0.080100	0.528900
H951	H95	0.671700	0.704300	0.483900
H961	H96	0.026200	0.183200	0.615000
H971	H97	0.597700	0.067600	0.476600
H981	H98	0.187500	0.625900	0.945500
H991	H99	0.226500	0.832200	0.108000
H1001	H100	0.143600	0.819500	0.636500
H1011	H101	0.812300	0.135600	0.177800
H1021	H102	0.402300	0.932400	0.523400
H1031	H103	0.758900	0.874100	0.554500
H1041	H104	0.817900	0.074700	0.849900
H1051	H105	0.977200	0.939100	0.185100
H1061	H106	0.676800	0.855000	0.937200
H1071	H107	0.205300	0.928800	0.554000
H1081	H108	0.946100	0.158700	0.188900
H1091	H109	0.931000	0.236000	0.907800
H1101	H110	0.812500	0.374100	0.054500
H1111	H111	0.921900	0.807200	0.067200
H1121	H112	0.374000	0.894200	0.008200
H1131	H113	0.183400	0.037900	0.152300
H1141	H114	0.262900	0.319800	0.147000
H1151	H115	0.599600	0.680500	0.863500
H1161	H116	0.221700	0.176300	0.557100
H1171	H117	0.339800	0.087800	0.574800
H1181	H118	0.738700	0.934400	0.613800
H1191	H119	0.332000	0.812200	0.043400
H1201	H120	0.104900	0.692000	0.013000
H1211	H121	0.617200	0.626200	0.490800
H1221	H122	0.149000	0.488500	0.954300
H1231	H123	0.270300	0.819800	0.647000
H1241	H124	0.594000	0.956300	0.017700
H1251	H125	0.257500	0.574700	0.349900
H1261	H126	0.462700	0.025800	0.595000
H1271	H127	0.856400	0.180500	0.363500
H1281	H128	0.708400	0.594700	0.708700
H1291	H129	0.895100	0.308000	0.987000
H1301	H130	0.605700	0.466500	0.487100
H1311	H131	0.093800	0.357000	0.078800
H1321	H132	0.813700	0.669000	0.864800
H1331	H133	0.293700	0.341300	0.311100
H1341	H134	0.813200	0.919000	0.363000
H1351	H135	0.626400	0.537900	0.652300
H1361	H136	0.812400	0.312200	0.543400
H1371	H137	0.323200	0.145000	0.062800
H1381	H138	0.203700	0.307200	0.567200
H1391	H139	0.888900	0.228900	0.367700
H1401	H140	0.182100	0.925300	0.150100
H1411	H141	0.865400	0.580400	0.707000
H1421	H142	0.125700	0.364400	0.322200
H1431	H143	0.761000	0.014100	0.125500
H1441	H144	0.291600	0.405300	0.291300
H1451	H145	0.002400	0.412200	0.925200
H1461	H146	0.125300	0.401200	0.608000
H1471	H147	0.011500	0.362400	0.625200
H1481	H148	0.999100	0.137600	0.874800
H1491	H149	0.485500	0.271100	0.132300
H1501	H150	0.078100	0.192800	0.932800
H1511	H151	0.925200	0.736000	0.407800
H1521	H152	0.988500	0.637600	0.374800
H1531	H153	0.737100	0.680200	0.853000
H1541	H154	0.311900	0.428800	0.054000
H1551	H155	0.141900	0.432400	0.023400
H1561	H156	0.913000	0.195600	0.676000
H1571	H157	0.833300	0.332200	0.608000
H1581	H158	0.809900	0.808000	0.487000
H1591	H159	0.997600	0.587800	0.074800
H1601	H160	0.963800	0.867000	0.816800
H1611	H161	0.312000	0.583400	0.209400
H1621	H162	0.186800	0.081000	0.637000
H1631	H163	0.011800	0.905300	0.791300
H1641	H164	0.069000	0.764000	0.092200
H1651	H165	0.626000	0.105800	0.991800
H1661	H166	0.794700	0.071200	0.446000
H1671	H167	0.373600	0.462100	0.347700
H1681	H168	0.729700	0.180200	0.353000
H1691	H169	0.347500	0.831000	0.635200
H1701	H170	0.382800	0.373800	0.509200
H1711	H171	0.095200	0.581000	0.137000
H1721	H172	0.734500	0.747000	0.577600
H1731	H173	0.706300	0.658700	0.688900
H1741	H174	0.900600	0.485900	0.374500
H1751	H175	0.660200	0.912200	0.425200
H1761	H176	0.104800	0.916600	0.290600
C11	C1	0.777880	0.905640	0.467200
C21	C2	0.209900	0.636100	0.403100
C31	C3	0.721400	0.943200	0.052600
C41	C4	0.822840	0.682780	0.803340
C51	C5	0.253500	0.047700	0.415500
C61	C6	0.317900	0.158610	0.498790
C71	C7	0.874800	0.379200	0.370800
C81	C8	0.822100	0.440000	0.398800
C91	C9	0.522590	0.851950	0.559070
C101	C10	0.329230	0.538540	0.440200
C111	C11	0.738300	0.420100	0.621500
C121	C12	0.150130	0.568040	0.077500
C131	C13	0.232130	0.059940	0.496200
C141	C14	0.212700	0.750000	0.250000
C151	C15	0.688110	0.933880	0.936300
C161	C16	0.250700	0.969200	0.101600
C171	C17	0.472730	0.113040	0.483100
C181	C18	0.298000	0.333700	0.533500
C191	C19	0.258300	0.551900	0.570900
C201	C20	0.741700	0.448100	0.429100
C211	C21	0.786890	0.519720	0.867300
C221	C22	0.272530	0.470130	0.049010
C231	C23	0.336500	0.900800	0.037000
C241	C24	0.223590	0.632820	0.252600
C251	C25	0.872500	0.841000	0.063400
C261	C26	0.765200	0.947700	0.082500
C271	C27	0.021030	0.694630	0.958910
C281	C28	0.692030	0.038540	0.940200
C291	C29	0.744390	0.142150	0.236870
C301	C30	0.465300	0.046700	0.566500
C311	C31	0.308960	0.817220	0.696660
C321	C32	0.545720	0.072260	0.496300
C331	C33	0.618900	0.051900	0.070900
C341	C34	0.612870	0.511760	0.539500
C351	C35	0.780600	0.353100	0.557100
C361	C36	0.746500	0.016600	0.577400
C371	C37	0.957080	0.082490	0.768150
C381	C38	0.691040	0.182780	0.303340
C391	C39	0.381100	0.948100	0.929100
C401	C40	0.807720	0.417510	0.731850
C411	C41	0.253500	0.983400	0.422600
C421	C42	0.224800	0.138000	0.132200
C431	C43	0.114280	0.427740	0.003700
C441	C44	0.725700	0.400800	0.537000
C451	C45	0.307970	0.961460	0.059800
C461	C46	0.767460	0.839780	0.472900
C471	C47	0.788270	0.440060	0.003800
C481	C48	0.619670	0.665250	0.741010
C491	C49	0.230790	0.520050	0.244570
C501	C50	0.727470	0.529870	0.950990
C511	C51	0.161100	0.103300	0.912300
C521	C52	0.438080	0.422740	0.392700
C531	C53	0.339100	0.940000	0.898800
C541	C54	0.919600	0.343900	0.673100
C551	C55	0.042920	0.917510	0.231850
C561	C56	0.886760	0.292580	0.691300
C571	C57	0.776420	0.969360	0.875600
C581	C58	0.678500	0.469200	0.601600
C591	C59	0.375200	0.879200	0.870800
C601	C60	0.239500	0.118800	0.971400
C611	C61	0.043700	0.829900	0.136300
C621	C62	0.457300	0.961200	0.462400
C631	C63	0.477410	0.148050	0.440930
C641	C64	0.787300	0.250000	0.750000
C651	C65	0.147800	0.722900	0.130500
C661	C66	0.760500	0.881200	0.028600
C671	C67	0.325430	0.194630	0.458910
C681	C68	0.385170	0.493860	0.510600
C691	C69	0.885720	0.572260	0.996300
C701	C70	0.878180	0.405990	0.695250
C711	C71	0.226340	0.995620	0.503700
C721	C72	0.165200	0.166300	0.966500
C731	C73	0.975300	0.341390	0.001210
C741	C74	0.610370	0.993860	0.010600
C751	C75	0.321500	0.530800	0.398400
C761	C76	0.232540	0.160220	0.527100
C771	C77	0.590800	0.771500	0.613900
C781	C78	0.779900	0.079900	0.878500
C791	C79	0.769210	0.479950	0.755430
C801	C80	0.757800	0.916700	0.548700
C811	C81	0.278600	0.056800	0.947400
C821	C82	0.222120	0.094360	0.532800
C831	C83	0.236500	0.960400	0.466000
C841	C84	0.084500	0.771600	0.116600
C851	C85	0.171880	0.730240	0.166800
C861	C86	0.393220	0.118760	0.512200
C871	C87	0.441710	0.433880	0.436300
C881	C88	0.670300	0.618800	0.471400
C891	C89	0.150320	0.804060	0.227900
C901	C90	0.027300	0.271600	0.616600
C911	C91	0.020580	0.905990	0.195250
C921	C92	0.662900	0.539600	0.034000
C931	C93	0.834800	0.833700	0.033500
C941	C94	0.119100	0.461200	0.962400
C951	C95	0.204600	0.447700	0.582500
C961	C96	0.195410	0.006660	0.585320
C971	C97	0.255610	0.857850	0.763130
C981	C98	0.795670	0.931960	0.422500
C991	C99	0.211730	0.559940	0.996200
C1001	C100	0.335870	0.011760	0.039500
C1011	C101	0.173910	0.980280	0.632700
C1021	C102	0.763500	0.039600	0.534000
C1031	C103	0.817720	0.304060	0.727900
C1041	C104	0.776900	0.659000	0.436600
C1051	C105	0.242200	0.083300	0.451300
C1061	C106	0.004590	0.020050	0.744570
C1071	C107	0.213110	0.480280	0.132700
C1081	C108	0.852200	0.277100	0.869500
C1091	C109	0.434670	0.309860	0.189400
C1101	C110	0.609080	0.915240	0.445200
C1111	C111	0.066390	0.351950	0.059070
C1121	C112	0.915500	0.228400	0.883400
C1131	C113	0.309200	0.853100	0.057100
C1141	C114	0.192280	0.582490	0.268150
C1151	C115	0.350240	0.003420	0.954100
C1161	C116	0.725660	0.504380	0.996300
C1171	C117	0.223100	0.341000	0.563400
C1181	C118	0.750900	0.136100	0.903100
C1191	C119	0.931080	0.230240	0.666800
C1201	C120	0.998800	0.222900	0.630500
C1211	C121	0.274300	0.599200	0.463000
C1221	C122	0.274340	0.495620	0.003700
C1231	C123	0.674570	0.805370	0.541090
C1241	C124	0.931130	0.613040	0.983100
C1251	C125	0.283300	0.547700	0.915500
C1261	C126	0.776800	0.416700	0.048700
C1271	C127	0.933930	0.190140	0.310600
C1281	C128	0.659500	0.516600	0.077400
C1291	C129	0.972700	0.728400	0.383400
C1301	C130	0.823300	0.603300	0.412300
C1311	C131	0.649760	0.996580	0.045900
C1321	C132	0.870640	0.207420	0.808700
C1331	C133	0.182280	0.695940	0.272100
C1341	C134	0.380330	0.334750	0.258990
C1351	C135	0.337100	0.460400	0.966000
C1361	C136	0.746500	0.952300	0.584500
C1371	C137	0.023800	0.271500	0.113900
C1381	C138	0.219400	0.646900	0.442900
C1391	C139	0.150720	0.594360	0.032800
C1401	C140	0.804590	0.993340	0.414680
C1411	C141	0.212610	0.506660	0.085320
C1421	C142	0.495000	0.362000	0.367800
C1431	C143	0.220100	0.920100	0.121500
C1441	C144	0.177160	0.317220	0.196660
C1451	C145	0.933610	0.648050	0.940930
C1461	C146	0.113240	0.707420	0.308700
C1471	C147	0.828120	0.269760	0.833200
C1481	C148	0.009900	0.670100	0.363700
C1491	C149	0.454280	0.927740	0.503700
C1501	C150	0.253520	0.077260	0.107300
C1511	C151	0.125200	0.620800	0.629200
C1521	C152	0.387130	0.488240	0.460500
C1531	C153	0.329700	0.381200	0.528600
C1541	C154	0.565330	0.690140	0.810600
C1551	C155	0.702000	0.666300	0.466500
C1561	C156	0.121820	0.594010	0.304750
C1571	C157	0.223200	0.583300	0.951300
C1581	C158	0.606780	0.881240	0.487800
C1591	C159	0.109010	0.867180	0.247400
C1601	C160	0.978970	0.305370	0.041090
C1611	C161	0.849680	0.195940	0.772100
C1621	C162	0.561920	0.577260	0.607300
C1631	C163	0.977250	0.690290	0.928610
C1641	C164	0.063400	0.843900	0.173100
C1651	C165	0.791670	0.029870	0.450990
C1661	C166	0.025930	0.834750	0.758990
C1671	C167	0.022750	0.309710	0.071390
C1681	C168	0.746480	0.922740	0.892700
C1691	C169	0.921500	0.546700	0.066500
C1701	C170	0.690800	0.146900	0.942900
C1711	C171	0.024180	0.381240	0.987800
C1721	C172	0.773660	0.004380	0.496300
C1731	C173	0.876590	0.642150	0.736870
C1741	C174	0.717200	0.556800	0.447400
C1751	C175	0.249100	0.863900	0.096900
C1761	C176	0.068920	0.769760	0.333200
C1771	C177	0.223580	0.030640	0.124400
C1781	C178	0.919860	0.339780	0.972900
C1791	C179	0.558290	0.566120	0.563700
C1801	C180	0.969520	0.584760	0.054800
C1811	C181	0.624800	0.120800	0.129200
C1821	C182	0.282800	0.443200	0.552600
C1831	C183	0.311890	0.066120	0.063700
C1841	C184	0.151800	0.509200	0.606400
C1851	C185	0.378620	0.469360	0.375600
C1861	C186	0.078500	0.453300	0.933500
C1871	C187	0.670770	0.461460	0.559800
C1881	C188	0.534700	0.953300	0.433500
C1891	C189	0.775200	0.862000	0.867800
C1901	C190	0.340500	0.483400	0.922600
C1911	C191	0.663500	0.099200	0.963000
C1921	C192	0.848200	0.490800	0.393600
C1931	C193	0.732600	0.009200	0.106400
C1941	C194	0.267400	0.990800	0.893600
C1951	C195	0.990100	0.329900	0.636300
C1961	C196	0.177900	0.560000	0.601200
C1971	C197	0.409200	0.228500	0.386100
C1981	C198	0.660900	0.060000	0.101200
C1991	C199	0.403850	0.190290	0.428610
C2001	C200	0.787390	0.493340	0.914680
C2011	C201	0.001200	0.777100	0.369500
C2021	C202	0.995410	0.979950	0.255430
C2031	C203	0.024700	0.658610	0.998790
C2041	C204	0.956300	0.170100	0.863700
C2051	C205	0.621380	0.530640	0.624400
C2061	C206	0.080140	0.660220	0.027100
C2071	C207	0.390920	0.084760	0.554800
C2081	C208	0.176700	0.396700	0.587700
C2091	C209	0.066070	0.809860	0.689400
C2101	C210	0.838900	0.896700	0.087700
C2111	C211	0.030480	0.415240	0.945200
C2121	C212	0.542700	0.038800	0.537600
C2131	C213	0.976200	0.728500	0.886100
C2141	C214	0.776410	0.367180	0.747400
C2151	C215	0.261700	0.579900	0.378500
C2161	C216	0.123410	0.357850	0.263130
C2171	C217	0.767870	0.940060	0.503800
C2181	C218	0.068870	0.386960	0.016900
C2191	C219	0.692240	0.503420	0.454100
C2201	C220	0.204330	0.068040	0.577500
C2211	C221	0.127500	0.159000	0.936600
C2221	C222	0.880900	0.538800	0.037600
C2231	C223	0.749300	0.030800	0.898400
C2241	C224	0.795400	0.552300	0.417500
C2251	C225	0.234800	0.052300	0.917500
C2261	C226	0.208330	0.970130	0.549010
C2271	C227	0.596150	0.809710	0.571390
C2281	C228	0.790100	0.363900	0.596900
C2291	C229	0.614830	0.506140	0.489400
C2301	C230	0.890990	0.132820	0.752600
C2311	C231	0.307760	0.496580	0.545900
C2321	C232	0.716700	0.452300	0.084500
C2331	C233	0.826090	0.019720	0.367300
C2341	C234	0.080400	0.656100	0.326900
C2351	C235	0.979420	0.094010	0.804750
C2361	C236	0.849870	0.431960	0.922500
C2371	C237	0.505000	0.638000	0.632200
C2381	C238	0.849280	0.405640	0.967200
C2391	C239	0.527270	0.886960	0.516900
C2401	C240	0.682100	0.841390	0.501210
C2411	C241	0.664130	0.988240	0.960500
C2421	C242	0.975820	0.618760	0.012200
C2431	C243	0.129360	0.792580	0.191300
C2441	C244	0.936600	0.156100	0.826900
C2451	C245	0.389630	0.006140	0.989400
C2461	C246	0.974070	0.165250	0.241010
N11	N1	0.177850	0.362860	0.222840
N21	N2	0.545330	0.709740	0.741800
N31	N3	0.093260	0.313320	0.262760
N41	N4	0.127860	0.287980	0.218100
N51	N5	0.012740	0.864590	0.797930
N61	N6	0.633940	0.212020	0.281900
N71	N7	0.236450	0.862860	0.722840
N81	N8	0.220290	0.307110	0.152510
N91	N9	0.491700	0.273380	0.210820
N101	N10	0.366060	0.787980	0.718100
N111	N11	0.800520	0.107450	0.199510
N121	N12	0.024100	0.773380	0.710820
N131	N13	0.199480	0.892550	0.800490
N141	N14	0.987260	0.135410	0.202070
N151	N15	0.454670	0.290260	0.258200
N161	N16	0.763550	0.137140	0.277160
N171	N17	0.929360	0.150210	0.283070
N181	N18	0.892520	0.607450	0.699510
N191	N19	0.551410	0.689370	0.857010
N201	N20	0.070640	0.849790	0.716930
N211	N21	0.330660	0.813320	0.762760
N221	N22	0.320090	0.807110	0.652510
N231	N23	0.107480	0.392550	0.300490
N241	N24	0.872140	0.712020	0.781900
N251	N25	0.003130	0.209740	0.241800
N261	N26	0.324740	0.364590	0.297930
N271	N27	0.448590	0.310630	0.142990
N281	N28	0.362640	0.349790	0.216930
N291	N29	0.097790	0.810630	0.642990
N301	N30	0.902210	0.189370	0.357010
N311	N31	0.975900	0.226620	0.289180
N321	N32	0.508300	0.726620	0.789180
N331	N33	0.996870	0.790260	0.758200
N341	N34	0.822150	0.637140	0.777160
N351	N35	0.675260	0.635410	0.702070
N361	N36	0.637360	0.650210	0.783070
N371	N37	0.679910	0.192890	0.347490
N381	N38	0.779710	0.692890	0.847490
N391	N39	0.906740	0.686680	0.737240
N401	N40	0.669340	0.186680	0.237240
O11	O1	0.170230	0.010050	0.665290
O21	O2	0.654160	0.726650	0.622230
O31	O3	0.665670	0.125200	0.153860
O41	O4	0.481190	0.353730	0.330690
O51	O5	0.801260	0.524240	0.742240
O61	O6	0.838550	0.073690	0.361810
O71	O7	0.829770	0.989950	0.334710
O81	O8	0.198740	0.475760	0.257760
O91	O9	0.165610	0.146270	0.169310
O101	O10	0.066090	0.733730	0.946490
O111	O11	0.154430	0.510050	0.165290
O121	O12	0.053050	0.287610	0.141690
O131	O13	0.546050	0.316630	0.385270
O141	O14	0.946950	0.712390	0.858310
O151	O15	0.342370	0.114950	0.044710
O161	O16	0.334330	0.874800	0.846140
O171	O17	0.345840	0.273350	0.377770
O181	O18	0.196640	0.101750	0.613370
O191	O19	0.557880	0.168640	0.124600
O201	O20	0.932260	0.024240	0.242240
O211	O21	0.010340	0.991130	0.289590
O221	O22	0.933910	0.266270	0.053510
O231	O23	0.517650	0.787610	0.641690
O241	O24	0.291060	0.508870	0.210410
O251	O25	0.545980	0.100880	0.066960
O261	O26	0.286180	0.600880	0.566960
O271	O27	0.708940	0.491130	0.789590
O281	O28	0.161450	0.926310	0.638190
O291	O29	0.518810	0.646270	0.669310
O301	O30	0.055270	0.625200	0.653860
O311	O31	0.706130	0.378590	0.781950
O321	O32	0.996960	0.226650	0.122230
O331	O33	0.497970	0.614950	0.544710
O341	O34	0.482350	0.212390	0.358310
O351	O35	0.088240	0.601750	0.113370
O361	O36	0.003040	0.773350	0.877770
O371	O37	0.866670	0.121410	0.718050
O381	O38	0.502030	0.385050	0.455290
O391	O39	0.442120	0.831360	0.875400
O401	O40	0.834390	0.853730	0.830690
O411	O41	0.253690	0.233730	0.446490
O421	O42	0.845570	0.489950	0.834710
O431	O43	0.454020	0.899120	0.933040
O441	O44	0.944730	0.374800	0.346140
O451	O45	0.989660	0.008870	0.710410
O461	O46	0.274050	0.426310	0.138190
O471	O47	0.133330	0.878590	0.281950
O481	O48	0.746310	0.766270	0.553510
O491	O49	0.657630	0.885050	0.955290
O501	O50	0.851120	0.331360	0.375400
O511	O51	0.803360	0.898250	0.386630
O521	O52	0.293870	0.621410	0.218050
O531	O53	0.247950	0.183370	0.114730
O541	O54	0.148880	0.668640	0.624600
O551	O55	0.725950	0.573690	0.861810
O561	O56	0.752050	0.816630	0.885270
O571	O57	0.713820	0.399120	0.433040
O581	O58	0.911760	0.398250	0.886630
O591	O59	0.453950	0.683370	0.614730
O601	O60	0.067740	0.975760	0.757760
