data_JOSNAG01_clean_PM
_symmetry_space_group_name_H-M	'P1'
_cell_length_a	9.249000
_cell_length_b	9.807000
_cell_length_c	10.730000
_cell_angle_alpha	68.000000
_cell_angle_beta	84.470000
_cell_angle_gamma	62.050000
_symmetry_Int_Tables_number 1

loop_
_symmetry_equiv_pos_as_xyz
'x,y,z'

loop_
_atom_site_label
_atom_site_type_symbol
_atom_site_fract_x
_atom_site_fract_y
_atom_site_fract_z
La11	La1	0.224780	0.043740	0.984230
La21	La2	0.775220	0.956260	0.015770
H11	H1	0.362300	0.125900	0.371800
H21	H2	0.533800	0.975600	0.377300
H31	H3	0.632800	0.162100	0.246100
H41	H4	0.576400	0.189100	0.381200
H51	H5	0.328900	0.424700	0.264800
H61	H6	0.382200	0.396700	0.129200
H71	H7	0.600900	0.450300	0.133700
H81	H8	0.565600	0.460300	0.276400
H91	H9	0.831800	0.096100	0.651000
H101	H10	0.886000	0.229200	0.560500
H111	H11	0.086600	0.881700	0.626900
H121	H12	0.133700	0.017800	0.531200
H131	H13	0.637700	0.874100	0.628200
H141	H14	0.466200	0.024400	0.622700
H151	H15	0.367200	0.837900	0.753900
H161	H16	0.423600	0.810900	0.618800
H171	H17	0.671100	0.575300	0.735200
H181	H18	0.617800	0.603300	0.870800
H191	H19	0.399100	0.549700	0.866300
H201	H20	0.434400	0.539700	0.723600
H211	H21	0.168200	0.903900	0.349000
H221	H22	0.114000	0.770800	0.439500
H231	H23	0.913400	0.118300	0.373100
H241	H24	0.866300	0.982200	0.468800
C11	C1	0.400400	0.087800	0.195000
C21	C2	0.456400	0.088600	0.321500
C31	C3	0.537800	0.200200	0.295300
C41	C4	0.422600	0.384100	0.215100
C51	C5	0.514100	0.485400	0.190600
C61	C6	0.407900	0.671400	0.125300
C71	C7	0.013700	0.093800	0.748600
C81	C8	0.925800	0.115900	0.625200
C91	C9	0.042400	0.994300	0.560200
C101	C10	0.599600	0.912200	0.805000
C111	C11	0.543600	0.911400	0.678500
C121	C12	0.462200	0.799800	0.704700
C131	C13	0.577400	0.615900	0.784900
C141	C14	0.485900	0.514600	0.809400
C151	C15	0.592100	0.328600	0.874700
C161	C16	0.986300	0.906200	0.251400
C171	C17	0.074200	0.884100	0.374800
C181	C18	0.957600	0.005700	0.439800
O11	O1	0.251900	0.122300	0.176400
O21	O2	0.500500	0.051000	0.109900
O31	O3	0.421700	0.765900	0.172700
O41	O4	0.308100	0.733700	0.022500
O51	O5	0.127400	0.133600	0.733800
O61	O6	0.977700	0.031700	0.865500
O71	O7	0.748100	0.877700	0.823600
O81	O8	0.499500	0.949000	0.890100
O91	O9	0.578300	0.234100	0.827300
O101	O10	0.691900	0.266300	0.977500
O111	O11	0.872600	0.866400	0.266200
O121	O12	0.022300	0.968300	0.134500
