data_JOSQEN_clean_PM
_symmetry_space_group_name_H-M	'P1'
_cell_length_a	11.994000
_cell_length_b	12.367000
_cell_length_c	12.552000
_cell_angle_alpha	90.000000
_cell_angle_beta	116.360000
_cell_angle_gamma	90.000000
_symmetry_Int_Tables_number 1

loop_
_symmetry_equiv_pos_as_xyz
'x,y,z'

loop_
_atom_site_label
_atom_site_type_symbol
_atom_site_fract_x
_atom_site_fract_y
_atom_site_fract_z
C11	C1	0.378600	0.814800	0.138600
C21	C2	0.253900	0.846200	0.074500
N11	N1	0.153400	0.877000	0.030500
C31	C3	0.446400	0.865700	0.249400
N21	N2	0.495200	0.912300	0.337200
C41	C4	0.431200	0.731100	0.102100
N31	N3	0.475100	0.662300	0.071800
N41	N4	0.087700	0.039900	0.213400
C51	C5	0.222400	0.016700	0.275300
C61	C6	0.025400	0.969200	0.269200
C71	C7	0.069400	0.155500	0.238200
N51	N5	0.278100	0.036200	0.405900
C81	C8	0.208700	0.965300	0.454300
C91	C9	0.251700	0.151100	0.424000
N61	N6	0.074700	0.989400	0.397500
N71	N7	0.117800	0.175700	0.366400
C101	C10	0.055600	0.103100	0.416400
H11	H1	0.236700	0.932900	0.260500
H21	H2	0.269200	0.067700	0.238000
H31	H3	0.041000	0.885400	0.255400
H41	H4	0.926700	0.985700	0.227100
H51	H5	0.971200	0.174000	0.195200
H61	H6	0.117600	0.207300	0.203100
H71	H7	0.245300	0.978800	0.548900
H81	H8	0.222100	0.881700	0.438100
H91	H9	0.297800	0.203500	0.387100
H101	H10	0.287800	0.166200	0.518200
H111	H11	0.957000	0.120100	0.374200
H121	H12	0.092700	0.117900	0.510800
C111	C11	0.621400	0.314800	0.361400
C121	C12	0.746100	0.346200	0.425500
N81	N8	0.846600	0.377000	0.469500
C131	C13	0.553600	0.365700	0.250600
N91	N9	0.504800	0.412300	0.162800
C141	C14	0.568800	0.231100	0.397900
N101	N10	0.524900	0.162300	0.428200
N111	N11	0.912300	0.539900	0.286600
C151	C15	0.777600	0.516700	0.224700
C161	C16	0.974600	0.469200	0.230800
C171	C17	0.930600	0.655500	0.261800
N121	N12	0.721900	0.536200	0.094100
C181	C18	0.791300	0.465300	0.045700
C191	C19	0.748300	0.651100	0.076000
N131	N13	0.925300	0.489400	0.102500
N141	N14	0.882200	0.675700	0.133600
C201	C20	0.944400	0.603100	0.083600
H131	H13	0.763300	0.432900	0.239500
H141	H14	0.730800	0.567700	0.262000
H151	H15	0.959000	0.385400	0.244600
H161	H16	0.073300	0.485700	0.272900
H171	H17	0.028800	0.674000	0.304800
H181	H18	0.882400	0.707300	0.296900
H191	H19	0.754700	0.478800	0.951100
H201	H20	0.777900	0.381700	0.061900
H211	H21	0.702200	0.703500	0.112900
H221	H22	0.712200	0.666200	0.981800
H231	H23	0.043000	0.620100	0.125800
H241	H24	0.907300	0.617900	0.989200
C211	C21	0.621400	0.185200	0.861400
C221	C22	0.746100	0.153800	0.925500
N151	N15	0.846600	0.123000	0.969500
C231	C23	0.553600	0.134300	0.750600
N161	N16	0.504800	0.087700	0.662800
C241	C24	0.568800	0.268900	0.897900
N171	N17	0.524900	0.337700	0.928200
N181	N18	0.912300	0.960100	0.786600
C251	C25	0.777600	0.983300	0.724700
C261	C26	0.974600	0.030800	0.730800
C271	C27	0.930600	0.844500	0.761800
N191	N19	0.721900	0.963800	0.594100
C281	C28	0.791300	0.034700	0.545700
C291	C29	0.748300	0.848900	0.576000
N201	N20	0.925300	0.010600	0.602500
N211	N21	0.882200	0.824300	0.633600
C301	C30	0.944400	0.896900	0.583600
H251	H25	0.763300	0.067100	0.739500
H261	H26	0.730800	0.932300	0.762000
H271	H27	0.959000	0.114600	0.744600
H281	H28	0.073300	0.014300	0.772900
H291	H29	0.028800	0.826000	0.804800
H301	H30	0.882400	0.792700	0.796900
H311	H31	0.754700	0.021200	0.451100
H321	H32	0.777900	0.118300	0.561900
H331	H33	0.702200	0.796500	0.612900
H341	H34	0.712200	0.833800	0.481800
H351	H35	0.043000	0.879900	0.625800
H361	H36	0.907300	0.882100	0.489200
C311	C31	0.378600	0.685200	0.638600
C321	C32	0.253900	0.653800	0.574500
N221	N22	0.153400	0.623000	0.530500
C331	C33	0.446400	0.634300	0.749400
N231	N23	0.495200	0.587700	0.837200
C341	C34	0.431200	0.768900	0.602100
N241	N24	0.475100	0.837700	0.571800
N251	N25	0.087700	0.460100	0.713400
C351	C35	0.222400	0.483300	0.775300
C361	C36	0.025400	0.530800	0.769200
C371	C37	0.069400	0.344500	0.738200
N261	N26	0.278100	0.463800	0.905900
C381	C38	0.208700	0.534700	0.954300
C391	C39	0.251700	0.348900	0.924000
N271	N27	0.074700	0.510600	0.897500
N281	N28	0.117800	0.324300	0.866400
C401	C40	0.055600	0.396900	0.916400
H371	H37	0.236700	0.567100	0.760500
H381	H38	0.269200	0.432300	0.738000
H391	H39	0.041000	0.614600	0.755400
H401	H40	0.926700	0.514300	0.727100
H411	H41	0.971200	0.326000	0.695200
H421	H42	0.117600	0.292700	0.703100
H431	H43	0.245300	0.521200	0.048900
H441	H44	0.222100	0.618300	0.938100
H451	H45	0.297800	0.296500	0.887100
H461	H46	0.287800	0.333800	0.018200
H471	H47	0.957000	0.379900	0.874200
H481	H48	0.092700	0.382100	0.010800
Cd11	Cd1	0.500000	0.000000	0.500000
Cd21	Cd2	0.500000	0.500000	0.000000
Cd31	Cd3	0.000000	0.000000	0.000000
Cd41	Cd4	0.000000	0.500000	0.500000
