data_JOSTIU_clean_PM
_symmetry_space_group_name_H-M	'P1'
_cell_length_a	20.435000
_cell_length_b	20.435000
_cell_length_c	20.435000
_cell_angle_alpha	90.000000
_cell_angle_beta	90.000000
_cell_angle_gamma	90.000000
_symmetry_Int_Tables_number 1

loop_
_symmetry_equiv_pos_as_xyz
'x,y,z'

loop_
_atom_site_label
_atom_site_type_symbol
_atom_site_fract_x
_atom_site_fract_y
_atom_site_fract_z
Nd11	Nd1	0.257680	0.356130	0.019980
O11	O1	0.355500	0.302800	0.064600
O21	O2	0.423100	0.218100	0.080100
O31	O3	0.123300	0.211400	0.914800
O41	O4	0.168000	0.297100	0.966200
N11	N1	0.269400	0.230800	0.004500
C11	C1	0.370600	0.242600	0.059900
C21	C2	0.322100	0.198700	0.027000
C31	C3	0.328800	0.132300	0.022800
C41	C4	0.280100	0.095900	0.992600
C51	C5	0.225600	0.128700	0.968600
C61	C6	0.221600	0.195900	0.974700
C71	C7	0.166300	0.236900	0.949800
Nd21	Nd2	0.242320	0.643870	0.519980
O51	O5	0.144500	0.697200	0.564600
O61	O6	0.076900	0.781900	0.580100
O71	O7	0.376700	0.788600	0.414800
O81	O8	0.332000	0.702900	0.466200
N21	N2	0.230600	0.769200	0.504500
C81	C8	0.129400	0.757400	0.559900
C91	C9	0.177900	0.801300	0.527000
C101	C10	0.171200	0.867700	0.522800
C111	C11	0.219900	0.904100	0.492600
C121	C12	0.274400	0.871300	0.468600
C131	C13	0.278400	0.804100	0.474700
C141	C14	0.333700	0.763100	0.449800
Nd31	Nd3	0.742320	0.856130	0.480020
O91	O9	0.644500	0.802800	0.435400
O101	O10	0.576900	0.718100	0.419900
O111	O11	0.876700	0.711400	0.585200
O121	O12	0.832000	0.797100	0.533800
N31	N3	0.730600	0.730800	0.495500
C151	C15	0.629400	0.742600	0.440100
C161	C16	0.677900	0.698700	0.473000
C171	C17	0.671200	0.632300	0.477200
C181	C18	0.719900	0.595900	0.507400
C191	C19	0.774400	0.628700	0.531400
C201	C20	0.778400	0.695900	0.525300
C211	C21	0.833700	0.736900	0.550200
Nd41	Nd4	0.757680	0.143870	0.980020
O131	O13	0.855500	0.197200	0.935400
O141	O14	0.923100	0.281900	0.919900
O151	O15	0.623300	0.288600	0.085200
O161	O16	0.668000	0.202900	0.033800
N41	N4	0.769400	0.269200	0.995500
C221	C22	0.870600	0.257400	0.940100
C231	C23	0.822100	0.301300	0.973000
C241	C24	0.828800	0.367700	0.977200
C251	C25	0.780100	0.404100	0.007400
C261	C26	0.725600	0.371300	0.031400
C271	C27	0.721600	0.304100	0.025300
C281	C28	0.666300	0.263100	0.050200
Nd51	Nd5	0.019980	0.257680	0.356130
O171	O17	0.064600	0.355500	0.302800
O181	O18	0.080100	0.423100	0.218100
O191	O19	0.914800	0.123300	0.211400
O201	O20	0.966200	0.168000	0.297100
N51	N5	0.004500	0.269400	0.230800
C291	C29	0.059900	0.370600	0.242600
C301	C30	0.027000	0.322100	0.198700
C311	C31	0.022800	0.328800	0.132300
C321	C32	0.992600	0.280100	0.095900
C331	C33	0.968600	0.225600	0.128700
C341	C34	0.974700	0.221600	0.195900
C351	C35	0.949800	0.166300	0.236900
Nd61	Nd6	0.519980	0.242320	0.643870
O211	O21	0.564600	0.144500	0.697200
O221	O22	0.580100	0.076900	0.781900
O231	O23	0.414800	0.376700	0.788600
O241	O24	0.466200	0.332000	0.702900
N61	N6	0.504500	0.230600	0.769200
C361	C36	0.559900	0.129400	0.757400
C371	C37	0.527000	0.177900	0.801300
C381	C38	0.522800	0.171200	0.867700
C391	C39	0.492600	0.219900	0.904100
C401	C40	0.468600	0.274400	0.871300
C411	C41	0.474700	0.278400	0.804100
C421	C42	0.449800	0.333700	0.763100
Nd71	Nd7	0.480020	0.742320	0.856130
O251	O25	0.435400	0.644500	0.802800
O261	O26	0.419900	0.576900	0.718100
O271	O27	0.585200	0.876700	0.711400
O281	O28	0.533800	0.832000	0.797100
N71	N7	0.495500	0.730600	0.730800
C431	C43	0.440100	0.629400	0.742600
C441	C44	0.473000	0.677900	0.698700
C451	C45	0.477200	0.671200	0.632300
C461	C46	0.507400	0.719900	0.595900
C471	C47	0.531400	0.774400	0.628700
C481	C48	0.525300	0.778400	0.695900
C491	C49	0.550200	0.833700	0.736900
Nd81	Nd8	0.980020	0.757680	0.143870
O291	O29	0.935400	0.855500	0.197200
O301	O30	0.919900	0.923100	0.281900
O311	O31	0.085200	0.623300	0.288600
O321	O32	0.033800	0.668000	0.202900
N81	N8	0.995500	0.769400	0.269200
C501	C50	0.940100	0.870600	0.257400
C511	C51	0.973000	0.822100	0.301300
C521	C52	0.977200	0.828800	0.367700
C531	C53	0.007400	0.780100	0.404100
C541	C54	0.031400	0.725600	0.371300
C551	C55	0.025300	0.721600	0.304100
C561	C56	0.050200	0.666300	0.263100
Nd91	Nd9	0.356130	0.019980	0.257680
O331	O33	0.302800	0.064600	0.355500
O341	O34	0.218100	0.080100	0.423100
O351	O35	0.211400	0.914800	0.123300
O361	O36	0.297100	0.966200	0.168000
N91	N9	0.230800	0.004500	0.269400
C571	C57	0.242600	0.059900	0.370600
C581	C58	0.198700	0.027000	0.322100
C591	C59	0.132300	0.022800	0.328800
C601	C60	0.095900	0.992600	0.280100
C611	C61	0.128700	0.968600	0.225600
C621	C62	0.195900	0.974700	0.221600
C631	C63	0.236900	0.949800	0.166300
Nd101	Nd10	0.643870	0.519980	0.242320
O371	O37	0.697200	0.564600	0.144500
O381	O38	0.781900	0.580100	0.076900
O391	O39	0.788600	0.414800	0.376700
O401	O40	0.702900	0.466200	0.332000
N101	N10	0.769200	0.504500	0.230600
C641	C64	0.757400	0.559900	0.129400
C651	C65	0.801300	0.527000	0.177900
C661	C66	0.867700	0.522800	0.171200
C671	C67	0.904100	0.492600	0.219900
C681	C68	0.871300	0.468600	0.274400
C691	C69	0.804100	0.474700	0.278400
C701	C70	0.763100	0.449800	0.333700
Nd111	Nd11	0.856130	0.480020	0.742320
O411	O41	0.802800	0.435400	0.644500
O421	O42	0.718100	0.419900	0.576900
O431	O43	0.711400	0.585200	0.876700
O441	O44	0.797100	0.533800	0.832000
N111	N11	0.730800	0.495500	0.730600
C711	C71	0.742600	0.440100	0.629400
C721	C72	0.698700	0.473000	0.677900
C731	C73	0.632300	0.477200	0.671200
C741	C74	0.595900	0.507400	0.719900
C751	C75	0.628700	0.531400	0.774400
C761	C76	0.695900	0.525300	0.778400
C771	C77	0.736900	0.550200	0.833700
Nd121	Nd12	0.143870	0.980020	0.757680
O451	O45	0.197200	0.935400	0.855500
O461	O46	0.281900	0.919900	0.923100
O471	O47	0.288600	0.085200	0.623300
O481	O48	0.202900	0.033800	0.668000
N121	N12	0.269200	0.995500	0.769400
C781	C78	0.257400	0.940100	0.870600
C791	C79	0.301300	0.973000	0.822100
C801	C80	0.367700	0.977200	0.828800
C811	C81	0.404100	0.007400	0.780100
C821	C82	0.371300	0.031400	0.725600
C831	C83	0.304100	0.025300	0.721600
C841	C84	0.263100	0.050200	0.666300
Nd131	Nd13	0.742320	0.643870	0.980020
O491	O49	0.644500	0.697200	0.935400
O501	O50	0.576900	0.781900	0.919900
O511	O51	0.876700	0.788600	0.085200
O521	O52	0.832000	0.702900	0.033800
N131	N13	0.730600	0.769200	0.995500
C851	C85	0.629400	0.757400	0.940100
C861	C86	0.677900	0.801300	0.973000
C871	C87	0.671200	0.867700	0.977200
C881	C88	0.719900	0.904100	0.007400
C891	C89	0.774400	0.871300	0.031400
C901	C90	0.778400	0.804100	0.025300
C911	C91	0.833700	0.763100	0.050200
Nd141	Nd14	0.757680	0.356130	0.480020
O531	O53	0.855500	0.302800	0.435400
O541	O54	0.923100	0.218100	0.419900
O551	O55	0.623300	0.211400	0.585200
O561	O56	0.668000	0.297100	0.533800
N141	N14	0.769400	0.230800	0.495500
C921	C92	0.870600	0.242600	0.440100
C931	C93	0.822100	0.198700	0.473000
C941	C94	0.828800	0.132300	0.477200
C951	C95	0.780100	0.095900	0.507400
C961	C96	0.725600	0.128700	0.531400
C971	C97	0.721600	0.195900	0.525300
C981	C98	0.666300	0.236900	0.550200
Nd151	Nd15	0.257680	0.143870	0.519980
O571	O57	0.355500	0.197200	0.564600
O581	O58	0.423100	0.281900	0.580100
O591	O59	0.123300	0.288600	0.414800
O601	O60	0.168000	0.202900	0.466200
N151	N15	0.269400	0.269200	0.504500
C991	C99	0.370600	0.257400	0.559900
C1001	C100	0.322100	0.301300	0.527000
C1011	C101	0.328800	0.367700	0.522800
C1021	C102	0.280100	0.404100	0.492600
C1031	C103	0.225600	0.371300	0.468600
C1041	C104	0.221600	0.304100	0.474700
C1051	C105	0.166300	0.263100	0.449800
Nd161	Nd16	0.242320	0.856130	0.019980
O611	O61	0.144500	0.802800	0.064600
O621	O62	0.076900	0.718100	0.080100
O631	O63	0.376700	0.711400	0.914800
O641	O64	0.332000	0.797100	0.966200
N161	N16	0.230600	0.730800	0.004500
C1061	C106	0.129400	0.742600	0.059900
C1071	C107	0.177900	0.698700	0.027000
C1081	C108	0.171200	0.632300	0.022800
C1091	C109	0.219900	0.595900	0.992600
C1101	C110	0.274400	0.628700	0.968600
C1111	C111	0.278400	0.695900	0.974700
C1121	C112	0.333700	0.736900	0.949800
Nd171	Nd17	0.980020	0.742320	0.643870
O651	O65	0.935400	0.644500	0.697200
O661	O66	0.919900	0.576900	0.781900
O671	O67	0.085200	0.876700	0.788600
O681	O68	0.033800	0.832000	0.702900
N171	N17	0.995500	0.730600	0.769200
C1131	C113	0.940100	0.629400	0.757400
C1141	C114	0.973000	0.677900	0.801300
C1151	C115	0.977200	0.671200	0.867700
C1161	C116	0.007400	0.719900	0.904100
C1171	C117	0.031400	0.774400	0.871300
C1181	C118	0.025300	0.778400	0.804100
C1191	C119	0.050200	0.833700	0.763100
Nd181	Nd18	0.480020	0.757680	0.356130
O691	O69	0.435400	0.855500	0.302800
O701	O70	0.419900	0.923100	0.218100
O711	O71	0.585200	0.623300	0.211400
O721	O72	0.533800	0.668000	0.297100
N181	N18	0.495500	0.769400	0.230800
C1201	C120	0.440100	0.870600	0.242600
C1211	C121	0.473000	0.822100	0.198700
C1221	C122	0.477200	0.828800	0.132300
C1231	C123	0.507400	0.780100	0.095900
C1241	C124	0.531400	0.725600	0.128700
C1251	C125	0.525300	0.721600	0.195900
C1261	C126	0.550200	0.666300	0.236900
Nd191	Nd19	0.519980	0.257680	0.143870
O731	O73	0.564600	0.355500	0.197200
O741	O74	0.580100	0.423100	0.281900
O751	O75	0.414800	0.123300	0.288600
O761	O76	0.466200	0.168000	0.202900
N191	N19	0.504500	0.269400	0.269200
C1271	C127	0.559900	0.370600	0.257400
C1281	C128	0.527000	0.322100	0.301300
C1291	C129	0.522800	0.328800	0.367700
C1301	C130	0.492600	0.280100	0.404100
C1311	C131	0.468600	0.225600	0.371300
C1321	C132	0.474700	0.221600	0.304100
C1331	C133	0.449800	0.166300	0.263100
Nd201	Nd20	0.019980	0.242320	0.856130
O771	O77	0.064600	0.144500	0.802800
O781	O78	0.080100	0.076900	0.718100
O791	O79	0.914800	0.376700	0.711400
O801	O80	0.966200	0.332000	0.797100
N201	N20	0.004500	0.230600	0.730800
C1341	C134	0.059900	0.129400	0.742600
C1351	C135	0.027000	0.177900	0.698700
C1361	C136	0.022800	0.171200	0.632300
C1371	C137	0.992600	0.219900	0.595900
C1381	C138	0.968600	0.274400	0.628700
C1391	C139	0.974700	0.278400	0.695900
C1401	C140	0.949800	0.333700	0.736900
Nd211	Nd21	0.643870	0.980020	0.742320
O811	O81	0.697200	0.935400	0.644500
O821	O82	0.781900	0.919900	0.576900
O831	O83	0.788600	0.085200	0.876700
O841	O84	0.702900	0.033800	0.832000
N211	N21	0.769200	0.995500	0.730600
C1411	C141	0.757400	0.940100	0.629400
C1421	C142	0.801300	0.973000	0.677900
C1431	C143	0.867700	0.977200	0.671200
C1441	C144	0.904100	0.007400	0.719900
C1451	C145	0.871300	0.031400	0.774400
C1461	C146	0.804100	0.025300	0.778400
C1471	C147	0.763100	0.050200	0.833700
Nd221	Nd22	0.356130	0.480020	0.757680
O851	O85	0.302800	0.435400	0.855500
O861	O86	0.218100	0.419900	0.923100
O871	O87	0.211400	0.585200	0.623300
O881	O88	0.297100	0.533800	0.668000
N221	N22	0.230800	0.495500	0.769400
C1481	C148	0.242600	0.440100	0.870600
C1491	C149	0.198700	0.473000	0.822100
C1501	C150	0.132300	0.477200	0.828800
C1511	C151	0.095900	0.507400	0.780100
C1521	C152	0.128700	0.531400	0.725600
C1531	C153	0.195900	0.525300	0.721600
C1541	C154	0.236900	0.550200	0.666300
Nd231	Nd23	0.143870	0.519980	0.257680
O891	O89	0.197200	0.564600	0.355500
O901	O90	0.281900	0.580100	0.423100
O911	O91	0.288600	0.414800	0.123300
O921	O92	0.202900	0.466200	0.168000
N231	N23	0.269200	0.504500	0.269400
C1551	C155	0.257400	0.559900	0.370600
C1561	C156	0.301300	0.527000	0.322100
C1571	C157	0.367700	0.522800	0.328800
C1581	C158	0.404100	0.492600	0.280100
C1591	C159	0.371300	0.468600	0.225600
C1601	C160	0.304100	0.474700	0.221600
C1611	C161	0.263100	0.449800	0.166300
Nd241	Nd24	0.856130	0.019980	0.242320
O931	O93	0.802800	0.064600	0.144500
O941	O94	0.718100	0.080100	0.076900
O951	O95	0.711400	0.914800	0.376700
O961	O96	0.797100	0.966200	0.332000
N241	N24	0.730800	0.004500	0.230600
C1621	C162	0.742600	0.059900	0.129400
C1631	C163	0.698700	0.027000	0.177900
C1641	C164	0.632300	0.022800	0.171200
C1651	C165	0.595900	0.992600	0.219900
C1661	C166	0.628700	0.968600	0.274400
C1671	C167	0.695900	0.974700	0.278400
C1681	C168	0.736900	0.949800	0.333700
