data_JOTHOP_clean_PM
_symmetry_space_group_name_H-M	'P1'
_cell_length_a	9.417000
_cell_length_b	9.754000
_cell_length_c	11.002000
_cell_angle_alpha	80.510000
_cell_angle_beta	71.640000
_cell_angle_gamma	61.680000
_symmetry_Int_Tables_number 1

loop_
_symmetry_equiv_pos_as_xyz
'x,y,z'

loop_
_atom_site_label
_atom_site_type_symbol
_atom_site_fract_x
_atom_site_fract_y
_atom_site_fract_z
P11	P1	0.628900	0.261300	0.284900
P21	P2	0.010000	0.597000	0.173500
P31	P3	0.122800	0.119200	0.418500
O11	O1	0.138500	0.547900	0.249900
O21	O2	0.189800	0.226000	0.329000
O31	O3	0.459300	0.319700	0.257200
O41	O4	0.594800	0.287600	0.425000
O51	O5	0.249700	0.951600	0.379000
O61	O6	0.951100	0.155900	0.404800
O71	O7	0.717500	0.352600	0.200300
O81	O8	0.906400	0.504300	0.216500
O91	O9	0.107900	0.565100	0.032000
O101	O10	0.108000	0.147700	0.556300
O111	O11	0.733700	0.089700	0.253400
O121	O12	0.888100	0.771100	0.195600
Sn11	Sn1	0.224000	0.395900	0.397300
Sn21	Sn2	0.710800	0.275200	0.559400
Sn31	Sn3	0.972100	0.299200	0.128400
Sn41	Sn4	0.971900	0.913300	0.253000
P41	P4	0.371100	0.738700	0.715100
P51	P5	0.990000	0.403000	0.826500
P61	P6	0.877200	0.880800	0.581500
O131	O13	0.861500	0.452100	0.750100
O141	O14	0.810200	0.774000	0.671000
O151	O15	0.540700	0.680300	0.742800
O161	O16	0.405200	0.712400	0.575000
O171	O17	0.750300	0.048400	0.621000
O181	O18	0.048900	0.844100	0.595200
O191	O19	0.282500	0.647400	0.799700
O201	O20	0.093600	0.495700	0.783500
O211	O21	0.892100	0.434900	0.968000
O221	O22	0.892000	0.852300	0.443700
O231	O23	0.266300	0.910300	0.746600
O241	O24	0.111900	0.228900	0.804400
Sn51	Sn5	0.776000	0.604100	0.602700
Sn61	Sn6	0.289200	0.724800	0.440600
Sn71	Sn7	0.027900	0.700800	0.871600
Sn81	Sn8	0.028100	0.086700	0.747000
