data_JOWFOQ_clean_PM
_symmetry_space_group_name_H-M	'P1'
_cell_length_a	7.796700
_cell_length_b	13.693900
_cell_length_c	17.231100
_cell_angle_alpha	89.857000
_cell_angle_beta	90.000000
_cell_angle_gamma	90.000000
_symmetry_Int_Tables_number 1

loop_
_symmetry_equiv_pos_as_xyz
'x,y,z'

loop_
_atom_site_label
_atom_site_type_symbol
_atom_site_fract_x
_atom_site_fract_y
_atom_site_fract_z
Cu11	Cu1	0.732800	0.753100	0.752000
Cu21	Cu2	0.267200	0.246900	0.248000
Cu31	Cu3	0.232800	0.746900	0.748000
Cu41	Cu4	0.500000	0.500000	0.000000
Cu51	Cu5	0.500000	0.500000	0.500000
Cu61	Cu6	0.000000	0.000000	0.000000
Cu71	Cu7	0.000000	0.000000	0.500000
Cu81	Cu8	0.767200	0.253100	0.252000
H11	H1	0.263000	0.112300	0.402400
H21	H2	0.250000	0.938700	0.407800
H31	H3	0.727700	0.648300	0.898700
H41	H4	0.772300	0.148300	0.398700
H51	H5	0.732900	0.862000	0.913400
H61	H6	0.267100	0.138000	0.086600
H71	H7	0.768800	0.141900	0.103900
H81	H8	0.231200	0.858100	0.896100
H91	H9	0.232900	0.638000	0.586600
H101	H10	0.227700	0.851700	0.601300
H111	H11	0.731200	0.641900	0.603900
H121	H12	0.272300	0.351700	0.101300
H131	H13	0.767100	0.362000	0.413400
H141	H14	0.268800	0.358100	0.396100
H151	H15	0.750000	0.561300	0.092200
H161	H16	0.737000	0.887700	0.597600
H171	H17	0.750000	0.061300	0.592200
H181	H18	0.250000	0.438700	0.907800
H191	H19	0.763000	0.387700	0.097600
H201	H20	0.237000	0.612300	0.902400
C11	C1	0.117600	0.850500	0.609200
C21	C2	0.653300	0.358800	0.114200
C31	C3	0.353700	0.650500	0.606800
C41	C4	0.625500	0.648700	0.612300
C51	C5	0.617600	0.649500	0.890800
C61	C6	0.374500	0.351300	0.387700
C71	C7	0.646300	0.349500	0.393200
C81	C8	0.853700	0.849500	0.893200
C91	C9	0.125500	0.851300	0.887700
C101	C10	0.874500	0.148700	0.112300
C111	C11	0.846700	0.858800	0.614200
C121	C12	0.382400	0.350500	0.109200
C131	C13	0.146300	0.150500	0.106800
C141	C14	0.346700	0.641200	0.885800
C151	C15	0.882400	0.149500	0.390800
C161	C16	0.153300	0.141200	0.385800
N11	N1	0.006100	0.110500	0.071800
N21	N2	0.575500	0.707000	0.668500
N31	N3	0.898700	0.792000	0.834600
N41	N4	0.484500	0.604600	0.924500
N51	N5	0.015500	0.104600	0.424500
N61	N6	0.984500	0.895400	0.575500
N71	N7	0.601300	0.292000	0.334600
N81	N8	0.394100	0.702100	0.830400
N91	N9	0.570700	0.708400	0.833800
N101	N10	0.506100	0.389500	0.428200
N111	N11	0.493900	0.610500	0.571800
N121	N12	0.929300	0.208400	0.333800
N131	N13	0.398700	0.708000	0.665400
N141	N14	0.924500	0.207000	0.168500
N151	N15	0.605900	0.297900	0.169600
N161	N16	0.424500	0.293000	0.331500
N171	N17	0.105900	0.202100	0.330400
N181	N18	0.993900	0.889500	0.928200
N191	N19	0.894100	0.797900	0.669600
N201	N20	0.101300	0.208000	0.165400
N211	N21	0.515500	0.395400	0.075500
N221	N22	0.070700	0.791600	0.666200
N231	N23	0.429300	0.291600	0.166200
N241	N24	0.075500	0.793000	0.831500
O11	O1	0.334100	0.414300	0.939400
O21	O2	0.165900	0.914300	0.439400
O31	O3	0.834100	0.085700	0.560600
O41	O4	0.665900	0.585700	0.060600
