data_JOYKUF_clean_PM
_symmetry_space_group_name_H-M	'P1'
_cell_length_a	21.681900
_cell_length_b	21.681900
_cell_length_c	7.079400
_cell_angle_alpha	90.000000
_cell_angle_beta	90.000000
_cell_angle_gamma	120.000000
_symmetry_Int_Tables_number 1

loop_
_symmetry_equiv_pos_as_xyz
'x,y,z'

loop_
_atom_site_label
_atom_site_type_symbol
_atom_site_fract_x
_atom_site_fract_y
_atom_site_fract_z
Mn11	Mn1	0.609640	0.271670	0.145460
O11	O1	0.659490	0.238700	0.959100
O21	O2	0.643840	0.282300	0.594900
O31	O3	0.593500	0.202260	0.378600
C11	C1	0.631900	0.179800	0.870700
C21	C2	0.611200	0.164900	0.681200
C31	C3	0.576100	0.095800	0.616700
C41	C4	0.563400	0.038600	0.714000
C51	C5	0.587800	0.049800	0.897100
C61	C6	0.613300	0.114400	0.987200
C71	C7	0.617700	0.219100	0.542100
H11	H1	0.582660	0.009680	0.964950
H21	H2	0.625770	0.118830	0.117070
H31	H3	0.562080	0.085480	0.488140
Mn21	Mn2	0.728330	0.337970	0.812130
O41	O4	0.761300	0.420790	0.625770
O51	O5	0.717700	0.361540	0.261570
O61	O6	0.797740	0.391240	0.045270
C81	C8	0.820200	0.452100	0.537370
C91	C9	0.835100	0.446300	0.347870
C101	C10	0.904200	0.480300	0.283370
C111	C11	0.961400	0.524800	0.380670
C121	C12	0.950200	0.538000	0.563770
C131	C13	0.885600	0.498900	0.653870
C141	C14	0.780900	0.398600	0.208770
H41	H4	0.990320	0.572980	0.631620
H51	H5	0.881170	0.506940	0.783740
H61	H6	0.914520	0.476600	0.154810
Mn31	Mn3	0.662030	0.390360	0.478790
O71	O7	0.579210	0.340510	0.292430
O81	O8	0.638460	0.356160	0.928230
O91	O9	0.608760	0.406500	0.711930
C151	C15	0.547900	0.368100	0.204030
C161	C16	0.553700	0.388800	0.014530
C171	C17	0.519700	0.423900	0.950030
C181	C18	0.475200	0.436600	0.047330
C191	C19	0.462000	0.412200	0.230430
C201	C20	0.501100	0.386700	0.320530
C211	C21	0.601400	0.382300	0.875430
H71	H7	0.427020	0.417340	0.298280
H81	H8	0.493060	0.374230	0.450400
H91	H9	0.523400	0.437920	0.821470
Mn41	Mn4	0.271670	0.609640	0.854540
O101	O10	0.238700	0.659490	0.040900
O111	O11	0.282300	0.643840	0.405100
O121	O12	0.202260	0.593500	0.621400
C221	C22	0.179800	0.631900	0.129300
C231	C23	0.164900	0.611200	0.318800
C241	C24	0.095800	0.576100	0.383300
C251	C25	0.038600	0.563400	0.286000
C261	C26	0.049800	0.587800	0.102900
C271	C27	0.114400	0.613300	0.012800
C281	C28	0.219100	0.617700	0.457900
H101	H10	0.009680	0.582660	0.035050
H111	H11	0.118830	0.625770	0.882930
H121	H12	0.085480	0.562080	0.511860
Mn51	Mn5	0.337970	0.728330	0.187870
O131	O13	0.420790	0.761300	0.374230
O141	O14	0.361540	0.717700	0.738430
O151	O15	0.391240	0.797740	0.954730
C291	C29	0.452100	0.820200	0.462630
C301	C30	0.446300	0.835100	0.652130
C311	C31	0.480300	0.904200	0.716630
C321	C32	0.524800	0.961400	0.619330
C331	C33	0.538000	0.950200	0.436230
C341	C34	0.498900	0.885600	0.346130
C351	C35	0.398600	0.780900	0.791230
H131	H13	0.572980	0.990320	0.368380
H141	H14	0.506940	0.881170	0.216260
H151	H15	0.476600	0.914520	0.845190
Mn61	Mn6	0.390360	0.662030	0.521210
O161	O16	0.340510	0.579210	0.707570
O171	O17	0.356160	0.638460	0.071770
O181	O18	0.406500	0.608760	0.288070
C361	C36	0.368100	0.547900	0.795970
C371	C37	0.388800	0.553700	0.985470
C381	C38	0.423900	0.519700	0.049970
C391	C39	0.436600	0.475200	0.952670
C401	C40	0.412200	0.462000	0.769570
C411	C41	0.386700	0.501100	0.679470
C421	C42	0.382300	0.601400	0.124570
H161	H16	0.417340	0.427020	0.701720
H171	H17	0.374230	0.493060	0.549600
H181	H18	0.437920	0.523400	0.178530
