data_jp209895d_si_002_clean_PM
_symmetry_space_group_name_H-M	'P1'
_cell_length_a	22.360800
_cell_length_b	22.360800
_cell_length_c	22.360800
_cell_angle_alpha	109.471000
_cell_angle_beta	109.471000
_cell_angle_gamma	109.471000
_symmetry_Int_Tables_number 1

loop_
_symmetry_equiv_pos_as_xyz
'x,y,z'

loop_
_atom_site_label
_atom_site_type_symbol
_atom_site_fract_x
_atom_site_fract_y
_atom_site_fract_z
Zn11	Zn1	0.538400	0.538400	0.038400
Zn21	Zn2	0.500000	0.304800	0.500000
Zn31	Zn3	0.000000	0.500000	0.304800
Zn41	Zn4	0.500000	0.461600	0.500000
Zn51	Zn5	0.804800	0.000000	0.000000
Zn61	Zn6	0.961600	0.000000	0.000000
Zn71	Zn7	0.038400	0.038400	0.538400
Zn81	Zn8	0.000000	0.500000	0.461600
Zn91	Zn9	0.000000	0.500000	0.804800
Zn101	Zn10	0.500000	0.804800	0.500000
Zn111	Zn11	0.500000	0.961600	0.500000
Zn121	Zn12	0.461600	0.000000	0.000000
Zn131	Zn13	0.304800	0.000000	0.000000
Zn141	Zn14	0.000000	0.500000	0.961600
Zn151	Zn15	0.695200	0.695200	0.195200
Zn161	Zn16	0.195200	0.195200	0.695200
H11	H1	0.813900	0.563700	0.521800
H21	H2	0.463900	0.495800	0.677700
H31	H3	0.250200	0.958100	0.436300
H41	H4	0.923800	0.473300	0.069900
H51	H5	0.076200	0.549500	0.646100
H61	H6	0.323100	0.086100	0.679400
H71	H7	0.749800	0.707900	0.686100
H81	H8	0.865200	0.404600	0.508200
H91	H9	0.786200	0.322300	0.818100
H101	H10	0.938100	0.050900	0.886800
H111	H11	0.995800	0.963900	0.177700
H121	H12	0.350900	0.613600	0.969500
H131	H13	0.646100	0.049500	0.076200
H141	H14	0.924200	0.088900	0.557500
H151	H15	0.857000	0.896400	0.491800
H161	H16	0.531400	0.942500	0.366700
H171	H17	0.468100	0.504200	0.181900
H181	H18	0.968600	0.335300	0.411100
H191	H19	0.404600	0.008200	0.365200
H201	H20	0.881400	0.644100	0.030500
H211	H21	0.320600	0.906700	0.143700
H221	H22	0.143700	0.406700	0.320600
H231	H23	0.438700	0.501900	0.851800
H241	H24	0.143000	0.039400	0.134800
H251	H25	0.355900	0.886400	0.237300
H261	H26	0.969500	0.113600	0.350900
H271	H27	0.423800	0.069900	0.473300
H281	H28	0.563200	0.061300	0.413100
H291	H29	0.438100	0.886800	0.050900
H301	H30	0.949100	0.335900	0.887200
H311	H31	0.835900	0.449100	0.387200
H321	H32	0.057500	0.924200	0.588900
H331	H33	0.406700	0.820600	0.643700
H341	H34	0.448700	0.612800	0.061900
H351	H35	0.001900	0.938700	0.351800
H361	H36	0.557500	0.588900	0.924200
H371	H37	0.561300	0.063200	0.913100
H381	H38	0.998100	0.936800	0.849900
H391	H39	0.737000	0.913900	0.593300
H401	H40	0.648200	0.086900	0.150100
H411	H41	0.413100	0.561300	0.563200
H421	H42	0.375700	0.933800	0.364500
H431	H43	0.004200	0.968100	0.681900
H441	H44	0.011200	0.635500	0.569300
H451	H45	0.595400	0.603600	0.460600
H461	H46	0.436300	0.458100	0.250200
H471	H47	0.495800	0.177700	0.963900
H481	H48	0.318100	0.786200	0.822300
H491	H49	0.588900	0.424200	0.057500
H501	H50	0.991800	0.857000	0.396400
H511	H51	0.904600	0.365200	0.008200
H521	H52	0.713800	0.531900	0.536100
H531	H53	0.978200	0.792100	0.541900
H541	H54	0.075800	0.164700	0.133300
H551	H55	0.031400	0.366700	0.942500
H561	H56	0.539400	0.643000	0.634800
H571	H57	0.936800	0.349900	0.498100
H581	H58	0.569900	0.923800	0.973300
H591	H59	0.887200	0.835900	0.949100
H601	H60	0.249800	0.686100	0.707900
H611	H61	0.051300	0.113200	0.164100
H621	H62	0.856300	0.263000	0.676900
H631	H63	0.351800	0.438700	0.001900
H641	H64	0.113200	0.664100	0.551300
H651	H65	0.903400	0.853900	0.430100
H661	H66	0.511200	0.569300	0.635500
H671	H67	0.576200	0.646100	0.549500
H681	H68	0.086100	0.179400	0.823100
H691	H69	0.058100	0.124300	0.988800
H701	H70	0.460600	0.103600	0.595400
H711	H71	0.449100	0.887200	0.335900
H721	H72	0.504200	0.681900	0.968100
H731	H73	0.930700	0.941900	0.566200
H741	H74	0.066200	0.930700	0.441900
H751	H75	0.026700	0.450500	0.096600
H761	H76	0.864500	0.375700	0.433800
H771	H77	0.521800	0.063700	0.813900
H781	H78	0.686100	0.207900	0.749800
H791	H79	0.364500	0.433800	0.375700
H801	H80	0.855900	0.237300	0.886400
H811	H81	0.063200	0.413100	0.061300
H821	H82	0.792100	0.041900	0.478200
H831	H83	0.176900	0.856300	0.763000
H841	H84	0.531900	0.036100	0.213800
H851	H85	0.313900	0.521800	0.563700
H861	H86	0.146100	0.076200	0.049500
H871	H87	0.851800	0.001900	0.438700
H881	H88	0.612800	0.561900	0.948700
H891	H89	0.526700	0.096600	0.450500
H901	H90	0.558100	0.988800	0.124300
H911	H91	0.849900	0.436800	0.998100
H921	H92	0.707900	0.186100	0.249800
H931	H93	0.596600	0.026700	0.950500
H941	H94	0.942500	0.866700	0.031400
H951	H95	0.030500	0.144100	0.881400
H961	H96	0.822300	0.286200	0.318100
H971	H97	0.021800	0.813900	0.063700
H981	H98	0.763000	0.356300	0.176900
H991	H99	0.911100	0.968600	0.835300
H1001	H100	0.561900	0.448700	0.112800
H1011	H101	0.896400	0.991800	0.357000
H1021	H102	0.036100	0.713800	0.031900
H1031	H103	0.237300	0.386400	0.355900
H1041	H104	0.403400	0.430100	0.853900
H1051	H105	0.366700	0.442500	0.531400
H1061	H106	0.103600	0.095400	0.960600
H1071	H107	0.566200	0.441900	0.930700
H1081	H108	0.551300	0.164100	0.113200
H1091	H109	0.365200	0.508200	0.404600
H1101	H110	0.644100	0.530500	0.381400
H1111	H111	0.938700	0.851800	0.501900
H1121	H112	0.442500	0.031400	0.866700
H1131	H113	0.750200	0.436300	0.958100
H1141	H114	0.541900	0.292100	0.978200
H1151	H115	0.681900	0.468100	0.004200
H1161	H116	0.008200	0.865200	0.904600
H1171	H117	0.563700	0.021800	0.313900
H1181	H118	0.569300	0.135500	0.011200
H1191	H119	0.088900	0.057500	0.424200
H1201	H120	0.133300	0.664700	0.075800
H1211	H121	0.096600	0.950500	0.026700
H1221	H122	0.963900	0.677700	0.495800
H1231	H123	0.886400	0.737300	0.855900
H1241	H124	0.150100	0.586900	0.648200
H1251	H125	0.913900	0.093300	0.237000
H1261	H126	0.624300	0.558100	0.488800
H1271	H127	0.286200	0.818100	0.322300
H1281	H128	0.508200	0.904600	0.865200
H1291	H129	0.436800	0.498100	0.349900
H1301	H130	0.549500	0.146100	0.576200
H1311	H131	0.063700	0.313900	0.021800
H1321	H132	0.164700	0.633300	0.575800
H1331	H133	0.948700	0.061900	0.612800
H1341	H134	0.049500	0.576200	0.146100
H1351	H135	0.335900	0.387200	0.449100
H1361	H136	0.613600	0.469500	0.850900
H1371	H137	0.262700	0.618600	0.149100
H1381	H138	0.413900	0.237000	0.093300
H1391	H139	0.353900	0.403400	0.930100
H1401	H140	0.906700	0.643700	0.820600
H1411	H141	0.335300	0.911100	0.468600
H1421	H142	0.213800	0.536100	0.531900
H1431	H143	0.118600	0.762700	0.649100
H1441	H144	0.635500	0.069300	0.511200
H1451	H145	0.664700	0.575800	0.633300
H1461	H146	0.649100	0.262700	0.118600
H1471	H147	0.643700	0.320600	0.406700
H1481	H148	0.031900	0.213800	0.036100
H1491	H149	0.387200	0.949100	0.835900
H1501	H150	0.322300	0.318100	0.286200
H1511	H151	0.093300	0.737000	0.413900
H1521	H152	0.930100	0.903400	0.353900
H1531	H153	0.433800	0.875700	0.864500
H1541	H154	0.124300	0.488800	0.558100
H1551	H155	0.737300	0.355900	0.386400
H1561	H156	0.135500	0.511200	0.069300
H1571	H157	0.134800	0.539400	0.143000
H1581	H158	0.866700	0.531400	0.442500
H1591	H159	0.381400	0.030500	0.644100
H1601	H160	0.069900	0.973300	0.923800
H1611	H161	0.292100	0.478200	0.041900
H1621	H162	0.958100	0.936300	0.750200
H1631	H163	0.850900	0.969500	0.613600
H1641	H164	0.634800	0.143000	0.539400
H1651	H165	0.835300	0.468600	0.911100
H1661	H166	0.041900	0.978200	0.292100
H1671	H167	0.069300	0.011200	0.135500
H1681	H168	0.061300	0.913100	0.063200
H1691	H169	0.586900	0.148200	0.650100
H1701	H170	0.424200	0.557500	0.088900
H1711	H171	0.468600	0.411100	0.335300
H1721	H172	0.603600	0.960600	0.095400
H1731	H173	0.633300	0.075800	0.664700
H1741	H174	0.450500	0.596600	0.526700
H1751	H175	0.181900	0.004200	0.468100
H1761	H176	0.875700	0.364500	0.933800
H1771	H177	0.396400	0.357000	0.991800
H1781	H178	0.823100	0.679400	0.086100
H1791	H179	0.039400	0.634800	0.643000
H1801	H180	0.501900	0.351800	0.938700
H1811	H181	0.177700	0.463900	0.995800
H1821	H182	0.941900	0.066200	0.430700
H1831	H183	0.762700	0.149100	0.618600
H1841	H184	0.386400	0.855900	0.737300
H1851	H185	0.164100	0.613200	0.051300
H1861	H186	0.677700	0.995800	0.463900
H1871	H187	0.148200	0.150100	0.086900
H1881	H188	0.820600	0.143700	0.906700
H1891	H189	0.988800	0.624300	0.058100
H1901	H190	0.676900	0.763000	0.856300
H1911	H191	0.357000	0.491800	0.896400
H1921	H192	0.149100	0.118600	0.262700
H1931	H193	0.679400	0.586100	0.323100
H1941	H194	0.061900	0.112800	0.448700
H1951	H195	0.349900	0.998100	0.436800
H1961	H196	0.960600	0.595400	0.103600
H1971	H197	0.913100	0.563200	0.561300
H1981	H198	0.950500	0.526700	0.596600
H1991	H199	0.498100	0.849900	0.936800
H2001	H200	0.112800	0.948700	0.561900
H2011	H201	0.441900	0.430700	0.066200
H2021	H202	0.491800	0.396400	0.857000
H2031	H203	0.469500	0.350900	0.113600
H2041	H204	0.853900	0.930100	0.403400
H2051	H205	0.050900	0.386800	0.438100
H2061	H206	0.356300	0.676900	0.263000
H2071	H207	0.478200	0.541900	0.792100
H2081	H208	0.086900	0.650100	0.148200
H2091	H209	0.386800	0.938100	0.550900
H2101	H210	0.586100	0.823100	0.179400
H2111	H211	0.550900	0.438100	0.386800
H2121	H212	0.179400	0.323100	0.586100
H2131	H213	0.473300	0.569900	0.423800
H2141	H214	0.430100	0.353900	0.903400
H2151	H215	0.973300	0.423800	0.569900
H2161	H216	0.144100	0.381400	0.530500
H2171	H217	0.613200	0.551300	0.664100
H2181	H218	0.886800	0.550900	0.938100
H2191	H219	0.968100	0.181900	0.504200
H2201	H220	0.664100	0.051300	0.613200
H2211	H221	0.536100	0.031900	0.713800
H2221	H222	0.643000	0.134800	0.039400
H2231	H223	0.650100	0.648200	0.586900
H2241	H224	0.207900	0.249800	0.186100
H2251	H225	0.186100	0.749800	0.207900
H2261	H226	0.458100	0.750200	0.936300
H2271	H227	0.263000	0.176900	0.356300
H2281	H228	0.933800	0.864500	0.875700
H2291	H229	0.530500	0.881400	0.144100
H2301	H230	0.618600	0.649100	0.762700
H2311	H231	0.095400	0.460600	0.603600
H2321	H232	0.411100	0.835300	0.968600
H2331	H233	0.113600	0.850900	0.469500
H2341	H234	0.430700	0.566200	0.941900
H2351	H235	0.936300	0.250200	0.458100
H2361	H236	0.237000	0.593300	0.913900
H2371	H237	0.575800	0.133300	0.164700
H2381	H238	0.593300	0.413900	0.737000
H2391	H239	0.488800	0.058100	0.624300
H2401	H240	0.818100	0.822300	0.786200
C11	C1	0.397200	0.801400	0.385600
C21	C2	0.632500	0.586400	0.649700
C31	C3	0.563300	0.546100	0.913600
C41	C4	0.394800	0.485300	0.412700
C51	C5	0.504500	0.511000	0.223300
C61	C6	0.766600	0.184400	0.658800
C71	C7	0.544400	0.062100	0.446500
C81	C8	0.605200	0.090500	0.517900
C91	C9	0.003600	0.781300	0.518300
C101	C10	0.453900	0.867500	0.017200
C111	C11	0.662800	0.215100	0.175900
C121	C12	0.025600	0.107800	0.841200
C131	C13	0.193900	0.823700	0.752400
C141	C14	0.870200	0.176300	0.928700
C151	C15	0.063300	0.913600	0.546100
C161	C16	0.493500	0.489000	0.712300
C171	C17	0.584200	0.698600	0.095800
C181	C18	0.941500	0.071300	0.247600
C191	C19	0.276700	0.781200	0.787700
C201	C20	0.776700	0.787700	0.781200
C211	C21	0.698600	0.595800	0.084200
C221	C22	0.614400	0.915800	0.511600
C231	C23	0.086400	0.132500	0.149700
C241	C24	0.384400	0.437900	0.982300
C251	C25	0.676300	0.370200	0.428700
C261	C26	0.301400	0.897200	0.885600
C271	C27	0.517700	0.902100	0.955600
C281	C28	0.097900	0.553500	0.615600
C291	C29	0.482100	0.072600	0.587300
C301	C30	0.017200	0.367500	0.453900
C311	C31	0.496400	0.014700	0.777700
C321	C32	0.885600	0.397200	0.301400
C331	C33	0.014700	0.277700	0.996400
C341	C34	0.953900	0.017200	0.867500
C351	C35	0.867500	0.517200	0.953900
C361	C36	0.837200	0.013100	0.552300
C371	C37	0.011600	0.614400	0.415800
C381	C38	0.823700	0.252400	0.693900
C391	C39	0.474400	0.315600	0.082200
C401	C40	0.489000	0.212300	0.993500
C411	C41	0.922000	0.165900	0.973300
C421	C42	0.287700	0.276700	0.281200
C431	C43	0.277700	0.496400	0.514700
C441	C44	0.578000	0.551300	0.243900
C451	C45	0.427400	0.409500	0.014700
C461	C46	0.781300	0.018300	0.503600
C471	C47	0.948700	0.026700	0.192600
C481	C48	0.909500	0.927400	0.514700
C491	C49	0.590500	0.105200	0.017900
C501	C50	0.460800	0.947700	0.284900
C511	C51	0.266600	0.658800	0.184400
C521	C52	0.806100	0.629800	0.058500
C531	C53	0.982800	0.350300	0.936700
C541	C54	0.044400	0.446500	0.062100
C551	C55	0.511000	0.723300	0.004500
C561	C56	0.039200	0.324100	0.486900
C571	C57	0.824100	0.539200	0.986900
C581	C58	0.095800	0.198600	0.584200
C591	C59	0.417800	0.892200	0.733400
C601	C60	0.781200	0.287700	0.776700
C611	C61	0.558500	0.806100	0.129800
C621	C62	0.763000	0.485300	0.981700
C631	C63	0.481700	0.763000	0.985300
C641	C64	0.562100	0.044400	0.946500
C651	C65	0.256100	0.834100	0.807400
C661	C66	0.955600	0.402100	0.517700
C671	C67	0.884400	0.982300	0.437900
C681	C68	0.129800	0.306100	0.558500
C691	C69	0.551300	0.743900	0.078000
C701	C70	0.960800	0.284900	0.947700
C711	C71	0.996400	0.777700	0.014700
C721	C72	0.482800	0.936700	0.350300
C731	C73	0.413600	0.563300	0.046100
C741	C74	0.058500	0.129800	0.806100
C751	C75	0.511600	0.415800	0.614400
C761	C76	0.082200	0.815600	0.474400
C771	C77	0.428700	0.870200	0.676300
C781	C78	0.986900	0.039200	0.824100
C791	C79	0.485300	0.912700	0.894800
C801	C80	0.595800	0.584200	0.198600
C811	C81	0.175900	0.715100	0.662800
C821	C82	0.649700	0.086400	0.632500
C831	C83	0.981700	0.985300	0.763000
C841	C84	0.412700	0.985300	0.394800
C851	C85	0.904200	0.102800	0.988400
C861	C86	0.307400	0.256100	0.334100
C871	C87	0.212300	0.493500	0.989000
C881	C88	0.514700	0.427400	0.909500
C891	C89	0.198600	0.084200	0.595800
C901	C90	0.482300	0.384400	0.937900
C911	C91	0.306100	0.058500	0.629800
C921	C92	0.018300	0.003600	0.281300
C931	C93	0.341200	0.025600	0.607800
C941	C94	0.176300	0.428700	0.370200
C951	C95	0.513100	0.337200	0.052300
C961	C96	0.989000	0.993500	0.212300
C971	C97	0.011000	0.004500	0.723300
C981	C98	0.455600	0.517700	0.402100
C991	C99	0.571300	0.441500	0.747600
C1001	C100	0.084200	0.095800	0.698600
C1011	C101	0.485300	0.481700	0.263000
C1021	C102	0.281200	0.776700	0.287700
C1031	C103	0.473300	0.922000	0.665900
C1041	C104	0.107800	0.341200	0.525600
C1051	C105	0.985300	0.894800	0.912700
C1061	C106	0.517900	0.590500	0.605200
C1071	C107	0.132500	0.649700	0.586400
C1081	C108	0.237000	0.722300	0.718700
C1091	C109	0.973300	0.665900	0.922000
C1101	C110	0.615600	0.053500	0.097900
C1111	C111	0.415800	0.114400	0.011600
C1121	C112	0.526700	0.448700	0.692600
C1131	C113	0.087300	0.482100	0.572600
C1141	C114	0.801400	0.885600	0.897200
C1151	C115	0.323700	0.693900	0.252400
C1161	C116	0.446500	0.562100	0.544400
C1171	C117	0.017900	0.605200	0.590500
C1181	C118	0.422000	0.973300	0.165900
C1191	C119	0.503600	0.518300	0.781300
C1201	C120	0.281300	0.503600	0.018300
C1211	C121	0.982100	0.587300	0.072600
C1221	C122	0.787700	0.281200	0.276700
C1231	C123	0.017700	0.955600	0.902100
C1241	C124	0.582200	0.474400	0.815600
C1251	C125	0.985300	0.263000	0.481700
C1261	C126	0.784900	0.460800	0.447700
C1271	C127	0.947700	0.784900	0.960800
C1281	C128	0.162800	0.175900	0.215100
C1291	C129	0.078000	0.243900	0.551300
C1301	C130	0.715100	0.162800	0.675900
C1311	C131	0.917800	0.733400	0.892200
C1321	C132	0.115600	0.097900	0.053500
C1331	C133	0.051300	0.078000	0.743900
C1341	C134	0.014700	0.909500	0.427400
C1351	C135	0.284900	0.447700	0.460800
C1361	C136	0.894800	0.412700	0.485300
C1371	C137	0.658800	0.684400	0.766600
C1381	C138	0.518300	0.281300	0.003600
C1391	C139	0.897200	0.385600	0.801400
C1401	C140	0.441500	0.247600	0.071300
C1411	C141	0.488400	0.904200	0.602800
C1421	C142	0.026700	0.692600	0.448700
C1431	C143	0.722300	0.218700	0.737000
C1441	C144	0.692600	0.948700	0.526700
C1451	C145	0.013100	0.052300	0.337200
C1461	C146	0.539200	0.486900	0.324100
C1471	C147	0.004500	0.223300	0.511000
C1481	C148	0.404200	0.988400	0.102800
C1491	C149	0.815600	0.974400	0.582200
C1501	C150	0.252400	0.193900	0.323700
C1511	C151	0.756100	0.807400	0.834100
C1521	C152	0.215100	0.675900	0.162800
C1531	C153	0.834100	0.307400	0.756100
C1541	C154	0.486900	0.824100	0.039200
C1551	C155	0.723300	0.504500	0.011000
C1561	C156	0.525600	0.841200	0.107800
C1571	C157	0.447700	0.960800	0.784900
C1581	C158	0.370200	0.928700	0.176300
C1591	C159	0.071300	0.747600	0.441500
C1601	C160	0.350300	0.436700	0.482800
C1611	C161	0.192600	0.526700	0.948700
C1621	C162	0.222300	0.737000	0.218700
C1631	C163	0.090500	0.017900	0.105200
C1641	C164	0.072600	0.087300	0.982100
C1651	C165	0.777700	0.514700	0.496400
C1661	C166	0.546100	0.413600	0.063300
C1671	C167	0.046100	0.063300	0.413600
C1681	C168	0.149700	0.632500	0.086400
C1691	C169	0.233400	0.417800	0.392200
C1701	C170	0.184400	0.158800	0.266600
C1711	C171	0.324100	0.986900	0.539200
C1721	C172	0.572600	0.982100	0.087300
C1731	C173	0.263000	0.981700	0.485300
C1741	C174	0.514700	0.996400	0.277700
C1751	C175	0.102800	0.488400	0.404200
C1761	C176	0.665900	0.422000	0.473300
C1771	C177	0.517200	0.453900	0.367500
C1781	C178	0.974400	0.082200	0.315600
C1791	C179	0.053500	0.597900	0.115600
C1801	C180	0.743900	0.578000	0.051300
C1811	C181	0.218700	0.237000	0.222300
C1821	C182	0.158800	0.766600	0.684400
C1831	C183	0.006500	0.718800	0.995500
C1841	C184	0.506500	0.995500	0.718800
C1851	C185	0.993500	0.712300	0.489000
C1861	C186	0.902100	0.455600	0.017700
C1871	C187	0.737000	0.718700	0.722300
C1881	C188	0.718800	0.495500	0.506500
C1891	C189	0.367500	0.953900	0.517200
C1901	C190	0.337200	0.552300	0.013100
C1911	C191	0.684400	0.266600	0.158800
C1921	C192	0.912700	0.394800	0.985300
C1931	C193	0.913600	0.046100	0.563300
C1941	C194	0.597900	0.615600	0.553500
C1951	C195	0.928700	0.676300	0.870200
C1961	C196	0.243900	0.051300	0.578000
C1971	C197	0.553500	0.115600	0.597900
C1981	C198	0.586400	0.149700	0.132500
C1991	C199	0.334100	0.756100	0.307400
C2001	C200	0.841200	0.607800	0.025600
C2011	C201	0.752400	0.323700	0.193900
C2021	C202	0.315600	0.582200	0.974400
C2031	C203	0.733400	0.392200	0.417800
C2041	C204	0.437900	0.482300	0.884400
C2051	C205	0.995500	0.218800	0.006500
C2061	C206	0.747600	0.941500	0.571300
C2071	C207	0.223300	0.011000	0.504500
C2081	C208	0.718700	0.222300	0.237000
C2091	C209	0.436700	0.982800	0.850300
C2101	C210	0.062100	0.946500	0.044400
C2111	C211	0.552300	0.513100	0.837200
C2121	C212	0.165900	0.473300	0.422000
C2131	C213	0.629800	0.558500	0.306100
C2141	C214	0.693900	0.752400	0.823700
C2151	C215	0.807400	0.334100	0.256100
C2161	C216	0.218800	0.506500	0.495500
C2171	C217	0.937900	0.884400	0.482300
C2181	C218	0.392200	0.917800	0.233400
C2191	C219	0.587300	0.572600	0.482100
C2201	C220	0.712300	0.989000	0.493500
C2211	C221	0.602800	0.404200	0.488400
C2221	C222	0.988400	0.602800	0.904200
C2231	C223	0.675900	0.662800	0.715100
C2241	C224	0.927400	0.014700	0.409500
C2251	C225	0.850300	0.482800	0.436700
C2261	C226	0.915800	0.011600	0.114400
C2271	C227	0.607800	0.525600	0.341200
C2281	C228	0.402100	0.017700	0.455600
C2291	C229	0.892200	0.233400	0.917800
C2301	C230	0.409500	0.514700	0.927400
C2311	C231	0.495500	0.006500	0.218800
C2321	C232	0.946500	0.544400	0.562100
C2331	C233	0.105200	0.517900	0.090500
C2341	C234	0.936700	0.850300	0.982800
C2351	C235	0.448700	0.192600	0.026700
C2361	C236	0.982300	0.937900	0.384400
C2371	C237	0.114400	0.511600	0.915800
C2381	C238	0.052300	0.837200	0.513100
C2391	C239	0.247600	0.571300	0.941500
C2401	C240	0.385600	0.301400	0.397200
N11	N1	0.982800	0.413500	0.990900
N21	N2	0.569300	0.577400	0.586500
N31	N3	0.008100	0.017200	0.930700
N41	N4	0.930700	0.517200	0.008100
N51	N5	0.009100	0.922600	0.491900
N61	N6	0.913500	0.482800	0.490900
N71	N7	0.017200	0.430700	0.508100
N81	N8	0.508100	0.930700	0.017200
N91	N9	0.086500	0.569300	0.077400
N101	N10	0.077400	0.069300	0.086500
N111	N11	0.422600	0.509100	0.991900
N121	N12	0.509100	0.491900	0.922600
N131	N13	0.490900	0.982800	0.913500
N141	N14	0.482800	0.990900	0.413500
N151	N15	0.586500	0.077400	0.569300
N161	N16	0.413500	0.490900	0.482800
N171	N17	0.990900	0.913500	0.982800
N181	N18	0.991900	0.009100	0.422600
N191	N19	0.577400	0.086500	0.069300
N201	N20	0.069300	0.586500	0.577400
N211	N21	0.922600	0.991900	0.509100
N221	N22	0.430700	0.008100	0.517200
N231	N23	0.517200	0.508100	0.430700
N241	N24	0.491900	0.422600	0.009100
O11	O1	0.427100	0.358200	0.408500
O21	O2	0.430500	0.767900	0.397800
O31	O3	0.232100	0.129900	0.662600
O41	O4	0.550300	0.568900	0.141800
O51	O5	0.602200	0.870100	0.532700
O61	O6	0.568900	0.641800	0.050300
O71	O7	0.018600	0.591500	0.949700
O81	O8	0.858200	0.927100	0.908500
O91	O9	0.837400	0.069500	0.967300
O101	O10	0.129900	0.162600	0.732100
O111	O11	0.408500	0.858200	0.427100
O121	O12	0.908500	0.427100	0.858200
O131	O13	0.370100	0.102200	0.032700
O141	O14	0.032700	0.602200	0.370100
O151	O15	0.449700	0.018600	0.091500
O161	O16	0.091500	0.518600	0.449700
O171	O17	0.629900	0.732100	0.162600
O181	O18	0.641800	0.550300	0.068900
O191	O19	0.072900	0.481400	0.931100
O201	O20	0.102200	0.532700	0.870100
O211	O21	0.927100	0.408500	0.358200
O221	O22	0.337400	0.967300	0.069500
O231	O23	0.931100	0.981400	0.072900
O241	O24	0.981400	0.572900	0.431100
O251	O25	0.050300	0.141800	0.568900
O261	O26	0.141800	0.068900	0.550300
O271	O27	0.930500	0.397800	0.767900
O281	O28	0.358200	0.908500	0.927100
O291	O29	0.572900	0.931100	0.481400
O301	O30	0.162600	0.232100	0.629900
O311	O31	0.431100	0.072900	0.981400
O321	O32	0.591500	0.449700	0.518600
O331	O33	0.532700	0.370100	0.602200
O341	O34	0.267900	0.930500	0.897800
O351	O35	0.397800	0.267900	0.430500
O361	O36	0.767900	0.897800	0.930500
O371	O37	0.870100	0.032700	0.102200
O381	O38	0.068900	0.050300	0.641800
O391	O39	0.662600	0.629900	0.232100
O401	O40	0.069500	0.467300	0.337400
O411	O41	0.967300	0.569500	0.837400
O421	O42	0.732100	0.662600	0.129900
O431	O43	0.481400	0.431100	0.572900
O441	O44	0.518600	0.949700	0.591500
O451	O45	0.949700	0.091500	0.018600
O461	O46	0.569500	0.337400	0.467300
O471	O47	0.467300	0.837400	0.569500
O481	O48	0.897800	0.430500	0.267900
