data_JUBXIP_clean_PM
_symmetry_space_group_name_H-M	'P1'
_cell_length_a	16.620000
_cell_length_b	30.526000
_cell_length_c	28.362000
_cell_angle_alpha	90.000000
_cell_angle_beta	98.317000
_cell_angle_gamma	90.000000
_symmetry_Int_Tables_number 1

loop_
_symmetry_equiv_pos_as_xyz
'x,y,z'

loop_
_atom_site_label
_atom_site_type_symbol
_atom_site_fract_x
_atom_site_fract_y
_atom_site_fract_z
O11	O1	0.587000	0.939000	0.137100
C11	C1	0.103700	0.930200	0.141000
H11	H1	0.140200	0.954900	0.137900
C21	C2	0.071700	0.954800	0.449300
H21	H2	0.043900	0.960500	0.476800
C31	C3	0.300500	0.845800	0.314000
C41	C4	0.006500	0.943500	0.408300
C51	C5	0.305900	0.400100	0.495300
H31	H3	0.260100	0.390700	0.511100
C61	C6	0.122700	0.995000	0.443100
H41	H4	0.155500	0.988400	0.417900
C71	C7	0.128600	0.853900	0.310600
C81	C8	0.081700	0.039000	0.431000
Fe11	Fe1	0.345000	0.369260	0.049820
O21	O2	0.356100	0.431700	0.069700
C91	C9	0.371000	0.445500	0.111800
H51	H5	0.378500	0.425800	0.137100
O31	O3	0.376000	0.486900	0.119800
C101	C10	0.251900	0.875300	0.580800
H61	H6	0.293500	0.893000	0.600100
C111	C11	0.309100	0.449400	0.489600
C121	C12	0.172000	0.897900	0.585000
H71	H7	0.129100	0.883200	0.563300
C131	C13	0.386000	0.379900	0.517600
H81	H8	0.431600	0.388800	0.501400
C141	C14	0.268400	0.828700	0.597700
C151	C15	0.148700	0.896700	0.634700
C161	C16	0.033700	0.023600	0.579200
H91	H9	0.978100	0.025600	0.579900
C171	C17	0.380700	0.984600	0.650900
H101	H10	0.422800	0.971900	0.671600
O41	O4	0.211800	0.087700	0.720900
C181	C18	0.210000	0.067500	0.681100
H111	H11	0.208600	0.083200	0.652900
O51	O5	0.208700	0.025800	0.680500
C191	C19	0.304400	0.114800	0.506000
H121	H12	0.337400	0.116200	0.480100
C201	C20	0.361200	0.126000	0.551000
C211	C21	0.237300	0.148600	0.494000
H131	H13	0.203500	0.138100	0.465000
C221	C22	0.182400	0.149700	0.532500
C231	C23	0.399500	0.391600	0.570400
C241	C24	0.148900	0.420900	0.352200
H141	H14	0.098700	0.434800	0.349000
C251	C25	0.517100	0.409800	0.405900
H151	H15	0.568600	0.415600	0.422300
C261	C26	0.345400	0.304000	0.255400
H161	H16	0.370100	0.275200	0.252200
C271	C27	0.404600	0.337600	0.240800
C281	C28	0.250300	0.298000	0.945200
H171	H17	0.213800	0.319500	0.956700
C291	C29	0.235000	0.299700	0.891300
C301	C30	0.336200	0.311600	0.964400
H181	H18	0.373000	0.288500	0.956400
C311	C31	0.371000	0.355200	0.952100
C321	C32	0.056000	0.198600	0.924100
H191	H19	0.002600	0.204800	0.911400
C331	C33	0.423000	0.194000	0.914400
H201	H20	0.469800	0.201300	0.902000
C341	C34	0.280200	0.076000	0.044700
H211	H21	0.314600	0.070500	0.075300
C351	C35	0.201100	0.051800	0.044600
H221	H22	0.170000	0.065800	0.067300
C361	C36	0.340000	0.935200	0.145800
H231	H23	0.308600	0.939600	0.172100
C371	C37	0.390600	0.976300	0.143100
C381	C38	0.378100	0.889700	0.152800
H241	H24	0.408200	0.884000	0.126100
C391	C39	0.168200	0.799200	0.045200
H251	H25	0.126400	0.813400	0.022300
C401	C40	0.252100	0.809400	0.033200
H261	H26	0.294200	0.795600	0.056200
C411	C41	0.257000	0.792900	0.982900
C421	C42	0.156000	0.750000	0.044300
C431	C43	0.001000	0.794200	0.157000
H271	H27	0.946300	0.787200	0.151000
C441	C44	0.351000	0.754400	0.170600
H281	H28	0.391000	0.733300	0.169200
C451	C45	0.254700	0.886800	0.295100
H291	H29	0.291300	0.911800	0.302200
C461	C46	0.179300	0.895200	0.318600
H301	H30	0.148700	0.919400	0.301900
O61	O6	0.177000	0.714500	0.186600
C471	C47	0.206000	0.705000	0.230900
H311	H31	0.211700	0.726200	0.254800
O71	O7	0.227000	0.665000	0.239400
Fe21	Fe2	0.230100	0.211860	0.912670
O81	O8	0.227200	0.175200	0.852900
C481	C48	0.214000	0.133200	0.856100
H321	H32	0.202100	0.120700	0.884100
O91	O9	0.219000	0.110000	0.819000
C491	C49	0.377000	0.474800	0.320000
H331	H33	0.391100	0.448000	0.308100
C501	C50	0.058700	0.922300	0.091100
H341	H34	0.028500	0.894800	0.092100
C511	C51	0.997800	0.957100	0.070900
C521	C52	0.056200	0.942900	0.180700
C531	C53	0.437100	0.885700	0.198600
C541	C54	0.422000	0.907100	0.003000
H351	H35	0.475300	0.899400	0.001400
C551	C55	0.057400	0.894800	0.949600
H361	H36	0.009700	0.883300	0.933000
O101	O10	0.219800	0.903500	0.904600
C561	C56	0.218000	0.942400	0.888800
H371	H37	0.228600	0.965600	0.909900
O111	O11	0.200100	0.949900	0.844000
C571	C57	0.323700	0.058600	0.005100
C581	C58	0.151500	0.053300	0.995000
C591	C59	0.436100	0.204400	0.063000
H381	H38	0.471400	0.230000	0.061700
C601	C60	0.395500	0.207100	0.107200
H391	H39	0.358300	0.182200	0.107900
C611	C61	0.447300	0.212000	0.155700
C621	C62	0.105000	0.177000	0.086500
C631	C63	0.162400	0.215200	0.083900
H401	H40	0.199300	0.217700	0.114000
C641	C64	0.125800	0.259600	0.069900
H411	H41	0.096500	0.256100	0.037600
C651	C65	0.063600	0.276100	0.100100
C661	C66	0.153000	0.395900	0.041800
H421	H42	0.109100	0.411300	0.025600
C671	C67	0.508000	0.337900	0.089700
H431	H43	0.562100	0.338900	0.085500
C681	C68	0.267200	0.305000	0.220000
H441	H44	0.228500	0.284800	0.231500
C691	C69	0.231400	0.350700	0.219500
C701	C70	0.472700	0.276800	0.416300
H451	H45	0.505100	0.277300	0.448000
C711	C71	0.528800	0.273100	0.378800
C721	C72	0.405500	0.242800	0.415400
H461	H46	0.368200	0.245800	0.385500
C731	C73	0.437200	0.196200	0.419600
C741	C74	0.136200	0.270800	0.337500
C751	C75	0.190600	0.275900	0.384700
H471	H47	0.215500	0.247100	0.392200
C761	C76	0.149200	0.288500	0.427300
H481	H48	0.127500	0.318200	0.422100
C771	C77	0.080600	0.258800	0.437700
C781	C78	0.165800	0.314200	0.572100
H491	H49	0.126300	0.330000	0.584900
C791	C79	0.516000	0.260100	0.578400
H501	H50	0.571000	0.261400	0.590500
C801	C80	0.319000	0.242100	0.652600
H511	H51	0.316300	0.220400	0.629500
C811	C81	0.396500	0.972100	0.496100
H521	H52	0.423900	0.943600	0.500300
C821	C82	0.344000	0.973300	0.447600
H531	H53	0.312900	0.000700	0.444600
C831	C83	0.385400	0.967600	0.403700
C841	C84	0.459600	0.008400	0.505300
C851	C85	0.056900	0.817800	0.476100
H541	H54	0.011800	0.804500	0.486000
C861	C86	0.421300	0.838600	0.479800
H551	H55	0.476100	0.834500	0.491100
O121	O12	0.227600	0.762300	0.470000
C871	C87	0.230000	0.747700	0.427800
H561	H56	0.243300	0.766000	0.404000
O131	O13	0.212000	0.707200	0.419100
C881	C88	0.485700	0.163000	0.060200
O141	O14	0.558900	0.161100	0.086000
O151	O15	0.224900	0.852700	0.439500
O161	O16	0.266900	0.881000	0.532200
O171	O17	0.125300	0.920100	0.462100
O181	O18	0.031600	0.914700	0.382000
O191	O19	0.942800	0.963000	0.400600
O201	O20	0.176800	0.999800	0.485800
O211	O21	0.234100	0.029300	0.578500
O221	O22	0.180200	0.943000	0.567600
O231	O23	0.262200	0.799000	0.564300
O241	O24	0.277300	0.819400	0.639500
O251	O25	0.167400	0.935400	0.657400
O261	O26	0.119600	0.867800	0.652400
O271	O27	0.074600	0.003800	0.612500
O281	O28	0.059500	0.040700	0.545800
O291	O29	0.316600	0.967600	0.650000
O301	O30	0.401500	0.018000	0.627500
O311	O31	0.277100	0.070900	0.507100
O321	O32	0.367800	0.098300	0.586300
O331	O33	0.388700	0.164300	0.558200
O341	O34	0.312600	0.251300	0.544000
O351	O35	0.371800	0.333400	0.515100
O361	O36	0.256500	0.305900	0.382200
O371	O37	0.333100	0.378300	0.352600
O381	O38	0.301700	0.381300	0.445400
O391	O39	0.321600	0.465600	0.450300
O401	O40	0.294200	0.470100	0.523800
O411	O41	0.386500	0.363100	0.601600
O421	O42	0.427200	0.428000	0.583400
O431	O43	0.357300	0.476400	0.358900
O441	O44	0.378000	0.509400	0.294500
O451	O45	0.209700	0.443000	0.372500
O461	O46	0.149600	0.383500	0.336600
O471	O47	0.453600	0.422300	0.425400
O481	O48	0.512300	0.390300	0.366000
O491	O49	0.336400	0.308400	0.302300
O501	O50	0.441400	0.361800	0.275300
O511	O51	0.423500	0.339500	0.202300
O521	O52	0.318400	0.342700	0.107300
O531	O53	0.335200	0.310400	0.016800
O541	O54	0.210000	0.203600	0.044500
O551	O55	0.246700	0.166700	0.960700
O561	O56	0.234600	0.257700	0.964900
O571	O57	0.223300	0.264600	0.871800
O581	O58	0.216300	0.339500	0.871700
O591	O59	0.369300	0.386700	0.985900
O601	O60	0.396300	0.363100	0.912000
O611	O61	0.107500	0.209900	0.902100
O621	O62	0.068700	0.177900	0.965100
O631	O63	0.361800	0.216700	0.908600
O641	O64	0.416000	0.157700	0.939900
O651	O65	0.273300	0.122700	0.037900
O661	O66	0.211500	0.007800	0.056100
O671	O67	0.228100	0.940400	0.001000
O681	O68	0.256000	0.856300	0.037600
O691	O69	0.279400	0.933500	0.101000
O701	O70	0.392700	0.993800	0.101500
O711	O71	0.439900	0.984700	0.178300
O721	O72	0.311400	0.859300	0.149400
O731	O73	0.198800	0.812500	0.191600
O741	O74	0.166100	0.816100	0.092500
O751	O75	0.252300	0.822600	0.951400
O761	O76	0.275000	0.758000	0.981200
O771	O77	0.148200	0.732100	0.085000
O781	O78	0.141000	0.731200	0.006000
O791	O79	0.048000	0.768600	0.145500
O801	O80	0.020800	0.830500	0.176700
O811	O81	0.294900	0.752500	0.139500
O821	O82	0.364300	0.779600	0.203700
O831	O83	0.235900	0.882800	0.241700
O841	O84	0.198000	0.905900	0.363800
O851	O85	0.101400	0.838300	0.349000
O861	O86	0.103700	0.837300	0.270800
O871	O87	0.322300	0.843800	0.358300
O881	O88	0.320000	0.815300	0.283000
O891	O89	0.154400	0.894200	0.151500
O901	O90	0.120300	0.914900	0.061600
O911	O91	0.031100	0.985200	0.043500
O921	O92	0.933100	0.963300	0.079500
O931	O93	0.060900	0.914200	0.215500
O941	O94	0.012100	0.974500	0.178600
O951	O95	0.407200	0.868200	0.231200
O961	O96	0.507600	0.897100	0.198200
O971	O97	0.366400	0.892700	0.975100
O981	O98	0.403200	0.933300	0.034800
O991	O99	0.117300	0.870300	0.957100
O1001	O100	0.056400	0.935800	0.963300
O1011	O101	0.340100	0.015600	0.001700
O1021	O102	0.348000	0.084500	0.974700
O1031	O103	0.119300	0.021400	0.973400
O1041	O104	0.130100	0.092800	0.974400
O1051	O105	0.368900	0.206300	0.023000
O1061	O106	0.344600	0.251100	0.098900
O1071	O107	0.446800	0.248200	0.178200
O1081	O108	0.472500	0.178600	0.170800
O1091	O109	0.449200	0.133100	0.036700
O1101	O110	0.103300	0.146500	0.057800
O1111	O111	0.051000	0.179900	0.115500
O1121	O112	0.190000	0.286700	0.066000
O1131	O113	0.109500	0.305700	0.132900
O1141	O114	0.993100	0.265800	0.100700
O1151	O115	0.223600	0.386800	0.020900
O1161	O116	0.152800	0.381400	0.084900
O1171	O117	0.464300	0.366200	0.064000
O1181	O118	0.494200	0.309500	0.118800
O1191	O119	0.275600	0.292300	0.171400
O1201	O120	0.223100	0.369800	0.258900
O1211	O121	0.214000	0.370100	0.178300
O1221	O122	0.424100	0.317000	0.409300
O1231	O123	0.507100	0.297100	0.341400
O1241	O124	0.585400	0.247500	0.384300
O1251	O125	0.363700	0.254400	0.453800
O1261	O126	0.433100	0.177500	0.462600
O1271	O127	0.471900	0.174800	0.390400
O1281	O128	0.152400	0.298600	0.305500
O1291	O129	0.089300	0.242300	0.330000
O1301	O130	0.212300	0.289700	0.464700
O1311	O131	0.099200	0.229800	0.469600
O1321	O132	0.010300	0.264300	0.418100
O1331	O133	0.230200	0.332100	0.572900
O1341	O134	0.143800	0.274800	0.555500
O1351	O135	0.466500	0.282300	0.596600
O1361	O136	0.489100	0.233100	0.539300
O1371	O137	0.335300	0.287000	0.644200
O1381	O138	0.310000	0.235400	0.696000
O1391	O139	0.262700	0.189700	0.483800
O1401	O140	0.153600	0.115400	0.548900
O1411	O141	0.170100	0.186200	0.552800
O1421	O142	0.337500	0.975600	0.530000
O1431	O143	0.289800	0.937900	0.449400
O1441	O144	0.378800	0.932100	0.383300
O1451	O145	0.430500	0.998000	0.392400
O1461	O146	0.445200	0.039300	0.535300
O1471	O147	0.523900	0.005800	0.490100
O1481	O148	0.098200	0.070100	0.461900
O1491	O149	0.039500	0.043900	0.391600
O1501	O150	0.123500	0.819500	0.507300
O1511	O151	0.048300	0.832200	0.434800
O1521	O152	0.369300	0.813300	0.498500
O1531	O153	0.405000	0.866800	0.449100
Fe31	Fe3	0.305200	0.887560	0.408250
Fe41	Fe4	0.125500	0.876460	0.409250
Fe51	Fe5	0.247100	0.823390	0.496550
Fe61	Fe6	0.230600	0.941400	0.506670
Fe71	Fe7	0.166500	0.053790	0.523550
Fe81	Fe8	0.340300	0.035530	0.562580
Fe91	Fe9	0.200200	0.987650	0.622120
Fe101	Fe10	0.375800	0.214100	0.509450
Fe111	Fe11	0.204700	0.240950	0.512180
Fe121	Fe12	0.347500	0.303900	0.577020
Fe131	Fe13	0.321300	0.315530	0.446820
Fe141	Fe14	0.241200	0.342700	0.323610
Fe151	Fe15	0.423100	0.344600	0.343860
Fe161	Fe16	0.329300	0.424750	0.396450
Fe171	Fe17	0.385200	0.299790	0.144960
Fe181	Fe18	0.213200	0.330330	0.119490
Fe191	Fe19	0.282300	0.254360	0.034060
Fe201	Fe20	0.172100	0.151970	0.005120
Fe211	Fe21	0.347300	0.148480	0.993500
Fe221	Fe22	0.130600	0.964660	0.015860
Fe231	Fe23	0.309300	0.969630	0.048040
Fe241	Fe24	0.242600	0.886270	0.972880
Fe251	Fe25	0.214900	0.877590	0.097730
Fe261	Fe26	0.302300	0.834770	0.213480
Fe271	Fe27	0.128200	0.859710	0.207350
Fe281	Fe28	0.173500	0.769490	0.144150
O1541	O154	0.642000	0.097900	0.142200
Ba11	Ba1	0.594480	0.016390	0.409210
Ba21	Ba2	0.739680	0.227040	0.365230
Ba31	Ba3	0.253600	0.170750	0.747160
Ba41	Ba4	0.922300	0.119160	0.093670
Ba51	Ba5	0.588900	0.026110	0.162300
Ba61	Ba6	0.607500	0.862900	0.288100
Ba71	Ba7	0.397700	0.529130	0.208100
Ba81	Ba8	0.202700	0.025320	0.789760
O1551	O155	0.619000	0.958400	0.240900
O1561	O156	0.698000	0.197200	0.454600
O1571	O157	0.667000	0.870400	0.193000
O1581	O158	0.527000	0.048400	0.079300
O1591	O159	0.903200	0.151000	0.997500
O1601	O160	0.490400	0.794800	0.305200
Ba91	Ba9	0.141800	0.662660	0.492880
O1611	O161	0.129200	0.731200	0.555600
O1621	O162	0.778000	0.832000	0.279900
O1631	O163	0.250000	0.258800	0.782100
O1641	O164	0.286000	0.945800	0.756400
Ba101	Ba10	0.111000	0.874200	0.802300
O1651	O165	0.137900	0.798400	0.760900
O1661	O166	0.967900	0.809700	0.782200
O1671	O167	0.143300	0.800200	0.874600
O1681	O168	0.277000	0.629300	0.452800
O1691	O169	0.706900	0.078600	0.661200
O1701	O170	0.666000	0.232800	0.106600
Ba111	Ba11	0.771800	0.914500	0.267370
Ba121	Ba12	0.608900	0.798570	0.245700
Ba131	Ba13	0.930100	0.033000	0.314400
Ba141	Ba14	0.790700	0.372100	0.194000
O1711	O171	0.830000	0.078800	0.957100
O1721	O172	0.805000	0.093900	0.994000
O1731	O173	0.596000	0.114700	0.175300
Ba151	Ba15	0.790300	0.230700	0.177700
Ba161	Ba16	0.779300	0.245000	0.131800
Ba171	Ba17	0.831100	0.390200	0.241900
Ba181	Ba18	0.687100	0.008900	0.111300
Ba191	Ba19	0.943700	0.228900	0.178600
Ba201	Ba20	0.873300	0.203900	0.084400
Ba211	Ba21	0.332500	0.477500	0.978300
Ba221	Ba22	0.898500	0.951600	0.240900
Ba231	Ba23	0.013100	0.095400	0.298500
Ba241	Ba24	0.310900	0.536000	0.046300
Ba251	Ba25	0.218000	0.660400	0.340000
Ba261	Ba26	0.634500	0.053200	0.566100
O1741	O174	0.315100	0.631100	0.396400
O1751	O175	0.413000	0.439000	0.862900
C891	C89	0.896300	0.430200	0.859000
H571	H57	0.859800	0.454900	0.862100
C901	C90	0.928300	0.454800	0.550700
H581	H58	0.956100	0.460500	0.523200
C911	C91	0.699500	0.345800	0.686000
C921	C92	0.993500	0.443500	0.591700
C931	C93	0.694100	0.900100	0.504700
H591	H59	0.739900	0.890700	0.488900
C941	C94	0.877300	0.495000	0.556900
H601	H60	0.844500	0.488400	0.582100
C951	C95	0.871400	0.353900	0.689400
C961	C96	0.918300	0.539000	0.569000
Fe291	Fe29	0.655000	0.869260	0.950180
O1761	O176	0.643900	0.931700	0.930300
C971	C97	0.629000	0.945500	0.888200
H611	H61	0.621500	0.925800	0.862900
O1771	O177	0.624000	0.986900	0.880200
C981	C98	0.748100	0.375300	0.419200
H621	H62	0.706500	0.393000	0.399900
C991	C99	0.690900	0.949400	0.510400
C1001	C100	0.828000	0.397900	0.415000
H631	H63	0.870900	0.383200	0.436700
C1011	C101	0.614000	0.879900	0.482400
H641	H64	0.568400	0.888800	0.498600
C1021	C102	0.731600	0.328700	0.402300
C1031	C103	0.851300	0.396700	0.365300
C1041	C104	0.966300	0.523600	0.420800
H651	H65	0.021900	0.525600	0.420100
C1051	C105	0.619300	0.484600	0.349100
H661	H66	0.577200	0.471900	0.328400
O1781	O178	0.788200	0.587700	0.279100
C1061	C106	0.790000	0.567500	0.318900
H671	H67	0.791400	0.583200	0.347100
O1791	O179	0.791300	0.525800	0.319500
C1071	C107	0.695600	0.614800	0.494000
H681	H68	0.662600	0.616200	0.519900
C1081	C108	0.638800	0.626000	0.449000
C1091	C109	0.762700	0.648600	0.506000
H691	H69	0.796500	0.638100	0.535000
C1101	C110	0.817600	0.649700	0.467500
C1111	C111	0.600500	0.891600	0.429600
C1121	C112	0.851100	0.920900	0.647800
H701	H70	0.901300	0.934800	0.651000
C1131	C113	0.482900	0.909800	0.594100
H711	H71	0.431400	0.915600	0.577700
C1141	C114	0.654600	0.804000	0.744600
H721	H72	0.629900	0.775200	0.747800
C1151	C115	0.595400	0.837600	0.759200
C1161	C116	0.749700	0.798000	0.054800
H731	H73	0.786200	0.819500	0.043300
C1171	C117	0.765000	0.799700	0.108700
C1181	C118	0.663800	0.811600	0.035600
H741	H74	0.627000	0.788500	0.043600
C1191	C119	0.629000	0.855200	0.047900
C1201	C120	0.944000	0.698600	0.075900
H751	H75	0.997400	0.704800	0.088600
C1211	C121	0.577000	0.694000	0.085600
H761	H76	0.530200	0.701300	0.098000
C1221	C122	0.719800	0.576000	0.955300
H771	H77	0.685400	0.570500	0.924700
C1231	C123	0.798900	0.551800	0.955400
H781	H78	0.830000	0.565800	0.932700
C1241	C124	0.660000	0.435200	0.854200
H791	H79	0.691400	0.439600	0.827900
C1251	C125	0.609400	0.476300	0.856900
C1261	C126	0.621900	0.389700	0.847200
H801	H80	0.591800	0.384000	0.873900
C1271	C127	0.831800	0.299200	0.954800
H811	H81	0.873600	0.313400	0.977700
C1281	C128	0.747900	0.309400	0.966800
H821	H82	0.705800	0.295600	0.943800
C1291	C129	0.743000	0.292900	0.017100
C1301	C130	0.844000	0.250000	0.955700
C1311	C131	0.999000	0.294200	0.843000
H831	H83	0.053700	0.287200	0.849000
C1321	C132	0.649000	0.254400	0.829400
H841	H84	0.609000	0.233300	0.830800
C1331	C133	0.745300	0.386800	0.704900
H851	H85	0.708700	0.411800	0.697800
C1341	C134	0.820700	0.395200	0.681400
H861	H86	0.851300	0.419400	0.698100
O1801	O180	0.823000	0.214500	0.813400
C1351	C135	0.794000	0.205000	0.769100
H871	H87	0.788300	0.226200	0.745200
O1811	O181	0.773000	0.165000	0.760600
Fe301	Fe30	0.769900	0.711860	0.087330
O1821	O182	0.772800	0.675200	0.147100
C1361	C136	0.786000	0.633200	0.143900
H881	H88	0.797900	0.620700	0.115900
O1831	O183	0.781000	0.610000	0.181000
C1371	C137	0.623000	0.974800	0.680000
H891	H89	0.608900	0.948000	0.691900
C1381	C138	0.941300	0.422300	0.908900
H901	H90	0.971500	0.394800	0.907900
C1391	C139	0.002200	0.457100	0.929100
C1401	C140	0.943800	0.442900	0.819300
C1411	C141	0.562900	0.385700	0.801400
C1421	C142	0.578000	0.407100	0.997000
H911	H91	0.524700	0.399400	0.998600
C1431	C143	0.942600	0.394800	0.050400
H921	H92	0.990300	0.383300	0.067000
O1841	O184	0.780200	0.403500	0.095400
C1441	C144	0.782000	0.442400	0.111200
H931	H93	0.771400	0.465600	0.090100
O1851	O185	0.799900	0.449900	0.156000
C1451	C145	0.676300	0.558600	0.994900
C1461	C146	0.848500	0.553300	0.005000
C1471	C147	0.563900	0.704400	0.937000
H941	H94	0.528600	0.730000	0.938300
C1481	C148	0.604500	0.707100	0.892800
H951	H95	0.641700	0.682200	0.892100
C1491	C149	0.552700	0.712000	0.844300
C1501	C150	0.895000	0.677000	0.913500
C1511	C151	0.837600	0.715200	0.916100
H961	H96	0.800700	0.717700	0.886000
C1521	C152	0.874200	0.759600	0.930100
H971	H97	0.903500	0.756100	0.962400
C1531	C153	0.936400	0.776100	0.899900
C1541	C154	0.847000	0.895900	0.958200
H981	H98	0.890900	0.911300	0.974400
C1551	C155	0.492000	0.837900	0.910300
H991	H99	0.437900	0.838900	0.914500
C1561	C156	0.732800	0.805000	0.780000
H1001	H100	0.771500	0.784800	0.768500
C1571	C157	0.768600	0.850700	0.780500
C1581	C158	0.527300	0.776800	0.583700
H1011	H101	0.494900	0.777300	0.552000
C1591	C159	0.471200	0.773100	0.621200
C1601	C160	0.594500	0.742800	0.584600
H1021	H102	0.631800	0.745800	0.614500
C1611	C161	0.562800	0.696200	0.580400
C1621	C162	0.863800	0.770800	0.662500
C1631	C163	0.809400	0.775900	0.615300
H1031	H103	0.784500	0.747100	0.607800
C1641	C164	0.850800	0.788500	0.572700
H1041	H104	0.872500	0.818200	0.577900
C1651	C165	0.919400	0.758800	0.562300
C1661	C166	0.834200	0.814200	0.427900
H1051	H105	0.873700	0.830000	0.415100
C1671	C167	0.484000	0.760100	0.421600
H1061	H106	0.429000	0.761400	0.409500
C1681	C168	0.681000	0.742100	0.347400
H1071	H107	0.683700	0.720400	0.370500
C1691	C169	0.603500	0.472100	0.503900
H1081	H108	0.576100	0.443600	0.499700
C1701	C170	0.656000	0.473300	0.552400
H1091	H109	0.687100	0.500700	0.555400
C1711	C171	0.614600	0.467600	0.596300
C1721	C172	0.540400	0.508400	0.494700
C1731	C173	0.943100	0.317800	0.523900
H1101	H110	0.988200	0.304500	0.514000
C1741	C174	0.578700	0.338600	0.520200
H1111	H111	0.523900	0.334500	0.508900
O1861	O186	0.772400	0.262300	0.530000
C1751	C175	0.770000	0.247700	0.572200
H1121	H112	0.756700	0.266000	0.596000
O1871	O187	0.788000	0.207200	0.580900
C1761	C176	0.514300	0.663000	0.939800
O1881	O188	0.441100	0.661100	0.914000
O1891	O189	0.775100	0.352700	0.560500
O1901	O190	0.733100	0.381000	0.467800
O1911	O191	0.874700	0.420100	0.537900
O1921	O192	0.968400	0.414700	0.618000
O1931	O193	0.057200	0.463000	0.599400
O1941	O194	0.823200	0.499800	0.514200
O1951	O195	0.765900	0.529300	0.421500
O1961	O196	0.819800	0.443000	0.432400
O1971	O197	0.737800	0.299000	0.435700
O1981	O198	0.722700	0.319400	0.360500
O1991	O199	0.832600	0.435400	0.342600
O2001	O200	0.880400	0.367800	0.347600
O2011	O201	0.925400	0.503800	0.387500
O2021	O202	0.940500	0.540700	0.454200
O2031	O203	0.683400	0.467600	0.350000
O2041	O204	0.598500	0.518000	0.372500
O2051	O205	0.722900	0.570900	0.492900
O2061	O206	0.632200	0.598300	0.413700
O2071	O207	0.611300	0.664300	0.441800
O2081	O208	0.687400	0.751300	0.456000
O2091	O209	0.628200	0.833400	0.484900
O2101	O210	0.743500	0.805900	0.617800
O2111	O211	0.666900	0.878300	0.647400
O2121	O212	0.698300	0.881300	0.554600
O2131	O213	0.678400	0.965600	0.549700
O2141	O214	0.705800	0.970100	0.476200
O2151	O215	0.613500	0.863100	0.398400
O2161	O216	0.572800	0.928000	0.416600
O2171	O217	0.642700	0.976400	0.641100
O2181	O218	0.622000	0.009400	0.705500
O2191	O219	0.790300	0.943000	0.627500
O2201	O220	0.850400	0.883500	0.663400
O2211	O221	0.546400	0.922300	0.574600
O2221	O222	0.487700	0.890300	0.634000
O2231	O223	0.663600	0.808400	0.697700
O2241	O224	0.558600	0.861800	0.724700
O2251	O225	0.576500	0.839500	0.797700
O2261	O226	0.681600	0.842700	0.892700
O2271	O227	0.664800	0.810400	0.983200
O2281	O228	0.790000	0.703600	0.955500
O2291	O229	0.753300	0.666700	0.039300
O2301	O230	0.765400	0.757700	0.035100
O2311	O231	0.776700	0.764600	0.128200
O2321	O232	0.783700	0.839500	0.128300
O2331	O233	0.630700	0.886700	0.014100
O2341	O234	0.603700	0.863100	0.088000
O2351	O235	0.892500	0.709900	0.097900
O2361	O236	0.931300	0.677900	0.034900
O2371	O237	0.638200	0.716700	0.091400
O2381	O238	0.584000	0.657700	0.060100
O2391	O239	0.726700	0.622700	0.962100
O2401	O240	0.788500	0.507800	0.943900
O2411	O241	0.771900	0.440400	0.999000
O2421	O242	0.744000	0.356300	0.962400
O2431	O243	0.720600	0.433500	0.899000
O2441	O244	0.607300	0.493800	0.898500
O2451	O245	0.560100	0.484700	0.821700
O2461	O246	0.688600	0.359300	0.850600
O2471	O247	0.801200	0.312500	0.808400
O2481	O248	0.833900	0.316100	0.907500
O2491	O249	0.747700	0.322600	0.048600
O2501	O250	0.725000	0.258000	0.018800
O2511	O251	0.851800	0.232100	0.915000
O2521	O252	0.859000	0.231200	0.994000
O2531	O253	0.952000	0.268600	0.854500
O2541	O254	0.979200	0.330500	0.823300
O2551	O255	0.705100	0.252500	0.860500
O2561	O256	0.635700	0.279600	0.796300
O2571	O257	0.764100	0.382800	0.758300
O2581	O258	0.802000	0.405900	0.636200
O2591	O259	0.898600	0.338300	0.651000
O2601	O260	0.896300	0.337300	0.729200
O2611	O261	0.677700	0.343800	0.641700
O2621	O262	0.680000	0.315300	0.717000
O2631	O263	0.845600	0.394200	0.848500
O2641	O264	0.879700	0.414900	0.938400
O2651	O265	0.968900	0.485200	0.956500
O2661	O266	0.066900	0.463300	0.920500
O2671	O267	0.939100	0.414200	0.784500
O2681	O268	0.987900	0.474500	0.821400
O2691	O269	0.592800	0.368200	0.768800
O2701	O270	0.492400	0.397100	0.801800
O2711	O271	0.633600	0.392700	0.024900
O2721	O272	0.596800	0.433300	0.965200
O2731	O273	0.882700	0.370300	0.042900
O2741	O274	0.943600	0.435800	0.036700
O2751	O275	0.659900	0.515600	0.998300
O2761	O276	0.652000	0.584500	0.025300
O2771	O277	0.880700	0.521400	0.026600
O2781	O278	0.869900	0.592800	0.025600
O2791	O279	0.631100	0.706300	0.977000
O2801	O280	0.655400	0.751100	0.901100
O2811	O281	0.553200	0.748200	0.821800
O2821	O282	0.527500	0.678600	0.829200
O2831	O283	0.550800	0.633100	0.963300
O2841	O284	0.896700	0.646500	0.942200
O2851	O285	0.949000	0.679900	0.884500
O2861	O286	0.810000	0.786700	0.934000
O2871	O287	0.890500	0.805700	0.867100
O2881	O288	0.006900	0.765800	0.899300
O2891	O289	0.776400	0.886800	0.979100
O2901	O290	0.847200	0.881400	0.915100
O2911	O291	0.535700	0.866200	0.936000
O2921	O292	0.505800	0.809500	0.881200
O2931	O293	0.724400	0.792300	0.828600
O2941	O294	0.776900	0.869800	0.741100
O2951	O295	0.786000	0.870100	0.821700
O2961	O296	0.575900	0.817000	0.590700
O2971	O297	0.492900	0.797100	0.658600
O2981	O298	0.414600	0.747500	0.615700
O2991	O299	0.636300	0.754400	0.546200
O3001	O300	0.566900	0.677500	0.537400
O3011	O301	0.528100	0.674800	0.609600
O3021	O302	0.847600	0.798600	0.694500
O3031	O303	0.910700	0.742300	0.670000
O3041	O304	0.787700	0.789700	0.535300
O3051	O305	0.900800	0.729800	0.530400
O3061	O306	0.989700	0.764300	0.581900
O3071	O307	0.769800	0.832100	0.427100
O3081	O308	0.856200	0.774800	0.444500
O3091	O309	0.533500	0.782300	0.403400
O3101	O310	0.510900	0.733100	0.460700
O3111	O311	0.664700	0.787000	0.355800
O3121	O312	0.690000	0.735400	0.304000
O3131	O313	0.737300	0.689700	0.516200
O3141	O314	0.846400	0.615400	0.451100
O3151	O315	0.829900	0.686200	0.447200
O3161	O316	0.662500	0.475600	0.470000
O3171	O317	0.710200	0.437900	0.550600
O3181	O318	0.621200	0.432100	0.616700
O3191	O319	0.569500	0.498000	0.607600
O3201	O320	0.554800	0.539300	0.464700
O3211	O321	0.476100	0.505800	0.509900
O3221	O322	0.901800	0.570100	0.538100
O3231	O323	0.960500	0.543900	0.608400
O3241	O324	0.876500	0.319500	0.492700
O3251	O325	0.951700	0.332200	0.565200
O3261	O326	0.630700	0.313300	0.501500
O3271	O327	0.595000	0.366800	0.550900
Fe311	Fe31	0.694800	0.387560	0.591750
Fe321	Fe32	0.874500	0.376460	0.590750
Fe331	Fe33	0.752900	0.323390	0.503450
Fe341	Fe34	0.769400	0.441400	0.493330
Fe351	Fe35	0.833500	0.553790	0.476450
Fe361	Fe36	0.659700	0.535530	0.437420
Fe371	Fe37	0.799800	0.487650	0.377880
Fe381	Fe38	0.624200	0.714100	0.490550
Fe391	Fe39	0.795300	0.740950	0.487820
Fe401	Fe40	0.652500	0.803900	0.422980
Fe411	Fe41	0.678700	0.815530	0.553180
Fe421	Fe42	0.758800	0.842700	0.676390
Fe431	Fe43	0.576900	0.844600	0.656140
Fe441	Fe44	0.670700	0.924750	0.603550
Fe451	Fe45	0.614800	0.799790	0.855040
Fe461	Fe46	0.786800	0.830330	0.880510
Fe471	Fe47	0.717700	0.754360	0.965940
Fe481	Fe48	0.827900	0.651970	0.994880
Fe491	Fe49	0.652700	0.648480	0.006500
Fe501	Fe50	0.869400	0.464660	0.984140
Fe511	Fe51	0.690700	0.469630	0.951960
Fe521	Fe52	0.757400	0.386270	0.027120
Fe531	Fe53	0.785100	0.377590	0.902270
Fe541	Fe54	0.697700	0.334770	0.786520
Fe551	Fe55	0.871800	0.359710	0.792650
Fe561	Fe56	0.826500	0.269490	0.855850
O3281	O328	0.358000	0.597900	0.857800
Ba271	Ba27	0.405520	0.516390	0.590790
Ba281	Ba28	0.260320	0.727040	0.634770
Ba291	Ba29	0.746400	0.670750	0.252840
Ba301	Ba30	0.077700	0.619160	0.906330
Ba311	Ba31	0.411100	0.526110	0.837700
Ba321	Ba32	0.392500	0.362900	0.711900
Ba331	Ba33	0.602300	0.029130	0.791900
Ba341	Ba34	0.797300	0.525320	0.210240
O3291	O329	0.381000	0.458400	0.759100
O3301	O330	0.302000	0.697200	0.545400
O3311	O331	0.333000	0.370400	0.807000
O3321	O332	0.473000	0.548400	0.920700
O3331	O333	0.096800	0.651000	0.002500
O3341	O334	0.509600	0.294800	0.694800
Ba351	Ba35	0.858200	0.162660	0.507120
O3351	O335	0.870800	0.231200	0.444400
O3361	O336	0.222000	0.332000	0.720100
O3371	O337	0.750000	0.758800	0.217900
O3381	O338	0.714000	0.445800	0.243600
Ba361	Ba36	0.889000	0.374200	0.197700
O3391	O339	0.862100	0.298400	0.239100
O3401	O340	0.032100	0.309700	0.217800
O3411	O341	0.856700	0.300200	0.125400
O3421	O342	0.723000	0.129300	0.547200
O3431	O343	0.293100	0.578600	0.338800
O3441	O344	0.334000	0.732800	0.893400
Ba371	Ba37	0.228200	0.414500	0.732630
Ba381	Ba38	0.391100	0.298570	0.754300
Ba391	Ba39	0.069900	0.533000	0.685600
Ba401	Ba40	0.209300	0.872100	0.806000
O3451	O345	0.170000	0.578800	0.042900
O3461	O346	0.195000	0.593900	0.006000
O3471	O347	0.404000	0.614700	0.824700
Ba411	Ba41	0.209700	0.730700	0.822300
Ba421	Ba42	0.220700	0.745000	0.868200
Ba431	Ba43	0.168900	0.890200	0.758100
Ba441	Ba44	0.312900	0.508900	0.888700
Ba451	Ba45	0.056300	0.728900	0.821400
Ba461	Ba46	0.126700	0.703900	0.915600
Ba471	Ba47	0.667500	0.977500	0.021700
Ba481	Ba48	0.101500	0.451600	0.759100
Ba491	Ba49	0.986900	0.595400	0.701500
Ba501	Ba50	0.689100	0.036000	0.953700
Ba511	Ba51	0.782000	0.160400	0.660000
Ba521	Ba52	0.365500	0.553200	0.433900
O3481	O348	0.684900	0.131100	0.603600
