data_JUGLAA_clean_PM
_symmetry_space_group_name_H-M	'P1'
_cell_length_a	14.152200
_cell_length_b	21.227300
_cell_length_c	22.707500
_cell_angle_alpha	90.000000
_cell_angle_beta	121.723000
_cell_angle_gamma	90.000000
_symmetry_Int_Tables_number 1

loop_
_symmetry_equiv_pos_as_xyz
'x,y,z'

loop_
_atom_site_label
_atom_site_type_symbol
_atom_site_fract_x
_atom_site_fract_y
_atom_site_fract_z
C11	C1	0.348100	0.730900	0.663400
C21	C2	0.259500	0.689400	0.640800
H11	H1	0.226300	0.684200	0.666600
C31	C3	0.220500	0.655800	0.579800
H21	H2	0.161200	0.628100	0.564700
C41	C4	0.270100	0.663600	0.541200
H31	H3	0.244000	0.641100	0.500400
C51	C5	0.358700	0.705000	0.563800
H41	H4	0.391900	0.710200	0.538000
C61	C6	0.397700	0.738600	0.624800
H51	H5	0.456900	0.766400	0.639900
Cd11	Cd1	0.100080	0.091260	0.598030
Cd21	Cd2	0.792120	0.977660	0.489430
F11	F1	0.934000	0.112500	0.854200
F21	F2	0.112000	0.119800	0.883700
F31	F3	0.572500	0.884800	0.880500
F41	F4	0.450100	0.847500	0.897400
O11	O1	0.062200	0.408770	0.970000
O21	O2	0.068500	0.324400	0.030000
O31	O3	0.920600	0.064360	0.562570
O41	O4	0.820700	0.012900	0.595600
O51	O5	0.157200	0.983640	0.586110
O61	O6	0.169300	0.015580	0.682400
O71	O7	0.714500	0.592250	0.890400
O81	O8	0.687300	0.618000	0.974600
N11	N1	0.178800	0.160800	0.690500
N21	N2	0.621500	0.471400	0.935600
N31	N3	0.006900	0.216800	0.859500
N41	N4	0.968200	0.141700	0.765100
N51	N5	0.396000	0.865500	0.778200
N61	N6	0.522800	0.777600	0.846000
C71	C7	0.576500	0.452900	0.970900
H61	H6	0.619000	0.455600	0.018900
C81	C8	0.467400	0.429100	0.939700
H71	H7	0.438600	0.418600	0.967000
C91	C9	0.404400	0.421400	0.870100
C101	C10	0.451800	0.438200	0.833200
H81	H8	0.413500	0.431800	0.785600
C111	C11	0.557200	0.464700	0.867000
H91	H9	0.584800	0.478800	0.840100
C121	C12	0.287400	0.391200	0.835400
H101	H10	0.235900	0.421500	0.835000
H111	H11	0.262300	0.380900	0.787700
C131	C13	0.285900	0.333500	0.871300
H121	H12	0.210000	0.318500	0.849500
H131	H13	0.311300	0.343900	0.919000
C141	C14	0.357800	0.281200	0.870400
H141	H14	0.384200	0.255300	0.911400
H151	H15	0.422100	0.299600	0.872400
C151	C15	0.297000	0.239800	0.806700
C161	C16	0.281800	0.256300	0.742800
H161	H16	0.312100	0.293400	0.738100
C171	C17	0.220400	0.216600	0.686000
H171	H17	0.207700	0.229100	0.643100
C181	C18	0.197300	0.144700	0.752700
H181	H18	0.171800	0.105700	0.757200
C191	C19	0.252200	0.182900	0.810700
H191	H19	0.259000	0.170500	0.852000
C201	C20	0.885900	0.056700	0.603700
C211	C21	0.919000	0.102800	0.660600
C221	C22	0.949300	0.087700	0.728300
C231	C23	0.965800	0.023900	0.759300
H201	H20	0.938400	0.023300	0.790100
H211	H21	0.043500	0.013800	0.784700
H221	H22	0.926200	0.993500	0.723200
C241	C24	0.917000	0.168600	0.655000
C251	C25	0.948200	0.192400	0.720800
C261	C26	0.884500	0.205200	0.590600
H231	H23	0.949800	0.222600	0.594000
H241	H24	0.835100	0.238700	0.585400
H251	H25	0.847900	0.177700	0.551200
C271	C27	0.957700	0.255300	0.745200
C281	C28	0.933200	0.307400	0.698500
C291	C29	0.832500	0.337800	0.669800
H261	H26	0.780400	0.324600	0.680300
C301	C30	0.808000	0.389700	0.623800
H271	H27	0.739300	0.409700	0.602600
C311	C31	0.886200	0.408500	0.612100
H281	H28	0.871100	0.443500	0.583900
C321	C32	0.993300	0.378400	0.640100
H291	H29	0.046100	0.392400	0.630400
C331	C33	0.010700	0.327100	0.682400
H301	H30	0.077000	0.304900	0.700900
C341	C34	0.987400	0.266600	0.814200
C351	C35	0.005000	0.323300	0.850500
C361	C36	0.998900	0.388400	0.824300
H311	H31	0.032900	0.389400	0.797200
H321	H32	0.037400	0.416800	0.862700
H331	H33	0.922600	0.401000	0.796100
C371	C37	0.032100	0.306700	0.917700
C381	C38	0.031200	0.240100	0.921300
C391	C39	0.057900	0.200300	0.981700
H341	H34	0.061200	0.156900	0.970900
H351	H35	0.001400	0.205400	0.992600
H361	H36	0.128500	0.212700	0.020700
C401	C40	0.055900	0.349700	0.975600
C411	C41	0.193500	0.976400	0.650000
C421	C42	0.265400	0.922700	0.688600
C431	C43	0.340300	0.921600	0.761300
C441	C44	0.360600	0.973400	0.811400
H371	H37	0.302800	0.973200	0.821500
H381	H38	0.361100	0.013200	0.791400
H391	H39	0.431100	0.966900	0.853300
C451	C45	0.278200	0.865800	0.661900
C461	C46	0.220100	0.846800	0.587900
H401	H40	0.273700	0.839700	0.574900
H411	H41	0.170100	0.879700	0.559700
H421	H42	0.178900	0.808800	0.581400
C471	C47	0.357600	0.830400	0.717700
C481	C48	0.485400	0.743900	0.785100
C491	C49	0.597600	0.741400	0.900700
C501	C50	0.656900	0.761200	0.974900
H431	H43	0.692700	0.801000	0.980100
H441	H44	0.711700	0.730100	0.003000
H451	H45	0.604500	0.765200	0.989400
C511	C51	0.607200	0.683500	0.874700
C521	C52	0.674200	0.628400	0.916100
C531	C53	0.537700	0.685700	0.801900
C541	C54	0.521500	0.634400	0.752200
H461	H46	0.444600	0.632500	0.715900
H471	H47	0.543500	0.594800	0.776200
H481	H48	0.566000	0.643000	0.732600
C551	C55	0.399100	0.768200	0.717400
B11	B1	0.003300	0.146900	0.841100
B21	B2	0.485200	0.842800	0.848100
C561	C56	0.651900	0.230900	0.836600
C571	C57	0.740500	0.189400	0.859200
H491	H49	0.773700	0.184200	0.833400
C581	C58	0.779500	0.155800	0.920200
H501	H50	0.838800	0.128100	0.935300
C591	C59	0.729900	0.163600	0.958800
H511	H51	0.756000	0.141100	0.999600
C601	C60	0.641300	0.205000	0.936200
H521	H52	0.608100	0.210200	0.962000
C611	C61	0.602300	0.238600	0.875200
H531	H53	0.543100	0.266400	0.860100
Cd31	Cd3	0.899920	0.591260	0.901970
Cd41	Cd4	0.207880	0.477660	0.010570
F51	F5	0.066000	0.612500	0.645800
F61	F6	0.888000	0.619800	0.616300
F71	F7	0.427500	0.384800	0.619500
F81	F8	0.549900	0.347500	0.602600
O91	O9	0.937800	0.908770	0.530000
O101	O10	0.931500	0.824400	0.470000
O111	O11	0.079400	0.564360	0.937430
O121	O12	0.179300	0.512900	0.904400
O131	O13	0.842800	0.483640	0.913890
O141	O14	0.830700	0.515580	0.817600
O151	O15	0.285500	0.092250	0.609600
O161	O16	0.312700	0.118000	0.525400
N71	N7	0.821200	0.660800	0.809500
N81	N8	0.378500	0.971400	0.564400
N91	N9	0.993100	0.716800	0.640500
N101	N10	0.031800	0.641700	0.734900
N111	N11	0.604000	0.365500	0.721800
N121	N12	0.477200	0.277600	0.654000
C621	C62	0.423500	0.952900	0.529100
H541	H54	0.381000	0.955600	0.481100
C631	C63	0.532600	0.929100	0.560300
H551	H55	0.561400	0.918600	0.533000
C641	C64	0.595600	0.921400	0.629900
C651	C65	0.548200	0.938200	0.666800
H561	H56	0.586500	0.931800	0.714400
C661	C66	0.442800	0.964700	0.633000
H571	H57	0.415200	0.978800	0.659900
C671	C67	0.712600	0.891200	0.664600
H581	H58	0.764100	0.921500	0.665000
H591	H59	0.737700	0.880900	0.712300
C681	C68	0.714100	0.833500	0.628700
H601	H60	0.790000	0.818500	0.650500
H611	H61	0.688700	0.843900	0.581000
C691	C69	0.642200	0.781200	0.629600
H621	H62	0.615800	0.755300	0.588600
H631	H63	0.577900	0.799600	0.627600
C701	C70	0.703000	0.739800	0.693300
C711	C71	0.718200	0.756300	0.757200
H641	H64	0.687900	0.793400	0.761900
C721	C72	0.779600	0.716600	0.814000
H651	H65	0.792300	0.729100	0.856900
C731	C73	0.802700	0.644700	0.747300
H661	H66	0.828200	0.605700	0.742800
C741	C74	0.747800	0.682900	0.689300
H671	H67	0.741000	0.670500	0.648000
C751	C75	0.114100	0.556700	0.896300
C761	C76	0.081000	0.602800	0.839400
C771	C77	0.050700	0.587700	0.771700
C781	C78	0.034200	0.523900	0.740700
H681	H68	0.061600	0.523300	0.709900
H691	H69	0.956500	0.513800	0.715300
H701	H70	0.073800	0.493500	0.776800
C791	C79	0.083000	0.668600	0.845000
C801	C80	0.051800	0.692400	0.779200
C811	C81	0.115500	0.705200	0.909400
H711	H71	0.050200	0.722600	0.906000
H721	H72	0.164900	0.738700	0.914600
H731	H73	0.152100	0.677700	0.948800
C821	C82	0.042300	0.755300	0.754800
C831	C83	0.066800	0.807400	0.801500
C841	C84	0.167500	0.837800	0.830200
H741	H74	0.219600	0.824600	0.819700
C851	C85	0.192000	0.889700	0.876200
H751	H75	0.260700	0.909700	0.897400
C861	C86	0.113800	0.908500	0.887900
H761	H76	0.128900	0.943500	0.916100
C871	C87	0.006700	0.878400	0.859900
H771	H77	0.953900	0.892400	0.869600
C881	C88	0.989300	0.827100	0.817600
H781	H78	0.923000	0.804900	0.799100
C891	C89	0.012600	0.766600	0.685800
C901	C90	0.995000	0.823300	0.649500
C911	C91	0.001100	0.888400	0.675700
H791	H79	0.967100	0.889400	0.702800
H801	H80	0.962600	0.916800	0.637300
H811	H81	0.077400	0.901000	0.703900
C921	C92	0.967900	0.806700	0.582300
C931	C93	0.968800	0.740100	0.578700
C941	C94	0.942100	0.700300	0.518300
H821	H82	0.938800	0.656900	0.529100
H831	H83	0.998600	0.705400	0.507400
H841	H84	0.871500	0.712700	0.479300
C951	C95	0.944100	0.849700	0.524400
C961	C96	0.806500	0.476400	0.850000
C971	C97	0.734600	0.422700	0.811400
C981	C98	0.659700	0.421600	0.738700
C991	C99	0.639400	0.473400	0.688600
H851	H85	0.697200	0.473200	0.678500
H861	H86	0.638900	0.513200	0.708600
H871	H87	0.568900	0.466900	0.646700
C1001	C100	0.721800	0.365800	0.838100
C1011	C101	0.779900	0.346800	0.912100
H881	H88	0.726300	0.339700	0.925100
H891	H89	0.829900	0.379700	0.940300
H901	H90	0.821100	0.308800	0.918600
C1021	C102	0.642400	0.330400	0.782300
C1031	C103	0.514600	0.243900	0.714900
C1041	C104	0.402400	0.241400	0.599300
C1051	C105	0.343100	0.261200	0.525100
H911	H91	0.307300	0.301000	0.519900
H921	H92	0.288300	0.230100	0.497000
H931	H93	0.395500	0.265200	0.510600
C1061	C106	0.392800	0.183500	0.625300
C1071	C107	0.325800	0.128400	0.583900
C1081	C108	0.462300	0.185700	0.698100
C1091	C109	0.478500	0.134400	0.747800
H941	H94	0.555400	0.132500	0.784100
H951	H95	0.456500	0.094800	0.723800
H961	H96	0.434000	0.143000	0.767400
C1101	C110	0.600900	0.268200	0.782600
B31	B3	0.996700	0.646900	0.658900
B41	B4	0.514800	0.342800	0.651900
C1111	C111	0.651900	0.269100	0.336600
C1121	C112	0.740500	0.310600	0.359200
H971	H97	0.773700	0.315800	0.333400
C1131	C113	0.779500	0.344200	0.420200
H981	H98	0.838800	0.371900	0.435300
C1141	C114	0.729900	0.336400	0.458800
H991	H99	0.756000	0.358900	0.499600
C1151	C115	0.641300	0.295000	0.436200
H1001	H100	0.608100	0.289800	0.462000
C1161	C116	0.602300	0.261400	0.375200
H1011	H101	0.543100	0.233600	0.360100
Cd51	Cd5	0.899920	0.908740	0.401970
Cd61	Cd6	0.207880	0.022340	0.510570
F91	F9	0.066000	0.887500	0.145800
F101	F10	0.888000	0.880200	0.116300
F111	F11	0.427500	0.115200	0.119500
F121	F12	0.549900	0.152500	0.102600
O171	O17	0.937800	0.591230	0.030000
O181	O18	0.931500	0.675600	0.970000
O191	O19	0.079400	0.935640	0.437430
O201	O20	0.179300	0.987100	0.404400
O211	O21	0.842800	0.016360	0.413890
O221	O22	0.830700	0.984420	0.317600
O231	O23	0.285500	0.407750	0.109600
O241	O24	0.312700	0.382000	0.025400
N131	N13	0.821200	0.839200	0.309500
N141	N14	0.378500	0.528600	0.064400
N151	N15	0.993100	0.783200	0.140500
N161	N16	0.031800	0.858300	0.234900
N171	N17	0.604000	0.134500	0.221800
N181	N18	0.477200	0.222400	0.154000
C1171	C117	0.423500	0.547100	0.029100
H1021	H102	0.381000	0.544400	0.981100
C1181	C118	0.532600	0.570900	0.060300
H1031	H103	0.561400	0.581400	0.033000
C1191	C119	0.595600	0.578600	0.129900
C1201	C120	0.548200	0.561800	0.166800
H1041	H104	0.586500	0.568200	0.214400
C1211	C121	0.442800	0.535300	0.133000
H1051	H105	0.415200	0.521200	0.159900
C1221	C122	0.712600	0.608800	0.164600
H1061	H106	0.764100	0.578500	0.165000
H1071	H107	0.737700	0.619100	0.212300
C1231	C123	0.714100	0.666500	0.128700
H1081	H108	0.790000	0.681500	0.150500
H1091	H109	0.688700	0.656100	0.081000
C1241	C124	0.642200	0.718800	0.129600
H1101	H110	0.615800	0.744700	0.088600
H1111	H111	0.577900	0.700400	0.127600
C1251	C125	0.703000	0.760200	0.193300
C1261	C126	0.718200	0.743700	0.257200
H1121	H112	0.687900	0.706600	0.261900
C1271	C127	0.779600	0.783400	0.314000
H1131	H113	0.792300	0.770900	0.356900
C1281	C128	0.802700	0.855300	0.247300
H1141	H114	0.828200	0.894300	0.242800
C1291	C129	0.747800	0.817100	0.189300
H1151	H115	0.741000	0.829500	0.148000
C1301	C130	0.114100	0.943300	0.396300
C1311	C131	0.081000	0.897200	0.339400
C1321	C132	0.050700	0.912300	0.271700
C1331	C133	0.034200	0.976100	0.240700
H1161	H116	0.061600	0.976700	0.209900
H1171	H117	0.956500	0.986200	0.215300
H1181	H118	0.073800	0.006500	0.276800
C1341	C134	0.083000	0.831400	0.345000
C1351	C135	0.051800	0.807600	0.279200
C1361	C136	0.115500	0.794800	0.409400
H1191	H119	0.050200	0.777400	0.406000
H1201	H120	0.164900	0.761300	0.414600
H1211	H121	0.152100	0.822300	0.448800
C1371	C137	0.042300	0.744700	0.254800
C1381	C138	0.066800	0.692600	0.301500
C1391	C139	0.167500	0.662200	0.330200
H1221	H122	0.219600	0.675400	0.319700
C1401	C140	0.192000	0.610300	0.376200
H1231	H123	0.260700	0.590300	0.397400
C1411	C141	0.113800	0.591500	0.387900
H1241	H124	0.128900	0.556500	0.416100
C1421	C142	0.006700	0.621600	0.359900
H1251	H125	0.953900	0.607600	0.369600
C1431	C143	0.989300	0.672900	0.317600
H1261	H126	0.923000	0.695100	0.299100
C1441	C144	0.012600	0.733400	0.185800
C1451	C145	0.995000	0.676700	0.149500
C1461	C146	0.001100	0.611600	0.175700
H1271	H127	0.967100	0.610600	0.202800
H1281	H128	0.962600	0.583200	0.137300
H1291	H129	0.077400	0.599000	0.203900
C1471	C147	0.967900	0.693300	0.082300
C1481	C148	0.968800	0.759900	0.078700
C1491	C149	0.942100	0.799700	0.018300
H1301	H130	0.938800	0.843100	0.029100
H1311	H131	0.998600	0.794600	0.007400
H1321	H132	0.871500	0.787300	0.979300
C1501	C150	0.944100	0.650300	0.024400
C1511	C151	0.806500	0.023600	0.350000
C1521	C152	0.734600	0.077300	0.311400
C1531	C153	0.659700	0.078400	0.238700
C1541	C154	0.639400	0.026600	0.188600
H1331	H133	0.697200	0.026800	0.178500
H1341	H134	0.638900	0.986800	0.208600
H1351	H135	0.568900	0.033100	0.146700
C1551	C155	0.721800	0.134200	0.338100
C1561	C156	0.779900	0.153200	0.412100
H1361	H136	0.726300	0.160300	0.425100
H1371	H137	0.829900	0.120300	0.440300
H1381	H138	0.821100	0.191200	0.418600
C1571	C157	0.642400	0.169600	0.282300
C1581	C158	0.514600	0.256100	0.214900
C1591	C159	0.402400	0.258600	0.099300
C1601	C160	0.343100	0.238800	0.025100
H1391	H139	0.307300	0.199000	0.019900
H1401	H140	0.288300	0.269900	0.997000
H1411	H141	0.395500	0.234800	0.010600
C1611	C161	0.392800	0.316500	0.125300
C1621	C162	0.325800	0.371600	0.083900
C1631	C163	0.462300	0.314300	0.198100
C1641	C164	0.478500	0.365600	0.247800
H1421	H142	0.555400	0.367500	0.284100
H1431	H143	0.456500	0.405200	0.223800
H1441	H144	0.434000	0.357000	0.267400
C1651	C165	0.600900	0.231800	0.282600
B51	B5	0.996700	0.853100	0.158900
B61	B6	0.514800	0.157200	0.151900
C1661	C166	0.348100	0.769100	0.163400
C1671	C167	0.259500	0.810600	0.140800
H1451	H145	0.226300	0.815800	0.166600
C1681	C168	0.220500	0.844200	0.079800
H1461	H146	0.161200	0.871900	0.064700
C1691	C169	0.270100	0.836400	0.041200
H1471	H147	0.244000	0.858900	0.000400
C1701	C170	0.358700	0.795000	0.063800
H1481	H148	0.391900	0.789800	0.038000
C1711	C171	0.397700	0.761400	0.124800
H1491	H149	0.456900	0.733600	0.139900
Cd71	Cd7	0.100080	0.408740	0.098030
Cd81	Cd8	0.792120	0.522340	0.989430
F131	F13	0.934000	0.387500	0.354200
F141	F14	0.112000	0.380200	0.383700
F151	F15	0.572500	0.615200	0.380500
F161	F16	0.450100	0.652500	0.397400
O251	O25	0.062200	0.091230	0.470000
O261	O26	0.068500	0.175600	0.530000
O271	O27	0.920600	0.435640	0.062570
O281	O28	0.820700	0.487100	0.095600
O291	O29	0.157200	0.516360	0.086110
O301	O30	0.169300	0.484420	0.182400
O311	O31	0.714500	0.907750	0.390400
O321	O32	0.687300	0.882000	0.474600
N191	N19	0.178800	0.339200	0.190500
N201	N20	0.621500	0.028600	0.435600
N211	N21	0.006900	0.283200	0.359500
N221	N22	0.968200	0.358300	0.265100
N231	N23	0.396000	0.634500	0.278200
N241	N24	0.522800	0.722400	0.346000
C1721	C172	0.576500	0.047100	0.470900
H1501	H150	0.619000	0.044400	0.518900
C1731	C173	0.467400	0.070900	0.439700
H1511	H151	0.438600	0.081400	0.467000
C1741	C174	0.404400	0.078600	0.370100
C1751	C175	0.451800	0.061800	0.333200
H1521	H152	0.413500	0.068200	0.285600
C1761	C176	0.557200	0.035300	0.367000
H1531	H153	0.584800	0.021200	0.340100
C1771	C177	0.287400	0.108800	0.335400
H1541	H154	0.235900	0.078500	0.335000
H1551	H155	0.262300	0.119100	0.287700
C1781	C178	0.285900	0.166500	0.371300
H1561	H156	0.210000	0.181500	0.349500
H1571	H157	0.311300	0.156100	0.419000
C1791	C179	0.357800	0.218800	0.370400
H1581	H158	0.384200	0.244700	0.411400
H1591	H159	0.422100	0.200400	0.372400
C1801	C180	0.297000	0.260200	0.306700
C1811	C181	0.281800	0.243700	0.242800
H1601	H160	0.312100	0.206600	0.238100
C1821	C182	0.220400	0.283400	0.186000
H1611	H161	0.207700	0.270900	0.143100
C1831	C183	0.197300	0.355300	0.252700
H1621	H162	0.171800	0.394300	0.257200
C1841	C184	0.252200	0.317100	0.310700
H1631	H163	0.259000	0.329500	0.352000
C1851	C185	0.885900	0.443300	0.103700
C1861	C186	0.919000	0.397200	0.160600
C1871	C187	0.949300	0.412300	0.228300
C1881	C188	0.965800	0.476100	0.259300
H1641	H164	0.938400	0.476700	0.290100
H1651	H165	0.043500	0.486200	0.284700
H1661	H166	0.926200	0.506500	0.223200
C1891	C189	0.917000	0.331400	0.155000
C1901	C190	0.948200	0.307600	0.220800
C1911	C191	0.884500	0.294800	0.090600
H1671	H167	0.949800	0.277400	0.094000
H1681	H168	0.835100	0.261300	0.085400
H1691	H169	0.847900	0.322300	0.051200
C1921	C192	0.957700	0.244700	0.245200
C1931	C193	0.933200	0.192600	0.198500
C1941	C194	0.832500	0.162200	0.169800
H1701	H170	0.780400	0.175400	0.180300
C1951	C195	0.808000	0.110300	0.123800
H1711	H171	0.739300	0.090300	0.102600
C1961	C196	0.886200	0.091500	0.112100
H1721	H172	0.871100	0.056500	0.083900
C1971	C197	0.993300	0.121600	0.140100
H1731	H173	0.046100	0.107600	0.130400
C1981	C198	0.010700	0.172900	0.182400
H1741	H174	0.077000	0.195100	0.200900
C1991	C199	0.987400	0.233400	0.314200
C2001	C200	0.005000	0.176700	0.350500
C2011	C201	0.998900	0.111600	0.324300
H1751	H175	0.032900	0.110600	0.297200
H1761	H176	0.037400	0.083200	0.362700
H1771	H177	0.922600	0.099000	0.296100
C2021	C202	0.032100	0.193300	0.417700
C2031	C203	0.031200	0.259900	0.421300
C2041	C204	0.057900	0.299700	0.481700
H1781	H178	0.061200	0.343100	0.470900
H1791	H179	0.001400	0.294600	0.492600
H1801	H180	0.128500	0.287300	0.520700
C2051	C205	0.055900	0.150300	0.475600
C2061	C206	0.193500	0.523600	0.150000
C2071	C207	0.265400	0.577300	0.188600
C2081	C208	0.340300	0.578400	0.261300
C2091	C209	0.360600	0.526600	0.311400
H1811	H181	0.302800	0.526800	0.321500
H1821	H182	0.361100	0.486800	0.291400
H1831	H183	0.431100	0.533100	0.353300
C2101	C210	0.278200	0.634200	0.161900
C2111	C211	0.220100	0.653200	0.087900
H1841	H184	0.273700	0.660300	0.074900
H1851	H185	0.170100	0.620300	0.059700
H1861	H186	0.178900	0.691200	0.081400
C2121	C212	0.357600	0.669600	0.217700
C2131	C213	0.485400	0.756100	0.285100
C2141	C214	0.597600	0.758600	0.400700
C2151	C215	0.656900	0.738800	0.474900
H1871	H187	0.692700	0.699000	0.480100
H1881	H188	0.711700	0.769900	0.503000
H1891	H189	0.604500	0.734800	0.489400
C2161	C216	0.607200	0.816500	0.374700
C2171	C217	0.674200	0.871600	0.416100
C2181	C218	0.537700	0.814300	0.301900
C2191	C219	0.521500	0.865600	0.252200
H1901	H190	0.444600	0.867500	0.215900
H1911	H191	0.543500	0.905200	0.276200
H1921	H192	0.566000	0.857000	0.232600
C2201	C220	0.399100	0.731800	0.217400
B71	B7	0.003300	0.353100	0.341100
B81	B8	0.485200	0.657200	0.348100
