data_JUJMOS_clean_PM
_symmetry_space_group_name_H-M	'P1'
_cell_length_a	19.168000
_cell_length_b	19.168000
_cell_length_c	67.695000
_cell_angle_alpha	90.000000
_cell_angle_beta	90.000000
_cell_angle_gamma	120.000000
_symmetry_Int_Tables_number 1

loop_
_symmetry_equiv_pos_as_xyz
'x,y,z'

loop_
_atom_site_label
_atom_site_type_symbol
_atom_site_fract_x
_atom_site_fract_y
_atom_site_fract_z
Zn11	Zn1	0.356490	0.585190	0.331710
Zn21	Zn2	0.103080	0.086770	0.150760
O11	O1	0.337600	0.574900	0.283230
O21	O2	0.381800	0.536900	0.309950
O31	O3	0.103400	0.080500	0.198200
O41	O4	0.181100	0.143600	0.172240
O51	O5	0.153000	0.044200	0.133650
O61	O6	0.076300	0.910300	0.136150
O71	O7	0.516900	0.219500	0.015810
O81	O8	0.602100	0.169800	0.014120
N11	N1	0.422500	0.324700	0.243470
N21	N2	0.354400	0.938300	0.080440
C11	C1	0.366300	0.535100	0.291900
C21	C2	0.380200	0.476700	0.279330
C31	C3	0.421800	0.440500	0.286840
H11	H1	0.441200	0.451000	0.300000
C41	C4	0.435100	0.388900	0.275050
H21	H2	0.463600	0.364200	0.280200
C51	C5	0.406800	0.373500	0.255730
C61	C6	0.365100	0.409700	0.248210
H31	H3	0.345700	0.399200	0.235000
C71	C7	0.351800	0.461300	0.260010
H41	H4	0.323300	0.486000	0.254900
C81	C8	0.491500	0.312900	0.246050
H51	H5	0.541400	0.364100	0.244000
H61	H6	0.488400	0.273200	0.236400
H71	H7	0.491000	0.293400	0.259500
C91	C9	0.170000	0.129600	0.190150
C101	C10	0.237000	0.182500	0.203420
C111	C11	0.312900	0.230500	0.196960
H81	H8	0.324300	0.230100	0.183300
C121	C12	0.375000	0.280400	0.209640
H91	H9	0.427200	0.316600	0.204600
C131	C13	0.359800	0.276500	0.229200
C141	C14	0.281400	0.228100	0.236130
H101	H10	0.268300	0.229400	0.249600
C151	C15	0.225500	0.179900	0.223170
H111	H11	0.174200	0.141200	0.228200
C161	C16	0.137000	0.972800	0.129840
C171	C17	0.198000	0.965400	0.117250
C181	C18	0.180200	0.889340	0.110830
H121	H12	0.131700	0.843100	0.114900
C191	C19	0.233400	0.881000	0.098440
H131	H13	0.221300	0.829100	0.094100
C201	C20	0.304400	0.948700	0.092470
C211	C21	0.322200	0.024700	0.098890
H141	H14	0.370700	0.071000	0.094800
C221	C22	0.268900	0.033050	0.111280
H151	H15	0.281100	0.085000	0.115700
C231	C23	0.351700	0.861600	0.080400
H161	H16	0.314700	0.827000	0.090700
H171	H17	0.405700	0.870100	0.082900
H181	H18	0.332800	0.835800	0.067500
C241	C24	0.541400	0.170600	0.020710
C251	C25	0.494200	0.112300	0.036820
C261	C26	0.522400	0.065000	0.045240
H191	H19	0.572700	0.071300	0.041200
C271	C27	0.477100	0.008400	0.059570
H201	H20	0.496400	0.976000	0.065300
C281	C28	0.403500	0.999100	0.065500
C291	C29	0.375200	0.046400	0.057080
H211	H21	0.324900	0.040100	0.061100
C301	C30	0.420600	0.103100	0.042740
H221	H22	0.401300	0.135400	0.037000
Zn31	Zn3	0.023160	0.918520	0.665040
Zn41	Zn4	0.769750	0.420100	0.484090
O91	O9	0.004270	0.908230	0.616560
O101	O10	0.048470	0.870230	0.643280
O111	O11	0.770070	0.413830	0.531530
O121	O12	0.847770	0.476930	0.505570
O131	O13	0.819670	0.377530	0.466980
O141	O14	0.742970	0.243630	0.469480
O151	O15	0.183570	0.552830	0.349140
O161	O16	0.268770	0.503130	0.347450
N31	N3	0.089170	0.658030	0.576800
N41	N4	0.021070	0.271630	0.413770
C311	C31	0.032970	0.868430	0.625230
C321	C32	0.046870	0.810030	0.612660
C331	C33	0.088470	0.773830	0.620170
H231	H23	0.107870	0.784330	0.633330
C341	C34	0.101770	0.722230	0.608380
H241	H24	0.130270	0.697530	0.613530
C351	C35	0.073470	0.706830	0.589060
C361	C36	0.031770	0.743030	0.581540
H251	H25	0.012370	0.732530	0.568330
C371	C37	0.018470	0.794630	0.593340
H261	H26	0.989970	0.819330	0.588230
C381	C38	0.158170	0.646230	0.579380
H271	H27	0.208070	0.697430	0.577330
H281	H28	0.155070	0.606530	0.569730
H291	H29	0.157670	0.626730	0.592830
C391	C39	0.836670	0.462930	0.523480
C401	C40	0.903670	0.515830	0.536750
C411	C41	0.979570	0.563830	0.530290
H301	H30	0.990970	0.563430	0.516630
C421	C42	0.041670	0.613730	0.542970
H311	H31	0.093870	0.649930	0.537930
C431	C43	0.026470	0.609830	0.562530
C441	C44	0.948070	0.561430	0.569460
H321	H32	0.934970	0.562730	0.582930
C451	C45	0.892170	0.513230	0.556500
H331	H33	0.840870	0.474530	0.561530
C461	C46	0.803670	0.306130	0.463170
C471	C47	0.864670	0.298730	0.450580
C481	C48	0.846870	0.222670	0.444160
H341	H34	0.798370	0.176430	0.448230
C491	C49	0.900070	0.214330	0.431770
H351	H35	0.887970	0.162430	0.427430
C501	C50	0.971070	0.282030	0.425800
C511	C51	0.988870	0.358030	0.432220
H361	H36	0.037370	0.404330	0.428130
C521	C52	0.935570	0.366380	0.444610
H371	H37	0.947770	0.418330	0.449030
C531	C53	0.018370	0.194930	0.413730
H381	H38	0.981370	0.160330	0.424030
H391	H39	0.072370	0.203430	0.416230
H401	H40	0.999470	0.169130	0.400830
C541	C54	0.208070	0.503930	0.354040
C551	C55	0.160870	0.445630	0.370150
C561	C56	0.189070	0.398330	0.378570
H411	H41	0.239370	0.404630	0.374530
C571	C57	0.143770	0.341730	0.392900
H421	H42	0.163070	0.309330	0.398630
C581	C58	0.070170	0.332430	0.398830
C591	C59	0.041870	0.379730	0.390410
H431	H43	0.991570	0.373430	0.394430
C601	C60	0.087270	0.436430	0.376070
H441	H44	0.067970	0.468730	0.370330
Zn51	Zn5	0.689820	0.251860	0.998370
Zn61	Zn6	0.436410	0.753440	0.817420
O171	O17	0.670930	0.241570	0.949900
O181	O18	0.715130	0.203570	0.976620
O191	O19	0.436730	0.747170	0.864870
O201	O20	0.514430	0.810270	0.838910
O211	O21	0.486330	0.710870	0.800320
O221	O22	0.409630	0.576970	0.802820
O231	O23	0.850230	0.886170	0.682480
O241	O24	0.935430	0.836470	0.680790
N51	N5	0.755830	0.991370	0.910140
N61	N6	0.687730	0.604970	0.747110
C611	C61	0.699630	0.201770	0.958570
C621	C62	0.713530	0.143370	0.946000
C631	C63	0.755130	0.107170	0.953510
H451	H45	0.774530	0.117670	0.966670
C641	C64	0.768430	0.055570	0.941720
H461	H46	0.796930	0.030870	0.946870
C651	C65	0.740130	0.040170	0.922400
C661	C66	0.698430	0.076370	0.914880
H471	H47	0.679030	0.065870	0.901670
C671	C67	0.685130	0.127970	0.926680
H481	H48	0.656630	0.152670	0.921570
C681	C68	0.824830	0.979570	0.912720
H491	H49	0.874730	0.030770	0.910670
H501	H50	0.821730	0.939870	0.903070
H511	H51	0.824330	0.960070	0.926170
C691	C69	0.503330	0.796270	0.856820
C701	C70	0.570330	0.849170	0.870090
C711	C71	0.646230	0.897170	0.863630
H521	H52	0.657630	0.896770	0.849970
C721	C72	0.708330	0.947070	0.876310
H531	H53	0.760530	0.983270	0.871270
C731	C73	0.693130	0.943170	0.895870
C741	C74	0.614730	0.894770	0.902800
H541	H54	0.601630	0.896070	0.916270
C751	C75	0.558830	0.846570	0.889840
H551	H55	0.507530	0.807870	0.894870
C761	C76	0.470330	0.639470	0.796510
C771	C77	0.531330	0.632070	0.783920
C781	C78	0.513530	0.556010	0.777500
H561	H56	0.465030	0.509770	0.781570
C791	C79	0.566730	0.547670	0.765110
H571	H57	0.554630	0.495770	0.760770
C801	C80	0.637730	0.615370	0.759140
C811	C81	0.655530	0.691370	0.765560
H581	H58	0.704030	0.737670	0.761470
C821	C82	0.602230	0.699720	0.777950
H591	H59	0.614430	0.751670	0.782370
C831	C83	0.685030	0.528270	0.747070
H601	H60	0.648030	0.493670	0.757370
H611	H61	0.739030	0.536770	0.749570
H621	H62	0.666130	0.502470	0.734170
C841	C84	0.874730	0.837270	0.687380
C851	C85	0.827530	0.778970	0.703490
C861	C86	0.855730	0.731670	0.711910
H631	H63	0.906030	0.737970	0.707870
C871	C87	0.810430	0.675070	0.726240
H641	H64	0.829730	0.642670	0.731970
C881	C88	0.736830	0.665770	0.732170
C891	C89	0.708530	0.713070	0.723750
H651	H65	0.658230	0.706770	0.727770
C901	C90	0.753930	0.769770	0.709410
H661	H66	0.734630	0.802070	0.703670
Zn71	Zn7	0.414810	0.771300	0.331710
Zn81	Zn8	0.913230	0.016310	0.150760
O251	O25	0.425100	0.762700	0.283230
O261	O26	0.463100	0.844900	0.309950
O271	O27	0.919500	0.022900	0.198200
O281	O28	0.856400	0.037500	0.172240
O291	O29	0.955800	0.108800	0.133650
O301	O30	0.089700	0.166000	0.136150
O311	O31	0.780500	0.297400	0.015810
O321	O32	0.830200	0.432300	0.014120
N71	N7	0.675300	0.097800	0.243470
N81	N8	0.061700	0.416100	0.080440
C911	C91	0.464900	0.831200	0.291900
C921	C92	0.523300	0.903500	0.279330
C931	C93	0.559500	0.981300	0.286840
H671	H67	0.549000	0.990200	0.300000
C941	C94	0.611100	0.046200	0.275050
H681	H68	0.635800	0.099400	0.280200
C951	C95	0.626500	0.033300	0.255730
C961	C96	0.590300	0.955400	0.248210
H691	H69	0.600800	0.946500	0.235000
C971	C97	0.538700	0.890500	0.260010
H701	H70	0.514000	0.837300	0.254900
C981	C98	0.687100	0.178600	0.246050
H711	H71	0.635900	0.177300	0.244000
H721	H72	0.726800	0.215200	0.236400
H731	H73	0.706600	0.197600	0.259500
C991	C99	0.870400	0.040400	0.190150
C1001	C100	0.817500	0.054500	0.203420
C1011	C101	0.769500	0.082400	0.196960
H741	H74	0.769900	0.094200	0.183300
C1021	C102	0.719600	0.094600	0.209640
H751	H75	0.683400	0.110600	0.204600
C1031	C103	0.723500	0.083300	0.229200
C1041	C104	0.771900	0.053300	0.236130
H761	H76	0.770600	0.038900	0.249600
C1051	C105	0.820100	0.045600	0.223170
H771	H77	0.858800	0.033000	0.228200
C1061	C106	0.027200	0.164200	0.129840
C1071	C107	0.034600	0.232600	0.117250
C1081	C108	0.110660	0.290860	0.110830
H781	H78	0.156900	0.288600	0.114900
C1091	C109	0.119000	0.352400	0.098440
H791	H79	0.170900	0.392200	0.094100
C1101	C110	0.051300	0.355700	0.092470
C1111	C111	0.975300	0.297500	0.098890
H801	H80	0.929000	0.299700	0.094800
C1121	C112	0.966950	0.235850	0.111280
H811	H81	0.915000	0.196100	0.115700
C1131	C113	0.138400	0.490100	0.080400
H821	H82	0.173000	0.487700	0.090700
H831	H83	0.129900	0.535600	0.082900
H841	H84	0.164200	0.497000	0.067500
C1141	C114	0.829400	0.370800	0.020710
C1151	C115	0.887700	0.381900	0.036820
C1161	C116	0.935000	0.457400	0.045240
H851	H85	0.928700	0.501400	0.041200
C1171	C117	0.991600	0.468700	0.059570
H861	H86	0.024000	0.520400	0.065300
C1181	C118	0.000900	0.404400	0.065500
C1191	C119	0.953600	0.328800	0.057080
H871	H87	0.959900	0.284800	0.061100
C1201	C120	0.896900	0.317500	0.042740
H881	H88	0.864600	0.265900	0.037000
Zn91	Zn9	0.081480	0.104630	0.665040
Zn101	Zn10	0.579900	0.349640	0.484090
O331	O33	0.091770	0.096030	0.616560
O341	O34	0.129770	0.178230	0.643280
O351	O35	0.586170	0.356230	0.531530
O361	O36	0.523070	0.370830	0.505570
O371	O37	0.622470	0.442130	0.466980
O381	O38	0.756370	0.499330	0.469480
O391	O39	0.447170	0.630730	0.349140
O401	O40	0.496870	0.765630	0.347450
N91	N9	0.341970	0.431130	0.576800
N101	N10	0.728370	0.749430	0.413770
C1211	C121	0.131570	0.164530	0.625230
C1221	C122	0.189970	0.236830	0.612660
C1231	C123	0.226170	0.314630	0.620170
H891	H89	0.215670	0.323530	0.633330
C1241	C124	0.277770	0.379530	0.608380
H901	H90	0.302470	0.432730	0.613530
C1251	C125	0.293170	0.366630	0.589060
C1261	C126	0.256970	0.288730	0.581540
H911	H91	0.267470	0.279830	0.568330
C1271	C127	0.205370	0.223830	0.593340
H921	H92	0.180670	0.170630	0.588230
C1281	C128	0.353770	0.511930	0.579380
H931	H93	0.302570	0.510630	0.577330
H941	H94	0.393470	0.548530	0.569730
H951	H95	0.373270	0.530930	0.592830
C1291	C129	0.537070	0.373730	0.523480
C1301	C130	0.484170	0.387830	0.536750
C1311	C131	0.436170	0.415730	0.530290
H961	H96	0.436570	0.427530	0.516630
C1321	C132	0.386270	0.427930	0.542970
H971	H97	0.350070	0.443930	0.537930
C1331	C133	0.390170	0.416630	0.562530
C1341	C134	0.438570	0.386630	0.569460
H981	H98	0.437270	0.372230	0.582930
C1351	C135	0.486770	0.378930	0.556500
H991	H99	0.525470	0.366330	0.561530
C1361	C136	0.693870	0.497530	0.463170
C1371	C137	0.701270	0.565930	0.450580
C1381	C138	0.777330	0.624190	0.444160
H1001	H100	0.823570	0.621930	0.448230
C1391	C139	0.785670	0.685730	0.431770
H1011	H101	0.837570	0.725530	0.427430
C1401	C140	0.717970	0.689030	0.425800
C1411	C141	0.641970	0.630830	0.432220
H1021	H102	0.595670	0.633030	0.428130
C1421	C142	0.633620	0.569180	0.444610
H1031	H103	0.581670	0.529430	0.449030
C1431	C143	0.805070	0.823430	0.413730
H1041	H104	0.839670	0.821030	0.424030
H1051	H105	0.796570	0.868930	0.416230
H1061	H106	0.830870	0.830330	0.400830
C1441	C144	0.496070	0.704130	0.354040
C1451	C145	0.554370	0.715230	0.370150
C1461	C146	0.601670	0.790730	0.378570
H1071	H107	0.595370	0.834730	0.374530
C1471	C147	0.658270	0.802030	0.392900
H1081	H108	0.690670	0.853730	0.398630
C1481	C148	0.667570	0.737730	0.398830
C1491	C149	0.620270	0.662130	0.390410
H1091	H109	0.626570	0.618130	0.394430
C1501	C150	0.563570	0.650830	0.376070
H1101	H110	0.531270	0.599230	0.370330
Zn111	Zn11	0.748140	0.437970	0.998370
Zn121	Zn12	0.246560	0.682980	0.817420
O411	O41	0.758430	0.429370	0.949900
O421	O42	0.796430	0.511570	0.976620
O431	O43	0.252830	0.689570	0.864870
O441	O44	0.189730	0.704170	0.838910
O451	O45	0.289130	0.775470	0.800320
O461	O46	0.423030	0.832670	0.802820
O471	O47	0.113830	0.964070	0.682480
O481	O48	0.163530	0.098970	0.680790
N111	N11	0.008630	0.764470	0.910140
N121	N12	0.395030	0.082770	0.747110
C1511	C151	0.798230	0.497870	0.958570
C1521	C152	0.856630	0.570170	0.946000
C1531	C153	0.892830	0.647970	0.953510
H1111	H111	0.882330	0.656870	0.966670
C1541	C154	0.944430	0.712870	0.941720
H1121	H112	0.969130	0.766070	0.946870
C1551	C155	0.959830	0.699970	0.922400
C1561	C156	0.923630	0.622070	0.914880
H1131	H113	0.934130	0.613170	0.901670
C1571	C157	0.872030	0.557170	0.926680
H1141	H114	0.847330	0.503970	0.921570
C1581	C158	0.020430	0.845270	0.912720
H1151	H115	0.969230	0.843970	0.910670
H1161	H116	0.060130	0.881870	0.903070
H1171	H117	0.039930	0.864270	0.926170
C1591	C159	0.203730	0.707070	0.856820
C1601	C160	0.150830	0.721170	0.870090
C1611	C161	0.102830	0.749070	0.863630
H1181	H118	0.103230	0.760870	0.849970
C1621	C162	0.052930	0.761270	0.876310
H1191	H119	0.016730	0.777270	0.871270
C1631	C163	0.056830	0.749970	0.895870
C1641	C164	0.105230	0.719970	0.902800
H1201	H120	0.103930	0.705570	0.916270
C1651	C165	0.153430	0.712270	0.889840
H1211	H121	0.192130	0.699670	0.894870
C1661	C166	0.360530	0.830870	0.796510
C1671	C167	0.367930	0.899270	0.783920
C1681	C168	0.443990	0.957530	0.777500
H1221	H122	0.490230	0.955270	0.781570
C1691	C169	0.452330	0.019070	0.765110
H1231	H123	0.504230	0.058870	0.760770
C1701	C170	0.384630	0.022370	0.759140
C1711	C171	0.308630	0.964170	0.765560
H1241	H124	0.262330	0.966370	0.761470
C1721	C172	0.300280	0.902520	0.777950
H1251	H125	0.248330	0.862770	0.782370
C1731	C173	0.471730	0.156770	0.747070
H1261	H126	0.506330	0.154370	0.757370
H1271	H127	0.463230	0.202270	0.749570
H1281	H128	0.497530	0.163670	0.734170
C1741	C174	0.162730	0.037470	0.687380
C1751	C175	0.221030	0.048570	0.703490
C1761	C176	0.268330	0.124070	0.711910
H1291	H129	0.262030	0.168070	0.707870
C1771	C177	0.324930	0.135370	0.726240
H1301	H130	0.357330	0.187070	0.731970
C1781	C178	0.334230	0.071070	0.732170
C1791	C179	0.286930	0.995470	0.723750
H1311	H131	0.293230	0.951470	0.727770
C1801	C180	0.230230	0.984170	0.709410
H1321	H132	0.197930	0.932570	0.703670
Zn131	Zn13	0.228700	0.643510	0.331710
Zn141	Zn14	0.983690	0.896920	0.150760
O491	O49	0.237300	0.662400	0.283230
O501	O50	0.155100	0.618200	0.309950
O511	O51	0.977100	0.896600	0.198200
O521	O52	0.962500	0.818900	0.172240
O531	O53	0.891200	0.847000	0.133650
O541	O54	0.834000	0.923700	0.136150
O551	O55	0.702600	0.483100	0.015810
O561	O56	0.567700	0.397900	0.014120
N131	N13	0.902200	0.577500	0.243470
N141	N14	0.583900	0.645600	0.080440
C1811	C181	0.168800	0.633700	0.291900
C1821	C182	0.096500	0.619800	0.279330
C1831	C183	0.018700	0.578200	0.286840
H1331	H133	0.009800	0.558800	0.300000
C1841	C184	0.953800	0.564900	0.275050
H1341	H134	0.900600	0.536400	0.280200
C1851	C185	0.966700	0.593200	0.255730
C1861	C186	0.044600	0.634900	0.248210
H1351	H135	0.053500	0.654300	0.235000
C1871	C187	0.109500	0.648200	0.260010
H1361	H136	0.162700	0.676700	0.254900
C1881	C188	0.821400	0.508500	0.246050
H1371	H137	0.822700	0.458600	0.244000
H1381	H138	0.784800	0.511600	0.236400
H1391	H139	0.802400	0.509000	0.259500
C1891	C189	0.959600	0.830000	0.190150
C1901	C190	0.945500	0.763000	0.203420
C1911	C191	0.917600	0.687100	0.196960
H1401	H140	0.905800	0.675700	0.183300
C1921	C192	0.905400	0.625000	0.209640
H1411	H141	0.889400	0.572800	0.204600
C1931	C193	0.916700	0.640200	0.229200
C1941	C194	0.946700	0.718600	0.236130
H1421	H142	0.961100	0.731700	0.249600
C1951	C195	0.954400	0.774500	0.223170
H1431	H143	0.967000	0.825800	0.228200
C1961	C196	0.835800	0.863000	0.129840
C1971	C197	0.767400	0.802000	0.117250
C1981	C198	0.709140	0.819800	0.110830
H1441	H144	0.711400	0.868300	0.114900
C1991	C199	0.647600	0.766600	0.098440
H1451	H145	0.607800	0.778700	0.094100
C2001	C200	0.644300	0.695600	0.092470
C2011	C201	0.702500	0.677800	0.098890
H1461	H146	0.700300	0.629300	0.094800
C2021	C202	0.764150	0.731100	0.111280
H1471	H147	0.803900	0.718900	0.115700
C2031	C203	0.509900	0.648300	0.080400
H1481	H148	0.512300	0.685300	0.090700
H1491	H149	0.464400	0.594300	0.082900
H1501	H150	0.503000	0.667200	0.067500
C2041	C204	0.629200	0.458600	0.020710
C2051	C205	0.618100	0.505800	0.036820
C2061	C206	0.542600	0.477600	0.045240
H1511	H151	0.498600	0.427300	0.041200
C2071	C207	0.531300	0.522900	0.059570
H1521	H152	0.479600	0.503600	0.065300
C2081	C208	0.595600	0.596500	0.065500
C2091	C209	0.671200	0.624800	0.057080
H1531	H153	0.715200	0.675100	0.061100
C2101	C210	0.682500	0.579400	0.042740
H1541	H154	0.734100	0.598700	0.037000
Zn151	Zn15	0.895370	0.976840	0.665040
Zn161	Zn16	0.650360	0.230250	0.484090
O571	O57	0.903970	0.995730	0.616560
O581	O58	0.821770	0.951530	0.643280
O591	O59	0.643770	0.229930	0.531530
O601	O60	0.629170	0.152230	0.505570
O611	O61	0.557870	0.180330	0.466980
O621	O62	0.500670	0.257030	0.469480
O631	O63	0.369270	0.816430	0.349140
O641	O64	0.234370	0.731230	0.347450
N151	N15	0.568870	0.910830	0.576800
N161	N16	0.250570	0.978930	0.413770
C2111	C211	0.835470	0.967030	0.625230
C2121	C212	0.763170	0.953130	0.612660
C2131	C213	0.685370	0.911530	0.620170
H1551	H155	0.676470	0.892130	0.633330
C2141	C214	0.620470	0.898230	0.608380
H1561	H156	0.567270	0.869730	0.613530
C2151	C215	0.633370	0.926530	0.589060
C2161	C216	0.711270	0.968230	0.581540
H1571	H157	0.720170	0.987630	0.568330
C2171	C217	0.776170	0.981530	0.593340
H1581	H158	0.829370	0.010030	0.588230
C2181	C218	0.488070	0.841830	0.579380
H1591	H159	0.489370	0.791930	0.577330
H1601	H160	0.451470	0.844930	0.569730
H1611	H161	0.469070	0.842330	0.592830
C2191	C219	0.626270	0.163330	0.523480
C2201	C220	0.612170	0.096330	0.536750
C2211	C221	0.584270	0.020430	0.530290
H1621	H162	0.572470	0.009030	0.516630
C2221	C222	0.572070	0.958330	0.542970
H1631	H163	0.556070	0.906130	0.537930
C2231	C223	0.583370	0.973530	0.562530
C2241	C224	0.613370	0.051930	0.569460
H1641	H164	0.627770	0.065030	0.582930
C2251	C225	0.621070	0.107830	0.556500
H1651	H165	0.633670	0.159130	0.561530
C2261	C226	0.502470	0.196330	0.463170
C2271	C227	0.434070	0.135330	0.450580
C2281	C228	0.375810	0.153130	0.444160
H1661	H166	0.378070	0.201630	0.448230
C2291	C229	0.314270	0.099930	0.431770
H1671	H167	0.274470	0.112030	0.427430
C2301	C230	0.310970	0.028930	0.425800
C2311	C231	0.369170	0.011130	0.432220
H1681	H168	0.366970	0.962630	0.428130
C2321	C232	0.430820	0.064430	0.444610
H1691	H169	0.470570	0.052230	0.449030
C2331	C233	0.176570	0.981630	0.413730
H1701	H170	0.178970	0.018630	0.424030
H1711	H171	0.131070	0.927630	0.416230
H1721	H172	0.169670	0.000530	0.400830
C2341	C234	0.295870	0.791930	0.354040
C2351	C235	0.284770	0.839130	0.370150
C2361	C236	0.209270	0.810930	0.378570
H1731	H173	0.165270	0.760630	0.374530
C2371	C237	0.197970	0.856230	0.392900
H1741	H174	0.146270	0.836930	0.398630
C2381	C238	0.262270	0.929830	0.398830
C2391	C239	0.337870	0.958130	0.390410
H1751	H175	0.381870	0.008430	0.394430
C2401	C240	0.349170	0.912730	0.376070
H1761	H176	0.400770	0.932030	0.370330
Zn171	Zn17	0.562030	0.310180	0.998370
Zn181	Zn18	0.317020	0.563590	0.817420
O651	O65	0.570630	0.329070	0.949900
O661	O66	0.488430	0.284870	0.976620
O671	O67	0.310430	0.563270	0.864870
O681	O68	0.295830	0.485570	0.838910
O691	O69	0.224530	0.513670	0.800320
O701	O70	0.167330	0.590370	0.802820
O711	O71	0.035930	0.149770	0.682480
O721	O72	0.901030	0.064570	0.680790
N171	N17	0.235530	0.244170	0.910140
N181	N18	0.917230	0.312270	0.747110
C2411	C241	0.502130	0.300370	0.958570
C2421	C242	0.429830	0.286470	0.946000
C2431	C243	0.352030	0.244870	0.953510
H1771	H177	0.343130	0.225470	0.966670
C2441	C244	0.287130	0.231570	0.941720
H1781	H178	0.233930	0.203070	0.946870
C2451	C245	0.300030	0.259870	0.922400
C2461	C246	0.377930	0.301570	0.914880
H1791	H179	0.386830	0.320970	0.901670
C2471	C247	0.442830	0.314870	0.926680
H1801	H180	0.496030	0.343370	0.921570
C2481	C248	0.154730	0.175170	0.912720
H1811	H181	0.156030	0.125270	0.910670
H1821	H182	0.118130	0.178270	0.903070
H1831	H183	0.135730	0.175670	0.926170
C2491	C249	0.292930	0.496670	0.856820
C2501	C250	0.278830	0.429670	0.870090
C2511	C251	0.250930	0.353770	0.863630
H1841	H184	0.239130	0.342370	0.849970
C2521	C252	0.238730	0.291670	0.876310
H1851	H185	0.222730	0.239470	0.871270
C2531	C253	0.250030	0.306870	0.895870
C2541	C254	0.280030	0.385270	0.902800
H1861	H186	0.294430	0.398370	0.916270
C2551	C255	0.287730	0.441170	0.889840
H1871	H187	0.300330	0.492470	0.894870
C2561	C256	0.169130	0.529670	0.796510
C2571	C257	0.100730	0.468670	0.783920
C2581	C258	0.042470	0.486470	0.777500
H1881	H188	0.044730	0.534970	0.781570
C2591	C259	0.980930	0.433270	0.765110
H1891	H189	0.941130	0.445370	0.760770
C2601	C260	0.977630	0.362270	0.759140
C2611	C261	0.035830	0.344470	0.765560
H1901	H190	0.033630	0.295970	0.761470
C2621	C262	0.097480	0.397770	0.777950
H1911	H191	0.137230	0.385570	0.782370
C2631	C263	0.843230	0.314970	0.747070
H1921	H192	0.845630	0.351970	0.757370
H1931	H193	0.797730	0.260970	0.749570
H1941	H194	0.836330	0.333870	0.734170
C2641	C264	0.962530	0.125270	0.687380
C2651	C265	0.951430	0.172470	0.703490
C2661	C266	0.875930	0.144270	0.711910
H1951	H195	0.831930	0.093970	0.707870
C2671	C267	0.864630	0.189570	0.726240
H1961	H196	0.812930	0.170270	0.731970
C2681	C268	0.928930	0.263170	0.732170
C2691	C269	0.004530	0.291470	0.723750
H1971	H197	0.048530	0.341770	0.727770
C2701	C270	0.015830	0.246070	0.709410
H1981	H198	0.067430	0.265370	0.703670
Zn191	Zn19	0.333330	0.666670	0.293480
O731	O73	0.333330	0.666670	0.321890
Zn201	Zn20	0.000000	0.000000	0.626810
O741	O74	0.000000	0.000000	0.655220
Zn211	Zn21	0.666670	0.333330	0.960140
O751	O75	0.666670	0.333330	0.988560
Zn221	Zn22	0.000000	0.000000	0.188450
O761	O76	0.000000	0.000000	0.159840
Zn231	Zn23	0.666670	0.333330	0.521790
O771	O77	0.666670	0.333330	0.493170
Zn241	Zn24	0.333330	0.666670	0.855120
O781	O78	0.333330	0.666670	0.826510
Zn251	Zn25	0.585190	0.356490	0.668290
Zn261	Zn26	0.086770	0.103080	0.849240
O791	O79	0.574900	0.337600	0.716770
O801	O80	0.536900	0.381800	0.690050
O811	O81	0.080500	0.103400	0.801800
O821	O82	0.143600	0.181100	0.827760
O831	O83	0.044200	0.153000	0.866350
O841	O84	0.910300	0.076300	0.863850
O851	O85	0.219500	0.516900	0.984190
O861	O86	0.169800	0.602100	0.985880
N191	N19	0.324700	0.422500	0.756530
N201	N20	0.938300	0.354400	0.919560
C2711	C271	0.535100	0.366300	0.708100
C2721	C272	0.476700	0.380200	0.720670
C2731	C273	0.440500	0.421800	0.713160
H1991	H199	0.451000	0.441200	0.700000
C2741	C274	0.388900	0.435100	0.724950
H2001	H200	0.364200	0.463600	0.719800
C2751	C275	0.373500	0.406800	0.744270
C2761	C276	0.409700	0.365100	0.751790
H2011	H201	0.399200	0.345700	0.765000
C2771	C277	0.461300	0.351800	0.739990
H2021	H202	0.486000	0.323300	0.745100
C2781	C278	0.312900	0.491500	0.753950
H2031	H203	0.364100	0.541400	0.756000
H2041	H204	0.273200	0.488400	0.763600
H2051	H205	0.293400	0.491000	0.740500
C2791	C279	0.129600	0.170000	0.809850
C2801	C280	0.182500	0.237000	0.796580
C2811	C281	0.230500	0.312900	0.803040
H2061	H206	0.230100	0.324300	0.816700
C2821	C282	0.280400	0.375000	0.790360
H2071	H207	0.316600	0.427200	0.795400
C2831	C283	0.276500	0.359800	0.770800
C2841	C284	0.228100	0.281400	0.763870
H2081	H208	0.229400	0.268300	0.750400
C2851	C285	0.179900	0.225500	0.776830
H2091	H209	0.141200	0.174200	0.771800
C2861	C286	0.972800	0.137000	0.870160
C2871	C287	0.965400	0.198000	0.882750
C2881	C288	0.889340	0.180200	0.889170
H2101	H210	0.843100	0.131700	0.885100
C2891	C289	0.881000	0.233400	0.901560
H2111	H211	0.829100	0.221300	0.905900
C2901	C290	0.948700	0.304400	0.907530
C2911	C291	0.024700	0.322200	0.901110
H2121	H212	0.071000	0.370700	0.905200
C2921	C292	0.033050	0.268900	0.888720
H2131	H213	0.085000	0.281100	0.884300
C2931	C293	0.861600	0.351700	0.919600
H2141	H214	0.827000	0.314700	0.909300
H2151	H215	0.870100	0.405700	0.917100
H2161	H216	0.835800	0.332800	0.932500
C2941	C294	0.170600	0.541400	0.979290
C2951	C295	0.112300	0.494200	0.963180
C2961	C296	0.065000	0.522400	0.954760
H2171	H217	0.071300	0.572700	0.958800
C2971	C297	0.008400	0.477100	0.940430
H2181	H218	0.976000	0.496400	0.934700
C2981	C298	0.999100	0.403500	0.934500
C2991	C299	0.046400	0.375200	0.942920
H2191	H219	0.040100	0.324900	0.938900
C3001	C300	0.103100	0.420600	0.957260
H2201	H220	0.135400	0.401300	0.963000
Zn271	Zn27	0.251860	0.689820	0.001630
Zn281	Zn28	0.753440	0.436410	0.182580
O871	O87	0.241570	0.670930	0.050100
O881	O88	0.203570	0.715130	0.023380
O891	O89	0.747170	0.436730	0.135130
O901	O90	0.810270	0.514430	0.161090
O911	O91	0.710870	0.486330	0.199680
O921	O92	0.576970	0.409630	0.197180
O931	O93	0.886170	0.850230	0.317520
O941	O94	0.836470	0.935430	0.319210
N211	N21	0.991370	0.755830	0.089860
N221	N22	0.604970	0.687730	0.252890
C3011	C301	0.201770	0.699630	0.041430
C3021	C302	0.143370	0.713530	0.054000
C3031	C303	0.107170	0.755130	0.046490
H2211	H221	0.117670	0.774530	0.033330
C3041	C304	0.055570	0.768430	0.058280
H2221	H222	0.030870	0.796930	0.053130
C3051	C305	0.040170	0.740130	0.077600
C3061	C306	0.076370	0.698430	0.085120
H2231	H223	0.065870	0.679030	0.098330
C3071	C307	0.127970	0.685130	0.073320
H2241	H224	0.152670	0.656630	0.078430
C3081	C308	0.979570	0.824830	0.087280
H2251	H225	0.030770	0.874730	0.089330
H2261	H226	0.939870	0.821730	0.096930
H2271	H227	0.960070	0.824330	0.073830
C3091	C309	0.796270	0.503330	0.143180
C3101	C310	0.849170	0.570330	0.129910
C3111	C311	0.897170	0.646230	0.136370
H2281	H228	0.896770	0.657630	0.150030
C3121	C312	0.947070	0.708330	0.123690
H2291	H229	0.983270	0.760530	0.128730
C3131	C313	0.943170	0.693130	0.104130
C3141	C314	0.894770	0.614730	0.097200
H2301	H230	0.896070	0.601630	0.083730
C3151	C315	0.846570	0.558830	0.110160
H2311	H231	0.807870	0.507530	0.105130
C3161	C316	0.639470	0.470330	0.203490
C3171	C317	0.632070	0.531330	0.216080
C3181	C318	0.556010	0.513530	0.222500
H2321	H232	0.509770	0.465030	0.218430
C3191	C319	0.547670	0.566730	0.234890
H2331	H233	0.495770	0.554630	0.239230
C3201	C320	0.615370	0.637730	0.240860
C3211	C321	0.691370	0.655530	0.234440
H2341	H234	0.737670	0.704030	0.238530
C3221	C322	0.699720	0.602230	0.222050
H2351	H235	0.751670	0.614430	0.217630
C3231	C323	0.528270	0.685030	0.252930
H2361	H236	0.493670	0.648030	0.242630
H2371	H237	0.536770	0.739030	0.250430
H2381	H238	0.502470	0.666130	0.265830
C3241	C324	0.837270	0.874730	0.312620
C3251	C325	0.778970	0.827530	0.296510
C3261	C326	0.731670	0.855730	0.288090
H2391	H239	0.737970	0.906030	0.292130
C3271	C327	0.675070	0.810430	0.273760
H2401	H240	0.642670	0.829730	0.268030
C3281	C328	0.665770	0.736830	0.267830
C3291	C329	0.713070	0.708530	0.276250
H2411	H241	0.706770	0.658230	0.272230
C3301	C330	0.769770	0.753930	0.290590
H2421	H242	0.802070	0.734630	0.296330
Zn291	Zn29	0.918520	0.023160	0.334960
Zn301	Zn30	0.420100	0.769750	0.515910
O951	O95	0.908230	0.004270	0.383440
O961	O96	0.870230	0.048470	0.356720
O971	O97	0.413830	0.770070	0.468470
O981	O98	0.476930	0.847770	0.494430
O991	O99	0.377530	0.819670	0.533020
O1001	O100	0.243630	0.742970	0.530520
O1011	O101	0.552830	0.183570	0.650860
O1021	O102	0.503130	0.268770	0.652550
N231	N23	0.658030	0.089170	0.423200
N241	N24	0.271630	0.021070	0.586230
C3311	C331	0.868430	0.032970	0.374770
C3321	C332	0.810030	0.046870	0.387340
C3331	C333	0.773830	0.088470	0.379830
H2431	H243	0.784330	0.107870	0.366670
C3341	C334	0.722230	0.101770	0.391620
H2441	H244	0.697530	0.130270	0.386470
C3351	C335	0.706830	0.073470	0.410940
C3361	C336	0.743030	0.031770	0.418460
H2451	H245	0.732530	0.012370	0.431670
C3371	C337	0.794630	0.018470	0.406660
H2461	H246	0.819330	0.989970	0.411770
C3381	C338	0.646230	0.158170	0.420620
H2471	H247	0.697430	0.208070	0.422670
H2481	H248	0.606530	0.155070	0.430270
H2491	H249	0.626730	0.157670	0.407170
C3391	C339	0.462930	0.836670	0.476520
C3401	C340	0.515830	0.903670	0.463250
C3411	C341	0.563830	0.979570	0.469710
H2501	H250	0.563430	0.990970	0.483370
C3421	C342	0.613730	0.041670	0.457030
H2511	H251	0.649930	0.093870	0.462070
C3431	C343	0.609830	0.026470	0.437470
C3441	C344	0.561430	0.948070	0.430540
H2521	H252	0.562730	0.934970	0.417070
C3451	C345	0.513230	0.892170	0.443500
H2531	H253	0.474530	0.840870	0.438470
C3461	C346	0.306130	0.803670	0.536830
C3471	C347	0.298730	0.864670	0.549420
C3481	C348	0.222670	0.846870	0.555840
H2541	H254	0.176430	0.798370	0.551770
C3491	C349	0.214330	0.900070	0.568230
H2551	H255	0.162430	0.887970	0.572570
C3501	C350	0.282030	0.971070	0.574200
C3511	C351	0.358030	0.988870	0.567780
H2561	H256	0.404330	0.037370	0.571870
C3521	C352	0.366380	0.935570	0.555390
H2571	H257	0.418330	0.947770	0.550970
C3531	C353	0.194930	0.018370	0.586270
H2581	H258	0.160330	0.981370	0.575970
H2591	H259	0.203430	0.072370	0.583770
H2601	H260	0.169130	0.999470	0.599170
C3541	C354	0.503930	0.208070	0.645960
C3551	C355	0.445630	0.160870	0.629850
C3561	C356	0.398330	0.189070	0.621430
H2611	H261	0.404630	0.239370	0.625470
C3571	C357	0.341730	0.143770	0.607100
H2621	H262	0.309330	0.163070	0.601370
C3581	C358	0.332430	0.070170	0.601170
C3591	C359	0.379730	0.041870	0.609590
H2631	H263	0.373430	0.991570	0.605570
C3601	C360	0.436430	0.087270	0.623930
H2641	H264	0.468730	0.067970	0.629670
Zn311	Zn31	0.771300	0.414810	0.668290
Zn321	Zn32	0.016310	0.913230	0.849240
O1031	O103	0.762700	0.425100	0.716770
O1041	O104	0.844900	0.463100	0.690050
O1051	O105	0.022900	0.919500	0.801800
O1061	O106	0.037500	0.856400	0.827760
O1071	O107	0.108800	0.955800	0.866350
O1081	O108	0.166000	0.089700	0.863850
O1091	O109	0.297400	0.780500	0.984190
O1101	O110	0.432300	0.830200	0.985880
N251	N25	0.097800	0.675300	0.756530
N261	N26	0.416100	0.061700	0.919560
C3611	C361	0.831200	0.464900	0.708100
C3621	C362	0.903500	0.523300	0.720670
C3631	C363	0.981300	0.559500	0.713160
H2651	H265	0.990200	0.549000	0.700000
C3641	C364	0.046200	0.611100	0.724950
H2661	H266	0.099400	0.635800	0.719800
C3651	C365	0.033300	0.626500	0.744270
C3661	C366	0.955400	0.590300	0.751790
H2671	H267	0.946500	0.600800	0.765000
C3671	C367	0.890500	0.538700	0.739990
H2681	H268	0.837300	0.514000	0.745100
C3681	C368	0.178600	0.687100	0.753950
H2691	H269	0.177300	0.635900	0.756000
H2701	H270	0.215200	0.726800	0.763600
H2711	H271	0.197600	0.706600	0.740500
C3691	C369	0.040400	0.870400	0.809850
C3701	C370	0.054500	0.817500	0.796580
C3711	C371	0.082400	0.769500	0.803040
H2721	H272	0.094200	0.769900	0.816700
C3721	C372	0.094600	0.719600	0.790360
H2731	H273	0.110600	0.683400	0.795400
C3731	C373	0.083300	0.723500	0.770800
C3741	C374	0.053300	0.771900	0.763870
H2741	H274	0.038900	0.770600	0.750400
C3751	C375	0.045600	0.820100	0.776830
H2751	H275	0.033000	0.858800	0.771800
C3761	C376	0.164200	0.027200	0.870160
C3771	C377	0.232600	0.034600	0.882750
C3781	C378	0.290860	0.110660	0.889170
H2761	H276	0.288600	0.156900	0.885100
C3791	C379	0.352400	0.119000	0.901560
H2771	H277	0.392200	0.170900	0.905900
C3801	C380	0.355700	0.051300	0.907530
C3811	C381	0.297500	0.975300	0.901110
H2781	H278	0.299700	0.929000	0.905200
C3821	C382	0.235850	0.966950	0.888720
H2791	H279	0.196100	0.915000	0.884300
C3831	C383	0.490100	0.138400	0.919600
H2801	H280	0.487700	0.173000	0.909300
H2811	H281	0.535600	0.129900	0.917100
H2821	H282	0.497000	0.164200	0.932500
C3841	C384	0.370800	0.829400	0.979290
C3851	C385	0.381900	0.887700	0.963180
C3861	C386	0.457400	0.935000	0.954760
H2831	H283	0.501400	0.928700	0.958800
C3871	C387	0.468700	0.991600	0.940430
H2841	H284	0.520400	0.024000	0.934700
C3881	C388	0.404400	0.000900	0.934500
C3891	C389	0.328800	0.953600	0.942920
H2851	H285	0.284800	0.959900	0.938900
C3901	C390	0.317500	0.896900	0.957260
H2861	H286	0.265900	0.864600	0.963000
Zn331	Zn33	0.437970	0.748140	0.001630
Zn341	Zn34	0.682980	0.246560	0.182580
O1111	O111	0.429370	0.758430	0.050100
O1121	O112	0.511570	0.796430	0.023380
O1131	O113	0.689570	0.252830	0.135130
O1141	O114	0.704170	0.189730	0.161090
O1151	O115	0.775470	0.289130	0.199680
O1161	O116	0.832670	0.423030	0.197180
O1171	O117	0.964070	0.113830	0.317520
O1181	O118	0.098970	0.163530	0.319210
N271	N27	0.764470	0.008630	0.089860
N281	N28	0.082770	0.395030	0.252890
C3911	C391	0.497870	0.798230	0.041430
C3921	C392	0.570170	0.856630	0.054000
C3931	C393	0.647970	0.892830	0.046490
H2871	H287	0.656870	0.882330	0.033330
C3941	C394	0.712870	0.944430	0.058280
H2881	H288	0.766070	0.969130	0.053130
C3951	C395	0.699970	0.959830	0.077600
C3961	C396	0.622070	0.923630	0.085120
H2891	H289	0.613170	0.934130	0.098330
C3971	C397	0.557170	0.872030	0.073320
H2901	H290	0.503970	0.847330	0.078430
C3981	C398	0.845270	0.020430	0.087280
H2911	H291	0.843970	0.969230	0.089330
H2921	H292	0.881870	0.060130	0.096930
H2931	H293	0.864270	0.039930	0.073830
C3991	C399	0.707070	0.203730	0.143180
C4001	C400	0.721170	0.150830	0.129910
C4011	C401	0.749070	0.102830	0.136370
H2941	H294	0.760870	0.103230	0.150030
C4021	C402	0.761270	0.052930	0.123690
H2951	H295	0.777270	0.016730	0.128730
C4031	C403	0.749970	0.056830	0.104130
C4041	C404	0.719970	0.105230	0.097200
H2961	H296	0.705570	0.103930	0.083730
C4051	C405	0.712270	0.153430	0.110160
H2971	H297	0.699670	0.192130	0.105130
C4061	C406	0.830870	0.360530	0.203490
C4071	C407	0.899270	0.367930	0.216080
C4081	C408	0.957530	0.443990	0.222500
H2981	H298	0.955270	0.490230	0.218430
C4091	C409	0.019070	0.452330	0.234890
H2991	H299	0.058870	0.504230	0.239230
C4101	C410	0.022370	0.384630	0.240860
C4111	C411	0.964170	0.308630	0.234440
H3001	H300	0.966370	0.262330	0.238530
C4121	C412	0.902520	0.300280	0.222050
H3011	H301	0.862770	0.248330	0.217630
C4131	C413	0.156770	0.471730	0.252930
H3021	H302	0.154370	0.506330	0.242630
H3031	H303	0.202270	0.463230	0.250430
H3041	H304	0.163670	0.497530	0.265830
C4141	C414	0.037470	0.162730	0.312620
C4151	C415	0.048570	0.221030	0.296510
C4161	C416	0.124070	0.268330	0.288090
H3051	H305	0.168070	0.262030	0.292130
C4171	C417	0.135370	0.324930	0.273760
H3061	H306	0.187070	0.357330	0.268030
C4181	C418	0.071070	0.334230	0.267830
C4191	C419	0.995470	0.286930	0.276250
H3071	H307	0.951470	0.293230	0.272230
C4201	C420	0.984170	0.230230	0.290590
H3081	H308	0.932570	0.197930	0.296330
Zn351	Zn35	0.104630	0.081480	0.334960
Zn361	Zn36	0.349640	0.579900	0.515910
O1191	O119	0.096030	0.091770	0.383440
O1201	O120	0.178230	0.129770	0.356720
O1211	O121	0.356230	0.586170	0.468470
O1221	O122	0.370830	0.523070	0.494430
O1231	O123	0.442130	0.622470	0.533020
O1241	O124	0.499330	0.756370	0.530520
O1251	O125	0.630730	0.447170	0.650860
O1261	O126	0.765630	0.496870	0.652550
N291	N29	0.431130	0.341970	0.423200
N301	N30	0.749430	0.728370	0.586230
C4211	C421	0.164530	0.131570	0.374770
C4221	C422	0.236830	0.189970	0.387340
C4231	C423	0.314630	0.226170	0.379830
H3091	H309	0.323530	0.215670	0.366670
C4241	C424	0.379530	0.277770	0.391620
H3101	H310	0.432730	0.302470	0.386470
C4251	C425	0.366630	0.293170	0.410940
C4261	C426	0.288730	0.256970	0.418460
H3111	H311	0.279830	0.267470	0.431670
C4271	C427	0.223830	0.205370	0.406660
H3121	H312	0.170630	0.180670	0.411770
C4281	C428	0.511930	0.353770	0.420620
H3131	H313	0.510630	0.302570	0.422670
H3141	H314	0.548530	0.393470	0.430270
H3151	H315	0.530930	0.373270	0.407170
C4291	C429	0.373730	0.537070	0.476520
C4301	C430	0.387830	0.484170	0.463250
C4311	C431	0.415730	0.436170	0.469710
H3161	H316	0.427530	0.436570	0.483370
C4321	C432	0.427930	0.386270	0.457030
H3171	H317	0.443930	0.350070	0.462070
C4331	C433	0.416630	0.390170	0.437470
C4341	C434	0.386630	0.438570	0.430540
H3181	H318	0.372230	0.437270	0.417070
C4351	C435	0.378930	0.486770	0.443500
H3191	H319	0.366330	0.525470	0.438470
C4361	C436	0.497530	0.693870	0.536830
C4371	C437	0.565930	0.701270	0.549420
C4381	C438	0.624190	0.777330	0.555840
H3201	H320	0.621930	0.823570	0.551770
C4391	C439	0.685730	0.785670	0.568230
H3211	H321	0.725530	0.837570	0.572570
C4401	C440	0.689030	0.717970	0.574200
C4411	C441	0.630830	0.641970	0.567780
H3221	H322	0.633030	0.595670	0.571870
C4421	C442	0.569180	0.633620	0.555390
H3231	H323	0.529430	0.581670	0.550970
C4431	C443	0.823430	0.805070	0.586270
H3241	H324	0.821030	0.839670	0.575970
H3251	H325	0.868930	0.796570	0.583770
H3261	H326	0.830330	0.830870	0.599170
C4441	C444	0.704130	0.496070	0.645960
C4451	C445	0.715230	0.554370	0.629850
C4461	C446	0.790730	0.601670	0.621430
H3271	H327	0.834730	0.595370	0.625470
C4471	C447	0.802030	0.658270	0.607100
H3281	H328	0.853730	0.690670	0.601370
C4481	C448	0.737730	0.667570	0.601170
C4491	C449	0.662130	0.620270	0.609590
H3291	H329	0.618130	0.626570	0.605570
C4501	C450	0.650830	0.563570	0.623930
H3301	H330	0.599230	0.531270	0.629670
Zn371	Zn37	0.643510	0.228700	0.668290
Zn381	Zn38	0.896920	0.983690	0.849240
O1271	O127	0.662400	0.237300	0.716770
O1281	O128	0.618200	0.155100	0.690050
O1291	O129	0.896600	0.977100	0.801800
O1301	O130	0.818900	0.962500	0.827760
O1311	O131	0.847000	0.891200	0.866350
O1321	O132	0.923700	0.834000	0.863850
O1331	O133	0.483100	0.702600	0.984190
O1341	O134	0.397900	0.567700	0.985880
N311	N31	0.577500	0.902200	0.756530
N321	N32	0.645600	0.583900	0.919560
C4511	C451	0.633700	0.168800	0.708100
C4521	C452	0.619800	0.096500	0.720670
C4531	C453	0.578200	0.018700	0.713160
H3311	H331	0.558800	0.009800	0.700000
C4541	C454	0.564900	0.953800	0.724950
H3321	H332	0.536400	0.900600	0.719800
C4551	C455	0.593200	0.966700	0.744270
C4561	C456	0.634900	0.044600	0.751790
H3331	H333	0.654300	0.053500	0.765000
C4571	C457	0.648200	0.109500	0.739990
H3341	H334	0.676700	0.162700	0.745100
C4581	C458	0.508500	0.821400	0.753950
H3351	H335	0.458600	0.822700	0.756000
H3361	H336	0.511600	0.784800	0.763600
H3371	H337	0.509000	0.802400	0.740500
C4591	C459	0.830000	0.959600	0.809850
C4601	C460	0.763000	0.945500	0.796580
C4611	C461	0.687100	0.917600	0.803040
H3381	H338	0.675700	0.905800	0.816700
C4621	C462	0.625000	0.905400	0.790360
H3391	H339	0.572800	0.889400	0.795400
C4631	C463	0.640200	0.916700	0.770800
C4641	C464	0.718600	0.946700	0.763870
H3401	H340	0.731700	0.961100	0.750400
C4651	C465	0.774500	0.954400	0.776830
H3411	H341	0.825800	0.967000	0.771800
C4661	C466	0.863000	0.835800	0.870160
C4671	C467	0.802000	0.767400	0.882750
C4681	C468	0.819800	0.709140	0.889170
H3421	H342	0.868300	0.711400	0.885100
C4691	C469	0.766600	0.647600	0.901560
H3431	H343	0.778700	0.607800	0.905900
C4701	C470	0.695600	0.644300	0.907530
C4711	C471	0.677800	0.702500	0.901110
H3441	H344	0.629300	0.700300	0.905200
C4721	C472	0.731100	0.764150	0.888720
H3451	H345	0.718900	0.803900	0.884300
C4731	C473	0.648300	0.509900	0.919600
H3461	H346	0.685300	0.512300	0.909300
H3471	H347	0.594300	0.464400	0.917100
H3481	H348	0.667200	0.503000	0.932500
C4741	C474	0.458600	0.629200	0.979290
C4751	C475	0.505800	0.618100	0.963180
C4761	C476	0.477600	0.542600	0.954760
H3491	H349	0.427300	0.498600	0.958800
C4771	C477	0.522900	0.531300	0.940430
H3501	H350	0.503600	0.479600	0.934700
C4781	C478	0.596500	0.595600	0.934500
C4791	C479	0.624800	0.671200	0.942920
H3511	H351	0.675100	0.715200	0.938900
C4801	C480	0.579400	0.682500	0.957260
H3521	H352	0.598700	0.734100	0.963000
Zn391	Zn39	0.310180	0.562030	0.001630
Zn401	Zn40	0.563590	0.317020	0.182580
O1351	O135	0.329070	0.570630	0.050100
O1361	O136	0.284870	0.488430	0.023380
O1371	O137	0.563270	0.310430	0.135130
O1381	O138	0.485570	0.295830	0.161090
O1391	O139	0.513670	0.224530	0.199680
O1401	O140	0.590370	0.167330	0.197180
O1411	O141	0.149770	0.035930	0.317520
O1421	O142	0.064570	0.901030	0.319210
N331	N33	0.244170	0.235530	0.089860
N341	N34	0.312270	0.917230	0.252890
C4811	C481	0.300370	0.502130	0.041430
C4821	C482	0.286470	0.429830	0.054000
C4831	C483	0.244870	0.352030	0.046490
H3531	H353	0.225470	0.343130	0.033330
C4841	C484	0.231570	0.287130	0.058280
H3541	H354	0.203070	0.233930	0.053130
C4851	C485	0.259870	0.300030	0.077600
C4861	C486	0.301570	0.377930	0.085120
H3551	H355	0.320970	0.386830	0.098330
C4871	C487	0.314870	0.442830	0.073320
H3561	H356	0.343370	0.496030	0.078430
C4881	C488	0.175170	0.154730	0.087280
H3571	H357	0.125270	0.156030	0.089330
H3581	H358	0.178270	0.118130	0.096930
H3591	H359	0.175670	0.135730	0.073830
C4891	C489	0.496670	0.292930	0.143180
C4901	C490	0.429670	0.278830	0.129910
C4911	C491	0.353770	0.250930	0.136370
H3601	H360	0.342370	0.239130	0.150030
C4921	C492	0.291670	0.238730	0.123690
H3611	H361	0.239470	0.222730	0.128730
C4931	C493	0.306870	0.250030	0.104130
C4941	C494	0.385270	0.280030	0.097200
H3621	H362	0.398370	0.294430	0.083730
C4951	C495	0.441170	0.287730	0.110160
H3631	H363	0.492470	0.300330	0.105130
C4961	C496	0.529670	0.169130	0.203490
C4971	C497	0.468670	0.100730	0.216080
C4981	C498	0.486470	0.042470	0.222500
H3641	H364	0.534970	0.044730	0.218430
C4991	C499	0.433270	0.980930	0.234890
H3651	H365	0.445370	0.941130	0.239230
C5001	C500	0.362270	0.977630	0.240860
C5011	C501	0.344470	0.035830	0.234440
H3661	H366	0.295970	0.033630	0.238530
C5021	C502	0.397770	0.097480	0.222050
H3671	H367	0.385570	0.137230	0.217630
C5031	C503	0.314970	0.843230	0.252930
H3681	H368	0.351970	0.845630	0.242630
H3691	H369	0.260970	0.797730	0.250430
H3701	H370	0.333870	0.836330	0.265830
C5041	C504	0.125270	0.962530	0.312620
C5051	C505	0.172470	0.951430	0.296510
C5061	C506	0.144270	0.875930	0.288090
H3711	H371	0.093970	0.831930	0.292130
C5071	C507	0.189570	0.864630	0.273760
H3721	H372	0.170270	0.812930	0.268030
C5081	C508	0.263170	0.928930	0.267830
C5091	C509	0.291470	0.004530	0.276250
H3731	H373	0.341770	0.048530	0.272230
C5101	C510	0.246070	0.015830	0.290590
H3741	H374	0.265370	0.067430	0.296330
Zn411	Zn41	0.976840	0.895370	0.334960
Zn421	Zn42	0.230250	0.650360	0.515910
O1431	O143	0.995730	0.903970	0.383440
O1441	O144	0.951530	0.821770	0.356720
O1451	O145	0.229930	0.643770	0.468470
O1461	O146	0.152230	0.629170	0.494430
O1471	O147	0.180330	0.557870	0.533020
O1481	O148	0.257030	0.500670	0.530520
O1491	O149	0.816430	0.369270	0.650860
O1501	O150	0.731230	0.234370	0.652550
N351	N35	0.910830	0.568870	0.423200
N361	N36	0.978930	0.250570	0.586230
C5111	C511	0.967030	0.835470	0.374770
C5121	C512	0.953130	0.763170	0.387340
C5131	C513	0.911530	0.685370	0.379830
H3751	H375	0.892130	0.676470	0.366670
C5141	C514	0.898230	0.620470	0.391620
H3761	H376	0.869730	0.567270	0.386470
C5151	C515	0.926530	0.633370	0.410940
C5161	C516	0.968230	0.711270	0.418460
H3771	H377	0.987630	0.720170	0.431670
C5171	C517	0.981530	0.776170	0.406660
H3781	H378	0.010030	0.829370	0.411770
C5181	C518	0.841830	0.488070	0.420620
H3791	H379	0.791930	0.489370	0.422670
H3801	H380	0.844930	0.451470	0.430270
H3811	H381	0.842330	0.469070	0.407170
C5191	C519	0.163330	0.626270	0.476520
C5201	C520	0.096330	0.612170	0.463250
C5211	C521	0.020430	0.584270	0.469710
H3821	H382	0.009030	0.572470	0.483370
C5221	C522	0.958330	0.572070	0.457030
H3831	H383	0.906130	0.556070	0.462070
C5231	C523	0.973530	0.583370	0.437470
C5241	C524	0.051930	0.613370	0.430540
H3841	H384	0.065030	0.627770	0.417070
C5251	C525	0.107830	0.621070	0.443500
H3851	H385	0.159130	0.633670	0.438470
C5261	C526	0.196330	0.502470	0.536830
C5271	C527	0.135330	0.434070	0.549420
C5281	C528	0.153130	0.375810	0.555840
H3861	H386	0.201630	0.378070	0.551770
C5291	C529	0.099930	0.314270	0.568230
H3871	H387	0.112030	0.274470	0.572570
C5301	C530	0.028930	0.310970	0.574200
C5311	C531	0.011130	0.369170	0.567780
H3881	H388	0.962630	0.366970	0.571870
C5321	C532	0.064430	0.430820	0.555390
H3891	H389	0.052230	0.470570	0.550970
C5331	C533	0.981630	0.176570	0.586270
H3901	H390	0.018630	0.178970	0.575970
H3911	H391	0.927630	0.131070	0.583770
H3921	H392	0.000530	0.169670	0.599170
C5341	C534	0.791930	0.295870	0.645960
C5351	C535	0.839130	0.284770	0.629850
C5361	C536	0.810930	0.209270	0.621430
H3931	H393	0.760630	0.165270	0.625470
C5371	C537	0.856230	0.197970	0.607100
H3941	H394	0.836930	0.146270	0.601370
C5381	C538	0.929830	0.262270	0.601170
C5391	C539	0.958130	0.337870	0.609590
H3951	H395	0.008430	0.381870	0.605570
C5401	C540	0.912730	0.349170	0.623930
H3961	H396	0.932030	0.400770	0.629670
Zn431	Zn43	0.666670	0.333330	0.706520
O1511	O151	0.666670	0.333330	0.678110
Zn441	Zn44	0.333330	0.666670	0.039860
O1521	O152	0.333330	0.666670	0.011440
Zn451	Zn45	0.000000	0.000000	0.373190
O1531	O153	0.000000	0.000000	0.344780
Zn461	Zn46	0.000000	0.000000	0.811550
O1541	O154	0.000000	0.000000	0.840160
Zn471	Zn47	0.666670	0.333330	0.144880
O1551	O155	0.666670	0.333330	0.173490
Zn481	Zn48	0.333330	0.666670	0.478210
O1561	O156	0.333330	0.666670	0.506830
