data_JUKKIL_clean_PM
_symmetry_space_group_name_H-M	'P1'
_cell_length_a	9.682700
_cell_length_b	27.686000
_cell_length_c	9.105000
_cell_angle_alpha	90.000000
_cell_angle_beta	121.794000
_cell_angle_gamma	90.000000
_symmetry_Int_Tables_number 1

loop_
_symmetry_equiv_pos_as_xyz
'x,y,z'

loop_
_atom_site_label
_atom_site_type_symbol
_atom_site_fract_x
_atom_site_fract_y
_atom_site_fract_z
Nd11	Nd1	0.974320	0.509160	0.998730
O11	O1	0.124000	0.483300	0.299000
O21	O2	0.261000	0.461500	0.570000
O31	O3	0.825000	0.483900	0.697000
O41	O4	0.700000	0.460100	0.429000
C11	C1	0.252000	0.467400	0.433000
C21	C2	0.388000	0.457200	0.421000
H11	H1	0.385500	0.478500	0.333000
H21	H2	0.379500	0.423400	0.381600
C31	C3	0.549000	0.463600	0.590000
H31	H3	0.567800	0.435100	0.663900
H41	H4	0.541600	0.492300	0.649900
C41	C4	0.701000	0.469900	0.567000
O51	O5	0.906000	0.583700	0.826000
O61	O6	0.059000	0.586100	0.172000
C51	C5	0.934000	0.625400	0.904000
C61	C6	0.035000	0.624900	0.106000
Nd21	Nd2	0.992000	0.741040	0.997350
O71	O7	0.894000	0.666200	0.826000
O81	O8	0.086000	0.664600	0.173000
O91	O9	0.146000	0.766600	0.299000
O101	O10	0.287000	0.791400	0.569000
O111	O11	0.706000	0.790200	0.429000
O121	O12	0.844000	0.765300	0.697000
C71	C7	0.147000	0.780400	0.432000
C81	C8	0.988000	0.786000	0.422000
H51	H5	0.927700	0.812700	0.340800
H61	H6	0.924200	0.756100	0.369300
C91	C9	0.985000	0.795300	0.580000
H71	H7	0.073400	0.776500	0.676500
H81	H8	0.008000	0.829900	0.610100
C101	C10	0.836000	0.783400	0.566000
Nd31	Nd3	0.474320	0.009160	0.998730
O131	O13	0.624000	0.983300	0.299000
O141	O14	0.761000	0.961500	0.570000
O151	O15	0.325000	0.983900	0.697000
O161	O16	0.200000	0.960100	0.429000
C111	C11	0.752000	0.967400	0.433000
C121	C12	0.888000	0.957200	0.421000
H91	H9	0.885500	0.978500	0.333000
H101	H10	0.879500	0.923400	0.381600
C131	C13	0.049000	0.963600	0.590000
H111	H11	0.067800	0.935100	0.663900
H121	H12	0.041600	0.992300	0.649900
C141	C14	0.201000	0.969900	0.567000
O171	O17	0.406000	0.083700	0.826000
O181	O18	0.559000	0.086100	0.172000
C151	C15	0.434000	0.125400	0.904000
C161	C16	0.535000	0.124900	0.106000
Nd41	Nd4	0.492000	0.241040	0.997350
O191	O19	0.394000	0.166200	0.826000
O201	O20	0.586000	0.164600	0.173000
O211	O21	0.646000	0.266600	0.299000
O221	O22	0.787000	0.291400	0.569000
O231	O23	0.206000	0.290200	0.429000
O241	O24	0.344000	0.265300	0.697000
C171	C17	0.647000	0.280400	0.432000
C181	C18	0.488000	0.286000	0.422000
H131	H13	0.427700	0.312700	0.340800
H141	H14	0.424200	0.256100	0.369300
C191	C19	0.485000	0.295300	0.580000
H151	H15	0.573400	0.276500	0.676500
H161	H16	0.508000	0.329900	0.610100
C201	C20	0.336000	0.283400	0.566000
Nd51	Nd5	0.974320	0.490840	0.498730
O251	O25	0.124000	0.516700	0.799000
O261	O26	0.261000	0.538500	0.070000
O271	O27	0.825000	0.516100	0.197000
O281	O28	0.700000	0.539900	0.929000
C211	C21	0.252000	0.532600	0.933000
C221	C22	0.388000	0.542800	0.921000
H171	H17	0.385500	0.521500	0.833000
H181	H18	0.379500	0.576600	0.881600
C231	C23	0.549000	0.536400	0.090000
H191	H19	0.567800	0.564900	0.163900
H201	H20	0.541600	0.507700	0.149900
C241	C24	0.701000	0.530100	0.067000
O291	O29	0.906000	0.416300	0.326000
O301	O30	0.059000	0.413900	0.672000
C251	C25	0.934000	0.374600	0.404000
C261	C26	0.035000	0.375100	0.606000
Nd61	Nd6	0.992000	0.258960	0.497350
O311	O31	0.894000	0.333800	0.326000
O321	O32	0.086000	0.335400	0.673000
O331	O33	0.146000	0.233400	0.799000
O341	O34	0.287000	0.208600	0.069000
O351	O35	0.706000	0.209800	0.929000
O361	O36	0.844000	0.234700	0.197000
C271	C27	0.147000	0.219600	0.932000
C281	C28	0.988000	0.214000	0.922000
H211	H21	0.927700	0.187300	0.840800
H221	H22	0.924200	0.243900	0.869300
C291	C29	0.985000	0.204700	0.080000
H231	H23	0.073400	0.223500	0.176500
H241	H24	0.008000	0.170100	0.110100
C301	C30	0.836000	0.216600	0.066000
Nd71	Nd7	0.474320	0.990840	0.498730
O371	O37	0.624000	0.016700	0.799000
O381	O38	0.761000	0.038500	0.070000
O391	O39	0.325000	0.016100	0.197000
O401	O40	0.200000	0.039900	0.929000
C311	C31	0.752000	0.032600	0.933000
C321	C32	0.888000	0.042800	0.921000
H251	H25	0.885500	0.021500	0.833000
H261	H26	0.879500	0.076600	0.881600
C331	C33	0.049000	0.036400	0.090000
H271	H27	0.067800	0.064900	0.163900
H281	H28	0.041600	0.007700	0.149900
C341	C34	0.201000	0.030100	0.067000
O411	O41	0.406000	0.916300	0.326000
O421	O42	0.559000	0.913900	0.672000
C351	C35	0.434000	0.874600	0.404000
C361	C36	0.535000	0.875100	0.606000
Nd81	Nd8	0.492000	0.758960	0.497350
O431	O43	0.394000	0.833800	0.326000
O441	O44	0.586000	0.835400	0.673000
O451	O45	0.646000	0.733400	0.799000
O461	O46	0.787000	0.708600	0.069000
O471	O47	0.206000	0.709800	0.929000
O481	O48	0.344000	0.734700	0.197000
C371	C37	0.647000	0.719600	0.932000
C381	C38	0.488000	0.714000	0.922000
H291	H29	0.427700	0.687300	0.840800
H301	H30	0.424200	0.743900	0.869300
C391	C39	0.485000	0.704700	0.080000
H311	H31	0.573400	0.723500	0.176500
H321	H32	0.508000	0.670100	0.110100
C401	C40	0.336000	0.716600	0.066000
