data_JUKNUA_clean_PM
_symmetry_space_group_name_H-M	'P1'
_cell_length_a	29.394800
_cell_length_b	21.293800
_cell_length_c	28.618000
_cell_angle_alpha	90.000000
_cell_angle_beta	110.722000
_cell_angle_gamma	90.000000
_symmetry_Int_Tables_number 1

loop_
_symmetry_equiv_pos_as_xyz
'x,y,z'

loop_
_atom_site_label
_atom_site_type_symbol
_atom_site_fract_x
_atom_site_fract_y
_atom_site_fract_z
W11	W1	0.406810	0.311180	0.239720
O11	O1	0.414400	0.251200	0.290300
O21	O2	0.356300	0.270200	0.194600
O31	O3	0.426300	0.357400	0.192300
O41	O4	0.474800	0.339600	0.291000
O51	O5	0.459300	0.248500	0.217400
W21	W2	0.450450	0.191450	0.339490
W31	W3	0.306730	0.203080	0.159290
W41	W4	0.468120	0.319010	0.162010
O61	O6	0.502400	0.251800	0.359200
O71	O7	0.491900	0.124900	0.374300
O81	O8	0.481000	0.164800	0.282800
O91	O9	0.402000	0.129600	0.306200
O101	O10	0.312400	0.235600	0.099300
O111	O11	0.277300	0.130500	0.130500
O121	O12	0.329500	0.165100	0.222900
O131	O13	0.375000	0.159700	0.149100
O141	O14	0.405500	0.273400	0.118200
W51	W5	0.546790	0.083200	0.417270
W61	W6	0.350040	0.088130	0.260330
W71	W7	0.367330	0.213160	0.080890
W81	W8	0.277200	0.031990	0.132310
P11	P1	0.391600	0.090900	0.162870
O151	O15	0.582600	0.162200	0.422700
O161	O16	0.518000	0.005500	0.399500
O171	O17	0.563100	0.076500	0.349800
O181	O18	0.608700	0.046300	0.449000
O191	O19	0.533200	0.098700	0.471500
O201	O20	0.399800	0.079900	0.217400
O211	O21	0.305600	0.046000	0.200200
O221	O22	0.378200	0.008800	0.283800
O231	O23	0.348500	0.249600	0.022200
O241	O24	0.326100	0.133800	0.049100
O251	O25	0.215100	0.032200	0.123600
O261	O26	0.267800	0.040100	0.061900
O271	O27	0.287300	0.949400	0.135500
O281	O28	0.349100	0.048500	0.128400
W91	W9	0.509800	0.915220	0.387860
W101	W10	0.676760	0.049020	0.457980
Cu11	Cu1	0.481530	0.146880	0.488040
Cu21	Cu2	0.278020	0.085010	0.361890
W111	W11	0.386470	0.921090	0.288170
Cu31	Cu3	0.347420	0.316360	0.973380
Cu41	Cu4	0.148400	0.060040	0.101030
W121	W12	0.314450	0.861810	0.165030
O291	O29	0.577700	0.905600	0.422000
O301	O30	0.531300	0.939000	0.325100
O311	O31	0.492700	0.901500	0.439500
O321	O32	0.508100	0.832000	0.366200
O331	O33	0.447500	0.933100	0.341500
O341	O34	0.668500	0.956100	0.443300
O351	O35	0.277100	0.996500	0.355700
N11	N1	0.348800	0.077400	0.407300
O361	O36	0.430900	0.939500	0.242100
O371	O37	0.335700	0.908100	0.225600
O381	O38	0.406200	0.835300	0.283000
O391	O39	0.167500	0.144200	0.090500
N21	N2	0.078500	0.076700	0.066600
N31	N3	0.122700	0.971900	0.105300
O401	O40	0.310900	0.845100	0.098300
O411	O41	0.354700	0.797600	0.194100
O421	O42	0.381100	0.906300	0.154400
W131	W13	0.641010	0.878890	0.425870
P21	P2	0.567000	0.906830	0.304510
W141	W14	0.544480	0.766020	0.349400
Cu51	Cu5	0.329730	0.943300	0.389380
H11	H1	0.248600	0.977900	0.334500
N41	N4	0.371200	0.019900	0.409500
W151	W15	0.418610	0.765960	0.248440
H21	H2	0.185200	0.167300	0.118600
O431	O43	0.599700	0.800900	0.390600
O441	O44	0.552300	0.837500	0.292100
N51	N5	0.571400	0.912400	0.549700
N61	N6	0.575700	0.802600	0.513400
N71	N7	0.474300	0.778800	0.488700
O451	O45	0.572000	0.723000	0.307000
O461	O46	0.479500	0.753400	0.291700
N81	N8	0.088400	0.214100	0.025400
C11	C1	0.582100	0.972100	0.564900
C21	C2	0.617600	0.884800	0.567600
N91	N9	0.584500	0.744300	0.501200
C31	C3	0.618700	0.820400	0.549700
N101	N10	0.484700	0.723900	0.470600
C41	C4	0.430300	0.772200	0.490400
Cu61	Cu6	0.543850	0.676890	0.467780
H31	H3	0.559200	0.004100	0.558100
C51	C5	0.629700	0.730100	0.528900
N111	N11	0.653000	0.777000	0.560200
C61	C6	0.446300	0.687400	0.462500
H41	H4	0.414000	0.803300	0.501100
N121	N12	0.609500	0.632900	0.491200
N131	N13	0.497400	0.606600	0.451000
C71	C7	0.646900	0.668100	0.520100
C81	C8	0.452900	0.623000	0.448100
C91	C9	0.618800	0.574000	0.480600
N141	N14	0.494500	0.545100	0.437700
C101	C10	0.694500	0.648400	0.537400
C111	C11	0.666100	0.550300	0.499500
H51	H5	0.593600	0.548900	0.460500
H61	H6	0.517900	0.521900	0.436200
C121	C12	0.449800	0.528000	0.427500
H71	H7	0.719700	0.675000	0.555600
C131	C13	0.703300	0.588100	0.526700
H81	H8	0.672100	0.508700	0.493500
C141	C14	0.426200	0.468500	0.410800
H91	H9	0.735000	0.572800	0.538000
C151	C15	0.448000	0.412900	0.407300
C161	C16	0.351100	0.421600	0.375400
H101	H10	0.481700	0.411600	0.416500
C171	C17	0.422800	0.361000	0.391300
C181	C18	0.373300	0.365400	0.374600
H111	H11	0.317400	0.424400	0.362300
H121	H12	0.438200	0.322800	0.391500
H131	H13	0.354500	0.329800	0.362500
Na11	Na1	0.524800	0.040400	0.209700
O471	O47	0.514400	0.039700	0.228600
W161	W16	0.906810	0.811180	0.239720
O481	O48	0.914400	0.751200	0.290300
O491	O49	0.856300	0.770200	0.194600
O501	O50	0.926300	0.857400	0.192300
O511	O51	0.974800	0.839600	0.291000
O521	O52	0.959300	0.748500	0.217400
W171	W17	0.950450	0.691450	0.339490
W181	W18	0.806730	0.703080	0.159290
W191	W19	0.968120	0.819010	0.162010
O531	O53	0.002400	0.751800	0.359200
O541	O54	0.991900	0.624900	0.374300
O551	O55	0.981000	0.664800	0.282800
O561	O56	0.902000	0.629600	0.306200
O571	O57	0.812400	0.735600	0.099300
O581	O58	0.777300	0.630500	0.130500
O591	O59	0.829500	0.665100	0.222900
O601	O60	0.875000	0.659700	0.149100
O611	O61	0.905500	0.773400	0.118200
W201	W20	0.046790	0.583200	0.417270
W211	W21	0.850040	0.588130	0.260330
W221	W22	0.867330	0.713160	0.080890
W231	W23	0.777200	0.531990	0.132310
P31	P3	0.891600	0.590900	0.162870
O621	O62	0.082600	0.662200	0.422700
O631	O63	0.018000	0.505500	0.399500
O641	O64	0.063100	0.576500	0.349800
O651	O65	0.108700	0.546300	0.449000
O661	O66	0.033200	0.598700	0.471500
O671	O67	0.899800	0.579900	0.217400
O681	O68	0.805600	0.546000	0.200200
O691	O69	0.878200	0.508800	0.283800
O701	O70	0.848500	0.749600	0.022200
O711	O71	0.826100	0.633800	0.049100
O721	O72	0.715100	0.532200	0.123600
O731	O73	0.767800	0.540100	0.061900
O741	O74	0.787300	0.449400	0.135500
O751	O75	0.849100	0.548500	0.128400
W241	W24	0.009800	0.415220	0.387860
W251	W25	0.176760	0.549020	0.457980
Cu71	Cu7	0.981530	0.646880	0.488040
Cu81	Cu8	0.778020	0.585010	0.361890
W261	W26	0.886470	0.421090	0.288170
Cu91	Cu9	0.847420	0.816360	0.973380
Cu101	Cu10	0.648400	0.560040	0.101030
W271	W27	0.814450	0.361810	0.165030
O761	O76	0.077700	0.405600	0.422000
O771	O77	0.031300	0.439000	0.325100
O781	O78	0.992700	0.401500	0.439500
O791	O79	0.008100	0.332000	0.366200
O801	O80	0.947500	0.433100	0.341500
O811	O81	0.168500	0.456100	0.443300
O821	O82	0.777100	0.496500	0.355700
N151	N15	0.848800	0.577400	0.407300
O831	O83	0.930900	0.439500	0.242100
O841	O84	0.835700	0.408100	0.225600
O851	O85	0.906200	0.335300	0.283000
O861	O86	0.667500	0.644200	0.090500
N161	N16	0.578500	0.576700	0.066600
N171	N17	0.622700	0.471900	0.105300
O871	O87	0.810900	0.345100	0.098300
O881	O88	0.854700	0.297600	0.194100
O891	O89	0.881100	0.406300	0.154400
W281	W28	0.141010	0.378890	0.425870
P41	P4	0.067000	0.406830	0.304510
W291	W29	0.044480	0.266020	0.349400
Cu111	Cu11	0.829730	0.443300	0.389380
H141	H14	0.748600	0.477900	0.334500
N181	N18	0.871200	0.519900	0.409500
W301	W30	0.918610	0.265960	0.248440
H151	H15	0.685200	0.667300	0.118600
O901	O90	0.099700	0.300900	0.390600
O911	O91	0.052300	0.337500	0.292100
N191	N19	0.071400	0.412400	0.549700
N201	N20	0.075700	0.302600	0.513400
N211	N21	0.974300	0.278800	0.488700
O921	O92	0.072000	0.223000	0.307000
O931	O93	0.979500	0.253400	0.291700
N221	N22	0.588400	0.714100	0.025400
C191	C19	0.082100	0.472100	0.564900
C201	C20	0.117600	0.384800	0.567600
N231	N23	0.084500	0.244300	0.501200
C211	C21	0.118700	0.320400	0.549700
N241	N24	0.984700	0.223900	0.470600
C221	C22	0.930300	0.272200	0.490400
Cu121	Cu12	0.043850	0.176890	0.467780
H161	H16	0.059200	0.504100	0.558100
C231	C23	0.129700	0.230100	0.528900
N251	N25	0.153000	0.277000	0.560200
C241	C24	0.946300	0.187400	0.462500
H171	H17	0.914000	0.303300	0.501100
N261	N26	0.109500	0.132900	0.491200
N271	N27	0.997400	0.106600	0.451000
C251	C25	0.146900	0.168100	0.520100
C261	C26	0.952900	0.123000	0.448100
C271	C27	0.118800	0.074000	0.480600
N281	N28	0.994500	0.045100	0.437700
C281	C28	0.194500	0.148400	0.537400
C291	C29	0.166100	0.050300	0.499500
H181	H18	0.093600	0.048900	0.460500
H191	H19	0.017900	0.021900	0.436200
C301	C30	0.949800	0.028000	0.427500
H201	H20	0.219700	0.175000	0.555600
C311	C31	0.203300	0.088100	0.526700
H211	H21	0.172100	0.008700	0.493500
C321	C32	0.926200	0.968500	0.410800
H221	H22	0.235000	0.072800	0.538000
C331	C33	0.948000	0.912900	0.407300
C341	C34	0.851100	0.921600	0.375400
H231	H23	0.981700	0.911600	0.416500
C351	C35	0.922800	0.861000	0.391300
C361	C36	0.873300	0.865400	0.374600
H241	H24	0.817400	0.924400	0.362300
H251	H25	0.938200	0.822800	0.391500
H261	H26	0.854500	0.829800	0.362500
Na21	Na2	0.024800	0.540400	0.209700
O941	O94	0.014400	0.539700	0.228600
W311	W31	0.593190	0.311180	0.260280
O951	O95	0.585600	0.251200	0.209700
O961	O96	0.643700	0.270200	0.305400
O971	O97	0.573700	0.357400	0.307700
O981	O98	0.525200	0.339600	0.209000
O991	O99	0.540700	0.248500	0.282600
W321	W32	0.549550	0.191450	0.160510
W331	W33	0.693270	0.203080	0.340710
W341	W34	0.531880	0.319010	0.337990
O1001	O100	0.497600	0.251800	0.140800
O1011	O101	0.508100	0.124900	0.125700
O1021	O102	0.519000	0.164800	0.217200
O1031	O103	0.598000	0.129600	0.193800
O1041	O104	0.687600	0.235600	0.400700
O1051	O105	0.722700	0.130500	0.369500
O1061	O106	0.670500	0.165100	0.277100
O1071	O107	0.625000	0.159700	0.350900
O1081	O108	0.594500	0.273400	0.381800
W351	W35	0.453210	0.083200	0.082730
W361	W36	0.649960	0.088130	0.239670
W371	W37	0.632670	0.213160	0.419110
W381	W38	0.722800	0.031990	0.367690
P51	P5	0.608400	0.090900	0.337130
O1091	O109	0.417400	0.162200	0.077300
O1101	O110	0.482000	0.005500	0.100500
O1111	O111	0.436900	0.076500	0.150200
O1121	O112	0.391300	0.046300	0.051000
O1131	O113	0.466800	0.098700	0.028500
O1141	O114	0.600200	0.079900	0.282600
O1151	O115	0.694400	0.046000	0.299800
O1161	O116	0.621800	0.008800	0.216200
O1171	O117	0.651500	0.249600	0.477800
O1181	O118	0.673900	0.133800	0.450900
O1191	O119	0.784900	0.032200	0.376400
O1201	O120	0.732200	0.040100	0.438100
O1211	O121	0.712700	0.949400	0.364500
O1221	O122	0.650900	0.048500	0.371600
W391	W39	0.490200	0.915220	0.112140
W401	W40	0.323240	0.049020	0.042020
Cu131	Cu13	0.518470	0.146880	0.011960
Cu141	Cu14	0.721980	0.085010	0.138110
W411	W41	0.613530	0.921090	0.211830
Cu151	Cu15	0.652580	0.316360	0.526620
Cu161	Cu16	0.851600	0.060040	0.398970
W421	W42	0.685550	0.861810	0.334970
O1231	O123	0.422300	0.905600	0.078000
O1241	O124	0.468700	0.939000	0.174900
O1251	O125	0.507300	0.901500	0.060500
O1261	O126	0.491900	0.832000	0.133800
O1271	O127	0.552500	0.933100	0.158500
O1281	O128	0.331500	0.956100	0.056700
O1291	O129	0.722900	0.996500	0.144300
N291	N29	0.651200	0.077400	0.092700
O1301	O130	0.569100	0.939500	0.257900
O1311	O131	0.664300	0.908100	0.274400
O1321	O132	0.593800	0.835300	0.217000
O1331	O133	0.832500	0.144200	0.409500
N301	N30	0.921500	0.076700	0.433400
N311	N31	0.877300	0.971900	0.394700
O1341	O134	0.689100	0.845100	0.401700
O1351	O135	0.645300	0.797600	0.305900
O1361	O136	0.618900	0.906300	0.345600
W431	W43	0.358990	0.878890	0.074130
P61	P6	0.433000	0.906830	0.195490
W441	W44	0.455520	0.766020	0.150600
Cu171	Cu17	0.670270	0.943300	0.110620
H271	H27	0.751400	0.977900	0.165500
N321	N32	0.628800	0.019900	0.090500
W451	W45	0.581390	0.765960	0.251560
H281	H28	0.814800	0.167300	0.381400
O1371	O137	0.400300	0.800900	0.109400
O1381	O138	0.447700	0.837500	0.207900
N331	N33	0.428600	0.912400	0.950300
N341	N34	0.424300	0.802600	0.986600
N351	N35	0.525700	0.778800	0.011300
O1391	O139	0.428000	0.723000	0.193000
O1401	O140	0.520500	0.753400	0.208300
N361	N36	0.911600	0.214100	0.474600
C371	C37	0.417900	0.972100	0.935100
C381	C38	0.382400	0.884800	0.932400
N371	N37	0.415500	0.744300	0.998800
C391	C39	0.381300	0.820400	0.950300
N381	N38	0.515300	0.723900	0.029400
C401	C40	0.569700	0.772200	0.009600
Cu181	Cu18	0.456150	0.676890	0.032220
H291	H29	0.440800	0.004100	0.941900
C411	C41	0.370300	0.730100	0.971100
N391	N39	0.347000	0.777000	0.939800
C421	C42	0.553700	0.687400	0.037500
H301	H30	0.586000	0.803300	0.998900
N401	N40	0.390500	0.632900	0.008800
N411	N41	0.502600	0.606600	0.049000
C431	C43	0.353100	0.668100	0.979900
C441	C44	0.547100	0.623000	0.051900
C451	C45	0.381200	0.574000	0.019400
N421	N42	0.505500	0.545100	0.062300
C461	C46	0.305500	0.648400	0.962600
C471	C47	0.333900	0.550300	0.000500
H311	H31	0.406400	0.548900	0.039500
H321	H32	0.482100	0.521900	0.063800
C481	C48	0.550200	0.528000	0.072500
H331	H33	0.280300	0.675000	0.944400
C491	C49	0.296700	0.588100	0.973300
H341	H34	0.327900	0.508700	0.006500
C501	C50	0.573800	0.468500	0.089200
H351	H35	0.265000	0.572800	0.962000
C511	C51	0.552000	0.412900	0.092700
C521	C52	0.648900	0.421600	0.124600
H361	H36	0.518300	0.411600	0.083500
C531	C53	0.577200	0.361000	0.108700
C541	C54	0.626700	0.365400	0.125400
H371	H37	0.682600	0.424400	0.137700
H381	H38	0.561800	0.322800	0.108500
H391	H39	0.645500	0.329800	0.137500
Na31	Na3	0.475200	0.040400	0.290300
O1411	O141	0.485600	0.039700	0.271400
W461	W46	0.093190	0.811180	0.260280
O1421	O142	0.085600	0.751200	0.209700
O1431	O143	0.143700	0.770200	0.305400
O1441	O144	0.073700	0.857400	0.307700
O1451	O145	0.025200	0.839600	0.209000
O1461	O146	0.040700	0.748500	0.282600
W471	W47	0.049550	0.691450	0.160510
W481	W48	0.193270	0.703080	0.340710
W491	W49	0.031880	0.819010	0.337990
O1471	O147	0.997600	0.751800	0.140800
O1481	O148	0.008100	0.624900	0.125700
O1491	O149	0.019000	0.664800	0.217200
O1501	O150	0.098000	0.629600	0.193800
O1511	O151	0.187600	0.735600	0.400700
O1521	O152	0.222700	0.630500	0.369500
O1531	O153	0.170500	0.665100	0.277100
O1541	O154	0.125000	0.659700	0.350900
O1551	O155	0.094500	0.773400	0.381800
W501	W50	0.953210	0.583200	0.082730
W511	W51	0.149960	0.588130	0.239670
W521	W52	0.132670	0.713160	0.419110
W531	W53	0.222800	0.531990	0.367690
P71	P7	0.108400	0.590900	0.337130
O1561	O156	0.917400	0.662200	0.077300
O1571	O157	0.982000	0.505500	0.100500
O1581	O158	0.936900	0.576500	0.150200
O1591	O159	0.891300	0.546300	0.051000
O1601	O160	0.966800	0.598700	0.028500
O1611	O161	0.100200	0.579900	0.282600
O1621	O162	0.194400	0.546000	0.299800
O1631	O163	0.121800	0.508800	0.216200
O1641	O164	0.151500	0.749600	0.477800
O1651	O165	0.173900	0.633800	0.450900
O1661	O166	0.284900	0.532200	0.376400
O1671	O167	0.232200	0.540100	0.438100
O1681	O168	0.212700	0.449400	0.364500
O1691	O169	0.150900	0.548500	0.371600
W541	W54	0.990200	0.415220	0.112140
W551	W55	0.823240	0.549020	0.042020
Cu191	Cu19	0.018470	0.646880	0.011960
Cu201	Cu20	0.221980	0.585010	0.138110
W561	W56	0.113530	0.421090	0.211830
Cu211	Cu21	0.152580	0.816360	0.526620
Cu221	Cu22	0.351600	0.560040	0.398970
W571	W57	0.185550	0.361810	0.334970
O1701	O170	0.922300	0.405600	0.078000
O1711	O171	0.968700	0.439000	0.174900
O1721	O172	0.007300	0.401500	0.060500
O1731	O173	0.991900	0.332000	0.133800
O1741	O174	0.052500	0.433100	0.158500
O1751	O175	0.831500	0.456100	0.056700
O1761	O176	0.222900	0.496500	0.144300
N431	N43	0.151200	0.577400	0.092700
O1771	O177	0.069100	0.439500	0.257900
O1781	O178	0.164300	0.408100	0.274400
O1791	O179	0.093800	0.335300	0.217000
O1801	O180	0.332500	0.644200	0.409500
N441	N44	0.421500	0.576700	0.433400
N451	N45	0.377300	0.471900	0.394700
O1811	O181	0.189100	0.345100	0.401700
O1821	O182	0.145300	0.297600	0.305900
O1831	O183	0.118900	0.406300	0.345600
W581	W58	0.858990	0.378890	0.074130
P81	P8	0.933000	0.406830	0.195490
W591	W59	0.955520	0.266020	0.150600
Cu231	Cu23	0.170270	0.443300	0.110620
H401	H40	0.251400	0.477900	0.165500
N461	N46	0.128800	0.519900	0.090500
W601	W60	0.081390	0.265960	0.251560
H411	H41	0.314800	0.667300	0.381400
O1841	O184	0.900300	0.300900	0.109400
O1851	O185	0.947700	0.337500	0.207900
N471	N47	0.928600	0.412400	0.950300
N481	N48	0.924300	0.302600	0.986600
N491	N49	0.025700	0.278800	0.011300
O1861	O186	0.928000	0.223000	0.193000
O1871	O187	0.020500	0.253400	0.208300
N501	N50	0.411600	0.714100	0.474600
C551	C55	0.917900	0.472100	0.935100
C561	C56	0.882400	0.384800	0.932400
N511	N51	0.915500	0.244300	0.998800
C571	C57	0.881300	0.320400	0.950300
N521	N52	0.015300	0.223900	0.029400
C581	C58	0.069700	0.272200	0.009600
Cu241	Cu24	0.956150	0.176890	0.032220
H421	H42	0.940800	0.504100	0.941900
C591	C59	0.870300	0.230100	0.971100
N531	N53	0.847000	0.277000	0.939800
C601	C60	0.053700	0.187400	0.037500
H431	H43	0.086000	0.303300	0.998900
N541	N54	0.890500	0.132900	0.008800
N551	N55	0.002600	0.106600	0.049000
C611	C61	0.853100	0.168100	0.979900
C621	C62	0.047100	0.123000	0.051900
C631	C63	0.881200	0.074000	0.019400
N561	N56	0.005500	0.045100	0.062300
C641	C64	0.805500	0.148400	0.962600
C651	C65	0.833900	0.050300	0.000500
H441	H44	0.906400	0.048900	0.039500
H451	H45	0.982100	0.021900	0.063800
C661	C66	0.050200	0.028000	0.072500
H461	H46	0.780300	0.175000	0.944400
C671	C67	0.796700	0.088100	0.973300
H471	H47	0.827900	0.008700	0.006500
C681	C68	0.073800	0.968500	0.089200
H481	H48	0.765000	0.072800	0.962000
C691	C69	0.052000	0.912900	0.092700
C701	C70	0.148900	0.921600	0.124600
H491	H49	0.018300	0.911600	0.083500
C711	C71	0.077200	0.861000	0.108700
C721	C72	0.126700	0.865400	0.125400
H501	H50	0.182600	0.924400	0.137700
H511	H51	0.061800	0.822800	0.108500
H521	H52	0.145500	0.829800	0.137500
Na41	Na4	0.975200	0.540400	0.290300
O1881	O188	0.985600	0.539700	0.271400
W611	W61	0.593190	0.688820	0.760280
O1891	O189	0.585600	0.748800	0.709700
O1901	O190	0.643700	0.729800	0.805400
O1911	O191	0.573700	0.642600	0.807700
O1921	O192	0.525200	0.660400	0.709000
O1931	O193	0.540700	0.751500	0.782600
W621	W62	0.549550	0.808550	0.660510
W631	W63	0.693270	0.796920	0.840710
W641	W64	0.531880	0.680990	0.837990
O1941	O194	0.497600	0.748200	0.640800
O1951	O195	0.508100	0.875100	0.625700
O1961	O196	0.519000	0.835200	0.717200
O1971	O197	0.598000	0.870400	0.693800
O1981	O198	0.687600	0.764400	0.900700
O1991	O199	0.722700	0.869500	0.869500
O2001	O200	0.670500	0.834900	0.777100
O2011	O201	0.625000	0.840300	0.850900
O2021	O202	0.594500	0.726600	0.881800
W651	W65	0.453210	0.916800	0.582730
W661	W66	0.649960	0.911870	0.739670
W671	W67	0.632670	0.786840	0.919110
W681	W68	0.722800	0.968010	0.867690
P91	P9	0.608400	0.909100	0.837130
O2031	O203	0.417400	0.837800	0.577300
O2041	O204	0.482000	0.994500	0.600500
O2051	O205	0.436900	0.923500	0.650200
O2061	O206	0.391300	0.953700	0.551000
O2071	O207	0.466800	0.901300	0.528500
O2081	O208	0.600200	0.920100	0.782600
O2091	O209	0.694400	0.954000	0.799800
O2101	O210	0.621800	0.991200	0.716200
O2111	O211	0.651500	0.750400	0.977800
O2121	O212	0.673900	0.866200	0.950900
O2131	O213	0.784900	0.967800	0.876400
O2141	O214	0.732200	0.959900	0.938100
O2151	O215	0.712700	0.050600	0.864500
O2161	O216	0.650900	0.951500	0.871600
W691	W69	0.490200	0.084780	0.612140
W701	W70	0.323240	0.950980	0.542020
Cu251	Cu25	0.518470	0.853120	0.511960
Cu261	Cu26	0.721980	0.914990	0.638110
W711	W71	0.613530	0.078910	0.711830
Cu271	Cu27	0.652580	0.683640	0.026620
Cu281	Cu28	0.851600	0.939960	0.898970
W721	W72	0.685550	0.138190	0.834970
O2171	O217	0.422300	0.094400	0.578000
O2181	O218	0.468700	0.061000	0.674900
O2191	O219	0.507300	0.098500	0.560500
O2201	O220	0.491900	0.168000	0.633800
O2211	O221	0.552500	0.066900	0.658500
O2221	O222	0.331500	0.043900	0.556700
O2231	O223	0.722900	0.003500	0.644300
N571	N57	0.651200	0.922600	0.592700
O2241	O224	0.569100	0.060500	0.757900
O2251	O225	0.664300	0.091900	0.774400
O2261	O226	0.593800	0.164700	0.717000
O2271	O227	0.832500	0.855800	0.909500
N581	N58	0.921500	0.923300	0.933400
N591	N59	0.877300	0.028100	0.894700
O2281	O228	0.689100	0.154900	0.901700
O2291	O229	0.645300	0.202400	0.805900
O2301	O230	0.618900	0.093700	0.845600
W731	W73	0.358990	0.121110	0.574130
P101	P10	0.433000	0.093170	0.695490
W741	W74	0.455520	0.233980	0.650600
Cu291	Cu29	0.670270	0.056700	0.610620
H531	H53	0.751400	0.022100	0.665500
N601	N60	0.628800	0.980100	0.590500
W751	W75	0.581390	0.234040	0.751560
H541	H54	0.814800	0.832700	0.881400
O2311	O231	0.400300	0.199100	0.609400
O2321	O232	0.447700	0.162500	0.707900
N611	N61	0.428600	0.087600	0.450300
N621	N62	0.424300	0.197400	0.486600
N631	N63	0.525700	0.221200	0.511300
O2331	O233	0.428000	0.277000	0.693000
O2341	O234	0.520500	0.246600	0.708300
N641	N64	0.911600	0.785900	0.974600
C731	C73	0.417900	0.027900	0.435100
C741	C74	0.382400	0.115200	0.432400
N651	N65	0.415500	0.255700	0.498800
C751	C75	0.381300	0.179600	0.450300
N661	N66	0.515300	0.276100	0.529400
C761	C76	0.569700	0.227800	0.509600
Cu301	Cu30	0.456150	0.323110	0.532220
H551	H55	0.440800	0.995900	0.441900
C771	C77	0.370300	0.269900	0.471100
N671	N67	0.347000	0.223000	0.439800
C781	C78	0.553700	0.312600	0.537500
H561	H56	0.586000	0.196700	0.498900
N681	N68	0.390500	0.367100	0.508800
N691	N69	0.502600	0.393400	0.549000
C791	C79	0.353100	0.331900	0.479900
C801	C80	0.547100	0.377000	0.551900
C811	C81	0.381200	0.426000	0.519400
N701	N70	0.505500	0.454900	0.562300
C821	C82	0.305500	0.351600	0.462600
C831	C83	0.333900	0.449700	0.500500
H571	H57	0.406400	0.451100	0.539500
H581	H58	0.482100	0.478100	0.563800
C841	C84	0.550200	0.472000	0.572500
H591	H59	0.280300	0.325000	0.444400
C851	C85	0.296700	0.411900	0.473300
H601	H60	0.327900	0.491300	0.506500
C861	C86	0.573800	0.531500	0.589200
H611	H61	0.265000	0.427200	0.462000
C871	C87	0.552000	0.587100	0.592700
C881	C88	0.648900	0.578400	0.624600
H621	H62	0.518300	0.588400	0.583500
C891	C89	0.577200	0.639000	0.608700
C901	C90	0.626700	0.634600	0.625400
H631	H63	0.682600	0.575600	0.637700
H641	H64	0.561800	0.677200	0.608500
H651	H65	0.645500	0.670200	0.637500
Na51	Na5	0.475200	0.959600	0.790300
O2351	O235	0.485600	0.960300	0.771400
W761	W76	0.093190	0.188820	0.760280
O2361	O236	0.085600	0.248800	0.709700
O2371	O237	0.143700	0.229800	0.805400
O2381	O238	0.073700	0.142600	0.807700
O2391	O239	0.025200	0.160400	0.709000
O2401	O240	0.040700	0.251500	0.782600
W771	W77	0.049550	0.308550	0.660510
W781	W78	0.193270	0.296920	0.840710
W791	W79	0.031880	0.180990	0.837990
O2411	O241	0.997600	0.248200	0.640800
O2421	O242	0.008100	0.375100	0.625700
O2431	O243	0.019000	0.335200	0.717200
O2441	O244	0.098000	0.370400	0.693800
O2451	O245	0.187600	0.264400	0.900700
O2461	O246	0.222700	0.369500	0.869500
O2471	O247	0.170500	0.334900	0.777100
O2481	O248	0.125000	0.340300	0.850900
O2491	O249	0.094500	0.226600	0.881800
W801	W80	0.953210	0.416800	0.582730
W811	W81	0.149960	0.411870	0.739670
W821	W82	0.132670	0.286840	0.919110
W831	W83	0.222800	0.468010	0.867690
P111	P11	0.108400	0.409100	0.837130
O2501	O250	0.917400	0.337800	0.577300
O2511	O251	0.982000	0.494500	0.600500
O2521	O252	0.936900	0.423500	0.650200
O2531	O253	0.891300	0.453700	0.551000
O2541	O254	0.966800	0.401300	0.528500
O2551	O255	0.100200	0.420100	0.782600
O2561	O256	0.194400	0.454000	0.799800
O2571	O257	0.121800	0.491200	0.716200
O2581	O258	0.151500	0.250400	0.977800
O2591	O259	0.173900	0.366200	0.950900
O2601	O260	0.284900	0.467800	0.876400
O2611	O261	0.232200	0.459900	0.938100
O2621	O262	0.212700	0.550600	0.864500
O2631	O263	0.150900	0.451500	0.871600
W841	W84	0.990200	0.584780	0.612140
W851	W85	0.823240	0.450980	0.542020
Cu311	Cu31	0.018470	0.353120	0.511960
Cu321	Cu32	0.221980	0.414990	0.638110
W861	W86	0.113530	0.578910	0.711830
Cu331	Cu33	0.152580	0.183640	0.026620
Cu341	Cu34	0.351600	0.439960	0.898970
W871	W87	0.185550	0.638190	0.834970
O2641	O264	0.922300	0.594400	0.578000
O2651	O265	0.968700	0.561000	0.674900
O2661	O266	0.007300	0.598500	0.560500
O2671	O267	0.991900	0.668000	0.633800
O2681	O268	0.052500	0.566900	0.658500
O2691	O269	0.831500	0.543900	0.556700
O2701	O270	0.222900	0.503500	0.644300
N711	N71	0.151200	0.422600	0.592700
O2711	O271	0.069100	0.560500	0.757900
O2721	O272	0.164300	0.591900	0.774400
O2731	O273	0.093800	0.664700	0.717000
O2741	O274	0.332500	0.355800	0.909500
N721	N72	0.421500	0.423300	0.933400
N731	N73	0.377300	0.528100	0.894700
O2751	O275	0.189100	0.654900	0.901700
O2761	O276	0.145300	0.702400	0.805900
O2771	O277	0.118900	0.593700	0.845600
W881	W88	0.858990	0.621110	0.574130
P121	P12	0.933000	0.593170	0.695490
W891	W89	0.955520	0.733980	0.650600
Cu351	Cu35	0.170270	0.556700	0.610620
H661	H66	0.251400	0.522100	0.665500
N741	N74	0.128800	0.480100	0.590500
W901	W90	0.081390	0.734040	0.751560
H671	H67	0.314800	0.332700	0.881400
O2781	O278	0.900300	0.699100	0.609400
O2791	O279	0.947700	0.662500	0.707900
N751	N75	0.928600	0.587600	0.450300
N761	N76	0.924300	0.697400	0.486600
N771	N77	0.025700	0.721200	0.511300
O2801	O280	0.928000	0.777000	0.693000
O2811	O281	0.020500	0.746600	0.708300
N781	N78	0.411600	0.285900	0.974600
C911	C91	0.917900	0.527900	0.435100
C921	C92	0.882400	0.615200	0.432400
N791	N79	0.915500	0.755700	0.498800
C931	C93	0.881300	0.679600	0.450300
N801	N80	0.015300	0.776100	0.529400
C941	C94	0.069700	0.727800	0.509600
Cu361	Cu36	0.956150	0.823110	0.532220
H681	H68	0.940800	0.495900	0.441900
C951	C95	0.870300	0.769900	0.471100
N811	N81	0.847000	0.723000	0.439800
C961	C96	0.053700	0.812600	0.537500
H691	H69	0.086000	0.696700	0.498900
N821	N82	0.890500	0.867100	0.508800
N831	N83	0.002600	0.893400	0.549000
C971	C97	0.853100	0.831900	0.479900
C981	C98	0.047100	0.877000	0.551900
C991	C99	0.881200	0.926000	0.519400
N841	N84	0.005500	0.954900	0.562300
C1001	C100	0.805500	0.851600	0.462600
C1011	C101	0.833900	0.949700	0.500500
H701	H70	0.906400	0.951100	0.539500
H711	H71	0.982100	0.978100	0.563800
C1021	C102	0.050200	0.972000	0.572500
H721	H72	0.780300	0.825000	0.444400
C1031	C103	0.796700	0.911900	0.473300
H731	H73	0.827900	0.991300	0.506500
C1041	C104	0.073800	0.031500	0.589200
H741	H74	0.765000	0.927200	0.462000
C1051	C105	0.052000	0.087100	0.592700
C1061	C106	0.148900	0.078400	0.624600
H751	H75	0.018300	0.088400	0.583500
C1071	C107	0.077200	0.139000	0.608700
C1081	C108	0.126700	0.134600	0.625400
H761	H76	0.182600	0.075600	0.637700
H771	H77	0.061800	0.177200	0.608500
H781	H78	0.145500	0.170200	0.637500
Na61	Na6	0.975200	0.459600	0.790300
O2821	O282	0.985600	0.460300	0.771400
W911	W91	0.406810	0.688820	0.739720
O2831	O283	0.414400	0.748800	0.790300
O2841	O284	0.356300	0.729800	0.694600
O2851	O285	0.426300	0.642600	0.692300
O2861	O286	0.474800	0.660400	0.791000
O2871	O287	0.459300	0.751500	0.717400
W921	W92	0.450450	0.808550	0.839490
W931	W93	0.306730	0.796920	0.659290
W941	W94	0.468120	0.680990	0.662010
O2881	O288	0.502400	0.748200	0.859200
O2891	O289	0.491900	0.875100	0.874300
O2901	O290	0.481000	0.835200	0.782800
O2911	O291	0.402000	0.870400	0.806200
O2921	O292	0.312400	0.764400	0.599300
O2931	O293	0.277300	0.869500	0.630500
O2941	O294	0.329500	0.834900	0.722900
O2951	O295	0.375000	0.840300	0.649100
O2961	O296	0.405500	0.726600	0.618200
W951	W95	0.546790	0.916800	0.917270
W961	W96	0.350040	0.911870	0.760330
W971	W97	0.367330	0.786840	0.580890
W981	W98	0.277200	0.968010	0.632310
P131	P13	0.391600	0.909100	0.662870
O2971	O297	0.582600	0.837800	0.922700
O2981	O298	0.518000	0.994500	0.899500
O2991	O299	0.563100	0.923500	0.849800
O3001	O300	0.608700	0.953700	0.949000
O3011	O301	0.533200	0.901300	0.971500
O3021	O302	0.399800	0.920100	0.717400
O3031	O303	0.305600	0.954000	0.700200
O3041	O304	0.378200	0.991200	0.783800
O3051	O305	0.348500	0.750400	0.522200
O3061	O306	0.326100	0.866200	0.549100
O3071	O307	0.215100	0.967800	0.623600
O3081	O308	0.267800	0.959900	0.561900
O3091	O309	0.287300	0.050600	0.635500
O3101	O310	0.349100	0.951500	0.628400
W991	W99	0.509800	0.084780	0.887860
W1001	W100	0.676760	0.950980	0.957980
Cu371	Cu37	0.481530	0.853120	0.988040
Cu381	Cu38	0.278020	0.914990	0.861890
W1011	W101	0.386470	0.078910	0.788170
Cu391	Cu39	0.347420	0.683640	0.473380
Cu401	Cu40	0.148400	0.939960	0.601030
W1021	W102	0.314450	0.138190	0.665030
O3111	O311	0.577700	0.094400	0.922000
O3121	O312	0.531300	0.061000	0.825100
O3131	O313	0.492700	0.098500	0.939500
O3141	O314	0.508100	0.168000	0.866200
O3151	O315	0.447500	0.066900	0.841500
O3161	O316	0.668500	0.043900	0.943300
O3171	O317	0.277100	0.003500	0.855700
N851	N85	0.348800	0.922600	0.907300
O3181	O318	0.430900	0.060500	0.742100
O3191	O319	0.335700	0.091900	0.725600
O3201	O320	0.406200	0.164700	0.783000
O3211	O321	0.167500	0.855800	0.590500
N861	N86	0.078500	0.923300	0.566600
N871	N87	0.122700	0.028100	0.605300
O3221	O322	0.310900	0.154900	0.598300
O3231	O323	0.354700	0.202400	0.694100
O3241	O324	0.381100	0.093700	0.654400
W1031	W103	0.641010	0.121110	0.925870
P141	P14	0.567000	0.093170	0.804510
W1041	W104	0.544480	0.233980	0.849400
Cu411	Cu41	0.329730	0.056700	0.889380
H791	H79	0.248600	0.022100	0.834500
N881	N88	0.371200	0.980100	0.909500
W1051	W105	0.418610	0.234040	0.748440
H801	H80	0.185200	0.832700	0.618600
O3251	O325	0.599700	0.199100	0.890600
O3261	O326	0.552300	0.162500	0.792100
N891	N89	0.571400	0.087600	0.049700
N901	N90	0.575700	0.197400	0.013400
N911	N91	0.474300	0.221200	0.988700
O3271	O327	0.572000	0.277000	0.807000
O3281	O328	0.479500	0.246600	0.791700
N921	N92	0.088400	0.785900	0.525400
C1091	C109	0.582100	0.027900	0.064900
C1101	C110	0.617600	0.115200	0.067600
N931	N93	0.584500	0.255700	0.001200
C1111	C111	0.618700	0.179600	0.049700
N941	N94	0.484700	0.276100	0.970600
C1121	C112	0.430300	0.227800	0.990400
Cu421	Cu42	0.543850	0.323110	0.967780
H811	H81	0.559200	0.995900	0.058100
C1131	C113	0.629700	0.269900	0.028900
N951	N95	0.653000	0.223000	0.060200
C1141	C114	0.446300	0.312600	0.962500
H821	H82	0.414000	0.196700	0.001100
N961	N96	0.609500	0.367100	0.991200
N971	N97	0.497400	0.393400	0.951000
C1151	C115	0.646900	0.331900	0.020100
C1161	C116	0.452900	0.377000	0.948100
C1171	C117	0.618800	0.426000	0.980600
N981	N98	0.494500	0.454900	0.937700
C1181	C118	0.694500	0.351600	0.037400
C1191	C119	0.666100	0.449700	0.999500
H831	H83	0.593600	0.451100	0.960500
H841	H84	0.517900	0.478100	0.936200
C1201	C120	0.449800	0.472000	0.927500
H851	H85	0.719700	0.325000	0.055600
C1211	C121	0.703300	0.411900	0.026700
H861	H86	0.672100	0.491300	0.993500
C1221	C122	0.426200	0.531500	0.910800
H871	H87	0.735000	0.427200	0.038000
C1231	C123	0.448000	0.587100	0.907300
C1241	C124	0.351100	0.578400	0.875400
H881	H88	0.481700	0.588400	0.916500
C1251	C125	0.422800	0.639000	0.891300
C1261	C126	0.373300	0.634600	0.874600
H891	H89	0.317400	0.575600	0.862300
H901	H90	0.438200	0.677200	0.891500
H911	H91	0.354500	0.670200	0.862500
Na71	Na7	0.524800	0.959600	0.709700
O3291	O329	0.514400	0.960300	0.728600
W1061	W106	0.906810	0.188820	0.739720
O3301	O330	0.914400	0.248800	0.790300
O3311	O331	0.856300	0.229800	0.694600
O3321	O332	0.926300	0.142600	0.692300
O3331	O333	0.974800	0.160400	0.791000
O3341	O334	0.959300	0.251500	0.717400
W1071	W107	0.950450	0.308550	0.839490
W1081	W108	0.806730	0.296920	0.659290
W1091	W109	0.968120	0.180990	0.662010
O3351	O335	0.002400	0.248200	0.859200
O3361	O336	0.991900	0.375100	0.874300
O3371	O337	0.981000	0.335200	0.782800
O3381	O338	0.902000	0.370400	0.806200
O3391	O339	0.812400	0.264400	0.599300
O3401	O340	0.777300	0.369500	0.630500
O3411	O341	0.829500	0.334900	0.722900
O3421	O342	0.875000	0.340300	0.649100
O3431	O343	0.905500	0.226600	0.618200
W1101	W110	0.046790	0.416800	0.917270
W1111	W111	0.850040	0.411870	0.760330
W1121	W112	0.867330	0.286840	0.580890
W1131	W113	0.777200	0.468010	0.632310
P151	P15	0.891600	0.409100	0.662870
O3441	O344	0.082600	0.337800	0.922700
O3451	O345	0.018000	0.494500	0.899500
O3461	O346	0.063100	0.423500	0.849800
O3471	O347	0.108700	0.453700	0.949000
O3481	O348	0.033200	0.401300	0.971500
O3491	O349	0.899800	0.420100	0.717400
O3501	O350	0.805600	0.454000	0.700200
O3511	O351	0.878200	0.491200	0.783800
O3521	O352	0.848500	0.250400	0.522200
O3531	O353	0.826100	0.366200	0.549100
O3541	O354	0.715100	0.467800	0.623600
O3551	O355	0.767800	0.459900	0.561900
O3561	O356	0.787300	0.550600	0.635500
O3571	O357	0.849100	0.451500	0.628400
W1141	W114	0.009800	0.584780	0.887860
W1151	W115	0.176760	0.450980	0.957980
Cu431	Cu43	0.981530	0.353120	0.988040
Cu441	Cu44	0.778020	0.414990	0.861890
W1161	W116	0.886470	0.578910	0.788170
Cu451	Cu45	0.847420	0.183640	0.473380
Cu461	Cu46	0.648400	0.439960	0.601030
W1171	W117	0.814450	0.638190	0.665030
O3581	O358	0.077700	0.594400	0.922000
O3591	O359	0.031300	0.561000	0.825100
O3601	O360	0.992700	0.598500	0.939500
O3611	O361	0.008100	0.668000	0.866200
O3621	O362	0.947500	0.566900	0.841500
O3631	O363	0.168500	0.543900	0.943300
O3641	O364	0.777100	0.503500	0.855700
N991	N99	0.848800	0.422600	0.907300
O3651	O365	0.930900	0.560500	0.742100
O3661	O366	0.835700	0.591900	0.725600
O3671	O367	0.906200	0.664700	0.783000
O3681	O368	0.667500	0.355800	0.590500
N1001	N100	0.578500	0.423300	0.566600
N1011	N101	0.622700	0.528100	0.605300
O3691	O369	0.810900	0.654900	0.598300
O3701	O370	0.854700	0.702400	0.694100
O3711	O371	0.881100	0.593700	0.654400
W1181	W118	0.141010	0.621110	0.925870
P161	P16	0.067000	0.593170	0.804510
W1191	W119	0.044480	0.733980	0.849400
Cu471	Cu47	0.829730	0.556700	0.889380
H921	H92	0.748600	0.522100	0.834500
N1021	N102	0.871200	0.480100	0.909500
W1201	W120	0.918610	0.734040	0.748440
H931	H93	0.685200	0.332700	0.618600
O3721	O372	0.099700	0.699100	0.890600
O3731	O373	0.052300	0.662500	0.792100
N1031	N103	0.071400	0.587600	0.049700
N1041	N104	0.075700	0.697400	0.013400
N1051	N105	0.974300	0.721200	0.988700
O3741	O374	0.072000	0.777000	0.807000
O3751	O375	0.979500	0.746600	0.791700
N1061	N106	0.588400	0.285900	0.525400
C1271	C127	0.082100	0.527900	0.064900
C1281	C128	0.117600	0.615200	0.067600
N1071	N107	0.084500	0.755700	0.001200
C1291	C129	0.118700	0.679600	0.049700
N1081	N108	0.984700	0.776100	0.970600
C1301	C130	0.930300	0.727800	0.990400
Cu481	Cu48	0.043850	0.823110	0.967780
H941	H94	0.059200	0.495900	0.058100
C1311	C131	0.129700	0.769900	0.028900
N1091	N109	0.153000	0.723000	0.060200
C1321	C132	0.946300	0.812600	0.962500
H951	H95	0.914000	0.696700	0.001100
N1101	N110	0.109500	0.867100	0.991200
N1111	N111	0.997400	0.893400	0.951000
C1331	C133	0.146900	0.831900	0.020100
C1341	C134	0.952900	0.877000	0.948100
C1351	C135	0.118800	0.926000	0.980600
N1121	N112	0.994500	0.954900	0.937700
C1361	C136	0.194500	0.851600	0.037400
C1371	C137	0.166100	0.949700	0.999500
H961	H96	0.093600	0.951100	0.960500
H971	H97	0.017900	0.978100	0.936200
C1381	C138	0.949800	0.972000	0.927500
H981	H98	0.219700	0.825000	0.055600
C1391	C139	0.203300	0.911900	0.026700
H991	H99	0.172100	0.991300	0.993500
C1401	C140	0.926200	0.031500	0.910800
H1001	H100	0.235000	0.927200	0.038000
C1411	C141	0.948000	0.087100	0.907300
C1421	C142	0.851100	0.078400	0.875400
H1011	H101	0.981700	0.088400	0.916500
C1431	C143	0.922800	0.139000	0.891300
C1441	C144	0.873300	0.134600	0.874600
H1021	H102	0.817400	0.075600	0.862300
H1031	H103	0.938200	0.177200	0.891500
H1041	H104	0.854500	0.170200	0.862500
Na81	Na8	0.024800	0.459600	0.709700
O3761	O376	0.014400	0.460300	0.728600
P171	P17	0.500000	0.205300	0.250000
P181	P18	0.000000	0.705300	0.250000
P191	P19	0.500000	0.794700	0.750000
P201	P20	0.000000	0.294700	0.750000
