data_JUNBUR_clean_PM
_symmetry_space_group_name_H-M	'P1'
_cell_length_a	10.240000
_cell_length_b	13.772000
_cell_length_c	16.700000
_cell_angle_alpha	90.000000
_cell_angle_beta	127.046000
_cell_angle_gamma	90.000000
_symmetry_Int_Tables_number 1

loop_
_symmetry_equiv_pos_as_xyz
'x,y,z'

loop_
_atom_site_label
_atom_site_type_symbol
_atom_site_fract_x
_atom_site_fract_y
_atom_site_fract_z
Cd11	Cd1	0.582200	0.424130	0.938140
O11	O1	0.680500	0.545800	0.053300
O21	O2	0.666600	0.648000	0.148400
O31	O3	0.200800	0.547100	0.077300
O41	O4	0.387600	0.656900	0.174300
O51	O5	0.366000	0.833200	0.427300
O61	O6	0.171100	0.794100	0.440800
C11	C1	0.740000	0.609600	0.117900
C21	C2	0.912800	0.644000	0.166100
C31	C3	0.998500	0.615200	0.130500
H11	H1	0.948500	0.575300	0.074400
C41	C4	0.158200	0.645400	0.178000
C51	C5	0.253500	0.614500	0.140200
C61	C6	0.233100	0.703900	0.260900
H21	H2	0.339100	0.725900	0.291400
C71	C7	0.148400	0.730500	0.299900
C81	C8	0.234700	0.790300	0.395700
C91	C9	0.991000	0.701100	0.253400
H31	H3	0.935500	0.718800	0.279300
Cd21	Cd2	0.417800	0.924130	0.561860
O71	O7	0.319500	0.045800	0.446700
O81	O8	0.333400	0.148000	0.351600
O91	O9	0.799200	0.047100	0.422700
O101	O10	0.612400	0.156900	0.325700
O111	O11	0.634000	0.333200	0.072700
O121	O12	0.828900	0.294100	0.059200
C101	C10	0.260000	0.109600	0.382100
C111	C11	0.087200	0.144000	0.333900
C121	C12	0.001500	0.115200	0.369500
H41	H4	0.051500	0.075300	0.425600
C131	C13	0.841800	0.145400	0.322000
C141	C14	0.746500	0.114500	0.359800
C151	C15	0.766900	0.203900	0.239100
H51	H5	0.660900	0.225900	0.208600
C161	C16	0.851600	0.230500	0.200100
C171	C17	0.765300	0.290300	0.104300
C181	C18	0.009000	0.201100	0.246600
H61	H6	0.064500	0.218800	0.220700
Cd31	Cd3	0.417800	0.575870	0.061860
O131	O13	0.319500	0.454200	0.946700
O141	O14	0.333400	0.352000	0.851600
O151	O15	0.799200	0.452900	0.922700
O161	O16	0.612400	0.343100	0.825700
O171	O17	0.634000	0.166800	0.572700
O181	O18	0.828900	0.205900	0.559200
C191	C19	0.260000	0.390400	0.882100
C201	C20	0.087200	0.356000	0.833900
C211	C21	0.001500	0.384800	0.869500
H71	H7	0.051500	0.424700	0.925600
C221	C22	0.841800	0.354600	0.822000
C231	C23	0.746500	0.385500	0.859800
C241	C24	0.766900	0.296100	0.739100
H81	H8	0.660900	0.274100	0.708600
C251	C25	0.851600	0.269500	0.700100
C261	C26	0.765300	0.209700	0.604300
C271	C27	0.009000	0.298900	0.746600
H91	H9	0.064500	0.281200	0.720700
Cd41	Cd4	0.582200	0.075870	0.438140
O191	O19	0.680500	0.954200	0.553300
O201	O20	0.666600	0.852000	0.648400
O211	O21	0.200800	0.952900	0.577300
O221	O22	0.387600	0.843100	0.674300
O231	O23	0.366000	0.666800	0.927300
O241	O24	0.171100	0.705900	0.940800
C281	C28	0.740000	0.890400	0.617900
C291	C29	0.912800	0.856000	0.666100
C301	C30	0.998500	0.884800	0.630500
H101	H10	0.948500	0.924700	0.574400
C311	C31	0.158200	0.854600	0.678000
C321	C32	0.253500	0.885500	0.640200
C331	C33	0.233100	0.796100	0.760900
H111	H11	0.339100	0.774100	0.791400
C341	C34	0.148400	0.769500	0.799900
C351	C35	0.234700	0.709700	0.895700
C361	C36	0.991000	0.798900	0.753400
H121	H12	0.935500	0.781200	0.779300
