data_JURKIS_clean_PM
_symmetry_space_group_name_H-M	'P1'
_cell_length_a	19.678600
_cell_length_b	22.770300
_cell_length_c	14.834400
_cell_angle_alpha	90.000000
_cell_angle_beta	104.147000
_cell_angle_gamma	90.000000
_symmetry_Int_Tables_number 1

loop_
_symmetry_equiv_pos_as_xyz
'x,y,z'

loop_
_atom_site_label
_atom_site_type_symbol
_atom_site_fract_x
_atom_site_fract_y
_atom_site_fract_z
Mn11	Mn1	0.030550	0.569620	0.533780
Mn21	Mn2	0.057140	0.560690	0.788140
O11	O1	0.037150	0.478350	0.586400
O21	O2	0.094720	0.483280	0.736100
O31	O3	0.178630	0.391660	0.722600
O41	O4	0.879640	0.450450	0.516400
O51	O5	0.891700	0.393000	0.641300
O61	O6	0.785680	0.450900	0.690700
O71	O7	0.939470	0.909000	0.081700
O81	O8	0.952400	0.935600	0.227300
O91	O9	0.095100	0.891910	0.159700
O101	O10	0.157900	0.893300	0.303200
O111	O11	0.199780	0.833280	0.105800
O121	O12	0.802620	0.890890	0.063700
C11	C1	0.082200	0.459700	0.658200
C21	C2	0.122300	0.405400	0.642900
H11	H1	0.090300	0.372300	0.629700
H21	H2	0.141500	0.411400	0.589300
C31	C3	0.236700	0.426100	0.737400
C41	C4	0.290800	0.410500	0.813300
H31	H3	0.285000	0.378800	0.850300
C51	C5	0.353200	0.441800	0.834400
C61	C6	0.361100	0.489310	0.777700
C71	C7	0.307100	0.504200	0.702200
C81	C8	0.244600	0.473400	0.681500
H41	H4	0.208400	0.484100	0.631100
C91	C9	0.315600	0.553600	0.637200
H51	H5	0.270200	0.566500	0.602700
H61	H6	0.341900	0.539800	0.594800
H71	H7	0.339900	0.585800	0.672800
C101	C10	0.411600	0.422700	0.914200
H81	H8	0.433100	0.456500	0.948000
H91	H9	0.445900	0.401400	0.891000
H101	H10	0.393200	0.397700	0.954800
C111	C11	0.426200	0.526350	0.799600
C121	C12	0.485700	0.508200	0.774600
H111	H11	0.485100	0.472000	0.745500
C131	C13	0.546700	0.541200	0.790400
C141	C14	0.548300	0.596700	0.833200
C151	C15	0.488100	0.616300	0.861200
C161	C16	0.426600	0.580520	0.844200
C171	C17	0.366900	0.601600	0.874400
H121	H12	0.326500	0.578700	0.863500
C181	C18	0.367900	0.654100	0.918600
H131	H13	0.328400	0.666300	0.937400
C191	C19	0.428800	0.691030	0.936700
C201	C20	0.488700	0.671600	0.908100
C211	C21	0.550600	0.706900	0.925700
C221	C22	0.609700	0.686000	0.895200
H141	H14	0.650200	0.708700	0.906100
C231	C23	0.608300	0.633900	0.850700
H151	H15	0.647500	0.622100	0.831000
C241	C24	0.551500	0.760400	0.974300
C251	C25	0.492000	0.778000	0.000900
H161	H16	0.493100	0.813600	0.031800
C261	C26	0.430600	0.744900	0.984000
C271	C27	0.311700	0.805200	0.856300
H171	H17	0.265300	0.816300	0.823100
H181	H18	0.325100	0.769800	0.830200
H191	H19	0.344000	0.836100	0.851500
C281	C28	0.369400	0.767100	0.017600
C291	C29	0.369500	0.761100	0.109900
C301	C30	0.429800	0.731900	0.177000
H201	H20	0.423300	0.734900	0.239000
H211	H21	0.472800	0.750800	0.174200
H221	H22	0.431700	0.691200	0.160700
C311	C31	0.313400	0.783300	0.142000
H231	H23	0.313900	0.780800	0.204700
C321	C32	0.257000	0.809200	0.080100
C331	C33	0.257500	0.815300	0.989600
H241	H24	0.219800	0.833300	0.948800
C341	C34	0.313100	0.795200	0.957000
C351	C35	0.205000	0.837500	0.201500
H251	H25	0.250700	0.852800	0.232500
H261	H26	0.200200	0.798800	0.226500
C361	C36	0.148200	0.877900	0.220200
C371	C37	0.616500	0.796000	0.000100
C381	C38	0.634900	0.834300	0.935900
C391	C39	0.697100	0.865500	0.961000
H271	H27	0.709500	0.890600	0.918200
C401	C40	0.741300	0.859800	0.049500
C411	C41	0.722700	0.823500	0.113900
H281	H28	0.751800	0.820400	0.173400
C421	C42	0.660500	0.791200	0.090200
C431	C43	0.641800	0.752200	0.162400
H291	H29	0.683000	0.744700	0.211000
H301	H30	0.623300	0.715800	0.134300
H311	H31	0.607300	0.771400	0.187900
C441	C44	0.587100	0.842800	0.841500
H321	H32	0.604900	0.873700	0.809700
H331	H33	0.541100	0.853100	0.847700
H341	H34	0.584600	0.807100	0.806500
C451	C45	0.846000	0.892600	0.154500
H351	H35	0.848900	0.853700	0.181900
H361	H36	0.825900	0.918900	0.192500
C461	C46	0.919700	0.914000	0.152700
C471	C47	0.609400	0.518200	0.761800
C481	C48	0.619400	0.530700	0.673800
C491	C49	0.678300	0.508200	0.648000
H371	H37	0.685200	0.516600	0.589600
C501	C50	0.726000	0.473600	0.708900
C511	C51	0.715400	0.461200	0.794700
H381	H38	0.747400	0.437400	0.835000
C521	C52	0.658100	0.483100	0.823000
C531	C53	0.648500	0.468500	0.917600
H391	H39	0.688100	0.446400	0.951400
H401	H40	0.606600	0.445700	0.911400
H411	H41	0.644600	0.504200	0.950500
C541	C54	0.567600	0.567100	0.607100
H421	H42	0.582000	0.570900	0.550100
H431	H43	0.564900	0.605400	0.633300
H441	H44	0.522400	0.548700	0.595000
C551	C55	0.795900	0.461800	0.601000
H451	H45	0.798300	0.503800	0.591800
H461	H46	0.756000	0.446700	0.554700
C561	C56	0.862800	0.433100	0.587300
Mn31	Mn3	0.969450	0.069620	0.966220
Mn41	Mn4	0.942860	0.060690	0.711860
O131	O13	0.962850	0.978350	0.913600
O141	O14	0.905280	0.983280	0.763900
O151	O15	0.821370	0.891660	0.777400
O161	O16	0.120360	0.950450	0.983600
O171	O17	0.108300	0.893000	0.858700
O181	O18	0.214320	0.950900	0.809300
O191	O19	0.060530	0.409000	0.418300
O201	O20	0.047600	0.435600	0.272700
O211	O21	0.904900	0.391910	0.340300
O221	O22	0.842100	0.393300	0.196800
O231	O23	0.800220	0.333280	0.394200
O241	O24	0.197380	0.390890	0.436300
C571	C57	0.917800	0.959700	0.841800
C581	C58	0.877700	0.905400	0.857100
H471	H47	0.909700	0.872300	0.870300
H481	H48	0.858500	0.911400	0.910700
C591	C59	0.763300	0.926100	0.762600
C601	C60	0.709200	0.910500	0.686700
H491	H49	0.715000	0.878800	0.649700
C611	C61	0.646800	0.941800	0.665600
C621	C62	0.638900	0.989310	0.722300
C631	C63	0.692900	0.004200	0.797800
C641	C64	0.755400	0.973400	0.818500
H501	H50	0.791600	0.984100	0.868900
C651	C65	0.684400	0.053600	0.862800
H511	H51	0.729800	0.066500	0.897300
H521	H52	0.658100	0.039800	0.905200
H531	H53	0.660100	0.085800	0.827200
C661	C66	0.588400	0.922700	0.585800
H541	H54	0.566900	0.956500	0.552000
H551	H55	0.554100	0.901400	0.609000
H561	H56	0.606800	0.897700	0.545200
C671	C67	0.573800	0.026350	0.700400
C681	C68	0.514300	0.008200	0.725400
H571	H57	0.514900	0.972000	0.754500
C691	C69	0.453300	0.041200	0.709600
C701	C70	0.451700	0.096700	0.666800
C711	C71	0.511900	0.116300	0.638800
C721	C72	0.573400	0.080520	0.655800
C731	C73	0.633100	0.101600	0.625600
H581	H58	0.673500	0.078700	0.636500
C741	C74	0.632100	0.154100	0.581400
H591	H59	0.671600	0.166300	0.562600
C751	C75	0.571200	0.191030	0.563300
C761	C76	0.511300	0.171600	0.591900
C771	C77	0.449400	0.206900	0.574300
C781	C78	0.390300	0.186000	0.604800
H601	H60	0.349800	0.208700	0.593900
C791	C79	0.391700	0.133900	0.649300
H611	H61	0.352500	0.122100	0.669000
C801	C80	0.448500	0.260400	0.525700
C811	C81	0.508000	0.278000	0.499100
H621	H62	0.506900	0.313600	0.468200
C821	C82	0.569400	0.244900	0.516000
C831	C83	0.688300	0.305200	0.643700
H631	H63	0.734700	0.316300	0.676900
H641	H64	0.674900	0.269800	0.669800
H651	H65	0.656000	0.336100	0.648500
C841	C84	0.630600	0.267100	0.482400
C851	C85	0.630500	0.261100	0.390100
C861	C86	0.570200	0.231900	0.323000
H661	H66	0.576700	0.234900	0.261000
H671	H67	0.527200	0.250800	0.325800
H681	H68	0.568300	0.191200	0.339300
C871	C87	0.686600	0.283300	0.358000
H691	H69	0.686100	0.280800	0.295300
C881	C88	0.743000	0.309200	0.419900
C891	C89	0.742500	0.315300	0.510400
H701	H70	0.780200	0.333300	0.551200
C901	C90	0.686900	0.295200	0.543000
C911	C91	0.795000	0.337500	0.298500
H711	H71	0.749300	0.352800	0.267500
H721	H72	0.799800	0.298800	0.273500
C921	C92	0.851800	0.377900	0.279800
C931	C93	0.383500	0.296000	0.499900
C941	C94	0.365100	0.334300	0.564100
C951	C95	0.302900	0.365500	0.539000
H731	H73	0.290500	0.390600	0.581800
C961	C96	0.258700	0.359800	0.450500
C971	C97	0.277300	0.323500	0.386100
H741	H74	0.248200	0.320400	0.326600
C981	C98	0.339500	0.291200	0.409800
C991	C99	0.358200	0.252200	0.337600
H751	H75	0.317000	0.244700	0.289000
H761	H76	0.376700	0.215800	0.365700
H771	H77	0.392700	0.271400	0.312100
C1001	C100	0.412900	0.342800	0.658500
H781	H78	0.395100	0.373700	0.690300
H791	H79	0.458900	0.353100	0.652300
H801	H80	0.415400	0.307100	0.693500
C1011	C101	0.154000	0.392600	0.345500
H811	H81	0.151100	0.353700	0.318100
H821	H82	0.174100	0.418900	0.307500
C1021	C102	0.080300	0.414000	0.347300
C1031	C103	0.390600	0.018200	0.738200
C1041	C104	0.380600	0.030700	0.826200
C1051	C105	0.321700	0.008200	0.852000
H831	H83	0.314800	0.016600	0.910400
C1061	C106	0.274000	0.973600	0.791100
C1071	C107	0.284600	0.961200	0.705300
H841	H84	0.252600	0.937400	0.665000
C1081	C108	0.341900	0.983100	0.677000
C1091	C109	0.351500	0.968500	0.582400
H851	H85	0.311900	0.946400	0.548600
H861	H86	0.393400	0.945700	0.588600
H871	H87	0.355400	0.004200	0.549500
C1101	C110	0.432400	0.067100	0.892900
H881	H88	0.418000	0.070900	0.949900
H891	H89	0.435100	0.105400	0.866700
H901	H90	0.477600	0.048700	0.905000
C1111	C111	0.204100	0.961800	0.899000
H911	H91	0.201700	0.003800	0.908200
H921	H92	0.244000	0.946700	0.945300
C1121	C112	0.137200	0.933100	0.912700
Mn51	Mn5	0.969450	0.430380	0.466220
Mn61	Mn6	0.942860	0.439310	0.211860
O251	O25	0.962850	0.521650	0.413600
O261	O26	0.905280	0.516720	0.263900
O271	O27	0.821370	0.608340	0.277400
O281	O28	0.120360	0.549550	0.483600
O291	O29	0.108300	0.607000	0.358700
O301	O30	0.214320	0.549100	0.309300
O311	O31	0.060530	0.091000	0.918300
O321	O32	0.047600	0.064400	0.772700
O331	O33	0.904900	0.108090	0.840300
O341	O34	0.842100	0.106700	0.696800
O351	O35	0.800220	0.166720	0.894200
O361	O36	0.197380	0.109110	0.936300
C1131	C113	0.917800	0.540300	0.341800
C1141	C114	0.877700	0.594600	0.357100
H931	H93	0.909700	0.627700	0.370300
H941	H94	0.858500	0.588600	0.410700
C1151	C115	0.763300	0.573900	0.262600
C1161	C116	0.709200	0.589500	0.186700
H951	H95	0.715000	0.621200	0.149700
C1171	C117	0.646800	0.558200	0.165600
C1181	C118	0.638900	0.510690	0.222300
C1191	C119	0.692900	0.495800	0.297800
C1201	C120	0.755400	0.526600	0.318500
H961	H96	0.791600	0.515900	0.368900
C1211	C121	0.684400	0.446400	0.362800
H971	H97	0.729800	0.433500	0.397300
H981	H98	0.658100	0.460200	0.405200
H991	H99	0.660100	0.414200	0.327200
C1221	C122	0.588400	0.577300	0.085800
H1001	H100	0.566900	0.543500	0.052000
H1011	H101	0.554100	0.598600	0.109000
H1021	H102	0.606800	0.602300	0.045200
C1231	C123	0.573800	0.473650	0.200400
C1241	C124	0.514300	0.491800	0.225400
H1031	H103	0.514900	0.528000	0.254500
C1251	C125	0.453300	0.458800	0.209600
C1261	C126	0.451700	0.403300	0.166800
C1271	C127	0.511900	0.383700	0.138800
C1281	C128	0.573400	0.419480	0.155800
C1291	C129	0.633100	0.398400	0.125600
H1041	H104	0.673500	0.421300	0.136500
C1301	C130	0.632100	0.345900	0.081400
H1051	H105	0.671600	0.333700	0.062600
C1311	C131	0.571200	0.308970	0.063300
C1321	C132	0.511300	0.328400	0.091900
C1331	C133	0.449400	0.293100	0.074300
C1341	C134	0.390300	0.314000	0.104800
H1061	H106	0.349800	0.291300	0.093900
C1351	C135	0.391700	0.366100	0.149300
H1071	H107	0.352500	0.377900	0.169000
C1361	C136	0.448500	0.239600	0.025700
C1371	C137	0.508000	0.222000	0.999100
H1081	H108	0.506900	0.186400	0.968200
C1381	C138	0.569400	0.255100	0.016000
C1391	C139	0.688300	0.194800	0.143700
H1091	H109	0.734700	0.183700	0.176900
H1101	H110	0.674900	0.230200	0.169800
H1111	H111	0.656000	0.163900	0.148500
C1401	C140	0.630600	0.232900	0.982400
C1411	C141	0.630500	0.238900	0.890100
C1421	C142	0.570200	0.268100	0.823000
H1121	H112	0.576700	0.265100	0.761000
H1131	H113	0.527200	0.249200	0.825800
H1141	H114	0.568300	0.308800	0.839300
C1431	C143	0.686600	0.216700	0.858000
H1151	H115	0.686100	0.219200	0.795300
C1441	C144	0.743000	0.190800	0.919900
C1451	C145	0.742500	0.184700	0.010400
H1161	H116	0.780200	0.166700	0.051200
C1461	C146	0.686900	0.204800	0.043000
C1471	C147	0.795000	0.162500	0.798500
H1171	H117	0.749300	0.147200	0.767500
H1181	H118	0.799800	0.201200	0.773500
C1481	C148	0.851800	0.122100	0.779800
C1491	C149	0.383500	0.204000	0.999900
C1501	C150	0.365100	0.165700	0.064100
C1511	C151	0.302900	0.134500	0.039000
H1191	H119	0.290500	0.109400	0.081800
C1521	C152	0.258700	0.140200	0.950500
C1531	C153	0.277300	0.176500	0.886100
H1201	H120	0.248200	0.179600	0.826600
C1541	C154	0.339500	0.208800	0.909800
C1551	C155	0.358200	0.247800	0.837600
H1211	H121	0.317000	0.255300	0.789000
H1221	H122	0.376700	0.284200	0.865700
H1231	H123	0.392700	0.228600	0.812100
C1561	C156	0.412900	0.157200	0.158500
H1241	H124	0.395100	0.126300	0.190300
H1251	H125	0.458900	0.146900	0.152300
H1261	H126	0.415400	0.192900	0.193500
C1571	C157	0.154000	0.107400	0.845500
H1271	H127	0.151100	0.146300	0.818100
H1281	H128	0.174100	0.081100	0.807500
C1581	C158	0.080300	0.086000	0.847300
C1591	C159	0.390600	0.481800	0.238200
C1601	C160	0.380600	0.469300	0.326200
C1611	C161	0.321700	0.491800	0.352000
H1291	H129	0.314800	0.483400	0.410400
C1621	C162	0.274000	0.526400	0.291100
C1631	C163	0.284600	0.538800	0.205300
H1301	H130	0.252600	0.562600	0.165000
C1641	C164	0.341900	0.516900	0.177000
C1651	C165	0.351500	0.531500	0.082400
H1311	H131	0.311900	0.553600	0.048600
H1321	H132	0.393400	0.554300	0.088600
H1331	H133	0.355400	0.495800	0.049500
C1661	C166	0.432400	0.432900	0.392900
H1341	H134	0.418000	0.429100	0.449900
H1351	H135	0.435100	0.394600	0.366700
H1361	H136	0.477600	0.451300	0.405000
C1671	C167	0.204100	0.538200	0.399000
H1371	H137	0.201700	0.496200	0.408200
H1381	H138	0.244000	0.553300	0.445300
C1681	C168	0.137200	0.566900	0.412700
Mn71	Mn7	0.030550	0.930380	0.033780
Mn81	Mn8	0.057140	0.939310	0.288140
O371	O37	0.037150	0.021650	0.086400
O381	O38	0.094720	0.016720	0.236100
O391	O39	0.178630	0.108340	0.222600
O401	O40	0.879640	0.049550	0.016400
O411	O41	0.891700	0.107000	0.141300
O421	O42	0.785680	0.049100	0.190700
O431	O43	0.939470	0.591000	0.581700
O441	O44	0.952400	0.564400	0.727300
O451	O45	0.095100	0.608090	0.659700
O461	O46	0.157900	0.606700	0.803200
O471	O47	0.199780	0.666720	0.605800
O481	O48	0.802620	0.609110	0.563700
C1691	C169	0.082200	0.040300	0.158200
C1701	C170	0.122300	0.094600	0.142900
H1391	H139	0.090300	0.127700	0.129700
H1401	H140	0.141500	0.088600	0.089300
C1711	C171	0.236700	0.073900	0.237400
C1721	C172	0.290800	0.089500	0.313300
H1411	H141	0.285000	0.121200	0.350300
C1731	C173	0.353200	0.058200	0.334400
C1741	C174	0.361100	0.010690	0.277700
C1751	C175	0.307100	0.995800	0.202200
C1761	C176	0.244600	0.026600	0.181500
H1421	H142	0.208400	0.015900	0.131100
C1771	C177	0.315600	0.946400	0.137200
H1431	H143	0.270200	0.933500	0.102700
H1441	H144	0.341900	0.960200	0.094800
H1451	H145	0.339900	0.914200	0.172800
C1781	C178	0.411600	0.077300	0.414200
H1461	H146	0.433100	0.043500	0.448000
H1471	H147	0.445900	0.098600	0.391000
H1481	H148	0.393200	0.102300	0.454800
C1791	C179	0.426200	0.973650	0.299600
C1801	C180	0.485700	0.991800	0.274600
H1491	H149	0.485100	0.028000	0.245500
C1811	C181	0.546700	0.958800	0.290400
C1821	C182	0.548300	0.903300	0.333200
C1831	C183	0.488100	0.883700	0.361200
C1841	C184	0.426600	0.919480	0.344200
C1851	C185	0.366900	0.898400	0.374400
H1501	H150	0.326500	0.921300	0.363500
C1861	C186	0.367900	0.845900	0.418600
H1511	H151	0.328400	0.833700	0.437400
C1871	C187	0.428800	0.808970	0.436700
C1881	C188	0.488700	0.828400	0.408100
C1891	C189	0.550600	0.793100	0.425700
C1901	C190	0.609700	0.814000	0.395200
H1521	H152	0.650200	0.791300	0.406100
C1911	C191	0.608300	0.866100	0.350700
H1531	H153	0.647500	0.877900	0.331000
C1921	C192	0.551500	0.739600	0.474300
C1931	C193	0.492000	0.722000	0.500900
H1541	H154	0.493100	0.686400	0.531800
C1941	C194	0.430600	0.755100	0.484000
C1951	C195	0.311700	0.694800	0.356300
H1551	H155	0.265300	0.683700	0.323100
H1561	H156	0.325100	0.730200	0.330200
H1571	H157	0.344000	0.663900	0.351500
C1961	C196	0.369400	0.732900	0.517600
C1971	C197	0.369500	0.738900	0.609900
C1981	C198	0.429800	0.768100	0.677000
H1581	H158	0.423300	0.765100	0.739000
H1591	H159	0.472800	0.749200	0.674200
H1601	H160	0.431700	0.808800	0.660700
C1991	C199	0.313400	0.716700	0.642000
H1611	H161	0.313900	0.719200	0.704700
C2001	C200	0.257000	0.690800	0.580100
C2011	C201	0.257500	0.684700	0.489600
H1621	H162	0.219800	0.666700	0.448800
C2021	C202	0.313100	0.704800	0.457000
C2031	C203	0.205000	0.662500	0.701500
H1631	H163	0.250700	0.647200	0.732500
H1641	H164	0.200200	0.701200	0.726500
C2041	C204	0.148200	0.622100	0.720200
C2051	C205	0.616500	0.704000	0.500100
C2061	C206	0.634900	0.665700	0.435900
C2071	C207	0.697100	0.634500	0.461000
H1651	H165	0.709500	0.609400	0.418200
C2081	C208	0.741300	0.640200	0.549500
C2091	C209	0.722700	0.676500	0.613900
H1661	H166	0.751800	0.679600	0.673400
C2101	C210	0.660500	0.708800	0.590200
C2111	C211	0.641800	0.747800	0.662400
H1671	H167	0.683000	0.755300	0.711000
H1681	H168	0.623300	0.784200	0.634300
H1691	H169	0.607300	0.728600	0.687900
C2121	C212	0.587100	0.657200	0.341500
H1701	H170	0.604900	0.626300	0.309700
H1711	H171	0.541100	0.646900	0.347700
H1721	H172	0.584600	0.692900	0.306500
C2131	C213	0.846000	0.607400	0.654500
H1731	H173	0.848900	0.646300	0.681900
H1741	H174	0.825900	0.581100	0.692500
C2141	C214	0.919700	0.586000	0.652700
C2151	C215	0.609400	0.981800	0.261800
C2161	C216	0.619400	0.969300	0.173800
C2171	C217	0.678300	0.991800	0.148000
H1751	H175	0.685200	0.983400	0.089600
C2181	C218	0.726000	0.026400	0.208900
C2191	C219	0.715400	0.038800	0.294700
H1761	H176	0.747400	0.062600	0.335000
C2201	C220	0.658100	0.016900	0.323000
C2211	C221	0.648500	0.031500	0.417600
H1771	H177	0.688100	0.053600	0.451400
H1781	H178	0.606600	0.054300	0.411400
H1791	H179	0.644600	0.995800	0.450500
C2221	C222	0.567600	0.932900	0.107100
H1801	H180	0.582000	0.929100	0.050100
H1811	H181	0.564900	0.894600	0.133300
H1821	H182	0.522400	0.951300	0.095000
C2231	C223	0.795900	0.038200	0.101000
H1831	H183	0.798300	0.996200	0.091800
H1841	H184	0.756000	0.053300	0.054700
C2241	C224	0.862800	0.066900	0.087300
