data_JUSBAC_clean_PM
_symmetry_space_group_name_H-M	'P1'
_cell_length_a	27.681700
_cell_length_b	10.269400
_cell_length_c	20.635600
_cell_angle_alpha	90.000000
_cell_angle_beta	123.241000
_cell_angle_gamma	90.000000
_symmetry_Int_Tables_number 1

loop_
_symmetry_equiv_pos_as_xyz
'x,y,z'

loop_
_atom_site_label
_atom_site_type_symbol
_atom_site_fract_x
_atom_site_fract_y
_atom_site_fract_z
Cd11	Cd1	0.824890	0.797450	0.548250
Cd21	Cd2	0.957070	0.978300	0.635390
O11	O1	0.905680	0.791100	0.540600
O21	O2	0.738380	0.151000	0.044360
O31	O3	0.700760	0.465400	0.029780
N11	N1	0.928440	0.884700	0.712030
O41	O4	0.664500	0.064200	0.937860
N21	N2	0.955040	0.878000	0.788830
O51	O5	0.947880	0.953900	0.520360
N31	N3	0.879100	0.817600	0.676140
O61	O6	0.631710	0.581200	0.929850
C11	C1	0.873310	0.764900	0.731930
C21	C2	0.761690	0.915400	0.124350
H11	H1	0.780700	0.990700	0.151400
C31	C3	0.815130	0.797500	0.250070
C41	C4	0.721260	0.923000	0.045290
C51	C5	0.914630	0.856600	0.496140
C61	C6	0.692230	0.811800	0.003950
H21	H2	0.664400	0.816800	0.951100
C71	C7	0.774570	0.798400	0.164340
C81	C8	0.707190	0.052500	0.005590
C91	C9	0.705050	0.693600	0.042030
C101	C10	0.745890	0.687000	0.121620
H31	H3	0.754200	0.606900	0.146700
C111	C11	0.676160	0.571000	0.996760
C121	C12	0.921500	0.802900	0.803280
C131	C13	0.806150	0.719900	0.297200
H41	H4	0.776800	0.658200	0.274800
C141	C14	0.927370	0.766000	0.873500
H51	H5	0.959000	0.791700	0.921500
C151	C15	0.839960	0.732100	0.377200
H61	H6	0.833300	0.678500	0.407800
C161	C16	0.883860	0.824400	0.411690
C171	C17	0.895580	0.896300	0.364770
H71	H7	0.926400	0.954400	0.387200
C181	C18	0.861990	0.882500	0.285160
H81	H8	0.870800	0.930500	0.254700
C191	C19	0.830190	0.685600	0.726800
H91	H9	0.798600	0.658000	0.679300
C201	C20	0.836860	0.651000	0.794700
H101	H10	0.808900	0.598500	0.793200
C211	C21	0.884420	0.691200	0.867400
H111	H11	0.886500	0.666100	0.912100
Cd31	Cd3	0.324890	0.297450	0.548250
Cd41	Cd4	0.457070	0.478300	0.635390
O71	O7	0.405680	0.291100	0.540600
O81	O8	0.238380	0.651000	0.044360
O91	O9	0.200760	0.965400	0.029780
N41	N4	0.428440	0.384700	0.712030
O101	O10	0.164500	0.564200	0.937860
N51	N5	0.455040	0.378000	0.788830
O111	O11	0.447880	0.453900	0.520360
N61	N6	0.379100	0.317600	0.676140
O121	O12	0.131710	0.081200	0.929850
C221	C22	0.373310	0.264900	0.731930
C231	C23	0.261690	0.415400	0.124350
H121	H12	0.280700	0.490700	0.151400
C241	C24	0.315130	0.297500	0.250070
C251	C25	0.221260	0.423000	0.045290
C261	C26	0.414630	0.356600	0.496140
C271	C27	0.192230	0.311800	0.003950
H131	H13	0.164400	0.316800	0.951100
C281	C28	0.274570	0.298400	0.164340
C291	C29	0.207190	0.552500	0.005590
C301	C30	0.205050	0.193600	0.042030
C311	C31	0.245890	0.187000	0.121620
H141	H14	0.254200	0.106900	0.146700
C321	C32	0.176160	0.071000	0.996760
C331	C33	0.421500	0.302900	0.803280
C341	C34	0.306150	0.219900	0.297200
H151	H15	0.276800	0.158200	0.274800
C351	C35	0.427370	0.266000	0.873500
H161	H16	0.459000	0.291700	0.921500
C361	C36	0.339960	0.232100	0.377200
H171	H17	0.333300	0.178500	0.407800
C371	C37	0.383860	0.324400	0.411690
C381	C38	0.395580	0.396300	0.364770
H181	H18	0.426400	0.454400	0.387200
C391	C39	0.361990	0.382500	0.285160
H191	H19	0.370800	0.430500	0.254700
C401	C40	0.330190	0.185600	0.726800
H201	H20	0.298600	0.158000	0.679300
C411	C41	0.336860	0.151000	0.794700
H211	H21	0.308900	0.098500	0.793200
C421	C42	0.384420	0.191200	0.867400
H221	H22	0.386500	0.166100	0.912100
Cd51	Cd5	0.175110	0.797450	0.951750
Cd61	Cd6	0.042930	0.978300	0.864610
O131	O13	0.094320	0.791100	0.959400
O141	O14	0.261620	0.151000	0.455640
O151	O15	0.299240	0.465400	0.470220
N71	N7	0.071560	0.884700	0.787970
O161	O16	0.335500	0.064200	0.562140
N81	N8	0.044960	0.878000	0.711170
O171	O17	0.052120	0.953900	0.979640
N91	N9	0.120900	0.817600	0.823860
O181	O18	0.368290	0.581200	0.570150
C431	C43	0.126690	0.764900	0.768070
C441	C44	0.238310	0.915400	0.375650
H231	H23	0.219300	0.990700	0.348600
C451	C45	0.184870	0.797500	0.249930
C461	C46	0.278740	0.923000	0.454710
C471	C47	0.085370	0.856600	0.003860
C481	C48	0.307770	0.811800	0.496050
H241	H24	0.335600	0.816800	0.548900
C491	C49	0.225430	0.798400	0.335660
C501	C50	0.292810	0.052500	0.494410
C511	C51	0.294950	0.693600	0.457970
C521	C52	0.254110	0.687000	0.378380
H251	H25	0.245800	0.606900	0.353300
C531	C53	0.323840	0.571000	0.503240
C541	C54	0.078500	0.802900	0.696720
C551	C55	0.193850	0.719900	0.202800
H261	H26	0.223200	0.658200	0.225200
C561	C56	0.072630	0.766000	0.626500
H271	H27	0.041000	0.791700	0.578500
C571	C57	0.160040	0.732100	0.122800
H281	H28	0.166700	0.678500	0.092200
C581	C58	0.116140	0.824400	0.088310
C591	C59	0.104420	0.896300	0.135230
H291	H29	0.073600	0.954400	0.112800
C601	C60	0.138010	0.882500	0.214840
H301	H30	0.129200	0.930500	0.245300
C611	C61	0.169810	0.685600	0.773200
H311	H31	0.201400	0.658000	0.820700
C621	C62	0.163140	0.651000	0.705300
H321	H32	0.191100	0.598500	0.706800
C631	C63	0.115580	0.691200	0.632600
H331	H33	0.113500	0.666100	0.587900
Cd71	Cd7	0.675110	0.297450	0.951750
Cd81	Cd8	0.542930	0.478300	0.864610
O191	O19	0.594320	0.291100	0.959400
O201	O20	0.761620	0.651000	0.455640
O211	O21	0.799240	0.965400	0.470220
N101	N10	0.571560	0.384700	0.787970
O221	O22	0.835500	0.564200	0.562140
N111	N11	0.544960	0.378000	0.711170
O231	O23	0.552120	0.453900	0.979640
N121	N12	0.620900	0.317600	0.823860
O241	O24	0.868290	0.081200	0.570150
C641	C64	0.626690	0.264900	0.768070
C651	C65	0.738310	0.415400	0.375650
H341	H34	0.719300	0.490700	0.348600
C661	C66	0.684870	0.297500	0.249930
C671	C67	0.778740	0.423000	0.454710
C681	C68	0.585370	0.356600	0.003860
C691	C69	0.807770	0.311800	0.496050
H351	H35	0.835600	0.316800	0.548900
C701	C70	0.725430	0.298400	0.335660
C711	C71	0.792810	0.552500	0.494410
C721	C72	0.794950	0.193600	0.457970
C731	C73	0.754110	0.187000	0.378380
H361	H36	0.745800	0.106900	0.353300
C741	C74	0.823840	0.071000	0.503240
C751	C75	0.578500	0.302900	0.696720
C761	C76	0.693850	0.219900	0.202800
H371	H37	0.723200	0.158200	0.225200
C771	C77	0.572630	0.266000	0.626500
H381	H38	0.541000	0.291700	0.578500
C781	C78	0.660040	0.232100	0.122800
H391	H39	0.666700	0.178500	0.092200
C791	C79	0.616140	0.324400	0.088310
C801	C80	0.604420	0.396300	0.135230
H401	H40	0.573600	0.454400	0.112800
C811	C81	0.638010	0.382500	0.214840
H411	H41	0.629200	0.430500	0.245300
C821	C82	0.669810	0.185600	0.773200
H421	H42	0.701400	0.158000	0.820700
C831	C83	0.663140	0.151000	0.705300
H431	H43	0.691100	0.098500	0.706800
C841	C84	0.615580	0.191200	0.632600
H441	H44	0.613500	0.166100	0.587900
Cd91	Cd9	0.175110	0.202550	0.451750
Cd101	Cd10	0.042930	0.021700	0.364610
O251	O25	0.094320	0.208900	0.459400
O261	O26	0.261620	0.849000	0.955640
O271	O27	0.299240	0.534600	0.970220
N131	N13	0.071560	0.115300	0.287970
O281	O28	0.335500	0.935800	0.062140
N141	N14	0.044960	0.122000	0.211170
O291	O29	0.052120	0.046100	0.479640
N151	N15	0.120900	0.182400	0.323860
O301	O30	0.368290	0.418800	0.070150
C851	C85	0.126690	0.235100	0.268070
C861	C86	0.238310	0.084600	0.875650
H451	H45	0.219300	0.009300	0.848600
C871	C87	0.184870	0.202500	0.749930
C881	C88	0.278740	0.077000	0.954710
C891	C89	0.085370	0.143400	0.503860
C901	C90	0.307770	0.188200	0.996050
H461	H46	0.335600	0.183200	0.048900
C911	C91	0.225430	0.201600	0.835660
C921	C92	0.292810	0.947500	0.994410
C931	C93	0.294950	0.306400	0.957970
C941	C94	0.254110	0.313000	0.878380
H471	H47	0.245800	0.393100	0.853300
C951	C95	0.323840	0.429000	0.003240
C961	C96	0.078500	0.197100	0.196720
C971	C97	0.193850	0.280100	0.702800
H481	H48	0.223200	0.341800	0.725200
C981	C98	0.072630	0.234000	0.126500
H491	H49	0.041000	0.208300	0.078500
C991	C99	0.160040	0.267900	0.622800
H501	H50	0.166700	0.321500	0.592200
C1001	C100	0.116140	0.175600	0.588310
C1011	C101	0.104420	0.103700	0.635230
H511	H51	0.073600	0.045600	0.612800
C1021	C102	0.138010	0.117500	0.714840
H521	H52	0.129200	0.069500	0.745300
C1031	C103	0.169810	0.314400	0.273200
H531	H53	0.201400	0.342000	0.320700
C1041	C104	0.163140	0.349000	0.205300
H541	H54	0.191100	0.401500	0.206800
C1051	C105	0.115580	0.308800	0.132600
H551	H55	0.113500	0.333900	0.087900
Cd111	Cd11	0.675110	0.702550	0.451750
Cd121	Cd12	0.542930	0.521700	0.364610
O311	O31	0.594320	0.708900	0.459400
O321	O32	0.761620	0.349000	0.955640
O331	O33	0.799240	0.034600	0.970220
N161	N16	0.571560	0.615300	0.287970
O341	O34	0.835500	0.435800	0.062140
N171	N17	0.544960	0.622000	0.211170
O351	O35	0.552120	0.546100	0.479640
N181	N18	0.620900	0.682400	0.323860
O361	O36	0.868290	0.918800	0.070150
C1061	C106	0.626690	0.735100	0.268070
C1071	C107	0.738310	0.584600	0.875650
H561	H56	0.719300	0.509300	0.848600
C1081	C108	0.684870	0.702500	0.749930
C1091	C109	0.778740	0.577000	0.954710
C1101	C110	0.585370	0.643400	0.503860
C1111	C111	0.807770	0.688200	0.996050
H571	H57	0.835600	0.683200	0.048900
C1121	C112	0.725430	0.701600	0.835660
C1131	C113	0.792810	0.447500	0.994410
C1141	C114	0.794950	0.806400	0.957970
C1151	C115	0.754110	0.813000	0.878380
H581	H58	0.745800	0.893100	0.853300
C1161	C116	0.823840	0.929000	0.003240
C1171	C117	0.578500	0.697100	0.196720
C1181	C118	0.693850	0.780100	0.702800
H591	H59	0.723200	0.841800	0.725200
C1191	C119	0.572630	0.734000	0.126500
H601	H60	0.541000	0.708300	0.078500
C1201	C120	0.660040	0.767900	0.622800
H611	H61	0.666700	0.821500	0.592200
C1211	C121	0.616140	0.675600	0.588310
C1221	C122	0.604420	0.603700	0.635230
H621	H62	0.573600	0.545600	0.612800
C1231	C123	0.638010	0.617500	0.714840
H631	H63	0.629200	0.569500	0.745300
C1241	C124	0.669810	0.814400	0.273200
H641	H64	0.701400	0.842000	0.320700
C1251	C125	0.663140	0.849000	0.205300
H651	H65	0.691100	0.901500	0.206800
C1261	C126	0.615580	0.808800	0.132600
H661	H66	0.613500	0.833900	0.087900
Cd131	Cd13	0.824890	0.202550	0.048250
Cd141	Cd14	0.957070	0.021700	0.135390
O371	O37	0.905680	0.208900	0.040600
O381	O38	0.738380	0.849000	0.544360
O391	O39	0.700760	0.534600	0.529780
N191	N19	0.928440	0.115300	0.212030
O401	O40	0.664500	0.935800	0.437860
N201	N20	0.955040	0.122000	0.288830
O411	O41	0.947880	0.046100	0.020360
N211	N21	0.879100	0.182400	0.176140
O421	O42	0.631710	0.418800	0.429850
C1271	C127	0.873310	0.235100	0.231930
C1281	C128	0.761690	0.084600	0.624350
H671	H67	0.780700	0.009300	0.651400
C1291	C129	0.815130	0.202500	0.750070
C1301	C130	0.721260	0.077000	0.545290
C1311	C131	0.914630	0.143400	0.996140
C1321	C132	0.692230	0.188200	0.503950
H681	H68	0.664400	0.183200	0.451100
C1331	C133	0.774570	0.201600	0.664340
C1341	C134	0.707190	0.947500	0.505590
C1351	C135	0.705050	0.306400	0.542030
C1361	C136	0.745890	0.313000	0.621620
H691	H69	0.754200	0.393100	0.646700
C1371	C137	0.676160	0.429000	0.496760
C1381	C138	0.921500	0.197100	0.303280
C1391	C139	0.806150	0.280100	0.797200
H701	H70	0.776800	0.341800	0.774800
C1401	C140	0.927370	0.234000	0.373500
H711	H71	0.959000	0.208300	0.421500
C1411	C141	0.839960	0.267900	0.877200
H721	H72	0.833300	0.321500	0.907800
C1421	C142	0.883860	0.175600	0.911690
C1431	C143	0.895580	0.103700	0.864770
H731	H73	0.926400	0.045600	0.887200
C1441	C144	0.861990	0.117500	0.785160
H741	H74	0.870800	0.069500	0.754700
C1451	C145	0.830190	0.314400	0.226800
H751	H75	0.798600	0.342000	0.179300
C1461	C146	0.836860	0.349000	0.294700
H761	H76	0.808900	0.401500	0.293200
C1471	C147	0.884420	0.308800	0.367400
H771	H77	0.886500	0.333900	0.412100
Cd151	Cd15	0.324890	0.702550	0.048250
Cd161	Cd16	0.457070	0.521700	0.135390
O431	O43	0.405680	0.708900	0.040600
O441	O44	0.238380	0.349000	0.544360
O451	O45	0.200760	0.034600	0.529780
N221	N22	0.428440	0.615300	0.212030
O461	O46	0.164500	0.435800	0.437860
N231	N23	0.455040	0.622000	0.288830
O471	O47	0.447880	0.546100	0.020360
N241	N24	0.379100	0.682400	0.176140
O481	O48	0.131710	0.918800	0.429850
C1481	C148	0.373310	0.735100	0.231930
C1491	C149	0.261690	0.584600	0.624350
H781	H78	0.280700	0.509300	0.651400
C1501	C150	0.315130	0.702500	0.750070
C1511	C151	0.221260	0.577000	0.545290
C1521	C152	0.414630	0.643400	0.996140
C1531	C153	0.192230	0.688200	0.503950
H791	H79	0.164400	0.683200	0.451100
C1541	C154	0.274570	0.701600	0.664340
C1551	C155	0.207190	0.447500	0.505590
C1561	C156	0.205050	0.806400	0.542030
C1571	C157	0.245890	0.813000	0.621620
H801	H80	0.254200	0.893100	0.646700
C1581	C158	0.176160	0.929000	0.496760
C1591	C159	0.421500	0.697100	0.303280
C1601	C160	0.306150	0.780100	0.797200
H811	H81	0.276800	0.841800	0.774800
C1611	C161	0.427370	0.734000	0.373500
H821	H82	0.459000	0.708300	0.421500
C1621	C162	0.339960	0.767900	0.877200
H831	H83	0.333300	0.821500	0.907800
C1631	C163	0.383860	0.675600	0.911690
C1641	C164	0.395580	0.603700	0.864770
H841	H84	0.426400	0.545600	0.887200
C1651	C165	0.361990	0.617500	0.785160
H851	H85	0.370800	0.569500	0.754700
C1661	C166	0.330190	0.814400	0.226800
H861	H86	0.298600	0.842000	0.179300
C1671	C167	0.336860	0.849000	0.294700
H871	H87	0.308900	0.901500	0.293200
C1681	C168	0.384420	0.808800	0.367400
H881	H88	0.386500	0.833900	0.412100
