data_JUTCIM_clean_PM
_symmetry_space_group_name_H-M	'P1'
_cell_length_a	45.646000
_cell_length_b	45.646000
_cell_length_c	10.915000
_cell_angle_alpha	90.000000
_cell_angle_beta	90.000000
_cell_angle_gamma	120.000000
_symmetry_Int_Tables_number 1

loop_
_symmetry_equiv_pos_as_xyz
'x,y,z'

loop_
_atom_site_label
_atom_site_type_symbol
_atom_site_fract_x
_atom_site_fract_y
_atom_site_fract_z
Cu11	Cu1	0.154620	0.309270	0.419050
O11	O1	0.114230	0.288980	0.316000
C11	C1	0.111960	0.302660	0.219000
C21	C2	0.078600	0.284830	0.153100
C31	C3	0.983390	0.235490	0.968400
C41	C4	0.043640	0.281600	0.986700
C51	C5	0.016680	0.251820	0.031500
C61	C6	0.074580	0.298010	0.045500
H11	H1	0.092400	0.317700	0.012700
C71	C7	0.052710	0.254860	0.199400
H21	H2	0.055900	0.245200	0.269500
C81	C8	0.021780	0.239450	0.138900
O21	O2	0.067250	0.306860	0.809300
O31	O3	0.015190	0.291710	0.835200
N11	N1	0.042210	0.295110	0.873000
O41	O4	0.134870	0.329520	0.170800
C91	C9	0.925410	0.223440	0.955100
H31	H3	0.907600	0.225100	0.988400
C101	C10	0.921570	0.206380	0.845700
C111	C11	0.956350	0.237820	0.013000
C121	C12	0.947390	0.202420	0.800900
H41	H4	0.944200	0.189500	0.731000
C131	C13	0.978220	0.217800	0.860500
C141	C14	0.888090	0.190750	0.780800
O51	O5	0.885810	0.174840	0.683400
O61	O6	0.865180	0.194790	0.829000
N21	N2	0.001180	0.207720	0.818700
O71	O7	0.027700	0.215950	0.872700
O81	O8	0.996500	0.194700	0.717500
N31	N3	0.957920	0.253010	0.126900
O91	O9	0.932590	0.239370	0.191600
N41	N4	0.998880	0.206650	0.182900
O101	O10	0.984840	0.276580	0.164900
O111	O11	0.972410	0.188170	0.126400
O121	O12	0.003450	0.197700	0.281000
Cu21	Cu2	0.821290	0.642600	0.752380
O131	O13	0.780900	0.622310	0.649330
C151	C15	0.778630	0.635990	0.552330
C161	C16	0.745270	0.618160	0.486430
C171	C17	0.650060	0.568820	0.301730
C181	C18	0.710310	0.614930	0.320030
C191	C19	0.683350	0.585150	0.364830
C201	C20	0.741250	0.631340	0.378830
H51	H5	0.759070	0.651030	0.346030
C211	C21	0.719380	0.588190	0.532730
H61	H6	0.722570	0.578530	0.602830
C221	C22	0.688450	0.572780	0.472230
O141	O14	0.733920	0.640190	0.142630
O151	O15	0.681860	0.625040	0.168530
N51	N5	0.708880	0.628440	0.206330
O161	O16	0.801540	0.662850	0.504130
C231	C23	0.592080	0.556770	0.288430
H71	H7	0.574270	0.558430	0.321730
C241	C24	0.588240	0.539710	0.179030
C251	C25	0.623020	0.571150	0.346330
C261	C26	0.614060	0.535750	0.134230
H81	H8	0.610870	0.522830	0.064330
C271	C27	0.644890	0.551130	0.193830
C281	C28	0.554760	0.524080	0.114130
O171	O17	0.552480	0.508170	0.016730
O181	O18	0.531850	0.528120	0.162330
N61	N6	0.667850	0.541050	0.152030
O191	O19	0.694370	0.549280	0.206030
O201	O20	0.663170	0.528030	0.050830
N71	N7	0.624590	0.586340	0.460230
O211	O21	0.599260	0.572700	0.524930
N81	N8	0.665550	0.539980	0.516230
O221	O22	0.651510	0.609910	0.498230
O231	O23	0.639080	0.521500	0.459730
O241	O24	0.670120	0.531030	0.614330
Cu31	Cu3	0.487960	0.975930	0.085720
O251	O25	0.447560	0.955650	0.982670
C291	C29	0.445290	0.969330	0.885670
C301	C30	0.411930	0.951500	0.819770
C311	C31	0.316720	0.902160	0.635070
C321	C32	0.376970	0.948270	0.653370
C331	C33	0.350010	0.918490	0.698170
C341	C34	0.407910	0.964680	0.712170
H91	H9	0.425730	0.984370	0.679370
C351	C35	0.386040	0.921530	0.866070
H101	H10	0.389230	0.911870	0.936170
C361	C36	0.355110	0.906120	0.805570
O261	O26	0.400580	0.973530	0.475970
O271	O27	0.348520	0.958380	0.501870
N91	N9	0.375540	0.961780	0.539670
O281	O28	0.468200	0.996190	0.837470
C371	C37	0.258740	0.890110	0.621770
H111	H11	0.240930	0.891770	0.655070
C381	C38	0.254900	0.873050	0.512370
C391	C39	0.289680	0.904490	0.679670
C401	C40	0.280720	0.869090	0.467570
H121	H12	0.277530	0.856170	0.397670
C411	C41	0.311550	0.884470	0.527170
C421	C42	0.221420	0.857420	0.447470
O291	O29	0.219140	0.841510	0.350070
O301	O30	0.198510	0.861460	0.495670
N101	N10	0.334510	0.874390	0.485370
O311	O31	0.361030	0.882620	0.539370
O321	O32	0.329830	0.861370	0.384170
N111	N11	0.291250	0.919680	0.793570
O331	O33	0.265920	0.906040	0.858270
N121	N12	0.332210	0.873320	0.849570
O341	O34	0.318170	0.943250	0.831570
O351	O35	0.305740	0.854840	0.793070
O361	O36	0.336780	0.864370	0.947670
Cu41	Cu4	0.690730	0.845360	0.419050
O371	O37	0.711020	0.825250	0.316000
C431	C43	0.697340	0.809300	0.219000
C441	C44	0.715170	0.793770	0.153100
C451	C45	0.764510	0.747900	0.968400
C461	C46	0.718400	0.762040	0.986700
C471	C47	0.748180	0.764860	0.031500
C481	C48	0.701990	0.776570	0.045500
H131	H13	0.682300	0.774700	0.012700
C491	C49	0.745140	0.797850	0.199400
H141	H14	0.754800	0.810700	0.269500
C501	C50	0.760550	0.782330	0.138900
O381	O38	0.693140	0.760390	0.809300
O391	O39	0.708290	0.723480	0.835200
N131	N13	0.704890	0.747100	0.873000
O401	O40	0.670480	0.805350	0.170800
C511	C51	0.776560	0.701970	0.955100
H151	H15	0.774900	0.682500	0.988400
C521	C52	0.793620	0.715190	0.845700
C531	C53	0.762180	0.718530	0.013000
C541	C54	0.797580	0.744970	0.800900
H161	H16	0.810500	0.754700	0.731000
C551	C55	0.782200	0.760420	0.860500
C561	C56	0.809250	0.697340	0.780800
O411	O41	0.825160	0.710970	0.683400
O421	O42	0.805210	0.670390	0.829000
N141	N14	0.792280	0.793460	0.818700
O431	O43	0.784050	0.811750	0.872700
O441	O44	0.805300	0.801800	0.717500
N151	N15	0.746990	0.704910	0.126900
O451	O45	0.760630	0.693220	0.191600
N161	N16	0.793350	0.792230	0.182900
O461	O46	0.723420	0.708260	0.164900
O471	O47	0.811830	0.784240	0.126400
O481	O48	0.802300	0.805750	0.281000
Cu51	Cu5	0.357400	0.178690	0.752380
O491	O49	0.377690	0.158580	0.649330
C571	C57	0.364010	0.142630	0.552330
C581	C58	0.381840	0.127100	0.486430
C591	C59	0.431180	0.081230	0.301730
C601	C60	0.385070	0.095370	0.320030
C611	C61	0.414850	0.098190	0.364830
C621	C62	0.368660	0.109900	0.378830
H171	H17	0.348970	0.108030	0.346030
C631	C63	0.411810	0.131180	0.532730
H181	H18	0.421470	0.144030	0.602830
C641	C64	0.427220	0.115660	0.472230
O501	O50	0.359810	0.093720	0.142630
O511	O51	0.374960	0.056810	0.168530
N171	N17	0.371560	0.080430	0.206330
O521	O52	0.337150	0.138680	0.504130
C651	C65	0.443230	0.035300	0.288430
H191	H19	0.441570	0.015830	0.321730
C661	C66	0.460290	0.048520	0.179030
C671	C67	0.428850	0.051860	0.346330
C681	C68	0.464250	0.078300	0.134230
H201	H20	0.477170	0.088030	0.064330
C691	C69	0.448870	0.093750	0.193830
C701	C70	0.475920	0.030670	0.114130
O531	O53	0.491830	0.044300	0.016730
O541	O54	0.471880	0.003720	0.162330
N181	N18	0.458950	0.126790	0.152030
O551	O55	0.450720	0.145080	0.206030
O561	O56	0.471970	0.135130	0.050830
N191	N19	0.413660	0.038240	0.460230
O571	O57	0.427300	0.026550	0.524930
N201	N20	0.460020	0.125560	0.516230
O581	O58	0.390090	0.041590	0.498230
O591	O59	0.478500	0.117570	0.459730
O601	O60	0.468970	0.139080	0.614330
Cu61	Cu6	0.024070	0.512020	0.085720
O611	O61	0.044350	0.491920	0.982670
C711	C71	0.030670	0.475970	0.885670
C721	C72	0.048500	0.460440	0.819770
C731	C73	0.097840	0.414570	0.635070
C741	C74	0.051730	0.428710	0.653370
C751	C75	0.081510	0.431530	0.698170
C761	C76	0.035320	0.443240	0.712170
H211	H21	0.015630	0.441370	0.679370
C771	C77	0.078470	0.464520	0.866070
H221	H22	0.088130	0.477370	0.936170
C781	C78	0.093880	0.449000	0.805570
O621	O62	0.026470	0.427060	0.475970
O631	O63	0.041620	0.390150	0.501870
N211	N21	0.038220	0.413770	0.539670
O641	O64	0.003810	0.472020	0.837470
C791	C79	0.109890	0.368640	0.621770
H231	H23	0.108230	0.349170	0.655070
C801	C80	0.126950	0.381860	0.512370
C811	C81	0.095510	0.385200	0.679670
C821	C82	0.130910	0.411640	0.467570
H241	H24	0.143830	0.421370	0.397670
C831	C83	0.115530	0.427090	0.527170
C841	C84	0.142580	0.364010	0.447470
O651	O65	0.158490	0.377640	0.350070
O661	O66	0.138540	0.337060	0.495670
N221	N22	0.125610	0.460130	0.485370
O671	O67	0.117380	0.478420	0.539370
O681	O68	0.138630	0.468470	0.384170
N231	N23	0.080320	0.371580	0.793570
O691	O69	0.093960	0.359890	0.858270
N241	N24	0.126680	0.458900	0.849570
O701	O70	0.056750	0.374930	0.831570
O711	O71	0.145160	0.450910	0.793070
O721	O72	0.135630	0.472420	0.947670
Cu71	Cu7	0.154640	0.845380	0.419050
O731	O73	0.174750	0.885770	0.316000
C851	C85	0.190700	0.888040	0.219000
C861	C86	0.206230	0.921400	0.153100
C871	C87	0.252100	0.016610	0.968400
C881	C88	0.237960	0.956360	0.986700
C891	C89	0.235140	0.983320	0.031500
C901	C90	0.223430	0.925420	0.045500
H251	H25	0.225300	0.907600	0.012700
C911	C91	0.202150	0.947290	0.199400
H261	H26	0.189300	0.944100	0.269500
C921	C92	0.217670	0.978220	0.138900
O741	O74	0.239610	0.932750	0.809300
O751	O75	0.276520	0.984810	0.835200
N251	N25	0.252900	0.957790	0.873000
O761	O76	0.194650	0.865130	0.170800
C931	C93	0.298030	0.074590	0.955100
H271	H27	0.317500	0.092400	0.988400
C941	C94	0.284810	0.078430	0.845700
C951	C95	0.281470	0.043650	0.013000
C961	C96	0.255030	0.052610	0.800900
H281	H28	0.245300	0.055800	0.731000
C971	C97	0.239580	0.021780	0.860500
C981	C98	0.302660	0.111910	0.780800
O771	O77	0.289030	0.114190	0.683400
O781	O78	0.329610	0.134820	0.829000
N261	N26	0.206540	0.998820	0.818700
O791	O79	0.188250	0.972300	0.872700
O801	O80	0.198200	0.003500	0.717500
N271	N27	0.295090	0.042080	0.126900
O811	O81	0.306780	0.067410	0.191600
N281	N28	0.207770	0.001120	0.182900
O821	O82	0.291740	0.015160	0.164900
O831	O83	0.215760	0.027590	0.126400
O841	O84	0.194250	0.996550	0.281000
Cu81	Cu8	0.821310	0.178710	0.752380
O851	O85	0.841420	0.219100	0.649330
C991	C99	0.857370	0.221370	0.552330
C1001	C100	0.872900	0.254730	0.486430
C1011	C101	0.918770	0.349940	0.301730
C1021	C102	0.904630	0.289690	0.320030
C1031	C103	0.901810	0.316650	0.364830
C1041	C104	0.890100	0.258750	0.378830
H291	H29	0.891970	0.240930	0.346030
C1051	C105	0.868820	0.280620	0.532730
H301	H30	0.855970	0.277430	0.602830
C1061	C106	0.884340	0.311550	0.472230
O861	O86	0.906280	0.266080	0.142630
O871	O87	0.943190	0.318140	0.168530
N291	N29	0.919570	0.291120	0.206330
O881	O88	0.861320	0.198460	0.504130
C1071	C107	0.964700	0.407920	0.288430
H311	H31	0.984170	0.425730	0.321730
C1081	C108	0.951480	0.411760	0.179030
C1091	C109	0.948140	0.376980	0.346330
C1101	C110	0.921700	0.385940	0.134230
H321	H32	0.911970	0.389130	0.064330
C1111	C111	0.906250	0.355110	0.193830
C1121	C112	0.969330	0.445240	0.114130
O891	O89	0.955700	0.447520	0.016730
O901	O90	0.996280	0.468150	0.162330
N301	N30	0.873210	0.332150	0.152030
O911	O91	0.854920	0.305630	0.206030
O921	O92	0.864870	0.336830	0.050830
N311	N31	0.961760	0.375410	0.460230
O931	O93	0.973450	0.400740	0.524930
N321	N32	0.874440	0.334450	0.516230
O941	O94	0.958410	0.348490	0.498230
O951	O95	0.882430	0.360920	0.459730
O961	O96	0.860920	0.329880	0.614330
Cu91	Cu9	0.487980	0.512040	0.085720
O971	O97	0.508080	0.552440	0.982670
C1131	C113	0.524030	0.554710	0.885670
C1141	C114	0.539560	0.588070	0.819770
C1151	C115	0.585430	0.683280	0.635070
C1161	C116	0.571290	0.623030	0.653370
C1171	C117	0.568470	0.649990	0.698170
C1181	C118	0.556760	0.592090	0.712170
H331	H33	0.558630	0.574270	0.679370
C1191	C119	0.535480	0.613960	0.866070
H341	H34	0.522630	0.610770	0.936170
C1201	C120	0.551000	0.644890	0.805570
O981	O98	0.572940	0.599420	0.475970
O991	O99	0.609850	0.651480	0.501870
N331	N33	0.586230	0.624460	0.539670
O1001	O100	0.527980	0.531800	0.837470
C1211	C121	0.631360	0.741260	0.621770
H351	H35	0.650830	0.759070	0.655070
C1221	C122	0.618140	0.745100	0.512370
C1231	C123	0.614800	0.710320	0.679670
C1241	C124	0.588360	0.719280	0.467570
H361	H36	0.578630	0.722470	0.397670
C1251	C125	0.572910	0.688450	0.527170
C1261	C126	0.635990	0.778580	0.447470
O1011	O101	0.622360	0.780860	0.350070
O1021	O102	0.662940	0.801490	0.495670
N341	N34	0.539870	0.665490	0.485370
O1031	O103	0.521580	0.638970	0.539370
O1041	O104	0.531530	0.670170	0.384170
N351	N35	0.628420	0.708750	0.793570
O1051	O105	0.640110	0.734080	0.858270
N361	N36	0.541100	0.667790	0.849570
O1061	O106	0.625070	0.681830	0.831570
O1071	O107	0.549090	0.694260	0.793070
O1081	O108	0.527580	0.663220	0.947670
Cu101	Cu10	0.845380	0.690730	0.580950
O1091	O109	0.885770	0.711020	0.684000
C1271	C127	0.888040	0.697340	0.781000
C1281	C128	0.921400	0.715170	0.846900
C1291	C129	0.016610	0.764510	0.031600
C1301	C130	0.956360	0.718400	0.013300
C1311	C131	0.983320	0.748180	0.968500
C1321	C132	0.925420	0.701990	0.954500
H371	H37	0.907600	0.682300	0.987300
C1331	C133	0.947290	0.745140	0.800600
H381	H38	0.944100	0.754800	0.730500
C1341	C134	0.978220	0.760550	0.861100
O1101	O110	0.932750	0.693140	0.190700
O1111	O111	0.984810	0.708290	0.164800
N371	N37	0.957790	0.704890	0.127000
O1121	O112	0.865130	0.670480	0.829200
C1351	C135	0.074590	0.776560	0.044900
H391	H39	0.092400	0.774900	0.011600
C1361	C136	0.078430	0.793620	0.154300
C1371	C137	0.043650	0.762180	0.987000
C1381	C138	0.052610	0.797580	0.199100
H401	H40	0.055800	0.810500	0.269000
C1391	C139	0.021780	0.782200	0.139500
C1401	C140	0.111910	0.809250	0.219200
O1131	O113	0.114190	0.825160	0.316600
O1141	O114	0.134820	0.805210	0.171000
N381	N38	0.998820	0.792280	0.181300
O1151	O115	0.972300	0.784050	0.127300
O1161	O116	0.003500	0.805300	0.282500
N391	N39	0.042080	0.746990	0.873100
O1171	O117	0.067410	0.760630	0.808400
N401	N40	0.001120	0.793350	0.817100
O1181	O118	0.015160	0.723420	0.835100
O1191	O119	0.027590	0.811830	0.873600
O1201	O120	0.996550	0.802300	0.719000
Cu111	Cu11	0.512040	0.024070	0.914280
O1211	O121	0.552440	0.044350	0.017330
C1411	C141	0.554710	0.030670	0.114330
C1421	C142	0.588070	0.048500	0.180230
C1431	C143	0.683280	0.097840	0.364930
C1441	C144	0.623030	0.051730	0.346630
C1451	C145	0.649990	0.081510	0.301830
C1461	C146	0.592090	0.035320	0.287830
H411	H41	0.574270	0.015630	0.320630
C1471	C147	0.613960	0.078470	0.133930
H421	H42	0.610770	0.088130	0.063830
C1481	C148	0.644890	0.093880	0.194430
O1221	O122	0.599420	0.026470	0.524030
O1231	O123	0.651480	0.041620	0.498130
N411	N41	0.624460	0.038220	0.460330
O1241	O124	0.531800	0.003810	0.162530
C1491	C149	0.741260	0.109890	0.378230
H431	H43	0.759070	0.108230	0.344930
C1501	C150	0.745100	0.126950	0.487630
C1511	C151	0.710320	0.095510	0.320330
C1521	C152	0.719280	0.130910	0.532430
H441	H44	0.722470	0.143830	0.602330
C1531	C153	0.688450	0.115530	0.472830
C1541	C154	0.778580	0.142580	0.552530
O1251	O125	0.780860	0.158490	0.649930
O1261	O126	0.801490	0.138540	0.504330
N421	N42	0.665490	0.125610	0.514630
O1271	O127	0.638970	0.117380	0.460630
O1281	O128	0.670170	0.138630	0.615830
N431	N43	0.708750	0.080320	0.206430
O1291	O129	0.734080	0.093960	0.141730
N441	N44	0.667790	0.126680	0.150430
O1301	O130	0.681830	0.056750	0.168430
O1311	O131	0.694260	0.145160	0.206930
O1321	O132	0.663220	0.135630	0.052330
Cu121	Cu12	0.178710	0.357400	0.247620
O1331	O133	0.219100	0.377690	0.350670
C1551	C155	0.221370	0.364010	0.447670
C1561	C156	0.254730	0.381840	0.513570
C1571	C157	0.349940	0.431180	0.698270
C1581	C158	0.289690	0.385070	0.679970
C1591	C159	0.316650	0.414850	0.635170
C1601	C160	0.258750	0.368660	0.621170
H451	H45	0.240930	0.348970	0.653970
C1611	C161	0.280620	0.411810	0.467270
H461	H46	0.277430	0.421470	0.397170
C1621	C162	0.311550	0.427220	0.527770
O1341	O134	0.266080	0.359810	0.857370
O1351	O135	0.318140	0.374960	0.831470
N451	N45	0.291120	0.371560	0.793670
O1361	O136	0.198460	0.337150	0.495870
C1631	C163	0.407920	0.443230	0.711570
H471	H47	0.425730	0.441570	0.678270
C1641	C164	0.411760	0.460290	0.820970
C1651	C165	0.376980	0.428850	0.653670
C1661	C166	0.385940	0.464250	0.865770
H481	H48	0.389130	0.477170	0.935670
C1671	C167	0.355110	0.448870	0.806170
C1681	C168	0.445240	0.475920	0.885870
O1371	O137	0.447520	0.491830	0.983270
O1381	O138	0.468150	0.471880	0.837670
N461	N46	0.332150	0.458950	0.847970
O1391	O139	0.305630	0.450720	0.793970
O1401	O140	0.336830	0.471970	0.949170
N471	N47	0.375410	0.413660	0.539770
O1411	O141	0.400740	0.427300	0.475070
N481	N48	0.334450	0.460020	0.483770
O1421	O142	0.348490	0.390090	0.501770
O1431	O143	0.360920	0.478500	0.540270
O1441	O144	0.329880	0.468970	0.385670
Cu131	Cu13	0.309270	0.154640	0.580950
O1451	O145	0.288980	0.174750	0.684000
C1691	C169	0.302660	0.190700	0.781000
C1701	C170	0.284830	0.206230	0.846900
C1711	C171	0.235490	0.252100	0.031600
C1721	C172	0.281600	0.237960	0.013300
C1731	C173	0.251820	0.235140	0.968500
C1741	C174	0.298010	0.223430	0.954500
H491	H49	0.317700	0.225300	0.987300
C1751	C175	0.254860	0.202150	0.800600
H501	H50	0.245200	0.189300	0.730500
C1761	C176	0.239450	0.217670	0.861100
O1461	O146	0.306860	0.239610	0.190700
O1471	O147	0.291710	0.276520	0.164800
N491	N49	0.295110	0.252900	0.127000
O1481	O148	0.329520	0.194650	0.829200
C1771	C177	0.223440	0.298030	0.044900
H511	H51	0.225100	0.317500	0.011600
C1781	C178	0.206380	0.284810	0.154300
C1791	C179	0.237820	0.281470	0.987000
C1801	C180	0.202420	0.255030	0.199100
H521	H52	0.189500	0.245300	0.269000
C1811	C181	0.217800	0.239580	0.139500
C1821	C182	0.190750	0.302660	0.219200
O1491	O149	0.174840	0.289030	0.316600
O1501	O150	0.194790	0.329610	0.171000
N501	N50	0.207720	0.206540	0.181300
O1511	O151	0.215950	0.188250	0.127300
O1521	O152	0.194700	0.198200	0.282500
N511	N51	0.253010	0.295090	0.873100
O1531	O153	0.239370	0.306780	0.808400
N521	N52	0.206650	0.207770	0.817100
O1541	O154	0.276580	0.291740	0.835100
O1551	O155	0.188170	0.215760	0.873600
O1561	O156	0.197700	0.194250	0.719000
Cu141	Cu14	0.975930	0.487980	0.914280
O1571	O157	0.955650	0.508080	0.017330
C1831	C183	0.969330	0.524030	0.114330
C1841	C184	0.951500	0.539560	0.180230
C1851	C185	0.902160	0.585430	0.364930
C1861	C186	0.948270	0.571290	0.346630
C1871	C187	0.918490	0.568470	0.301830
C1881	C188	0.964680	0.556760	0.287830
H531	H53	0.984370	0.558630	0.320630
C1891	C189	0.921530	0.535480	0.133930
H541	H54	0.911870	0.522630	0.063830
C1901	C190	0.906120	0.551000	0.194430
O1581	O158	0.973530	0.572940	0.524030
O1591	O159	0.958380	0.609850	0.498130
N531	N53	0.961780	0.586230	0.460330
O1601	O160	0.996190	0.527980	0.162530
C1911	C191	0.890110	0.631360	0.378230
H551	H55	0.891770	0.650830	0.344930
C1921	C192	0.873050	0.618140	0.487630
C1931	C193	0.904490	0.614800	0.320330
C1941	C194	0.869090	0.588360	0.532430
H561	H56	0.856170	0.578630	0.602330
C1951	C195	0.884470	0.572910	0.472830
C1961	C196	0.857420	0.635990	0.552530
O1611	O161	0.841510	0.622360	0.649930
O1621	O162	0.861460	0.662940	0.504330
N541	N54	0.874390	0.539870	0.514630
O1631	O163	0.882620	0.521580	0.460630
O1641	O164	0.861370	0.531530	0.615830
N551	N55	0.919680	0.628420	0.206430
O1651	O165	0.906040	0.640110	0.141730
N561	N56	0.873320	0.541100	0.150430
O1661	O166	0.943250	0.625070	0.168430
O1671	O167	0.854840	0.549090	0.206930
O1681	O168	0.864370	0.527580	0.052330
Cu151	Cu15	0.642600	0.821310	0.247620
O1691	O169	0.622310	0.841420	0.350670
C1971	C197	0.635990	0.857370	0.447670
C1981	C198	0.618160	0.872900	0.513570
C1991	C199	0.568820	0.918770	0.698270
C2001	C200	0.614930	0.904630	0.679970
C2011	C201	0.585150	0.901810	0.635170
C2021	C202	0.631340	0.890100	0.621170
H571	H57	0.651030	0.891970	0.653970
C2031	C203	0.588190	0.868820	0.467270
H581	H58	0.578530	0.855970	0.397170
C2041	C204	0.572780	0.884340	0.527770
O1701	O170	0.640190	0.906280	0.857370
O1711	O171	0.625040	0.943190	0.831470
N571	N57	0.628440	0.919570	0.793670
O1721	O172	0.662850	0.861320	0.495870
C2051	C205	0.556770	0.964700	0.711570
H591	H59	0.558430	0.984170	0.678270
C2061	C206	0.539710	0.951480	0.820970
C2071	C207	0.571150	0.948140	0.653670
C2081	C208	0.535750	0.921700	0.865770
H601	H60	0.522830	0.911970	0.935670
C2091	C209	0.551130	0.906250	0.806170
C2101	C210	0.524080	0.969330	0.885870
O1731	O173	0.508170	0.955700	0.983270
O1741	O174	0.528120	0.996280	0.837670
N581	N58	0.541050	0.873210	0.847970
O1751	O175	0.549280	0.854920	0.793970
O1761	O176	0.528030	0.864870	0.949170
N591	N59	0.586340	0.961760	0.539770
O1771	O177	0.572700	0.973450	0.475070
N601	N60	0.539980	0.874440	0.483770
O1781	O178	0.609910	0.958410	0.501770
O1791	O179	0.521500	0.882430	0.540270
O1801	O180	0.531030	0.860920	0.385670
Cu161	Cu16	0.845360	0.154620	0.580950
O1811	O181	0.825250	0.114230	0.684000
C2111	C211	0.809300	0.111960	0.781000
C2121	C212	0.793770	0.078600	0.846900
C2131	C213	0.747900	0.983390	0.031600
C2141	C214	0.762040	0.043640	0.013300
C2151	C215	0.764860	0.016680	0.968500
C2161	C216	0.776570	0.074580	0.954500
H611	H61	0.774700	0.092400	0.987300
C2171	C217	0.797850	0.052710	0.800600
H621	H62	0.810700	0.055900	0.730500
C2181	C218	0.782330	0.021780	0.861100
O1821	O182	0.760390	0.067250	0.190700
O1831	O183	0.723480	0.015190	0.164800
N611	N61	0.747100	0.042210	0.127000
O1841	O184	0.805350	0.134870	0.829200
C2191	C219	0.701970	0.925410	0.044900
H631	H63	0.682500	0.907600	0.011600
C2201	C220	0.715190	0.921570	0.154300
C2211	C221	0.718530	0.956350	0.987000
C2221	C222	0.744970	0.947390	0.199100
H641	H64	0.754700	0.944200	0.269000
C2231	C223	0.760420	0.978220	0.139500
C2241	C224	0.697340	0.888090	0.219200
O1851	O185	0.710970	0.885810	0.316600
O1861	O186	0.670390	0.865180	0.171000
N621	N62	0.793460	0.001180	0.181300
O1871	O187	0.811750	0.027700	0.127300
O1881	O188	0.801800	0.996500	0.282500
N631	N63	0.704910	0.957920	0.873100
O1891	O189	0.693220	0.932590	0.808400
N641	N64	0.792230	0.998880	0.817100
O1901	O190	0.708260	0.984840	0.835100
O1911	O191	0.784240	0.972410	0.873600
O1921	O192	0.805750	0.003450	0.719000
Cu171	Cu17	0.512020	0.487960	0.914280
O1931	O193	0.491920	0.447560	0.017330
C2251	C225	0.475970	0.445290	0.114330
C2261	C226	0.460440	0.411930	0.180230
C2271	C227	0.414570	0.316720	0.364930
C2281	C228	0.428710	0.376970	0.346630
C2291	C229	0.431530	0.350010	0.301830
C2301	C230	0.443240	0.407910	0.287830
H651	H65	0.441370	0.425730	0.320630
C2311	C231	0.464520	0.386040	0.133930
H661	H66	0.477370	0.389230	0.063830
C2321	C232	0.449000	0.355110	0.194430
O1941	O194	0.427060	0.400580	0.524030
O1951	O195	0.390150	0.348520	0.498130
N651	N65	0.413770	0.375540	0.460330
O1961	O196	0.472020	0.468200	0.162530
C2331	C233	0.368640	0.258740	0.378230
H671	H67	0.349170	0.240930	0.344930
C2341	C234	0.381860	0.254900	0.487630
C2351	C235	0.385200	0.289680	0.320330
C2361	C236	0.411640	0.280720	0.532430
H681	H68	0.421370	0.277530	0.602330
C2371	C237	0.427090	0.311550	0.472830
C2381	C238	0.364010	0.221420	0.552530
O1971	O197	0.377640	0.219140	0.649930
O1981	O198	0.337060	0.198510	0.504330
N661	N66	0.460130	0.334510	0.514630
O1991	O199	0.478420	0.361030	0.460630
O2001	O200	0.468470	0.329830	0.615830
N671	N67	0.371580	0.291250	0.206430
O2011	O201	0.359890	0.265920	0.141730
N681	N68	0.458900	0.332210	0.150430
O2021	O202	0.374930	0.318170	0.168430
O2031	O203	0.450910	0.305740	0.206930
O2041	O204	0.472420	0.336780	0.052330
Cu181	Cu18	0.178690	0.821290	0.247620
O2051	O205	0.158580	0.780900	0.350670
C2391	C239	0.142630	0.778630	0.447670
C2401	C240	0.127100	0.745270	0.513570
C2411	C241	0.081230	0.650060	0.698270
C2421	C242	0.095370	0.710310	0.679970
C2431	C243	0.098190	0.683350	0.635170
C2441	C244	0.109900	0.741250	0.621170
H691	H69	0.108030	0.759070	0.653970
C2451	C245	0.131180	0.719380	0.467270
H701	H70	0.144030	0.722570	0.397170
C2461	C246	0.115660	0.688450	0.527770
O2061	O206	0.093720	0.733920	0.857370
O2071	O207	0.056810	0.681860	0.831470
N691	N69	0.080430	0.708880	0.793670
O2081	O208	0.138680	0.801540	0.495870
C2471	C247	0.035300	0.592080	0.711570
H711	H71	0.015830	0.574270	0.678270
C2481	C248	0.048520	0.588240	0.820970
C2491	C249	0.051860	0.623020	0.653670
C2501	C250	0.078300	0.614060	0.865770
H721	H72	0.088030	0.610870	0.935670
C2511	C251	0.093750	0.644890	0.806170
C2521	C252	0.030670	0.554760	0.885870
O2091	O209	0.044300	0.552480	0.983270
O2101	O210	0.003720	0.531850	0.837670
N701	N70	0.126790	0.667850	0.847970
O2111	O211	0.145080	0.694370	0.793970
O2121	O212	0.135130	0.663170	0.949170
N711	N71	0.038240	0.624590	0.539770
O2131	O213	0.026550	0.599260	0.475070
N721	N72	0.125560	0.665550	0.483770
O2141	O214	0.041590	0.651510	0.501770
O2151	O215	0.117570	0.639080	0.540270
O2161	O216	0.139080	0.670120	0.385670
