data_JUVWUU_clean_PM
_symmetry_space_group_name_H-M	'P1'
_cell_length_a	7.116000
_cell_length_b	13.987000
_cell_length_c	14.916000
_cell_angle_alpha	90.000000
_cell_angle_beta	101.599000
_cell_angle_gamma	90.000000
_symmetry_Int_Tables_number 1

loop_
_symmetry_equiv_pos_as_xyz
'x,y,z'

loop_
_atom_site_label
_atom_site_type_symbol
_atom_site_fract_x
_atom_site_fract_y
_atom_site_fract_z
Mn11	Mn1	0.233500	0.565360	0.032510
O11	O1	0.791200	0.955470	0.374910
O21	O2	0.782000	0.537350	0.075340
O31	O3	0.031500	0.857500	0.438400
O41	O4	0.510600	0.618460	0.025130
C11	C1	0.741800	0.781400	0.129100
C21	C2	0.740100	0.682500	0.149400
C31	C3	0.845700	0.815800	0.293700
C41	C4	0.854400	0.719100	0.309900
H11	H1	0.896400	0.697200	0.369400
C51	C5	0.672300	0.607600	0.077700
C61	C6	0.792900	0.849300	0.201400
C71	C7	0.701100	0.814900	0.037000
H21	H2	0.669300	0.771400	0.989200
C81	C8	0.801500	0.652300	0.238800
H31	H3	0.807900	0.587300	0.252000
C91	C9	0.799000	0.948000	0.178500
H41	H4	0.831000	0.993400	0.224600
C101	C10	0.893200	0.882500	0.374900
C111	C11	0.708300	0.909800	0.018200
H51	H5	0.679700	0.930400	0.957700
C121	C12	0.757700	0.976300	0.088100
H61	H6	0.762900	0.040900	0.073700
Mn21	Mn2	0.766500	0.065360	0.467490
O51	O5	0.208800	0.455470	0.125090
O61	O6	0.218000	0.037350	0.424660
O71	O7	0.968500	0.357500	0.061600
O81	O8	0.489400	0.118460	0.474870
C131	C13	0.258200	0.281400	0.370900
C141	C14	0.259900	0.182500	0.350600
C151	C15	0.154300	0.315800	0.206300
C161	C16	0.145600	0.219100	0.190100
H71	H7	0.103600	0.197200	0.130600
C171	C17	0.327700	0.107600	0.422300
C181	C18	0.207100	0.349300	0.298600
C191	C19	0.298900	0.314900	0.463000
H81	H8	0.330700	0.271400	0.510800
C201	C20	0.198500	0.152300	0.261200
H91	H9	0.192100	0.087300	0.248000
C211	C21	0.201000	0.448000	0.321500
H101	H10	0.169000	0.493400	0.275400
C221	C22	0.106800	0.382500	0.125100
C231	C23	0.291700	0.409800	0.481800
H111	H11	0.320300	0.430400	0.542300
C241	C24	0.242300	0.476300	0.411900
H121	H12	0.237100	0.540900	0.426300
Mn31	Mn3	0.766500	0.434640	0.967490
O91	O9	0.208800	0.044530	0.625090
O101	O10	0.218000	0.462650	0.924660
O111	O11	0.968500	0.142500	0.561600
O121	O12	0.489400	0.381540	0.974870
C251	C25	0.258200	0.218600	0.870900
C261	C26	0.259900	0.317500	0.850600
C271	C27	0.154300	0.184200	0.706300
C281	C28	0.145600	0.280900	0.690100
H131	H13	0.103600	0.302800	0.630600
C291	C29	0.327700	0.392400	0.922300
C301	C30	0.207100	0.150700	0.798600
C311	C31	0.298900	0.185100	0.963000
H141	H14	0.330700	0.228600	0.010800
C321	C32	0.198500	0.347700	0.761200
H151	H15	0.192100	0.412700	0.748000
C331	C33	0.201000	0.052000	0.821500
H161	H16	0.169000	0.006600	0.775400
C341	C34	0.106800	0.117500	0.625100
C351	C35	0.291700	0.090200	0.981800
H171	H17	0.320300	0.069600	0.042300
C361	C36	0.242300	0.023700	0.911900
H181	H18	0.237100	0.959100	0.926300
Mn41	Mn4	0.233500	0.934640	0.532510
O131	O13	0.791200	0.544530	0.874910
O141	O14	0.782000	0.962650	0.575340
O151	O15	0.031500	0.642500	0.938400
O161	O16	0.510600	0.881540	0.525130
C371	C37	0.741800	0.718600	0.629100
C381	C38	0.740100	0.817500	0.649400
C391	C39	0.845700	0.684200	0.793700
C401	C40	0.854400	0.780900	0.809900
H191	H19	0.896400	0.802800	0.869400
C411	C41	0.672300	0.892400	0.577700
C421	C42	0.792900	0.650700	0.701400
C431	C43	0.701100	0.685100	0.537000
H201	H20	0.669300	0.728600	0.489200
C441	C44	0.801500	0.847700	0.738800
H211	H21	0.807900	0.912700	0.752000
C451	C45	0.799000	0.552000	0.678500
H221	H22	0.831000	0.506600	0.724600
C461	C46	0.893200	0.617500	0.874900
C471	C47	0.708300	0.590200	0.518200
H231	H23	0.679700	0.569600	0.457700
C481	C48	0.757700	0.523700	0.588100
H241	H24	0.762900	0.459100	0.573700
