data_JUYJIY_clean_PM
_symmetry_space_group_name_H-M	'P1'
_cell_length_a	15.716600
_cell_length_b	15.716600
_cell_length_c	32.137000
_cell_angle_alpha	90.000000
_cell_angle_beta	90.000000
_cell_angle_gamma	90.000000
_symmetry_Int_Tables_number 1

loop_
_symmetry_equiv_pos_as_xyz
'x,y,z'

loop_
_atom_site_label
_atom_site_type_symbol
_atom_site_fract_x
_atom_site_fract_y
_atom_site_fract_z
Cd11	Cd1	0.271990	0.728290	0.079570
O11	O1	0.309400	0.586500	0.109500
O21	O2	0.194000	0.650300	0.128900
O31	O3	0.259400	0.340400	0.289200
O41	O4	0.131300	0.303800	0.266300
O51	O5	0.722100	0.648500	0.133600
O61	O6	0.842800	0.701500	0.111200
O71	O7	0.695400	0.390700	0.957900
O81	O8	0.825600	0.351700	0.969800
C11	C1	0.246000	0.596700	0.130600
C21	C2	0.196900	0.345000	0.263100
C31	C3	0.229800	0.517400	0.162400
C41	C4	0.150300	0.484000	0.169300
C51	C5	0.139100	0.428600	0.202600
H11	H1	0.085400	0.406000	0.207700
C61	C6	0.206200	0.406400	0.228400
C71	C7	0.288400	0.438100	0.220100
H21	H2	0.334700	0.423500	0.236600
C81	C8	0.297800	0.492900	0.185700
H31	H3	0.351700	0.512700	0.178700
C91	C9	0.784200	0.650200	0.110200
C101	C10	0.762100	0.397200	0.976500
C111	C11	0.781300	0.580800	0.076000
C121	C12	0.850800	0.525200	0.068400
C131	C13	0.843900	0.470800	0.035000
H41	H4	0.890200	0.436700	0.028100
C141	C14	0.766900	0.464400	0.009900
C151	C15	0.701000	0.516800	0.019200
H51	H5	0.651200	0.515200	0.003600
C161	C16	0.708800	0.572800	0.052400
H61	H6	0.662400	0.607000	0.059000
C171	C17	0.075300	0.502800	0.143300
C181	C18	0.081400	0.505000	0.100200
H71	H7	0.134200	0.499900	0.087400
C191	C19	0.008500	0.514800	0.075900
H81	H8	0.014200	0.513700	0.047100
C201	C20	0.929200	0.526000	0.092300
C211	C21	0.923000	0.527500	0.137400
H91	H9	0.870400	0.535400	0.150100
C221	C22	0.994200	0.517300	0.161200
H101	H10	0.989400	0.519900	0.190000
Cd21	Cd2	0.728010	0.271710	0.579570
O91	O9	0.690600	0.413500	0.609500
O101	O10	0.806000	0.349700	0.628900
O111	O11	0.740600	0.659600	0.789200
O121	O12	0.868700	0.696200	0.766300
O131	O13	0.277900	0.351500	0.633600
O141	O14	0.157200	0.298500	0.611200
O151	O15	0.304600	0.609300	0.457900
O161	O16	0.174400	0.648300	0.469800
C231	C23	0.754000	0.403300	0.630600
C241	C24	0.803100	0.655000	0.763100
C251	C25	0.770200	0.482600	0.662400
C261	C26	0.849700	0.516000	0.669300
C271	C27	0.860900	0.571400	0.702600
H111	H11	0.914600	0.594000	0.707700
C281	C28	0.793800	0.593600	0.728400
C291	C29	0.711600	0.561900	0.720100
H121	H12	0.665300	0.576500	0.736600
C301	C30	0.702200	0.507100	0.685700
H131	H13	0.648300	0.487300	0.678700
C311	C31	0.215800	0.349800	0.610200
C321	C32	0.237900	0.602800	0.476500
C331	C33	0.218700	0.419200	0.576000
C341	C34	0.149200	0.474800	0.568400
C351	C35	0.156100	0.529200	0.535000
H141	H14	0.109800	0.563300	0.528100
C361	C36	0.233100	0.535600	0.509900
C371	C37	0.299000	0.483200	0.519200
H151	H15	0.348800	0.484800	0.503600
C381	C38	0.291200	0.427200	0.552400
H161	H16	0.337600	0.393000	0.559000
C391	C39	0.924700	0.497200	0.643300
C401	C40	0.918600	0.495000	0.600200
H171	H17	0.865800	0.500100	0.587400
C411	C41	0.991500	0.485200	0.575900
H181	H18	0.985800	0.486300	0.547100
C421	C42	0.070800	0.474000	0.592300
C431	C43	0.077000	0.472500	0.637400
H191	H19	0.129600	0.464600	0.650100
C441	C44	0.005800	0.482700	0.661200
H201	H20	0.010600	0.480100	0.690000
Cd31	Cd3	0.771710	0.771990	0.829570
O171	O17	0.913500	0.809400	0.859500
O181	O18	0.849700	0.694000	0.878900
O191	O19	0.159600	0.759400	0.039200
O201	O20	0.196200	0.631300	0.016300
O211	O21	0.851500	0.222100	0.883600
O221	O22	0.798500	0.342800	0.861200
O231	O23	0.109300	0.195400	0.707900
O241	O24	0.148300	0.325600	0.719800
C451	C45	0.903300	0.746000	0.880600
C461	C46	0.155000	0.696900	0.013100
C471	C47	0.982600	0.729800	0.912400
C481	C48	0.016000	0.650300	0.919300
C491	C49	0.071400	0.639100	0.952600
H211	H21	0.094000	0.585400	0.957700
C501	C50	0.093600	0.706200	0.978400
C511	C51	0.061900	0.788400	0.970100
H221	H22	0.076500	0.834700	0.986600
C521	C52	0.007100	0.797800	0.935700
H231	H23	0.987300	0.851700	0.928700
C531	C53	0.849800	0.284200	0.860200
C541	C54	0.102800	0.262100	0.726500
C551	C55	0.919200	0.281300	0.826000
C561	C56	0.974800	0.350800	0.818400
C571	C57	0.029200	0.343900	0.785000
H241	H24	0.063300	0.390200	0.778100
C581	C58	0.035600	0.266900	0.759900
C591	C59	0.983200	0.201000	0.769200
H251	H25	0.984800	0.151200	0.753600
C601	C60	0.927200	0.208800	0.802400
H261	H26	0.893000	0.162400	0.809000
C611	C61	0.997200	0.575300	0.893300
C621	C62	0.995000	0.581400	0.850200
H271	H27	0.000100	0.634200	0.837400
C631	C63	0.985200	0.508500	0.825900
H281	H28	0.986300	0.514200	0.797100
C641	C64	0.974000	0.429200	0.842300
C651	C65	0.972500	0.423000	0.887400
H291	H29	0.964600	0.370400	0.900100
C661	C66	0.982700	0.494200	0.911200
H301	H30	0.980100	0.489400	0.940000
Cd41	Cd4	0.228290	0.228010	0.329570
O251	O25	0.086500	0.190600	0.359500
O261	O26	0.150300	0.306000	0.378900
O271	O27	0.840400	0.240600	0.539200
O281	O28	0.803800	0.368700	0.516300
O291	O29	0.148500	0.777900	0.383600
O301	O30	0.201500	0.657200	0.361200
O311	O31	0.890700	0.804600	0.207900
O321	O32	0.851700	0.674400	0.219800
C671	C67	0.096700	0.254000	0.380600
C681	C68	0.845000	0.303100	0.513100
C691	C69	0.017400	0.270200	0.412400
C701	C70	0.984000	0.349700	0.419300
C711	C71	0.928600	0.360900	0.452600
H311	H31	0.906000	0.414600	0.457700
C721	C72	0.906400	0.293800	0.478400
C731	C73	0.938100	0.211600	0.470100
H321	H32	0.923500	0.165300	0.486600
C741	C74	0.992900	0.202200	0.435700
H331	H33	0.012700	0.148300	0.428700
C751	C75	0.150200	0.715800	0.360200
C761	C76	0.897200	0.737900	0.226500
C771	C77	0.080800	0.718700	0.326000
C781	C78	0.025200	0.649200	0.318400
C791	C79	0.970800	0.656100	0.285000
H341	H34	0.936700	0.609800	0.278100
C801	C80	0.964400	0.733100	0.259900
C811	C81	0.016800	0.799000	0.269200
H351	H35	0.015200	0.848800	0.253600
C821	C82	0.072800	0.791200	0.302400
H361	H36	0.107000	0.837600	0.309000
C831	C83	0.002800	0.424700	0.393300
C841	C84	0.005000	0.418600	0.350200
H371	H37	0.999900	0.365800	0.337400
C851	C85	0.014800	0.491500	0.325900
H381	H38	0.013700	0.485800	0.297100
C861	C86	0.026000	0.570800	0.342300
C871	C87	0.027500	0.577000	0.387400
H391	H39	0.035400	0.629600	0.400100
C881	C88	0.017300	0.505800	0.411200
H401	H40	0.019900	0.510600	0.440000
Cd51	Cd5	0.228010	0.228290	0.670430
O331	O33	0.190600	0.086500	0.640500
O341	O34	0.306000	0.150300	0.621100
O351	O35	0.240600	0.840400	0.460800
O361	O36	0.368700	0.803800	0.483700
O371	O37	0.777900	0.148500	0.616400
O381	O38	0.657200	0.201500	0.638800
O391	O39	0.804600	0.890700	0.792100
O401	O40	0.674400	0.851700	0.780200
C891	C89	0.254000	0.096700	0.619400
C901	C90	0.303100	0.845000	0.486900
C911	C91	0.270200	0.017400	0.587600
C921	C92	0.349700	0.984000	0.580700
C931	C93	0.360900	0.928600	0.547400
H411	H41	0.414600	0.906000	0.542300
C941	C94	0.293800	0.906400	0.521600
C951	C95	0.211600	0.938100	0.529900
H421	H42	0.165300	0.923500	0.513400
C961	C96	0.202200	0.992900	0.564300
H431	H43	0.148300	0.012700	0.571300
C971	C97	0.715800	0.150200	0.639800
C981	C98	0.737900	0.897200	0.773500
C991	C99	0.718700	0.080800	0.674000
C1001	C100	0.649200	0.025200	0.681600
C1011	C101	0.656100	0.970800	0.715000
H441	H44	0.609800	0.936700	0.721900
C1021	C102	0.733100	0.964400	0.740100
C1031	C103	0.799000	0.016800	0.730800
H451	H45	0.848800	0.015200	0.746400
C1041	C104	0.791200	0.072800	0.697600
H461	H46	0.837600	0.107000	0.691000
C1051	C105	0.424700	0.002800	0.606700
C1061	C106	0.418600	0.005000	0.649800
H471	H47	0.365800	0.999900	0.662600
C1071	C107	0.491500	0.014800	0.674100
H481	H48	0.485800	0.013700	0.702900
C1081	C108	0.570800	0.026000	0.657700
C1091	C109	0.577000	0.027500	0.612600
H491	H49	0.629600	0.035400	0.599900
C1101	C110	0.505800	0.017300	0.588800
H501	H50	0.510600	0.019900	0.560000
Cd61	Cd6	0.771990	0.771710	0.170430
O411	O41	0.809400	0.913500	0.140500
O421	O42	0.694000	0.849700	0.121100
O431	O43	0.759400	0.159600	0.960800
O441	O44	0.631300	0.196200	0.983700
O451	O45	0.222100	0.851500	0.116400
O461	O46	0.342800	0.798500	0.138800
O471	O47	0.195400	0.109300	0.292100
O481	O48	0.325600	0.148300	0.280200
C1111	C111	0.746000	0.903300	0.119400
C1121	C112	0.696900	0.155000	0.986900
C1131	C113	0.729800	0.982600	0.087600
C1141	C114	0.650300	0.016000	0.080700
C1151	C115	0.639100	0.071400	0.047400
H511	H51	0.585400	0.094000	0.042300
C1161	C116	0.706200	0.093600	0.021600
C1171	C117	0.788400	0.061900	0.029900
H521	H52	0.834700	0.076500	0.013400
C1181	C118	0.797800	0.007100	0.064300
H531	H53	0.851700	0.987300	0.071300
C1191	C119	0.284200	0.849800	0.139800
C1201	C120	0.262100	0.102800	0.273500
C1211	C121	0.281300	0.919200	0.174000
C1221	C122	0.350800	0.974800	0.181600
C1231	C123	0.343900	0.029200	0.215000
H541	H54	0.390200	0.063300	0.221900
C1241	C124	0.266900	0.035600	0.240100
C1251	C125	0.201000	0.983200	0.230800
H551	H55	0.151200	0.984800	0.246400
C1261	C126	0.208800	0.927200	0.197600
H561	H56	0.162400	0.893000	0.191000
C1271	C127	0.575300	0.997200	0.106700
C1281	C128	0.581400	0.995000	0.149800
H571	H57	0.634200	0.000100	0.162600
C1291	C129	0.508500	0.985200	0.174100
H581	H58	0.514200	0.986300	0.202900
C1301	C130	0.429200	0.974000	0.157700
C1311	C131	0.423000	0.972500	0.112600
H591	H59	0.370400	0.964600	0.099900
C1321	C132	0.494200	0.982700	0.088800
H601	H60	0.489400	0.980100	0.060000
Cd71	Cd7	0.728290	0.271990	0.920430
O491	O49	0.586500	0.309400	0.890500
O501	O50	0.650300	0.194000	0.871100
O511	O51	0.340400	0.259400	0.710800
O521	O52	0.303800	0.131300	0.733700
O531	O53	0.648500	0.722100	0.866400
O541	O54	0.701500	0.842800	0.888800
O551	O55	0.390700	0.695400	0.042100
O561	O56	0.351700	0.825600	0.030200
C1331	C133	0.596700	0.246000	0.869400
C1341	C134	0.345000	0.196900	0.736900
C1351	C135	0.517400	0.229800	0.837600
C1361	C136	0.484000	0.150300	0.830700
C1371	C137	0.428600	0.139100	0.797400
H611	H61	0.406000	0.085400	0.792300
C1381	C138	0.406400	0.206200	0.771600
C1391	C139	0.438100	0.288400	0.779900
H621	H62	0.423500	0.334700	0.763400
C1401	C140	0.492900	0.297800	0.814300
H631	H63	0.512700	0.351700	0.821300
C1411	C141	0.650200	0.784200	0.889800
C1421	C142	0.397200	0.762100	0.023500
C1431	C143	0.580800	0.781300	0.924000
C1441	C144	0.525200	0.850800	0.931600
C1451	C145	0.470800	0.843900	0.965000
H641	H64	0.436700	0.890200	0.971900
C1461	C146	0.464400	0.766900	0.990100
C1471	C147	0.516800	0.701000	0.980800
H651	H65	0.515200	0.651200	0.996400
C1481	C148	0.572800	0.708800	0.947600
H661	H66	0.607000	0.662400	0.941000
C1491	C149	0.502800	0.075300	0.856700
C1501	C150	0.505000	0.081400	0.899800
H671	H67	0.499900	0.134200	0.912600
C1511	C151	0.514800	0.008500	0.924100
H681	H68	0.513700	0.014200	0.952900
C1521	C152	0.526000	0.929200	0.907700
C1531	C153	0.527500	0.923000	0.862600
H691	H69	0.535400	0.870400	0.849900
C1541	C154	0.517300	0.994200	0.838800
H701	H70	0.519900	0.989400	0.810000
Cd81	Cd8	0.271710	0.728010	0.420430
O571	O57	0.413500	0.690600	0.390500
O581	O58	0.349700	0.806000	0.371100
O591	O59	0.659600	0.740600	0.210800
O601	O60	0.696200	0.868700	0.233700
O611	O61	0.351500	0.277900	0.366400
O621	O62	0.298500	0.157200	0.388800
O631	O63	0.609300	0.304600	0.542100
O641	O64	0.648300	0.174400	0.530200
C1551	C155	0.403300	0.754000	0.369400
C1561	C156	0.655000	0.803100	0.236900
C1571	C157	0.482600	0.770200	0.337600
C1581	C158	0.516000	0.849700	0.330700
C1591	C159	0.571400	0.860900	0.297400
H711	H71	0.594000	0.914600	0.292300
C1601	C160	0.593600	0.793800	0.271600
C1611	C161	0.561900	0.711600	0.279900
H721	H72	0.576500	0.665300	0.263400
C1621	C162	0.507100	0.702200	0.314300
H731	H73	0.487300	0.648300	0.321300
C1631	C163	0.349800	0.215800	0.389800
C1641	C164	0.602800	0.237900	0.523500
C1651	C165	0.419200	0.218700	0.424000
C1661	C166	0.474800	0.149200	0.431600
C1671	C167	0.529200	0.156100	0.465000
H741	H74	0.563300	0.109800	0.471900
C1681	C168	0.535600	0.233100	0.490100
C1691	C169	0.483200	0.299000	0.480800
H751	H75	0.484800	0.348800	0.496400
C1701	C170	0.427200	0.291200	0.447600
H761	H76	0.393000	0.337600	0.441000
C1711	C171	0.497200	0.924700	0.356700
C1721	C172	0.495000	0.918600	0.399800
H771	H77	0.500100	0.865800	0.412600
C1731	C173	0.485200	0.991500	0.424100
H781	H78	0.486300	0.985800	0.452900
C1741	C174	0.474000	0.070800	0.407700
C1751	C175	0.472500	0.077000	0.362600
H791	H79	0.464600	0.129600	0.349900
C1761	C176	0.482700	0.005800	0.338800
H801	H80	0.480100	0.010600	0.310000
