data_KABNIL_clean_PM
_symmetry_space_group_name_H-M	'P1'
_cell_length_a	7.997300
_cell_length_b	9.774300
_cell_length_c	10.862700
_cell_angle_alpha	87.194000
_cell_angle_beta	84.679000
_cell_angle_gamma	74.744000
_symmetry_Int_Tables_number 1

loop_
_symmetry_equiv_pos_as_xyz
'x,y,z'

loop_
_atom_site_label
_atom_site_type_symbol
_atom_site_fract_x
_atom_site_fract_y
_atom_site_fract_z
Cu11	Cu1	0.877130	0.929440	0.013040
C11	C1	0.014400	0.987600	0.627900
C21	C2	0.116300	0.882000	0.549900
C31	C3	0.899600	0.103800	0.577300
C41	C4	0.020900	0.984000	0.766600
C51	C5	0.248600	0.754900	0.597200
C61	C6	0.375200	0.630800	0.008600
C71	C7	0.548700	0.621900	0.028100
C81	C8	0.328600	0.508600	0.981800
C91	C9	0.237700	0.770100	0.010300
C101	C10	0.608400	0.744700	0.071600
O11	O1	0.910900	0.933000	0.829900
O21	O2	0.125800	0.044100	0.807500
O31	O3	0.355100	0.689900	0.513000
O41	O4	0.248600	0.727000	0.709700
O51	O5	0.081800	0.765500	0.023400
O61	O6	0.289600	0.881900	0.995600
O71	O7	0.566800	0.778300	0.181000
O81	O8	0.703000	0.798900	0.994800
H11	H1	0.822400	0.182000	0.628600
H21	H2	0.215900	0.512800	0.966100
Cu21	Cu2	0.122870	0.070560	0.986960
C111	C11	0.985600	0.012400	0.372100
C121	C12	0.883700	0.118000	0.450100
C131	C13	0.100400	0.896200	0.422700
C141	C14	0.979100	0.016000	0.233400
C151	C15	0.751400	0.245100	0.402800
C161	C16	0.624800	0.369200	0.991400
C171	C17	0.451300	0.378100	0.971900
C181	C18	0.671400	0.491400	0.018200
C191	C19	0.762300	0.229900	0.989700
C201	C20	0.391600	0.255300	0.928400
O91	O9	0.089100	0.067000	0.170100
O101	O10	0.874200	0.955900	0.192500
O111	O11	0.644900	0.310100	0.487000
O121	O12	0.751400	0.273000	0.290300
O131	O13	0.918200	0.234500	0.976600
O141	O14	0.710400	0.118100	0.004400
O151	O15	0.433200	0.221700	0.819000
O161	O16	0.297000	0.201100	0.005200
H31	H3	0.177600	0.818000	0.371400
H41	H4	0.784100	0.487200	0.033900
Cu31	Cu3	0.500000	0.500000	0.500000
