data_KABXES_clean_PM
_symmetry_space_group_name_H-M	'P1'
_cell_length_a	13.721700
_cell_length_b	13.721700
_cell_length_c	16.419900
_cell_angle_alpha	67.080400
_cell_angle_beta	67.080400
_cell_angle_gamma	75.650200
_symmetry_Int_Tables_number 1

loop_
_symmetry_equiv_pos_as_xyz
'x,y,z'

loop_
_atom_site_label
_atom_site_type_symbol
_atom_site_fract_x
_atom_site_fract_y
_atom_site_fract_z
Sm11	Sm1	0.167440	0.454020	0.998250
Sm21	Sm2	0.545980	0.832560	0.501750
Sm31	Sm3	0.832560	0.545980	0.001750
Sm41	Sm4	0.454020	0.167440	0.498250
H11	H1	0.336900	0.221500	0.246000
H21	H2	0.453600	0.917200	0.283200
H31	H3	0.343900	0.080100	0.070200
H41	H4	0.072300	0.124500	0.156100
H51	H5	0.778500	0.663100	0.254000
H61	H6	0.082800	0.546400	0.216800
H71	H7	0.919900	0.656100	0.429800
H81	H8	0.875500	0.927700	0.343900
H91	H9	0.663100	0.778500	0.754000
H101	H10	0.546400	0.082800	0.716800
H111	H11	0.656100	0.919900	0.929800
H121	H12	0.927700	0.875500	0.843900
H131	H13	0.221500	0.336900	0.746000
H141	H14	0.917200	0.453600	0.783200
H151	H15	0.080100	0.343900	0.570200
H161	H16	0.124500	0.072300	0.656100
H171	H17	0.770200	0.229800	0.250000
H181	H18	0.229800	0.770200	0.750000
C11	C1	0.427070	0.063710	0.358940
C21	C2	0.401340	0.068560	0.276140
C31	C3	0.333450	0.168390	0.147150
C41	C4	0.281300	0.269060	0.092140
C51	C5	0.358110	0.078530	0.120040
C61	C6	0.926740	0.197040	0.189910
C71	C7	0.950220	0.307760	0.123070
C81	C8	0.009710	0.114910	0.191030
C91	C9	0.355000	0.162620	0.224980
C101	C10	0.423480	0.978060	0.250640
C111	C11	0.401210	0.985810	0.172910
C121	C12	0.936290	0.572930	0.141060
C131	C13	0.931440	0.598660	0.223860
C141	C14	0.831610	0.666550	0.352850
C151	C15	0.730940	0.718700	0.407860
C161	C16	0.921470	0.641890	0.379960
C171	C17	0.802960	0.073260	0.310090
C181	C18	0.692240	0.049780	0.376930
C191	C19	0.885090	0.990290	0.308970
C201	C20	0.837380	0.645000	0.275020
C211	C21	0.021940	0.576520	0.249360
C221	C22	0.014190	0.598790	0.327090
C231	C23	0.572930	0.936290	0.641060
C241	C24	0.598660	0.931440	0.723860
C251	C25	0.666550	0.831610	0.852850
C261	C26	0.718700	0.730940	0.907860
C271	C27	0.641890	0.921470	0.879960
C281	C28	0.073260	0.802960	0.810090
C291	C29	0.049780	0.692240	0.876930
C301	C30	0.990290	0.885090	0.808970
C311	C31	0.645000	0.837380	0.775020
C321	C32	0.576520	0.021940	0.749360
C331	C33	0.598790	0.014190	0.827090
C341	C34	0.063710	0.427070	0.858940
C351	C35	0.068560	0.401340	0.776140
C361	C36	0.168390	0.333450	0.647150
C371	C37	0.269060	0.281300	0.592140
C381	C38	0.078530	0.358110	0.620040
C391	C39	0.197040	0.926740	0.689910
C401	C40	0.307760	0.950220	0.623070
C411	C41	0.114910	0.009710	0.691030
C421	C42	0.162620	0.355000	0.724980
C431	C43	0.978060	0.423480	0.750640
C441	C44	0.985810	0.401210	0.672910
C451	C45	0.824080	0.175920	0.250000
C461	C46	0.986560	0.013440	0.250000
C471	C47	0.175920	0.824080	0.750000
C481	C48	0.013440	0.986560	0.750000
N11	N1	0.423510	0.889810	0.145630
N21	N2	0.110190	0.576490	0.354370
N31	N3	0.576490	0.110190	0.854370
N41	N4	0.889810	0.423510	0.645630
N51	N5	0.073940	0.926060	0.250000
N61	N6	0.926060	0.073940	0.750000
O11	O1	0.046340	0.323880	0.086720
O21	O2	0.406700	0.148020	0.378790
O31	O3	0.272900	0.271520	0.017790
O41	O4	0.872530	0.374670	0.109430
O51	O5	0.468060	0.976280	0.402280
O61	O6	0.246780	0.346640	0.122860
O71	O7	0.442070	0.803870	0.201430
O81	O8	0.421990	0.901490	0.068740
O91	O9	0.165200	0.948620	0.208800
O101	O10	0.676120	0.953660	0.413280
O111	O11	0.851980	0.593300	0.121210
O121	O12	0.728480	0.727100	0.482210
O131	O13	0.625330	0.127470	0.390570
O141	O14	0.023720	0.531940	0.097720
O151	O15	0.653360	0.753220	0.377140
O161	O16	0.196130	0.557930	0.298570
O171	O17	0.098510	0.578010	0.431260
O181	O18	0.051380	0.834800	0.291200
O191	O19	0.953660	0.676120	0.913280
O201	O20	0.593300	0.851980	0.621210
O211	O21	0.727100	0.728480	0.982210
O221	O22	0.127470	0.625330	0.890570
O231	O23	0.531940	0.023720	0.597720
O241	O24	0.753220	0.653360	0.877140
O251	O25	0.557930	0.196130	0.798570
O261	O26	0.578010	0.098510	0.931260
O271	O27	0.834800	0.051380	0.791200
O281	O28	0.323880	0.046340	0.586720
O291	O29	0.148020	0.406700	0.878790
O301	O30	0.271520	0.272900	0.517790
O311	O31	0.374670	0.872530	0.609430
O321	O32	0.976280	0.468060	0.902280
O331	O33	0.346640	0.246780	0.622860
O341	O34	0.803870	0.442070	0.701430
O351	O35	0.901490	0.421990	0.568740
O361	O36	0.948620	0.165200	0.708800
