data_KACZIZ_clean_PM
_symmetry_space_group_name_H-M	'P1'
_cell_length_a	33.525600
_cell_length_b	33.525600
_cell_length_c	33.525600
_cell_angle_alpha	109.471000
_cell_angle_beta	109.471000
_cell_angle_gamma	109.471000
_symmetry_Int_Tables_number 1

loop_
_symmetry_equiv_pos_as_xyz
'x,y,z'

loop_
_atom_site_label
_atom_site_type_symbol
_atom_site_fract_x
_atom_site_fract_y
_atom_site_fract_z
In11	In1	0.360910	0.278840	0.667670
In21	In2	0.111170	0.693240	0.832330
In31	In3	0.388830	0.221150	0.582070
In41	In4	0.139090	0.806770	0.917930
In51	In5	0.082070	0.388830	0.721160
In61	In6	0.417930	0.139090	0.306760
In71	In7	0.167680	0.360920	0.778850
In81	In8	0.332320	0.111160	0.193230
In91	In9	0.693240	0.332330	0.611170
In101	In10	0.278840	0.167670	0.860910
In111	In11	0.806760	0.417930	0.639080
In121	In12	0.221160	0.082070	0.888840
In131	In13	0.193240	0.611170	0.332330
In141	In14	0.778840	0.860910	0.167670
In151	In15	0.306760	0.639080	0.417930
In161	In16	0.721160	0.888840	0.082070
In171	In17	0.860910	0.667670	0.278840
In181	In18	0.611170	0.832330	0.693240
In191	In19	0.888830	0.582070	0.221150
In201	In20	0.639090	0.917930	0.806770
In211	In21	0.582070	0.721160	0.388830
In221	In22	0.917930	0.306760	0.139090
In231	In23	0.667680	0.778850	0.360920
In241	In24	0.832320	0.193230	0.111160
In251	In25	0.455100	0.250000	0.705100
In261	In26	0.044900	0.750000	0.794900
In271	In27	0.205100	0.455100	0.750000
In281	In28	0.294900	0.044900	0.250000
In291	In29	0.750000	0.294900	0.544900
In301	In30	0.250000	0.205100	0.955100
In311	In31	0.250000	0.544900	0.294900
In321	In32	0.750000	0.955100	0.205100
In331	In33	0.955100	0.705100	0.250000
In341	In34	0.544900	0.794900	0.750000
In351	In35	0.705100	0.750000	0.455100
In361	In36	0.794900	0.250000	0.044900
H11	H1	0.375100	0.199300	0.857200
H21	H2	0.250300	0.177600	0.767300
H31	H3	0.440000	0.230100	0.803300
H41	H4	0.440300	0.219400	0.843100
H51	H5	0.281300	0.197000	0.720900
H61	H6	0.430500	0.096600	0.655500
H71	H7	0.380200	0.878100	0.527300
H81	H8	0.356900	0.073400	0.522500
H91	H9	0.239600	0.766900	0.376300
H101	H10	0.263700	0.849800	0.413500
H111	H11	0.359000	0.795800	0.490400
H121	H12	0.410600	0.015100	0.620900
H131	H13	0.344500	0.994100	0.490800
H141	H14	0.842100	0.517900	0.642800
H151	H15	0.910300	0.483000	0.732700
H161	H16	0.926800	0.636700	0.696700
H171	H17	0.876300	0.597200	0.656900
H181	H18	0.976100	0.560400	0.779100
H191	H19	0.941100	0.775000	0.844500
H201	H20	0.850800	0.852900	0.972700
H211	H21	0.050900	0.834400	0.977500
H221	H22	0.890600	0.863300	0.123700
H231	H23	0.936300	0.850200	0.086500
H241	H24	0.805400	0.868600	0.009600
H251	H25	0.894200	0.789700	0.879100
H261	H26	0.003300	0.853700	0.009200
H271	H27	0.657900	0.300700	0.675800
H281	H28	0.589700	0.322400	0.572700
H291	H29	0.573200	0.269900	0.709900
H301	H30	0.623700	0.280600	0.720900
H311	H31	0.523900	0.303000	0.584300
H321	H32	0.558900	0.403400	0.833900
H331	H33	0.649200	0.621900	0.002100
H341	H34	0.449100	0.426600	0.783500
H351	H35	0.609400	0.733100	0.972700
H361	H36	0.563700	0.650200	0.913900
H371	H37	0.694600	0.704200	0.063200
H381	H38	0.605800	0.484900	0.895500
H391	H39	0.496700	0.505900	0.850400
H401	H40	0.124900	0.982100	0.824200
H411	H41	0.249700	0.017000	0.927300
H421	H42	0.060000	0.863300	0.790100
H431	H43	0.059700	0.902800	0.779100
H441	H44	0.218700	0.939600	0.915700
H451	H45	0.069500	0.725000	0.666100
H461	H46	0.119800	0.647100	0.497900
H471	H47	0.143100	0.665600	0.716500
H481	H48	0.260400	0.636700	0.527300
H491	H49	0.236300	0.649800	0.586100
H501	H50	0.141000	0.631400	0.436800
H511	H51	0.089400	0.710300	0.604500
H521	H52	0.155500	0.646300	0.649600
H531	H53	0.175800	0.657900	0.800700
H541	H54	0.072700	0.589700	0.822400
H551	H55	0.209900	0.573200	0.769900
H561	H56	0.220900	0.623700	0.780600
H571	H57	0.084300	0.523900	0.803000
H581	H58	0.333900	0.558900	0.903400
H591	H59	0.502100	0.649200	0.121900
H601	H60	0.283500	0.449100	0.926600
H611	H61	0.472700	0.609400	0.233100
H621	H62	0.413900	0.563700	0.150200
H631	H63	0.563200	0.694600	0.204200
H641	H64	0.395500	0.605800	0.984900
H651	H65	0.350400	0.496700	0.005900
H661	H66	0.324200	0.124900	0.482100
H671	H67	0.427300	0.249700	0.517000
H681	H68	0.290100	0.060000	0.363300
H691	H69	0.279100	0.059700	0.402800
H701	H70	0.415700	0.218700	0.439600
H711	H71	0.166100	0.069500	0.225000
H721	H72	0.997900	0.119800	0.147100
H731	H73	0.216500	0.143100	0.165600
H741	H74	0.027300	0.260400	0.136700
H751	H75	0.086100	0.236300	0.149800
H761	H76	0.936800	0.141000	0.131400
H771	H77	0.104500	0.089400	0.210300
H781	H78	0.149600	0.155500	0.146300
H791	H79	0.357200	0.375100	0.699300
H801	H80	0.267300	0.250300	0.677600
H811	H81	0.303300	0.440000	0.730100
H821	H82	0.343100	0.440300	0.719400
H831	H83	0.220900	0.281300	0.697000
H841	H84	0.155500	0.430500	0.596600
H851	H85	0.027300	0.380200	0.378100
H861	H86	0.022500	0.356900	0.573400
H871	H87	0.876300	0.239600	0.266900
H881	H88	0.913500	0.263700	0.349800
H891	H89	0.990400	0.359000	0.295800
H901	H90	0.120900	0.410600	0.515100
H911	H91	0.990800	0.344500	0.494100
H921	H92	0.142800	0.842100	0.017900
H931	H93	0.232700	0.910300	0.983000
H941	H94	0.196700	0.926800	0.136700
H951	H95	0.156900	0.876300	0.097200
H961	H96	0.279100	0.976100	0.060400
H971	H97	0.344500	0.941100	0.275000
H981	H98	0.472700	0.850800	0.352900
H991	H99	0.477500	0.050900	0.334400
H1001	H100	0.623700	0.890600	0.363300
H1011	H101	0.586500	0.936300	0.350200
H1021	H102	0.509600	0.805400	0.368600
H1031	H103	0.379100	0.894200	0.289700
H1041	H104	0.509200	0.003300	0.353700
H1051	H105	0.517900	0.142800	0.342100
H1061	H106	0.483000	0.232700	0.410300
H1071	H107	0.636700	0.196700	0.426800
H1081	H108	0.597200	0.156900	0.376300
H1091	H109	0.560400	0.279100	0.476100
H1101	H110	0.775000	0.344500	0.441100
H1111	H111	0.852900	0.472700	0.350800
H1121	H112	0.834400	0.477500	0.550900
H1131	H113	0.863300	0.623700	0.390600
H1141	H114	0.850200	0.586500	0.436300
H1151	H115	0.868600	0.509600	0.305400
H1161	H116	0.789700	0.379100	0.394200
H1171	H117	0.853700	0.509200	0.503300
H1181	H118	0.199300	0.357200	0.875100
H1191	H119	0.177600	0.267300	0.750300
H1201	H120	0.230100	0.303300	0.940000
H1211	H121	0.219400	0.343100	0.940300
H1221	H122	0.197000	0.220900	0.781300
H1231	H123	0.096600	0.155500	0.930500
H1241	H124	0.878100	0.027300	0.880200
H1251	H125	0.073400	0.022500	0.856900
H1261	H126	0.766900	0.876300	0.739600
H1271	H127	0.849800	0.913500	0.763700
H1281	H128	0.795800	0.990400	0.859000
H1291	H129	0.015100	0.120900	0.910600
H1301	H130	0.994100	0.990800	0.844500
H1311	H131	0.982100	0.324200	0.624900
H1321	H132	0.017000	0.427300	0.749700
H1331	H133	0.863300	0.290100	0.560000
H1341	H134	0.902800	0.279100	0.559700
H1351	H135	0.939600	0.415700	0.718700
H1361	H136	0.725000	0.166100	0.569500
H1371	H137	0.647100	0.997900	0.619800
H1381	H138	0.665600	0.216500	0.643100
H1391	H139	0.636700	0.027300	0.760400
H1401	H140	0.649800	0.086100	0.736300
H1411	H141	0.631400	0.936800	0.641000
H1421	H142	0.710300	0.104500	0.589400
H1431	H143	0.646300	0.149600	0.655500
H1441	H144	0.300700	0.175800	0.157900
H1451	H145	0.322400	0.072700	0.089700
H1461	H146	0.269900	0.209900	0.073200
H1471	H147	0.280600	0.220900	0.123700
H1481	H148	0.303000	0.084300	0.023900
H1491	H149	0.403400	0.333900	0.058900
H1501	H150	0.621900	0.502100	0.149200
H1511	H151	0.426600	0.283500	0.949100
H1521	H152	0.733100	0.472700	0.109400
H1531	H153	0.650200	0.413900	0.063700
H1541	H154	0.704200	0.563200	0.194600
H1551	H155	0.484900	0.395500	0.105800
H1561	H156	0.505900	0.350400	0.996700
H1571	H157	0.017900	0.342100	0.142800
H1581	H158	0.983000	0.410300	0.232700
H1591	H159	0.136700	0.426800	0.196700
H1601	H160	0.097200	0.376300	0.156900
H1611	H161	0.060400	0.476100	0.279100
H1621	H162	0.275000	0.441100	0.344500
H1631	H163	0.352900	0.350800	0.472700
H1641	H164	0.334400	0.550900	0.477500
H1651	H165	0.363300	0.390600	0.623700
H1661	H166	0.350200	0.436300	0.586500
H1671	H167	0.368600	0.305400	0.509600
H1681	H168	0.289700	0.394200	0.379100
H1691	H169	0.353700	0.503300	0.509200
H1701	H170	0.699300	0.875100	0.357200
H1711	H171	0.677600	0.750300	0.267300
H1721	H172	0.730100	0.940000	0.303300
H1731	H173	0.719400	0.940300	0.343100
H1741	H174	0.697000	0.781300	0.220900
H1751	H175	0.596600	0.930500	0.155500
H1761	H176	0.378100	0.880200	0.027300
H1771	H177	0.573400	0.856900	0.022500
H1781	H178	0.266900	0.739600	0.876300
H1791	H179	0.349800	0.763700	0.913500
H1801	H180	0.295800	0.859000	0.990400
H1811	H181	0.515100	0.910600	0.120900
H1821	H182	0.494100	0.844500	0.990800
H1831	H183	0.482100	0.624900	0.324200
H1841	H184	0.517000	0.749700	0.427300
H1851	H185	0.363300	0.560000	0.290100
H1861	H186	0.402800	0.559700	0.279100
H1871	H187	0.439600	0.718700	0.415700
H1881	H188	0.225000	0.569500	0.166100
H1891	H189	0.147100	0.619800	0.997900
H1901	H190	0.165600	0.643100	0.216500
H1911	H191	0.136700	0.760400	0.027300
H1921	H192	0.149800	0.736300	0.086100
H1931	H193	0.131400	0.641000	0.936800
H1941	H194	0.210300	0.589400	0.104500
H1951	H195	0.146300	0.655500	0.149600
H1961	H196	0.800700	0.157900	0.175800
H1971	H197	0.822400	0.089700	0.072700
H1981	H198	0.769900	0.073200	0.209900
H1991	H199	0.780600	0.123700	0.220900
H2001	H200	0.803000	0.023900	0.084300
H2011	H201	0.903400	0.058900	0.333900
H2021	H202	0.121900	0.149200	0.502100
H2031	H203	0.926600	0.949100	0.283500
H2041	H204	0.233100	0.109400	0.472700
H2051	H205	0.150200	0.063700	0.413900
H2061	H206	0.204200	0.194600	0.563200
H2071	H207	0.984900	0.105800	0.395500
H2081	H208	0.005900	0.996700	0.350400
H2091	H209	0.875100	0.857200	0.199300
H2101	H210	0.750300	0.767300	0.177600
H2111	H211	0.940000	0.803300	0.230100
H2121	H212	0.940300	0.843100	0.219400
H2131	H213	0.781300	0.720900	0.197000
H2141	H214	0.930500	0.655500	0.096600
H2151	H215	0.880200	0.527300	0.878100
H2161	H216	0.856900	0.522500	0.073400
H2171	H217	0.739600	0.376300	0.766900
H2181	H218	0.763700	0.413500	0.849800
H2191	H219	0.859000	0.490400	0.795800
H2201	H220	0.910600	0.620900	0.015100
H2211	H221	0.844500	0.490800	0.994100
H2221	H222	0.342100	0.642800	0.517900
H2231	H223	0.410300	0.732700	0.483000
H2241	H224	0.426800	0.696700	0.636700
H2251	H225	0.376300	0.656900	0.597200
H2261	H226	0.476100	0.779100	0.560400
H2271	H227	0.441100	0.844500	0.775000
H2281	H228	0.350800	0.972700	0.852900
H2291	H229	0.550900	0.977500	0.834400
H2301	H230	0.390600	0.123700	0.863300
H2311	H231	0.436300	0.086500	0.850200
H2321	H232	0.305400	0.009600	0.868600
H2331	H233	0.394200	0.879100	0.789700
H2341	H234	0.503300	0.009200	0.853700
H2351	H235	0.157900	0.675800	0.300700
H2361	H236	0.089700	0.572700	0.322400
H2371	H237	0.073200	0.709900	0.269900
H2381	H238	0.123700	0.720900	0.280600
H2391	H239	0.023900	0.584300	0.303000
H2401	H240	0.058900	0.833900	0.403400
H2411	H241	0.149200	0.002100	0.621900
H2421	H242	0.949100	0.783500	0.426600
H2431	H243	0.109400	0.972700	0.733100
H2441	H244	0.063700	0.913900	0.650200
H2451	H245	0.194600	0.063200	0.704200
H2461	H246	0.105800	0.895500	0.484900
H2471	H247	0.996700	0.850400	0.505900
H2481	H248	0.624900	0.824200	0.982100
H2491	H249	0.749700	0.927300	0.017000
H2501	H250	0.560000	0.790100	0.863300
H2511	H251	0.559700	0.779100	0.902800
H2521	H252	0.718700	0.915700	0.939600
H2531	H253	0.569500	0.666100	0.725000
H2541	H254	0.619800	0.497900	0.647100
H2551	H255	0.643100	0.716500	0.665600
H2561	H256	0.760400	0.527300	0.636700
H2571	H257	0.736300	0.586100	0.649800
H2581	H258	0.641000	0.436800	0.631400
H2591	H259	0.589400	0.604500	0.710300
H2601	H260	0.655500	0.649600	0.646300
H2611	H261	0.675800	0.800700	0.657900
H2621	H262	0.572700	0.822400	0.589700
H2631	H263	0.709900	0.769900	0.573200
H2641	H264	0.720900	0.780600	0.623700
H2651	H265	0.584300	0.803000	0.523900
H2661	H266	0.833900	0.903400	0.558900
H2671	H267	0.002100	0.121900	0.649200
H2681	H268	0.783500	0.926600	0.449100
H2691	H269	0.972700	0.233100	0.609400
H2701	H270	0.913900	0.150200	0.563700
H2711	H271	0.063200	0.204200	0.694600
H2721	H272	0.895500	0.984900	0.605800
H2731	H273	0.850400	0.005900	0.496700
H2741	H274	0.824200	0.482100	0.124900
H2751	H275	0.927300	0.517000	0.249700
H2761	H276	0.790100	0.363300	0.060000
H2771	H277	0.779100	0.402800	0.059700
H2781	H278	0.915700	0.439600	0.218700
H2791	H279	0.666100	0.225000	0.069500
H2801	H280	0.497900	0.147100	0.119800
H2811	H281	0.716500	0.165600	0.143100
H2821	H282	0.527300	0.136700	0.260400
H2831	H283	0.586100	0.149800	0.236300
H2841	H284	0.436800	0.131400	0.141000
H2851	H285	0.604500	0.210300	0.089400
H2861	H286	0.649600	0.146300	0.155500
H2871	H287	0.857200	0.699300	0.375100
H2881	H288	0.767300	0.677600	0.250300
H2891	H289	0.803300	0.730100	0.440000
H2901	H290	0.843100	0.719400	0.440300
H2911	H291	0.720900	0.697000	0.281300
H2921	H292	0.655500	0.596600	0.430500
H2931	H293	0.527300	0.378100	0.380200
H2941	H294	0.522500	0.573400	0.356900
H2951	H295	0.376300	0.266900	0.239600
H2961	H296	0.413500	0.349800	0.263700
H2971	H297	0.490400	0.295800	0.359000
H2981	H298	0.620900	0.515100	0.410600
H2991	H299	0.490800	0.494100	0.344500
H3001	H300	0.642800	0.017900	0.842100
H3011	H301	0.732700	0.983000	0.910300
H3021	H302	0.696700	0.136700	0.926800
H3031	H303	0.656900	0.097200	0.876300
H3041	H304	0.779100	0.060400	0.976100
H3051	H305	0.844500	0.275000	0.941100
H3061	H306	0.972700	0.352900	0.850800
H3071	H307	0.977500	0.334400	0.050900
H3081	H308	0.123700	0.363300	0.890600
H3091	H309	0.086500	0.350200	0.936300
H3101	H310	0.009600	0.368600	0.805400
H3111	H311	0.879100	0.289700	0.894200
H3121	H312	0.009200	0.353700	0.003300
C11	C1	0.349230	0.212560	0.761810
C21	C2	0.280580	0.719450	0.407970
C31	C3	0.356210	0.198460	0.829110
C41	C4	0.378500	0.210920	0.802180
C51	C5	0.282580	0.185970	0.776290
C61	C6	0.368840	0.228320	0.732240
C71	C7	0.301410	0.198330	0.748860
C81	C8	0.407480	0.146090	0.612510
C91	C9	0.396530	0.094020	0.591490
C101	C10	0.296470	0.772320	0.429570
C111	C11	0.412280	0.076330	0.621810
C121	C12	0.352600	0.855900	0.496500
C131	C13	0.326500	0.871800	0.473700
C141	C14	0.369770	0.063000	0.543570
C151	C15	0.268100	0.788920	0.406420
C161	C16	0.282700	0.838600	0.428500
C171	C17	0.375880	0.997750	0.554830
C181	C18	0.339370	0.806040	0.474810
C191	C19	0.400100	0.026900	0.600400
C201	C20	0.360800	0.014630	0.524430
C211	C21	0.950750	0.587420	0.738190
C221	C22	0.811480	0.872610	0.092030
C231	C23	0.869350	0.527100	0.670890
C241	C24	0.908740	0.576320	0.697820
C251	C25	0.909680	0.506290	0.723710
C261	C26	0.996080	0.636600	0.767760
C271	C27	0.949470	0.552550	0.751140
C281	C28	0.033580	0.794970	0.887490
C291	C29	0.002530	0.805040	0.908510
C301	C30	0.842750	0.866900	0.070430
C311	C31	0.954520	0.790470	0.878190
C321	C32	0.859400	0.856100	0.003500
C331	C33	0.898100	0.852800	0.026300
C341	C34	0.019430	0.826200	0.956430
C351	C35	0.882500	0.861680	0.093580
C361	C36	0.910100	0.854200	0.071500
C371	C37	0.942920	0.821050	0.945170
C381	C38	0.831230	0.864560	0.025190
C391	C39	0.926500	0.799700	0.899600
C401	C40	0.990200	0.836370	0.975570
C411	C41	0.549250	0.287440	0.636670
C421	C42	0.688520	0.780550	0.061130
C431	C43	0.630650	0.301540	0.657750
C441	C44	0.591260	0.289080	0.667580
C451	C45	0.590320	0.314030	0.596610
C461	C46	0.503920	0.271680	0.640520
C471	C47	0.550530	0.301670	0.603080
C481	C48	0.466420	0.353910	0.761390
C491	C49	0.497470	0.405980	0.802510
C501	C50	0.657250	0.727680	0.024150
C511	C51	0.545480	0.423670	0.835950
C521	C52	0.640600	0.644100	0.996700
C531	C53	0.601900	0.628200	0.954700
C541	C54	0.480570	0.437000	0.806770
C551	C55	0.617500	0.711080	0.979180
C561	C56	0.589900	0.661400	0.944100
C571	C57	0.557080	0.502250	0.878130
C581	C58	0.668770	0.693960	0.033330
C591	C59	0.573500	0.473100	0.873200
C601	C60	0.509800	0.485370	0.846170
C611	C61	0.150770	0.912580	0.863330
C621	C62	0.219420	0.627390	0.438870
C631	C63	0.143790	0.972900	0.842250
C641	C64	0.121500	0.923680	0.832420
C651	C65	0.217420	0.993710	0.903390
C661	C66	0.131160	0.863400	0.859480
C671	C67	0.198590	0.947450	0.896920
C681	C68	0.092520	0.705030	0.738610
C691	C69	0.103470	0.694960	0.697490
C701	C70	0.203530	0.633100	0.475850
C711	C71	0.087720	0.709530	0.664050
C721	C72	0.147400	0.643900	0.503300
C731	C73	0.173500	0.647200	0.545300
C741	C74	0.130230	0.673800	0.693230
C751	C75	0.231900	0.638320	0.520820
C761	C76	0.217300	0.645800	0.555900
C771	C77	0.124120	0.678950	0.621870
C781	C78	0.160630	0.635440	0.466670
C791	C79	0.099900	0.700300	0.626800
C801	C80	0.139200	0.663630	0.653830
C811	C81	0.136670	0.549250	0.787440
C821	C82	0.561130	0.688520	0.280550
C831	C83	0.157750	0.630650	0.801540
C841	C84	0.167580	0.591260	0.789080
C851	C85	0.096610	0.590320	0.814030
C861	C86	0.140520	0.503920	0.771680
C871	C87	0.103080	0.550530	0.801670
C881	C88	0.261390	0.466420	0.853910
C891	C89	0.302510	0.497470	0.905980
C901	C90	0.524150	0.657250	0.227680
C911	C91	0.335950	0.545480	0.923670
C921	C92	0.496700	0.640600	0.144100
C931	C93	0.454700	0.601900	0.128200
C941	C94	0.306770	0.480570	0.937000
C951	C95	0.479180	0.617500	0.211080
C961	C96	0.444100	0.589900	0.161400
C971	C97	0.378130	0.557080	0.002250
C981	C98	0.533330	0.668770	0.193960
C991	C99	0.373200	0.573500	0.973100
C1001	C100	0.346170	0.509800	0.985370
C1011	C101	0.363330	0.150770	0.412580
C1021	C102	0.938870	0.219420	0.127390
C1031	C103	0.342250	0.143790	0.472900
C1041	C104	0.332420	0.121500	0.423680
C1051	C105	0.403390	0.217420	0.493710
C1061	C106	0.359480	0.131160	0.363400
C1071	C107	0.396920	0.198590	0.447450
C1081	C108	0.238610	0.092520	0.205030
C1091	C109	0.197490	0.103470	0.194960
C1101	C110	0.975850	0.203530	0.133100
C1111	C111	0.164050	0.087720	0.209530
C1121	C112	0.003300	0.147400	0.143900
C1131	C113	0.045300	0.173500	0.147200
C1141	C114	0.193230	0.130230	0.173800
C1151	C115	0.020820	0.231900	0.138320
C1161	C116	0.055900	0.217300	0.145800
C1171	C117	0.121870	0.124120	0.178950
C1181	C118	0.966670	0.160630	0.135440
C1191	C119	0.126800	0.099900	0.200300
C1201	C120	0.153830	0.139200	0.163630
C1211	C121	0.261810	0.349230	0.712560
C1221	C122	0.907970	0.280580	0.219450
C1231	C123	0.329110	0.356210	0.698460
C1241	C124	0.302180	0.378500	0.710920
C1251	C125	0.276290	0.282580	0.685970
C1261	C126	0.232240	0.368840	0.728320
C1271	C127	0.248860	0.301410	0.698330
C1281	C128	0.112510	0.407480	0.646090
C1291	C129	0.091490	0.396530	0.594020
C1301	C130	0.929570	0.296470	0.272320
C1311	C131	0.121810	0.412280	0.576330
C1321	C132	0.996500	0.352600	0.355900
C1331	C133	0.973700	0.326500	0.371800
C1341	C134	0.043570	0.369770	0.563000
C1351	C135	0.906420	0.268100	0.288920
C1361	C136	0.928500	0.282700	0.338600
C1371	C137	0.054830	0.375880	0.497750
C1381	C138	0.974810	0.339370	0.306040
C1391	C139	0.100400	0.400100	0.526900
C1401	C140	0.024430	0.360800	0.514630
C1411	C141	0.238190	0.950750	0.087420
C1421	C142	0.592030	0.811480	0.372610
C1431	C143	0.170890	0.869350	0.027100
C1441	C144	0.197820	0.908740	0.076320
C1451	C145	0.223710	0.909680	0.006290
C1461	C146	0.267760	0.996080	0.136600
C1471	C147	0.251140	0.949470	0.052550
C1481	C148	0.387490	0.033580	0.294970
C1491	C149	0.408510	0.002530	0.305040
C1501	C150	0.570430	0.842750	0.366900
C1511	C151	0.378190	0.954520	0.290470
C1521	C152	0.503500	0.859400	0.356100
C1531	C153	0.526300	0.898100	0.352800
C1541	C154	0.456430	0.019430	0.326200
C1551	C155	0.593580	0.882500	0.361680
C1561	C156	0.571500	0.910100	0.354200
C1571	C157	0.445170	0.942920	0.321050
C1581	C158	0.525190	0.831230	0.364560
C1591	C159	0.399600	0.926500	0.299700
C1601	C160	0.475570	0.990200	0.336370
C1611	C161	0.587420	0.238190	0.450750
C1621	C162	0.872610	0.592030	0.311480
C1631	C163	0.527100	0.170890	0.369350
C1641	C164	0.576320	0.197820	0.408740
C1651	C165	0.506290	0.223710	0.409680
C1661	C166	0.636600	0.267760	0.496080
C1671	C167	0.552550	0.251140	0.449470
C1681	C168	0.794970	0.387490	0.533580
C1691	C169	0.805040	0.408510	0.502530
C1701	C170	0.866900	0.570430	0.342750
C1711	C171	0.790470	0.378190	0.454520
C1721	C172	0.856100	0.503500	0.359400
C1731	C173	0.852800	0.526300	0.398100
C1741	C174	0.826200	0.456430	0.519430
C1751	C175	0.861680	0.593580	0.382500
C1761	C176	0.854200	0.571500	0.410100
C1771	C177	0.821050	0.445170	0.442920
C1781	C178	0.864560	0.525190	0.331230
C1791	C179	0.799700	0.399600	0.426500
C1801	C180	0.836370	0.475570	0.490200
C1811	C181	0.212560	0.261810	0.849230
C1821	C182	0.719450	0.907970	0.780580
C1831	C183	0.198460	0.329110	0.856210
C1841	C184	0.210920	0.302180	0.878500
C1851	C185	0.185970	0.276290	0.782580
C1861	C186	0.228320	0.232240	0.868840
C1871	C187	0.198330	0.248860	0.801410
C1881	C188	0.146090	0.112510	0.907480
C1891	C189	0.094020	0.091490	0.896530
C1901	C190	0.772320	0.929570	0.796470
C1911	C191	0.076330	0.121810	0.912280
C1921	C192	0.855900	0.996500	0.852600
C1931	C193	0.871800	0.973700	0.826500
C1941	C194	0.063000	0.043570	0.869770
C1951	C195	0.788920	0.906420	0.768100
C1961	C196	0.838600	0.928500	0.782700
C1971	C197	0.997750	0.054830	0.875880
C1981	C198	0.806040	0.974810	0.839370
C1991	C199	0.026900	0.100400	0.900100
C2001	C200	0.014630	0.024430	0.860800
C2011	C201	0.912580	0.363330	0.650770
C2021	C202	0.627390	0.938870	0.719420
C2031	C203	0.972900	0.342250	0.643790
C2041	C204	0.923680	0.332420	0.621500
C2051	C205	0.993710	0.403390	0.717420
C2061	C206	0.863400	0.359480	0.631160
C2071	C207	0.947450	0.396920	0.698590
C2081	C208	0.705030	0.238610	0.592520
C2091	C209	0.694960	0.197490	0.603470
C2101	C210	0.633100	0.975850	0.703530
C2111	C211	0.709530	0.164050	0.587720
C2121	C212	0.643900	0.003300	0.647400
C2131	C213	0.647200	0.045300	0.673500
C2141	C214	0.673800	0.193230	0.630230
C2151	C215	0.638320	0.020820	0.731900
C2161	C216	0.645800	0.055900	0.717300
C2171	C217	0.678950	0.121870	0.624120
C2181	C218	0.635440	0.966670	0.660630
C2191	C219	0.700300	0.126800	0.599900
C2201	C220	0.663630	0.153830	0.639200
C2211	C221	0.287440	0.136670	0.049250
C2221	C222	0.780550	0.561130	0.188520
C2231	C223	0.301540	0.157750	0.130650
C2241	C224	0.289080	0.167580	0.091260
C2251	C225	0.314030	0.096610	0.090320
C2261	C226	0.271680	0.140520	0.003920
C2271	C227	0.301670	0.103080	0.050530
C2281	C228	0.353910	0.261390	0.966420
C2291	C229	0.405980	0.302510	0.997470
C2301	C230	0.727680	0.524150	0.157250
C2311	C231	0.423670	0.335950	0.045480
C2321	C232	0.644100	0.496700	0.140600
C2331	C233	0.628200	0.454700	0.101900
C2341	C234	0.437000	0.306770	0.980570
C2351	C235	0.711080	0.479180	0.117500
C2361	C236	0.661400	0.444100	0.089900
C2371	C237	0.502250	0.378130	0.057080
C2381	C238	0.693960	0.533330	0.168770
C2391	C239	0.473100	0.373200	0.073500
C2401	C240	0.485370	0.346170	0.009800
C2411	C241	0.087420	0.450750	0.238190
C2421	C242	0.372610	0.311480	0.592030
C2431	C243	0.027100	0.369350	0.170890
C2441	C244	0.076320	0.408740	0.197820
C2451	C245	0.006290	0.409680	0.223710
C2461	C246	0.136600	0.496080	0.267760
C2471	C247	0.052550	0.449470	0.251140
C2481	C248	0.294970	0.533580	0.387490
C2491	C249	0.305040	0.502530	0.408510
C2501	C250	0.366900	0.342750	0.570430
C2511	C251	0.290470	0.454520	0.378190
C2521	C252	0.356100	0.359400	0.503500
C2531	C253	0.352800	0.398100	0.526300
C2541	C254	0.326200	0.519430	0.456430
C2551	C255	0.361680	0.382500	0.593580
C2561	C256	0.354200	0.410100	0.571500
C2571	C257	0.321050	0.442920	0.445170
C2581	C258	0.364560	0.331230	0.525190
C2591	C259	0.299700	0.426500	0.399600
C2601	C260	0.336370	0.490200	0.475570
C2611	C261	0.712560	0.849230	0.261810
C2621	C262	0.219450	0.780580	0.907970
C2631	C263	0.698460	0.856210	0.329110
C2641	C264	0.710920	0.878500	0.302180
C2651	C265	0.685970	0.782580	0.276290
C2661	C266	0.728320	0.868840	0.232240
C2671	C267	0.698330	0.801410	0.248860
C2681	C268	0.646090	0.907480	0.112510
C2691	C269	0.594020	0.896530	0.091490
C2701	C270	0.272320	0.796470	0.929570
C2711	C271	0.576330	0.912280	0.121810
C2721	C272	0.355900	0.852600	0.996500
C2731	C273	0.371800	0.826500	0.973700
C2741	C274	0.563000	0.869770	0.043570
C2751	C275	0.288920	0.768100	0.906420
C2761	C276	0.338600	0.782700	0.928500
C2771	C277	0.497750	0.875880	0.054830
C2781	C278	0.306040	0.839370	0.974810
C2791	C279	0.526900	0.900100	0.100400
C2801	C280	0.514630	0.860800	0.024430
C2811	C281	0.412580	0.650770	0.363330
C2821	C282	0.127390	0.719420	0.938870
C2831	C283	0.472900	0.643790	0.342250
C2841	C284	0.423680	0.621500	0.332420
C2851	C285	0.493710	0.717420	0.403390
C2861	C286	0.363400	0.631160	0.359480
C2871	C287	0.447450	0.698590	0.396920
C2881	C288	0.205030	0.592520	0.238610
C2891	C289	0.194960	0.603470	0.197490
C2901	C290	0.133100	0.703530	0.975850
C2911	C291	0.209530	0.587720	0.164050
C2921	C292	0.143900	0.647400	0.003300
C2931	C293	0.147200	0.673500	0.045300
C2941	C294	0.173800	0.630230	0.193230
C2951	C295	0.138320	0.731900	0.020820
C2961	C296	0.145800	0.717300	0.055900
C2971	C297	0.178950	0.624120	0.121870
C2981	C298	0.135440	0.660630	0.966670
C2991	C299	0.200300	0.599900	0.126800
C3001	C300	0.163630	0.639200	0.153830
C3011	C301	0.787440	0.049250	0.136670
C3021	C302	0.280550	0.188520	0.561130
C3031	C303	0.801540	0.130650	0.157750
C3041	C304	0.789080	0.091260	0.167580
C3051	C305	0.814030	0.090320	0.096610
C3061	C306	0.771680	0.003920	0.140520
C3071	C307	0.801670	0.050530	0.103080
C3081	C308	0.853910	0.966420	0.261390
C3091	C309	0.905980	0.997470	0.302510
C3101	C310	0.227680	0.157250	0.524150
C3111	C311	0.923670	0.045480	0.335950
C3121	C312	0.144100	0.140600	0.496700
C3131	C313	0.128200	0.101900	0.454700
C3141	C314	0.937000	0.980570	0.306770
C3151	C315	0.211080	0.117500	0.479180
C3161	C316	0.161400	0.089900	0.444100
C3171	C317	0.002250	0.057080	0.378130
C3181	C318	0.193960	0.168770	0.533330
C3191	C319	0.973100	0.073500	0.373200
C3201	C320	0.985370	0.009800	0.346170
C3211	C321	0.849230	0.761810	0.212560
C3221	C322	0.780580	0.407970	0.719450
C3231	C323	0.856210	0.829110	0.198460
C3241	C324	0.878500	0.802180	0.210920
C3251	C325	0.782580	0.776290	0.185970
C3261	C326	0.868840	0.732240	0.228320
C3271	C327	0.801410	0.748860	0.198330
C3281	C328	0.907480	0.612510	0.146090
C3291	C329	0.896530	0.591490	0.094020
C3301	C330	0.796470	0.429570	0.772320
C3311	C331	0.912280	0.621810	0.076330
C3321	C332	0.852600	0.496500	0.855900
C3331	C333	0.826500	0.473700	0.871800
C3341	C334	0.869770	0.543570	0.063000
C3351	C335	0.768100	0.406420	0.788920
C3361	C336	0.782700	0.428500	0.838600
C3371	C337	0.875880	0.554830	0.997750
C3381	C338	0.839370	0.474810	0.806040
C3391	C339	0.900100	0.600400	0.026900
C3401	C340	0.860800	0.524430	0.014630
C3411	C341	0.450750	0.738190	0.587420
C3421	C342	0.311480	0.092030	0.872610
C3431	C343	0.369350	0.670890	0.527100
C3441	C344	0.408740	0.697820	0.576320
C3451	C345	0.409680	0.723710	0.506290
C3461	C346	0.496080	0.767760	0.636600
C3471	C347	0.449470	0.751140	0.552550
C3481	C348	0.533580	0.887490	0.794970
C3491	C349	0.502530	0.908510	0.805040
C3501	C350	0.342750	0.070430	0.866900
C3511	C351	0.454520	0.878190	0.790470
C3521	C352	0.359400	0.003500	0.856100
C3531	C353	0.398100	0.026300	0.852800
C3541	C354	0.519430	0.956430	0.826200
C3551	C355	0.382500	0.093580	0.861680
C3561	C356	0.410100	0.071500	0.854200
C3571	C357	0.442920	0.945170	0.821050
C3581	C358	0.331230	0.025190	0.864560
C3591	C359	0.426500	0.899600	0.799700
C3601	C360	0.490200	0.975570	0.836370
C3611	C361	0.049250	0.636670	0.287440
C3621	C362	0.188520	0.061130	0.780550
C3631	C363	0.130650	0.657750	0.301540
C3641	C364	0.091260	0.667580	0.289080
C3651	C365	0.090320	0.596610	0.314030
C3661	C366	0.003920	0.640520	0.271680
C3671	C367	0.050530	0.603080	0.301670
C3681	C368	0.966420	0.761390	0.353910
C3691	C369	0.997470	0.802510	0.405980
C3701	C370	0.157250	0.024150	0.727680
C3711	C371	0.045480	0.835950	0.423670
C3721	C372	0.140600	0.996700	0.644100
C3731	C373	0.101900	0.954700	0.628200
C3741	C374	0.980570	0.806770	0.437000
C3751	C375	0.117500	0.979180	0.711080
C3761	C376	0.089900	0.944100	0.661400
C3771	C377	0.057080	0.878130	0.502250
C3781	C378	0.168770	0.033330	0.693960
C3791	C379	0.073500	0.873200	0.473100
C3801	C380	0.009800	0.846170	0.485370
C3811	C381	0.650770	0.863330	0.912580
C3821	C382	0.719420	0.438870	0.627390
C3831	C383	0.643790	0.842250	0.972900
C3841	C384	0.621500	0.832420	0.923680
C3851	C385	0.717420	0.903390	0.993710
C3861	C386	0.631160	0.859480	0.863400
C3871	C387	0.698590	0.896920	0.947450
C3881	C388	0.592520	0.738610	0.705030
C3891	C389	0.603470	0.697490	0.694960
C3901	C390	0.703530	0.475850	0.633100
C3911	C391	0.587720	0.664050	0.709530
C3921	C392	0.647400	0.503300	0.643900
C3931	C393	0.673500	0.545300	0.647200
C3941	C394	0.630230	0.693230	0.673800
C3951	C395	0.731900	0.520820	0.638320
C3961	C396	0.717300	0.555900	0.645800
C3971	C397	0.624120	0.621870	0.678950
C3981	C398	0.660630	0.466670	0.635440
C3991	C399	0.599900	0.626800	0.700300
C4001	C400	0.639200	0.653830	0.663630
C4011	C401	0.636670	0.787440	0.549250
C4021	C402	0.061130	0.280550	0.688520
C4031	C403	0.657750	0.801540	0.630650
C4041	C404	0.667580	0.789080	0.591260
C4051	C405	0.596610	0.814030	0.590320
C4061	C406	0.640520	0.771680	0.503920
C4071	C407	0.603080	0.801670	0.550530
C4081	C408	0.761390	0.853910	0.466420
C4091	C409	0.802510	0.905980	0.497470
C4101	C410	0.024150	0.227680	0.657250
C4111	C411	0.835950	0.923670	0.545480
C4121	C412	0.996700	0.144100	0.640600
C4131	C413	0.954700	0.128200	0.601900
C4141	C414	0.806770	0.937000	0.480570
C4151	C415	0.979180	0.211080	0.617500
C4161	C416	0.944100	0.161400	0.589900
C4171	C417	0.878130	0.002250	0.557080
C4181	C418	0.033330	0.193960	0.668770
C4191	C419	0.873200	0.973100	0.573500
C4201	C420	0.846170	0.985370	0.509800
C4211	C421	0.863330	0.412580	0.150770
C4221	C422	0.438870	0.127390	0.219420
C4231	C423	0.842250	0.472900	0.143790
C4241	C424	0.832420	0.423680	0.121500
C4251	C425	0.903390	0.493710	0.217420
C4261	C426	0.859480	0.363400	0.131160
C4271	C427	0.896920	0.447450	0.198590
C4281	C428	0.738610	0.205030	0.092520
C4291	C429	0.697490	0.194960	0.103470
C4301	C430	0.475850	0.133100	0.203530
C4311	C431	0.664050	0.209530	0.087720
C4321	C432	0.503300	0.143900	0.147400
C4331	C433	0.545300	0.147200	0.173500
C4341	C434	0.693230	0.173800	0.130230
C4351	C435	0.520820	0.138320	0.231900
C4361	C436	0.555900	0.145800	0.217300
C4371	C437	0.621870	0.178950	0.124120
C4381	C438	0.466670	0.135440	0.160630
C4391	C439	0.626800	0.200300	0.099900
C4401	C440	0.653830	0.163630	0.139200
C4411	C441	0.761810	0.712560	0.349230
C4421	C442	0.407970	0.219450	0.280580
C4431	C443	0.829110	0.698460	0.356210
C4441	C444	0.802180	0.710920	0.378500
C4451	C445	0.776290	0.685970	0.282580
C4461	C446	0.732240	0.728320	0.368840
C4471	C447	0.748860	0.698330	0.301410
C4481	C448	0.612510	0.646090	0.407480
C4491	C449	0.591490	0.594020	0.396530
C4501	C450	0.429570	0.272320	0.296470
C4511	C451	0.621810	0.576330	0.412280
C4521	C452	0.496500	0.355900	0.352600
C4531	C453	0.473700	0.371800	0.326500
C4541	C454	0.543570	0.563000	0.369770
C4551	C455	0.406420	0.288920	0.268100
C4561	C456	0.428500	0.338600	0.282700
C4571	C457	0.554830	0.497750	0.375880
C4581	C458	0.474810	0.306040	0.339370
C4591	C459	0.600400	0.526900	0.400100
C4601	C460	0.524430	0.514630	0.360800
C4611	C461	0.738190	0.087420	0.950750
C4621	C462	0.092030	0.372610	0.811480
C4631	C463	0.670890	0.027100	0.869350
C4641	C464	0.697820	0.076320	0.908740
C4651	C465	0.723710	0.006290	0.909680
C4661	C466	0.767760	0.136600	0.996080
C4671	C467	0.751140	0.052550	0.949470
C4681	C468	0.887490	0.294970	0.033580
C4691	C469	0.908510	0.305040	0.002530
C4701	C470	0.070430	0.366900	0.842750
C4711	C471	0.878190	0.290470	0.954520
C4721	C472	0.003500	0.356100	0.859400
C4731	C473	0.026300	0.352800	0.898100
C4741	C474	0.956430	0.326200	0.019430
C4751	C475	0.093580	0.361680	0.882500
C4761	C476	0.071500	0.354200	0.910100
C4771	C477	0.945170	0.321050	0.942920
C4781	C478	0.025190	0.364560	0.831230
C4791	C479	0.899600	0.299700	0.926500
C4801	C480	0.975570	0.336370	0.990200
N11	N1	0.310190	0.185810	0.816240
N21	N2	0.425240	0.221380	0.818100
N31	N3	0.366700	0.948030	0.536930
N41	N4	0.333790	0.920330	0.493120
N51	N5	0.869570	0.493950	0.683760
N61	N6	0.903280	0.607140	0.681900
N71	N7	0.911100	0.829770	0.963070
N81	N8	0.927210	0.840670	0.006880
N91	N9	0.630430	0.314190	0.624380
N101	N10	0.596720	0.278620	0.703860
N111	N11	0.588900	0.551970	0.918670
N121	N12	0.572790	0.579670	0.913460
N131	N13	0.189810	0.006050	0.875620
N141	N14	0.074760	0.892860	0.796140
N151	N15	0.133300	0.670230	0.581330
N161	N16	0.166210	0.659330	0.586540
N171	N17	0.124380	0.630430	0.814190
N181	N18	0.203860	0.596720	0.778620
N191	N19	0.418670	0.588900	0.051970
N201	N20	0.413460	0.572790	0.079670
N211	N21	0.375620	0.189810	0.506050
N221	N22	0.296140	0.074760	0.392860
N231	N23	0.081330	0.133300	0.170230
N241	N24	0.086540	0.166210	0.159330
N251	N25	0.316240	0.310190	0.685810
N261	N26	0.318100	0.425240	0.721380
N271	N27	0.036930	0.366700	0.448030
N281	N28	0.993120	0.333790	0.420330
N291	N29	0.183760	0.869570	0.993950
N301	N30	0.181900	0.903280	0.107140
N311	N31	0.463070	0.911100	0.329770
N321	N32	0.506880	0.927210	0.340670
N331	N33	0.493950	0.183760	0.369570
N341	N34	0.607140	0.181900	0.403280
N351	N35	0.829770	0.463070	0.411100
N361	N36	0.840670	0.506880	0.427210
N371	N37	0.185810	0.316240	0.810190
N381	N38	0.221380	0.318100	0.925240
N391	N39	0.948030	0.036930	0.866700
N401	N40	0.920330	0.993120	0.833790
N411	N41	0.006050	0.375620	0.689810
N421	N42	0.892860	0.296140	0.574760
N431	N43	0.670230	0.081330	0.633300
N441	N44	0.659330	0.086540	0.666210
N451	N45	0.314190	0.124380	0.130430
N461	N46	0.278620	0.203860	0.096720
N471	N47	0.551970	0.418670	0.088900
N481	N48	0.579670	0.413460	0.072790
N491	N49	0.993950	0.369570	0.183760
N501	N50	0.107140	0.403280	0.181900
N511	N51	0.329770	0.411100	0.463070
N521	N52	0.340670	0.427210	0.506880
N531	N53	0.685810	0.810190	0.316240
N541	N54	0.721380	0.925240	0.318100
N551	N55	0.448030	0.866700	0.036930
N561	N56	0.420330	0.833790	0.993120
N571	N57	0.506050	0.689810	0.375620
N581	N58	0.392860	0.574760	0.296140
N591	N59	0.170230	0.633300	0.081330
N601	N60	0.159330	0.666210	0.086540
N611	N61	0.814190	0.130430	0.124380
N621	N62	0.778620	0.096720	0.203860
N631	N63	0.051970	0.088900	0.418670
N641	N64	0.079670	0.072790	0.413460
N651	N65	0.810190	0.816240	0.185810
N661	N66	0.925240	0.818100	0.221380
N671	N67	0.866700	0.536930	0.948030
N681	N68	0.833790	0.493120	0.920330
N691	N69	0.369570	0.683760	0.493950
N701	N70	0.403280	0.681900	0.607140
N711	N71	0.411100	0.963070	0.829770
N721	N72	0.427210	0.006880	0.840670
N731	N73	0.130430	0.624380	0.314190
N741	N74	0.096720	0.703860	0.278620
N751	N75	0.088900	0.918670	0.551970
N761	N76	0.072790	0.913460	0.579670
N771	N77	0.689810	0.875620	0.006050
N781	N78	0.574760	0.796140	0.892860
N791	N79	0.633300	0.581330	0.670230
N801	N80	0.666210	0.586540	0.659330
N811	N81	0.624380	0.814190	0.630430
N821	N82	0.703860	0.778620	0.596720
N831	N83	0.918670	0.051970	0.588900
N841	N84	0.913460	0.079670	0.572790
N851	N85	0.875620	0.506050	0.189810
N861	N86	0.796140	0.392860	0.074760
N871	N87	0.581330	0.170230	0.133300
N881	N88	0.586540	0.159330	0.166210
N891	N89	0.816240	0.685810	0.310190
N901	N90	0.818100	0.721380	0.425240
N911	N91	0.536930	0.448030	0.366700
N921	N92	0.493120	0.420330	0.333790
N931	N93	0.683760	0.993950	0.869570
N941	N94	0.681900	0.107140	0.903280
N951	N95	0.963070	0.329770	0.911100
N961	N96	0.006880	0.340670	0.927210
O11	O1	0.409570	0.231080	0.737750
O21	O2	0.428210	0.172300	0.658990
O31	O3	0.239870	0.690620	0.369510
O41	O4	0.308820	0.707330	0.428570
O51	O5	0.343320	0.238210	0.703990
O61	O6	0.395210	0.159120	0.581090
O71	O7	0.993330	0.671820	0.762250
O81	O8	0.013310	0.769220	0.841010
O91	O9	0.821110	0.870360	0.130490
O101	O10	0.778760	0.880250	0.071430
O111	O11	0.034220	0.639330	0.796010
O121	O12	0.078030	0.814120	0.918910
O131	O13	0.506670	0.268920	0.678490
O141	O14	0.486690	0.327700	0.755910
O151	O15	0.678890	0.809380	0.049250
O161	O16	0.721240	0.792670	0.101490
O171	O17	0.465780	0.261790	0.605110
O181	O18	0.421970	0.340880	0.736090
O191	O19	0.090430	0.828180	0.821510
O201	O20	0.071790	0.730780	0.744090
O211	O21	0.260130	0.629640	0.450750
O221	O22	0.191180	0.619750	0.398510
O231	O23	0.156680	0.860670	0.894890
O241	O24	0.104790	0.685880	0.763910
O251	O25	0.178490	0.506670	0.768920
O261	O26	0.255910	0.486690	0.827700
O271	O27	0.549250	0.678890	0.309380
O281	O28	0.601490	0.721240	0.292670
O291	O29	0.105110	0.465780	0.761790
O301	O30	0.236090	0.421970	0.840880
O311	O31	0.321510	0.090430	0.328180
O321	O32	0.244090	0.071790	0.230780
O331	O33	0.950750	0.260130	0.129640
O341	O34	0.898510	0.191180	0.119750
O351	O35	0.394890	0.156680	0.360670
O361	O36	0.263910	0.104790	0.185880
O371	O37	0.237750	0.409570	0.731080
O381	O38	0.158990	0.428210	0.672300
O391	O39	0.869510	0.239870	0.190620
O401	O40	0.928570	0.308820	0.207330
O411	O41	0.203990	0.343320	0.738210
O421	O42	0.081090	0.395210	0.659120
O431	O43	0.262250	0.993330	0.171820
O441	O44	0.341010	0.013310	0.269220
O451	O45	0.630490	0.821110	0.370360
O461	O46	0.571430	0.778760	0.380250
O471	O47	0.296010	0.034220	0.139330
O481	O48	0.418910	0.078030	0.314120
O491	O49	0.671820	0.262250	0.493330
O501	O50	0.769220	0.341010	0.513310
O511	O51	0.870360	0.630490	0.321110
O521	O52	0.880250	0.571430	0.278760
O531	O53	0.639330	0.296010	0.534220
O541	O54	0.814120	0.418910	0.578030
O551	O55	0.231080	0.237750	0.909570
O561	O56	0.172300	0.158990	0.928210
O571	O57	0.690620	0.869510	0.739870
O581	O58	0.707330	0.928570	0.808820
O591	O59	0.238210	0.203990	0.843320
O601	O60	0.159120	0.081090	0.895210
O611	O61	0.828180	0.321510	0.590430
O621	O62	0.730780	0.244090	0.571790
O631	O63	0.629640	0.950750	0.760130
O641	O64	0.619750	0.898510	0.691180
O651	O65	0.860670	0.394890	0.656680
O661	O66	0.685880	0.263910	0.604790
O671	O67	0.268920	0.178490	0.006670
O681	O68	0.327700	0.255910	0.986690
O691	O69	0.809380	0.549250	0.178890
O701	O70	0.792670	0.601490	0.221240
O711	O71	0.261790	0.105110	0.965780
O721	O72	0.340880	0.236090	0.921970
O731	O73	0.171820	0.493330	0.262250
O741	O74	0.269220	0.513310	0.341010
O751	O75	0.370360	0.321110	0.630490
O761	O76	0.380250	0.278760	0.571430
O771	O77	0.139330	0.534220	0.296010
O781	O78	0.314120	0.578030	0.418910
O791	O79	0.731080	0.909570	0.237750
O801	O80	0.672300	0.928210	0.158990
O811	O81	0.190620	0.739870	0.869510
O821	O82	0.207330	0.808820	0.928570
O831	O83	0.738210	0.843320	0.203990
O841	O84	0.659120	0.895210	0.081090
O851	O85	0.328180	0.590430	0.321510
O861	O86	0.230780	0.571790	0.244090
O871	O87	0.129640	0.760130	0.950750
O881	O88	0.119750	0.691180	0.898510
O891	O89	0.360670	0.656680	0.394890
O901	O90	0.185880	0.604790	0.263910
O911	O91	0.768920	0.006670	0.178490
O921	O92	0.827700	0.986690	0.255910
O931	O93	0.309380	0.178890	0.549250
O941	O94	0.292670	0.221240	0.601490
O951	O95	0.761790	0.965780	0.105110
O961	O96	0.840880	0.921970	0.236090
O971	O97	0.909570	0.737750	0.231080
O981	O98	0.928210	0.658990	0.172300
O991	O99	0.739870	0.369510	0.690620
O1001	O100	0.808820	0.428570	0.707330
O1011	O101	0.843320	0.703990	0.238210
O1021	O102	0.895210	0.581090	0.159120
O1031	O103	0.493330	0.762250	0.671820
O1041	O104	0.513310	0.841010	0.769220
O1051	O105	0.321110	0.130490	0.870360
O1061	O106	0.278760	0.071430	0.880250
O1071	O107	0.534220	0.796010	0.639330
O1081	O108	0.578030	0.918910	0.814120
O1091	O109	0.006670	0.678490	0.268920
O1101	O110	0.986690	0.755910	0.327700
O1111	O111	0.178890	0.049250	0.809380
O1121	O112	0.221240	0.101490	0.792670
O1131	O113	0.965780	0.605110	0.261790
O1141	O114	0.921970	0.736090	0.340880
O1151	O115	0.590430	0.821510	0.828180
O1161	O116	0.571790	0.744090	0.730780
O1171	O117	0.760130	0.450750	0.629640
O1181	O118	0.691180	0.398510	0.619750
O1191	O119	0.656680	0.894890	0.860670
O1201	O120	0.604790	0.763910	0.685880
O1211	O121	0.678490	0.768920	0.506670
O1221	O122	0.755910	0.827700	0.486690
O1231	O123	0.049250	0.309380	0.678890
O1241	O124	0.101490	0.292670	0.721240
O1251	O125	0.605110	0.761790	0.465780
O1261	O126	0.736090	0.840880	0.421970
O1271	O127	0.821510	0.328180	0.090430
O1281	O128	0.744090	0.230780	0.071790
O1291	O129	0.450750	0.129640	0.260130
O1301	O130	0.398510	0.119750	0.191180
O1311	O131	0.894890	0.360670	0.156680
O1321	O132	0.763910	0.185880	0.104790
O1331	O133	0.737750	0.731080	0.409570
O1341	O134	0.658990	0.672300	0.428210
O1351	O135	0.369510	0.190620	0.239870
O1361	O136	0.428570	0.207330	0.308820
O1371	O137	0.703990	0.738210	0.343320
O1381	O138	0.581090	0.659120	0.395210
O1391	O139	0.762250	0.171820	0.993330
O1401	O140	0.841010	0.269220	0.013310
O1411	O141	0.130490	0.370360	0.821110
O1421	O142	0.071430	0.380250	0.778760
O1431	O143	0.796010	0.139330	0.034220
O1441	O144	0.918910	0.314120	0.078030
O1451	O145	0.402140	0.250000	0.652140
O1461	O146	0.097860	0.750000	0.847860
O1471	O147	0.152140	0.402140	0.750000
O1481	O148	0.347860	0.097860	0.250000
O1491	O149	0.750000	0.347860	0.597860
O1501	O150	0.250000	0.152140	0.902140
O1511	O151	0.250000	0.597860	0.347860
O1521	O152	0.750000	0.902140	0.152140
O1531	O153	0.902140	0.652140	0.250000
O1541	O154	0.597860	0.847860	0.750000
O1551	O155	0.652140	0.750000	0.402140
O1561	O156	0.847860	0.250000	0.097860
