data_KADLUZ_clean_PM
_symmetry_space_group_name_H-M	'P1'
_cell_length_a	40.463000
_cell_length_b	40.463000
_cell_length_c	15.710000
_cell_angle_alpha	90.000000
_cell_angle_beta	90.000000
_cell_angle_gamma	120.000000
_symmetry_Int_Tables_number 1

loop_
_symmetry_equiv_pos_as_xyz
'x,y,z'

loop_
_atom_site_label
_atom_site_type_symbol
_atom_site_fract_x
_atom_site_fract_y
_atom_site_fract_z
Cu11	Cu1	0.514010	0.504170	0.420550
Cu21	Cu2	0.187010	0.368310	0.357480
I11	I1	0.211580	0.321650	0.393690
O11	O1	0.486970	0.449040	0.415430
O21	O2	0.462900	0.442090	0.552040
C11	C1	0.467740	0.429400	0.480100
C21	C2	0.449250	0.387700	0.470880
C31	C3	0.458450	0.371880	0.402750
H11	H1	0.476400	0.388000	0.361300
C41	C4	0.441400	0.332480	0.395210
H21	H2	0.447700	0.321700	0.348600
C51	C5	0.415140	0.308890	0.455810
C61	C6	0.405940	0.324710	0.523950
H31	H3	0.388000	0.308600	0.565400
C71	C7	0.422990	0.364110	0.531480
H41	H4	0.416700	0.374900	0.578000
C81	C8	0.397950	0.268030	0.449480
C91	C9	0.381910	0.248670	0.374020
H51	H5	0.382600	0.262400	0.324500
N11	N1	0.364880	0.209150	0.371070
C101	C10	0.363900	0.188990	0.443580
H61	H6	0.352300	0.162000	0.441600
N21	N2	0.379950	0.208360	0.519040
C111	C11	0.396970	0.247870	0.522000
H71	H7	0.407900	0.261100	0.573600
O31	O3	0.467800	0.503410	0.376460
O41	O4	0.444500	0.496870	0.513040
C121	C12	0.442330	0.498580	0.430400
C131	C13	0.405710	0.493840	0.393410
C141	C14	0.400590	0.496640	0.306760
H81	H8	0.421400	0.504300	0.268700
C151	C15	0.365030	0.488200	0.275860
H91	H9	0.361500	0.490100	0.216600
C161	C16	0.334570	0.476960	0.331610
C171	C17	0.339690	0.474160	0.418260
H101	H10	0.318900	0.466500	0.456400
C181	C18	0.375250	0.482600	0.449160
H111	H11	0.378700	0.480700	0.508400
C191	C19	0.295610	0.464110	0.297200
C201	C20	0.287830	0.485170	0.238910
H121	H12	0.308100	0.508200	0.216200
N31	N3	0.250430	0.472560	0.213910
C211	C21	0.220820	0.438910	0.247200
H131	H13	0.195300	0.430300	0.230100
N41	N4	0.228610	0.417850	0.305490
C221	C22	0.266000	0.430450	0.330490
H141	H14	0.271300	0.416100	0.370300
Cu31	Cu3	0.180680	0.837500	0.753880
Cu41	Cu4	0.853680	0.701640	0.690810
I21	I2	0.878250	0.654980	0.727020
O51	O5	0.153640	0.782370	0.748760
O61	O6	0.129570	0.775420	0.885370
C231	C23	0.134410	0.762730	0.813430
C241	C24	0.115920	0.721030	0.804210
C251	C25	0.125120	0.705210	0.736080
H151	H15	0.143070	0.721330	0.694630
C261	C26	0.108070	0.665810	0.728540
H161	H16	0.114370	0.655030	0.681930
C271	C27	0.081810	0.642220	0.789140
C281	C28	0.072610	0.658040	0.857280
H171	H17	0.054670	0.641930	0.898730
C291	C29	0.089660	0.697440	0.864810
H181	H18	0.083370	0.708230	0.911330
C301	C30	0.064620	0.601360	0.782810
C311	C31	0.048580	0.582000	0.707350
H191	H19	0.049270	0.595730	0.657830
N51	N5	0.031550	0.542480	0.704400
C321	C32	0.030570	0.522320	0.776910
H201	H20	0.018970	0.495330	0.774930
N61	N6	0.046620	0.541690	0.852370
C331	C33	0.063640	0.581200	0.855330
H211	H21	0.074570	0.594430	0.906930
O71	O7	0.134470	0.836740	0.709790
O81	O8	0.111170	0.830200	0.846370
C341	C34	0.109000	0.831910	0.763730
C351	C35	0.072380	0.827170	0.726740
C361	C36	0.067260	0.829970	0.640090
H221	H22	0.088070	0.837630	0.602030
C371	C37	0.031700	0.821530	0.609190
H231	H23	0.028170	0.823430	0.549930
C381	C38	0.001240	0.810290	0.664940
C391	C39	0.006360	0.807490	0.751590
H241	H24	0.985570	0.799830	0.789730
C401	C40	0.041920	0.815930	0.782490
H251	H25	0.045370	0.814030	0.841730
C411	C41	0.962280	0.797440	0.630530
C421	C42	0.954500	0.818500	0.572240
H261	H26	0.974770	0.841530	0.549530
N71	N7	0.917100	0.805890	0.547240
C431	C43	0.887490	0.772240	0.580530
H271	H27	0.861970	0.763630	0.563430
N81	N8	0.895280	0.751180	0.638820
C441	C44	0.932670	0.763780	0.663820
H281	H28	0.937970	0.749430	0.703630
Cu51	Cu5	0.847340	0.170840	0.087220
Cu61	Cu6	0.520340	0.034980	0.024150
I31	I3	0.544910	0.988320	0.060360
O91	O9	0.820300	0.115710	0.082100
O101	O10	0.796230	0.108760	0.218710
C451	C45	0.801070	0.096070	0.146770
C461	C46	0.782580	0.054370	0.137550
C471	C47	0.791780	0.038550	0.069420
H291	H29	0.809730	0.054670	0.027970
C481	C48	0.774730	0.999150	0.061880
H301	H30	0.781030	0.988370	0.015270
C491	C49	0.748470	0.975560	0.122480
C501	C50	0.739270	0.991380	0.190620
H311	H31	0.721330	0.975270	0.232070
C511	C51	0.756320	0.030780	0.198150
H321	H32	0.750030	0.041570	0.244670
C521	C52	0.731280	0.934700	0.116150
C531	C53	0.715240	0.915340	0.040690
H331	H33	0.715930	0.929070	0.991170
N91	N9	0.698210	0.875820	0.037740
C541	C54	0.697230	0.855660	0.110250
H341	H34	0.685630	0.828670	0.108270
N101	N10	0.713280	0.875030	0.185710
C551	C55	0.730300	0.914540	0.188670
H351	H35	0.741230	0.927770	0.240270
O111	O11	0.801130	0.170080	0.043130
O121	O12	0.777830	0.163540	0.179710
C561	C56	0.775660	0.165250	0.097070
C571	C57	0.739040	0.160510	0.060080
C581	C58	0.733920	0.163310	0.973430
H361	H36	0.754730	0.170970	0.935370
C591	C59	0.698360	0.154870	0.942530
H371	H37	0.694830	0.156770	0.883270
C601	C60	0.667900	0.143630	0.998280
C611	C61	0.673020	0.140830	0.084930
H381	H38	0.652230	0.133170	0.123070
C621	C62	0.708580	0.149270	0.115830
H391	H39	0.712030	0.147370	0.175070
C631	C63	0.628940	0.130780	0.963870
C641	C64	0.621160	0.151840	0.905580
H401	H40	0.641430	0.174870	0.882870
N111	N11	0.583760	0.139230	0.880580
C651	C65	0.554150	0.105580	0.913870
H411	H41	0.528630	0.096970	0.896770
N121	N12	0.561940	0.084520	0.972160
C661	C66	0.599330	0.097120	0.997160
H421	H42	0.604630	0.082770	0.036970
Cu71	Cu7	0.495830	0.009840	0.420550
Cu81	Cu8	0.631690	0.818700	0.357480
I41	I4	0.678350	0.889930	0.393690
O131	O13	0.550960	0.037930	0.415430
O141	O14	0.557910	0.020810	0.552040
C671	C67	0.570600	0.038340	0.480100
C681	C68	0.612300	0.061550	0.470880
C691	C69	0.628120	0.086570	0.402750
H431	H43	0.612000	0.088400	0.361300
C701	C70	0.667520	0.108920	0.395210
H441	H44	0.678300	0.126000	0.348600
C711	C71	0.691110	0.106250	0.455810
C721	C72	0.675290	0.081230	0.523950
H451	H45	0.691400	0.079400	0.565400
C731	C73	0.635890	0.058880	0.531480
H461	H46	0.625100	0.041800	0.578000
C741	C74	0.731970	0.129920	0.449480
C751	C75	0.751330	0.133240	0.374020
H471	H47	0.737600	0.120200	0.324500
N131	N13	0.790850	0.155730	0.371070
C761	C76	0.811010	0.174910	0.443580
H481	H48	0.838000	0.190300	0.441600
N141	N14	0.791640	0.171590	0.519040
C771	C77	0.752130	0.149100	0.522000
H491	H49	0.738900	0.146800	0.573600
O151	O15	0.496590	0.964390	0.376460
O161	O16	0.503130	0.947630	0.513040
C781	C78	0.501420	0.943750	0.430400
C791	C79	0.506160	0.911870	0.393410
C801	C80	0.503360	0.903950	0.306760
H501	H50	0.495700	0.917100	0.268700
C811	C81	0.511800	0.876830	0.275860
H511	H51	0.509900	0.871400	0.216600
C821	C82	0.523040	0.857610	0.331610
C831	C83	0.525840	0.865530	0.418260
H521	H52	0.533500	0.852400	0.456400
C841	C84	0.517400	0.892650	0.449160
H531	H53	0.519300	0.898000	0.508400
C851	C85	0.535890	0.831500	0.297200
C861	C86	0.514830	0.802660	0.238910
H541	H54	0.491800	0.799900	0.216200
N151	N15	0.527440	0.777870	0.213910
C871	C87	0.561090	0.781910	0.247200
H551	H55	0.569700	0.765000	0.230100
N161	N16	0.582150	0.810760	0.305490
C881	C88	0.569550	0.835550	0.330490
H561	H56	0.583900	0.855200	0.370300
Cu91	Cu9	0.162500	0.343170	0.753880
Cu101	Cu10	0.298360	0.152030	0.690810
I51	I5	0.345020	0.223260	0.727020
O171	O17	0.217630	0.371260	0.748760
O181	O18	0.224580	0.354140	0.885370
C891	C89	0.237270	0.371670	0.813430
C901	C90	0.278970	0.394880	0.804210
C911	C91	0.294790	0.419900	0.736080
H571	H57	0.278670	0.421730	0.694630
C921	C92	0.334190	0.442250	0.728540
H581	H58	0.344970	0.459330	0.681930
C931	C93	0.357780	0.439580	0.789140
C941	C94	0.341960	0.414560	0.857280
H591	H59	0.358070	0.412730	0.898730
C951	C95	0.302560	0.392210	0.864810
H601	H60	0.291770	0.375130	0.911330
C961	C96	0.398640	0.463250	0.782810
C971	C97	0.418000	0.466570	0.707350
H611	H61	0.404270	0.453530	0.657830
N171	N17	0.457520	0.489060	0.704400
C981	C98	0.477680	0.508240	0.776910
H621	H62	0.504670	0.523630	0.774930
N181	N18	0.458310	0.504920	0.852370
C991	C99	0.418800	0.482430	0.855330
H631	H63	0.405570	0.480130	0.906930
O191	O19	0.163260	0.297720	0.709790
O201	O20	0.169800	0.280960	0.846370
C1001	C100	0.168090	0.277080	0.763730
C1011	C101	0.172830	0.245200	0.726740
C1021	C102	0.170030	0.237280	0.640090
H641	H64	0.162370	0.250430	0.602030
C1031	C103	0.178470	0.210160	0.609190
H651	H65	0.176570	0.204730	0.549930
C1041	C104	0.189710	0.190940	0.664940
C1051	C105	0.192510	0.198860	0.751590
H661	H66	0.200170	0.185730	0.789730
C1061	C106	0.184070	0.225980	0.782490
H671	H67	0.185970	0.231330	0.841730
C1071	C107	0.202560	0.164830	0.630530
C1081	C108	0.181500	0.135990	0.572240
H681	H68	0.158470	0.133230	0.549530
N191	N19	0.194110	0.111200	0.547240
C1091	C109	0.227760	0.115240	0.580530
H691	H69	0.236370	0.098330	0.563430
N201	N20	0.248820	0.144090	0.638820
C1101	C110	0.236220	0.168880	0.663820
H701	H70	0.250570	0.188530	0.703630
Cu111	Cu11	0.829160	0.676510	0.087220
Cu121	Cu12	0.965020	0.485370	0.024150
I61	I6	0.011680	0.556600	0.060360
O211	O21	0.884290	0.704600	0.082100
O221	O22	0.891240	0.687480	0.218710
C1111	C111	0.903930	0.705010	0.146770
C1121	C112	0.945630	0.728220	0.137550
C1131	C113	0.961450	0.753240	0.069420
H711	H71	0.945330	0.755070	0.027970
C1141	C114	0.000850	0.775590	0.061880
H721	H72	0.011630	0.792670	0.015270
C1151	C115	0.024440	0.772920	0.122480
C1161	C116	0.008620	0.747900	0.190620
H731	H73	0.024730	0.746070	0.232070
C1171	C117	0.969220	0.725550	0.198150
H741	H74	0.958430	0.708470	0.244670
C1181	C118	0.065300	0.796590	0.116150
C1191	C119	0.084660	0.799910	0.040690
H751	H75	0.070930	0.786870	0.991170
N211	N21	0.124180	0.822400	0.037740
C1201	C120	0.144340	0.841580	0.110250
H761	H76	0.171330	0.856970	0.108270
N221	N22	0.124970	0.838260	0.185710
C1211	C121	0.085460	0.815770	0.188670
H771	H77	0.072230	0.813470	0.240270
O231	O23	0.829920	0.631060	0.043130
O241	O24	0.836460	0.614300	0.179710
C1221	C122	0.834750	0.610420	0.097070
C1231	C123	0.839490	0.578540	0.060080
C1241	C124	0.836690	0.570620	0.973430
H781	H78	0.829030	0.583770	0.935370
C1251	C125	0.845130	0.543500	0.942530
H791	H79	0.843230	0.538070	0.883270
C1261	C126	0.856370	0.524280	0.998280
C1271	C127	0.859170	0.532200	0.084930
H801	H80	0.866830	0.519070	0.123070
C1281	C128	0.850730	0.559320	0.115830
H811	H81	0.852630	0.564670	0.175070
C1291	C129	0.869220	0.498170	0.963870
C1301	C130	0.848160	0.469330	0.905580
H821	H82	0.825130	0.466570	0.882870
N231	N23	0.860770	0.444540	0.880580
C1311	C131	0.894420	0.448580	0.913870
H831	H83	0.903030	0.431670	0.896770
N241	N24	0.915480	0.477430	0.972160
C1321	C132	0.902880	0.502220	0.997160
H841	H84	0.917230	0.521870	0.036970
Cu131	Cu13	0.990160	0.485990	0.420550
Cu141	Cu14	0.181300	0.812990	0.357480
I71	I7	0.110070	0.788420	0.393690
O251	O25	0.962070	0.513030	0.415430
O261	O26	0.979190	0.537100	0.552040
C1331	C133	0.961660	0.532260	0.480100
C1341	C134	0.938450	0.550750	0.470880
C1351	C135	0.913430	0.541550	0.402750
H851	H85	0.911600	0.523600	0.361300
C1361	C136	0.891080	0.558600	0.395210
H861	H86	0.874000	0.552300	0.348600
C1371	C137	0.893750	0.584860	0.455810
C1381	C138	0.918770	0.594060	0.523950
H871	H87	0.920600	0.612000	0.565400
C1391	C139	0.941120	0.577010	0.531480
H881	H88	0.958200	0.583300	0.578000
C1401	C140	0.870080	0.602050	0.449480
C1411	C141	0.866760	0.618090	0.374020
H891	H89	0.879800	0.617400	0.324500
N251	N25	0.844270	0.635120	0.371070
C1421	C142	0.825090	0.636100	0.443580
H901	H90	0.809700	0.647700	0.441600
N261	N26	0.828410	0.620050	0.519040
C1431	C143	0.850900	0.603030	0.522000
H911	H91	0.853200	0.592100	0.573600
O271	O27	0.035610	0.532200	0.376460
O281	O28	0.052370	0.555500	0.513040
C1441	C144	0.056250	0.557670	0.430400
C1451	C145	0.088130	0.594290	0.393410
C1461	C146	0.096050	0.599410	0.306760
H921	H92	0.082900	0.578600	0.268700
C1471	C147	0.123170	0.634970	0.275860
H931	H93	0.128600	0.638500	0.216600
C1481	C148	0.142390	0.665430	0.331610
C1491	C149	0.134470	0.660310	0.418260
H941	H94	0.147600	0.681100	0.456400
C1501	C150	0.107350	0.624750	0.449160
H951	H95	0.102000	0.621300	0.508400
C1511	C151	0.168500	0.704390	0.297200
C1521	C152	0.197340	0.712170	0.238910
H961	H96	0.200100	0.691900	0.216200
N271	N27	0.222130	0.749570	0.213910
C1531	C153	0.218090	0.779180	0.247200
H971	H97	0.235000	0.804700	0.230100
N281	N28	0.189240	0.771390	0.305490
C1541	C154	0.164450	0.734000	0.330490
H981	H98	0.144800	0.728700	0.370300
Cu151	Cu15	0.656830	0.819320	0.753880
Cu161	Cu16	0.847970	0.146320	0.690810
I81	I8	0.776740	0.121750	0.727020
O291	O29	0.628740	0.846360	0.748760
O301	O30	0.645860	0.870430	0.885370
C1551	C155	0.628330	0.865590	0.813430
C1561	C156	0.605120	0.884080	0.804210
C1571	C157	0.580100	0.874880	0.736080
H991	H99	0.578270	0.856930	0.694630
C1581	C158	0.557750	0.891930	0.728540
H1001	H100	0.540670	0.885630	0.681930
C1591	C159	0.560420	0.918190	0.789140
C1601	C160	0.585440	0.927390	0.857280
H1011	H101	0.587270	0.945330	0.898730
C1611	C161	0.607790	0.910340	0.864810
H1021	H102	0.624870	0.916630	0.911330
C1621	C162	0.536750	0.935380	0.782810
C1631	C163	0.533430	0.951420	0.707350
H1031	H103	0.546470	0.950730	0.657830
N291	N29	0.510940	0.968450	0.704400
C1641	C164	0.491760	0.969430	0.776910
H1041	H104	0.476370	0.981030	0.774930
N301	N30	0.495080	0.953380	0.852370
C1651	C165	0.517570	0.936360	0.855330
H1051	H105	0.519870	0.925430	0.906930
O311	O31	0.702280	0.865530	0.709790
O321	O32	0.719040	0.888830	0.846370
C1661	C166	0.722920	0.891000	0.763730
C1671	C167	0.754800	0.927620	0.726740
C1681	C168	0.762720	0.932740	0.640090
H1061	H106	0.749570	0.911930	0.602030
C1691	C169	0.789840	0.968300	0.609190
H1071	H107	0.795270	0.971830	0.549930
C1701	C170	0.809060	0.998760	0.664940
C1711	C171	0.801140	0.993640	0.751590
H1081	H108	0.814270	0.014430	0.789730
C1721	C172	0.774020	0.958080	0.782490
H1091	H109	0.768670	0.954630	0.841730
C1731	C173	0.835170	0.037720	0.630530
C1741	C174	0.864010	0.045500	0.572240
H1101	H110	0.866770	0.025230	0.549530
N311	N31	0.888800	0.082900	0.547240
C1751	C175	0.884760	0.112510	0.580530
H1111	H111	0.901670	0.138030	0.563430
N321	N32	0.855910	0.104720	0.638820
C1761	C176	0.831120	0.067330	0.663820
H1121	H112	0.811470	0.062030	0.703630
Cu171	Cu17	0.323490	0.152660	0.087220
Cu181	Cu18	0.514630	0.479660	0.024150
I91	I9	0.443400	0.455090	0.060360
O331	O33	0.295400	0.179700	0.082100
O341	O34	0.312520	0.203770	0.218710
C1771	C177	0.294990	0.198930	0.146770
C1781	C178	0.271780	0.217420	0.137550
C1791	C179	0.246760	0.208220	0.069420
H1131	H113	0.244930	0.190270	0.027970
C1801	C180	0.224410	0.225270	0.061880
H1141	H114	0.207330	0.218970	0.015270
C1811	C181	0.227080	0.251530	0.122480
C1821	C182	0.252100	0.260730	0.190620
H1151	H115	0.253930	0.278670	0.232070
C1831	C183	0.274450	0.243680	0.198150
H1161	H116	0.291530	0.249970	0.244670
C1841	C184	0.203410	0.268720	0.116150
C1851	C185	0.200090	0.284760	0.040690
H1171	H117	0.213130	0.284070	0.991170
N331	N33	0.177600	0.301790	0.037740
C1861	C186	0.158420	0.302770	0.110250
H1181	H118	0.143030	0.314370	0.108270
N341	N34	0.161740	0.286720	0.185710
C1871	C187	0.184230	0.269700	0.188670
H1191	H119	0.186530	0.258770	0.240270
O351	O35	0.368940	0.198870	0.043130
O361	O36	0.385700	0.222170	0.179710
C1881	C188	0.389580	0.224340	0.097070
C1891	C189	0.421460	0.260960	0.060080
C1901	C190	0.429380	0.266080	0.973430
H1201	H120	0.416230	0.245270	0.935370
C1911	C191	0.456500	0.301640	0.942530
H1211	H121	0.461930	0.305170	0.883270
C1921	C192	0.475720	0.332100	0.998280
C1931	C193	0.467800	0.326980	0.084930
H1221	H122	0.480930	0.347770	0.123070
C1941	C194	0.440680	0.291420	0.115830
H1231	H123	0.435330	0.287970	0.175070
C1951	C195	0.501830	0.371060	0.963870
C1961	C196	0.530670	0.378840	0.905580
H1241	H124	0.533430	0.358570	0.882870
N351	N35	0.555460	0.416240	0.880580
C1971	C197	0.551420	0.445850	0.913870
H1251	H125	0.568330	0.471370	0.896770
N361	N36	0.522570	0.438060	0.972160
C1981	C198	0.497780	0.400670	0.997160
H1261	H126	0.478130	0.395370	0.036970
Cu191	Cu19	0.485990	0.495830	0.579450
Cu201	Cu20	0.812990	0.631690	0.642520
I101	I10	0.788420	0.678350	0.606310
O371	O37	0.513030	0.550960	0.584570
O381	O38	0.537100	0.557910	0.447960
C1991	C199	0.532260	0.570600	0.519900
C2001	C200	0.550750	0.612300	0.529120
C2011	C201	0.541550	0.628120	0.597250
H1271	H127	0.523600	0.612000	0.638700
C2021	C202	0.558600	0.667520	0.604790
H1281	H128	0.552300	0.678300	0.651400
C2031	C203	0.584860	0.691110	0.544190
C2041	C204	0.594060	0.675290	0.476050
H1291	H129	0.612000	0.691400	0.434600
C2051	C205	0.577010	0.635890	0.468520
H1301	H130	0.583300	0.625100	0.422000
C2061	C206	0.602050	0.731970	0.550520
C2071	C207	0.618090	0.751330	0.625980
H1311	H131	0.617400	0.737600	0.675500
N371	N37	0.635120	0.790850	0.628930
C2081	C208	0.636100	0.811010	0.556420
H1321	H132	0.647700	0.838000	0.558400
N381	N38	0.620050	0.791640	0.480960
C2091	C209	0.603030	0.752130	0.478000
H1331	H133	0.592100	0.738900	0.426400
O391	O39	0.532200	0.496590	0.623540
O401	O40	0.555500	0.503130	0.486960
C2101	C210	0.557670	0.501420	0.569600
C2111	C211	0.594290	0.506160	0.606590
C2121	C212	0.599410	0.503360	0.693240
H1341	H134	0.578600	0.495700	0.731300
C2131	C213	0.634970	0.511800	0.724140
H1351	H135	0.638500	0.509900	0.783400
C2141	C214	0.665430	0.523040	0.668390
C2151	C215	0.660310	0.525840	0.581740
H1361	H136	0.681100	0.533500	0.543600
C2161	C216	0.624750	0.517400	0.550840
H1371	H137	0.621300	0.519300	0.491600
C2171	C217	0.704390	0.535890	0.702800
C2181	C218	0.712170	0.514830	0.761090
H1381	H138	0.691900	0.491800	0.783800
N391	N39	0.749570	0.527440	0.786090
C2191	C219	0.779180	0.561090	0.752800
H1391	H139	0.804700	0.569700	0.769900
N401	N40	0.771390	0.582150	0.694510
C2201	C220	0.734000	0.569550	0.669510
H1401	H140	0.728700	0.583900	0.629700
Cu211	Cu21	0.152660	0.829160	0.912780
Cu221	Cu22	0.479660	0.965020	0.975850
I111	I11	0.455090	0.011680	0.939640
O411	O41	0.179700	0.884290	0.917900
O421	O42	0.203770	0.891240	0.781290
C2211	C221	0.198930	0.903930	0.853230
C2221	C222	0.217420	0.945630	0.862450
C2231	C223	0.208220	0.961450	0.930580
H1411	H141	0.190270	0.945330	0.972030
C2241	C224	0.225270	0.000850	0.938120
H1421	H142	0.218970	0.011630	0.984730
C2251	C225	0.251530	0.024440	0.877520
C2261	C226	0.260730	0.008620	0.809380
H1431	H143	0.278670	0.024730	0.767930
C2271	C227	0.243680	0.969220	0.801850
H1441	H144	0.249970	0.958430	0.755330
C2281	C228	0.268720	0.065300	0.883850
C2291	C229	0.284760	0.084660	0.959310
H1451	H145	0.284070	0.070930	0.008830
N411	N41	0.301790	0.124180	0.962260
C2301	C230	0.302770	0.144340	0.889750
H1461	H146	0.314370	0.171330	0.891730
N421	N42	0.286720	0.124970	0.814290
C2311	C231	0.269700	0.085460	0.811330
H1471	H147	0.258770	0.072230	0.759730
O431	O43	0.198870	0.829920	0.956870
O441	O44	0.222170	0.836460	0.820290
C2321	C232	0.224340	0.834750	0.902930
C2331	C233	0.260960	0.839490	0.939920
C2341	C234	0.266080	0.836690	0.026570
H1481	H148	0.245270	0.829030	0.064630
C2351	C235	0.301640	0.845130	0.057470
H1491	H149	0.305170	0.843230	0.116730
C2361	C236	0.332100	0.856370	0.001720
C2371	C237	0.326980	0.859170	0.915070
H1501	H150	0.347770	0.866830	0.876930
C2381	C238	0.291420	0.850730	0.884170
H1511	H151	0.287970	0.852630	0.824930
C2391	C239	0.371060	0.869220	0.036130
C2401	C240	0.378840	0.848160	0.094420
H1521	H152	0.358570	0.825130	0.117130
N431	N43	0.416240	0.860770	0.119420
C2411	C241	0.445850	0.894420	0.086130
H1531	H153	0.471370	0.903030	0.103230
N441	N44	0.438060	0.915480	0.027840
C2421	C242	0.400670	0.902880	0.002840
H1541	H154	0.395370	0.917230	0.963030
Cu231	Cu23	0.819320	0.162500	0.246120
Cu241	Cu24	0.146320	0.298360	0.309190
I121	I12	0.121750	0.345020	0.272980
O451	O45	0.846360	0.217630	0.251240
O461	O46	0.870430	0.224580	0.114630
C2431	C243	0.865590	0.237270	0.186570
C2441	C244	0.884080	0.278970	0.195790
C2451	C245	0.874880	0.294790	0.263920
H1551	H155	0.856930	0.278670	0.305370
C2461	C246	0.891930	0.334190	0.271460
H1561	H156	0.885630	0.344970	0.318070
C2471	C247	0.918190	0.357780	0.210860
C2481	C248	0.927390	0.341960	0.142720
H1571	H157	0.945330	0.358070	0.101270
C2491	C249	0.910340	0.302560	0.135190
H1581	H158	0.916630	0.291770	0.088670
C2501	C250	0.935380	0.398640	0.217190
C2511	C251	0.951420	0.418000	0.292650
H1591	H159	0.950730	0.404270	0.342170
N451	N45	0.968450	0.457520	0.295600
C2521	C252	0.969430	0.477680	0.223090
H1601	H160	0.981030	0.504670	0.225070
N461	N46	0.953380	0.458310	0.147630
C2531	C253	0.936360	0.418800	0.144670
H1611	H161	0.925430	0.405570	0.093070
O471	O47	0.865530	0.163260	0.290210
O481	O48	0.888830	0.169800	0.153630
C2541	C254	0.891000	0.168090	0.236270
C2551	C255	0.927620	0.172830	0.273260
C2561	C256	0.932740	0.170030	0.359910
H1621	H162	0.911930	0.162370	0.397970
C2571	C257	0.968300	0.178470	0.390810
H1631	H163	0.971830	0.176570	0.450070
C2581	C258	0.998760	0.189710	0.335060
C2591	C259	0.993640	0.192510	0.248410
H1641	H164	0.014430	0.200170	0.210270
C2601	C260	0.958080	0.184070	0.217510
H1651	H165	0.954630	0.185970	0.158270
C2611	C261	0.037720	0.202560	0.369470
C2621	C262	0.045500	0.181500	0.427760
H1661	H166	0.025230	0.158470	0.450470
N471	N47	0.082900	0.194110	0.452760
C2631	C263	0.112510	0.227760	0.419470
H1671	H167	0.138030	0.236370	0.436570
N481	N48	0.104720	0.248820	0.361180
C2641	C264	0.067330	0.236220	0.336180
H1681	H168	0.062030	0.250570	0.296370
Cu251	Cu25	0.504170	0.990160	0.579450
Cu261	Cu26	0.368310	0.181300	0.642520
I131	I13	0.321650	0.110070	0.606310
O491	O49	0.449040	0.962070	0.584570
O501	O50	0.442090	0.979190	0.447960
C2651	C265	0.429400	0.961660	0.519900
C2661	C266	0.387700	0.938450	0.529120
C2671	C267	0.371880	0.913430	0.597250
H1691	H169	0.388000	0.911600	0.638700
C2681	C268	0.332480	0.891080	0.604790
H1701	H170	0.321700	0.874000	0.651400
C2691	C269	0.308890	0.893750	0.544190
C2701	C270	0.324710	0.918770	0.476050
H1711	H171	0.308600	0.920600	0.434600
C2711	C271	0.364110	0.941120	0.468520
H1721	H172	0.374900	0.958200	0.422000
C2721	C272	0.268030	0.870080	0.550520
C2731	C273	0.248670	0.866760	0.625980
H1731	H173	0.262400	0.879800	0.675500
N491	N49	0.209150	0.844270	0.628930
C2741	C274	0.188990	0.825090	0.556420
H1741	H174	0.162000	0.809700	0.558400
N501	N50	0.208360	0.828410	0.480960
C2751	C275	0.247870	0.850900	0.478000
H1751	H175	0.261100	0.853200	0.426400
O511	O51	0.503410	0.035610	0.623540
O521	O52	0.496870	0.052370	0.486960
C2761	C276	0.498580	0.056250	0.569600
C2771	C277	0.493840	0.088130	0.606590
C2781	C278	0.496640	0.096050	0.693240
H1761	H176	0.504300	0.082900	0.731300
C2791	C279	0.488200	0.123170	0.724140
H1771	H177	0.490100	0.128600	0.783400
C2801	C280	0.476960	0.142390	0.668390
C2811	C281	0.474160	0.134470	0.581740
H1781	H178	0.466500	0.147600	0.543600
C2821	C282	0.482600	0.107350	0.550840
H1791	H179	0.480700	0.102000	0.491600
C2831	C283	0.464110	0.168500	0.702800
C2841	C284	0.485170	0.197340	0.761090
H1801	H180	0.508200	0.200100	0.783800
N511	N51	0.472560	0.222130	0.786090
C2851	C285	0.438910	0.218090	0.752800
H1811	H181	0.430300	0.235000	0.769900
N521	N52	0.417850	0.189240	0.694510
C2861	C286	0.430450	0.164450	0.669510
H1821	H182	0.416100	0.144800	0.629700
Cu271	Cu27	0.170840	0.323490	0.912780
Cu281	Cu28	0.034980	0.514630	0.975850
I141	I14	0.988320	0.443400	0.939640
O531	O53	0.115710	0.295400	0.917900
O541	O54	0.108760	0.312520	0.781290
C2871	C287	0.096070	0.294990	0.853230
C2881	C288	0.054370	0.271780	0.862450
C2891	C289	0.038550	0.246760	0.930580
H1831	H183	0.054670	0.244930	0.972030
C2901	C290	0.999150	0.224410	0.938120
H1841	H184	0.988370	0.207330	0.984730
C2911	C291	0.975560	0.227080	0.877520
C2921	C292	0.991380	0.252100	0.809380
H1851	H185	0.975270	0.253930	0.767930
C2931	C293	0.030780	0.274450	0.801850
H1861	H186	0.041570	0.291530	0.755330
C2941	C294	0.934700	0.203410	0.883850
C2951	C295	0.915340	0.200090	0.959310
H1871	H187	0.929070	0.213130	0.008830
N531	N53	0.875820	0.177600	0.962260
C2961	C296	0.855660	0.158420	0.889750
H1881	H188	0.828670	0.143030	0.891730
N541	N54	0.875030	0.161740	0.814290
C2971	C297	0.914540	0.184230	0.811330
H1891	H189	0.927770	0.186530	0.759730
O551	O55	0.170080	0.368940	0.956870
O561	O56	0.163540	0.385700	0.820290
C2981	C298	0.165250	0.389580	0.902930
C2991	C299	0.160510	0.421460	0.939920
C3001	C300	0.163310	0.429380	0.026570
H1901	H190	0.170970	0.416230	0.064630
C3011	C301	0.154870	0.456500	0.057470
H1911	H191	0.156770	0.461930	0.116730
C3021	C302	0.143630	0.475720	0.001720
C3031	C303	0.140830	0.467800	0.915070
H1921	H192	0.133170	0.480930	0.876930
C3041	C304	0.149270	0.440680	0.884170
H1931	H193	0.147370	0.435330	0.824930
C3051	C305	0.130780	0.501830	0.036130
C3061	C306	0.151840	0.530670	0.094420
H1941	H194	0.174870	0.533430	0.117130
N551	N55	0.139230	0.555460	0.119420
C3071	C307	0.105580	0.551420	0.086130
H1951	H195	0.096970	0.568330	0.103230
N561	N56	0.084520	0.522570	0.027840
C3081	C308	0.097120	0.497780	0.002840
H1961	H196	0.082770	0.478130	0.963030
Cu291	Cu29	0.837500	0.656830	0.246120
Cu301	Cu30	0.701640	0.847970	0.309190
I151	I15	0.654980	0.776740	0.272980
O571	O57	0.782370	0.628740	0.251240
O581	O58	0.775420	0.645860	0.114630
C3091	C309	0.762730	0.628330	0.186570
C3101	C310	0.721030	0.605120	0.195790
C3111	C311	0.705210	0.580100	0.263920
H1971	H197	0.721330	0.578270	0.305370
C3121	C312	0.665810	0.557750	0.271460
H1981	H198	0.655030	0.540670	0.318070
C3131	C313	0.642220	0.560420	0.210860
C3141	C314	0.658040	0.585440	0.142720
H1991	H199	0.641930	0.587270	0.101270
C3151	C315	0.697440	0.607790	0.135190
H2001	H200	0.708230	0.624870	0.088670
C3161	C316	0.601360	0.536750	0.217190
C3171	C317	0.582000	0.533430	0.292650
H2011	H201	0.595730	0.546470	0.342170
N571	N57	0.542480	0.510940	0.295600
C3181	C318	0.522320	0.491760	0.223090
H2021	H202	0.495330	0.476370	0.225070
N581	N58	0.541690	0.495080	0.147630
C3191	C319	0.581200	0.517570	0.144670
H2031	H203	0.594430	0.519870	0.093070
O591	O59	0.836740	0.702280	0.290210
O601	O60	0.830200	0.719040	0.153630
C3201	C320	0.831910	0.722920	0.236270
C3211	C321	0.827170	0.754800	0.273260
C3221	C322	0.829970	0.762720	0.359910
H2041	H204	0.837630	0.749570	0.397970
C3231	C323	0.821530	0.789840	0.390810
H2051	H205	0.823430	0.795270	0.450070
C3241	C324	0.810290	0.809060	0.335060
C3251	C325	0.807490	0.801140	0.248410
H2061	H206	0.799830	0.814270	0.210270
C3261	C326	0.815930	0.774020	0.217510
H2071	H207	0.814030	0.768670	0.158270
C3271	C327	0.797440	0.835170	0.369470
C3281	C328	0.818500	0.864010	0.427760
H2081	H208	0.841530	0.866770	0.450470
N591	N59	0.805890	0.888800	0.452760
C3291	C329	0.772240	0.884760	0.419470
H2091	H209	0.763630	0.901670	0.436570
N601	N60	0.751180	0.855910	0.361180
C3301	C330	0.763780	0.831120	0.336180
H2101	H210	0.749430	0.811470	0.296370
Cu311	Cu31	0.009840	0.514010	0.579450
Cu321	Cu32	0.818700	0.187010	0.642520
I161	I16	0.889930	0.211580	0.606310
O611	O61	0.037930	0.486970	0.584570
O621	O62	0.020810	0.462900	0.447960
C3311	C331	0.038340	0.467740	0.519900
C3321	C332	0.061550	0.449250	0.529120
C3331	C333	0.086570	0.458450	0.597250
H2111	H211	0.088400	0.476400	0.638700
C3341	C334	0.108920	0.441400	0.604790
H2121	H212	0.126000	0.447700	0.651400
C3351	C335	0.106250	0.415140	0.544190
C3361	C336	0.081230	0.405940	0.476050
H2131	H213	0.079400	0.388000	0.434600
C3371	C337	0.058880	0.422990	0.468520
H2141	H214	0.041800	0.416700	0.422000
C3381	C338	0.129920	0.397950	0.550520
C3391	C339	0.133240	0.381910	0.625980
H2151	H215	0.120200	0.382600	0.675500
N611	N61	0.155730	0.364880	0.628930
C3401	C340	0.174910	0.363900	0.556420
H2161	H216	0.190300	0.352300	0.558400
N621	N62	0.171590	0.379950	0.480960
C3411	C341	0.149100	0.396970	0.478000
H2171	H217	0.146800	0.407900	0.426400
O631	O63	0.964390	0.467800	0.623540
O641	O64	0.947630	0.444500	0.486960
C3421	C342	0.943750	0.442330	0.569600
C3431	C343	0.911870	0.405710	0.606590
C3441	C344	0.903950	0.400590	0.693240
H2181	H218	0.917100	0.421400	0.731300
C3451	C345	0.876830	0.365030	0.724140
H2191	H219	0.871400	0.361500	0.783400
C3461	C346	0.857610	0.334570	0.668390
C3471	C347	0.865530	0.339690	0.581740
H2201	H220	0.852400	0.318900	0.543600
C3481	C348	0.892650	0.375250	0.550840
H2211	H221	0.898000	0.378700	0.491600
C3491	C349	0.831500	0.295610	0.702800
C3501	C350	0.802660	0.287830	0.761090
H2221	H222	0.799900	0.308100	0.783800
N631	N63	0.777870	0.250430	0.786090
C3511	C351	0.781910	0.220820	0.752800
H2231	H223	0.765000	0.195300	0.769900
N641	N64	0.810760	0.228610	0.694510
C3521	C352	0.835550	0.266000	0.669510
H2241	H224	0.855200	0.271300	0.629700
Cu331	Cu33	0.676510	0.847340	0.912780
Cu341	Cu34	0.485370	0.520340	0.975850
I171	I17	0.556600	0.544910	0.939640
O651	O65	0.704600	0.820300	0.917900
O661	O66	0.687480	0.796230	0.781290
C3531	C353	0.705010	0.801070	0.853230
C3541	C354	0.728220	0.782580	0.862450
C3551	C355	0.753240	0.791780	0.930580
H2251	H225	0.755070	0.809730	0.972030
C3561	C356	0.775590	0.774730	0.938120
H2261	H226	0.792670	0.781030	0.984730
C3571	C357	0.772920	0.748470	0.877520
C3581	C358	0.747900	0.739270	0.809380
H2271	H227	0.746070	0.721330	0.767930
C3591	C359	0.725550	0.756320	0.801850
H2281	H228	0.708470	0.750030	0.755330
C3601	C360	0.796590	0.731280	0.883850
C3611	C361	0.799910	0.715240	0.959310
H2291	H229	0.786870	0.715930	0.008830
N651	N65	0.822400	0.698210	0.962260
C3621	C362	0.841580	0.697230	0.889750
H2301	H230	0.856970	0.685630	0.891730
N661	N66	0.838260	0.713280	0.814290
C3631	C363	0.815770	0.730300	0.811330
H2311	H231	0.813470	0.741230	0.759730
O671	O67	0.631060	0.801130	0.956870
O681	O68	0.614300	0.777830	0.820290
C3641	C364	0.610420	0.775660	0.902930
C3651	C365	0.578540	0.739040	0.939920
C3661	C366	0.570620	0.733920	0.026570
H2321	H232	0.583770	0.754730	0.064630
C3671	C367	0.543500	0.698360	0.057470
H2331	H233	0.538070	0.694830	0.116730
C3681	C368	0.524280	0.667900	0.001720
C3691	C369	0.532200	0.673020	0.915070
H2341	H234	0.519070	0.652230	0.876930
C3701	C370	0.559320	0.708580	0.884170
H2351	H235	0.564670	0.712030	0.824930
C3711	C371	0.498170	0.628940	0.036130
C3721	C372	0.469330	0.621160	0.094420
H2361	H236	0.466570	0.641430	0.117130
N671	N67	0.444540	0.583760	0.119420
C3731	C373	0.448580	0.554150	0.086130
H2371	H237	0.431670	0.528630	0.103230
N681	N68	0.477430	0.561940	0.027840
C3741	C374	0.502220	0.599330	0.002840
H2381	H238	0.521870	0.604630	0.963030
Cu351	Cu35	0.343170	0.180680	0.246120
Cu361	Cu36	0.152030	0.853680	0.309190
I181	I18	0.223260	0.878250	0.272980
O691	O69	0.371260	0.153640	0.251240
O701	O70	0.354140	0.129570	0.114630
C3751	C375	0.371670	0.134410	0.186570
C3761	C376	0.394880	0.115920	0.195790
C3771	C377	0.419900	0.125120	0.263920
H2391	H239	0.421730	0.143070	0.305370
C3781	C378	0.442250	0.108070	0.271460
H2401	H240	0.459330	0.114370	0.318070
C3791	C379	0.439580	0.081810	0.210860
C3801	C380	0.414560	0.072610	0.142720
H2411	H241	0.412730	0.054670	0.101270
C3811	C381	0.392210	0.089660	0.135190
H2421	H242	0.375130	0.083370	0.088670
C3821	C382	0.463250	0.064620	0.217190
C3831	C383	0.466570	0.048580	0.292650
H2431	H243	0.453530	0.049270	0.342170
N691	N69	0.489060	0.031550	0.295600
C3841	C384	0.508240	0.030570	0.223090
H2441	H244	0.523630	0.018970	0.225070
N701	N70	0.504920	0.046620	0.147630
C3851	C385	0.482430	0.063640	0.144670
H2451	H245	0.480130	0.074570	0.093070
O711	O71	0.297720	0.134470	0.290210
O721	O72	0.280960	0.111170	0.153630
C3861	C386	0.277080	0.109000	0.236270
C3871	C387	0.245200	0.072380	0.273260
C3881	C388	0.237280	0.067260	0.359910
H2461	H246	0.250430	0.088070	0.397970
C3891	C389	0.210160	0.031700	0.390810
H2471	H247	0.204730	0.028170	0.450070
C3901	C390	0.190940	0.001240	0.335060
C3911	C391	0.198860	0.006360	0.248410
H2481	H248	0.185730	0.985570	0.210270
C3921	C392	0.225980	0.041920	0.217510
H2491	H249	0.231330	0.045370	0.158270
C3931	C393	0.164830	0.962280	0.369470
C3941	C394	0.135990	0.954500	0.427760
H2501	H250	0.133230	0.974770	0.450470
N711	N71	0.111200	0.917100	0.452760
C3951	C395	0.115240	0.887490	0.419470
H2511	H251	0.098330	0.861970	0.436570
N721	N72	0.144090	0.895280	0.361180
C3961	C396	0.168880	0.932670	0.336180
H2521	H252	0.188530	0.937970	0.296370
