data_KAGCAY_charged_PM
_symmetry_space_group_name_H-M	'P1'
_cell_length_a	21.351400
_cell_length_b	21.351400
_cell_length_c	21.351400
_cell_angle_alpha	60.000000
_cell_angle_beta	60.000000
_cell_angle_gamma	60.000000
_symmetry_Int_Tables_number 1

loop_
_symmetry_equiv_pos_as_xyz
'x,y,z'

loop_
_atom_site_label
_atom_site_type_symbol
_atom_site_fract_x
_atom_site_fract_y
_atom_site_fract_z
Cu11	Cu1	0.339870	0.750000	0.660130
Cu21	Cu2	0.250000	0.839870	0.250000
Cu31	Cu3	0.160130	0.250000	0.839870
Cu41	Cu4	0.750000	0.660130	0.750000
Cu51	Cu5	0.339870	0.660130	0.250000
Cu61	Cu6	0.250000	0.250000	0.660130
Cu71	Cu7	0.160130	0.839870	0.750000
Cu81	Cu8	0.750000	0.750000	0.839870
Cu91	Cu9	0.339870	0.250000	0.750000
Cu101	Cu10	0.250000	0.660130	0.839870
Cu111	Cu11	0.160130	0.750000	0.250000
Cu121	Cu12	0.750000	0.839870	0.660130
Cu131	Cu13	0.660130	0.250000	0.339870
Cu141	Cu14	0.750000	0.160130	0.750000
Cu151	Cu15	0.839870	0.750000	0.160130
Cu161	Cu16	0.250000	0.339870	0.250000
Cu171	Cu17	0.660130	0.339870	0.750000
Cu181	Cu18	0.750000	0.750000	0.339870
Cu191	Cu19	0.839870	0.160130	0.250000
Cu201	Cu20	0.250000	0.250000	0.160130
Cu211	Cu21	0.660130	0.750000	0.250000
Cu221	Cu22	0.750000	0.339870	0.160130
Cu231	Cu23	0.839870	0.250000	0.750000
Cu241	Cu24	0.250000	0.160130	0.339870
H11	H1	0.496400	0.606400	0.643400
H21	H2	0.106400	0.996400	0.253800
H31	H3	0.143400	0.253800	0.996400
H41	H4	0.753800	0.643400	0.606400
H51	H5	0.496400	0.643400	0.253800
H61	H6	0.106400	0.253800	0.643400
H71	H7	0.143400	0.996400	0.606400
H81	H8	0.753800	0.606400	0.996400
H91	H9	0.496400	0.253800	0.606400
H101	H10	0.106400	0.643400	0.996400
H111	H11	0.143400	0.606400	0.253800
H121	H12	0.753800	0.996400	0.643400
H131	H13	0.393600	0.503600	0.856600
H141	H14	0.003600	0.893600	0.246200
H151	H15	0.746200	0.856600	0.503600
H161	H16	0.356600	0.246200	0.893600
H171	H17	0.356600	0.503600	0.246200
H181	H18	0.746200	0.893600	0.856600
H191	H19	0.003600	0.856600	0.893600
H201	H20	0.393600	0.246200	0.503600
H211	H21	0.746200	0.503600	0.893600
H221	H22	0.356600	0.893600	0.503600
H231	H23	0.393600	0.856600	0.246200
H241	H24	0.003600	0.246200	0.856600
H251	H25	0.503600	0.393600	0.356600
H261	H26	0.893600	0.003600	0.746200
H271	H27	0.856600	0.746200	0.003600
H281	H28	0.246200	0.356600	0.393600
H291	H29	0.503600	0.356600	0.746200
H301	H30	0.893600	0.746200	0.356600
H311	H31	0.856600	0.003600	0.393600
H321	H32	0.246200	0.393600	0.003600
H331	H33	0.503600	0.746200	0.393600
H341	H34	0.893600	0.356600	0.003600
H351	H35	0.856600	0.393600	0.746200
H361	H36	0.246200	0.003600	0.356600
H371	H37	0.606400	0.496400	0.143400
H381	H38	0.996400	0.106400	0.753800
H391	H39	0.253800	0.143400	0.496400
H401	H40	0.643400	0.753800	0.106400
H411	H41	0.643400	0.496400	0.753800
H421	H42	0.253800	0.106400	0.143400
H431	H43	0.996400	0.143400	0.106400
H441	H44	0.606400	0.753800	0.496400
H451	H45	0.253800	0.496400	0.106400
H461	H46	0.643400	0.106400	0.496400
H471	H47	0.606400	0.143400	0.753800
H481	H48	0.996400	0.753800	0.143400
C11	C1	0.459900	0.595900	0.691900
C21	C2	0.095900	0.959900	0.252300
C31	C3	0.191900	0.252300	0.959900
C41	C4	0.752300	0.691900	0.595900
C51	C5	0.459900	0.691900	0.252300
C61	C6	0.095900	0.252300	0.691900
C71	C7	0.191900	0.959900	0.595900
C81	C8	0.752300	0.595900	0.959900
C91	C9	0.459900	0.252300	0.595900
C101	C10	0.095900	0.691900	0.959900
C111	C11	0.191900	0.595900	0.252300
C121	C12	0.752300	0.959900	0.691900
C131	C13	0.404100	0.540100	0.808100
C141	C14	0.040100	0.904100	0.247700
C151	C15	0.747700	0.808100	0.540100
C161	C16	0.308100	0.247700	0.904100
C171	C17	0.308100	0.540100	0.247700
C181	C18	0.747700	0.904100	0.808100
C191	C19	0.040100	0.808100	0.904100
C201	C20	0.404100	0.247700	0.540100
C211	C21	0.747700	0.540100	0.904100
C221	C22	0.308100	0.904100	0.540100
C231	C23	0.404100	0.808100	0.247700
C241	C24	0.040100	0.247700	0.808100
C251	C25	0.540100	0.404100	0.308100
C261	C26	0.904100	0.040100	0.747700
C271	C27	0.808100	0.747700	0.040100
C281	C28	0.247700	0.308100	0.404100
C291	C29	0.540100	0.308100	0.747700
C301	C30	0.904100	0.747700	0.308100
C311	C31	0.808100	0.040100	0.404100
C321	C32	0.247700	0.404100	0.040100
C331	C33	0.540100	0.747700	0.404100
C341	C34	0.904100	0.308100	0.040100
C351	C35	0.808100	0.404100	0.747700
C361	C36	0.247700	0.040100	0.308100
C371	C37	0.595900	0.459900	0.191900
C381	C38	0.959900	0.095900	0.752300
C391	C39	0.252300	0.191900	0.459900
C401	C40	0.691900	0.752300	0.095900
C411	C41	0.691900	0.459900	0.752300
C421	C42	0.252300	0.095900	0.191900
C431	C43	0.959900	0.191900	0.095900
C441	C44	0.595900	0.752300	0.459900
C451	C45	0.252300	0.459900	0.095900
C461	C46	0.691900	0.095900	0.459900
C471	C47	0.595900	0.191900	0.752300
C481	C48	0.959900	0.752300	0.191900
C491	C49	0.470400	0.529600	0.750000
C501	C50	0.540600	0.459400	0.750000
C511	C51	0.029600	0.970400	0.250000
C521	C52	0.959400	0.040600	0.250000
C531	C53	0.250000	0.250000	0.970400
C541	C54	0.250000	0.250000	0.040600
C551	C55	0.750000	0.750000	0.529600
C561	C56	0.750000	0.750000	0.459400
C571	C57	0.470400	0.750000	0.250000
C581	C58	0.540600	0.750000	0.250000
C591	C59	0.029600	0.250000	0.750000
C601	C60	0.959400	0.250000	0.750000
C611	C61	0.250000	0.970400	0.529600
C621	C62	0.250000	0.040600	0.459400
C631	C63	0.750000	0.529600	0.970400
C641	C64	0.750000	0.459400	0.040600
C651	C65	0.470400	0.250000	0.529600
C661	C66	0.540600	0.250000	0.459400
C671	C67	0.029600	0.750000	0.970400
C681	C68	0.959400	0.750000	0.040600
C691	C69	0.250000	0.529600	0.250000
C701	C70	0.250000	0.459400	0.250000
C711	C71	0.750000	0.970400	0.750000
C721	C72	0.750000	0.040600	0.750000
C731	C73	0.529600	0.470400	0.250000
C741	C74	0.459400	0.540600	0.250000
C751	C75	0.970400	0.029600	0.750000
C761	C76	0.040600	0.959400	0.750000
C771	C77	0.750000	0.750000	0.029600
C781	C78	0.750000	0.750000	0.959400
C791	C79	0.250000	0.250000	0.470400
C801	C80	0.250000	0.250000	0.540600
C811	C81	0.529600	0.250000	0.750000
C821	C82	0.459400	0.250000	0.750000
C831	C83	0.970400	0.750000	0.250000
C841	C84	0.040600	0.750000	0.250000
C851	C85	0.750000	0.029600	0.470400
C861	C86	0.750000	0.959400	0.540600
C871	C87	0.250000	0.470400	0.029600
C881	C88	0.250000	0.540600	0.959400
C891	C89	0.529600	0.750000	0.470400
C901	C90	0.459400	0.750000	0.540600
C911	C91	0.970400	0.250000	0.029600
C921	C92	0.040600	0.250000	0.959400
C931	C93	0.750000	0.470400	0.750000
C941	C94	0.750000	0.540600	0.750000
C951	C95	0.250000	0.029600	0.250000
C961	C96	0.250000	0.959400	0.250000
N11	N1	0.389500	0.644500	0.713900
N21	N2	0.144500	0.889500	0.252100
N31	N3	0.213900	0.252100	0.889500
N41	N4	0.752100	0.713900	0.644500
N51	N5	0.389500	0.713900	0.252100
N61	N6	0.144500	0.252100	0.713900
N71	N7	0.213900	0.889500	0.644500
N81	N8	0.752100	0.644500	0.889500
N91	N9	0.389500	0.252100	0.644500
N101	N10	0.144500	0.713900	0.889500
N111	N11	0.213900	0.644500	0.252100
N121	N12	0.752100	0.889500	0.713900
N131	N13	0.355500	0.610500	0.786100
N141	N14	0.110500	0.855500	0.247900
N151	N15	0.747900	0.786100	0.610500
N161	N16	0.286100	0.247900	0.855500
N171	N17	0.286100	0.610500	0.247900
N181	N18	0.747900	0.855500	0.786100
N191	N19	0.110500	0.786100	0.855500
N201	N20	0.355500	0.247900	0.610500
N211	N21	0.747900	0.610500	0.855500
N221	N22	0.286100	0.855500	0.610500
N231	N23	0.355500	0.786100	0.247900
N241	N24	0.110500	0.247900	0.786100
N251	N25	0.610500	0.355500	0.286100
N261	N26	0.855500	0.110500	0.747900
N271	N27	0.786100	0.747900	0.110500
N281	N28	0.247900	0.286100	0.355500
N291	N29	0.610500	0.286100	0.747900
N301	N30	0.855500	0.747900	0.286100
N311	N31	0.786100	0.110500	0.355500
N321	N32	0.247900	0.355500	0.110500
N331	N33	0.610500	0.747900	0.355500
N341	N34	0.855500	0.286100	0.110500
N351	N35	0.786100	0.355500	0.747900
N361	N36	0.247900	0.110500	0.286100
N371	N37	0.644500	0.389500	0.213900
N381	N38	0.889500	0.144500	0.752100
N391	N39	0.252100	0.213900	0.389500
N401	N40	0.713900	0.752100	0.144500
N411	N41	0.713900	0.389500	0.752100
N421	N42	0.252100	0.144500	0.213900
N431	N43	0.889500	0.213900	0.144500
N441	N44	0.644500	0.752100	0.389500
N451	N45	0.252100	0.389500	0.144500
N461	N46	0.713900	0.144500	0.389500
N471	N47	0.644500	0.213900	0.752100
N481	N48	0.889500	0.752100	0.213900
O11	O1	0.592300	0.457700	0.684100
O21	O2	0.957700	0.092300	0.265900
O31	O3	0.184100	0.265900	0.092300
O41	O4	0.765900	0.684100	0.457700
O51	O5	0.592300	0.684100	0.265900
O61	O6	0.957700	0.265900	0.684100
O71	O7	0.184100	0.092300	0.457700
O81	O8	0.765900	0.457700	0.092300
O91	O9	0.592300	0.265900	0.457700
O101	O10	0.957700	0.684100	0.092300
O111	O11	0.184100	0.457700	0.265900
O121	O12	0.765900	0.092300	0.684100
O131	O13	0.542300	0.407700	0.815900
O141	O14	0.907700	0.042300	0.234100
O151	O15	0.734100	0.815900	0.407700
O161	O16	0.315900	0.234100	0.042300
O171	O17	0.315900	0.407700	0.234100
O181	O18	0.734100	0.042300	0.815900
O191	O19	0.907700	0.815900	0.042300
O201	O20	0.542300	0.234100	0.407700
O211	O21	0.734100	0.407700	0.042300
O221	O22	0.315900	0.042300	0.407700
O231	O23	0.542300	0.815900	0.234100
O241	O24	0.907700	0.234100	0.815900
O251	O25	0.407700	0.542300	0.315900
O261	O26	0.042300	0.907700	0.734100
O271	O27	0.815900	0.734100	0.907700
O281	O28	0.234100	0.315900	0.542300
O291	O29	0.407700	0.315900	0.734100
O301	O30	0.042300	0.734100	0.315900
O311	O31	0.815900	0.907700	0.542300
O321	O32	0.234100	0.542300	0.907700
O331	O33	0.407700	0.734100	0.542300
O341	O34	0.042300	0.315900	0.907700
O351	O35	0.815900	0.542300	0.734100
O361	O36	0.234100	0.907700	0.315900
O371	O37	0.457700	0.592300	0.184100
O381	O38	0.092300	0.957700	0.765900
O391	O39	0.265900	0.184100	0.592300
O401	O40	0.684100	0.765900	0.957700
O411	O41	0.684100	0.592300	0.765900
O421	O42	0.265900	0.957700	0.184100
O431	O43	0.092300	0.184100	0.957700
O441	O44	0.457700	0.765900	0.592300
O451	O45	0.265900	0.592300	0.957700
O461	O46	0.684100	0.957700	0.592300
O471	O47	0.457700	0.184100	0.765900
O481	O48	0.092300	0.765900	0.184100
O491	O49	0.250000	0.750000	0.750000
O501	O50	0.250000	0.750000	0.250000
O511	O51	0.250000	0.250000	0.750000
O521	O52	0.750000	0.750000	0.750000
O531	O53	0.750000	0.250000	0.250000
O541	O54	0.750000	0.250000	0.750000
O551	O55	0.750000	0.750000	0.250000
O561	O56	0.250000	0.250000	0.250000
