data_KAHMOW_clean_PM
_symmetry_space_group_name_H-M	'P1'
_cell_length_a	21.224000
_cell_length_b	21.224000
_cell_length_c	7.710000
_cell_angle_alpha	90.000000
_cell_angle_beta	90.000000
_cell_angle_gamma	120.000000
_symmetry_Int_Tables_number 1

loop_
_symmetry_equiv_pos_as_xyz
'x,y,z'

loop_
_atom_site_label
_atom_site_type_symbol
_atom_site_fract_x
_atom_site_fract_y
_atom_site_fract_z
O11	O1	0.091700	0.131500	0.298400
O21	O2	0.626800	0.424300	0.963800
Zn11	Zn1	0.633130	0.366890	0.149080
Zn21	Zn2	0.033500	0.066970	0.482120
C11	C1	0.656800	0.447300	0.821000
C21	C2	0.875500	0.884800	0.143500
C31	C3	0.552400	0.343000	0.478600
O31	O3	0.934200	0.906500	0.227400
C41	C4	0.114600	0.125000	0.152700
O41	O4	0.574900	0.372400	0.334900
O51	O5	0.572800	0.305500	0.560900
O61	O6	0.092800	0.065300	0.071300
O71	O7	0.694400	0.426400	0.737900
O81	O8	0.868500	0.908500	0.001300
C51	C5	0.495900	0.356500	0.566000
C61	C6	0.806700	0.829600	0.232900
C71	C7	0.643600	0.503500	0.729200
C81	C8	0.170700	0.193700	0.063400
C91	C9	0.419300	0.342900	0.812000
H11	H1	0.403700	0.326400	0.924200
C101	C10	0.669400	0.528800	0.566000
H21	H2	0.695200	0.510700	0.506900
C111	C11	0.195000	0.193400	0.895400
H31	H3	0.176000	0.149900	0.834000
F11	F1	0.335400	0.483200	0.012200
C121	C12	0.740900	0.801700	0.146900
H41	H4	0.740100	0.818400	0.035800
C131	C13	0.807400	0.805200	0.401300
H51	H5	0.851000	0.824000	0.462200
C141	C14	0.606300	0.530700	0.818500
H61	H6	0.589700	0.514400	0.930100
F21	F2	0.261500	0.366500	0.557100
C151	C15	0.199500	0.259700	0.151500
H71	H7	0.183900	0.260600	0.263700
C161	C16	0.472100	0.331000	0.731600
H81	H8	0.491000	0.305900	0.790300
F31	F3	0.331300	0.480800	0.619800
C171	C17	0.676600	0.723500	0.386800
C181	C18	0.247300	0.257600	0.819600
H91	H9	0.263600	0.257000	0.708000
C191	C19	0.657900	0.581200	0.486600
H101	H10	0.675200	0.597200	0.375100
F41	F4	0.633400	0.738600	0.740800
C201	C20	0.275700	0.323200	0.909900
C211	C21	0.593600	0.583000	0.742100
H111	H11	0.567200	0.600100	0.802400
F51	F5	0.405700	0.439100	0.074900
C221	C22	0.607100	0.666600	0.483800
C231	C23	0.742000	0.752200	0.477900
H121	H12	0.742400	0.736200	0.590000
C241	C24	0.332900	0.394200	0.813700
F61	F6	0.517100	0.664200	0.285100
F71	F7	0.519600	0.669200	0.678100
C251	C25	0.468200	0.394200	0.480200
H131	H13	0.485000	0.411900	0.369300
F81	F8	0.561400	0.594800	0.223800
C261	C26	0.416900	0.406000	0.553800
H141	H14	0.399100	0.431600	0.492900
F91	F9	0.432200	0.513600	0.862300
C271	C27	0.675700	0.749400	0.221400
H151	H15	0.632100	0.732000	0.161400
C281	C28	0.542500	0.623600	0.352000
F101	F10	0.486400	0.567800	0.436300
C291	C29	0.250400	0.323100	0.074800
H161	H16	0.268100	0.366700	0.134700
F111	F11	0.233900	0.414200	0.767700
C301	C30	0.585700	0.709300	0.610000
C311	C31	0.390600	0.380100	0.720000
C321	C32	0.620000	0.610000	0.576400
C331	C33	0.288900	0.412600	0.684000
F121	F12	0.585500	0.766200	0.530300
C341	C34	0.377200	0.457600	0.946000
O91	O9	0.868500	0.960200	0.631730
O101	O10	0.575700	0.202500	0.297130
Zn31	Zn3	0.633110	0.266240	0.482410
Zn41	Zn4	0.933030	0.966530	0.815450
C351	C35	0.552700	0.209500	0.154330
C361	C36	0.115200	0.990700	0.476830
C371	C37	0.657000	0.209400	0.811930
O111	O11	0.093500	0.027700	0.560730
C381	C38	0.875000	0.989600	0.486030
O121	O12	0.627600	0.202500	0.668230
O131	O13	0.694500	0.267300	0.894230
O141	O14	0.934700	0.027500	0.404630
O151	O15	0.573600	0.268000	0.071230
O161	O16	0.091500	0.960000	0.334630
C391	C39	0.643500	0.139400	0.899330
C401	C40	0.170400	0.977100	0.566230
C411	C41	0.496500	0.140100	0.062530
C421	C42	0.806300	0.977000	0.396730
C431	C43	0.657100	0.076400	0.145330
H171	H17	0.673600	0.077300	0.257530
C441	C44	0.471200	0.140600	0.899330
H181	H18	0.489300	0.184500	0.840230
C451	C45	0.806600	0.001600	0.228730
H191	H19	0.850100	0.026100	0.167330
F131	F13	0.516800	0.852200	0.345530
C461	C46	0.198300	0.939200	0.480230
H201	H20	0.181600	0.921700	0.369130
C471	C47	0.194800	0.002200	0.734630
H211	H21	0.176000	0.027000	0.795530
C481	C48	0.469300	0.075600	0.151830
H221	H22	0.485600	0.075300	0.263430
F141	F14	0.633500	0.895000	0.890430
C491	C49	0.740300	0.939800	0.484830
H231	H23	0.739400	0.923300	0.597030
C501	C50	0.669000	0.141100	0.064930
H241	H24	0.694100	0.185100	0.123630
F151	F15	0.519200	0.850500	0.953130
C511	C51	0.276500	0.953100	0.720130
C521	C52	0.742400	0.989700	0.152930
H251	H25	0.743000	0.006600	0.041330
C531	C53	0.418800	0.076700	0.819930
H261	H26	0.402800	0.078000	0.708430
F161	F16	0.261400	0.894800	0.074130
C541	C54	0.676800	0.952500	0.243230
C551	C55	0.417000	0.010600	0.075430
H271	H27	0.399900	0.967100	0.135730
F171	F17	0.560900	0.966600	0.408230
C561	C56	0.333400	0.940500	0.817130
C571	C57	0.247800	0.989800	0.811230
H281	H28	0.263800	0.006200	0.923330
C581	C58	0.605800	0.938700	0.147030
F181	F18	0.335800	0.852900	0.618430
F191	F19	0.330800	0.850400	0.011430
C591	C59	0.605800	0.074000	0.813530
H291	H29	0.588100	0.073100	0.702630
F201	F20	0.405200	0.966600	0.557130
C601	C60	0.594000	0.010900	0.887130
H301	H30	0.568400	0.967500	0.826230
F211	F21	0.486400	0.918600	0.195630
C611	C61	0.250600	0.926300	0.554730
H311	H31	0.268000	0.900100	0.494730
C621	C62	0.376400	0.918900	0.685330
F221	F22	0.432200	0.918600	0.769630
C631	C63	0.676900	0.927300	0.408130
H321	H32	0.633300	0.901400	0.468030
F231	F23	0.585800	0.819700	0.101030
C641	C64	0.290700	0.876400	0.943330
C651	C65	0.619900	0.010500	0.053330
C661	C66	0.390000	0.010000	0.909730
C671	C67	0.587400	0.876300	0.017330
F241	F24	0.233800	0.819300	0.863630
C681	C68	0.542400	0.919600	0.279330
O171	O17	0.039800	0.908300	0.965070
O181	O18	0.797500	0.373200	0.630470
Zn51	Zn5	0.733760	0.366870	0.815750
Zn61	Zn6	0.033470	0.966500	0.148790
C691	C69	0.790500	0.343200	0.487670
C701	C70	0.009300	0.124500	0.810170
C711	C71	0.790600	0.447600	0.145270
O191	O19	0.972300	0.065800	0.894070
C721	C72	0.010400	0.885400	0.819370
O201	O20	0.797500	0.425100	0.001570
O211	O21	0.732700	0.427200	0.227570
O221	O22	0.972500	0.907200	0.737970
O231	O23	0.732000	0.305600	0.404570
O241	O24	0.040000	0.131500	0.667970
C731	C73	0.860600	0.504100	0.232670
C741	C74	0.022900	0.193300	0.899570
C751	C75	0.859900	0.356400	0.395870
C761	C76	0.023000	0.829300	0.730070
C771	C77	0.923600	0.580700	0.478670
H331	H33	0.922700	0.596300	0.590870
C781	C78	0.859400	0.330600	0.232670
H341	H34	0.815500	0.304800	0.173570
C791	C79	0.998400	0.805000	0.562070
H351	H35	0.973900	0.824000	0.500670
F251	F25	0.147800	0.664600	0.678870
C801	C80	0.060800	0.259100	0.813570
H361	H36	0.078300	0.259900	0.702470
C811	C81	0.997800	0.192600	0.067970
H371	H37	0.973000	0.149000	0.128870
C821	C82	0.924400	0.393700	0.485170
H381	H38	0.924700	0.410300	0.596770
F261	F26	0.105000	0.738500	0.223770
C831	C83	0.060200	0.800500	0.818170
H391	H39	0.076700	0.816100	0.930370
C841	C84	0.858900	0.527900	0.398270
H401	H40	0.814900	0.509000	0.456970
F271	F27	0.149500	0.668700	0.286470
C851	C85	0.046900	0.323400	0.053470
C861	C86	0.010300	0.752700	0.486270
H411	H41	0.993400	0.736400	0.374670
C871	C87	0.923300	0.342100	0.153270
H421	H42	0.922000	0.324800	0.041770
F281	F28	0.105200	0.366600	0.407470
C881	C88	0.047500	0.724300	0.576570
C891	C89	0.989400	0.406400	0.408770
H431	H43	0.032900	0.432800	0.469070
F291	F29	0.033400	0.594300	0.741570
C901	C90	0.059500	0.392900	0.150470
C911	C91	0.010200	0.258000	0.144570
H441	H44	0.993800	0.257600	0.256670
C921	C92	0.061300	0.667100	0.480370
F301	F30	0.147100	0.482900	0.951770
F311	F31	0.149600	0.480400	0.344770
C931	C93	0.926000	0.531800	0.146870
H451	H45	0.926900	0.515000	0.035970
F321	F32	0.033400	0.438600	0.890470
C941	C94	0.989100	0.583100	0.220470
H461	H46	0.032500	0.600900	0.159570
F331	F33	0.081400	0.567800	0.528970
C951	C95	0.073700	0.324300	0.888070
H471	H47	0.099900	0.367900	0.828070
C961	C96	0.081100	0.457500	0.018670
F341	F34	0.081400	0.513600	0.102970
C971	C97	0.072700	0.749600	0.741470
H481	H48	0.098600	0.731900	0.801370
F351	F35	0.180300	0.766100	0.434370
C981	C98	0.123600	0.414300	0.276670
C991	C99	0.989500	0.609400	0.386670
C1001	C100	0.990000	0.380000	0.243070
C1011	C101	0.123700	0.711100	0.350670
F361	F36	0.180700	0.414500	0.196970
C1021	C102	0.080400	0.622800	0.612670
