data_KAHYUP_clean_PM
_symmetry_space_group_name_H-M	'P1'
_cell_length_a	30.418000
_cell_length_b	16.302000
_cell_length_c	21.780000
_cell_angle_alpha	90.000000
_cell_angle_beta	133.826000
_cell_angle_gamma	90.000000
_symmetry_Int_Tables_number 1

loop_
_symmetry_equiv_pos_as_xyz
'x,y,z'

loop_
_atom_site_label
_atom_site_type_symbol
_atom_site_fract_x
_atom_site_fract_y
_atom_site_fract_z
O11	O1	0.176100	0.453800	0.910000
O21	O2	0.228100	0.350700	0.157100
C11	C1	0.165300	0.449000	0.955600
Dy11	Dy1	0.120920	0.380370	0.045120
Dy21	Dy2	0.160010	0.371300	0.801240
O31	O3	0.444400	0.121600	0.348100
O41	O4	0.183400	0.598800	0.218000
C21	C2	0.170300	0.544900	0.163700
O51	O5	0.137900	0.390700	0.955600
O61	O6	0.259800	0.233700	0.145800
O71	O7	0.143200	0.477600	0.147600
N11	N1	0.174300	0.508300	0.063500
N21	N2	0.373100	0.252900	0.292000
C31	C3	0.219400	0.635900	0.130400
H11	H1	0.230100	0.674800	0.170100
C41	C4	0.188100	0.564600	0.117000
O81	O8	0.526000	0.193100	0.454100
C51	C5	0.450900	0.323000	0.424000
H21	H2	0.490800	0.325000	0.476800
C61	C6	0.350100	0.380100	0.317500
H31	H3	0.322400	0.421900	0.298800
C71	C7	0.188300	0.519500	0.018500
C81	C8	0.333100	0.313900	0.267300
C91	C9	0.268000	0.299000	0.181900
C101	C10	0.234200	0.647700	0.083400
H41	H4	0.253200	0.695700	0.089100
C111	C11	0.410000	0.384500	0.398100
H51	H5	0.422000	0.428700	0.433800
C121	C12	0.220200	0.586800	0.028200
H61	H6	0.231800	0.590900	0.998600
C131	C13	0.430500	0.258400	0.368700
C141	C14	0.471500	0.186200	0.394600
O91	O9	0.676100	0.953800	0.910000
O101	O10	0.728100	0.850700	0.157100
C151	C15	0.665300	0.949000	0.955600
Dy31	Dy3	0.620920	0.880370	0.045120
Dy41	Dy4	0.660010	0.871300	0.801240
O111	O11	0.944400	0.621600	0.348100
O121	O12	0.683400	0.098800	0.218000
C161	C16	0.670300	0.044900	0.163700
O131	O13	0.637900	0.890700	0.955600
O141	O14	0.759800	0.733700	0.145800
O151	O15	0.643200	0.977600	0.147600
N31	N3	0.674300	0.008300	0.063500
N41	N4	0.873100	0.752900	0.292000
C171	C17	0.719400	0.135900	0.130400
H71	H7	0.730100	0.174800	0.170100
C181	C18	0.688100	0.064600	0.117000
O161	O16	0.026000	0.693100	0.454100
C191	C19	0.950900	0.823000	0.424000
H81	H8	0.990800	0.825000	0.476800
C201	C20	0.850100	0.880100	0.317500
H91	H9	0.822400	0.921900	0.298800
C211	C21	0.688300	0.019500	0.018500
C221	C22	0.833100	0.813900	0.267300
C231	C23	0.768000	0.799000	0.181900
C241	C24	0.734200	0.147700	0.083400
H101	H10	0.753200	0.195700	0.089100
C251	C25	0.910000	0.884500	0.398100
H111	H11	0.922000	0.928700	0.433800
C261	C26	0.720200	0.086800	0.028200
H121	H12	0.731800	0.090900	0.998600
C271	C27	0.930500	0.758400	0.368700
C281	C28	0.971500	0.686200	0.394600
O171	O17	0.823900	0.453800	0.590000
O181	O18	0.771900	0.350700	0.342900
C291	C29	0.834700	0.449000	0.544400
Dy51	Dy5	0.879080	0.380370	0.454880
Dy61	Dy6	0.839990	0.371300	0.698760
O191	O19	0.555600	0.121600	0.151900
O201	O20	0.816600	0.598800	0.282000
C301	C30	0.829700	0.544900	0.336300
O211	O21	0.862100	0.390700	0.544400
O221	O22	0.740200	0.233700	0.354200
O231	O23	0.856800	0.477600	0.352400
N51	N5	0.825700	0.508300	0.436500
N61	N6	0.626900	0.252900	0.208000
C311	C31	0.780600	0.635900	0.369600
H131	H13	0.769900	0.674800	0.329900
C321	C32	0.811900	0.564600	0.383000
O241	O24	0.474000	0.193100	0.045900
C331	C33	0.549100	0.323000	0.076000
H141	H14	0.509200	0.325000	0.023200
C341	C34	0.649900	0.380100	0.182500
H151	H15	0.677600	0.421900	0.201200
C351	C35	0.811700	0.519500	0.481500
C361	C36	0.666900	0.313900	0.232700
C371	C37	0.732000	0.299000	0.318100
C381	C38	0.765800	0.647700	0.416600
H161	H16	0.746800	0.695700	0.410900
C391	C39	0.590000	0.384500	0.101900
H171	H17	0.578000	0.428700	0.066200
C401	C40	0.779800	0.586800	0.471800
H181	H18	0.768200	0.590900	0.501400
C411	C41	0.569500	0.258400	0.131300
C421	C42	0.528500	0.186200	0.105400
O251	O25	0.323900	0.953800	0.590000
O261	O26	0.271900	0.850700	0.342900
C431	C43	0.334700	0.949000	0.544400
Dy71	Dy7	0.379080	0.880370	0.454880
Dy81	Dy8	0.339990	0.871300	0.698760
O271	O27	0.055600	0.621600	0.151900
O281	O28	0.316600	0.098800	0.282000
C441	C44	0.329700	0.044900	0.336300
O291	O29	0.362100	0.890700	0.544400
O301	O30	0.240200	0.733700	0.354200
O311	O31	0.356800	0.977600	0.352400
N71	N7	0.325700	0.008300	0.436500
N81	N8	0.126900	0.752900	0.208000
C451	C45	0.280600	0.135900	0.369600
H191	H19	0.269900	0.174800	0.329900
C461	C46	0.311900	0.064600	0.383000
O321	O32	0.974000	0.693100	0.045900
C471	C47	0.049100	0.823000	0.076000
H201	H20	0.009200	0.825000	0.023200
C481	C48	0.149900	0.880100	0.182500
H211	H21	0.177600	0.921900	0.201200
C491	C49	0.311700	0.019500	0.481500
C501	C50	0.166900	0.813900	0.232700
C511	C51	0.232000	0.799000	0.318100
C521	C52	0.265800	0.147700	0.416600
H221	H22	0.246800	0.195700	0.410900
C531	C53	0.090000	0.884500	0.101900
H231	H23	0.078000	0.928700	0.066200
C541	C54	0.279800	0.086800	0.471800
H241	H24	0.268200	0.090900	0.501400
C551	C55	0.069500	0.758400	0.131300
C561	C56	0.028500	0.686200	0.105400
O331	O33	0.823900	0.546200	0.090000
O341	O34	0.771900	0.649300	0.842900
C571	C57	0.834700	0.551000	0.044400
Dy91	Dy9	0.879080	0.619630	0.954880
Dy101	Dy10	0.839990	0.628700	0.198760
O351	O35	0.555600	0.878400	0.651900
O361	O36	0.816600	0.401200	0.782000
C581	C58	0.829700	0.455100	0.836300
O371	O37	0.862100	0.609300	0.044400
O381	O38	0.740200	0.766300	0.854200
O391	O39	0.856800	0.522400	0.852400
N91	N9	0.825700	0.491700	0.936500
N101	N10	0.626900	0.747100	0.708000
C591	C59	0.780600	0.364100	0.869600
H251	H25	0.769900	0.325200	0.829900
C601	C60	0.811900	0.435400	0.883000
O401	O40	0.474000	0.806900	0.545900
C611	C61	0.549100	0.677000	0.576000
H261	H26	0.509200	0.675000	0.523200
C621	C62	0.649900	0.619900	0.682500
H271	H27	0.677600	0.578100	0.701200
C631	C63	0.811700	0.480500	0.981500
C641	C64	0.666900	0.686100	0.732700
C651	C65	0.732000	0.701000	0.818100
C661	C66	0.765800	0.352300	0.916600
H281	H28	0.746800	0.304300	0.910900
C671	C67	0.590000	0.615500	0.601900
H291	H29	0.578000	0.571300	0.566200
C681	C68	0.779800	0.413200	0.971800
H301	H30	0.768200	0.409100	0.001400
C691	C69	0.569500	0.741600	0.631300
C701	C70	0.528500	0.813800	0.605400
O411	O41	0.323900	0.046200	0.090000
O421	O42	0.271900	0.149300	0.842900
C711	C71	0.334700	0.051000	0.044400
Dy111	Dy11	0.379080	0.119630	0.954880
Dy121	Dy12	0.339990	0.128700	0.198760
O431	O43	0.055600	0.378400	0.651900
O441	O44	0.316600	0.901200	0.782000
C721	C72	0.329700	0.955100	0.836300
O451	O45	0.362100	0.109300	0.044400
O461	O46	0.240200	0.266300	0.854200
O471	O47	0.356800	0.022400	0.852400
N111	N11	0.325700	0.991700	0.936500
N121	N12	0.126900	0.247100	0.708000
C731	C73	0.280600	0.864100	0.869600
H311	H31	0.269900	0.825200	0.829900
C741	C74	0.311900	0.935400	0.883000
O481	O48	0.974000	0.306900	0.545900
C751	C75	0.049100	0.177000	0.576000
H321	H32	0.009200	0.175000	0.523200
C761	C76	0.149900	0.119900	0.682500
H331	H33	0.177600	0.078100	0.701200
C771	C77	0.311700	0.980500	0.981500
C781	C78	0.166900	0.186100	0.732700
C791	C79	0.232000	0.201000	0.818100
C801	C80	0.265800	0.852300	0.916600
H341	H34	0.246800	0.804300	0.910900
C811	C81	0.090000	0.115500	0.601900
H351	H35	0.078000	0.071300	0.566200
C821	C82	0.279800	0.913200	0.971800
H361	H36	0.268200	0.909100	0.001400
C831	C83	0.069500	0.241600	0.631300
C841	C84	0.028500	0.313800	0.605400
O491	O49	0.176100	0.546200	0.410000
O501	O50	0.228100	0.649300	0.657100
C851	C85	0.165300	0.551000	0.455600
Dy131	Dy13	0.120920	0.619630	0.545120
Dy141	Dy14	0.160010	0.628700	0.301240
O511	O51	0.444400	0.878400	0.848100
O521	O52	0.183400	0.401200	0.718000
C861	C86	0.170300	0.455100	0.663700
O531	O53	0.137900	0.609300	0.455600
O541	O54	0.259800	0.766300	0.645800
O551	O55	0.143200	0.522400	0.647600
N131	N13	0.174300	0.491700	0.563500
N141	N14	0.373100	0.747100	0.792000
C871	C87	0.219400	0.364100	0.630400
H371	H37	0.230100	0.325200	0.670100
C881	C88	0.188100	0.435400	0.617000
O561	O56	0.526000	0.806900	0.954100
C891	C89	0.450900	0.677000	0.924000
H381	H38	0.490800	0.675000	0.976800
C901	C90	0.350100	0.619900	0.817500
H391	H39	0.322400	0.578100	0.798800
C911	C91	0.188300	0.480500	0.518500
C921	C92	0.333100	0.686100	0.767300
C931	C93	0.268000	0.701000	0.681900
C941	C94	0.234200	0.352300	0.583400
H401	H40	0.253200	0.304300	0.589100
C951	C95	0.410000	0.615500	0.898100
H411	H41	0.422000	0.571300	0.933800
C961	C96	0.220200	0.413200	0.528200
H421	H42	0.231800	0.409100	0.498600
C971	C97	0.430500	0.741600	0.868700
C981	C98	0.471500	0.813800	0.894600
O571	O57	0.676100	0.046200	0.410000
O581	O58	0.728100	0.149300	0.657100
C991	C99	0.665300	0.051000	0.455600
Dy151	Dy15	0.620920	0.119630	0.545120
Dy161	Dy16	0.660010	0.128700	0.301240
O591	O59	0.944400	0.378400	0.848100
O601	O60	0.683400	0.901200	0.718000
C1001	C100	0.670300	0.955100	0.663700
O611	O61	0.637900	0.109300	0.455600
O621	O62	0.759800	0.266300	0.645800
O631	O63	0.643200	0.022400	0.647600
N151	N15	0.674300	0.991700	0.563500
N161	N16	0.873100	0.247100	0.792000
C1011	C101	0.719400	0.864100	0.630400
H431	H43	0.730100	0.825200	0.670100
C1021	C102	0.688100	0.935400	0.617000
O641	O64	0.026000	0.306900	0.954100
C1031	C103	0.950900	0.177000	0.924000
H441	H44	0.990800	0.175000	0.976800
C1041	C104	0.850100	0.119900	0.817500
H451	H45	0.822400	0.078100	0.798800
C1051	C105	0.688300	0.980500	0.518500
C1061	C106	0.833100	0.186100	0.767300
C1071	C107	0.768000	0.201000	0.681900
C1081	C108	0.734200	0.852300	0.583400
H461	H46	0.753200	0.804300	0.589100
C1091	C109	0.910000	0.115500	0.898100
H471	H47	0.922000	0.071300	0.933800
C1101	C110	0.720200	0.913200	0.528200
H481	H48	0.731800	0.909100	0.498600
C1111	C111	0.930500	0.241600	0.868700
C1121	C112	0.971500	0.313800	0.894600
