data_KAHYEY_clean_PM
_symmetry_space_group_name_H-M	'P1'
_cell_length_a	8.014000
_cell_length_b	9.740000
_cell_length_c	7.744000
_cell_angle_alpha	102.320000
_cell_angle_beta	93.380000
_cell_angle_gamma	75.900000
_symmetry_Int_Tables_number 1

loop_
_symmetry_equiv_pos_as_xyz
'x,y,z'

loop_
_atom_site_label
_atom_site_type_symbol
_atom_site_fract_x
_atom_site_fract_y
_atom_site_fract_z
Mn11	Mn1	0.031960	0.251260	0.158920
Mn21	Mn2	0.309220	0.119550	0.812710
P11	P1	0.732680	0.089840	0.926820
O11	O1	0.159500	0.339100	0.971700
O21	O2	0.806100	0.210600	0.037500
O31	O3	0.106000	0.514400	0.816500
O41	O4	0.945400	0.219900	0.410400
O51	O5	0.240300	0.283000	0.346600
O61	O6	0.804700	0.945900	0.984800
O71	O7	0.060500	0.153700	0.659300
O81	O8	0.360100	0.207100	0.586700
O91	O9	0.539400	0.133500	0.930200
O101	O10	0.788300	0.066700	0.727500
C11	C1	0.065300	0.199200	0.520400
C21	C2	0.237100	0.233300	0.481700
C31	C3	0.076600	0.458200	0.937500
Mn31	Mn3	0.968040	0.748740	0.841080
Mn41	Mn4	0.690780	0.880450	0.187290
P21	P2	0.267320	0.910160	0.073180
O111	O11	0.840500	0.660900	0.028300
O121	O12	0.193900	0.789400	0.962500
O131	O13	0.894000	0.485600	0.183500
O141	O14	0.054600	0.780100	0.589600
O151	O15	0.759700	0.717000	0.653400
O161	O16	0.195300	0.054100	0.015200
O171	O17	0.939500	0.846300	0.340700
O181	O18	0.639900	0.792900	0.413300
O191	O19	0.460600	0.866500	0.069800
O201	O20	0.211700	0.933300	0.272500
C41	C4	0.934700	0.800800	0.479600
C51	C5	0.762900	0.766700	0.518300
C61	C6	0.923400	0.541800	0.062500
