data_KAKBUW_clean_PM
_symmetry_space_group_name_H-M	'P1'
_cell_length_a	28.281000
_cell_length_b	20.849000
_cell_length_c	30.699000
_cell_angle_alpha	90.000000
_cell_angle_beta	90.994000
_cell_angle_gamma	90.000000
_symmetry_Int_Tables_number 1

loop_
_symmetry_equiv_pos_as_xyz
'x,y,z'

loop_
_atom_site_label
_atom_site_type_symbol
_atom_site_fract_x
_atom_site_fract_y
_atom_site_fract_z
Ca11	Ca1	0.509800	0.738000	0.312800
O11	O1	0.444300	0.814000	0.309100
O21	O2	0.445600	0.761200	0.247500
O31	O3	0.471400	0.713500	0.380200
O41	O4	0.493800	0.637700	0.285800
O51	O5	0.539300	0.819200	0.361900
O61	O6	0.570400	0.686400	0.353600
C11	C1	0.425300	0.795800	0.274100
Ca21	Ca2	0.540600	0.708800	0.430800
C21	C2	0.451800	0.665100	0.396000
C31	C3	0.374900	0.814400	0.264100
O71	O7	0.469900	0.634900	0.427200
O81	O8	0.589100	0.622000	0.408000
O91	O9	0.587500	0.804800	0.418600
O101	O10	0.594200	0.724200	0.494800
O111	O11	0.543200	0.646000	0.501600
C41	C4	0.404900	0.644500	0.377500
C51	C5	0.348900	0.786800	0.230800
C61	C6	0.353600	0.861900	0.289000
Ca31	Ca3	0.471000	0.584400	0.496700
C71	C7	0.378700	0.686800	0.351400
C81	C8	0.387700	0.583300	0.385000
C91	C9	0.504200	0.504000	0.288400
H11	H1	0.362900	0.755400	0.213700
C101	C10	0.303000	0.804200	0.222000
C111	C11	0.307400	0.880600	0.279600
H21	H2	0.370300	0.881100	0.311800
O121	O12	0.507700	0.503800	0.454100
N11	N1	0.457200	0.569700	0.580500
H31	H3	0.389800	0.728200	0.346700
C121	C12	0.336100	0.667400	0.332500
H41	H4	0.404400	0.555200	0.403000
C131	C13	0.345300	0.563900	0.365400
C141	C14	0.504300	0.439000	0.288300
H51	H5	0.507000	0.525800	0.314700
H61	H6	0.285900	0.782600	0.200400
C151	C15	0.280900	0.854400	0.245300
H71	H7	0.293600	0.911800	0.296900
C161	C16	0.521300	0.492500	0.415100
C171	C17	0.319300	0.605100	0.338300
H81	H8	0.318600	0.696300	0.315700
H91	H9	0.334000	0.522700	0.370500
H101	H10	0.507300	0.417500	0.314700
C181	C18	0.233100	0.879200	0.234100
C191	C19	0.276200	0.583000	0.314600
C201	C20	0.210400	0.921700	0.260800
C211	C21	0.209600	0.863100	0.194300
C221	C22	0.244800	0.538400	0.332500
C231	C23	0.267100	0.604200	0.272000
C241	C24	0.490500	0.298500	0.287300
C251	C25	0.166600	0.948900	0.250200
H111	H11	0.224900	0.933000	0.287100
C261	C26	0.166200	0.888800	0.182500
H121	H12	0.223900	0.834300	0.175500
H131	H13	0.250200	0.523200	0.360600
C271	C27	0.205500	0.516500	0.308600
C281	C28	0.228300	0.584000	0.248000
H141	H14	0.288100	0.633000	0.259400
C291	C29	0.490900	0.230300	0.288400
H151	H15	0.483500	0.320900	0.312600
C301	C30	0.145200	0.932500	0.210500
C311	C31	0.145200	0.997200	0.279600
C321	C32	0.143500	0.872300	0.139500
C331	C33	0.198000	0.539500	0.267100
C341	C34	0.172000	0.470100	0.328300
C351	C35	0.221400	0.606900	0.202400
C361	C36	0.481600	0.196500	0.330300
H161	H16	0.116400	0.951100	0.202600
C371	C37	0.124900	0.052700	0.264300
C381	C38	0.147200	0.987200	0.324200
C391	C39	0.100500	0.897400	0.126600
C401	C40	0.165300	0.831400	0.110300
H171	H17	0.171900	0.524900	0.251200
C411	C41	0.188500	0.424200	0.359200
C421	C42	0.124700	0.467200	0.315500
C431	C43	0.176100	0.613100	0.183200
C441	C44	0.259700	0.624200	0.177800
C451	C45	0.496600	0.137900	0.336800
C461	C46	0.460600	0.223100	0.363300
H181	H18	0.122900	0.059800	0.234400
C471	C47	0.107300	0.098400	0.292500
H191	H19	0.161000	0.949900	0.335200
C481	C48	0.128900	0.032100	0.352700
C491	C49	0.079400	0.883200	0.086400
H201	H20	0.085000	0.924900	0.145400
H211	H21	0.194700	0.814000	0.117500
C501	C50	0.143900	0.816000	0.070700
H221	H22	0.220300	0.423700	0.367600
C511	C51	0.157700	0.380400	0.376600
C521	C52	0.094500	0.422300	0.333100
H231	H23	0.113100	0.495900	0.294700
C531	C53	0.170200	0.633100	0.141200
H241	H24	0.149600	0.603400	0.199600
H251	H25	0.290000	0.621600	0.189900
C541	C54	0.253700	0.645300	0.134900
C551	C55	0.488700	0.106000	0.378200
H261	H26	0.512600	0.116600	0.314900
C561	C56	0.454800	0.194300	0.403100
H271	H27	0.448700	0.264400	0.359600
H281	H28	0.094400	0.136300	0.281600
C571	C57	0.108800	0.087800	0.336900
H291	H29	0.130200	0.024500	0.382500
H301	H30	0.050900	0.902300	0.078300
C581	C58	0.101100	0.840600	0.058700
H311	H31	0.159200	0.788300	0.051800
H321	H32	0.168800	0.351500	0.397500
C591	C59	0.110700	0.378500	0.363700
H331	H33	0.062800	0.421700	0.324300
C601	C60	0.208400	0.648400	0.116000
H341	H34	0.139800	0.636400	0.129300
H351	H35	0.279800	0.657400	0.118900
C611	C61	0.467700	0.134500	0.410300
H361	H36	0.498900	0.063900	0.381800
H371	H37	0.441300	0.217600	0.425500
C621	C62	0.088500	0.134700	0.368100
C631	C63	0.078200	0.823200	0.015600
C641	C64	0.076700	0.330600	0.382100
C651	C65	0.201800	0.667700	0.069100
C661	C66	0.459800	0.103300	0.453600
O131	O13	0.162300	0.657600	0.052100
O141	O14	0.235600	0.692300	0.050100
O151	O15	0.448000	0.136500	0.485400
O161	O16	0.466600	0.044800	0.456600
Ca41	Ca4	0.123900	0.671500	0.986300
Ca51	Ca5	0.009800	0.238000	0.312800
O171	O17	0.944300	0.314000	0.309100
O181	O18	0.945600	0.261200	0.247500
O191	O19	0.971400	0.213500	0.380200
O201	O20	0.993800	0.137700	0.285800
O211	O21	0.039300	0.319200	0.361900
O221	O22	0.070400	0.186400	0.353600
C671	C67	0.925300	0.295800	0.274100
Ca61	Ca6	0.040600	0.208800	0.430800
C681	C68	0.951800	0.165100	0.396000
C691	C69	0.874900	0.314400	0.264100
O231	O23	0.969900	0.134900	0.427200
O241	O24	0.089100	0.122000	0.408000
O251	O25	0.087500	0.304800	0.418600
O261	O26	0.094200	0.224200	0.494800
O271	O27	0.043200	0.146000	0.501600
C701	C70	0.904900	0.144500	0.377500
C711	C71	0.848900	0.286800	0.230800
C721	C72	0.853600	0.361900	0.289000
Ca71	Ca7	0.971000	0.084400	0.496700
C731	C73	0.878700	0.186800	0.351400
C741	C74	0.887700	0.083300	0.385000
C751	C75	0.004200	0.004000	0.288400
H381	H38	0.862900	0.255400	0.213700
C761	C76	0.803000	0.304200	0.222000
C771	C77	0.807400	0.380600	0.279600
H391	H39	0.870300	0.381100	0.311800
O281	O28	0.007700	0.003800	0.454100
N21	N2	0.957200	0.069700	0.580500
H401	H40	0.889800	0.228200	0.346700
C781	C78	0.836100	0.167400	0.332500
H411	H41	0.904400	0.055200	0.403000
C791	C79	0.845300	0.063900	0.365400
C801	C80	0.004300	0.939000	0.288300
H421	H42	0.007000	0.025800	0.314700
H431	H43	0.785900	0.282600	0.200400
C811	C81	0.780900	0.354400	0.245300
H441	H44	0.793600	0.411800	0.296900
C821	C82	0.021300	0.992500	0.415100
C831	C83	0.819300	0.105100	0.338300
H451	H45	0.818600	0.196300	0.315700
H461	H46	0.834000	0.022700	0.370500
H471	H47	0.007300	0.917500	0.314700
C841	C84	0.733100	0.379200	0.234100
C851	C85	0.776200	0.083000	0.314600
C861	C86	0.710400	0.421700	0.260800
C871	C87	0.709600	0.363100	0.194300
C881	C88	0.744800	0.038400	0.332500
C891	C89	0.767100	0.104200	0.272000
C901	C90	0.990500	0.798500	0.287300
C911	C91	0.666600	0.448900	0.250200
H481	H48	0.724900	0.433000	0.287100
C921	C92	0.666200	0.388800	0.182500
H491	H49	0.723900	0.334300	0.175500
H501	H50	0.750200	0.023200	0.360600
C931	C93	0.705500	0.016500	0.308600
C941	C94	0.728300	0.084000	0.248000
H511	H51	0.788100	0.133000	0.259400
C951	C95	0.990900	0.730300	0.288400
H521	H52	0.983500	0.820900	0.312600
C961	C96	0.645200	0.432500	0.210500
C971	C97	0.645200	0.497200	0.279600
C981	C98	0.643500	0.372300	0.139500
C991	C99	0.698000	0.039500	0.267100
C1001	C100	0.672000	0.970100	0.328300
C1011	C101	0.721400	0.106900	0.202400
C1021	C102	0.981600	0.696500	0.330300
H531	H53	0.616400	0.451100	0.202600
C1031	C103	0.624900	0.552700	0.264300
C1041	C104	0.647200	0.487200	0.324200
C1051	C105	0.600500	0.397400	0.126600
C1061	C106	0.665300	0.331400	0.110300
H541	H54	0.671900	0.024900	0.251200
C1071	C107	0.688500	0.924200	0.359200
C1081	C108	0.624700	0.967200	0.315500
C1091	C109	0.676100	0.113100	0.183200
C1101	C110	0.759700	0.124200	0.177800
C1111	C111	0.996600	0.637900	0.336800
C1121	C112	0.960600	0.723100	0.363300
H551	H55	0.622900	0.559800	0.234400
C1131	C113	0.607300	0.598400	0.292500
H561	H56	0.661000	0.449900	0.335200
C1141	C114	0.628900	0.532100	0.352700
C1151	C115	0.579400	0.383200	0.086400
H571	H57	0.585000	0.424900	0.145400
H581	H58	0.694700	0.314000	0.117500
C1161	C116	0.643900	0.316000	0.070700
H591	H59	0.720300	0.923700	0.367600
C1171	C117	0.657700	0.880400	0.376600
C1181	C118	0.594500	0.922300	0.333100
H601	H60	0.613100	0.995900	0.294700
C1191	C119	0.670200	0.133100	0.141200
H611	H61	0.649600	0.103400	0.199600
H621	H62	0.790000	0.121600	0.189900
C1201	C120	0.753700	0.145300	0.134900
C1211	C121	0.988700	0.606000	0.378200
H631	H63	0.012600	0.616600	0.314900
C1221	C122	0.954800	0.694300	0.403100
H641	H64	0.948700	0.764400	0.359600
H651	H65	0.594400	0.636300	0.281600
C1231	C123	0.608800	0.587800	0.336900
H661	H66	0.630200	0.524500	0.382500
H671	H67	0.550900	0.402300	0.078300
C1241	C124	0.601100	0.340600	0.058700
H681	H68	0.659200	0.288300	0.051800
H691	H69	0.668800	0.851500	0.397500
C1251	C125	0.610700	0.878500	0.363700
H701	H70	0.562800	0.921700	0.324300
C1261	C126	0.708400	0.148400	0.116000
H711	H71	0.639800	0.136400	0.129300
H721	H72	0.779800	0.157400	0.118900
C1271	C127	0.967700	0.634500	0.410300
H731	H73	0.998900	0.563900	0.381800
H741	H74	0.941300	0.717600	0.425500
C1281	C128	0.588500	0.634700	0.368100
C1291	C129	0.578200	0.323200	0.015600
C1301	C130	0.576700	0.830600	0.382100
C1311	C131	0.701800	0.167700	0.069100
C1321	C132	0.959800	0.603300	0.453600
O291	O29	0.662300	0.157600	0.052100
O301	O30	0.735600	0.192300	0.050100
O311	O31	0.948000	0.636500	0.485400
O321	O32	0.966600	0.544800	0.456600
Ca81	Ca8	0.623900	0.171500	0.986300
Ca91	Ca9	0.490200	0.738000	0.187200
O331	O33	0.555700	0.814000	0.190900
O341	O34	0.554400	0.761200	0.252500
O351	O35	0.528600	0.713500	0.119800
O361	O36	0.506200	0.637700	0.214200
O371	O37	0.460700	0.819200	0.138100
O381	O38	0.429600	0.686400	0.146400
C1331	C133	0.574700	0.795800	0.225900
Ca101	Ca10	0.459400	0.708800	0.069200
C1341	C134	0.548200	0.665100	0.104000
C1351	C135	0.625100	0.814400	0.235900
O391	O39	0.530100	0.634900	0.072800
O401	O40	0.410900	0.622000	0.092000
O411	O41	0.412500	0.804800	0.081400
O421	O42	0.405800	0.724200	0.005200
O431	O43	0.456800	0.646000	0.998400
C1361	C136	0.595100	0.644500	0.122500
C1371	C137	0.651100	0.786800	0.269200
C1381	C138	0.646400	0.861900	0.211000
Ca111	Ca11	0.529000	0.584400	0.003300
C1391	C139	0.621300	0.686800	0.148600
C1401	C140	0.612300	0.583300	0.115000
C1411	C141	0.495800	0.504000	0.211600
H751	H75	0.637100	0.755400	0.286300
C1421	C142	0.697000	0.804200	0.278000
C1431	C143	0.692600	0.880600	0.220400
H761	H76	0.629700	0.881100	0.188200
O441	O44	0.492300	0.503800	0.045900
N31	N3	0.542800	0.569700	0.919500
H771	H77	0.610200	0.728200	0.153300
C1441	C144	0.663900	0.667400	0.167500
H781	H78	0.595600	0.555200	0.097000
C1451	C145	0.654700	0.563900	0.134600
C1461	C146	0.495700	0.439000	0.211700
H791	H79	0.493000	0.525800	0.185300
H801	H80	0.714100	0.782600	0.299600
C1471	C147	0.719100	0.854400	0.254700
H811	H81	0.706400	0.911800	0.203100
C1481	C148	0.478700	0.492500	0.084900
C1491	C149	0.680700	0.605100	0.161700
H821	H82	0.681400	0.696300	0.184300
H831	H83	0.666000	0.522700	0.129500
H841	H84	0.492700	0.417500	0.185300
C1501	C150	0.766900	0.879200	0.265900
C1511	C151	0.723800	0.583000	0.185400
C1521	C152	0.789600	0.921700	0.239200
C1531	C153	0.790400	0.863100	0.305700
C1541	C154	0.755200	0.538400	0.167500
C1551	C155	0.732900	0.604200	0.228000
C1561	C156	0.509500	0.298500	0.212700
C1571	C157	0.833400	0.948900	0.249800
H851	H85	0.775100	0.933000	0.212900
C1581	C158	0.833800	0.888800	0.317500
H861	H86	0.776100	0.834300	0.324500
H871	H87	0.749800	0.523200	0.139400
C1591	C159	0.794500	0.516500	0.191400
C1601	C160	0.771700	0.584000	0.252000
H881	H88	0.711900	0.633000	0.240600
C1611	C161	0.509100	0.230300	0.211600
H891	H89	0.516500	0.320900	0.187400
C1621	C162	0.854800	0.932500	0.289500
C1631	C163	0.854800	0.997200	0.220400
C1641	C164	0.856500	0.872300	0.360500
C1651	C165	0.802000	0.539500	0.232900
C1661	C166	0.828000	0.470100	0.171700
C1671	C167	0.778600	0.606900	0.297600
C1681	C168	0.518400	0.196500	0.169700
H901	H90	0.883600	0.951100	0.297400
C1691	C169	0.875100	0.052700	0.235700
C1701	C170	0.852800	0.987200	0.175800
C1711	C171	0.899500	0.897400	0.373400
C1721	C172	0.834700	0.831400	0.389700
H911	H91	0.828100	0.524900	0.248800
C1731	C173	0.811500	0.424200	0.140800
C1741	C174	0.875300	0.467200	0.184500
C1751	C175	0.823900	0.613100	0.316800
C1761	C176	0.740300	0.624200	0.322200
C1771	C177	0.503400	0.137900	0.163200
C1781	C178	0.539400	0.223100	0.136700
H921	H92	0.877100	0.059800	0.265600
C1791	C179	0.892700	0.098400	0.207500
H931	H93	0.839000	0.949900	0.164800
C1801	C180	0.871100	0.032100	0.147300
C1811	C181	0.920600	0.883200	0.413600
H941	H94	0.915000	0.924900	0.354600
H951	H95	0.805300	0.814000	0.382500
C1821	C182	0.856100	0.816000	0.429300
H961	H96	0.779700	0.423700	0.132400
C1831	C183	0.842300	0.380400	0.123400
C1841	C184	0.905500	0.422300	0.166900
H971	H97	0.886900	0.495900	0.205300
C1851	C185	0.829800	0.633100	0.358800
H981	H98	0.850400	0.603400	0.300400
H991	H99	0.710000	0.621600	0.310100
C1861	C186	0.746300	0.645300	0.365100
C1871	C187	0.511300	0.106000	0.121800
H1001	H100	0.487400	0.116600	0.185100
C1881	C188	0.545200	0.194300	0.096900
H1011	H101	0.551300	0.264400	0.140400
H1021	H102	0.905600	0.136300	0.218400
C1891	C189	0.891200	0.087800	0.163100
H1031	H103	0.869800	0.024500	0.117500
H1041	H104	0.949100	0.902300	0.421700
C1901	C190	0.898900	0.840600	0.441300
H1051	H105	0.840800	0.788300	0.448200
H1061	H106	0.831200	0.351500	0.102500
C1911	C191	0.889300	0.378500	0.136300
H1071	H107	0.937200	0.421700	0.175700
C1921	C192	0.791600	0.648400	0.384000
H1081	H108	0.860200	0.636400	0.370700
H1091	H109	0.720200	0.657400	0.381100
C1931	C193	0.532300	0.134500	0.089700
H1101	H110	0.501100	0.063900	0.118200
H1111	H111	0.558700	0.217600	0.074500
C1941	C194	0.911500	0.134700	0.131900
C1951	C195	0.921800	0.823200	0.484400
C1961	C196	0.923300	0.330600	0.117900
C1971	C197	0.798200	0.667700	0.430900
C1981	C198	0.540200	0.103300	0.046400
O451	O45	0.837700	0.657600	0.447900
O461	O46	0.764400	0.692300	0.449900
O471	O47	0.552000	0.136500	0.014600
O481	O48	0.533400	0.044800	0.043400
Ca121	Ca12	0.876100	0.671500	0.513700
Ca131	Ca13	0.990200	0.238000	0.187200
O491	O49	0.055700	0.314000	0.190900
O501	O50	0.054400	0.261200	0.252500
O511	O51	0.028600	0.213500	0.119800
O521	O52	0.006200	0.137700	0.214200
O531	O53	0.960700	0.319200	0.138100
O541	O54	0.929600	0.186400	0.146400
C1991	C199	0.074700	0.295800	0.225900
Ca141	Ca14	0.959400	0.208800	0.069200
C2001	C200	0.048200	0.165100	0.104000
C2011	C201	0.125100	0.314400	0.235900
O551	O55	0.030100	0.134900	0.072800
O561	O56	0.910900	0.122000	0.092000
O571	O57	0.912500	0.304800	0.081400
O581	O58	0.905800	0.224200	0.005200
O591	O59	0.956800	0.146000	0.998400
C2021	C202	0.095100	0.144500	0.122500
C2031	C203	0.151100	0.286800	0.269200
C2041	C204	0.146400	0.361900	0.211000
Ca151	Ca15	0.029000	0.084400	0.003300
C2051	C205	0.121300	0.186800	0.148600
C2061	C206	0.112300	0.083300	0.115000
C2071	C207	0.995800	0.004000	0.211600
H1121	H112	0.137100	0.255400	0.286300
C2081	C208	0.197000	0.304200	0.278000
C2091	C209	0.192600	0.380600	0.220400
H1131	H113	0.129700	0.381100	0.188200
O601	O60	0.992300	0.003800	0.045900
N41	N4	0.042800	0.069700	0.919500
H1141	H114	0.110200	0.228200	0.153300
C2101	C210	0.163900	0.167400	0.167500
H1151	H115	0.095600	0.055200	0.097000
C2111	C211	0.154700	0.063900	0.134600
C2121	C212	0.995700	0.939000	0.211700
H1161	H116	0.993000	0.025800	0.185300
H1171	H117	0.214100	0.282600	0.299600
C2131	C213	0.219100	0.354400	0.254700
H1181	H118	0.206400	0.411800	0.203100
C2141	C214	0.978700	0.992500	0.084900
C2151	C215	0.180700	0.105100	0.161700
H1191	H119	0.181400	0.196300	0.184300
H1201	H120	0.166000	0.022700	0.129500
H1211	H121	0.992700	0.917500	0.185300
C2161	C216	0.266900	0.379200	0.265900
C2171	C217	0.223800	0.083000	0.185400
C2181	C218	0.289600	0.421700	0.239200
C2191	C219	0.290400	0.363100	0.305700
C2201	C220	0.255200	0.038400	0.167500
C2211	C221	0.232900	0.104200	0.228000
C2221	C222	0.009500	0.798500	0.212700
C2231	C223	0.333400	0.448900	0.249800
H1221	H122	0.275100	0.433000	0.212900
C2241	C224	0.333800	0.388800	0.317500
H1231	H123	0.276100	0.334300	0.324500
H1241	H124	0.249800	0.023200	0.139400
C2251	C225	0.294500	0.016500	0.191400
C2261	C226	0.271700	0.084000	0.252000
H1251	H125	0.211900	0.133000	0.240600
C2271	C227	0.009100	0.730300	0.211600
H1261	H126	0.016500	0.820900	0.187400
C2281	C228	0.354800	0.432500	0.289500
C2291	C229	0.354800	0.497200	0.220400
C2301	C230	0.356500	0.372300	0.360500
C2311	C231	0.302000	0.039500	0.232900
C2321	C232	0.328000	0.970100	0.171700
C2331	C233	0.278600	0.106900	0.297600
C2341	C234	0.018400	0.696500	0.169700
H1271	H127	0.383600	0.451100	0.297400
C2351	C235	0.375100	0.552700	0.235700
C2361	C236	0.352800	0.487200	0.175800
C2371	C237	0.399500	0.397400	0.373400
C2381	C238	0.334700	0.331400	0.389700
H1281	H128	0.328100	0.024900	0.248800
C2391	C239	0.311500	0.924200	0.140800
C2401	C240	0.375300	0.967200	0.184500
C2411	C241	0.323900	0.113100	0.316800
C2421	C242	0.240300	0.124200	0.322200
C2431	C243	0.003400	0.637900	0.163200
C2441	C244	0.039400	0.723100	0.136700
H1291	H129	0.377100	0.559800	0.265600
C2451	C245	0.392700	0.598400	0.207500
H1301	H130	0.339000	0.449900	0.164800
C2461	C246	0.371100	0.532100	0.147300
C2471	C247	0.420600	0.383200	0.413600
H1311	H131	0.415000	0.424900	0.354600
H1321	H132	0.305300	0.314000	0.382500
C2481	C248	0.356100	0.316000	0.429300
H1331	H133	0.279700	0.923700	0.132400
C2491	C249	0.342300	0.880400	0.123400
C2501	C250	0.405500	0.922300	0.166900
H1341	H134	0.386900	0.995900	0.205300
C2511	C251	0.329800	0.133100	0.358800
H1351	H135	0.350400	0.103400	0.300400
H1361	H136	0.210000	0.121600	0.310100
C2521	C252	0.246300	0.145300	0.365100
C2531	C253	0.011300	0.606000	0.121800
H1371	H137	0.987400	0.616600	0.185100
C2541	C254	0.045200	0.694300	0.096900
H1381	H138	0.051300	0.764400	0.140400
H1391	H139	0.405600	0.636300	0.218400
C2551	C255	0.391200	0.587800	0.163100
H1401	H140	0.369800	0.524500	0.117500
H1411	H141	0.449100	0.402300	0.421700
C2561	C256	0.398900	0.340600	0.441300
H1421	H142	0.340800	0.288300	0.448200
H1431	H143	0.331200	0.851500	0.102500
C2571	C257	0.389300	0.878500	0.136300
H1441	H144	0.437200	0.921700	0.175700
C2581	C258	0.291600	0.148400	0.384000
H1451	H145	0.360200	0.136400	0.370700
H1461	H146	0.220200	0.157400	0.381100
C2591	C259	0.032300	0.634500	0.089700
H1471	H147	0.001100	0.563900	0.118200
H1481	H148	0.058700	0.717600	0.074500
C2601	C260	0.411500	0.634700	0.131900
C2611	C261	0.421800	0.323200	0.484400
C2621	C262	0.423300	0.830600	0.117900
C2631	C263	0.298200	0.167700	0.430900
C2641	C264	0.040200	0.603300	0.046400
O611	O61	0.337700	0.157600	0.447900
O621	O62	0.264400	0.192300	0.449900
O631	O63	0.052000	0.636500	0.014600
O641	O64	0.033400	0.544800	0.043400
Ca161	Ca16	0.376100	0.171500	0.513700
Ca171	Ca17	0.490200	0.262000	0.687200
O651	O65	0.555700	0.186000	0.690900
O661	O66	0.554400	0.238800	0.752500
O671	O67	0.528600	0.286500	0.619800
O681	O68	0.506200	0.362300	0.714200
O691	O69	0.460700	0.180800	0.638100
O701	O70	0.429600	0.313600	0.646400
C2651	C265	0.574700	0.204200	0.725900
Ca181	Ca18	0.459400	0.291200	0.569200
C2661	C266	0.548200	0.334900	0.604000
C2671	C267	0.625100	0.185600	0.735900
O711	O71	0.530100	0.365100	0.572800
O721	O72	0.410900	0.378000	0.592000
O731	O73	0.412500	0.195200	0.581400
O741	O74	0.405800	0.275800	0.505200
O751	O75	0.456800	0.354000	0.498400
C2681	C268	0.595100	0.355500	0.622500
C2691	C269	0.651100	0.213200	0.769200
C2701	C270	0.646400	0.138100	0.711000
Ca191	Ca19	0.529000	0.415600	0.503300
C2711	C271	0.621300	0.313200	0.648600
C2721	C272	0.612300	0.416700	0.615000
C2731	C273	0.495800	0.496000	0.711600
H1491	H149	0.637100	0.244600	0.786300
C2741	C274	0.697000	0.195800	0.778000
C2751	C275	0.692600	0.119400	0.720400
H1501	H150	0.629700	0.118900	0.688200
O761	O76	0.492300	0.496200	0.545900
N51	N5	0.542800	0.430300	0.419500
H1511	H151	0.610200	0.271800	0.653300
C2761	C276	0.663900	0.332600	0.667500
H1521	H152	0.595600	0.444800	0.597000
C2771	C277	0.654700	0.436100	0.634600
C2781	C278	0.495700	0.561000	0.711700
H1531	H153	0.493000	0.474200	0.685300
H1541	H154	0.714100	0.217400	0.799600
C2791	C279	0.719100	0.145600	0.754700
H1551	H155	0.706400	0.088200	0.703100
C2801	C280	0.478700	0.507500	0.584900
C2811	C281	0.680700	0.394900	0.661700
H1561	H156	0.681400	0.303700	0.684300
H1571	H157	0.666000	0.477300	0.629500
H1581	H158	0.492700	0.582500	0.685300
C2821	C282	0.766900	0.120800	0.765900
C2831	C283	0.723800	0.417000	0.685400
C2841	C284	0.789600	0.078300	0.739200
C2851	C285	0.790400	0.136900	0.805700
C2861	C286	0.755200	0.461600	0.667500
C2871	C287	0.732900	0.395800	0.728000
C2881	C288	0.509500	0.701500	0.712700
C2891	C289	0.833400	0.051100	0.749800
H1591	H159	0.775100	0.067000	0.712900
C2901	C290	0.833800	0.111200	0.817500
H1601	H160	0.776100	0.165700	0.824500
H1611	H161	0.749800	0.476800	0.639400
C2911	C291	0.794500	0.483500	0.691400
C2921	C292	0.771700	0.416000	0.752000
H1621	H162	0.711900	0.367000	0.740600
C2931	C293	0.509100	0.769700	0.711600
H1631	H163	0.516500	0.679100	0.687400
C2941	C294	0.854800	0.067500	0.789500
C2951	C295	0.854800	0.002800	0.720400
C2961	C296	0.856500	0.127700	0.860500
C2971	C297	0.802000	0.460500	0.732900
C2981	C298	0.828000	0.529900	0.671700
C2991	C299	0.778600	0.393100	0.797600
C3001	C300	0.518400	0.803500	0.669700
H1641	H164	0.883600	0.048900	0.797400
C3011	C301	0.875100	0.947300	0.735700
C3021	C302	0.852800	0.012800	0.675800
C3031	C303	0.899500	0.102600	0.873400
C3041	C304	0.834700	0.168600	0.889700
H1651	H165	0.828100	0.475100	0.748800
C3051	C305	0.811500	0.575800	0.640800
C3061	C306	0.875300	0.532800	0.684500
C3071	C307	0.823900	0.386900	0.816800
C3081	C308	0.740300	0.375800	0.822200
C3091	C309	0.503400	0.862100	0.663200
C3101	C310	0.539400	0.776900	0.636700
H1661	H166	0.877100	0.940200	0.765600
C3111	C311	0.892700	0.901600	0.707500
H1671	H167	0.839000	0.050100	0.664800
C3121	C312	0.871100	0.967900	0.647300
C3131	C313	0.920600	0.116800	0.913600
H1681	H168	0.915000	0.075100	0.854600
H1691	H169	0.805300	0.186000	0.882500
C3141	C314	0.856100	0.184000	0.929300
H1701	H170	0.779700	0.576300	0.632400
C3151	C315	0.842300	0.619600	0.623400
C3161	C316	0.905500	0.577700	0.666900
H1711	H171	0.886900	0.504100	0.705300
C3171	C317	0.829800	0.366900	0.858800
H1721	H172	0.850400	0.396600	0.800400
H1731	H173	0.710000	0.378400	0.810100
C3181	C318	0.746300	0.354700	0.865100
C3191	C319	0.511300	0.894000	0.621800
H1741	H174	0.487400	0.883400	0.685100
C3201	C320	0.545200	0.805700	0.596900
H1751	H175	0.551300	0.735600	0.640400
H1761	H176	0.905600	0.863700	0.718400
C3211	C321	0.891200	0.912200	0.663100
H1771	H177	0.869800	0.975500	0.617500
H1781	H178	0.949100	0.097700	0.921700
C3221	C322	0.898900	0.159400	0.941300
H1791	H179	0.840800	0.211700	0.948200
H1801	H180	0.831200	0.648500	0.602500
C3231	C323	0.889300	0.621500	0.636300
H1811	H181	0.937200	0.578300	0.675700
C3241	C324	0.791600	0.351600	0.884000
H1821	H182	0.860200	0.363600	0.870700
H1831	H183	0.720200	0.342600	0.881100
C3251	C325	0.532300	0.865500	0.589700
H1841	H184	0.501100	0.936100	0.618200
H1851	H185	0.558700	0.782400	0.574500
C3261	C326	0.911500	0.865300	0.631900
C3271	C327	0.921800	0.176800	0.984400
C3281	C328	0.923300	0.669400	0.617900
C3291	C329	0.798200	0.332300	0.930900
C3301	C330	0.540200	0.896700	0.546400
O771	O77	0.837700	0.342400	0.947900
O781	O78	0.764400	0.307700	0.949900
O791	O79	0.552000	0.863500	0.514600
O801	O80	0.533400	0.955200	0.543400
Ca201	Ca20	0.876100	0.328500	0.013700
Ca211	Ca21	0.990200	0.762000	0.687200
O811	O81	0.055700	0.686000	0.690900
O821	O82	0.054400	0.738800	0.752500
O831	O83	0.028600	0.786500	0.619800
O841	O84	0.006200	0.862300	0.714200
O851	O85	0.960700	0.680800	0.638100
O861	O86	0.929600	0.813600	0.646400
C3311	C331	0.074700	0.704200	0.725900
Ca221	Ca22	0.959400	0.791200	0.569200
C3321	C332	0.048200	0.834900	0.604000
C3331	C333	0.125100	0.685600	0.735900
O871	O87	0.030100	0.865100	0.572800
O881	O88	0.910900	0.878000	0.592000
O891	O89	0.912500	0.695200	0.581400
O901	O90	0.905800	0.775800	0.505200
O911	O91	0.956800	0.854000	0.498400
C3341	C334	0.095100	0.855500	0.622500
C3351	C335	0.151100	0.713200	0.769200
C3361	C336	0.146400	0.638100	0.711000
Ca231	Ca23	0.029000	0.915600	0.503300
C3371	C337	0.121300	0.813200	0.648600
C3381	C338	0.112300	0.916700	0.615000
C3391	C339	0.995800	0.996000	0.711600
H1861	H186	0.137100	0.744600	0.786300
C3401	C340	0.197000	0.695800	0.778000
C3411	C341	0.192600	0.619400	0.720400
H1871	H187	0.129700	0.618900	0.688200
O921	O92	0.992300	0.996200	0.545900
N61	N6	0.042800	0.930300	0.419500
H1881	H188	0.110200	0.771800	0.653300
C3421	C342	0.163900	0.832600	0.667500
H1891	H189	0.095600	0.944800	0.597000
C3431	C343	0.154700	0.936100	0.634600
C3441	C344	0.995700	0.061000	0.711700
H1901	H190	0.993000	0.974200	0.685300
H1911	H191	0.214100	0.717400	0.799600
C3451	C345	0.219100	0.645600	0.754700
H1921	H192	0.206400	0.588200	0.703100
C3461	C346	0.978700	0.007500	0.584900
C3471	C347	0.180700	0.894900	0.661700
H1931	H193	0.181400	0.803700	0.684300
H1941	H194	0.166000	0.977300	0.629500
H1951	H195	0.992700	0.082500	0.685300
C3481	C348	0.266900	0.620800	0.765900
C3491	C349	0.223800	0.917000	0.685400
C3501	C350	0.289600	0.578300	0.739200
C3511	C351	0.290400	0.636900	0.805700
C3521	C352	0.255200	0.961600	0.667500
C3531	C353	0.232900	0.895800	0.728000
C3541	C354	0.009500	0.201500	0.712700
C3551	C355	0.333400	0.551100	0.749800
H1961	H196	0.275100	0.567000	0.712900
C3561	C356	0.333800	0.611200	0.817500
H1971	H197	0.276100	0.665700	0.824500
H1981	H198	0.249800	0.976800	0.639400
C3571	C357	0.294500	0.983500	0.691400
C3581	C358	0.271700	0.916000	0.752000
H1991	H199	0.211900	0.867000	0.740600
C3591	C359	0.009100	0.269700	0.711600
H2001	H200	0.016500	0.179100	0.687400
C3601	C360	0.354800	0.567500	0.789500
C3611	C361	0.354800	0.502800	0.720400
C3621	C362	0.356500	0.627700	0.860500
C3631	C363	0.302000	0.960500	0.732900
C3641	C364	0.328000	0.029900	0.671700
C3651	C365	0.278600	0.893100	0.797600
C3661	C366	0.018400	0.303500	0.669700
H2011	H201	0.383600	0.548900	0.797400
C3671	C367	0.375100	0.447300	0.735700
C3681	C368	0.352800	0.512800	0.675800
C3691	C369	0.399500	0.602600	0.873400
C3701	C370	0.334700	0.668600	0.889700
H2021	H202	0.328100	0.975100	0.748800
C3711	C371	0.311500	0.075800	0.640800
C3721	C372	0.375300	0.032800	0.684500
C3731	C373	0.323900	0.886900	0.816800
C3741	C374	0.240300	0.875800	0.822200
C3751	C375	0.003400	0.362100	0.663200
C3761	C376	0.039400	0.276900	0.636700
H2031	H203	0.377100	0.440200	0.765600
C3771	C377	0.392700	0.401600	0.707500
H2041	H204	0.339000	0.550100	0.664800
C3781	C378	0.371100	0.467900	0.647300
C3791	C379	0.420600	0.616800	0.913600
H2051	H205	0.415000	0.575100	0.854600
H2061	H206	0.305300	0.686000	0.882500
C3801	C380	0.356100	0.684000	0.929300
H2071	H207	0.279700	0.076300	0.632400
C3811	C381	0.342300	0.119600	0.623400
C3821	C382	0.405500	0.077700	0.666900
H2081	H208	0.386900	0.004100	0.705300
C3831	C383	0.329800	0.866900	0.858800
H2091	H209	0.350400	0.896600	0.800400
H2101	H210	0.210000	0.878400	0.810100
C3841	C384	0.246300	0.854700	0.865100
C3851	C385	0.011300	0.394000	0.621800
H2111	H211	0.987400	0.383400	0.685100
C3861	C386	0.045200	0.305700	0.596900
H2121	H212	0.051300	0.235600	0.640400
H2131	H213	0.405600	0.363700	0.718400
C3871	C387	0.391200	0.412200	0.663100
H2141	H214	0.369800	0.475500	0.617500
H2151	H215	0.449100	0.597700	0.921700
C3881	C388	0.398900	0.659400	0.941300
H2161	H216	0.340800	0.711700	0.948200
H2171	H217	0.331200	0.148500	0.602500
C3891	C389	0.389300	0.121500	0.636300
H2181	H218	0.437200	0.078300	0.675700
C3901	C390	0.291600	0.851600	0.884000
H2191	H219	0.360200	0.863600	0.870700
H2201	H220	0.220200	0.842600	0.881100
C3911	C391	0.032300	0.365500	0.589700
H2211	H221	0.001100	0.436100	0.618200
H2221	H222	0.058700	0.282400	0.574500
C3921	C392	0.411500	0.365300	0.631900
C3931	C393	0.421800	0.676800	0.984400
C3941	C394	0.423300	0.169400	0.617900
C3951	C395	0.298200	0.832300	0.930900
C3961	C396	0.040200	0.396700	0.546400
O931	O93	0.337700	0.842400	0.947900
O941	O94	0.264400	0.807700	0.949900
O951	O95	0.052000	0.363500	0.514600
O961	O96	0.033400	0.455200	0.543400
Ca241	Ca24	0.376100	0.828500	0.013700
Ca251	Ca25	0.509800	0.262000	0.812800
O971	O97	0.444300	0.186000	0.809100
O981	O98	0.445600	0.238800	0.747500
O991	O99	0.471400	0.286500	0.880200
O1001	O100	0.493800	0.362300	0.785800
O1011	O101	0.539300	0.180800	0.861900
O1021	O102	0.570400	0.313600	0.853600
C3971	C397	0.425300	0.204200	0.774100
Ca261	Ca26	0.540600	0.291200	0.930800
C3981	C398	0.451800	0.334900	0.896000
C3991	C399	0.374900	0.185600	0.764100
O1031	O103	0.469900	0.365100	0.927200
O1041	O104	0.589100	0.378000	0.908000
O1051	O105	0.587500	0.195200	0.918600
O1061	O106	0.594200	0.275800	0.994800
O1071	O107	0.543200	0.354000	0.001600
C4001	C400	0.404900	0.355500	0.877500
C4011	C401	0.348900	0.213200	0.730800
C4021	C402	0.353600	0.138100	0.789000
Ca271	Ca27	0.471000	0.415600	0.996700
C4031	C403	0.378700	0.313200	0.851400
C4041	C404	0.387700	0.416700	0.885000
C4051	C405	0.504200	0.496000	0.788400
H2231	H223	0.362900	0.244600	0.713700
C4061	C406	0.303000	0.195800	0.722000
C4071	C407	0.307400	0.119400	0.779600
H2241	H224	0.370300	0.118900	0.811800
O1081	O108	0.507700	0.496200	0.954100
N71	N7	0.457200	0.430300	0.080500
H2251	H225	0.389800	0.271800	0.846700
C4081	C408	0.336100	0.332600	0.832500
H2261	H226	0.404400	0.444800	0.903000
C4091	C409	0.345300	0.436100	0.865400
C4101	C410	0.504300	0.561000	0.788300
H2271	H227	0.507000	0.474200	0.814700
H2281	H228	0.285900	0.217400	0.700400
C4111	C411	0.280900	0.145600	0.745300
H2291	H229	0.293600	0.088200	0.796900
C4121	C412	0.521300	0.507500	0.915100
C4131	C413	0.319300	0.394900	0.838300
H2301	H230	0.318600	0.303700	0.815700
H2311	H231	0.334000	0.477300	0.870500
H2321	H232	0.507300	0.582500	0.814700
C4141	C414	0.233100	0.120800	0.734100
C4151	C415	0.276200	0.417000	0.814600
C4161	C416	0.210400	0.078300	0.760800
C4171	C417	0.209600	0.136900	0.694300
C4181	C418	0.244800	0.461600	0.832500
C4191	C419	0.267100	0.395800	0.772000
C4201	C420	0.490500	0.701500	0.787300
C4211	C421	0.166600	0.051100	0.750200
H2331	H233	0.224900	0.067000	0.787100
C4221	C422	0.166200	0.111200	0.682500
H2341	H234	0.223900	0.165700	0.675500
H2351	H235	0.250200	0.476800	0.860600
C4231	C423	0.205500	0.483500	0.808600
C4241	C424	0.228300	0.416000	0.748000
H2361	H236	0.288100	0.367000	0.759400
C4251	C425	0.490900	0.769700	0.788400
H2371	H237	0.483500	0.679100	0.812600
C4261	C426	0.145200	0.067500	0.710500
C4271	C427	0.145200	0.002800	0.779600
C4281	C428	0.143500	0.127700	0.639500
C4291	C429	0.198000	0.460500	0.767100
C4301	C430	0.172000	0.529900	0.828300
C4311	C431	0.221400	0.393100	0.702400
C4321	C432	0.481600	0.803500	0.830300
H2381	H238	0.116400	0.048900	0.702600
C4331	C433	0.124900	0.947300	0.764300
C4341	C434	0.147200	0.012800	0.824200
C4351	C435	0.100500	0.102600	0.626600
C4361	C436	0.165300	0.168600	0.610300
H2391	H239	0.171900	0.475100	0.751200
C4371	C437	0.188500	0.575800	0.859200
C4381	C438	0.124700	0.532800	0.815500
C4391	C439	0.176100	0.386900	0.683200
C4401	C440	0.259700	0.375800	0.677800
C4411	C441	0.496600	0.862100	0.836800
C4421	C442	0.460600	0.776900	0.863300
H2401	H240	0.122900	0.940200	0.734400
C4431	C443	0.107300	0.901600	0.792500
H2411	H241	0.161000	0.050100	0.835200
C4441	C444	0.128900	0.967900	0.852700
C4451	C445	0.079400	0.116800	0.586400
H2421	H242	0.085000	0.075100	0.645400
H2431	H243	0.194700	0.186000	0.617500
C4461	C446	0.143900	0.184000	0.570700
H2441	H244	0.220300	0.576300	0.867600
C4471	C447	0.157700	0.619600	0.876600
C4481	C448	0.094500	0.577700	0.833100
H2451	H245	0.113100	0.504100	0.794700
C4491	C449	0.170200	0.366900	0.641200
H2461	H246	0.149600	0.396600	0.699600
H2471	H247	0.290000	0.378400	0.689900
C4501	C450	0.253700	0.354700	0.634900
C4511	C451	0.488700	0.894000	0.878200
H2481	H248	0.512600	0.883400	0.814900
C4521	C452	0.454800	0.805700	0.903100
H2491	H249	0.448700	0.735600	0.859600
H2501	H250	0.094400	0.863700	0.781600
C4531	C453	0.108800	0.912200	0.836900
H2511	H251	0.130200	0.975500	0.882500
H2521	H252	0.050900	0.097700	0.578300
C4541	C454	0.101100	0.159400	0.558700
H2531	H253	0.159200	0.211700	0.551800
H2541	H254	0.168800	0.648500	0.897500
C4551	C455	0.110700	0.621500	0.863700
H2551	H255	0.062800	0.578300	0.824300
C4561	C456	0.208400	0.351600	0.616000
H2561	H256	0.139800	0.363600	0.629300
H2571	H257	0.279800	0.342600	0.618900
C4571	C457	0.467700	0.865500	0.910300
H2581	H258	0.498900	0.936100	0.881800
H2591	H259	0.441300	0.782400	0.925500
C4581	C458	0.088500	0.865300	0.868100
C4591	C459	0.078200	0.176800	0.515600
C4601	C460	0.076700	0.669400	0.882100
C4611	C461	0.201800	0.332300	0.569100
C4621	C462	0.459800	0.896700	0.953600
O1091	O109	0.162300	0.342400	0.552100
O1101	O110	0.235600	0.307700	0.550100
O1111	O111	0.448000	0.863500	0.985400
O1121	O112	0.466600	0.955200	0.956600
Ca281	Ca28	0.123900	0.328500	0.486300
Ca291	Ca29	0.009800	0.762000	0.812800
O1131	O113	0.944300	0.686000	0.809100
O1141	O114	0.945600	0.738800	0.747500
O1151	O115	0.971400	0.786500	0.880200
O1161	O116	0.993800	0.862300	0.785800
O1171	O117	0.039300	0.680800	0.861900
O1181	O118	0.070400	0.813600	0.853600
C4631	C463	0.925300	0.704200	0.774100
Ca301	Ca30	0.040600	0.791200	0.930800
C4641	C464	0.951800	0.834900	0.896000
C4651	C465	0.874900	0.685600	0.764100
O1191	O119	0.969900	0.865100	0.927200
O1201	O120	0.089100	0.878000	0.908000
O1211	O121	0.087500	0.695200	0.918600
O1221	O122	0.094200	0.775800	0.994800
O1231	O123	0.043200	0.854000	0.001600
C4661	C466	0.904900	0.855500	0.877500
C4671	C467	0.848900	0.713200	0.730800
C4681	C468	0.853600	0.638100	0.789000
Ca311	Ca31	0.971000	0.915600	0.996700
C4691	C469	0.878700	0.813200	0.851400
C4701	C470	0.887700	0.916700	0.885000
C4711	C471	0.004200	0.996000	0.788400
H2601	H260	0.862900	0.744600	0.713700
C4721	C472	0.803000	0.695800	0.722000
C4731	C473	0.807400	0.619400	0.779600
H2611	H261	0.870300	0.618900	0.811800
O1241	O124	0.007700	0.996200	0.954100
N81	N8	0.957200	0.930300	0.080500
H2621	H262	0.889800	0.771800	0.846700
C4741	C474	0.836100	0.832600	0.832500
H2631	H263	0.904400	0.944800	0.903000
C4751	C475	0.845300	0.936100	0.865400
C4761	C476	0.004300	0.061000	0.788300
H2641	H264	0.007000	0.974200	0.814700
H2651	H265	0.785900	0.717400	0.700400
C4771	C477	0.780900	0.645600	0.745300
H2661	H266	0.793600	0.588200	0.796900
C4781	C478	0.021300	0.007500	0.915100
C4791	C479	0.819300	0.894900	0.838300
H2671	H267	0.818600	0.803700	0.815700
H2681	H268	0.834000	0.977300	0.870500
H2691	H269	0.007300	0.082500	0.814700
C4801	C480	0.733100	0.620800	0.734100
C4811	C481	0.776200	0.917000	0.814600
C4821	C482	0.710400	0.578300	0.760800
C4831	C483	0.709600	0.636900	0.694300
C4841	C484	0.744800	0.961600	0.832500
C4851	C485	0.767100	0.895800	0.772000
C4861	C486	0.990500	0.201500	0.787300
C4871	C487	0.666600	0.551100	0.750200
H2701	H270	0.724900	0.567000	0.787100
C4881	C488	0.666200	0.611200	0.682500
H2711	H271	0.723900	0.665700	0.675500
H2721	H272	0.750200	0.976800	0.860600
C4891	C489	0.705500	0.983500	0.808600
C4901	C490	0.728300	0.916000	0.748000
H2731	H273	0.788100	0.867000	0.759400
C4911	C491	0.990900	0.269700	0.788400
H2741	H274	0.983500	0.179100	0.812600
C4921	C492	0.645200	0.567500	0.710500
C4931	C493	0.645200	0.502800	0.779600
C4941	C494	0.643500	0.627700	0.639500
C4951	C495	0.698000	0.960500	0.767100
C4961	C496	0.672000	0.029900	0.828300
C4971	C497	0.721400	0.893100	0.702400
C4981	C498	0.981600	0.303500	0.830300
H2751	H275	0.616400	0.548900	0.702600
C4991	C499	0.624900	0.447300	0.764300
C5001	C500	0.647200	0.512800	0.824200
C5011	C501	0.600500	0.602600	0.626600
C5021	C502	0.665300	0.668600	0.610300
H2761	H276	0.671900	0.975100	0.751200
C5031	C503	0.688500	0.075800	0.859200
C5041	C504	0.624700	0.032800	0.815500
C5051	C505	0.676100	0.886900	0.683200
C5061	C506	0.759700	0.875800	0.677800
C5071	C507	0.996600	0.362100	0.836800
C5081	C508	0.960600	0.276900	0.863300
H2771	H277	0.622900	0.440200	0.734400
C5091	C509	0.607300	0.401600	0.792500
H2781	H278	0.661000	0.550100	0.835200
C5101	C510	0.628900	0.467900	0.852700
C5111	C511	0.579400	0.616800	0.586400
H2791	H279	0.585000	0.575100	0.645400
H2801	H280	0.694700	0.686000	0.617500
C5121	C512	0.643900	0.684000	0.570700
H2811	H281	0.720300	0.076300	0.867600
C5131	C513	0.657700	0.119600	0.876600
C5141	C514	0.594500	0.077700	0.833100
H2821	H282	0.613100	0.004100	0.794700
C5151	C515	0.670200	0.866900	0.641200
H2831	H283	0.649600	0.896600	0.699600
H2841	H284	0.790000	0.878400	0.689900
C5161	C516	0.753700	0.854700	0.634900
C5171	C517	0.988700	0.394000	0.878200
H2851	H285	0.012600	0.383400	0.814900
C5181	C518	0.954800	0.305700	0.903100
H2861	H286	0.948700	0.235600	0.859600
H2871	H287	0.594400	0.363700	0.781600
C5191	C519	0.608800	0.412200	0.836900
H2881	H288	0.630200	0.475500	0.882500
H2891	H289	0.550900	0.597700	0.578300
C5201	C520	0.601100	0.659400	0.558700
H2901	H290	0.659200	0.711700	0.551800
H2911	H291	0.668800	0.148500	0.897500
C5211	C521	0.610700	0.121500	0.863700
H2921	H292	0.562800	0.078300	0.824300
C5221	C522	0.708400	0.851600	0.616000
H2931	H293	0.639800	0.863600	0.629300
H2941	H294	0.779800	0.842600	0.618900
C5231	C523	0.967700	0.365500	0.910300
H2951	H295	0.998900	0.436100	0.881800
H2961	H296	0.941300	0.282400	0.925500
C5241	C524	0.588500	0.365300	0.868100
C5251	C525	0.578200	0.676800	0.515600
C5261	C526	0.576700	0.169400	0.882100
C5271	C527	0.701800	0.832300	0.569100
C5281	C528	0.959800	0.396700	0.953600
O1251	O125	0.662300	0.842400	0.552100
O1261	O126	0.735600	0.807700	0.550100
O1271	O127	0.948000	0.363500	0.985400
O1281	O128	0.966600	0.455200	0.956600
Ca321	Ca32	0.623900	0.828500	0.486300
C5291	C529	0.500000	0.609700	0.250000
C5301	C530	0.500000	0.538500	0.250000
C5311	C531	0.500000	0.403100	0.250000
C5321	C532	0.500000	0.332400	0.250000
C5331	C533	0.500000	0.198900	0.250000
H2971	H297	0.500000	0.154300	0.250000
C5341	C534	0.000000	0.109700	0.250000
C5351	C535	0.000000	0.038500	0.250000
C5361	C536	0.000000	0.903100	0.250000
C5371	C537	0.000000	0.832400	0.250000
C5381	C538	0.000000	0.698900	0.250000
H2981	H298	0.000000	0.654300	0.250000
C5391	C539	0.500000	0.390300	0.750000
C5401	C540	0.500000	0.461500	0.750000
C5411	C541	0.500000	0.596900	0.750000
C5421	C542	0.500000	0.667600	0.750000
C5431	C543	0.500000	0.801100	0.750000
H2991	H299	0.500000	0.845700	0.750000
C5441	C544	0.000000	0.890300	0.750000
C5451	C545	0.000000	0.961500	0.750000
C5461	C546	0.000000	0.096900	0.750000
C5471	C547	0.000000	0.167600	0.750000
C5481	C548	0.000000	0.301100	0.750000
H3001	H300	0.000000	0.345700	0.750000
