data_KALFOU_clean_PM
_symmetry_space_group_name_H-M	'P1'
_cell_length_a	14.271900
_cell_length_b	14.272000
_cell_length_c	17.568800
_cell_angle_alpha	76.463200
_cell_angle_beta	76.463100
_cell_angle_gamma	115.070000
_symmetry_Int_Tables_number 1

loop_
_symmetry_equiv_pos_as_xyz
'x,y,z'

loop_
_atom_site_label
_atom_site_type_symbol
_atom_site_fract_x
_atom_site_fract_y
_atom_site_fract_z
Ni11	Ni1	0.193250	0.214990	0.814740
Ni21	Ni2	0.992010	0.970270	0.814740
Ni31	Ni3	0.964990	0.443250	0.314740
Ni41	Ni4	0.720270	0.242010	0.314740
H11	H1	0.107000	0.155000	0.702000
H21	H2	0.404400	0.287600	0.848600
H31	H3	0.498200	0.386600	0.919000
H41	H4	0.238300	0.428300	0.006600
H51	H5	0.151900	0.328700	0.934800
H61	H6	0.424900	0.543700	0.016400
H71	H7	0.355700	0.326300	0.134800
H81	H8	0.163000	0.255200	0.198400
H91	H9	0.014900	0.270100	0.270200
H101	H10	0.214400	0.580000	0.231200
H111	H11	0.366700	0.573300	0.161000
H121	H12	0.314600	0.054000	0.959800
H131	H13	0.351300	0.964700	0.065400
H141	H14	0.222400	0.784200	0.158200
H151	H15	0.021700	0.775300	0.027000
H161	H16	0.191000	0.143000	0.702000
H171	H17	0.747000	0.863800	0.848600
H181	H18	0.582800	0.694400	0.919000
H191	H19	0.755100	0.565100	0.006600
H201	H20	0.913300	0.736500	0.934800
H211	H21	0.558700	0.439900	0.016400
H221	H22	0.509500	0.538900	0.134800
H231	H23	0.638600	0.546400	0.198400
H241	H24	0.714900	0.459700	0.270200
H251	H25	0.554400	0.188800	0.231200
H261	H26	0.472300	0.265700	0.161000
H271	H27	0.725600	0.986200	0.959800
H281	H28	0.583300	0.969900	0.065400
H291	H29	0.619400	0.057600	0.158200
H301	H30	0.951300	0.197700	0.027000
H311	H31	0.905000	0.357000	0.202000
H321	H32	0.037600	0.654400	0.348600
H331	H33	0.136600	0.748200	0.419000
H341	H34	0.178300	0.488300	0.506600
H351	H35	0.078700	0.401900	0.434800
H361	H36	0.293700	0.674900	0.516400
H371	H37	0.076300	0.605700	0.634800
H381	H38	0.005200	0.413000	0.698400
H391	H39	0.020100	0.264900	0.770200
H401	H40	0.330000	0.464400	0.731200
H411	H41	0.323300	0.616700	0.661000
H421	H42	0.804000	0.564600	0.459800
H431	H43	0.714700	0.601300	0.565400
H441	H44	0.534200	0.472400	0.658200
H451	H45	0.525300	0.271700	0.527000
H461	H46	0.893000	0.441000	0.202000
H471	H47	0.613800	0.997000	0.348600
H481	H48	0.444400	0.832800	0.419000
H491	H49	0.315100	0.005100	0.506600
H501	H50	0.486500	0.163300	0.434800
H511	H51	0.189900	0.808700	0.516400
H521	H52	0.288900	0.759500	0.634800
H531	H53	0.296400	0.888600	0.698400
H541	H54	0.209700	0.964900	0.770200
H551	H55	0.938800	0.804400	0.731200
H561	H56	0.015700	0.722300	0.661000
H571	H57	0.736200	0.975600	0.459800
H581	H58	0.719900	0.833300	0.565400
H591	H59	0.807600	0.869400	0.658200
H601	H60	0.947700	0.201300	0.527000
C11	C1	0.370070	0.316070	0.881460
C21	C2	0.426500	0.374500	0.924200
C31	C3	0.376990	0.414990	0.974620
C41	C4	0.273570	0.398770	0.975660
C51	C5	0.222660	0.340260	0.931880
C61	C6	0.428350	0.474150	0.026500
C71	C7	0.377870	0.405470	0.124060
C81	C8	0.283340	0.412140	0.174520
C91	C9	0.176000	0.322400	0.205400
C101	C10	0.087300	0.332900	0.247200
C111	C11	0.203400	0.513000	0.224800
C121	C12	0.295300	0.509100	0.183400
C131	C13	0.162160	0.925960	0.985680
C141	C14	0.261200	0.979600	0.996400
C151	C15	0.283000	0.926400	0.059400
C161	C16	0.207800	0.818600	0.113600
C171	C17	0.108080	0.759680	0.101640
C181	C18	0.087150	0.814350	0.036500
C191	C19	0.026050	0.637450	0.158500
C201	C20	0.137220	0.987420	0.917560
C211	C21	0.748470	0.802470	0.881460
C221	C22	0.649300	0.701300	0.924200
C231	C23	0.648390	0.610390	0.974620
C241	C24	0.750770	0.625570	0.975660
C251	C25	0.845460	0.727860	0.931880
C261	C26	0.545150	0.499350	0.026500
C271	C27	0.498070	0.470470	0.124060
C281	C28	0.542140	0.413340	0.174520
C291	C29	0.618600	0.472200	0.205400
C301	C30	0.665500	0.419900	0.247200
C311	C31	0.571800	0.262200	0.224800
C321	C32	0.521300	0.307500	0.183400
C331	C33	0.852160	0.088360	0.985680
C341	C34	0.742400	0.024000	0.996400
C351	C35	0.657600	0.014200	0.059400
C361	C36	0.678600	0.067800	0.113600
C371	C37	0.790280	0.138680	0.101640
C381	C38	0.876350	0.149150	0.036500
C391	C39	0.815450	0.204050	0.158500
C401	C40	0.945220	0.095020	0.917560
C411	C41	0.066070	0.620070	0.381460
C421	C42	0.124500	0.676500	0.424200
C431	C43	0.164990	0.626990	0.474620
C441	C44	0.148770	0.523570	0.475660
C451	C45	0.090260	0.472660	0.431880
C461	C46	0.224150	0.678350	0.526500
C471	C47	0.155470	0.627870	0.624060
C481	C48	0.162140	0.533340	0.674520
C491	C49	0.072400	0.426000	0.705400
C501	C50	0.082900	0.337300	0.747200
C511	C51	0.263000	0.453400	0.724800
C521	C52	0.259100	0.545300	0.683400
C531	C53	0.675960	0.412160	0.485680
C541	C54	0.729600	0.511200	0.496400
C551	C55	0.676400	0.533000	0.559400
C561	C56	0.568600	0.457800	0.613600
C571	C57	0.509680	0.358080	0.601640
C581	C58	0.564350	0.337150	0.536500
C591	C59	0.387450	0.276050	0.658500
C601	C60	0.737420	0.387220	0.417560
C611	C61	0.552470	0.998470	0.381460
C621	C62	0.451300	0.899300	0.424200
C631	C63	0.360390	0.898390	0.474620
C641	C64	0.375570	0.000770	0.475660
C651	C65	0.477860	0.095460	0.431880
C661	C66	0.249350	0.795150	0.526500
C671	C67	0.220470	0.748070	0.624060
C681	C68	0.163340	0.792140	0.674520
C691	C69	0.222200	0.868600	0.705400
C701	C70	0.169900	0.915500	0.747200
C711	C71	0.012200	0.821800	0.724800
C721	C72	0.057500	0.771300	0.683400
C731	C73	0.838360	0.102160	0.485680
C741	C74	0.774000	0.992400	0.496400
C751	C75	0.764200	0.907600	0.559400
C761	C76	0.817800	0.928600	0.613600
C771	C77	0.888680	0.040280	0.601640
C781	C78	0.899150	0.126350	0.536500
C791	C79	0.954050	0.065450	0.658500
C801	C80	0.845020	0.195220	0.417560
N11	N1	0.270500	0.298280	0.884420
N21	N2	0.099530	0.426530	0.256140
N31	N3	0.845080	0.817300	0.884420
N41	N4	0.644330	0.317330	0.256140
N51	N5	0.048280	0.520500	0.384420
N61	N6	0.176530	0.349530	0.756140
N71	N7	0.567300	0.095080	0.384420
N81	N8	0.067330	0.894330	0.756140
O11	O1	0.214190	0.087630	0.871380
O21	O2	0.046380	0.935200	0.910820
O31	O3	0.946950	0.581350	0.140100
O41	O4	0.044960	0.601780	0.222660
O51	O5	0.914430	0.040990	0.871380
O61	O6	0.042800	0.153980	0.910820
O71	O7	0.912950	0.278550	0.140100
O81	O8	0.732380	0.175560	0.222660
O91	O9	0.837630	0.464190	0.371380
O101	O10	0.685200	0.296380	0.410820
O111	O11	0.331350	0.196950	0.640100
O121	O12	0.351780	0.294960	0.722660
O131	O13	0.790990	0.164430	0.371380
O141	O14	0.903980	0.292800	0.410820
O151	O15	0.028550	0.162950	0.640100
O161	O16	0.925560	0.982380	0.722660
O171	O17	0.130420	0.130420	0.739160
O181	O18	0.880420	0.380420	0.239160
