data_KALGAH_clean_PM
_symmetry_space_group_name_H-M	'P1'
_cell_length_a	14.024300
_cell_length_b	14.024300
_cell_length_c	17.917800
_cell_angle_alpha	103.787000
_cell_angle_beta	103.787000
_cell_angle_gamma	113.020000
_symmetry_Int_Tables_number 1

loop_
_symmetry_equiv_pos_as_xyz
'x,y,z'

loop_
_atom_site_label
_atom_site_type_symbol
_atom_site_fract_x
_atom_site_fract_y
_atom_site_fract_z
Ni11	Ni1	0.199180	0.218100	0.195060
Ni21	Ni2	0.995880	0.976960	0.195060
Ni31	Ni3	0.968100	0.449180	0.695060
Ni41	Ni4	0.726960	0.245880	0.695060
H11	H1	0.023800	0.275600	0.242400
H21	H2	0.010500	0.424900	0.311400
H31	H3	0.330600	0.619200	0.355800
H41	H4	0.336500	0.466300	0.282200
H51	H5	0.087100	0.620100	0.387000
H61	H6	0.302500	0.680300	0.499000
H71	H7	0.180900	0.489300	0.504600
H81	H8	0.077100	0.405500	0.573400
H91	H9	0.046500	0.667700	0.668200
H101	H10	0.144900	0.760300	0.597600
H111	H11	0.315200	0.047600	0.050200
H121	H12	0.351400	0.953000	0.943800
H131	H13	0.217600	0.773200	0.852600
H141	H14	0.011100	0.782300	0.974000
H151	H15	0.218600	0.966800	0.242400
H161	H16	0.300900	0.886500	0.311400
H171	H17	0.025200	0.736600	0.355800
H181	H18	0.945700	0.815900	0.282200
H191	H19	0.299900	0.766900	0.387000
H201	H20	0.196500	0.818700	0.499000
H211	H21	0.323700	0.015300	0.504600
H221	H22	0.496300	0.167900	0.573400
H231	H23	0.621700	0.000500	0.668200
H241	H24	0.452700	0.837300	0.597600
H251	H25	0.735000	0.002600	0.050200
H261	H26	0.592400	0.990800	0.943800
H271	H27	0.635000	0.079400	0.852600
H281	H28	0.962900	0.191700	0.974000
H291	H29	0.025600	0.273800	0.742400
H301	H30	0.174900	0.260500	0.811400
H311	H31	0.369200	0.580600	0.855800
H321	H32	0.216300	0.586500	0.782200
H331	H33	0.370100	0.337100	0.887000
H341	H34	0.430300	0.552500	0.999000
H351	H35	0.239300	0.430900	0.004600
H361	H36	0.155500	0.327100	0.073400
H371	H37	0.417700	0.296500	0.168200
H381	H38	0.510300	0.394900	0.097600
H391	H39	0.797600	0.565200	0.550200
H401	H40	0.703000	0.601400	0.443800
H411	H41	0.523200	0.467600	0.352600
H421	H42	0.532300	0.261100	0.474000
H431	H43	0.716800	0.468600	0.742400
H441	H44	0.636500	0.550900	0.811400
H451	H45	0.486600	0.275200	0.855800
H461	H46	0.565900	0.195700	0.782200
H471	H47	0.516900	0.549900	0.887000
H481	H48	0.568700	0.446500	0.999000
H491	H49	0.765300	0.573700	0.004600
H501	H50	0.917900	0.746300	0.073400
H511	H51	0.750500	0.871700	0.168200
H521	H52	0.587300	0.702700	0.097600
H531	H53	0.752600	0.985000	0.550200
H541	H54	0.740800	0.842400	0.443800
H551	H55	0.829400	0.885000	0.352600
H561	H56	0.941700	0.212900	0.474000
C11	C1	0.087100	0.346300	0.265200
C21	C2	0.079100	0.435300	0.307200
C31	C3	0.171200	0.541800	0.344600
C41	C4	0.266200	0.549400	0.333000
C51	C5	0.269300	0.457100	0.288600
C61	C6	0.165800	0.638800	0.396800
C71	C7	0.232900	0.686100	0.489800
C81	C8	0.174600	0.636400	0.541800
C91	C9	0.153600	0.527600	0.536600
C101	C10	0.092900	0.479100	0.579000
C111	C11	0.073700	0.631700	0.634400
C121	C12	0.133100	0.687700	0.592000
C131	C13	0.159600	0.924000	0.022200
C141	C14	0.261200	0.975000	0.013400
C151	C15	0.282800	0.918600	0.950000
C161	C16	0.203000	0.811400	0.895600
C171	C17	0.101300	0.760300	0.904400
C181	C18	0.079700	0.816700	0.967800
C191	C19	0.140600	0.988600	0.092600
C201	C20	0.020300	0.641500	0.846400
C211	C21	0.178100	0.918900	0.265200
C221	C22	0.228100	0.871900	0.307200
C231	C23	0.173400	0.802800	0.344600
C241	C24	0.066800	0.783600	0.333000
C251	C25	0.019300	0.831500	0.288600
C261	C26	0.231000	0.758000	0.396800
C271	C27	0.256900	0.803700	0.489800
C281	C28	0.367200	0.905400	0.541800
C291	C29	0.383000	0.009000	0.536600
C301	C30	0.486100	0.099900	0.579000
C311	C31	0.560700	0.002700	0.634400
C321	C32	0.458900	0.904300	0.592000
C331	C33	0.862600	0.098200	0.022200
C341	C34	0.752200	0.038400	0.013400
C351	C35	0.667200	0.031400	0.950000
C361	C36	0.692600	0.084200	0.895600
C371	C37	0.803100	0.144100	0.904400
C381	C38	0.888100	0.151100	0.967800
C391	C39	0.952000	0.104000	0.092600
C401	C40	0.826100	0.204900	0.846400
C411	C41	0.096300	0.337100	0.765200
C421	C42	0.185300	0.329100	0.807200
C431	C43	0.291800	0.421200	0.844600
C441	C44	0.299400	0.516200	0.833000
C451	C45	0.207100	0.519300	0.788600
C461	C46	0.388800	0.415800	0.896800
C471	C47	0.436100	0.482900	0.989800
C481	C48	0.386400	0.424600	0.041800
C491	C49	0.277600	0.403600	0.036600
C501	C50	0.229100	0.342900	0.079000
C511	C51	0.381700	0.323700	0.134400
C521	C52	0.437700	0.383100	0.092000
C531	C53	0.674000	0.409600	0.522200
C541	C54	0.725000	0.511200	0.513400
C551	C55	0.668600	0.532800	0.450000
C561	C56	0.561400	0.453000	0.395600
C571	C57	0.510300	0.351300	0.404400
C581	C58	0.566700	0.329700	0.467800
C591	C59	0.738600	0.390600	0.592600
C601	C60	0.391500	0.270300	0.346400
C611	C61	0.668900	0.428100	0.765200
C621	C62	0.621900	0.478100	0.807200
C631	C63	0.552800	0.423400	0.844600
C641	C64	0.533600	0.316800	0.833000
C651	C65	0.581500	0.269300	0.788600
C661	C66	0.508000	0.481000	0.896800
C671	C67	0.553700	0.506900	0.989800
C681	C68	0.655400	0.617200	0.041800
C691	C69	0.759000	0.633000	0.036600
C701	C70	0.849900	0.736100	0.079000
C711	C71	0.752700	0.810700	0.134400
C721	C72	0.654300	0.708900	0.092000
C731	C73	0.848200	0.112600	0.522200
C741	C74	0.788400	0.002200	0.513400
C751	C75	0.781400	0.917200	0.450000
C761	C76	0.834200	0.942600	0.395600
C771	C77	0.894100	0.053100	0.404400
C781	C78	0.901100	0.138100	0.467800
C791	C79	0.854000	0.202000	0.592600
C801	C80	0.954900	0.076100	0.346400
N11	N1	0.181100	0.354300	0.254200
N21	N2	0.054890	0.529290	0.627980
N31	N3	0.073100	0.899900	0.254200
N41	N4	0.573090	0.098690	0.627980
N51	N5	0.104300	0.431100	0.754200
N61	N6	0.279290	0.304890	0.127980
N71	N7	0.649900	0.323100	0.754200
N81	N8	0.848690	0.823090	0.127980
O11	O1	0.217100	0.084700	0.137200
O21	O2	0.050250	0.938050	0.100900
O31	O3	0.936370	0.586970	0.862140
O41	O4	0.043300	0.605900	0.785000
O51	O5	0.920100	0.052500	0.137200
O61	O6	0.050650	0.162850	0.100900
O71	O7	0.925770	0.275170	0.862140
O81	O8	0.741700	0.179100	0.785000
O91	O9	0.834700	0.467100	0.637200
O101	O10	0.688050	0.300250	0.600900
O111	O11	0.336970	0.186370	0.362140
O121	O12	0.355900	0.293300	0.285000
O131	O13	0.802500	0.170100	0.637200
O141	O14	0.912850	0.300650	0.600900
O151	O15	0.025170	0.175770	0.362140
O161	O16	0.929100	0.991700	0.285000
O171	O17	0.134100	0.134100	0.268200
O181	O18	0.884100	0.384100	0.768200
