data_KANDAG_clean_PM
_symmetry_space_group_name_H-M	'P1'
_cell_length_a	10.903000
_cell_length_b	10.960000
_cell_length_c	14.840000
_cell_angle_alpha	82.550000
_cell_angle_beta	85.610000
_cell_angle_gamma	88.790000
_symmetry_Int_Tables_number 1

loop_
_symmetry_equiv_pos_as_xyz
'x,y,z'

loop_
_atom_site_label
_atom_site_type_symbol
_atom_site_fract_x
_atom_site_fract_y
_atom_site_fract_z
Zn11	Zn1	0.449300	0.783830	0.394920
Zn21	Zn2	0.451290	0.821840	0.189070
O11	O1	0.636800	0.778500	0.407400
O21	O2	0.622200	0.798900	0.257100
O31	O3	0.280000	0.805200	0.327600
O41	O4	0.264700	0.832100	0.176400
O51	O5	0.455400	0.971000	0.366900
O61	O6	0.457000	0.999100	0.211500
O71	O7	0.443300	0.634700	0.217300
O81	O8	0.444500	0.606100	0.372100
N11	N1	0.346900	0.775600	0.518300
N21	N2	0.558600	0.828100	0.067500
F11	F1	0.189000	0.881100	0.829500
F21	F2	0.001900	0.900200	0.953400
C11	C1	0.822400	0.794200	0.309000
C21	C2	0.898000	0.782900	0.381900
H11	H1	0.863100	0.769800	0.441500
C31	C3	0.025200	0.791100	0.365400
H21	H2	0.074800	0.784200	0.414100
C41	C4	0.078800	0.809700	0.276400
C51	C5	0.001800	0.821400	0.201700
H31	H3	0.035500	0.835500	0.141800
C61	C6	0.876200	0.811200	0.220800
H41	H4	0.825800	0.816000	0.172600
C71	C7	0.683300	0.788100	0.326000
C81	C8	0.218300	0.815500	0.259000
C91	C9	0.450900	0.175600	0.290500
C101	C10	0.402100	0.224500	0.369300
H51	H5	0.371000	0.172400	0.420100
C111	C11	0.400900	0.352100	0.370400
H61	H6	0.371100	0.384600	0.422800
C121	C12	0.444500	0.431900	0.292900
C131	C13	0.493500	0.382100	0.215200
H71	H7	0.523500	0.434700	0.164400
C141	C14	0.497900	0.254400	0.212700
H81	H8	0.531100	0.222200	0.161000
C151	C15	0.454100	0.037800	0.289000
C161	C16	0.444200	0.568300	0.294100
C171	C17	0.319200	0.877400	0.555800
H91	H9	0.361900	0.948600	0.532800
C181	C18	0.230100	0.884000	0.627500
H101	H10	0.212300	0.957600	0.650900
C191	C19	0.168600	0.775600	0.662800
C201	C20	0.199400	0.667800	0.627300
H111	H11	0.160400	0.594800	0.651300
C211	C21	0.289600	0.669200	0.555000
H121	H12	0.311000	0.596300	0.531500
C221	C22	0.064900	0.780300	0.735400
C231	C23	0.948600	0.732100	0.725800
H131	H13	0.937300	0.693500	0.674800
C241	C24	0.849200	0.740500	0.790900
H141	H14	0.773500	0.707600	0.783000
C251	C25	0.865200	0.799900	0.869200
C261	C26	0.980400	0.847000	0.878800
C271	C27	0.078100	0.836600	0.812700
C281	C28	0.757900	0.812300	0.937100
C291	C29	0.679200	0.714400	0.963800
H151	H15	0.691400	0.641700	0.938100
C301	C30	0.582100	0.724600	0.028900
H161	H16	0.531400	0.657200	0.046500
C311	C31	0.632200	0.924400	0.040100
H171	H17	0.615400	0.997000	0.065300
C321	C32	0.733000	0.922100	0.975800
H181	H18	0.782000	0.990900	0.959100
Zn31	Zn3	0.550700	0.216170	0.605080
Zn41	Zn4	0.548710	0.178160	0.810930
O91	O9	0.363200	0.221500	0.592600
O101	O10	0.377800	0.201100	0.742900
O111	O11	0.720000	0.194800	0.672400
O121	O12	0.735300	0.167900	0.823600
O131	O13	0.544600	0.029000	0.633100
O141	O14	0.543000	0.000900	0.788500
O151	O15	0.556700	0.365300	0.782700
O161	O16	0.555500	0.393900	0.627900
N31	N3	0.653100	0.224400	0.481700
N41	N4	0.441400	0.171900	0.932500
F31	F3	0.811000	0.118900	0.170500
F41	F4	0.998100	0.099800	0.046600
C331	C33	0.177600	0.205800	0.691000
C341	C34	0.102000	0.217100	0.618100
H191	H19	0.136900	0.230200	0.558500
C351	C35	0.974800	0.208900	0.634600
H201	H20	0.925200	0.215800	0.585900
C361	C36	0.921200	0.190300	0.723600
C371	C37	0.998200	0.178600	0.798300
H211	H21	0.964500	0.164500	0.858200
C381	C38	0.123800	0.188800	0.779200
H221	H22	0.174200	0.184000	0.827400
C391	C39	0.316700	0.211900	0.674000
C401	C40	0.781700	0.184500	0.741000
C411	C41	0.549100	0.824400	0.709500
C421	C42	0.597900	0.775500	0.630700
H231	H23	0.629000	0.827600	0.579900
C431	C43	0.599100	0.647900	0.629600
H241	H24	0.628900	0.615400	0.577200
C441	C44	0.555500	0.568100	0.707100
C451	C45	0.506500	0.617900	0.784800
H251	H25	0.476500	0.565300	0.835600
C461	C46	0.502100	0.745600	0.787300
H261	H26	0.468900	0.777800	0.839000
C471	C47	0.545900	0.962200	0.711000
C481	C48	0.555800	0.431700	0.705900
C491	C49	0.680800	0.122600	0.444200
H271	H27	0.638100	0.051400	0.467200
C501	C50	0.769900	0.116000	0.372500
H281	H28	0.787700	0.042400	0.349100
C511	C51	0.831400	0.224400	0.337200
C521	C52	0.800600	0.332200	0.372700
H291	H29	0.839600	0.405200	0.348700
C531	C53	0.710400	0.330800	0.445000
H301	H30	0.689000	0.403700	0.468500
C541	C54	0.935100	0.219700	0.264600
C551	C55	0.051400	0.267900	0.274200
H311	H31	0.062700	0.306500	0.325200
C561	C56	0.150800	0.259500	0.209100
H321	H32	0.226500	0.292400	0.217000
C571	C57	0.134800	0.200100	0.130800
C581	C58	0.019600	0.153000	0.121200
C591	C59	0.921900	0.163400	0.187300
C601	C60	0.242100	0.187700	0.062900
C611	C61	0.320800	0.285600	0.036200
H331	H33	0.308600	0.358300	0.061900
C621	C62	0.417900	0.275400	0.971100
H341	H34	0.468600	0.342800	0.953500
C631	C63	0.367800	0.075600	0.959900
H351	H35	0.384600	0.003000	0.934700
C641	C64	0.267000	0.077900	0.024200
H361	H36	0.218000	0.009100	0.040900
