data_KANMIX_clean_PM
_symmetry_space_group_name_H-M	'P1'
_cell_length_a	13.456600
_cell_length_b	18.997500
_cell_length_c	18.997500
_cell_angle_alpha	120.000000
_cell_angle_beta	90.000000
_cell_angle_gamma	90.000000
_symmetry_Int_Tables_number 1

loop_
_symmetry_equiv_pos_as_xyz
'x,y,z'

loop_
_atom_site_label
_atom_site_type_symbol
_atom_site_fract_x
_atom_site_fract_y
_atom_site_fract_z
Cu11	Cu1	0.738740	0.622780	0.811390
Cu21	Cu2	0.906600	0.707320	0.853660
Cu31	Cu3	0.738740	0.188610	0.377220
Cu41	Cu4	0.906600	0.146340	0.292680
Cu51	Cu5	0.738740	0.188610	0.811390
Cu61	Cu6	0.906600	0.146340	0.853660
Cu71	Cu7	0.238740	0.377220	0.188610
Cu81	Cu8	0.406600	0.292680	0.146340
Cu91	Cu9	0.238740	0.811390	0.622780
Cu101	Cu10	0.406600	0.853660	0.707320
Cu111	Cu11	0.238740	0.811390	0.188610
Cu121	Cu12	0.406600	0.853660	0.146340
H11	H1	0.039400	0.591600	0.613400
H21	H2	0.571400	0.775100	0.755400
H31	H3	0.039400	0.021800	0.408400
H41	H4	0.571400	0.980300	0.224900
H51	H5	0.039400	0.386600	0.978200
H61	H6	0.571400	0.244600	0.019700
H71	H7	0.539400	0.408400	0.386600
H81	H8	0.071400	0.224900	0.244600
H91	H9	0.539400	0.978200	0.591600
H101	H10	0.071400	0.019700	0.775100
H111	H11	0.539400	0.613400	0.021800
H121	H12	0.071400	0.755400	0.980300
H131	H13	0.039400	0.021800	0.613400
H141	H14	0.571400	0.980300	0.755400
H151	H15	0.039400	0.386600	0.408400
H161	H16	0.571400	0.244600	0.224900
H171	H17	0.039400	0.591600	0.978200
H181	H18	0.571400	0.775100	0.019700
H191	H19	0.539400	0.978200	0.386600
H201	H20	0.071400	0.019700	0.244600
H211	H21	0.539400	0.613400	0.591600
H221	H22	0.071400	0.755400	0.775100
H231	H23	0.539400	0.408400	0.021800
H241	H24	0.071400	0.224900	0.980300
H251	H25	0.821000	0.431350	0.568650
H261	H26	0.821000	0.137300	0.568650
H271	H27	0.821000	0.431350	0.862700
H281	H28	0.321000	0.568650	0.431350
H291	H29	0.321000	0.862700	0.431350
H301	H30	0.321000	0.568650	0.137300
H311	H31	0.824900	0.899650	0.799300
H321	H32	0.824900	0.899650	0.100350
H331	H33	0.824900	0.200700	0.100350
H341	H34	0.324900	0.100350	0.200700
H351	H35	0.324900	0.100350	0.899650
H361	H36	0.324900	0.799300	0.899650
C11	C1	0.011300	0.540800	0.579700
C21	C2	0.930600	0.518000	0.607200
C31	C3	0.888200	0.571500	0.691000
C41	C4	0.605500	0.820500	0.761900
C51	C5	0.705900	0.826600	0.780100
C61	C6	0.755100	0.763800	0.792800
C71	C7	0.011300	0.038900	0.459200
C81	C8	0.930600	0.089200	0.482000
C91	C9	0.888200	0.119500	0.428500
C101	C10	0.605500	0.941400	0.179500
C111	C11	0.705900	0.953500	0.173400
C121	C12	0.755100	0.029000	0.236200
C131	C13	0.011300	0.420300	0.961100
C141	C14	0.930600	0.392800	0.910800
C151	C15	0.888200	0.309000	0.880500
C161	C16	0.605500	0.238100	0.058600
C171	C17	0.705900	0.219900	0.046500
C181	C18	0.755100	0.207200	0.971000
C191	C19	0.511300	0.459200	0.420300
C201	C20	0.430600	0.482000	0.392800
C211	C21	0.388200	0.428500	0.309000
C221	C22	0.105500	0.179500	0.238100
C231	C23	0.205900	0.173400	0.219900
C241	C24	0.255100	0.236200	0.207200
C251	C25	0.511300	0.961100	0.540800
C261	C26	0.430600	0.910800	0.518000
C271	C27	0.388200	0.880500	0.571500
C281	C28	0.105500	0.058600	0.820500
C291	C29	0.205900	0.046500	0.826600
C301	C30	0.255100	0.971000	0.763800
C311	C31	0.511300	0.579700	0.038900
C321	C32	0.430600	0.607200	0.089200
C331	C33	0.388200	0.691000	0.119500
C341	C34	0.105500	0.761900	0.941400
C351	C35	0.205900	0.780100	0.953500
C361	C36	0.255100	0.792800	0.029000
C371	C37	0.011300	0.038900	0.579700
C381	C38	0.930600	0.089200	0.607200
C391	C39	0.888200	0.119500	0.691000
C401	C40	0.605500	0.941400	0.761900
C411	C41	0.705900	0.953500	0.780100
C421	C42	0.755100	0.029000	0.792800
C431	C43	0.011300	0.420300	0.459200
C441	C44	0.930600	0.392800	0.482000
C451	C45	0.888200	0.309000	0.428500
C461	C46	0.605500	0.238100	0.179500
C471	C47	0.705900	0.219900	0.173400
C481	C48	0.755100	0.207200	0.236200
C491	C49	0.011300	0.540800	0.961100
C501	C50	0.930600	0.518000	0.910800
C511	C51	0.888200	0.571500	0.880500
C521	C52	0.605500	0.820500	0.058600
C531	C53	0.705900	0.826600	0.046500
C541	C54	0.755100	0.763800	0.971000
C551	C55	0.511300	0.961100	0.420300
C561	C56	0.430600	0.910800	0.392800
C571	C57	0.388200	0.880500	0.309000
C581	C58	0.105500	0.058600	0.238100
C591	C59	0.205900	0.046500	0.219900
C601	C60	0.255100	0.971000	0.207200
C611	C61	0.511300	0.579700	0.540800
C621	C62	0.430600	0.607200	0.518000
C631	C63	0.388200	0.691000	0.571500
C641	C64	0.105500	0.761900	0.820500
C651	C65	0.205900	0.780100	0.826600
C661	C66	0.255100	0.792800	0.763800
C671	C67	0.511300	0.459200	0.038900
C681	C68	0.430600	0.482000	0.089200
C691	C69	0.388200	0.428500	0.119500
C701	C70	0.105500	0.179500	0.941400
C711	C71	0.205900	0.173400	0.953500
C721	C72	0.255100	0.236200	0.029000
C731	C73	0.884400	0.444000	0.556000
C741	C74	0.884400	0.112000	0.556000
C751	C75	0.884400	0.444000	0.888000
C761	C76	0.384400	0.556000	0.444000
C771	C77	0.384400	0.888000	0.444000
C781	C78	0.384400	0.556000	0.112000
C791	C79	0.757100	0.894200	0.788400
C801	C80	0.757100	0.894200	0.105800
C811	C81	0.757100	0.211600	0.105800
C821	C82	0.257100	0.105800	0.211600
C831	C83	0.257100	0.105800	0.894200
C841	C84	0.257100	0.788400	0.894200
N11	N1	0.051400	0.493450	0.506550
N21	N2	0.051400	0.013100	0.506550
N31	N3	0.051400	0.493450	0.986900
N41	N4	0.551400	0.506550	0.493450
N51	N5	0.551400	0.986900	0.493450
N61	N6	0.551400	0.506550	0.013100
N71	N7	0.554500	0.876530	0.753060
N81	N8	0.554500	0.876530	0.123470
N91	N9	0.554500	0.246940	0.123470
N101	N10	0.054500	0.123470	0.246940
N111	N11	0.054500	0.123470	0.876530
N121	N12	0.054500	0.753060	0.876530
O11	O1	0.802400	0.555700	0.705700
O21	O2	0.942700	0.628900	0.741100
O31	O3	0.702300	0.703800	0.780400
O41	O4	0.843400	0.775800	0.815600
O51	O5	0.802400	0.150000	0.444300
O61	O6	0.942700	0.112200	0.371100
O71	O7	0.702300	0.076600	0.296200
O81	O8	0.843400	0.039800	0.224200
O91	O9	0.802400	0.294300	0.850000
O101	O10	0.942700	0.258900	0.887800
O111	O11	0.702300	0.219600	0.923400
O121	O12	0.843400	0.184400	0.960200
O131	O13	0.302400	0.444300	0.294300
O141	O14	0.442700	0.371100	0.258900
O151	O15	0.202300	0.296200	0.219600
O161	O16	0.343400	0.224200	0.184400
O171	O17	0.302400	0.850000	0.555700
O181	O18	0.442700	0.887800	0.628900
O191	O19	0.202300	0.923400	0.703800
O201	O20	0.343400	0.960200	0.775800
O211	O21	0.302400	0.705700	0.150000
O221	O22	0.442700	0.741100	0.112200
O231	O23	0.202300	0.780400	0.076600
O241	O24	0.343400	0.815600	0.039800
O251	O25	0.802400	0.150000	0.705700
O261	O26	0.942700	0.112200	0.741100
O271	O27	0.702300	0.076600	0.780400
O281	O28	0.843400	0.039800	0.815600
O291	O29	0.802400	0.294300	0.444300
O301	O30	0.942700	0.258900	0.371100
O311	O31	0.702300	0.219600	0.296200
O321	O32	0.843400	0.184400	0.224200
O331	O33	0.802400	0.555700	0.850000
O341	O34	0.942700	0.628900	0.887800
O351	O35	0.702300	0.703800	0.923400
O361	O36	0.843400	0.775800	0.960200
O371	O37	0.302400	0.850000	0.294300
O381	O38	0.442700	0.887800	0.258900
O391	O39	0.202300	0.923400	0.219600
O401	O40	0.343400	0.960200	0.184400
O411	O41	0.302400	0.705700	0.555700
O421	O42	0.442700	0.741100	0.628900
O431	O43	0.202300	0.780400	0.703800
O441	O44	0.343400	0.815600	0.775800
O451	O45	0.302400	0.444300	0.150000
O461	O46	0.442700	0.371100	0.112200
O471	O47	0.202300	0.296200	0.076600
O481	O48	0.343400	0.224200	0.039800
