data_KAPHAL_clean_PM
_symmetry_space_group_name_H-M	'P1'
_cell_length_a	8.304000
_cell_length_b	8.728000
_cell_length_c	9.177000
_cell_angle_alpha	95.590000
_cell_angle_beta	115.700000
_cell_angle_gamma	110.260000
_symmetry_Int_Tables_number 1

loop_
_symmetry_equiv_pos_as_xyz
'x,y,z'

loop_
_atom_site_label
_atom_site_type_symbol
_atom_site_fract_x
_atom_site_fract_y
_atom_site_fract_z
Ce11	Ce1	0.919620	0.991950	0.731790
Ce21	Ce2	0.080380	0.008050	0.268210
C11	C1	0.327900	0.995800	0.107500
C21	C2	0.453400	0.999900	0.032900
C31	C3	0.149000	0.445300	0.890200
C41	C4	0.330800	0.575400	0.039900
C51	C5	0.478100	0.674500	0.165700
C61	C6	0.655200	0.790000	0.323600
C71	C7	0.672100	0.004200	0.892500
C81	C8	0.546600	0.000100	0.967100
C91	C9	0.851000	0.554700	0.109800
C101	C10	0.669200	0.424600	0.960100
C111	C11	0.521900	0.325500	0.834300
C121	C12	0.344800	0.210000	0.676400
O11	O1	0.153600	0.975200	0.011100
O21	O2	0.394300	0.012200	0.262200
O31	O3	0.089400	0.297200	0.906100
O41	O4	0.071000	0.487300	0.762900
O51	O5	0.636700	0.802500	0.451000
O61	O6	0.810900	0.868800	0.322700
O71	O7	0.846400	0.024800	0.988900
O81	O8	0.605700	0.987800	0.737800
O91	O9	0.910600	0.702800	0.093900
O101	O10	0.929000	0.512700	0.237100
O111	O11	0.363300	0.197500	0.549000
O121	O12	0.189100	0.131200	0.677300
