data_KAPHUH_clean_PM
_symmetry_space_group_name_H-M	'P1'
_cell_length_a	16.039000
_cell_length_b	17.851000
_cell_length_c	11.558000
_cell_angle_alpha	90.000000
_cell_angle_beta	90.000000
_cell_angle_gamma	90.000000
_symmetry_Int_Tables_number 1

loop_
_symmetry_equiv_pos_as_xyz
'x,y,z'

loop_
_atom_site_label
_atom_site_type_symbol
_atom_site_fract_x
_atom_site_fract_y
_atom_site_fract_z
C11	C1	0.200100	0.392400	0.821500
C21	C2	0.460200	0.450600	0.255400
H11	H1	0.430110	0.414590	0.214970
C31	C3	0.459200	0.447600	0.371600
H21	H2	0.430110	0.408950	0.407520
C41	C4	0.443500	0.131900	0.255300
H31	H3	0.473360	0.095520	0.215390
C51	C5	0.449600	0.131600	0.371500
H41	H4	0.482890	0.096170	0.408070
C61	C6	0.407200	0.183200	0.435700
C71	C7	0.365800	0.236000	0.375000
H51	H5	0.339090	0.275000	0.413450
C81	C8	0.363100	0.232000	0.255900
H61	H6	0.334030	0.268870	0.215870
N11	N1	0.203100	0.391600	0.721700
N21	N2	0.400400	0.177700	0.194900
C91	C9	0.799900	0.607600	0.821500
C101	C10	0.539800	0.549400	0.255400
H71	H7	0.569890	0.585410	0.214970
C111	C11	0.540800	0.552400	0.371600
H81	H8	0.569890	0.591050	0.407520
C121	C12	0.556500	0.868100	0.255300
H91	H9	0.526640	0.904480	0.215390
C131	C13	0.550400	0.868400	0.371500
H101	H10	0.517110	0.903830	0.408070
C141	C14	0.592800	0.816800	0.435700
C151	C15	0.634200	0.764000	0.375000
H111	H11	0.660910	0.725000	0.413450
C161	C16	0.636900	0.768000	0.255900
H121	H12	0.665970	0.731130	0.215870
N31	N3	0.796900	0.608400	0.721700
N41	N4	0.599600	0.822300	0.194900
C171	C17	0.299900	0.892400	0.178500
C181	C18	0.039800	0.950600	0.744600
H131	H13	0.069890	0.914590	0.785030
C191	C19	0.040800	0.947600	0.628400
H141	H14	0.069890	0.908950	0.592480
C201	C20	0.056500	0.631900	0.744700
H151	H15	0.026640	0.595520	0.784610
C211	C21	0.050400	0.631600	0.628500
H161	H16	0.017110	0.596170	0.591930
C221	C22	0.092800	0.683200	0.564300
C231	C23	0.134200	0.736000	0.625000
H171	H17	0.160910	0.775000	0.586550
C241	C24	0.136900	0.732000	0.744100
H181	H18	0.165970	0.768870	0.784130
N51	N5	0.296900	0.891600	0.278300
N61	N6	0.099600	0.677700	0.805100
C251	C25	0.700100	0.107600	0.178500
C261	C26	0.960200	0.049400	0.744600
H191	H19	0.930110	0.085410	0.785030
C271	C27	0.959200	0.052400	0.628400
H201	H20	0.930110	0.091050	0.592480
C281	C28	0.943500	0.368100	0.744700
H211	H21	0.973360	0.404480	0.784610
C291	C29	0.949600	0.368400	0.628500
H221	H22	0.982890	0.403830	0.591930
C301	C30	0.907200	0.316800	0.564300
C311	C31	0.865800	0.264000	0.625000
H231	H23	0.839090	0.225000	0.586550
C321	C32	0.863100	0.268000	0.744100
H241	H24	0.834030	0.231130	0.784130
N71	N7	0.703100	0.108400	0.278300
N81	N8	0.900400	0.322300	0.805100
C331	C33	0.799900	0.607600	0.178500
C341	C34	0.539800	0.549400	0.744600
H251	H25	0.569890	0.585410	0.785030
C351	C35	0.540800	0.552400	0.628400
H261	H26	0.569890	0.591050	0.592480
C361	C36	0.556500	0.868100	0.744700
H271	H27	0.526640	0.904480	0.784610
C371	C37	0.550400	0.868400	0.628500
H281	H28	0.517110	0.903830	0.591930
C381	C38	0.592800	0.816800	0.564300
C391	C39	0.634200	0.764000	0.625000
H291	H29	0.660910	0.725000	0.586550
C401	C40	0.636900	0.768000	0.744100
H301	H30	0.665970	0.731130	0.784130
N91	N9	0.796900	0.608400	0.278300
N101	N10	0.599600	0.822300	0.805100
C411	C41	0.200100	0.392400	0.178500
C421	C42	0.460200	0.450600	0.744600
H311	H31	0.430110	0.414590	0.785030
C431	C43	0.459200	0.447600	0.628400
H321	H32	0.430110	0.408950	0.592480
C441	C44	0.443500	0.131900	0.744700
H331	H33	0.473360	0.095520	0.784610
C451	C45	0.449600	0.131600	0.628500
H341	H34	0.482890	0.096170	0.591930
C461	C46	0.407200	0.183200	0.564300
C471	C47	0.365800	0.236000	0.625000
H351	H35	0.339090	0.275000	0.586550
C481	C48	0.363100	0.232000	0.744100
H361	H36	0.334030	0.268870	0.784130
N111	N11	0.203100	0.391600	0.278300
N121	N12	0.400400	0.177700	0.805100
C491	C49	0.700100	0.107600	0.821500
C501	C50	0.960200	0.049400	0.255400
H371	H37	0.930110	0.085410	0.214970
C511	C51	0.959200	0.052400	0.371600
H381	H38	0.930110	0.091050	0.407520
C521	C52	0.943500	0.368100	0.255300
H391	H39	0.973360	0.404480	0.215390
C531	C53	0.949600	0.368400	0.371500
H401	H40	0.982890	0.403830	0.408070
C541	C54	0.907200	0.316800	0.435700
C551	C55	0.865800	0.264000	0.375000
H411	H41	0.839090	0.225000	0.413450
C561	C56	0.863100	0.268000	0.255900
H421	H42	0.834030	0.231130	0.215870
N131	N13	0.703100	0.108400	0.721700
N141	N14	0.900400	0.322300	0.194900
C571	C57	0.299900	0.892400	0.821500
C581	C58	0.039800	0.950600	0.255400
H431	H43	0.069890	0.914590	0.214970
C591	C59	0.040800	0.947600	0.371600
H441	H44	0.069890	0.908950	0.407520
C601	C60	0.056500	0.631900	0.255300
H451	H45	0.026640	0.595520	0.215390
C611	C61	0.050400	0.631600	0.371500
H461	H46	0.017110	0.596170	0.408070
C621	C62	0.092800	0.683200	0.435700
C631	C63	0.134200	0.736000	0.375000
H471	H47	0.160910	0.775000	0.413450
C641	C64	0.136900	0.732000	0.255900
H481	H48	0.165970	0.768870	0.215870
N151	N15	0.296900	0.891600	0.721700
N161	N16	0.099600	0.677700	0.194900
C651	C65	0.085900	0.348300	0.000000
C661	C66	0.156900	0.498200	0.000000
C671	C67	0.251900	0.289500	0.000000
C681	C68	0.315900	0.431600	0.000000
N171	N17	0.020200	0.322000	0.000000
N181	N18	0.130800	0.557100	0.000000
N191	N19	0.293300	0.235600	0.000000
N201	N20	0.381900	0.447200	0.000000
Mn11	Mn1	0.199650	0.390830	0.000000
Mn21	Mn2	0.393210	0.168580	0.000000
C691	C69	0.914100	0.651700	0.000000
C701	C70	0.843100	0.501800	0.000000
C711	C71	0.748100	0.710500	0.000000
C721	C72	0.684100	0.568400	0.000000
N211	N21	0.979800	0.678000	0.000000
N221	N22	0.869200	0.442900	0.000000
N231	N23	0.706700	0.764400	0.000000
N241	N24	0.618100	0.552800	0.000000
Mn31	Mn3	0.800350	0.609170	0.000000
Mn41	Mn4	0.606790	0.831420	0.000000
C731	C73	0.414100	0.848300	0.000000
C741	C74	0.343100	0.998200	0.000000
C751	C75	0.248100	0.789500	0.000000
C761	C76	0.184100	0.931600	0.000000
N251	N25	0.479800	0.822000	0.000000
N261	N26	0.369200	0.057100	0.000000
N271	N27	0.206700	0.735600	0.000000
N281	N28	0.118100	0.947200	0.000000
Mn51	Mn5	0.300350	0.890830	0.000000
Mn61	Mn6	0.106790	0.668580	0.000000
C771	C77	0.585900	0.151700	0.000000
C781	C78	0.656900	0.001800	0.000000
C791	C79	0.751900	0.210500	0.000000
C801	C80	0.815900	0.068400	0.000000
N291	N29	0.520200	0.178000	0.000000
N301	N30	0.630800	0.942900	0.000000
N311	N31	0.793300	0.264400	0.000000
N321	N32	0.881900	0.052800	0.000000
Mn71	Mn7	0.699650	0.109170	0.000000
Mn81	Mn8	0.893210	0.331420	0.000000
C811	C81	0.500000	0.500000	0.440200
N331	N33	0.500000	0.500000	0.196800
C821	C82	0.000000	0.000000	0.559800
N341	N34	0.000000	0.000000	0.803200
C831	C83	0.500000	0.500000	0.559800
N351	N35	0.500000	0.500000	0.803200
C841	C84	0.000000	0.000000	0.440200
N361	N36	0.000000	0.000000	0.196800
Mn91	Mn9	0.500000	0.500000	0.000000
Mn101	Mn10	0.000000	0.000000	0.000000
