data_KARNID_clean_PM
_symmetry_space_group_name_H-M	'P1'
_cell_length_a	30.641100
_cell_length_b	30.641100
_cell_length_c	22.961400
_cell_angle_alpha	90.000000
_cell_angle_beta	90.000000
_cell_angle_gamma	90.000000
_symmetry_Int_Tables_number 1

loop_
_symmetry_equiv_pos_as_xyz
'x,y,z'

loop_
_atom_site_label
_atom_site_type_symbol
_atom_site_fract_x
_atom_site_fract_y
_atom_site_fract_z
C11	C1	0.301070	0.081930	0.136000
C21	C2	0.340400	0.088580	0.165000
H11	H1	0.366800	0.076900	0.150000
C31	C3	0.340160	0.112840	0.216700
C41	C4	0.301480	0.129130	0.238500
H21	H2	0.301600	0.146200	0.273100
C51	C5	0.261770	0.120570	0.209800
C61	C6	0.261870	0.096580	0.158700
H31	H3	0.235200	0.090200	0.139400
C71	C7	0.301430	0.053550	0.081030
C81	C8	0.220140	0.134200	0.238400
C91	C9	0.179610	0.039330	0.374300
C101	C10	0.207980	0.039260	0.422600
H41	H4	0.217700	0.066100	0.438800
C111	C11	0.166730	0.081610	0.346100
O11	O1	0.337940	0.043980	0.060690
O21	O2	0.265260	0.044020	0.060770
O31	O3	0.222490	0.157890	0.282430
O41	O4	0.185340	0.121360	0.213520
O51	O5	0.180300	0.115850	0.369240
O61	O6	0.142870	0.078900	0.302200
C121	C12	0.801070	0.581930	0.636000
C131	C13	0.840400	0.588580	0.665000
H51	H5	0.866800	0.576900	0.650000
C141	C14	0.840160	0.612840	0.716700
C151	C15	0.801480	0.629130	0.738500
H61	H6	0.801600	0.646200	0.773100
C161	C16	0.761770	0.620570	0.709800
C171	C17	0.761870	0.596580	0.658700
H71	H7	0.735200	0.590200	0.639400
C181	C18	0.801430	0.553550	0.581030
C191	C19	0.720140	0.634200	0.738400
C201	C20	0.679610	0.539330	0.874300
C211	C21	0.707980	0.539260	0.922600
H81	H8	0.717700	0.566100	0.938800
C221	C22	0.666730	0.581610	0.846100
O71	O7	0.837940	0.543980	0.560690
O81	O8	0.765260	0.544020	0.560770
O91	O9	0.722490	0.657890	0.782430
O101	O10	0.685340	0.621360	0.713520
O111	O11	0.680300	0.615850	0.869240
O121	O12	0.642870	0.578900	0.802200
C231	C23	0.698930	0.918070	0.136000
C241	C24	0.659600	0.911420	0.165000
H91	H9	0.633200	0.923100	0.150000
C251	C25	0.659840	0.887160	0.216700
C261	C26	0.698520	0.870870	0.238500
H101	H10	0.698400	0.853800	0.273100
C271	C27	0.738230	0.879430	0.209800
C281	C28	0.738130	0.903420	0.158700
H111	H11	0.764800	0.909800	0.139400
C291	C29	0.698570	0.946450	0.081030
C301	C30	0.779860	0.865800	0.238400
C311	C31	0.820390	0.960670	0.374300
C321	C32	0.792020	0.960740	0.422600
H121	H12	0.782300	0.933900	0.438800
C331	C33	0.833270	0.918390	0.346100
O131	O13	0.662060	0.956020	0.060690
O141	O14	0.734740	0.955980	0.060770
O151	O15	0.777510	0.842110	0.282430
O161	O16	0.814660	0.878640	0.213520
O171	O17	0.819700	0.884150	0.369240
O181	O18	0.857130	0.921100	0.302200
C341	C34	0.198930	0.418070	0.636000
C351	C35	0.159600	0.411420	0.665000
H131	H13	0.133200	0.423100	0.650000
C361	C36	0.159840	0.387160	0.716700
C371	C37	0.198520	0.370870	0.738500
H141	H14	0.198400	0.353800	0.773100
C381	C38	0.238230	0.379430	0.709800
C391	C39	0.238130	0.403420	0.658700
H151	H15	0.264800	0.409800	0.639400
C401	C40	0.198570	0.446450	0.581030
C411	C41	0.279860	0.365800	0.738400
C421	C42	0.320390	0.460670	0.874300
C431	C43	0.292020	0.460740	0.922600
H161	H16	0.282300	0.433900	0.938800
C441	C44	0.333270	0.418390	0.846100
O191	O19	0.162060	0.456020	0.560690
O201	O20	0.234740	0.455980	0.560770
O211	O21	0.277510	0.342110	0.782430
O221	O22	0.314660	0.378640	0.713520
O231	O23	0.319700	0.384150	0.869240
O241	O24	0.357130	0.421100	0.802200
C451	C45	0.918070	0.301070	0.136000
C461	C46	0.911420	0.340400	0.165000
H171	H17	0.923100	0.366800	0.150000
C471	C47	0.887160	0.340160	0.216700
C481	C48	0.870870	0.301480	0.238500
H181	H18	0.853800	0.301600	0.273100
C491	C49	0.879430	0.261770	0.209800
C501	C50	0.903420	0.261870	0.158700
H191	H19	0.909800	0.235200	0.139400
C511	C51	0.946450	0.301430	0.081030
C521	C52	0.865800	0.220140	0.238400
C531	C53	0.960670	0.179610	0.374300
C541	C54	0.960740	0.207980	0.422600
H201	H20	0.933900	0.217700	0.438800
C551	C55	0.918390	0.166730	0.346100
O251	O25	0.956020	0.337940	0.060690
O261	O26	0.955980	0.265260	0.060770
O271	O27	0.842110	0.222490	0.282430
O281	O28	0.878640	0.185340	0.213520
O291	O29	0.884150	0.180300	0.369240
O301	O30	0.921100	0.142870	0.302200
C561	C56	0.418070	0.801070	0.636000
C571	C57	0.411420	0.840400	0.665000
H211	H21	0.423100	0.866800	0.650000
C581	C58	0.387160	0.840160	0.716700
C591	C59	0.370870	0.801480	0.738500
H221	H22	0.353800	0.801600	0.773100
C601	C60	0.379430	0.761770	0.709800
C611	C61	0.403420	0.761870	0.658700
H231	H23	0.409800	0.735200	0.639400
C621	C62	0.446450	0.801430	0.581030
C631	C63	0.365800	0.720140	0.738400
C641	C64	0.460670	0.679610	0.874300
C651	C65	0.460740	0.707980	0.922600
H241	H24	0.433900	0.717700	0.938800
C661	C66	0.418390	0.666730	0.846100
O311	O31	0.456020	0.837940	0.560690
O321	O32	0.455980	0.765260	0.560770
O331	O33	0.342110	0.722490	0.782430
O341	O34	0.378640	0.685340	0.713520
O351	O35	0.384150	0.680300	0.869240
O361	O36	0.421100	0.642870	0.802200
C671	C67	0.081930	0.698930	0.136000
C681	C68	0.088580	0.659600	0.165000
H251	H25	0.076900	0.633200	0.150000
C691	C69	0.112840	0.659840	0.216700
C701	C70	0.129130	0.698520	0.238500
H261	H26	0.146200	0.698400	0.273100
C711	C71	0.120570	0.738230	0.209800
C721	C72	0.096580	0.738130	0.158700
H271	H27	0.090200	0.764800	0.139400
C731	C73	0.053550	0.698570	0.081030
C741	C74	0.134200	0.779860	0.238400
C751	C75	0.039330	0.820390	0.374300
C761	C76	0.039260	0.792020	0.422600
H281	H28	0.066100	0.782300	0.438800
C771	C77	0.081610	0.833270	0.346100
O371	O37	0.043980	0.662060	0.060690
O381	O38	0.044020	0.734740	0.060770
O391	O39	0.157890	0.777510	0.282430
O401	O40	0.121360	0.814660	0.213520
O411	O41	0.115850	0.819700	0.369240
O421	O42	0.078900	0.857130	0.302200
C781	C78	0.581930	0.198930	0.636000
C791	C79	0.588580	0.159600	0.665000
H291	H29	0.576900	0.133200	0.650000
C801	C80	0.612840	0.159840	0.716700
C811	C81	0.629130	0.198520	0.738500
H301	H30	0.646200	0.198400	0.773100
C821	C82	0.620570	0.238230	0.709800
C831	C83	0.596580	0.238130	0.658700
H311	H31	0.590200	0.264800	0.639400
C841	C84	0.553550	0.198570	0.581030
C851	C85	0.634200	0.279860	0.738400
C861	C86	0.539330	0.320390	0.874300
C871	C87	0.539260	0.292020	0.922600
H321	H32	0.566100	0.282300	0.938800
C881	C88	0.581610	0.333270	0.846100
O431	O43	0.543980	0.162060	0.560690
O441	O44	0.544020	0.234740	0.560770
O451	O45	0.657890	0.277510	0.782430
O461	O46	0.621360	0.314660	0.713520
O471	O47	0.615850	0.319700	0.869240
O481	O48	0.578900	0.357130	0.802200
C891	C89	0.698930	0.081930	0.864000
C901	C90	0.659600	0.088580	0.835000
H331	H33	0.633200	0.076900	0.850000
C911	C91	0.659840	0.112840	0.783300
C921	C92	0.698520	0.129130	0.761500
H341	H34	0.698400	0.146200	0.726900
C931	C93	0.738230	0.120570	0.790200
C941	C94	0.738130	0.096580	0.841300
H351	H35	0.764800	0.090200	0.860600
C951	C95	0.698570	0.053550	0.918970
C961	C96	0.779860	0.134200	0.761600
C971	C97	0.820390	0.039330	0.625700
C981	C98	0.792020	0.039260	0.577400
H361	H36	0.782300	0.066100	0.561200
C991	C99	0.833270	0.081610	0.653900
O491	O49	0.662060	0.043980	0.939310
O501	O50	0.734740	0.044020	0.939230
O511	O51	0.777510	0.157890	0.717570
O521	O52	0.814660	0.121360	0.786480
O531	O53	0.819700	0.115850	0.630760
O541	O54	0.857130	0.078900	0.697800
C1001	C100	0.198930	0.581930	0.364000
C1011	C101	0.159600	0.588580	0.335000
H371	H37	0.133200	0.576900	0.350000
C1021	C102	0.159840	0.612840	0.283300
C1031	C103	0.198520	0.629130	0.261500
H381	H38	0.198400	0.646200	0.226900
C1041	C104	0.238230	0.620570	0.290200
C1051	C105	0.238130	0.596580	0.341300
H391	H39	0.264800	0.590200	0.360600
C1061	C106	0.198570	0.553550	0.418970
C1071	C107	0.279860	0.634200	0.261600
C1081	C108	0.320390	0.539330	0.125700
C1091	C109	0.292020	0.539260	0.077400
H401	H40	0.282300	0.566100	0.061200
C1101	C110	0.333270	0.581610	0.153900
O551	O55	0.162060	0.543980	0.439310
O561	O56	0.234740	0.544020	0.439230
O571	O57	0.277510	0.657890	0.217570
O581	O58	0.314660	0.621360	0.286480
O591	O59	0.319700	0.615850	0.130760
O601	O60	0.357130	0.578900	0.197800
C1111	C111	0.301070	0.918070	0.864000
C1121	C112	0.340400	0.911420	0.835000
H411	H41	0.366800	0.923100	0.850000
C1131	C113	0.340160	0.887160	0.783300
C1141	C114	0.301480	0.870870	0.761500
H421	H42	0.301600	0.853800	0.726900
C1151	C115	0.261770	0.879430	0.790200
C1161	C116	0.261870	0.903420	0.841300
H431	H43	0.235200	0.909800	0.860600
C1171	C117	0.301430	0.946450	0.918970
C1181	C118	0.220140	0.865800	0.761600
C1191	C119	0.179610	0.960670	0.625700
C1201	C120	0.207980	0.960740	0.577400
H441	H44	0.217700	0.933900	0.561200
C1211	C121	0.166730	0.918390	0.653900
O611	O61	0.337940	0.956020	0.939310
O621	O62	0.265260	0.955980	0.939230
O631	O63	0.222490	0.842110	0.717570
O641	O64	0.185340	0.878640	0.786480
O651	O65	0.180300	0.884150	0.630760
O661	O66	0.142870	0.921100	0.697800
C1221	C122	0.801070	0.418070	0.364000
C1231	C123	0.840400	0.411420	0.335000
H451	H45	0.866800	0.423100	0.350000
C1241	C124	0.840160	0.387160	0.283300
C1251	C125	0.801480	0.370870	0.261500
H461	H46	0.801600	0.353800	0.226900
C1261	C126	0.761770	0.379430	0.290200
C1271	C127	0.761870	0.403420	0.341300
H471	H47	0.735200	0.409800	0.360600
C1281	C128	0.801430	0.446450	0.418970
C1291	C129	0.720140	0.365800	0.261600
C1301	C130	0.679610	0.460670	0.125700
C1311	C131	0.707980	0.460740	0.077400
H481	H48	0.717700	0.433900	0.061200
C1321	C132	0.666730	0.418390	0.153900
O671	O67	0.837940	0.456020	0.439310
O681	O68	0.765260	0.455980	0.439230
O691	O69	0.722490	0.342110	0.217570
O701	O70	0.685340	0.378640	0.286480
O711	O71	0.680300	0.384150	0.130760
O721	O72	0.642870	0.421100	0.197800
C1331	C133	0.081930	0.301070	0.864000
C1341	C134	0.088580	0.340400	0.835000
H491	H49	0.076900	0.366800	0.850000
C1351	C135	0.112840	0.340160	0.783300
C1361	C136	0.129130	0.301480	0.761500
H501	H50	0.146200	0.301600	0.726900
C1371	C137	0.120570	0.261770	0.790200
C1381	C138	0.096580	0.261870	0.841300
H511	H51	0.090200	0.235200	0.860600
C1391	C139	0.053550	0.301430	0.918970
C1401	C140	0.134200	0.220140	0.761600
C1411	C141	0.039330	0.179610	0.625700
C1421	C142	0.039260	0.207980	0.577400
H521	H52	0.066100	0.217700	0.561200
C1431	C143	0.081610	0.166730	0.653900
O731	O73	0.043980	0.337940	0.939310
O741	O74	0.044020	0.265260	0.939230
O751	O75	0.157890	0.222490	0.717570
O761	O76	0.121360	0.185340	0.786480
O771	O77	0.115850	0.180300	0.630760
O781	O78	0.078900	0.142870	0.697800
C1441	C144	0.581930	0.801070	0.364000
C1451	C145	0.588580	0.840400	0.335000
H531	H53	0.576900	0.866800	0.350000
C1461	C146	0.612840	0.840160	0.283300
C1471	C147	0.629130	0.801480	0.261500
H541	H54	0.646200	0.801600	0.226900
C1481	C148	0.620570	0.761770	0.290200
C1491	C149	0.596580	0.761870	0.341300
H551	H55	0.590200	0.735200	0.360600
C1501	C150	0.553550	0.801430	0.418970
C1511	C151	0.634200	0.720140	0.261600
C1521	C152	0.539330	0.679610	0.125700
C1531	C153	0.539260	0.707980	0.077400
H561	H56	0.566100	0.717700	0.061200
C1541	C154	0.581610	0.666730	0.153900
O791	O79	0.543980	0.837940	0.439310
O801	O80	0.544020	0.765260	0.439230
O811	O81	0.657890	0.722490	0.217570
O821	O82	0.621360	0.685340	0.286480
O831	O83	0.615850	0.680300	0.130760
O841	O84	0.578900	0.642870	0.197800
C1551	C155	0.918070	0.698930	0.864000
C1561	C156	0.911420	0.659600	0.835000
H571	H57	0.923100	0.633200	0.850000
C1571	C157	0.887160	0.659840	0.783300
C1581	C158	0.870870	0.698520	0.761500
H581	H58	0.853800	0.698400	0.726900
C1591	C159	0.879430	0.738230	0.790200
C1601	C160	0.903420	0.738130	0.841300
H591	H59	0.909800	0.764800	0.860600
C1611	C161	0.946450	0.698570	0.918970
C1621	C162	0.865800	0.779860	0.761600
C1631	C163	0.960670	0.820390	0.625700
C1641	C164	0.960740	0.792020	0.577400
H601	H60	0.933900	0.782300	0.561200
C1651	C165	0.918390	0.833270	0.653900
O851	O85	0.956020	0.662060	0.939310
O861	O86	0.955980	0.734740	0.939230
O871	O87	0.842110	0.777510	0.717570
O881	O88	0.878640	0.814660	0.786480
O891	O89	0.884150	0.819700	0.630760
O901	O90	0.921100	0.857130	0.697800
C1661	C166	0.418070	0.198930	0.364000
C1671	C167	0.411420	0.159600	0.335000
H611	H61	0.423100	0.133200	0.350000
C1681	C168	0.387160	0.159840	0.283300
C1691	C169	0.370870	0.198520	0.261500
H621	H62	0.353800	0.198400	0.226900
C1701	C170	0.379430	0.238230	0.290200
C1711	C171	0.403420	0.238130	0.341300
H631	H63	0.409800	0.264800	0.360600
C1721	C172	0.446450	0.198570	0.418970
C1731	C173	0.365800	0.279860	0.261600
C1741	C174	0.460670	0.320390	0.125700
C1751	C175	0.460740	0.292020	0.077400
H641	H64	0.433900	0.282300	0.061200
C1761	C176	0.418390	0.333270	0.153900
O911	O91	0.456020	0.162060	0.439310
O921	O92	0.455980	0.234740	0.439230
O931	O93	0.342110	0.277510	0.217570
O941	O94	0.378640	0.314660	0.286480
O951	O95	0.384150	0.319700	0.130760
O961	O96	0.421100	0.357130	0.197800
C1771	C177	0.698930	0.918070	0.864000
C1781	C178	0.659600	0.911420	0.835000
H651	H65	0.633200	0.923100	0.850000
C1791	C179	0.659840	0.887160	0.783300
C1801	C180	0.698520	0.870870	0.761500
H661	H66	0.698400	0.853800	0.726900
C1811	C181	0.738230	0.879430	0.790200
C1821	C182	0.738130	0.903420	0.841300
H671	H67	0.764800	0.909800	0.860600
C1831	C183	0.698570	0.946450	0.918970
C1841	C184	0.779860	0.865800	0.761600
C1851	C185	0.820390	0.960670	0.625700
C1861	C186	0.792020	0.960740	0.577400
H681	H68	0.782300	0.933900	0.561200
C1871	C187	0.833270	0.918390	0.653900
O971	O97	0.662060	0.956020	0.939310
O981	O98	0.734740	0.955980	0.939230
O991	O99	0.777510	0.842110	0.717570
O1001	O100	0.814660	0.878640	0.786480
O1011	O101	0.819700	0.884150	0.630760
O1021	O102	0.857130	0.921100	0.697800
C1881	C188	0.198930	0.418070	0.364000
C1891	C189	0.159600	0.411420	0.335000
H691	H69	0.133200	0.423100	0.350000
C1901	C190	0.159840	0.387160	0.283300
C1911	C191	0.198520	0.370870	0.261500
H701	H70	0.198400	0.353800	0.226900
C1921	C192	0.238230	0.379430	0.290200
C1931	C193	0.238130	0.403420	0.341300
H711	H71	0.264800	0.409800	0.360600
C1941	C194	0.198570	0.446450	0.418970
C1951	C195	0.279860	0.365800	0.261600
C1961	C196	0.320390	0.460670	0.125700
C1971	C197	0.292020	0.460740	0.077400
H721	H72	0.282300	0.433900	0.061200
C1981	C198	0.333270	0.418390	0.153900
O1031	O103	0.162060	0.456020	0.439310
O1041	O104	0.234740	0.455980	0.439230
O1051	O105	0.277510	0.342110	0.217570
O1061	O106	0.314660	0.378640	0.286480
O1071	O107	0.319700	0.384150	0.130760
O1081	O108	0.357130	0.421100	0.197800
C1991	C199	0.301070	0.081930	0.864000
C2001	C200	0.340400	0.088580	0.835000
H731	H73	0.366800	0.076900	0.850000
C2011	C201	0.340160	0.112840	0.783300
C2021	C202	0.301480	0.129130	0.761500
H741	H74	0.301600	0.146200	0.726900
C2031	C203	0.261770	0.120570	0.790200
C2041	C204	0.261870	0.096580	0.841300
H751	H75	0.235200	0.090200	0.860600
C2051	C205	0.301430	0.053550	0.918970
C2061	C206	0.220140	0.134200	0.761600
C2071	C207	0.179610	0.039330	0.625700
C2081	C208	0.207980	0.039260	0.577400
H761	H76	0.217700	0.066100	0.561200
C2091	C209	0.166730	0.081610	0.653900
O1091	O109	0.337940	0.043980	0.939310
O1101	O110	0.265260	0.044020	0.939230
O1111	O111	0.222490	0.157890	0.717570
O1121	O112	0.185340	0.121360	0.786480
O1131	O113	0.180300	0.115850	0.630760
O1141	O114	0.142870	0.078900	0.697800
C2101	C210	0.801070	0.581930	0.364000
C2111	C211	0.840400	0.588580	0.335000
H771	H77	0.866800	0.576900	0.350000
C2121	C212	0.840160	0.612840	0.283300
C2131	C213	0.801480	0.629130	0.261500
H781	H78	0.801600	0.646200	0.226900
C2141	C214	0.761770	0.620570	0.290200
C2151	C215	0.761870	0.596580	0.341300
H791	H79	0.735200	0.590200	0.360600
C2161	C216	0.801430	0.553550	0.418970
C2171	C217	0.720140	0.634200	0.261600
C2181	C218	0.679610	0.539330	0.125700
C2191	C219	0.707980	0.539260	0.077400
H801	H80	0.717700	0.566100	0.061200
C2201	C220	0.666730	0.581610	0.153900
O1151	O115	0.837940	0.543980	0.439310
O1161	O116	0.765260	0.544020	0.439230
O1171	O117	0.722490	0.657890	0.217570
O1181	O118	0.685340	0.621360	0.286480
O1191	O119	0.680300	0.615850	0.130760
O1201	O120	0.642870	0.578900	0.197800
C2211	C221	0.081930	0.698930	0.864000
C2221	C222	0.088580	0.659600	0.835000
H811	H81	0.076900	0.633200	0.850000
C2231	C223	0.112840	0.659840	0.783300
C2241	C224	0.129130	0.698520	0.761500
H821	H82	0.146200	0.698400	0.726900
C2251	C225	0.120570	0.738230	0.790200
C2261	C226	0.096580	0.738130	0.841300
H831	H83	0.090200	0.764800	0.860600
C2271	C227	0.053550	0.698570	0.918970
C2281	C228	0.134200	0.779860	0.761600
C2291	C229	0.039330	0.820390	0.625700
C2301	C230	0.039260	0.792020	0.577400
H841	H84	0.066100	0.782300	0.561200
C2311	C231	0.081610	0.833270	0.653900
O1211	O121	0.043980	0.662060	0.939310
O1221	O122	0.044020	0.734740	0.939230
O1231	O123	0.157890	0.777510	0.717570
O1241	O124	0.121360	0.814660	0.786480
O1251	O125	0.115850	0.819700	0.630760
O1261	O126	0.078900	0.857130	0.697800
C2321	C232	0.581930	0.198930	0.364000
C2331	C233	0.588580	0.159600	0.335000
H851	H85	0.576900	0.133200	0.350000
C2341	C234	0.612840	0.159840	0.283300
C2351	C235	0.629130	0.198520	0.261500
H861	H86	0.646200	0.198400	0.226900
C2361	C236	0.620570	0.238230	0.290200
C2371	C237	0.596580	0.238130	0.341300
H871	H87	0.590200	0.264800	0.360600
C2381	C238	0.553550	0.198570	0.418970
C2391	C239	0.634200	0.279860	0.261600
C2401	C240	0.539330	0.320390	0.125700
C2411	C241	0.539260	0.292020	0.077400
H881	H88	0.566100	0.282300	0.061200
C2421	C242	0.581610	0.333270	0.153900
O1271	O127	0.543980	0.162060	0.439310
O1281	O128	0.544020	0.234740	0.439230
O1291	O129	0.657890	0.277510	0.217570
O1301	O130	0.621360	0.314660	0.286480
O1311	O131	0.615850	0.319700	0.130760
O1321	O132	0.578900	0.357130	0.197800
C2431	C243	0.918070	0.301070	0.864000
C2441	C244	0.911420	0.340400	0.835000
H891	H89	0.923100	0.366800	0.850000
C2451	C245	0.887160	0.340160	0.783300
C2461	C246	0.870870	0.301480	0.761500
H901	H90	0.853800	0.301600	0.726900
C2471	C247	0.879430	0.261770	0.790200
C2481	C248	0.903420	0.261870	0.841300
H911	H91	0.909800	0.235200	0.860600
C2491	C249	0.946450	0.301430	0.918970
C2501	C250	0.865800	0.220140	0.761600
C2511	C251	0.960670	0.179610	0.625700
C2521	C252	0.960740	0.207980	0.577400
H921	H92	0.933900	0.217700	0.561200
C2531	C253	0.918390	0.166730	0.653900
O1331	O133	0.956020	0.337940	0.939310
O1341	O134	0.955980	0.265260	0.939230
O1351	O135	0.842110	0.222490	0.717570
O1361	O136	0.878640	0.185340	0.786480
O1371	O137	0.884150	0.180300	0.630760
O1381	O138	0.921100	0.142870	0.697800
C2541	C254	0.418070	0.801070	0.364000
C2551	C255	0.411420	0.840400	0.335000
H931	H93	0.423100	0.866800	0.350000
C2561	C256	0.387160	0.840160	0.283300
C2571	C257	0.370870	0.801480	0.261500
H941	H94	0.353800	0.801600	0.226900
C2581	C258	0.379430	0.761770	0.290200
C2591	C259	0.403420	0.761870	0.341300
H951	H95	0.409800	0.735200	0.360600
C2601	C260	0.446450	0.801430	0.418970
C2611	C261	0.365800	0.720140	0.261600
C2621	C262	0.460670	0.679610	0.125700
C2631	C263	0.460740	0.707980	0.077400
H961	H96	0.433900	0.717700	0.061200
C2641	C264	0.418390	0.666730	0.153900
O1391	O139	0.456020	0.837940	0.439310
O1401	O140	0.455980	0.765260	0.439230
O1411	O141	0.342110	0.722490	0.217570
O1421	O142	0.378640	0.685340	0.286480
O1431	O143	0.384150	0.680300	0.130760
O1441	O144	0.421100	0.642870	0.197800
C2651	C265	0.301070	0.918070	0.136000
C2661	C266	0.340400	0.911420	0.165000
H971	H97	0.366800	0.923100	0.150000
C2671	C267	0.340160	0.887160	0.216700
C2681	C268	0.301480	0.870870	0.238500
H981	H98	0.301600	0.853800	0.273100
C2691	C269	0.261770	0.879430	0.209800
C2701	C270	0.261870	0.903420	0.158700
H991	H99	0.235200	0.909800	0.139400
C2711	C271	0.301430	0.946450	0.081030
C2721	C272	0.220140	0.865800	0.238400
C2731	C273	0.179610	0.960670	0.374300
C2741	C274	0.207980	0.960740	0.422600
H1001	H100	0.217700	0.933900	0.438800
C2751	C275	0.166730	0.918390	0.346100
O1451	O145	0.337940	0.956020	0.060690
O1461	O146	0.265260	0.955980	0.060770
O1471	O147	0.222490	0.842110	0.282430
O1481	O148	0.185340	0.878640	0.213520
O1491	O149	0.180300	0.884150	0.369240
O1501	O150	0.142870	0.921100	0.302200
C2761	C276	0.801070	0.418070	0.636000
C2771	C277	0.840400	0.411420	0.665000
H1011	H101	0.866800	0.423100	0.650000
C2781	C278	0.840160	0.387160	0.716700
C2791	C279	0.801480	0.370870	0.738500
H1021	H102	0.801600	0.353800	0.773100
C2801	C280	0.761770	0.379430	0.709800
C2811	C281	0.761870	0.403420	0.658700
H1031	H103	0.735200	0.409800	0.639400
C2821	C282	0.801430	0.446450	0.581030
C2831	C283	0.720140	0.365800	0.738400
C2841	C284	0.679610	0.460670	0.874300
C2851	C285	0.707980	0.460740	0.922600
H1041	H104	0.717700	0.433900	0.938800
C2861	C286	0.666730	0.418390	0.846100
O1511	O151	0.837940	0.456020	0.560690
O1521	O152	0.765260	0.455980	0.560770
O1531	O153	0.722490	0.342110	0.782430
O1541	O154	0.685340	0.378640	0.713520
O1551	O155	0.680300	0.384150	0.869240
O1561	O156	0.642870	0.421100	0.802200
C2871	C287	0.698930	0.081930	0.136000
C2881	C288	0.659600	0.088580	0.165000
H1051	H105	0.633200	0.076900	0.150000
C2891	C289	0.659840	0.112840	0.216700
C2901	C290	0.698520	0.129130	0.238500
H1061	H106	0.698400	0.146200	0.273100
C2911	C291	0.738230	0.120570	0.209800
C2921	C292	0.738130	0.096580	0.158700
H1071	H107	0.764800	0.090200	0.139400
C2931	C293	0.698570	0.053550	0.081030
C2941	C294	0.779860	0.134200	0.238400
C2951	C295	0.820390	0.039330	0.374300
C2961	C296	0.792020	0.039260	0.422600
H1081	H108	0.782300	0.066100	0.438800
C2971	C297	0.833270	0.081610	0.346100
O1571	O157	0.662060	0.043980	0.060690
O1581	O158	0.734740	0.044020	0.060770
O1591	O159	0.777510	0.157890	0.282430
O1601	O160	0.814660	0.121360	0.213520
O1611	O161	0.819700	0.115850	0.369240
O1621	O162	0.857130	0.078900	0.302200
C2981	C298	0.198930	0.581930	0.636000
C2991	C299	0.159600	0.588580	0.665000
H1091	H109	0.133200	0.576900	0.650000
C3001	C300	0.159840	0.612840	0.716700
C3011	C301	0.198520	0.629130	0.738500
H1101	H110	0.198400	0.646200	0.773100
C3021	C302	0.238230	0.620570	0.709800
C3031	C303	0.238130	0.596580	0.658700
H1111	H111	0.264800	0.590200	0.639400
C3041	C304	0.198570	0.553550	0.581030
C3051	C305	0.279860	0.634200	0.738400
C3061	C306	0.320390	0.539330	0.874300
C3071	C307	0.292020	0.539260	0.922600
H1121	H112	0.282300	0.566100	0.938800
C3081	C308	0.333270	0.581610	0.846100
O1631	O163	0.162060	0.543980	0.560690
O1641	O164	0.234740	0.544020	0.560770
O1651	O165	0.277510	0.657890	0.782430
O1661	O166	0.314660	0.621360	0.713520
O1671	O167	0.319700	0.615850	0.869240
O1681	O168	0.357130	0.578900	0.802200
C3091	C309	0.918070	0.698930	0.136000
C3101	C310	0.911420	0.659600	0.165000
H1131	H113	0.923100	0.633200	0.150000
C3111	C311	0.887160	0.659840	0.216700
C3121	C312	0.870870	0.698520	0.238500
H1141	H114	0.853800	0.698400	0.273100
C3131	C313	0.879430	0.738230	0.209800
C3141	C314	0.903420	0.738130	0.158700
H1151	H115	0.909800	0.764800	0.139400
C3151	C315	0.946450	0.698570	0.081030
C3161	C316	0.865800	0.779860	0.238400
C3171	C317	0.960670	0.820390	0.374300
C3181	C318	0.960740	0.792020	0.422600
H1161	H116	0.933900	0.782300	0.438800
C3191	C319	0.918390	0.833270	0.346100
O1691	O169	0.956020	0.662060	0.060690
O1701	O170	0.955980	0.734740	0.060770
O1711	O171	0.842110	0.777510	0.282430
O1721	O172	0.878640	0.814660	0.213520
O1731	O173	0.884150	0.819700	0.369240
O1741	O174	0.921100	0.857130	0.302200
C3201	C320	0.418070	0.198930	0.636000
C3211	C321	0.411420	0.159600	0.665000
H1171	H117	0.423100	0.133200	0.650000
C3221	C322	0.387160	0.159840	0.716700
C3231	C323	0.370870	0.198520	0.738500
H1181	H118	0.353800	0.198400	0.773100
C3241	C324	0.379430	0.238230	0.709800
C3251	C325	0.403420	0.238130	0.658700
H1191	H119	0.409800	0.264800	0.639400
C3261	C326	0.446450	0.198570	0.581030
C3271	C327	0.365800	0.279860	0.738400
C3281	C328	0.460670	0.320390	0.874300
C3291	C329	0.460740	0.292020	0.922600
H1201	H120	0.433900	0.282300	0.938800
C3301	C330	0.418390	0.333270	0.846100
O1751	O175	0.456020	0.162060	0.560690
O1761	O176	0.455980	0.234740	0.560770
O1771	O177	0.342110	0.277510	0.782430
O1781	O178	0.378640	0.314660	0.713520
O1791	O179	0.384150	0.319700	0.869240
O1801	O180	0.421100	0.357130	0.802200
C3311	C331	0.081930	0.301070	0.136000
C3321	C332	0.088580	0.340400	0.165000
H1211	H121	0.076900	0.366800	0.150000
C3331	C333	0.112840	0.340160	0.216700
C3341	C334	0.129130	0.301480	0.238500
H1221	H122	0.146200	0.301600	0.273100
C3351	C335	0.120570	0.261770	0.209800
C3361	C336	0.096580	0.261870	0.158700
H1231	H123	0.090200	0.235200	0.139400
C3371	C337	0.053550	0.301430	0.081030
C3381	C338	0.134200	0.220140	0.238400
C3391	C339	0.039330	0.179610	0.374300
C3401	C340	0.039260	0.207980	0.422600
H1241	H124	0.066100	0.217700	0.438800
C3411	C341	0.081610	0.166730	0.346100
O1811	O181	0.043980	0.337940	0.060690
O1821	O182	0.044020	0.265260	0.060770
O1831	O183	0.157890	0.222490	0.282430
O1841	O184	0.121360	0.185340	0.213520
O1851	O185	0.115850	0.180300	0.369240
O1861	O186	0.078900	0.142870	0.302200
C3421	C342	0.581930	0.801070	0.636000
C3431	C343	0.588580	0.840400	0.665000
H1251	H125	0.576900	0.866800	0.650000
C3441	C344	0.612840	0.840160	0.716700
C3451	C345	0.629130	0.801480	0.738500
H1261	H126	0.646200	0.801600	0.773100
C3461	C346	0.620570	0.761770	0.709800
C3471	C347	0.596580	0.761870	0.658700
H1271	H127	0.590200	0.735200	0.639400
C3481	C348	0.553550	0.801430	0.581030
C3491	C349	0.634200	0.720140	0.738400
C3501	C350	0.539330	0.679610	0.874300
C3511	C351	0.539260	0.707980	0.922600
H1281	H128	0.566100	0.717700	0.938800
C3521	C352	0.581610	0.666730	0.846100
O1871	O187	0.543980	0.837940	0.560690
O1881	O188	0.544020	0.765260	0.560770
O1891	O189	0.657890	0.722490	0.782430
O1901	O190	0.621360	0.685340	0.713520
O1911	O191	0.615850	0.680300	0.869240
O1921	O192	0.578900	0.642870	0.802200
Cu11	Cu1	0.345140	0.000000	0.000000
Cu21	Cu2	0.258260	0.000000	0.000000
Cu31	Cu3	0.845140	0.500000	0.500000
Cu41	Cu4	0.758260	0.500000	0.500000
Cu51	Cu5	0.654860	0.000000	0.000000
Cu61	Cu6	0.741740	0.000000	0.000000
Cu71	Cu7	0.154860	0.500000	0.500000
Cu81	Cu8	0.241740	0.500000	0.500000
Cu91	Cu9	0.000000	0.345140	0.000000
Cu101	Cu10	0.000000	0.258260	0.000000
Cu111	Cu11	0.500000	0.845140	0.500000
Cu121	Cu12	0.500000	0.758260	0.500000
Cu131	Cu13	0.000000	0.654860	0.000000
Cu141	Cu14	0.000000	0.741740	0.000000
Cu151	Cu15	0.500000	0.154860	0.500000
Cu161	Cu16	0.500000	0.241740	0.500000
Cu171	Cu17	0.172740	0.172740	0.331960
Cu181	Cu18	0.128430	0.128430	0.252040
Cu191	Cu19	0.672740	0.672740	0.831960
Cu201	Cu20	0.628430	0.628430	0.752040
Cu211	Cu21	0.827260	0.827260	0.331960
Cu221	Cu22	0.871570	0.871570	0.252040
Cu231	Cu23	0.327260	0.327260	0.831960
Cu241	Cu24	0.371570	0.371570	0.752040
Cu251	Cu25	0.827260	0.172740	0.331960
Cu261	Cu26	0.871570	0.128430	0.252040
Cu271	Cu27	0.327260	0.672740	0.831960
Cu281	Cu28	0.371570	0.628430	0.752040
Cu291	Cu29	0.172740	0.827260	0.331960
Cu301	Cu30	0.128430	0.871570	0.252040
Cu311	Cu31	0.672740	0.327260	0.831960
Cu321	Cu32	0.628430	0.371570	0.752040
Cu331	Cu33	0.827260	0.172740	0.668040
Cu341	Cu34	0.871570	0.128430	0.747960
Cu351	Cu35	0.327260	0.672740	0.168040
Cu361	Cu36	0.371570	0.628430	0.247960
Cu371	Cu37	0.172740	0.827260	0.668040
Cu381	Cu38	0.128430	0.871570	0.747960
Cu391	Cu39	0.672740	0.327260	0.168040
Cu401	Cu40	0.628430	0.371570	0.247960
Cu411	Cu41	0.172740	0.172740	0.668040
Cu421	Cu42	0.128430	0.128430	0.747960
Cu431	Cu43	0.672740	0.672740	0.168040
Cu441	Cu44	0.628430	0.628430	0.247960
Cu451	Cu45	0.827260	0.827260	0.668040
Cu461	Cu46	0.871570	0.871570	0.747960
Cu471	Cu47	0.327260	0.327260	0.168040
Cu481	Cu48	0.371570	0.371570	0.247960
C3531	C353	0.381900	0.118100	0.250000
O1931	O193	0.409930	0.090070	0.250000
C3541	C354	0.618100	0.881900	0.250000
O1941	O194	0.590070	0.909930	0.250000
C3551	C355	0.881900	0.381900	0.250000
O1951	O195	0.909930	0.409930	0.250000
C3561	C356	0.118100	0.618100	0.250000
O1961	O196	0.090070	0.590070	0.250000
C3571	C357	0.618100	0.118100	0.750000
O1971	O197	0.590070	0.090070	0.750000
C3581	C358	0.381900	0.881900	0.750000
O1981	O198	0.409930	0.909930	0.750000
C3591	C359	0.118100	0.381900	0.750000
O1991	O199	0.090070	0.409930	0.750000
C3601	C360	0.881900	0.618100	0.750000
O2001	O200	0.909930	0.590070	0.750000
C3611	C361	0.618100	0.881900	0.750000
O2011	O201	0.590070	0.909930	0.750000
C3621	C362	0.118100	0.381900	0.250000
O2021	O202	0.090070	0.409930	0.250000
C3631	C363	0.381900	0.118100	0.750000
O2031	O203	0.409930	0.090070	0.750000
C3641	C364	0.118100	0.618100	0.750000
O2041	O204	0.090070	0.590070	0.750000
C3651	C365	0.881900	0.381900	0.750000
O2051	O205	0.909930	0.409930	0.750000
C3661	C366	0.381900	0.881900	0.250000
O2061	O206	0.409930	0.909930	0.250000
C3671	C367	0.618100	0.118100	0.250000
O2071	O207	0.590070	0.090070	0.250000
C3681	C368	0.881900	0.618100	0.250000
O2081	O208	0.909930	0.590070	0.250000
C3691	C369	0.221800	0.000000	0.446600
C3701	C370	0.165500	0.000000	0.350400
H1291	H129	0.146400	0.000000	0.317900
C3711	C371	0.721800	0.500000	0.946600
C3721	C372	0.665500	0.500000	0.850400
H1301	H130	0.646400	0.500000	0.817900
C3731	C373	0.778200	0.000000	0.446600
C3741	C374	0.834500	0.000000	0.350400
H1311	H131	0.853600	0.000000	0.317900
C3751	C375	0.278200	0.500000	0.946600
C3761	C376	0.334500	0.500000	0.850400
H1321	H132	0.353600	0.500000	0.817900
C3771	C377	0.000000	0.221800	0.446600
C3781	C378	0.000000	0.165500	0.350400
H1331	H133	0.000000	0.146400	0.317900
C3791	C379	0.500000	0.721800	0.946600
C3801	C380	0.500000	0.665500	0.850400
H1341	H134	0.500000	0.646400	0.817900
C3811	C381	0.000000	0.778200	0.446600
C3821	C382	0.000000	0.834500	0.350400
H1351	H135	0.000000	0.853600	0.317900
C3831	C383	0.500000	0.278200	0.946600
C3841	C384	0.500000	0.334500	0.850400
H1361	H136	0.500000	0.353600	0.817900
C3851	C385	0.778200	0.000000	0.553400
C3861	C386	0.834500	0.000000	0.649600
H1371	H137	0.853600	0.000000	0.682100
C3871	C387	0.278200	0.500000	0.053400
C3881	C388	0.334500	0.500000	0.149600
H1381	H138	0.353600	0.500000	0.182100
C3891	C389	0.221800	0.000000	0.553400
C3901	C390	0.165500	0.000000	0.649600
H1391	H139	0.146400	0.000000	0.682100
C3911	C391	0.721800	0.500000	0.053400
C3921	C392	0.665500	0.500000	0.149600
H1401	H140	0.646400	0.500000	0.182100
C3931	C393	0.000000	0.221800	0.553400
C3941	C394	0.000000	0.165500	0.649600
H1411	H141	0.000000	0.146400	0.682100
C3951	C395	0.500000	0.721800	0.053400
C3961	C396	0.500000	0.665500	0.149600
H1421	H142	0.500000	0.646400	0.182100
C3971	C397	0.000000	0.778200	0.553400
C3981	C398	0.000000	0.834500	0.649600
H1431	H143	0.000000	0.853600	0.682100
C3991	C399	0.500000	0.278200	0.053400
C4001	C400	0.500000	0.334500	0.149600
H1441	H144	0.500000	0.353600	0.182100
C4011	C401	0.252400	0.000000	0.500000
C4021	C402	0.752400	0.500000	0.000000
C4031	C403	0.747600	0.000000	0.500000
C4041	C404	0.247600	0.500000	0.000000
C4051	C405	0.000000	0.252400	0.500000
C4061	C406	0.500000	0.752400	0.000000
C4071	C407	0.000000	0.747600	0.500000
C4081	C408	0.500000	0.247600	0.000000
O2091	O209	0.277400	0.037600	0.500000
O2101	O210	0.777400	0.537600	0.000000
O2111	O211	0.722600	0.962400	0.500000
O2121	O212	0.222600	0.462400	0.000000
O2131	O213	0.962400	0.277400	0.500000
O2141	O214	0.462400	0.777400	0.000000
O2151	O215	0.037600	0.722600	0.500000
O2161	O216	0.537600	0.222600	0.000000
O2171	O217	0.722600	0.037600	0.500000
O2181	O218	0.222600	0.537600	0.000000
O2191	O219	0.277400	0.962400	0.500000
O2201	O220	0.777400	0.462400	0.000000
O2211	O221	0.037600	0.277400	0.500000
O2221	O222	0.537600	0.777400	0.000000
O2231	O223	0.962400	0.722600	0.500000
O2241	O224	0.462400	0.222600	0.000000
