data_KASRED_clean_PM
_symmetry_space_group_name_H-M	'P1'
_cell_length_a	11.491700
_cell_length_b	18.524000
_cell_length_c	25.727000
_cell_angle_alpha	90.000000
_cell_angle_beta	96.280000
_cell_angle_gamma	90.000000
_symmetry_Int_Tables_number 1

loop_
_symmetry_equiv_pos_as_xyz
'x,y,z'

loop_
_atom_site_label
_atom_site_type_symbol
_atom_site_fract_x
_atom_site_fract_y
_atom_site_fract_z
C11	C1	0.463400	0.711300	0.191870
C21	C2	0.575500	0.731300	0.189920
C31	C3	0.646800	0.766800	0.234720
C41	C4	0.611000	0.830700	0.255000
H11	H1	0.539600	0.852200	0.240500
C51	C5	0.677300	0.863900	0.295900
H21	H2	0.651200	0.908200	0.309200
C61	C6	0.780800	0.833900	0.317720
C71	C7	0.818200	0.770700	0.297340
H31	H3	0.889300	0.749100	0.312100
C81	C8	0.753000	0.738200	0.255600
H41	H4	0.781500	0.695500	0.240900
C91	C9	0.405100	0.713200	0.240920
C101	C10	0.454100	0.677800	0.285460
H51	H5	0.527400	0.654100	0.285600
C111	C11	0.395400	0.676900	0.330100
H61	H6	0.429800	0.652500	0.360500
C121	C12	0.288600	0.710500	0.331260
C131	C13	0.240900	0.746500	0.286980
H71	H7	0.168400	0.771000	0.287200
C141	C14	0.298100	0.747100	0.242270
H81	H8	0.263100	0.771200	0.211900
C151	C15	0.387000	0.684500	0.145260
C161	C16	0.328200	0.619700	0.148000
H91	H9	0.338800	0.592200	0.179400
C171	C17	0.254100	0.593900	0.105970
H101	H10	0.215900	0.548800	0.108500
C181	C18	0.235800	0.634000	0.060200
C191	C19	0.294100	0.699500	0.056820
H111	H11	0.281800	0.727400	0.025700
C201	C20	0.370400	0.724200	0.098860
H121	H12	0.411400	0.768300	0.096000
C211	C21	0.639600	0.718700	0.143480
C221	C22	0.702700	0.774000	0.123080
H131	H13	0.701700	0.821000	0.137900
C231	C23	0.767100	0.761400	0.081410
H141	H14	0.808300	0.800000	0.067400
C241	C24	0.771500	0.693500	0.060260
C251	C25	0.707900	0.637500	0.080160
H151	H15	0.709400	0.590500	0.065400
C261	C26	0.642700	0.650500	0.121250
H161	H16	0.599300	0.612300	0.134500
C271	C27	0.150700	0.607800	0.016340
C281	C28	0.225300	0.708700	0.379600
C291	C29	0.848300	0.869700	0.363230
C301	C30	0.847300	0.678400	0.017580
Cd11	Cd1	0.038300	0.437330	0.053660
Cd21	Cd2	0.024170	0.750420	0.941720
O11	O1	0.104700	0.546290	0.019590
O21	O2	0.123800	0.647540	0.976810
O31	O3	0.866600	0.612280	0.008800
O41	O4	0.886000	0.730500	0.994710
O51	O5	0.275800	0.686900	0.420500
O61	O6	0.126500	0.732700	0.375820
O71	O7	0.938900	0.839820	0.385600
O81	O8	0.814100	0.929220	0.378570
C311	C31	0.536600	0.211300	0.308130
C321	C32	0.424500	0.231300	0.310080
C331	C33	0.353200	0.266800	0.265280
C341	C34	0.389000	0.330700	0.245000
H171	H17	0.460400	0.352200	0.259500
C351	C35	0.322700	0.363900	0.204100
H181	H18	0.348800	0.408200	0.190800
C361	C36	0.219200	0.333900	0.182280
C371	C37	0.181800	0.270700	0.202660
H191	H19	0.110700	0.249100	0.187900
C381	C38	0.247000	0.238200	0.244400
H201	H20	0.218500	0.195500	0.259100
C391	C39	0.594900	0.213200	0.259080
C401	C40	0.545900	0.177800	0.214540
H211	H21	0.472600	0.154100	0.214400
C411	C41	0.604600	0.176900	0.169900
H221	H22	0.570200	0.152500	0.139500
C421	C42	0.711400	0.210500	0.168740
C431	C43	0.759100	0.246500	0.213020
H231	H23	0.831600	0.271000	0.212800
C441	C44	0.701900	0.247100	0.257730
H241	H24	0.736900	0.271200	0.288100
C451	C45	0.613000	0.184500	0.354740
C461	C46	0.671800	0.119700	0.352000
H251	H25	0.661200	0.092200	0.320600
C471	C47	0.745900	0.093900	0.394030
H261	H26	0.784100	0.048800	0.391500
C481	C48	0.764200	0.134000	0.439800
C491	C49	0.705900	0.199500	0.443180
H271	H27	0.718200	0.227400	0.474300
C501	C50	0.629600	0.224200	0.401140
H281	H28	0.588600	0.268300	0.404000
C511	C51	0.360400	0.218700	0.356520
C521	C52	0.297300	0.274000	0.376920
H291	H29	0.298300	0.321000	0.362100
C531	C53	0.232900	0.261400	0.418590
H301	H30	0.191700	0.300000	0.432600
C541	C54	0.228500	0.193500	0.439740
C551	C55	0.292100	0.137500	0.419840
H311	H31	0.290600	0.090500	0.434600
C561	C56	0.357300	0.150500	0.378750
H321	H32	0.400700	0.112300	0.365500
C571	C57	0.849300	0.107800	0.483660
C581	C58	0.774700	0.208700	0.120400
C591	C59	0.151700	0.369700	0.136770
C601	C60	0.152700	0.178400	0.482420
Cd31	Cd3	0.961700	0.937330	0.446340
Cd41	Cd4	0.975830	0.250420	0.558280
O91	O9	0.895300	0.046290	0.480410
O101	O10	0.876200	0.147540	0.523190
O111	O11	0.133400	0.112280	0.491200
O121	O12	0.114000	0.230500	0.505290
O131	O13	0.724200	0.186900	0.079500
O141	O14	0.873500	0.232700	0.124180
O151	O15	0.061100	0.339820	0.114400
O161	O16	0.185900	0.429220	0.121430
C611	C61	0.536600	0.288700	0.808130
C621	C62	0.424500	0.268700	0.810080
C631	C63	0.353200	0.233200	0.765280
C641	C64	0.389000	0.169300	0.745000
H331	H33	0.460400	0.147800	0.759500
C651	C65	0.322700	0.136100	0.704100
H341	H34	0.348800	0.091800	0.690800
C661	C66	0.219200	0.166100	0.682280
C671	C67	0.181800	0.229300	0.702660
H351	H35	0.110700	0.250900	0.687900
C681	C68	0.247000	0.261800	0.744400
H361	H36	0.218500	0.304500	0.759100
C691	C69	0.594900	0.286800	0.759080
C701	C70	0.545900	0.322200	0.714540
H371	H37	0.472600	0.345900	0.714400
C711	C71	0.604600	0.323100	0.669900
H381	H38	0.570200	0.347500	0.639500
C721	C72	0.711400	0.289500	0.668740
C731	C73	0.759100	0.253500	0.713020
H391	H39	0.831600	0.229000	0.712800
C741	C74	0.701900	0.252900	0.757730
H401	H40	0.736900	0.228800	0.788100
C751	C75	0.613000	0.315500	0.854740
C761	C76	0.671800	0.380300	0.852000
H411	H41	0.661200	0.407800	0.820600
C771	C77	0.745900	0.406100	0.894030
H421	H42	0.784100	0.451200	0.891500
C781	C78	0.764200	0.366000	0.939800
C791	C79	0.705900	0.300500	0.943180
H431	H43	0.718200	0.272600	0.974300
C801	C80	0.629600	0.275800	0.901140
H441	H44	0.588600	0.231700	0.904000
C811	C81	0.360400	0.281300	0.856520
C821	C82	0.297300	0.226000	0.876920
H451	H45	0.298300	0.179000	0.862100
C831	C83	0.232900	0.238600	0.918590
H461	H46	0.191700	0.200000	0.932600
C841	C84	0.228500	0.306500	0.939740
C851	C85	0.292100	0.362500	0.919840
H471	H47	0.290600	0.409500	0.934600
C861	C86	0.357300	0.349500	0.878750
H481	H48	0.400700	0.387700	0.865500
C871	C87	0.849300	0.392200	0.983660
C881	C88	0.774700	0.291300	0.620400
C891	C89	0.151700	0.130300	0.636770
C901	C90	0.152700	0.321600	0.982420
Cd51	Cd5	0.961700	0.562670	0.946340
Cd61	Cd6	0.975830	0.249580	0.058280
O171	O17	0.895300	0.453710	0.980410
O181	O18	0.876200	0.352460	0.023190
O191	O19	0.133400	0.387720	0.991200
O201	O20	0.114000	0.269500	0.005290
O211	O21	0.724200	0.313100	0.579500
O221	O22	0.873500	0.267300	0.624180
O231	O23	0.061100	0.160180	0.614400
O241	O24	0.185900	0.070780	0.621430
C911	C91	0.463400	0.788700	0.691870
C921	C92	0.575500	0.768700	0.689920
C931	C93	0.646800	0.733200	0.734720
C941	C94	0.611000	0.669300	0.755000
H491	H49	0.539600	0.647800	0.740500
C951	C95	0.677300	0.636100	0.795900
H501	H50	0.651200	0.591800	0.809200
C961	C96	0.780800	0.666100	0.817720
C971	C97	0.818200	0.729300	0.797340
H511	H51	0.889300	0.750900	0.812100
C981	C98	0.753000	0.761800	0.755600
H521	H52	0.781500	0.804500	0.740900
C991	C99	0.405100	0.786800	0.740920
C1001	C100	0.454100	0.822200	0.785460
H531	H53	0.527400	0.845900	0.785600
C1011	C101	0.395400	0.823100	0.830100
H541	H54	0.429800	0.847500	0.860500
C1021	C102	0.288600	0.789500	0.831260
C1031	C103	0.240900	0.753500	0.786980
H551	H55	0.168400	0.729000	0.787200
C1041	C104	0.298100	0.752900	0.742270
H561	H56	0.263100	0.728800	0.711900
C1051	C105	0.387000	0.815500	0.645260
C1061	C106	0.328200	0.880300	0.648000
H571	H57	0.338800	0.907800	0.679400
C1071	C107	0.254100	0.906100	0.605970
H581	H58	0.215900	0.951200	0.608500
C1081	C108	0.235800	0.866000	0.560200
C1091	C109	0.294100	0.800500	0.556820
H591	H59	0.281800	0.772600	0.525700
C1101	C110	0.370400	0.775800	0.598860
H601	H60	0.411400	0.731700	0.596000
C1111	C111	0.639600	0.781300	0.643480
C1121	C112	0.702700	0.726000	0.623080
H611	H61	0.701700	0.679000	0.637900
C1131	C113	0.767100	0.738600	0.581410
H621	H62	0.808300	0.700000	0.567400
C1141	C114	0.771500	0.806500	0.560260
C1151	C115	0.707900	0.862500	0.580160
H631	H63	0.709400	0.909500	0.565400
C1161	C116	0.642700	0.849500	0.621250
H641	H64	0.599300	0.887700	0.634500
C1171	C117	0.150700	0.892200	0.516340
C1181	C118	0.225300	0.791300	0.879600
C1191	C119	0.848300	0.630300	0.863230
C1201	C120	0.847300	0.821600	0.517580
Cd71	Cd7	0.038300	0.062670	0.553660
Cd81	Cd8	0.024170	0.749580	0.441720
O251	O25	0.104700	0.953710	0.519590
O261	O26	0.123800	0.852460	0.476810
O271	O27	0.866600	0.887720	0.508800
O281	O28	0.886000	0.769500	0.494710
O291	O29	0.275800	0.813100	0.920500
O301	O30	0.126500	0.767300	0.875820
O311	O31	0.938900	0.660180	0.885600
O321	O32	0.814100	0.570780	0.878570
