data_KAVJAT_charged_PM
_symmetry_space_group_name_H-M	'P1'
_cell_length_a	23.406900
_cell_length_b	23.406900
_cell_length_c	23.406900
_cell_angle_alpha	109.471000
_cell_angle_beta	109.471000
_cell_angle_gamma	109.471000
_symmetry_Int_Tables_number 1

loop_
_symmetry_equiv_pos_as_xyz
'x,y,z'

loop_
_atom_site_label
_atom_site_type_symbol
_atom_site_fract_x
_atom_site_fract_y
_atom_site_fract_z
Pr11	Pr1	0.169600	0.169600	0.669600
Pr21	Pr2	0.000000	0.500000	0.830400
Pr31	Pr3	0.500000	0.330400	0.500000
Pr41	Pr4	0.330400	0.000000	0.000000
Pr51	Pr5	0.830400	0.830400	0.330400
Pr61	Pr6	0.000000	0.500000	0.169600
Pr71	Pr7	0.500000	0.669600	0.500000
Pr81	Pr8	0.669600	0.000000	0.000000
Pr91	Pr9	0.500000	0.000000	0.000000
Pr101	Pr10	0.500000	0.500000	0.500000
Pr111	Pr11	0.000000	0.500000	0.000000
Pr121	Pr12	0.000000	0.000000	0.500000
H11	H1	0.379800	0.137400	0.948800
H21	H2	0.688600	0.431000	0.551200
H31	H3	0.811400	0.362600	0.742400
H41	H4	0.120200	0.069000	0.757600
H51	H5	0.242400	0.811400	0.862600
H61	H6	0.257600	0.120200	0.569000
H71	H7	0.448800	0.379800	0.637400
H81	H8	0.051200	0.688600	0.931000
H91	H9	0.431000	0.051200	0.188600
H101	H10	0.137400	0.448800	0.879800
H111	H11	0.069000	0.257600	0.620200
H121	H12	0.362600	0.242400	0.311400
H131	H13	0.620200	0.862600	0.051200
H141	H14	0.311400	0.569000	0.448800
H151	H15	0.188600	0.637400	0.257600
H161	H16	0.879800	0.931000	0.242400
H171	H17	0.757600	0.188600	0.137400
H181	H18	0.742400	0.879800	0.431000
H191	H19	0.551200	0.620200	0.362600
H201	H20	0.948800	0.311400	0.069000
H211	H21	0.569000	0.948800	0.811400
H221	H22	0.862600	0.551200	0.120200
H231	H23	0.931000	0.742400	0.379800
H241	H24	0.637400	0.757600	0.688600
C11	C1	0.268300	0.141800	0.752300
C21	C2	0.311200	0.120600	0.795000
C31	C3	0.323800	0.067600	0.760800
C41	C4	0.360800	0.045000	0.799800
C51	C5	0.381300	0.070600	0.870900
C61	C6	0.415000	0.042000	0.910200
C71	C7	0.367300	0.120800	0.901900
C81	C8	0.334900	0.148400	0.865900
C91	C9	0.889500	0.516000	0.747700
C101	C10	0.825600	0.516200	0.705000
C111	C11	0.806800	0.563000	0.739200
C121	C12	0.745200	0.561000	0.700200
C131	C13	0.699700	0.510400	0.629100
C141	C14	0.631800	0.504800	0.589800
C151	C15	0.718900	0.465400	0.598100
C161	C16	0.782500	0.469000	0.634100
C171	C17	0.610500	0.358200	0.626500
C181	C18	0.674400	0.379400	0.690600
C191	C19	0.693200	0.432400	0.756200
C201	C20	0.754800	0.455000	0.815800
C211	C21	0.800300	0.429400	0.810700
C221	C22	0.868200	0.458000	0.873000
C231	C23	0.781100	0.379200	0.746500
C241	C24	0.717500	0.351600	0.686500
C251	C25	0.231700	0.984000	0.873500
C261	C26	0.188800	0.983800	0.809400
C271	C27	0.176200	0.937000	0.743800
C281	C28	0.139200	0.939000	0.684200
C291	C29	0.118700	0.989600	0.689300
C301	C30	0.085000	0.995200	0.627000
C311	C31	0.132700	0.034600	0.753500
C321	C32	0.165100	0.031000	0.813500
C331	C33	0.126500	0.610500	0.858200
C341	C34	0.190600	0.674400	0.879400
C351	C35	0.256200	0.693200	0.932400
C361	C36	0.315800	0.754800	0.955000
C371	C37	0.310700	0.800300	0.929400
C381	C38	0.373000	0.868200	0.958000
C391	C39	0.246500	0.781100	0.879200
C401	C40	0.186500	0.717500	0.851600
C411	C41	0.373500	0.231700	0.484000
C421	C42	0.309400	0.188800	0.483800
C431	C43	0.243800	0.176200	0.437000
C441	C44	0.184200	0.139200	0.439000
C451	C45	0.189300	0.118700	0.489600
C461	C46	0.127000	0.085000	0.495200
C471	C47	0.253500	0.132700	0.534600
C481	C48	0.313500	0.165100	0.531000
C491	C49	0.252300	0.268300	0.641800
C501	C50	0.295000	0.311200	0.620600
C511	C51	0.260800	0.323800	0.567600
C521	C52	0.299800	0.360800	0.545000
C531	C53	0.370900	0.381300	0.570600
C541	C54	0.410200	0.415000	0.542000
C551	C55	0.401900	0.367300	0.620800
C561	C56	0.365900	0.334900	0.648400
C571	C57	0.247700	0.889500	0.016000
C581	C58	0.205000	0.825600	0.016200
C591	C59	0.239200	0.806800	0.063000
C601	C60	0.200200	0.745200	0.061000
C611	C61	0.129100	0.699700	0.010400
C621	C62	0.089800	0.631800	0.004800
C631	C63	0.098100	0.718900	0.965400
C641	C64	0.134100	0.782500	0.969000
C651	C65	0.516000	0.247700	0.389500
C661	C66	0.516200	0.205000	0.325600
C671	C67	0.563000	0.239200	0.306800
C681	C68	0.561000	0.200200	0.245200
C691	C69	0.510400	0.129100	0.199700
C701	C70	0.504800	0.089800	0.131800
C711	C71	0.465400	0.098100	0.218900
C721	C72	0.469000	0.134100	0.282500
C731	C73	0.141800	0.252300	0.768300
C741	C74	0.120600	0.295000	0.811200
C751	C75	0.067600	0.260800	0.823800
C761	C76	0.045000	0.299800	0.860800
C771	C77	0.070600	0.370900	0.881300
C781	C78	0.042000	0.410200	0.915000
C791	C79	0.120800	0.401900	0.867300
C801	C80	0.148400	0.365900	0.834900
C811	C81	0.984000	0.373500	0.731700
C821	C82	0.983800	0.309400	0.688800
C831	C83	0.937000	0.243800	0.676200
C841	C84	0.939000	0.184200	0.639200
C851	C85	0.989600	0.189300	0.618700
C861	C86	0.995200	0.127000	0.585000
C871	C87	0.034600	0.253500	0.632700
C881	C88	0.031000	0.313500	0.665100
C891	C89	0.358200	0.126500	0.110500
C901	C90	0.379400	0.190600	0.174400
C911	C91	0.432400	0.256200	0.193200
C921	C92	0.455000	0.315800	0.254800
C931	C93	0.429400	0.310700	0.300300
C941	C94	0.458000	0.373000	0.368200
C951	C95	0.379200	0.246500	0.281100
C961	C96	0.351600	0.186500	0.217500
C971	C97	0.731700	0.858200	0.247700
C981	C98	0.688800	0.879400	0.205000
C991	C99	0.676200	0.932400	0.239200
C1001	C100	0.639200	0.955000	0.200200
C1011	C101	0.618700	0.929400	0.129100
C1021	C102	0.585000	0.958000	0.089800
C1031	C103	0.632700	0.879200	0.098100
C1041	C104	0.665100	0.851600	0.134100
C1051	C105	0.110500	0.484000	0.252300
C1061	C106	0.174400	0.483800	0.295000
C1071	C107	0.193200	0.437000	0.260800
C1081	C108	0.254800	0.439000	0.299800
C1091	C109	0.300300	0.489600	0.370900
C1101	C110	0.368200	0.495200	0.410200
C1111	C111	0.281100	0.534600	0.401900
C1121	C112	0.217500	0.531000	0.365900
C1131	C113	0.389500	0.641800	0.373500
C1141	C114	0.325600	0.620600	0.309400
C1151	C115	0.306800	0.567600	0.243800
C1161	C116	0.245200	0.545000	0.184200
C1171	C117	0.199700	0.570600	0.189300
C1181	C118	0.131800	0.542000	0.127000
C1191	C119	0.218900	0.620800	0.253500
C1201	C120	0.282500	0.648400	0.313500
C1211	C121	0.768300	0.016000	0.126500
C1221	C122	0.811200	0.016200	0.190600
C1231	C123	0.823800	0.063000	0.256200
C1241	C124	0.860800	0.061000	0.315800
C1251	C125	0.881300	0.010400	0.310700
C1261	C126	0.915000	0.004800	0.373000
C1271	C127	0.867300	0.965400	0.246500
C1281	C128	0.834900	0.969000	0.186500
C1291	C129	0.873500	0.389500	0.141800
C1301	C130	0.809400	0.325600	0.120600
C1311	C131	0.743800	0.306800	0.067600
C1321	C132	0.684200	0.245200	0.045000
C1331	C133	0.689300	0.199700	0.070600
C1341	C134	0.627000	0.131800	0.042000
C1351	C135	0.753500	0.218900	0.120800
C1361	C136	0.813500	0.282500	0.148400
C1371	C137	0.626500	0.768300	0.516000
C1381	C138	0.690600	0.811200	0.516200
C1391	C139	0.756200	0.823800	0.563000
C1401	C140	0.815800	0.860800	0.561000
C1411	C141	0.810700	0.881300	0.510400
C1421	C142	0.873000	0.915000	0.504800
C1431	C143	0.746500	0.867300	0.465400
C1441	C144	0.686500	0.834900	0.469000
C1451	C145	0.747700	0.731700	0.358200
C1461	C146	0.705000	0.688800	0.379400
C1471	C147	0.739200	0.676200	0.432400
C1481	C148	0.700200	0.639200	0.455000
C1491	C149	0.629100	0.618700	0.429400
C1501	C150	0.589800	0.585000	0.458000
C1511	C151	0.598100	0.632700	0.379200
C1521	C152	0.634100	0.665100	0.351600
C1531	C153	0.752300	0.110500	0.984000
C1541	C154	0.795000	0.174400	0.983800
C1551	C155	0.760800	0.193200	0.937000
C1561	C156	0.799800	0.254800	0.939000
C1571	C157	0.870900	0.300300	0.989600
C1581	C158	0.910200	0.368200	0.995200
C1591	C159	0.901900	0.281100	0.034600
C1601	C160	0.865900	0.217500	0.031000
C1611	C161	0.484000	0.752300	0.610500
C1621	C162	0.483800	0.795000	0.674400
C1631	C163	0.437000	0.760800	0.693200
C1641	C164	0.439000	0.799800	0.754800
C1651	C165	0.489600	0.870900	0.800300
C1661	C166	0.495200	0.910200	0.868200
C1671	C167	0.534600	0.901900	0.781100
C1681	C168	0.531000	0.865900	0.717500
C1691	C169	0.858200	0.747700	0.231700
C1701	C170	0.879400	0.705000	0.188800
C1711	C171	0.932400	0.739200	0.176200
C1721	C172	0.955000	0.700200	0.139200
C1731	C173	0.929400	0.629100	0.118700
C1741	C174	0.958000	0.589800	0.085000
C1751	C175	0.879200	0.598100	0.132700
C1761	C176	0.851600	0.634100	0.165100
C1771	C177	0.016000	0.626500	0.268300
C1781	C178	0.016200	0.690600	0.311200
C1791	C179	0.063000	0.756200	0.323800
C1801	C180	0.061000	0.815800	0.360800
C1811	C181	0.010400	0.810700	0.381300
C1821	C182	0.004800	0.873000	0.415000
C1831	C183	0.965400	0.746500	0.367300
C1841	C184	0.969000	0.686500	0.334900
C1851	C185	0.641800	0.873500	0.889500
C1861	C186	0.620600	0.809400	0.825600
C1871	C187	0.567600	0.743800	0.806800
C1881	C188	0.545000	0.684200	0.745200
C1891	C189	0.570600	0.689300	0.699700
C1901	C190	0.542000	0.627000	0.631800
C1911	C191	0.620800	0.753500	0.718900
C1921	C192	0.648400	0.813500	0.782500
N11	N1	0.312100	0.040600	0.693300
N21	N2	0.847300	0.618800	0.806700
N31	N3	0.652700	0.459400	0.771500
N41	N4	0.187900	0.881200	0.728500
N51	N5	0.271500	0.652700	0.959400
N61	N6	0.228500	0.187900	0.381200
N71	N7	0.193300	0.312100	0.540600
N81	N8	0.306700	0.847300	0.118800
N91	N9	0.618800	0.306700	0.347300
N101	N10	0.040600	0.193300	0.812100
N111	N11	0.881200	0.228500	0.687900
N121	N12	0.459400	0.271500	0.152700
N131	N13	0.687900	0.959400	0.306700
N141	N14	0.152700	0.381200	0.193300
N151	N15	0.347300	0.540600	0.228500
N161	N16	0.812100	0.118800	0.271500
N171	N17	0.728500	0.347300	0.040600
N181	N18	0.771500	0.812100	0.618800
N191	N19	0.806700	0.687900	0.459400
N201	N20	0.693300	0.152700	0.881200
N211	N21	0.381200	0.693300	0.652700
N221	N22	0.959400	0.806700	0.187900
N231	N23	0.118800	0.771500	0.312100
N241	N24	0.540600	0.728500	0.847300
O11	O1	0.243300	0.111700	0.686800
O21	O2	0.256000	0.188600	0.783200
O31	O3	0.440000	0.007300	0.887500
O41	O4	0.417300	0.053700	0.969400
O51	O5	0.924900	0.556500	0.813200
O61	O6	0.905400	0.472800	0.716800
O71	O7	0.619800	0.552500	0.612500
O81	O8	0.584300	0.447900	0.530600
O91	O9	0.575100	0.388300	0.631600
O101	O10	0.594600	0.311400	0.567400
O111	O11	0.880200	0.492700	0.932700
O121	O12	0.915700	0.446300	0.863600
O131	O13	0.256700	0.943500	0.868400
O141	O14	0.244000	0.027200	0.932600
O151	O15	0.060000	0.947500	0.567300
O161	O16	0.082700	0.052100	0.636400
O171	O17	0.131600	0.575100	0.888300
O181	O18	0.067400	0.594600	0.811400
O191	O19	0.432700	0.880200	0.992700
O201	O20	0.363600	0.915700	0.946300
O211	O21	0.368400	0.256700	0.443500
O221	O22	0.432600	0.244000	0.527200
O231	O23	0.067300	0.060000	0.447500
O241	O24	0.136400	0.082700	0.552100
O251	O25	0.186800	0.243300	0.611700
O261	O26	0.283200	0.256000	0.688600
O271	O27	0.387500	0.440000	0.507300
O281	O28	0.469400	0.417300	0.553700
O291	O29	0.313200	0.924900	0.056500
O301	O30	0.216800	0.905400	0.972800
O311	O31	0.112500	0.619800	0.052500
O321	O32	0.030600	0.584300	0.947900
O331	O33	0.556500	0.313200	0.424900
O341	O34	0.472800	0.216800	0.405400
O351	O35	0.552500	0.112500	0.119800
O361	O36	0.447900	0.030600	0.084300
O371	O37	0.111700	0.186800	0.743300
O381	O38	0.188600	0.283200	0.756000
O391	O39	0.007300	0.387500	0.940000
O401	O40	0.053700	0.469400	0.917300
O411	O41	0.943500	0.368400	0.756700
O421	O42	0.027200	0.432600	0.744000
O431	O43	0.947500	0.067300	0.560000
O441	O44	0.052100	0.136400	0.582700
O451	O45	0.388300	0.131600	0.075100
O461	O46	0.311400	0.067400	0.094600
O471	O47	0.492700	0.432700	0.380200
O481	O48	0.446300	0.363600	0.415700
O491	O49	0.756700	0.888300	0.313200
O501	O50	0.744000	0.811400	0.216800
O511	O51	0.560000	0.992700	0.112500
O521	O52	0.582700	0.946300	0.030600
O531	O53	0.075100	0.443500	0.186800
O541	O54	0.094600	0.527200	0.283200
O551	O55	0.380200	0.447500	0.387500
O561	O56	0.415700	0.552100	0.469400
O571	O57	0.424900	0.611700	0.368400
O581	O58	0.405400	0.688600	0.432600
O591	O59	0.119800	0.507300	0.067300
O601	O60	0.084300	0.553700	0.136400
O611	O61	0.743300	0.056500	0.131600
O621	O62	0.756000	0.972800	0.067400
O631	O63	0.940000	0.052500	0.432700
O641	O64	0.917300	0.947900	0.363600
O651	O65	0.868400	0.424900	0.111700
O661	O66	0.932600	0.405400	0.188600
O671	O67	0.567300	0.119800	0.007300
O681	O68	0.636400	0.084300	0.053700
O691	O69	0.631600	0.743300	0.556500
O701	O70	0.567400	0.756000	0.472800
O711	O71	0.932700	0.940000	0.552500
O721	O72	0.863600	0.917300	0.447900
O731	O73	0.813200	0.756700	0.388300
O741	O74	0.716800	0.744000	0.311400
O751	O75	0.612500	0.560000	0.492700
O761	O76	0.530600	0.582700	0.446300
O771	O77	0.686800	0.075100	0.943500
O781	O78	0.783200	0.094600	0.027200
O791	O79	0.887500	0.380200	0.947500
O801	O80	0.969400	0.415700	0.052100
O811	O81	0.443500	0.686800	0.575100
O821	O82	0.527200	0.783200	0.594600
O831	O83	0.447500	0.887500	0.880200
O841	O84	0.552100	0.969400	0.915700
O851	O85	0.888300	0.813200	0.256700
O861	O86	0.811400	0.716800	0.244000
O871	O87	0.992700	0.612500	0.060000
O881	O88	0.946300	0.530600	0.082700
O891	O89	0.056500	0.631600	0.243300
O901	O90	0.972800	0.567400	0.256000
O911	O91	0.052500	0.932700	0.440000
O921	O92	0.947900	0.863600	0.417300
O931	O93	0.611700	0.868400	0.924900
O941	O94	0.688600	0.932600	0.905400
O951	O95	0.507300	0.567300	0.619800
O961	O96	0.553700	0.636400	0.584300
N251	N25	0.943600	0.000000	0.000000
O971	O97	0.916100	0.941700	0.999600
O981	O98	0.974400	0.057900	0.058300
O991	O99	0.916500	0.000400	0.942100
N261	N26	0.500000	0.943600	0.500000
O1001	O100	0.442100	0.916500	0.500400
O1011	O101	0.499600	0.916100	0.441700
O1021	O102	0.558300	0.974400	0.557900
N271	N27	0.000000	0.500000	0.443600
O1031	O103	0.057900	0.558300	0.474400
O1041	O104	0.000400	0.442100	0.416500
O1051	O105	0.941700	0.499600	0.416100
N281	N28	0.556400	0.556400	0.056400
O1061	O106	0.583900	0.583500	0.025600
O1071	O107	0.525600	0.583900	0.083500
O1081	O108	0.583500	0.525600	0.083900
N291	N29	0.056400	0.000000	0.000000
O1091	O109	0.083900	0.058300	0.000400
O1101	O110	0.025600	0.942100	0.941700
O1111	O111	0.083500	0.999600	0.057900
N301	N30	0.500000	0.056400	0.500000
O1121	O112	0.557900	0.083500	0.499600
O1131	O113	0.500400	0.083900	0.558300
O1141	O114	0.441700	0.025600	0.442100
N311	N31	0.000000	0.500000	0.556400
O1151	O115	0.942100	0.441700	0.525600
O1161	O116	0.999600	0.557900	0.583500
O1171	O117	0.058300	0.500400	0.583900
N321	N32	0.443600	0.443600	0.943600
O1181	O118	0.416100	0.416500	0.974400
O1191	O119	0.474400	0.416100	0.916500
O1201	O120	0.416500	0.474400	0.916100
