data_KAVKIC_clean_PM
_symmetry_space_group_name_H-M	'P1'
_cell_length_a	15.991900
_cell_length_b	16.361300
_cell_length_c	16.361300
_cell_angle_alpha	76.181900
_cell_angle_beta	60.744000
_cell_angle_gamma	60.744000
_symmetry_Int_Tables_number 1

loop_
_symmetry_equiv_pos_as_xyz
'x,y,z'

loop_
_atom_site_label
_atom_site_type_symbol
_atom_site_fract_x
_atom_site_fract_y
_atom_site_fract_z
Dy11	Dy1	0.582360	0.620150	0.033580
Dy21	Dy2	0.124800	0.887030	0.024950
Dy31	Dy3	0.736090	0.879850	0.466420
Dy41	Dy4	0.536780	0.612970	0.475050
Dy51	Dy5	0.615940	0.966420	0.120150
Dy61	Dy6	0.149750	0.975050	0.387030
Dy71	Dy7	0.202510	0.533580	0.379850
Dy81	Dy8	0.011830	0.524950	0.112970
Dy91	Dy9	0.417640	0.379850	0.966420
Dy101	Dy10	0.875200	0.112970	0.975050
Dy111	Dy11	0.263910	0.120150	0.533580
Dy121	Dy12	0.463220	0.387030	0.524950
Dy131	Dy13	0.384060	0.033580	0.879850
Dy141	Dy14	0.850250	0.024950	0.612970
Dy151	Dy15	0.797490	0.466420	0.620150
Dy161	Dy16	0.988170	0.475050	0.887030
H11	H1	0.052700	0.752600	0.253600
H21	H2	0.480600	0.598100	0.283500
H31	H3	0.558900	0.747400	0.246400
H41	H4	0.862200	0.901900	0.216500
H51	H5	0.306300	0.746400	0.252600
H61	H6	0.764100	0.716500	0.098100
H71	H7	0.805300	0.753600	0.247400
H81	H8	0.078700	0.783500	0.401900
H91	H9	0.947300	0.247400	0.746400
H101	H10	0.519400	0.401900	0.716500
H111	H11	0.441100	0.252600	0.753600
H121	H12	0.137800	0.098100	0.783500
H131	H13	0.693700	0.253600	0.747400
H141	H14	0.235900	0.283500	0.901900
H151	H15	0.194700	0.246400	0.752600
H161	H16	0.921300	0.216500	0.598100
C11	C1	0.126300	0.725800	0.217800
C21	C2	0.292000	0.632500	0.171700
C31	C3	0.280800	0.703400	0.106400
C41	C4	0.353700	0.724500	0.015900
C51	C5	0.384200	0.552600	0.180000
C61	C6	0.552100	0.584300	0.259900
C71	C7	0.714100	0.556600	0.163200
C81	C8	0.702000	0.547900	0.254100
C91	C9	0.773900	0.531700	0.294100
C101	C10	0.802000	0.545700	0.068100
C111	C11	0.569900	0.774200	0.282200
C121	C12	0.596200	0.867500	0.328300
C131	C13	0.590600	0.796600	0.393600
C141	C14	0.594100	0.775500	0.484100
C151	C15	0.616800	0.947400	0.320000
C161	C16	0.896300	0.915700	0.240100
C171	C17	0.933900	0.943400	0.336800
C181	C18	0.004000	0.952100	0.245900
C191	C19	0.099700	0.968300	0.205900
C201	C20	0.915800	0.954300	0.431900
C211	C21	0.344100	0.782200	0.225800
C221	C22	0.463700	0.828300	0.132500
C231	C23	0.387200	0.893600	0.203400
C241	C24	0.369600	0.984100	0.224500
C251	C25	0.564200	0.820000	0.052600
C261	C26	0.812000	0.740100	0.084300
C271	C27	0.877300	0.836800	0.056600
C281	C28	0.956100	0.745900	0.047900
C291	C29	0.068000	0.705900	0.031700
C301	C30	0.870100	0.931900	0.045700
C311	C31	0.852100	0.717800	0.274200
C321	C32	0.924500	0.671700	0.367500
C331	C33	0.984200	0.606400	0.296600
C341	C34	0.078200	0.515900	0.275500
C351	C35	0.936800	0.680000	0.447400
C361	C36	0.136400	0.759900	0.415700
C371	C37	0.270700	0.663200	0.443400
C381	C38	0.249900	0.754100	0.452100
C391	C39	0.305600	0.794100	0.468300
C401	C40	0.347700	0.568100	0.454300
C411	C41	0.873700	0.274200	0.782200
C421	C42	0.708000	0.367500	0.828300
C431	C43	0.719200	0.296600	0.893600
C441	C44	0.646300	0.275500	0.984100
C451	C45	0.615800	0.447400	0.820000
C461	C46	0.447900	0.415700	0.740100
C471	C47	0.285900	0.443400	0.836800
C481	C48	0.298000	0.452100	0.745900
C491	C49	0.226100	0.468300	0.705900
C501	C50	0.198000	0.454300	0.931900
C511	C51	0.430100	0.225800	0.717800
C521	C52	0.403800	0.132500	0.671700
C531	C53	0.409400	0.203400	0.606400
C541	C54	0.405900	0.224500	0.515900
C551	C55	0.383200	0.052600	0.680000
C561	C56	0.103700	0.084300	0.759900
C571	C57	0.066100	0.056600	0.663200
C581	C58	0.996000	0.047900	0.754100
C591	C59	0.900300	0.031700	0.794100
C601	C60	0.084200	0.045700	0.568100
C611	C61	0.655900	0.217800	0.774200
C621	C62	0.536300	0.171700	0.867500
C631	C63	0.612800	0.106400	0.796600
C641	C64	0.630400	0.015900	0.775500
C651	C65	0.435800	0.180000	0.947400
C661	C66	0.188000	0.259900	0.915700
C671	C67	0.122700	0.163200	0.943400
C681	C68	0.043900	0.254100	0.952100
C691	C69	0.932000	0.294100	0.968300
C701	C70	0.129900	0.068100	0.954300
C711	C71	0.147900	0.282200	0.725800
C721	C72	0.075500	0.328300	0.632500
C731	C73	0.015800	0.393600	0.703400
C741	C74	0.921800	0.484100	0.724500
C751	C75	0.063200	0.320000	0.552600
C761	C76	0.863600	0.240100	0.584300
C771	C77	0.729300	0.336800	0.556600
C781	C78	0.750100	0.245900	0.547900
C791	C79	0.694400	0.205900	0.531700
C801	C80	0.652300	0.431900	0.545700
N11	N1	0.173900	0.762900	0.137100
N21	N2	0.192600	0.646600	0.243400
N31	N3	0.615800	0.580900	0.168100
N41	N4	0.598500	0.566700	0.315100
N51	N5	0.573900	0.737100	0.362900
N61	N6	0.582600	0.853400	0.256600
N71	N7	0.864800	0.919100	0.331900
N81	N8	0.980300	0.933300	0.184900
N91	N9	0.311000	0.862900	0.262900
N101	N10	0.436000	0.756600	0.146600
N111	N11	0.783900	0.831900	0.080900
N121	N12	0.913600	0.684900	0.066700
N131	N13	0.936800	0.637100	0.237100
N141	N14	0.839200	0.743400	0.353400
N151	N15	0.196700	0.668100	0.419100
N161	N16	0.165200	0.815100	0.433300
N171	N17	0.826100	0.237100	0.862900
N181	N18	0.807400	0.353400	0.756600
N191	N19	0.384200	0.419100	0.831900
N201	N20	0.401500	0.433300	0.684900
N211	N21	0.426100	0.262900	0.637100
N221	N22	0.417400	0.146600	0.743400
N231	N23	0.135200	0.080900	0.668100
N241	N24	0.019700	0.066700	0.815100
N251	N25	0.689000	0.137100	0.737100
N261	N26	0.564000	0.243400	0.853400
N271	N27	0.216100	0.168100	0.919100
N281	N28	0.086400	0.315100	0.933300
N291	N29	0.063200	0.362900	0.762900
N301	N30	0.160800	0.256600	0.646600
N311	N31	0.803300	0.331900	0.580900
N321	N32	0.834800	0.184900	0.566700
O11	O1	0.309670	0.793960	0.971100
O21	O2	0.453360	0.679120	0.982760
O31	O3	0.476800	0.544600	0.128600
O41	O4	0.365200	0.492100	0.242500
O51	O5	0.729030	0.543400	0.381940
O61	O6	0.871720	0.505880	0.243480
O71	O7	0.898860	0.513290	0.054190
O81	O8	0.778510	0.568060	0.000520
O91	O9	0.574730	0.706040	0.528900
O101	O10	0.615240	0.820880	0.517240
O111	O11	0.650000	0.955400	0.371400
O121	O12	0.599800	0.007900	0.257500
O131	O13	0.154370	0.956600	0.118060
O141	O14	0.121080	0.994120	0.256520
O151	O15	0.966340	0.986710	0.445810
O161	O16	0.847090	0.931940	0.499480
O171	O17	0.280770	0.028900	0.293960
O181	O18	0.436120	0.017240	0.179120
O191	O19	0.605400	0.871400	0.044600
O201	O20	0.607700	0.757500	0.992100
O211	O21	0.110970	0.618060	0.043400
O221	O22	0.115200	0.756520	0.005880
O231	O23	0.953050	0.945810	0.013290
O241	O24	0.779030	0.999480	0.068060
O251	O25	0.103630	0.471100	0.206040
O261	O26	0.132480	0.482760	0.320880
O271	O27	0.021400	0.628600	0.455400
O281	O28	0.857300	0.742500	0.507900
O291	O29	0.272430	0.881940	0.456600
O301	O30	0.377600	0.743480	0.494120
O311	O31	0.412150	0.554190	0.486710
O321	O32	0.346570	0.500520	0.431940
O331	O33	0.690330	0.206040	0.028900
O341	O34	0.546640	0.320880	0.017240
O351	O35	0.523200	0.455400	0.871400
O361	O36	0.634800	0.507900	0.757500
O371	O37	0.270970	0.456600	0.618060
O381	O38	0.128280	0.494120	0.756520
O391	O39	0.101140	0.486710	0.945810
O401	O40	0.221490	0.431940	0.999480
O411	O41	0.425270	0.293960	0.471100
O421	O42	0.384760	0.179120	0.482760
O431	O43	0.350000	0.044600	0.628600
O441	O44	0.400200	0.992100	0.742500
O451	O45	0.845630	0.043400	0.881940
O461	O46	0.878920	0.005880	0.743480
O471	O47	0.033660	0.013290	0.554190
O481	O48	0.152910	0.068060	0.500520
O491	O49	0.719230	0.971100	0.706040
O501	O50	0.563880	0.982760	0.820880
O511	O51	0.394600	0.128600	0.955400
O521	O52	0.392300	0.242500	0.007900
O531	O53	0.889030	0.381940	0.956600
O541	O54	0.884800	0.243480	0.994120
O551	O55	0.046950	0.054190	0.986710
O561	O56	0.220970	0.000520	0.931940
O571	O57	0.896370	0.528900	0.793960
O581	O58	0.867520	0.517240	0.679120
O591	O59	0.978600	0.371400	0.544600
O601	O60	0.142700	0.257500	0.492100
O611	O61	0.727570	0.118060	0.543400
O621	O62	0.622400	0.256520	0.505880
O631	O63	0.587850	0.445810	0.513290
O641	O64	0.653430	0.499480	0.568060
