data_KAWHEY_clean_PM
_symmetry_space_group_name_H-M	'P1'
_cell_length_a	29.720000
_cell_length_b	37.891000
_cell_length_c	37.650000
_cell_angle_alpha	90.000000
_cell_angle_beta	90.000000
_cell_angle_gamma	90.000000
_symmetry_Int_Tables_number 1

loop_
_symmetry_equiv_pos_as_xyz
'x,y,z'

loop_
_atom_site_label
_atom_site_type_symbol
_atom_site_fract_x
_atom_site_fract_y
_atom_site_fract_z
Zn11	Zn1	0.536810	0.669110	0.786330
Zn21	Zn2	0.606980	0.616450	0.842380
Zn31	Zn3	0.677570	0.564040	0.898200
O11	O1	0.391800	0.393600	0.288600
O21	O2	0.535900	0.617100	0.845100
O31	O3	0.115900	0.829800	0.157800
O41	O4	0.387100	0.374200	0.397400
O51	O5	0.824700	0.112400	0.661400
O61	O6	0.501200	0.665700	0.828810
O71	O7	0.367200	0.418200	0.432600
O81	O8	0.600200	0.562500	0.851700
O91	O9	0.660000	0.528800	0.862100
O101	O10	0.449600	0.372000	0.257680
O111	O11	0.088700	0.801100	0.204600
O121	O12	0.782700	0.103700	0.615000
C11	C1	0.507400	0.641200	0.851200
C21	C2	0.477800	0.640000	0.882560
C31	C3	0.449600	0.668000	0.890920
H11	H1	0.448700	0.687800	0.876300
C41	C4	0.422800	0.666600	0.921100
H21	H2	0.404000	0.685400	0.926700
C51	C5	0.424200	0.637000	0.943010
C61	C6	0.452400	0.609000	0.934600
H31	H3	0.453400	0.589200	0.949300
C71	C7	0.479200	0.610400	0.904400
H41	H4	0.498100	0.591600	0.898800
N11	N1	0.398100	0.634700	0.973380
C81	C8	0.402100	0.617200	0.004400
H51	H5	0.423400	0.600000	0.009600
C91	C9	0.369800	0.629000	0.026500
N21	N2	0.345900	0.653900	0.009200
N31	N3	0.363300	0.657300	0.976400
C101	C10	0.355800	0.617700	0.060610
C111	C11	0.371800	0.586400	0.075200
H61	H6	0.391400	0.572200	0.062300
C121	C12	0.358600	0.576400	0.109200
C131	C13	0.329400	0.597700	0.128510
H71	H7	0.320600	0.591000	0.151200
C141	C14	0.313300	0.628900	0.113900
C151	C15	0.326500	0.638900	0.079900
H81	H8	0.315800	0.659800	0.070100
C161	C16	0.374000	0.540900	0.124000
N41	N4	0.402800	0.521000	0.104700
N51	N5	0.416300	0.493600	0.125100
N61	N6	0.395800	0.496600	0.157100
C171	C17	0.369600	0.525800	0.156400
H91	H9	0.351800	0.534000	0.174900
C181	C18	0.400000	0.471200	0.182140
C191	C19	0.437600	0.449300	0.181880
H101	H10	0.459400	0.452000	0.164400
C201	C20	0.442500	0.423500	0.207800
H111	H11	0.467700	0.408900	0.207600
C211	C21	0.410000	0.419500	0.234000
C221	C22	0.372400	0.441400	0.234200
H121	H12	0.350600	0.438700	0.251800
C231	C23	0.367400	0.467200	0.208300
H131	H13	0.342300	0.481800	0.208500
C241	C24	0.417200	0.394300	0.262900
C251	C25	0.282600	0.651000	0.135000
C261	C26	0.260400	0.682200	0.128100
H141	H14	0.263100	0.695700	0.107600
N71	N7	0.233400	0.689700	0.156900
N81	N8	0.238900	0.663200	0.181400
N91	N9	0.269300	0.639300	0.168000
C271	C27	0.205400	0.717500	0.161500
C281	C28	0.180800	0.718500	0.192900
H151	H15	0.183800	0.700500	0.209500
C291	C29	0.151700	0.746500	0.199500
H161	H16	0.135300	0.747200	0.220500
C301	C30	0.147200	0.773400	0.174700
C311	C31	0.171700	0.772400	0.143300
H171	H17	0.168700	0.790400	0.126700
C321	C32	0.200800	0.744400	0.136700
H181	H18	0.217300	0.743700	0.115700
C331	C33	0.114400	0.802900	0.178500
C341	C34	0.623200	0.535300	0.846200
C351	C35	0.610600	0.509900	0.818100
C361	C36	0.641500	0.484800	0.806800
H191	H19	0.669300	0.482900	0.818000
C371	C37	0.630900	0.462500	0.778600
H201	H20	0.651600	0.445700	0.771100
C381	C38	0.589400	0.465300	0.761800
C391	C39	0.558500	0.490500	0.773200
H211	H21	0.530800	0.492400	0.761900
C401	C40	0.569100	0.512700	0.801300
H221	H22	0.548400	0.529500	0.808900
N101	N10	0.579300	0.440800	0.735100
C411	C41	0.595600	0.410600	0.724000
H231	H23	0.619200	0.398200	0.734200
C421	C42	0.572700	0.401000	0.695900
N111	N11	0.542200	0.425200	0.689600
N121	N12	0.546200	0.449900	0.713900
C431	C43	0.576700	0.369300	0.674600
C441	C44	0.603400	0.341300	0.685600
H241	H24	0.618100	0.342300	0.707400
C451	C45	0.608300	0.311700	0.664200
C461	C46	0.586300	0.310100	0.631600
H251	H25	0.589600	0.290300	0.617200
C471	C47	0.559600	0.338100	0.620500
C481	C48	0.554700	0.367700	0.642000
H261	H26	0.536800	0.386400	0.634600
N131	N13	0.658100	0.280200	0.706500
N141	N14	0.685600	0.251400	0.707200
N151	N15	0.684500	0.236100	0.674500
C491	C49	0.656500	0.255400	0.653500
H271	H27	0.649700	0.250800	0.629900
C501	C50	0.640200	0.282700	0.673300
C511	C51	0.704700	0.203500	0.668000
C521	C52	0.702100	0.185600	0.635900
H281	H28	0.680400	0.192000	0.619200
C531	C53	0.731700	0.158200	0.628600
H291	H29	0.730000	0.146200	0.607100
C541	C54	0.764100	0.148600	0.653500
C551	C55	0.766700	0.166600	0.685700
H301	H30	0.788400	0.160200	0.702300
C561	C56	0.737100	0.194000	0.692900
H311	H31	0.738800	0.206000	0.714400
C571	C57	0.788500	0.115900	0.645300
C581	C58	0.537100	0.335400	0.584200
C591	C59	0.512600	0.357700	0.567500
H321	H32	0.504700	0.380100	0.575400
N161	N16	0.500800	0.343600	0.538000
N171	N17	0.517900	0.312600	0.536500
N181	N18	0.540500	0.307600	0.565100
C601	C60	0.473100	0.354800	0.509400
C611	C61	0.466900	0.333700	0.479600
H331	H33	0.481200	0.311900	0.478100
C621	C62	0.439500	0.345100	0.452000
H341	H34	0.435300	0.331000	0.432100
C631	C63	0.418200	0.377700	0.454200
C641	C64	0.424400	0.398900	0.484000
H351	H35	0.410200	0.420700	0.485500
C651	C65	0.451900	0.387400	0.511600
H361	H36	0.456000	0.401500	0.531500
C661	C66	0.391700	0.391200	0.424900
Zn41	Zn4	0.036810	0.169110	0.786330
Zn51	Zn5	0.106980	0.116450	0.842380
Zn61	Zn6	0.177570	0.064040	0.898200
O131	O13	0.891800	0.893600	0.288600
O141	O14	0.035900	0.117100	0.845100
O151	O15	0.615900	0.329800	0.157800
O161	O16	0.887100	0.874200	0.397400
O171	O17	0.324700	0.612400	0.661400
O181	O18	0.001200	0.165700	0.828810
O191	O19	0.867200	0.918200	0.432600
O201	O20	0.100200	0.062500	0.851700
O211	O21	0.160000	0.028800	0.862100
O221	O22	0.949600	0.872000	0.257680
O231	O23	0.588700	0.301100	0.204600
O241	O24	0.282700	0.603700	0.615000
C671	C67	0.007400	0.141200	0.851200
C681	C68	0.977800	0.140000	0.882560
C691	C69	0.949600	0.168000	0.890920
H371	H37	0.948700	0.187800	0.876300
C701	C70	0.922800	0.166600	0.921100
H381	H38	0.904000	0.185400	0.926700
C711	C71	0.924200	0.137000	0.943010
C721	C72	0.952400	0.109000	0.934600
H391	H39	0.953400	0.089200	0.949300
C731	C73	0.979200	0.110400	0.904400
H401	H40	0.998100	0.091600	0.898800
N191	N19	0.898100	0.134700	0.973380
C741	C74	0.902100	0.117200	0.004400
H411	H41	0.923400	0.100000	0.009600
C751	C75	0.869800	0.129000	0.026500
N201	N20	0.845900	0.153900	0.009200
N211	N21	0.863300	0.157300	0.976400
C761	C76	0.855800	0.117700	0.060610
C771	C77	0.871800	0.086400	0.075200
H421	H42	0.891400	0.072200	0.062300
C781	C78	0.858600	0.076400	0.109200
C791	C79	0.829400	0.097700	0.128510
H431	H43	0.820600	0.091000	0.151200
C801	C80	0.813300	0.128900	0.113900
C811	C81	0.826500	0.138900	0.079900
H441	H44	0.815800	0.159800	0.070100
C821	C82	0.874000	0.040900	0.124000
N221	N22	0.902800	0.021000	0.104700
N231	N23	0.916300	0.993600	0.125100
N241	N24	0.895800	0.996600	0.157100
C831	C83	0.869600	0.025800	0.156400
H451	H45	0.851800	0.034000	0.174900
C841	C84	0.900000	0.971200	0.182140
C851	C85	0.937600	0.949300	0.181880
H461	H46	0.959400	0.952000	0.164400
C861	C86	0.942500	0.923500	0.207800
H471	H47	0.967700	0.908900	0.207600
C871	C87	0.910000	0.919500	0.234000
C881	C88	0.872400	0.941400	0.234200
H481	H48	0.850600	0.938700	0.251800
C891	C89	0.867400	0.967200	0.208300
H491	H49	0.842300	0.981800	0.208500
C901	C90	0.917200	0.894300	0.262900
C911	C91	0.782600	0.151000	0.135000
C921	C92	0.760400	0.182200	0.128100
H501	H50	0.763100	0.195700	0.107600
N251	N25	0.733400	0.189700	0.156900
N261	N26	0.738900	0.163200	0.181400
N271	N27	0.769300	0.139300	0.168000
C931	C93	0.705400	0.217500	0.161500
C941	C94	0.680800	0.218500	0.192900
H511	H51	0.683800	0.200500	0.209500
C951	C95	0.651700	0.246500	0.199500
H521	H52	0.635300	0.247200	0.220500
C961	C96	0.647200	0.273400	0.174700
C971	C97	0.671700	0.272400	0.143300
H531	H53	0.668700	0.290400	0.126700
C981	C98	0.700800	0.244400	0.136700
H541	H54	0.717300	0.243700	0.115700
C991	C99	0.614400	0.302900	0.178500
C1001	C100	0.123200	0.035300	0.846200
C1011	C101	0.110600	0.009900	0.818100
C1021	C102	0.141500	0.984800	0.806800
H551	H55	0.169300	0.982900	0.818000
C1031	C103	0.130900	0.962500	0.778600
H561	H56	0.151600	0.945700	0.771100
C1041	C104	0.089400	0.965300	0.761800
C1051	C105	0.058500	0.990500	0.773200
H571	H57	0.030800	0.992400	0.761900
C1061	C106	0.069100	0.012700	0.801300
H581	H58	0.048400	0.029500	0.808900
N281	N28	0.079300	0.940800	0.735100
C1071	C107	0.095600	0.910600	0.724000
H591	H59	0.119200	0.898200	0.734200
C1081	C108	0.072700	0.901000	0.695900
N291	N29	0.042200	0.925200	0.689600
N301	N30	0.046200	0.949900	0.713900
C1091	C109	0.076700	0.869300	0.674600
C1101	C110	0.103400	0.841300	0.685600
H601	H60	0.118100	0.842300	0.707400
C1111	C111	0.108300	0.811700	0.664200
C1121	C112	0.086300	0.810100	0.631600
H611	H61	0.089600	0.790300	0.617200
C1131	C113	0.059600	0.838100	0.620500
C1141	C114	0.054700	0.867700	0.642000
H621	H62	0.036800	0.886400	0.634600
N311	N31	0.158100	0.780200	0.706500
N321	N32	0.185600	0.751400	0.707200
N331	N33	0.184500	0.736100	0.674500
C1151	C115	0.156500	0.755400	0.653500
H631	H63	0.149700	0.750800	0.629900
C1161	C116	0.140200	0.782700	0.673300
C1171	C117	0.204700	0.703500	0.668000
C1181	C118	0.202100	0.685600	0.635900
H641	H64	0.180400	0.692000	0.619200
C1191	C119	0.231700	0.658200	0.628600
H651	H65	0.230000	0.646200	0.607100
C1201	C120	0.264100	0.648600	0.653500
C1211	C121	0.266700	0.666600	0.685700
H661	H66	0.288400	0.660200	0.702300
C1221	C122	0.237100	0.694000	0.692900
H671	H67	0.238800	0.706000	0.714400
C1231	C123	0.288500	0.615900	0.645300
C1241	C124	0.037100	0.835400	0.584200
C1251	C125	0.012600	0.857700	0.567500
H681	H68	0.004700	0.880100	0.575400
N341	N34	0.000800	0.843600	0.538000
N351	N35	0.017900	0.812600	0.536500
N361	N36	0.040500	0.807600	0.565100
C1261	C126	0.973100	0.854800	0.509400
C1271	C127	0.966900	0.833700	0.479600
H691	H69	0.981200	0.811900	0.478100
C1281	C128	0.939500	0.845100	0.452000
H701	H70	0.935300	0.831000	0.432100
C1291	C129	0.918200	0.877700	0.454200
C1301	C130	0.924400	0.898900	0.484000
H711	H71	0.910200	0.920700	0.485500
C1311	C131	0.951900	0.887400	0.511600
H721	H72	0.956000	0.901500	0.531500
C1321	C132	0.891700	0.891200	0.424900
Zn71	Zn7	0.463190	0.330890	0.286330
Zn81	Zn8	0.393020	0.383550	0.342380
Zn91	Zn9	0.322430	0.435960	0.398200
O251	O25	0.608200	0.606400	0.788600
O261	O26	0.464100	0.382900	0.345100
O271	O27	0.884100	0.170200	0.657800
O281	O28	0.612900	0.625800	0.897400
O291	O29	0.175300	0.887600	0.161400
O301	O30	0.498800	0.334300	0.328810
O311	O31	0.632800	0.581800	0.932600
O321	O32	0.399800	0.437500	0.351700
O331	O33	0.340000	0.471200	0.362100
O341	O34	0.550400	0.628000	0.757680
O351	O35	0.911300	0.198900	0.704600
O361	O36	0.217300	0.896300	0.115000
C1331	C133	0.492600	0.358800	0.351200
C1341	C134	0.522200	0.360000	0.382560
C1351	C135	0.550400	0.332000	0.390920
H731	H73	0.551300	0.312200	0.376300
C1361	C136	0.577200	0.333400	0.421100
H741	H74	0.596000	0.314600	0.426700
C1371	C137	0.575800	0.363000	0.443010
C1381	C138	0.547600	0.391000	0.434600
H751	H75	0.546600	0.410800	0.449300
C1391	C139	0.520800	0.389600	0.404400
H761	H76	0.501900	0.408400	0.398800
N371	N37	0.601900	0.365300	0.473380
C1401	C140	0.597900	0.382800	0.504400
H771	H77	0.576600	0.400000	0.509600
C1411	C141	0.630200	0.371000	0.526500
N381	N38	0.654100	0.346100	0.509200
N391	N39	0.636700	0.342700	0.476400
C1421	C142	0.644200	0.382300	0.560610
C1431	C143	0.628200	0.413600	0.575200
H781	H78	0.608600	0.427800	0.562300
C1441	C144	0.641400	0.423600	0.609200
C1451	C145	0.670600	0.402300	0.628510
H791	H79	0.679400	0.409000	0.651200
C1461	C146	0.686700	0.371100	0.613900
C1471	C147	0.673500	0.361100	0.579900
H801	H80	0.684200	0.340200	0.570100
C1481	C148	0.626000	0.459100	0.624000
N401	N40	0.597200	0.479000	0.604700
N411	N41	0.583700	0.506400	0.625100
N421	N42	0.604200	0.503400	0.657100
C1491	C149	0.630400	0.474200	0.656400
H811	H81	0.648200	0.466000	0.674900
C1501	C150	0.600000	0.528800	0.682140
C1511	C151	0.562400	0.550700	0.681880
H821	H82	0.540600	0.548000	0.664400
C1521	C152	0.557500	0.576500	0.707800
H831	H83	0.532300	0.591100	0.707600
C1531	C153	0.590000	0.580500	0.734000
C1541	C154	0.627600	0.558600	0.734200
H841	H84	0.649400	0.561300	0.751800
C1551	C155	0.632600	0.532800	0.708300
H851	H85	0.657700	0.518200	0.708500
C1561	C156	0.582800	0.605700	0.762900
C1571	C157	0.717400	0.349000	0.635000
C1581	C158	0.739600	0.317800	0.628100
H861	H86	0.736900	0.304300	0.607600
N431	N43	0.766600	0.310300	0.656900
N441	N44	0.761100	0.336800	0.681400
N451	N45	0.730700	0.360700	0.668000
C1591	C159	0.794600	0.282500	0.661500
C1601	C160	0.819200	0.281500	0.692900
H871	H87	0.816200	0.299500	0.709500
C1611	C161	0.848300	0.253500	0.699500
H881	H88	0.864700	0.252800	0.720500
C1621	C162	0.852800	0.226600	0.674700
C1631	C163	0.828300	0.227600	0.643300
H891	H89	0.831300	0.209600	0.626700
C1641	C164	0.799200	0.255600	0.636700
H901	H90	0.782700	0.256300	0.615700
C1651	C165	0.885600	0.197100	0.678500
C1661	C166	0.376800	0.464700	0.346200
C1671	C167	0.389400	0.490100	0.318100
C1681	C168	0.358500	0.515200	0.306800
H911	H91	0.330700	0.517100	0.318000
C1691	C169	0.369100	0.537500	0.278600
H921	H92	0.348400	0.554300	0.271100
C1701	C170	0.410600	0.534700	0.261800
C1711	C171	0.441500	0.509500	0.273200
H931	H93	0.469200	0.507600	0.261900
C1721	C172	0.430900	0.487300	0.301300
H941	H94	0.451600	0.470500	0.308900
N461	N46	0.420700	0.559200	0.235100
C1731	C173	0.404400	0.589400	0.224000
H951	H95	0.380800	0.601800	0.234200
C1741	C174	0.427300	0.599000	0.195900
N471	N47	0.457800	0.574800	0.189600
N481	N48	0.453800	0.550100	0.213900
C1751	C175	0.423300	0.630700	0.174600
C1761	C176	0.396600	0.658700	0.185600
H961	H96	0.381900	0.657700	0.207400
C1771	C177	0.391700	0.688300	0.164200
C1781	C178	0.413700	0.689900	0.131600
H971	H97	0.410400	0.709700	0.117200
C1791	C179	0.440400	0.661900	0.120500
C1801	C180	0.445300	0.632300	0.142000
H981	H98	0.463200	0.613600	0.134600
N491	N49	0.341900	0.719800	0.206500
N501	N50	0.314400	0.748600	0.207200
N511	N51	0.315500	0.763900	0.174500
C1811	C181	0.343500	0.744600	0.153500
H991	H99	0.350300	0.749200	0.129900
C1821	C182	0.359800	0.717300	0.173300
C1831	C183	0.295300	0.796500	0.168000
C1841	C184	0.297900	0.814400	0.135900
H1001	H100	0.319600	0.808000	0.119200
C1851	C185	0.268300	0.841800	0.128600
H1011	H101	0.270000	0.853800	0.107100
C1861	C186	0.235900	0.851400	0.153500
C1871	C187	0.233300	0.833400	0.185700
H1021	H102	0.211600	0.839800	0.202300
C1881	C188	0.262900	0.806000	0.192900
H1031	H103	0.261200	0.794000	0.214400
C1891	C189	0.211500	0.884100	0.145300
C1901	C190	0.462900	0.664600	0.084200
C1911	C191	0.487400	0.642300	0.067500
H1041	H104	0.495300	0.619900	0.075400
N521	N52	0.499200	0.656400	0.038000
N531	N53	0.482100	0.687400	0.036500
N541	N54	0.459500	0.692400	0.065100
C1921	C192	0.526900	0.645200	0.009400
C1931	C193	0.533100	0.666300	0.979600
H1051	H105	0.518800	0.688100	0.978100
C1941	C194	0.560500	0.654900	0.952000
H1061	H106	0.564700	0.669000	0.932100
C1951	C195	0.581800	0.622300	0.954200
C1961	C196	0.575600	0.601100	0.984000
H1071	H107	0.589800	0.579300	0.985500
C1971	C197	0.548100	0.612600	0.011600
H1081	H108	0.544000	0.598500	0.031500
C1981	C198	0.608300	0.608800	0.924900
Zn101	Zn10	0.963190	0.830890	0.286330
Zn111	Zn11	0.893020	0.883550	0.342380
Zn121	Zn12	0.822430	0.935960	0.398200
O371	O37	0.108200	0.106400	0.788600
O381	O38	0.964100	0.882900	0.345100
O391	O39	0.384100	0.670200	0.657800
O401	O40	0.112900	0.125800	0.897400
O411	O41	0.675300	0.387600	0.161400
O421	O42	0.998800	0.834300	0.328810
O431	O43	0.132800	0.081800	0.932600
O441	O44	0.899800	0.937500	0.351700
O451	O45	0.840000	0.971200	0.362100
O461	O46	0.050400	0.128000	0.757680
O471	O47	0.411300	0.698900	0.704600
O481	O48	0.717300	0.396300	0.115000
C1991	C199	0.992600	0.858800	0.351200
C2001	C200	0.022200	0.860000	0.382560
C2011	C201	0.050400	0.832000	0.390920
H1091	H109	0.051300	0.812200	0.376300
C2021	C202	0.077200	0.833400	0.421100
H1101	H110	0.096000	0.814600	0.426700
C2031	C203	0.075800	0.863000	0.443010
C2041	C204	0.047600	0.891000	0.434600
H1111	H111	0.046600	0.910800	0.449300
C2051	C205	0.020800	0.889600	0.404400
H1121	H112	0.001900	0.908400	0.398800
N551	N55	0.101900	0.865300	0.473380
C2061	C206	0.097900	0.882800	0.504400
H1131	H113	0.076600	0.900000	0.509600
C2071	C207	0.130200	0.871000	0.526500
N561	N56	0.154100	0.846100	0.509200
N571	N57	0.136700	0.842700	0.476400
C2081	C208	0.144200	0.882300	0.560610
C2091	C209	0.128200	0.913600	0.575200
H1141	H114	0.108600	0.927800	0.562300
C2101	C210	0.141400	0.923600	0.609200
C2111	C211	0.170600	0.902300	0.628510
H1151	H115	0.179400	0.909000	0.651200
C2121	C212	0.186700	0.871100	0.613900
C2131	C213	0.173500	0.861100	0.579900
H1161	H116	0.184200	0.840200	0.570100
C2141	C214	0.126000	0.959100	0.624000
N581	N58	0.097200	0.979000	0.604700
N591	N59	0.083700	0.006400	0.625100
N601	N60	0.104200	0.003400	0.657100
C2151	C215	0.130400	0.974200	0.656400
H1171	H117	0.148200	0.966000	0.674900
C2161	C216	0.100000	0.028800	0.682140
C2171	C217	0.062400	0.050700	0.681880
H1181	H118	0.040600	0.048000	0.664400
C2181	C218	0.057500	0.076500	0.707800
H1191	H119	0.032300	0.091100	0.707600
C2191	C219	0.090000	0.080500	0.734000
C2201	C220	0.127600	0.058600	0.734200
H1201	H120	0.149400	0.061300	0.751800
C2211	C221	0.132600	0.032800	0.708300
H1211	H121	0.157700	0.018200	0.708500
C2221	C222	0.082800	0.105700	0.762900
C2231	C223	0.217400	0.849000	0.635000
C2241	C224	0.239600	0.817800	0.628100
H1221	H122	0.236900	0.804300	0.607600
N611	N61	0.266600	0.810300	0.656900
N621	N62	0.261100	0.836800	0.681400
N631	N63	0.230700	0.860700	0.668000
C2251	C225	0.294600	0.782500	0.661500
C2261	C226	0.319200	0.781500	0.692900
H1231	H123	0.316200	0.799500	0.709500
C2271	C227	0.348300	0.753500	0.699500
H1241	H124	0.364700	0.752800	0.720500
C2281	C228	0.352800	0.726600	0.674700
C2291	C229	0.328300	0.727600	0.643300
H1251	H125	0.331300	0.709600	0.626700
C2301	C230	0.299200	0.755600	0.636700
H1261	H126	0.282700	0.756300	0.615700
C2311	C231	0.385600	0.697100	0.678500
C2321	C232	0.876800	0.964700	0.346200
C2331	C233	0.889400	0.990100	0.318100
C2341	C234	0.858500	0.015200	0.306800
H1271	H127	0.830700	0.017100	0.318000
C2351	C235	0.869100	0.037500	0.278600
H1281	H128	0.848400	0.054300	0.271100
C2361	C236	0.910600	0.034700	0.261800
C2371	C237	0.941500	0.009500	0.273200
H1291	H129	0.969200	0.007600	0.261900
C2381	C238	0.930900	0.987300	0.301300
H1301	H130	0.951600	0.970500	0.308900
N641	N64	0.920700	0.059200	0.235100
C2391	C239	0.904400	0.089400	0.224000
H1311	H131	0.880800	0.101800	0.234200
C2401	C240	0.927300	0.099000	0.195900
N651	N65	0.957800	0.074800	0.189600
N661	N66	0.953800	0.050100	0.213900
C2411	C241	0.923300	0.130700	0.174600
C2421	C242	0.896600	0.158700	0.185600
H1321	H132	0.881900	0.157700	0.207400
C2431	C243	0.891700	0.188300	0.164200
C2441	C244	0.913700	0.189900	0.131600
H1331	H133	0.910400	0.209700	0.117200
C2451	C245	0.940400	0.161900	0.120500
C2461	C246	0.945300	0.132300	0.142000
H1341	H134	0.963200	0.113600	0.134600
N671	N67	0.841900	0.219800	0.206500
N681	N68	0.814400	0.248600	0.207200
N691	N69	0.815500	0.263900	0.174500
C2471	C247	0.843500	0.244600	0.153500
H1351	H135	0.850300	0.249200	0.129900
C2481	C248	0.859800	0.217300	0.173300
C2491	C249	0.795300	0.296500	0.168000
C2501	C250	0.797900	0.314400	0.135900
H1361	H136	0.819600	0.308000	0.119200
C2511	C251	0.768300	0.341800	0.128600
H1371	H137	0.770000	0.353800	0.107100
C2521	C252	0.735900	0.351400	0.153500
C2531	C253	0.733300	0.333400	0.185700
H1381	H138	0.711600	0.339800	0.202300
C2541	C254	0.762900	0.306000	0.192900
H1391	H139	0.761200	0.294000	0.214400
C2551	C255	0.711500	0.384100	0.145300
C2561	C256	0.962900	0.164600	0.084200
C2571	C257	0.987400	0.142300	0.067500
H1401	H140	0.995300	0.119900	0.075400
N701	N70	0.999200	0.156400	0.038000
N711	N71	0.982100	0.187400	0.036500
N721	N72	0.959500	0.192400	0.065100
C2581	C258	0.026900	0.145200	0.009400
C2591	C259	0.033100	0.166300	0.979600
H1411	H141	0.018800	0.188100	0.978100
C2601	C260	0.060500	0.154900	0.952000
H1421	H142	0.064700	0.169000	0.932100
C2611	C261	0.081800	0.122300	0.954200
C2621	C262	0.075600	0.101100	0.984000
H1431	H143	0.089800	0.079300	0.985500
C2631	C263	0.048100	0.112600	0.011600
H1441	H144	0.044000	0.098500	0.031500
C2641	C264	0.108300	0.108800	0.924900
Zn131	Zn13	0.463190	0.669110	0.713670
Zn141	Zn14	0.393020	0.616450	0.657620
Zn151	Zn15	0.322430	0.564040	0.601800
O491	O49	0.608200	0.393600	0.211400
O501	O50	0.464100	0.617100	0.654900
O511	O51	0.884100	0.829800	0.342200
O521	O52	0.612900	0.374200	0.102600
O531	O53	0.175300	0.112400	0.838600
O541	O54	0.498800	0.665700	0.671190
O551	O55	0.632800	0.418200	0.067400
O561	O56	0.399800	0.562500	0.648300
O571	O57	0.340000	0.528800	0.637900
O581	O58	0.550400	0.372000	0.242320
O591	O59	0.911300	0.801100	0.295400
O601	O60	0.217300	0.103700	0.885000
C2651	C265	0.492600	0.641200	0.648800
C2661	C266	0.522200	0.640000	0.617440
C2671	C267	0.550400	0.668000	0.609080
H1451	H145	0.551300	0.687800	0.623700
C2681	C268	0.577200	0.666600	0.578900
H1461	H146	0.596000	0.685400	0.573300
C2691	C269	0.575800	0.637000	0.556990
C2701	C270	0.547600	0.609000	0.565400
H1471	H147	0.546600	0.589200	0.550700
C2711	C271	0.520800	0.610400	0.595600
H1481	H148	0.501900	0.591600	0.601200
N731	N73	0.601900	0.634700	0.526620
C2721	C272	0.597900	0.617200	0.495600
H1491	H149	0.576600	0.600000	0.490400
C2731	C273	0.630200	0.629000	0.473500
N741	N74	0.654100	0.653900	0.490800
N751	N75	0.636700	0.657300	0.523600
C2741	C274	0.644200	0.617700	0.439390
C2751	C275	0.628200	0.586400	0.424800
H1501	H150	0.608600	0.572200	0.437700
C2761	C276	0.641400	0.576400	0.390800
C2771	C277	0.670600	0.597700	0.371490
H1511	H151	0.679400	0.591000	0.348800
C2781	C278	0.686700	0.628900	0.386100
C2791	C279	0.673500	0.638900	0.420100
H1521	H152	0.684200	0.659800	0.429900
C2801	C280	0.626000	0.540900	0.376000
N761	N76	0.597200	0.521000	0.395300
N771	N77	0.583700	0.493600	0.374900
N781	N78	0.604200	0.496600	0.342900
C2811	C281	0.630400	0.525800	0.343600
H1531	H153	0.648200	0.534000	0.325100
C2821	C282	0.600000	0.471200	0.317860
C2831	C283	0.562400	0.449300	0.318120
H1541	H154	0.540600	0.452000	0.335600
C2841	C284	0.557500	0.423500	0.292200
H1551	H155	0.532300	0.408900	0.292400
C2851	C285	0.590000	0.419500	0.266000
C2861	C286	0.627600	0.441400	0.265800
H1561	H156	0.649400	0.438700	0.248200
C2871	C287	0.632600	0.467200	0.291700
H1571	H157	0.657700	0.481800	0.291500
C2881	C288	0.582800	0.394300	0.237100
C2891	C289	0.717400	0.651000	0.365000
C2901	C290	0.739600	0.682200	0.371900
H1581	H158	0.736900	0.695700	0.392400
N791	N79	0.766600	0.689700	0.343100
N801	N80	0.761100	0.663200	0.318600
N811	N81	0.730700	0.639300	0.332000
C2911	C291	0.794600	0.717500	0.338500
C2921	C292	0.819200	0.718500	0.307100
H1591	H159	0.816200	0.700500	0.290500
C2931	C293	0.848300	0.746500	0.300500
H1601	H160	0.864700	0.747200	0.279500
C2941	C294	0.852800	0.773400	0.325300
C2951	C295	0.828300	0.772400	0.356700
H1611	H161	0.831300	0.790400	0.373300
C2961	C296	0.799200	0.744400	0.363300
H1621	H162	0.782700	0.743700	0.384300
C2971	C297	0.885600	0.802900	0.321500
C2981	C298	0.376800	0.535300	0.653800
C2991	C299	0.389400	0.509900	0.681900
C3001	C300	0.358500	0.484800	0.693200
H1631	H163	0.330700	0.482900	0.682000
C3011	C301	0.369100	0.462500	0.721400
H1641	H164	0.348400	0.445700	0.728900
C3021	C302	0.410600	0.465300	0.738200
C3031	C303	0.441500	0.490500	0.726800
H1651	H165	0.469200	0.492400	0.738100
C3041	C304	0.430900	0.512700	0.698700
H1661	H166	0.451600	0.529500	0.691100
N821	N82	0.420700	0.440800	0.764900
C3051	C305	0.404400	0.410600	0.776000
H1671	H167	0.380800	0.398200	0.765800
C3061	C306	0.427300	0.401000	0.804100
N831	N83	0.457800	0.425200	0.810400
N841	N84	0.453800	0.449900	0.786100
C3071	C307	0.423300	0.369300	0.825400
C3081	C308	0.396600	0.341300	0.814400
H1681	H168	0.381900	0.342300	0.792600
C3091	C309	0.391700	0.311700	0.835800
C3101	C310	0.413700	0.310100	0.868400
H1691	H169	0.410400	0.290300	0.882800
C3111	C311	0.440400	0.338100	0.879500
C3121	C312	0.445300	0.367700	0.858000
H1701	H170	0.463200	0.386400	0.865400
N851	N85	0.341900	0.280200	0.793500
N861	N86	0.314400	0.251400	0.792800
N871	N87	0.315500	0.236100	0.825500
C3131	C313	0.343500	0.255400	0.846500
H1711	H171	0.350300	0.250800	0.870100
C3141	C314	0.359800	0.282700	0.826700
C3151	C315	0.295300	0.203500	0.832000
C3161	C316	0.297900	0.185600	0.864100
H1721	H172	0.319600	0.192000	0.880800
C3171	C317	0.268300	0.158200	0.871400
H1731	H173	0.270000	0.146200	0.892900
C3181	C318	0.235900	0.148600	0.846500
C3191	C319	0.233300	0.166600	0.814300
H1741	H174	0.211600	0.160200	0.797700
C3201	C320	0.262900	0.194000	0.807100
H1751	H175	0.261200	0.206000	0.785600
C3211	C321	0.211500	0.115900	0.854700
C3221	C322	0.462900	0.335400	0.915800
C3231	C323	0.487400	0.357700	0.932500
H1761	H176	0.495300	0.380100	0.924600
N881	N88	0.499200	0.343600	0.962000
N891	N89	0.482100	0.312600	0.963500
N901	N90	0.459500	0.307600	0.934900
C3241	C324	0.526900	0.354800	0.990600
C3251	C325	0.533100	0.333700	0.020400
H1771	H177	0.518800	0.311900	0.021900
C3261	C326	0.560500	0.345100	0.048000
H1781	H178	0.564700	0.331000	0.067900
C3271	C327	0.581800	0.377700	0.045800
C3281	C328	0.575600	0.398900	0.016000
H1791	H179	0.589800	0.420700	0.014500
C3291	C329	0.548100	0.387400	0.988400
H1801	H180	0.544000	0.401500	0.968500
C3301	C330	0.608300	0.391200	0.075100
Zn161	Zn16	0.963190	0.169110	0.713670
Zn171	Zn17	0.893020	0.116450	0.657620
Zn181	Zn18	0.822430	0.064040	0.601800
O611	O61	0.108200	0.893600	0.211400
O621	O62	0.964100	0.117100	0.654900
O631	O63	0.384100	0.329800	0.342200
O641	O64	0.112900	0.874200	0.102600
O651	O65	0.675300	0.612400	0.838600
O661	O66	0.998800	0.165700	0.671190
O671	O67	0.132800	0.918200	0.067400
O681	O68	0.899800	0.062500	0.648300
O691	O69	0.840000	0.028800	0.637900
O701	O70	0.050400	0.872000	0.242320
O711	O71	0.411300	0.301100	0.295400
O721	O72	0.717300	0.603700	0.885000
C3311	C331	0.992600	0.141200	0.648800
C3321	C332	0.022200	0.140000	0.617440
C3331	C333	0.050400	0.168000	0.609080
H1811	H181	0.051300	0.187800	0.623700
C3341	C334	0.077200	0.166600	0.578900
H1821	H182	0.096000	0.185400	0.573300
C3351	C335	0.075800	0.137000	0.556990
C3361	C336	0.047600	0.109000	0.565400
H1831	H183	0.046600	0.089200	0.550700
C3371	C337	0.020800	0.110400	0.595600
H1841	H184	0.001900	0.091600	0.601200
N911	N91	0.101900	0.134700	0.526620
C3381	C338	0.097900	0.117200	0.495600
H1851	H185	0.076600	0.100000	0.490400
C3391	C339	0.130200	0.129000	0.473500
N921	N92	0.154100	0.153900	0.490800
N931	N93	0.136700	0.157300	0.523600
C3401	C340	0.144200	0.117700	0.439390
C3411	C341	0.128200	0.086400	0.424800
H1861	H186	0.108600	0.072200	0.437700
C3421	C342	0.141400	0.076400	0.390800
C3431	C343	0.170600	0.097700	0.371490
H1871	H187	0.179400	0.091000	0.348800
C3441	C344	0.186700	0.128900	0.386100
C3451	C345	0.173500	0.138900	0.420100
H1881	H188	0.184200	0.159800	0.429900
C3461	C346	0.126000	0.040900	0.376000
N941	N94	0.097200	0.021000	0.395300
N951	N95	0.083700	0.993600	0.374900
N961	N96	0.104200	0.996600	0.342900
C3471	C347	0.130400	0.025800	0.343600
H1891	H189	0.148200	0.034000	0.325100
C3481	C348	0.100000	0.971200	0.317860
C3491	C349	0.062400	0.949300	0.318120
H1901	H190	0.040600	0.952000	0.335600
C3501	C350	0.057500	0.923500	0.292200
H1911	H191	0.032300	0.908900	0.292400
C3511	C351	0.090000	0.919500	0.266000
C3521	C352	0.127600	0.941400	0.265800
H1921	H192	0.149400	0.938700	0.248200
C3531	C353	0.132600	0.967200	0.291700
H1931	H193	0.157700	0.981800	0.291500
C3541	C354	0.082800	0.894300	0.237100
C3551	C355	0.217400	0.151000	0.365000
C3561	C356	0.239600	0.182200	0.371900
H1941	H194	0.236900	0.195700	0.392400
N971	N97	0.266600	0.189700	0.343100
N981	N98	0.261100	0.163200	0.318600
N991	N99	0.230700	0.139300	0.332000
C3571	C357	0.294600	0.217500	0.338500
C3581	C358	0.319200	0.218500	0.307100
H1951	H195	0.316200	0.200500	0.290500
C3591	C359	0.348300	0.246500	0.300500
H1961	H196	0.364700	0.247200	0.279500
C3601	C360	0.352800	0.273400	0.325300
C3611	C361	0.328300	0.272400	0.356700
H1971	H197	0.331300	0.290400	0.373300
C3621	C362	0.299200	0.244400	0.363300
H1981	H198	0.282700	0.243700	0.384300
C3631	C363	0.385600	0.302900	0.321500
C3641	C364	0.876800	0.035300	0.653800
C3651	C365	0.889400	0.009900	0.681900
C3661	C366	0.858500	0.984800	0.693200
H1991	H199	0.830700	0.982900	0.682000
C3671	C367	0.869100	0.962500	0.721400
H2001	H200	0.848400	0.945700	0.728900
C3681	C368	0.910600	0.965300	0.738200
C3691	C369	0.941500	0.990500	0.726800
H2011	H201	0.969200	0.992400	0.738100
C3701	C370	0.930900	0.012700	0.698700
H2021	H202	0.951600	0.029500	0.691100
N1001	N100	0.920700	0.940800	0.764900
C3711	C371	0.904400	0.910600	0.776000
H2031	H203	0.880800	0.898200	0.765800
C3721	C372	0.927300	0.901000	0.804100
N1011	N101	0.957800	0.925200	0.810400
N1021	N102	0.953800	0.949900	0.786100
C3731	C373	0.923300	0.869300	0.825400
C3741	C374	0.896600	0.841300	0.814400
H2041	H204	0.881900	0.842300	0.792600
C3751	C375	0.891700	0.811700	0.835800
C3761	C376	0.913700	0.810100	0.868400
H2051	H205	0.910400	0.790300	0.882800
C3771	C377	0.940400	0.838100	0.879500
C3781	C378	0.945300	0.867700	0.858000
H2061	H206	0.963200	0.886400	0.865400
N1031	N103	0.841900	0.780200	0.793500
N1041	N104	0.814400	0.751400	0.792800
N1051	N105	0.815500	0.736100	0.825500
C3791	C379	0.843500	0.755400	0.846500
H2071	H207	0.850300	0.750800	0.870100
C3801	C380	0.859800	0.782700	0.826700
C3811	C381	0.795300	0.703500	0.832000
C3821	C382	0.797900	0.685600	0.864100
H2081	H208	0.819600	0.692000	0.880800
C3831	C383	0.768300	0.658200	0.871400
H2091	H209	0.770000	0.646200	0.892900
C3841	C384	0.735900	0.648600	0.846500
C3851	C385	0.733300	0.666600	0.814300
H2101	H210	0.711600	0.660200	0.797700
C3861	C386	0.762900	0.694000	0.807100
H2111	H211	0.761200	0.706000	0.785600
C3871	C387	0.711500	0.615900	0.854700
C3881	C388	0.962900	0.835400	0.915800
C3891	C389	0.987400	0.857700	0.932500
H2121	H212	0.995300	0.880100	0.924600
N1061	N106	0.999200	0.843600	0.962000
N1071	N107	0.982100	0.812600	0.963500
N1081	N108	0.959500	0.807600	0.934900
C3901	C390	0.026900	0.854800	0.990600
C3911	C391	0.033100	0.833700	0.020400
H2131	H213	0.018800	0.811900	0.021900
C3921	C392	0.060500	0.845100	0.048000
H2141	H214	0.064700	0.831000	0.067900
C3931	C393	0.081800	0.877700	0.045800
C3941	C394	0.075600	0.898900	0.016000
H2151	H215	0.089800	0.920700	0.014500
C3951	C395	0.048100	0.887400	0.988400
H2161	H216	0.044000	0.901500	0.968500
C3961	C396	0.108300	0.891200	0.075100
Zn191	Zn19	0.536810	0.330890	0.213670
Zn201	Zn20	0.606980	0.383550	0.157620
Zn211	Zn21	0.677570	0.435960	0.101800
O731	O73	0.391800	0.606400	0.711400
O741	O74	0.535900	0.382900	0.154900
O751	O75	0.115900	0.170200	0.842200
O761	O76	0.387100	0.625800	0.602600
O771	O77	0.824700	0.887600	0.338600
O781	O78	0.501200	0.334300	0.171190
O791	O79	0.367200	0.581800	0.567400
O801	O80	0.600200	0.437500	0.148300
O811	O81	0.660000	0.471200	0.137900
O821	O82	0.449600	0.628000	0.742320
O831	O83	0.088700	0.198900	0.795400
O841	O84	0.782700	0.896300	0.385000
C3971	C397	0.507400	0.358800	0.148800
C3981	C398	0.477800	0.360000	0.117440
C3991	C399	0.449600	0.332000	0.109080
H2171	H217	0.448700	0.312200	0.123700
C4001	C400	0.422800	0.333400	0.078900
H2181	H218	0.404000	0.314600	0.073300
C4011	C401	0.424200	0.363000	0.056990
C4021	C402	0.452400	0.391000	0.065400
H2191	H219	0.453400	0.410800	0.050700
C4031	C403	0.479200	0.389600	0.095600
H2201	H220	0.498100	0.408400	0.101200
N1091	N109	0.398100	0.365300	0.026620
C4041	C404	0.402100	0.382800	0.995600
H2211	H221	0.423400	0.400000	0.990400
C4051	C405	0.369800	0.371000	0.973500
N1101	N110	0.345900	0.346100	0.990800
N1111	N111	0.363300	0.342700	0.023600
C4061	C406	0.355800	0.382300	0.939390
C4071	C407	0.371800	0.413600	0.924800
H2221	H222	0.391400	0.427800	0.937700
C4081	C408	0.358600	0.423600	0.890800
C4091	C409	0.329400	0.402300	0.871490
H2231	H223	0.320600	0.409000	0.848800
C4101	C410	0.313300	0.371100	0.886100
C4111	C411	0.326500	0.361100	0.920100
H2241	H224	0.315800	0.340200	0.929900
C4121	C412	0.374000	0.459100	0.876000
N1121	N112	0.402800	0.479000	0.895300
N1131	N113	0.416300	0.506400	0.874900
N1141	N114	0.395800	0.503400	0.842900
C4131	C413	0.369600	0.474200	0.843600
H2251	H225	0.351800	0.466000	0.825100
C4141	C414	0.400000	0.528800	0.817860
C4151	C415	0.437600	0.550700	0.818120
H2261	H226	0.459400	0.548000	0.835600
C4161	C416	0.442500	0.576500	0.792200
H2271	H227	0.467700	0.591100	0.792400
C4171	C417	0.410000	0.580500	0.766000
C4181	C418	0.372400	0.558600	0.765800
H2281	H228	0.350600	0.561300	0.748200
C4191	C419	0.367400	0.532800	0.791700
H2291	H229	0.342300	0.518200	0.791500
C4201	C420	0.417200	0.605700	0.737100
C4211	C421	0.282600	0.349000	0.865000
C4221	C422	0.260400	0.317800	0.871900
H2301	H230	0.263100	0.304300	0.892400
N1151	N115	0.233400	0.310300	0.843100
N1161	N116	0.238900	0.336800	0.818600
N1171	N117	0.269300	0.360700	0.832000
C4231	C423	0.205400	0.282500	0.838500
C4241	C424	0.180800	0.281500	0.807100
H2311	H231	0.183800	0.299500	0.790500
C4251	C425	0.151700	0.253500	0.800500
H2321	H232	0.135300	0.252800	0.779500
C4261	C426	0.147200	0.226600	0.825300
C4271	C427	0.171700	0.227600	0.856700
H2331	H233	0.168700	0.209600	0.873300
C4281	C428	0.200800	0.255600	0.863300
H2341	H234	0.217300	0.256300	0.884300
C4291	C429	0.114400	0.197100	0.821500
C4301	C430	0.623200	0.464700	0.153800
C4311	C431	0.610600	0.490100	0.181900
C4321	C432	0.641500	0.515200	0.193200
H2351	H235	0.669300	0.517100	0.182000
C4331	C433	0.630900	0.537500	0.221400
H2361	H236	0.651600	0.554300	0.228900
C4341	C434	0.589400	0.534700	0.238200
C4351	C435	0.558500	0.509500	0.226800
H2371	H237	0.530800	0.507600	0.238100
C4361	C436	0.569100	0.487300	0.198700
H2381	H238	0.548400	0.470500	0.191100
N1181	N118	0.579300	0.559200	0.264900
C4371	C437	0.595600	0.589400	0.276000
H2391	H239	0.619200	0.601800	0.265800
C4381	C438	0.572700	0.599000	0.304100
N1191	N119	0.542200	0.574800	0.310400
N1201	N120	0.546200	0.550100	0.286100
C4391	C439	0.576700	0.630700	0.325400
C4401	C440	0.603400	0.658700	0.314400
H2401	H240	0.618100	0.657700	0.292600
C4411	C441	0.608300	0.688300	0.335800
C4421	C442	0.586300	0.689900	0.368400
H2411	H241	0.589600	0.709700	0.382800
C4431	C443	0.559600	0.661900	0.379500
C4441	C444	0.554700	0.632300	0.358000
H2421	H242	0.536800	0.613600	0.365400
N1211	N121	0.658100	0.719800	0.293500
N1221	N122	0.685600	0.748600	0.292800
N1231	N123	0.684500	0.763900	0.325500
C4451	C445	0.656500	0.744600	0.346500
H2431	H243	0.649700	0.749200	0.370100
C4461	C446	0.640200	0.717300	0.326700
C4471	C447	0.704700	0.796500	0.332000
C4481	C448	0.702100	0.814400	0.364100
H2441	H244	0.680400	0.808000	0.380800
C4491	C449	0.731700	0.841800	0.371400
H2451	H245	0.730000	0.853800	0.392900
C4501	C450	0.764100	0.851400	0.346500
C4511	C451	0.766700	0.833400	0.314300
H2461	H246	0.788400	0.839800	0.297700
C4521	C452	0.737100	0.806000	0.307100
H2471	H247	0.738800	0.794000	0.285600
C4531	C453	0.788500	0.884100	0.354700
C4541	C454	0.537100	0.664600	0.415800
C4551	C455	0.512600	0.642300	0.432500
H2481	H248	0.504700	0.619900	0.424600
N1241	N124	0.500800	0.656400	0.462000
N1251	N125	0.517900	0.687400	0.463500
N1261	N126	0.540500	0.692400	0.434900
C4561	C456	0.473100	0.645200	0.490600
C4571	C457	0.466900	0.666300	0.520400
H2491	H249	0.481200	0.688100	0.521900
C4581	C458	0.439500	0.654900	0.548000
H2501	H250	0.435300	0.669000	0.567900
C4591	C459	0.418200	0.622300	0.545800
C4601	C460	0.424400	0.601100	0.516000
H2511	H251	0.410200	0.579300	0.514500
C4611	C461	0.451900	0.612600	0.488400
H2521	H252	0.456000	0.598500	0.468500
C4621	C462	0.391700	0.608800	0.575100
Zn221	Zn22	0.036810	0.830890	0.213670
Zn231	Zn23	0.106980	0.883550	0.157620
Zn241	Zn24	0.177570	0.935960	0.101800
O851	O85	0.891800	0.106400	0.711400
O861	O86	0.035900	0.882900	0.154900
O871	O87	0.615900	0.670200	0.842200
O881	O88	0.887100	0.125800	0.602600
O891	O89	0.324700	0.387600	0.338600
O901	O90	0.001200	0.834300	0.171190
O911	O91	0.867200	0.081800	0.567400
O921	O92	0.100200	0.937500	0.148300
O931	O93	0.160000	0.971200	0.137900
O941	O94	0.949600	0.128000	0.742320
O951	O95	0.588700	0.698900	0.795400
O961	O96	0.282700	0.396300	0.385000
C4631	C463	0.007400	0.858800	0.148800
C4641	C464	0.977800	0.860000	0.117440
C4651	C465	0.949600	0.832000	0.109080
H2531	H253	0.948700	0.812200	0.123700
C4661	C466	0.922800	0.833400	0.078900
H2541	H254	0.904000	0.814600	0.073300
C4671	C467	0.924200	0.863000	0.056990
C4681	C468	0.952400	0.891000	0.065400
H2551	H255	0.953400	0.910800	0.050700
C4691	C469	0.979200	0.889600	0.095600
H2561	H256	0.998100	0.908400	0.101200
N1271	N127	0.898100	0.865300	0.026620
C4701	C470	0.902100	0.882800	0.995600
H2571	H257	0.923400	0.900000	0.990400
C4711	C471	0.869800	0.871000	0.973500
N1281	N128	0.845900	0.846100	0.990800
N1291	N129	0.863300	0.842700	0.023600
C4721	C472	0.855800	0.882300	0.939390
C4731	C473	0.871800	0.913600	0.924800
H2581	H258	0.891400	0.927800	0.937700
C4741	C474	0.858600	0.923600	0.890800
C4751	C475	0.829400	0.902300	0.871490
H2591	H259	0.820600	0.909000	0.848800
C4761	C476	0.813300	0.871100	0.886100
C4771	C477	0.826500	0.861100	0.920100
H2601	H260	0.815800	0.840200	0.929900
C4781	C478	0.874000	0.959100	0.876000
N1301	N130	0.902800	0.979000	0.895300
N1311	N131	0.916300	0.006400	0.874900
N1321	N132	0.895800	0.003400	0.842900
C4791	C479	0.869600	0.974200	0.843600
H2611	H261	0.851800	0.966000	0.825100
C4801	C480	0.900000	0.028800	0.817860
C4811	C481	0.937600	0.050700	0.818120
H2621	H262	0.959400	0.048000	0.835600
C4821	C482	0.942500	0.076500	0.792200
H2631	H263	0.967700	0.091100	0.792400
C4831	C483	0.910000	0.080500	0.766000
C4841	C484	0.872400	0.058600	0.765800
H2641	H264	0.850600	0.061300	0.748200
C4851	C485	0.867400	0.032800	0.791700
H2651	H265	0.842300	0.018200	0.791500
C4861	C486	0.917200	0.105700	0.737100
C4871	C487	0.782600	0.849000	0.865000
C4881	C488	0.760400	0.817800	0.871900
H2661	H266	0.763100	0.804300	0.892400
N1331	N133	0.733400	0.810300	0.843100
N1341	N134	0.738900	0.836800	0.818600
N1351	N135	0.769300	0.860700	0.832000
C4891	C489	0.705400	0.782500	0.838500
C4901	C490	0.680800	0.781500	0.807100
H2671	H267	0.683800	0.799500	0.790500
C4911	C491	0.651700	0.753500	0.800500
H2681	H268	0.635300	0.752800	0.779500
C4921	C492	0.647200	0.726600	0.825300
C4931	C493	0.671700	0.727600	0.856700
H2691	H269	0.668700	0.709600	0.873300
C4941	C494	0.700800	0.755600	0.863300
H2701	H270	0.717300	0.756300	0.884300
C4951	C495	0.614400	0.697100	0.821500
C4961	C496	0.123200	0.964700	0.153800
C4971	C497	0.110600	0.990100	0.181900
C4981	C498	0.141500	0.015200	0.193200
H2711	H271	0.169300	0.017100	0.182000
C4991	C499	0.130900	0.037500	0.221400
H2721	H272	0.151600	0.054300	0.228900
C5001	C500	0.089400	0.034700	0.238200
C5011	C501	0.058500	0.009500	0.226800
H2731	H273	0.030800	0.007600	0.238100
C5021	C502	0.069100	0.987300	0.198700
H2741	H274	0.048400	0.970500	0.191100
N1361	N136	0.079300	0.059200	0.264900
C5031	C503	0.095600	0.089400	0.276000
H2751	H275	0.119200	0.101800	0.265800
C5041	C504	0.072700	0.099000	0.304100
N1371	N137	0.042200	0.074800	0.310400
N1381	N138	0.046200	0.050100	0.286100
C5051	C505	0.076700	0.130700	0.325400
C5061	C506	0.103400	0.158700	0.314400
H2761	H276	0.118100	0.157700	0.292600
C5071	C507	0.108300	0.188300	0.335800
C5081	C508	0.086300	0.189900	0.368400
H2771	H277	0.089600	0.209700	0.382800
C5091	C509	0.059600	0.161900	0.379500
C5101	C510	0.054700	0.132300	0.358000
H2781	H278	0.036800	0.113600	0.365400
N1391	N139	0.158100	0.219800	0.293500
N1401	N140	0.185600	0.248600	0.292800
N1411	N141	0.184500	0.263900	0.325500
C5111	C511	0.156500	0.244600	0.346500
H2791	H279	0.149700	0.249200	0.370100
C5121	C512	0.140200	0.217300	0.326700
C5131	C513	0.204700	0.296500	0.332000
C5141	C514	0.202100	0.314400	0.364100
H2801	H280	0.180400	0.308000	0.380800
C5151	C515	0.231700	0.341800	0.371400
H2811	H281	0.230000	0.353800	0.392900
C5161	C516	0.264100	0.351400	0.346500
C5171	C517	0.266700	0.333400	0.314300
H2821	H282	0.288400	0.339800	0.297700
C5181	C518	0.237100	0.306000	0.307100
H2831	H283	0.238800	0.294000	0.285600
C5191	C519	0.288500	0.384100	0.354700
C5201	C520	0.037100	0.164600	0.415800
C5211	C521	0.012600	0.142300	0.432500
H2841	H284	0.004700	0.119900	0.424600
N1421	N142	0.000800	0.156400	0.462000
N1431	N143	0.017900	0.187400	0.463500
N1441	N144	0.040500	0.192400	0.434900
C5221	C522	0.973100	0.145200	0.490600
C5231	C523	0.966900	0.166300	0.520400
H2851	H285	0.981200	0.188100	0.521900
C5241	C524	0.939500	0.154900	0.548000
H2861	H286	0.935300	0.169000	0.567900
C5251	C525	0.918200	0.122300	0.545800
C5261	C526	0.924400	0.101100	0.516000
H2871	H287	0.910200	0.079300	0.514500
C5271	C527	0.951900	0.112600	0.488400
H2881	H288	0.956000	0.098500	0.468500
C5281	C528	0.891700	0.108800	0.575100
O971	O97	0.500000	0.697600	0.750000
O981	O98	0.000000	0.197600	0.750000
O991	O99	0.500000	0.302400	0.250000
O1001	O100	0.000000	0.802400	0.250000
