data_KAYCIY_clean_PM
_symmetry_space_group_name_H-M	'P1'
_cell_length_a	12.050100
_cell_length_b	13.963800
_cell_length_c	14.707300
_cell_angle_alpha	98.257000
_cell_angle_beta	111.863000
_cell_angle_gamma	107.785000
_symmetry_Int_Tables_number 1

loop_
_symmetry_equiv_pos_as_xyz
'x,y,z'

loop_
_atom_site_label
_atom_site_type_symbol
_atom_site_fract_x
_atom_site_fract_y
_atom_site_fract_z
Ca11	Ca1	0.700800	0.580440	0.577210
Ca21	Ca2	0.461790	0.938290	0.137710
Ca31	Ca3	0.299200	0.419560	0.422790
Ca41	Ca4	0.538210	0.061710	0.862290
Ca51	Ca5	0.000000	0.000000	0.500000
Ca61	Ca6	0.000000	0.500000	0.000000
H11	H1	0.963500	0.793600	0.620600
H21	H2	0.509500	0.603400	0.366600
H31	H3	0.933400	0.649500	0.823200
H41	H4	0.253900	0.904500	0.904300
H51	H5	0.675400	0.866900	0.308600
H61	H6	0.301500	0.706700	0.152300
H71	H7	0.572300	0.797700	0.791100
H81	H8	0.311200	0.654900	0.883900
H91	H9	0.338500	0.493800	0.661000
H101	H10	0.036500	0.206400	0.379400
H111	H11	0.490500	0.396600	0.633400
H121	H12	0.066600	0.350500	0.176800
H131	H13	0.746100	0.095500	0.095700
H141	H14	0.324600	0.133100	0.691400
H151	H15	0.698500	0.293300	0.847700
H161	H16	0.427700	0.202300	0.208900
H171	H17	0.688800	0.345100	0.116100
H181	H18	0.661500	0.506200	0.339000
C11	C1	0.122230	0.861610	0.756030
C21	C2	0.101500	0.774800	0.881600
C31	C3	0.998700	0.788140	0.686710
C41	C4	0.385300	0.640820	0.256060
C51	C5	0.504100	0.652530	0.330420
C61	C6	0.614800	0.737600	0.350770
C71	C7	0.980700	0.704180	0.806180
C81	C8	0.172900	0.855300	0.855590
C91	C9	0.744600	0.755660	0.434240
C101	C10	0.531300	0.633390	0.646680
C111	C11	0.448200	0.742270	0.851350
C121	C12	0.465800	0.643480	0.714300
C131	C13	0.601500	0.809230	0.295020
C141	C14	0.381100	0.715120	0.203250
C151	C15	0.196800	0.941640	0.719080
C161	C16	0.492300	0.841980	0.933340
C171	C17	0.262700	0.551820	0.235770
C181	C18	0.150000	0.761300	0.988110
C191	C19	0.506700	0.738010	0.786340
C201	C20	0.350500	0.651700	0.840400
C211	C21	0.366400	0.557100	0.709700
C221	C22	0.877770	0.138390	0.243970
C231	C23	0.898500	0.225200	0.118400
C241	C24	0.001300	0.211860	0.313290
C251	C25	0.614700	0.359180	0.743940
C261	C26	0.495900	0.347470	0.669580
C271	C27	0.385200	0.262400	0.649230
C281	C28	0.019300	0.295820	0.193820
C291	C29	0.827100	0.144700	0.144410
C301	C30	0.255400	0.244340	0.565760
C311	C31	0.468700	0.366610	0.353320
C321	C32	0.551800	0.257730	0.148650
C331	C33	0.534200	0.356520	0.285700
C341	C34	0.398500	0.190770	0.704980
C351	C35	0.618900	0.284880	0.796750
C361	C36	0.803200	0.058360	0.280920
C371	C37	0.507700	0.158020	0.066660
C381	C38	0.737300	0.448180	0.764230
C391	C39	0.850000	0.238700	0.011890
C401	C40	0.493300	0.261990	0.213660
C411	C41	0.649500	0.348300	0.159600
C421	C42	0.633600	0.442900	0.290300
N11	N1	0.928260	0.710130	0.710310
N21	N2	0.487090	0.798840	0.222570
N31	N3	0.308600	0.559690	0.771300
N41	N4	0.071740	0.289870	0.289690
N51	N5	0.512910	0.201160	0.777430
N61	N6	0.691400	0.440310	0.228700
O11	O1	0.241800	0.838130	0.059080
O21	O2	0.747600	0.688420	0.481660
O31	O3	0.476150	0.553880	0.569630
O41	O4	0.316400	0.986780	0.773560
O51	O5	0.135780	0.956150	0.636200
O61	O6	0.159850	0.539430	0.163110
O71	O7	0.273150	0.496860	0.295430
O81	O8	0.840040	0.835040	0.450820
O91	O9	0.093830	0.674930	0.997740
O101	O10	0.558300	0.925910	0.925930
O111	O11	0.640400	0.701390	0.670920
O121	O12	0.459700	0.832000	0.003580
O131	O13	0.758200	0.161870	0.940920
O141	O14	0.252400	0.311580	0.518340
O151	O15	0.523850	0.446120	0.430370
O161	O16	0.683600	0.013220	0.226440
O171	O17	0.864220	0.043850	0.363800
O181	O18	0.840150	0.460570	0.836890
O191	O19	0.726850	0.503140	0.704570
O201	O20	0.159960	0.164960	0.549180
O211	O21	0.906170	0.325070	0.002260
O221	O22	0.441700	0.074090	0.074070
O231	O23	0.359600	0.298610	0.329080
O241	O24	0.540300	0.168000	0.996420
