data_KECRAL12_clean_PM
_symmetry_space_group_name_H-M	'P1'
_cell_length_a	8.694000
_cell_length_b	16.908000
_cell_length_c	21.157000
_cell_angle_alpha	90.000000
_cell_angle_beta	90.000000
_cell_angle_gamma	90.000000
_symmetry_Int_Tables_number 1

loop_
_symmetry_equiv_pos_as_xyz
'x,y,z'

loop_
_atom_site_label
_atom_site_type_symbol
_atom_site_fract_x
_atom_site_fract_y
_atom_site_fract_z
Cd11	Cd1	0.510490	0.124960	0.414980
C11	C1	0.720200	0.118000	0.357500
N11	N1	0.824200	0.112800	0.326400
C21	C2	0.300500	0.132200	0.357600
N21	N2	0.196600	0.134400	0.325700
C31	C3	0.521700	0.224800	0.481600
C41	C4	0.501400	0.024800	0.481700
N31	N3	0.498600	0.975200	0.518300
Cd21	Cd2	0.489510	0.875040	0.914980
C51	C5	0.279800	0.882000	0.857500
N41	N4	0.175800	0.887200	0.826400
C61	C6	0.699500	0.867800	0.857600
N51	N5	0.803400	0.865600	0.825700
C71	C7	0.478300	0.775200	0.981600
C81	C8	0.498600	0.975200	0.981700
N61	N6	0.501400	0.024800	0.018300
Cd31	Cd3	0.489510	0.624960	0.085020
C91	C9	0.279800	0.618000	0.142500
N71	N7	0.175800	0.612800	0.173600
C101	C10	0.699500	0.632200	0.142400
N81	N8	0.803400	0.634400	0.174300
C111	C11	0.478300	0.724800	0.018400
C121	C12	0.498600	0.524800	0.018300
N91	N9	0.501400	0.475200	0.981700
Cd41	Cd4	0.510490	0.375040	0.585020
C131	C13	0.720200	0.382000	0.642500
N101	N10	0.824200	0.387200	0.673600
C141	C14	0.300500	0.367800	0.642400
N111	N11	0.196600	0.365600	0.674300
C151	C15	0.521700	0.275200	0.518400
C161	C16	0.501400	0.475200	0.518300
N121	N12	0.498600	0.524800	0.481700
Cd51	Cd5	0.489510	0.875040	0.585020
C171	C17	0.279800	0.882000	0.642500
N131	N13	0.175800	0.887200	0.673600
C181	C18	0.699500	0.867800	0.642400
N141	N14	0.803400	0.865600	0.674300
C191	C19	0.478300	0.775200	0.518400
Cd61	Cd6	0.510490	0.124960	0.085020
C201	C20	0.720200	0.118000	0.142500
N151	N15	0.824200	0.112800	0.173600
C211	C21	0.300500	0.132200	0.142400
N161	N16	0.196600	0.134400	0.174300
C221	C22	0.521700	0.224800	0.018400
Cd71	Cd7	0.510490	0.375040	0.914980
C231	C23	0.720200	0.382000	0.857500
N171	N17	0.824200	0.387200	0.826400
C241	C24	0.300500	0.367800	0.857600
N181	N18	0.196600	0.365600	0.825700
C251	C25	0.521700	0.275200	0.981600
Cd81	Cd8	0.489510	0.624960	0.414980
C261	C26	0.279800	0.618000	0.357500
N191	N19	0.175800	0.612800	0.326400
C271	C27	0.699500	0.632200	0.357600
N201	N20	0.803400	0.634400	0.325700
C281	C28	0.478300	0.724800	0.481600
Cd91	Cd9	0.010460	0.123740	0.250000
Cd101	Cd10	0.989540	0.876260	0.750000
Cd111	Cd11	0.989540	0.623740	0.250000
Cd121	Cd12	0.010460	0.376260	0.750000
