data_KEDJAG16_clean_PM
_symmetry_space_group_name_H-M	'P1'
_cell_length_a	8.740700
_cell_length_b	33.988600
_cell_length_c	8.677100
_cell_angle_alpha	90.000000
_cell_angle_beta	107.725000
_cell_angle_gamma	90.000000
_symmetry_Int_Tables_number 1

loop_
_symmetry_equiv_pos_as_xyz
'x,y,z'

loop_
_atom_site_label
_atom_site_type_symbol
_atom_site_fract_x
_atom_site_fract_y
_atom_site_fract_z
Cu11	Cu1	0.750560	0.203580	0.485050
Cu21	Cu2	0.739800	0.045730	0.499240
O11	O1	0.894730	0.154180	0.613850
O21	O2	0.852910	0.090150	0.628730
O31	O3	0.622140	0.159990	0.362750
O41	O4	0.613360	0.094830	0.344550
O51	O5	0.624550	0.206620	0.647690
O61	O6	0.593900	0.248870	0.831240
O71	O7	0.877010	0.246040	0.621470
O81	O8	0.863060	0.287600	0.814870
O91	O9	0.908240	0.040430	0.382390
O101	O10	0.090300	0.998980	0.346430
O111	O11	0.571190	0.041630	0.616230
O121	O12	0.380030	0.999310	0.627480
C11	C1	0.819800	0.123490	0.564700
C21	C2	0.671100	0.126010	0.409700
C31	C3	0.814700	0.258860	0.724500
C41	C4	0.664400	0.236580	0.738100
C51	C5	0.000900	0.011050	0.421600
C61	C6	0.485600	0.011850	0.570600
Cu31	Cu3	0.249440	0.703580	0.014950
Cu41	Cu4	0.260200	0.545730	0.000760
O131	O13	0.105270	0.654180	0.886150
O141	O14	0.147090	0.590150	0.871270
O151	O15	0.377860	0.659990	0.137250
O161	O16	0.386640	0.594830	0.155450
O171	O17	0.375450	0.706620	0.852310
O181	O18	0.406100	0.748870	0.668760
O191	O19	0.122990	0.746040	0.878530
O201	O20	0.136940	0.787600	0.685130
O211	O21	0.091760	0.540430	0.117610
O221	O22	0.909700	0.498980	0.153570
O231	O23	0.428810	0.541630	0.883770
O241	O24	0.619970	0.499310	0.872520
C71	C7	0.180200	0.623490	0.935300
C81	C8	0.328900	0.626010	0.090300
C91	C9	0.185300	0.758860	0.775500
C101	C10	0.335600	0.736580	0.761900
C111	C11	0.999100	0.511050	0.078400
C121	C12	0.514400	0.511850	0.929400
Cu51	Cu5	0.249440	0.796420	0.514950
Cu61	Cu6	0.260200	0.954270	0.500760
O251	O25	0.105270	0.845820	0.386150
O261	O26	0.147090	0.909850	0.371270
O271	O27	0.377860	0.840010	0.637250
O281	O28	0.386640	0.905170	0.655450
O291	O29	0.375450	0.793380	0.352310
O301	O30	0.406100	0.751130	0.168760
O311	O31	0.122990	0.753960	0.378530
O321	O32	0.136940	0.712400	0.185130
O331	O33	0.091760	0.959570	0.617610
O341	O34	0.909700	0.001020	0.653570
O351	O35	0.428810	0.958370	0.383770
O361	O36	0.619970	0.000690	0.372520
C131	C13	0.180200	0.876510	0.435300
C141	C14	0.328900	0.873990	0.590300
C151	C15	0.185300	0.741140	0.275500
C161	C16	0.335600	0.763420	0.261900
C171	C17	0.999100	0.988950	0.578400
C181	C18	0.514400	0.988150	0.429400
Cu71	Cu7	0.750560	0.296420	0.985050
Cu81	Cu8	0.739800	0.454270	0.999240
O371	O37	0.894730	0.345820	0.113850
O381	O38	0.852910	0.409850	0.128730
O391	O39	0.622140	0.340010	0.862750
O401	O40	0.613360	0.405170	0.844550
O411	O41	0.624550	0.293380	0.147690
O421	O42	0.593900	0.251130	0.331240
O431	O43	0.877010	0.253960	0.121470
O441	O44	0.863060	0.212400	0.314870
O451	O45	0.908240	0.459570	0.882390
O461	O46	0.090300	0.501020	0.846430
O471	O47	0.571190	0.458370	0.116230
O481	O48	0.380030	0.500690	0.127480
C191	C19	0.819800	0.376510	0.064700
C201	C20	0.671100	0.373990	0.909700
C211	C21	0.814700	0.241140	0.224500
C221	C22	0.664400	0.263420	0.238100
C231	C23	0.000900	0.488950	0.921600
C241	C24	0.485600	0.488150	0.070600
