data_KEDJAG24_clean_PM
_symmetry_space_group_name_H-M	'P1'
_cell_length_a	8.829400
_cell_length_b	33.771900
_cell_length_c	8.805200
_cell_angle_alpha	90.000000
_cell_angle_beta	107.901000
_cell_angle_gamma	90.000000
_symmetry_Int_Tables_number 1

loop_
_symmetry_equiv_pos_as_xyz
'x,y,z'

loop_
_atom_site_label
_atom_site_type_symbol
_atom_site_fract_x
_atom_site_fract_y
_atom_site_fract_z
Cu11	Cu1	0.746970	0.204060	0.497620
Cu21	Cu2	0.742450	0.045690	0.502130
O11	O1	0.886460	0.155330	0.623270
O21	O2	0.857210	0.090450	0.631350
O31	O3	0.618240	0.159760	0.375130
O41	O4	0.615620	0.094300	0.356510
O51	O5	0.619710	0.208020	0.660850
O61	O6	0.598500	0.249700	0.847000
O71	O7	0.874600	0.246180	0.638220
O81	O8	0.863650	0.287590	0.829740
O91	O9	0.910750	0.040120	0.381180
O101	O10	0.092000	0.998230	0.350780
O111	O11	0.575430	0.040320	0.622360
O121	O12	0.382410	0.998520	0.625980
C11	C1	0.818700	0.123930	0.572200
C21	C2	0.669900	0.126040	0.420300
C31	C3	0.814500	0.259190	0.738800
C41	C4	0.664700	0.237290	0.752100
C51	C5	0.002200	0.010860	0.422500
C61	C6	0.488000	0.011390	0.571800
Cu31	Cu3	0.253030	0.704060	0.002380
Cu41	Cu4	0.257550	0.545690	0.997870
O131	O13	0.113540	0.655330	0.876730
O141	O14	0.142790	0.590450	0.868650
O151	O15	0.381760	0.659760	0.124870
O161	O16	0.384380	0.594300	0.143490
O171	O17	0.380290	0.708020	0.839150
O181	O18	0.401500	0.749700	0.653000
O191	O19	0.125400	0.746180	0.861780
O201	O20	0.136350	0.787590	0.670260
O211	O21	0.089250	0.540120	0.118820
O221	O22	0.908000	0.498230	0.149220
O231	O23	0.424570	0.540320	0.877640
O241	O24	0.617590	0.498520	0.874020
C71	C7	0.181300	0.623930	0.927800
C81	C8	0.330100	0.626040	0.079700
C91	C9	0.185500	0.759190	0.761200
C101	C10	0.335300	0.737290	0.747900
C111	C11	0.997800	0.510860	0.077500
C121	C12	0.512000	0.511390	0.928200
Cu51	Cu5	0.253030	0.795940	0.502380
Cu61	Cu6	0.257550	0.954310	0.497870
O251	O25	0.113540	0.844670	0.376730
O261	O26	0.142790	0.909550	0.368650
O271	O27	0.381760	0.840240	0.624870
O281	O28	0.384380	0.905700	0.643490
O291	O29	0.380290	0.791980	0.339150
O301	O30	0.401500	0.750300	0.153000
O311	O31	0.125400	0.753820	0.361780
O321	O32	0.136350	0.712410	0.170260
O331	O33	0.089250	0.959880	0.618820
O341	O34	0.908000	0.001770	0.649220
O351	O35	0.424570	0.959680	0.377640
O361	O36	0.617590	0.001480	0.374020
C131	C13	0.181300	0.876070	0.427800
C141	C14	0.330100	0.873960	0.579700
C151	C15	0.185500	0.740810	0.261200
C161	C16	0.335300	0.762710	0.247900
C171	C17	0.997800	0.989140	0.577500
C181	C18	0.512000	0.988610	0.428200
Cu71	Cu7	0.746970	0.295940	0.997620
Cu81	Cu8	0.742450	0.454310	0.002130
O371	O37	0.886460	0.344670	0.123270
O381	O38	0.857210	0.409550	0.131350
O391	O39	0.618240	0.340240	0.875130
O401	O40	0.615620	0.405700	0.856510
O411	O41	0.619710	0.291980	0.160850
O421	O42	0.598500	0.250300	0.347000
O431	O43	0.874600	0.253820	0.138220
O441	O44	0.863650	0.212410	0.329740
O451	O45	0.910750	0.459880	0.881180
O461	O46	0.092000	0.501770	0.850780
O471	O47	0.575430	0.459680	0.122360
O481	O48	0.382410	0.501480	0.125980
C191	C19	0.818700	0.376070	0.072200
C201	C20	0.669900	0.373960	0.920300
C211	C21	0.814500	0.240810	0.238800
C221	C22	0.664700	0.262710	0.252100
C231	C23	0.002200	0.489140	0.922500
C241	C24	0.488000	0.488610	0.071800
