data_KEDJAG28_clean_PM
_symmetry_space_group_name_H-M	'P1'
_cell_length_a	8.883900
_cell_length_b	33.650700
_cell_length_c	8.873700
_cell_angle_alpha	90.000000
_cell_angle_beta	108.061000
_cell_angle_gamma	90.000000
_symmetry_Int_Tables_number 1

loop_
_symmetry_equiv_pos_as_xyz
'x,y,z'

loop_
_atom_site_label
_atom_site_type_symbol
_atom_site_fract_x
_atom_site_fract_y
_atom_site_fract_z
Cu11	Cu1	0.741300	0.204400	0.509620
Cu21	Cu2	0.743320	0.045430	0.504050
O11	O1	0.879630	0.155590	0.632190
O21	O2	0.858030	0.090380	0.634160
O31	O3	0.613300	0.159740	0.386920
O41	O4	0.615900	0.094480	0.363000
O51	O5	0.613540	0.208480	0.671680
O61	O6	0.595200	0.249360	0.859200
O71	O7	0.868500	0.246380	0.651900
O81	O8	0.859600	0.287120	0.844600
O91	O9	0.909900	0.040020	0.382420
O101	O10	0.090800	0.998510	0.352600
O111	O11	0.578800	0.039510	0.625260
O121	O12	0.383800	0.998430	0.625200
C11	C1	0.815600	0.124050	0.578800
C21	C2	0.667400	0.126120	0.428400
C31	C3	0.810200	0.259130	0.752200
C41	C4	0.660000	0.237360	0.763600
C51	C5	0.001400	0.010910	0.423500
C61	C6	0.489400	0.011160	0.572200
Cu31	Cu3	0.258700	0.704400	0.990380
Cu41	Cu4	0.256680	0.545430	0.995950
O131	O13	0.120370	0.655590	0.867810
O141	O14	0.141970	0.590380	0.865840
O151	O15	0.386700	0.659740	0.113080
O161	O16	0.384100	0.594480	0.137000
O171	O17	0.386460	0.708480	0.828320
O181	O18	0.404800	0.749360	0.640800
O191	O19	0.131500	0.746380	0.848100
O201	O20	0.140400	0.787120	0.655400
O211	O21	0.090100	0.540020	0.117580
O221	O22	0.909200	0.498510	0.147400
O231	O23	0.421200	0.539510	0.874740
O241	O24	0.616200	0.498430	0.874800
C71	C7	0.184400	0.624050	0.921200
C81	C8	0.332600	0.626120	0.071600
C91	C9	0.189800	0.759130	0.747800
C101	C10	0.340000	0.737360	0.736400
C111	C11	0.998600	0.510910	0.076500
C121	C12	0.510600	0.511160	0.927800
Cu51	Cu5	0.258700	0.795600	0.490380
Cu61	Cu6	0.256680	0.954570	0.495950
O251	O25	0.120370	0.844410	0.367810
O261	O26	0.141970	0.909620	0.365840
O271	O27	0.386700	0.840260	0.613080
O281	O28	0.384100	0.905520	0.637000
O291	O29	0.386460	0.791520	0.328320
O301	O30	0.404800	0.750640	0.140800
O311	O31	0.131500	0.753620	0.348100
O321	O32	0.140400	0.712880	0.155400
O331	O33	0.090100	0.959980	0.617580
O341	O34	0.909200	0.001490	0.647400
O351	O35	0.421200	0.960490	0.374740
O361	O36	0.616200	0.001570	0.374800
C131	C13	0.184400	0.875950	0.421200
C141	C14	0.332600	0.873880	0.571600
C151	C15	0.189800	0.740870	0.247800
C161	C16	0.340000	0.762640	0.236400
C171	C17	0.998600	0.989090	0.576500
C181	C18	0.510600	0.988840	0.427800
Cu71	Cu7	0.741300	0.295600	0.009620
Cu81	Cu8	0.743320	0.454570	0.004050
O371	O37	0.879630	0.344410	0.132190
O381	O38	0.858030	0.409620	0.134160
O391	O39	0.613300	0.340260	0.886920
O401	O40	0.615900	0.405520	0.863000
O411	O41	0.613540	0.291520	0.171680
O421	O42	0.595200	0.250640	0.359200
O431	O43	0.868500	0.253620	0.151900
O441	O44	0.859600	0.212880	0.344600
O451	O45	0.909900	0.459980	0.882420
O461	O46	0.090800	0.501490	0.852600
O471	O47	0.578800	0.460490	0.125260
O481	O48	0.383800	0.501570	0.125200
C191	C19	0.815600	0.375950	0.078800
C201	C20	0.667400	0.373880	0.928400
C211	C21	0.810200	0.240870	0.252200
C221	C22	0.660000	0.262640	0.263600
C231	C23	0.001400	0.489090	0.923500
C241	C24	0.489400	0.488840	0.072200
