data_KEDJAG20_clean_PM
_symmetry_space_group_name_H-M	'P1'
_cell_length_a	8.773400
_cell_length_b	33.894400
_cell_length_c	8.728100
_cell_angle_alpha	90.000000
_cell_angle_beta	107.797000
_cell_angle_gamma	90.000000
_symmetry_Int_Tables_number 1

loop_
_symmetry_equiv_pos_as_xyz
'x,y,z'

loop_
_atom_site_label
_atom_site_type_symbol
_atom_site_fract_x
_atom_site_fract_y
_atom_site_fract_z
Cu11	Cu1	0.750560	0.203720	0.488560
Cu21	Cu2	0.741130	0.045790	0.500200
O11	O1	0.892440	0.154770	0.616210
O21	O2	0.855560	0.090360	0.629300
O31	O3	0.621540	0.159830	0.366320
O41	O4	0.614900	0.094540	0.349320
O51	O5	0.624030	0.207250	0.651750
O61	O6	0.597840	0.249390	0.836520
O71	O7	0.877770	0.246050	0.626410
O81	O8	0.865070	0.287620	0.819100
O91	O9	0.909920	0.040260	0.381020
O101	O10	0.091500	0.998410	0.348700
O111	O11	0.572510	0.041150	0.618710
O121	O12	0.381160	0.998890	0.627200
C11	C1	0.820200	0.123740	0.566700
C21	C2	0.671400	0.125900	0.413100
C31	C3	0.816300	0.258980	0.729000
C41	C4	0.666200	0.236960	0.742400
C51	C5	0.001900	0.010760	0.421700
C61	C6	0.486600	0.011630	0.571300
Cu31	Cu3	0.249440	0.703720	0.011440
Cu41	Cu4	0.258870	0.545790	0.999800
O131	O13	0.107560	0.654770	0.883790
O141	O14	0.144440	0.590360	0.870700
O151	O15	0.378460	0.659830	0.133680
O161	O16	0.385100	0.594540	0.150680
O171	O17	0.375970	0.707250	0.848250
O181	O18	0.402160	0.749390	0.663480
O191	O19	0.122230	0.746050	0.873590
O201	O20	0.134930	0.787620	0.680900
O211	O21	0.090080	0.540260	0.118980
O221	O22	0.908500	0.498410	0.151300
O231	O23	0.427490	0.541150	0.881290
O241	O24	0.618840	0.498890	0.872800
C71	C7	0.179800	0.623740	0.933300
C81	C8	0.328600	0.625900	0.086900
C91	C9	0.183700	0.758980	0.771000
C101	C10	0.333800	0.736960	0.757600
C111	C11	0.998100	0.510760	0.078300
C121	C12	0.513400	0.511630	0.928700
Cu51	Cu5	0.249440	0.796280	0.511440
Cu61	Cu6	0.258870	0.954210	0.499800
O251	O25	0.107560	0.845230	0.383790
O261	O26	0.144440	0.909640	0.370700
O271	O27	0.378460	0.840170	0.633680
O281	O28	0.385100	0.905460	0.650680
O291	O29	0.375970	0.792750	0.348250
O301	O30	0.402160	0.750610	0.163480
O311	O31	0.122230	0.753950	0.373590
O321	O32	0.134930	0.712380	0.180900
O331	O33	0.090080	0.959740	0.618980
O341	O34	0.908500	0.001590	0.651300
O351	O35	0.427490	0.958850	0.381290
O361	O36	0.618840	0.001110	0.372800
C131	C13	0.179800	0.876260	0.433300
C141	C14	0.328600	0.874100	0.586900
C151	C15	0.183700	0.741020	0.271000
C161	C16	0.333800	0.763040	0.257600
C171	C17	0.998100	0.989240	0.578300
C181	C18	0.513400	0.988370	0.428700
Cu71	Cu7	0.750560	0.296280	0.988560
Cu81	Cu8	0.741130	0.454210	0.000200
O371	O37	0.892440	0.345230	0.116210
O381	O38	0.855560	0.409640	0.129300
O391	O39	0.621540	0.340170	0.866320
O401	O40	0.614900	0.405460	0.849320
O411	O41	0.624030	0.292750	0.151750
O421	O42	0.597840	0.250610	0.336520
O431	O43	0.877770	0.253950	0.126410
O441	O44	0.865070	0.212380	0.319100
O451	O45	0.909920	0.459740	0.881020
O461	O46	0.091500	0.501590	0.848700
O471	O47	0.572510	0.458850	0.118710
O481	O48	0.381160	0.501110	0.127200
C191	C19	0.820200	0.376260	0.066700
C201	C20	0.671400	0.374100	0.913100
C211	C21	0.816300	0.241020	0.229000
C221	C22	0.666200	0.263040	0.242400
C231	C23	0.001900	0.489240	0.921700
C241	C24	0.486600	0.488370	0.071300
