data_KEDJAG22_clean_PM
_symmetry_space_group_name_H-M	'P1'
_cell_length_a	8.797900
_cell_length_b	33.818700
_cell_length_c	8.762200
_cell_angle_alpha	90.000000
_cell_angle_beta	107.854000
_cell_angle_gamma	90.000000
_symmetry_Int_Tables_number 1

loop_
_symmetry_equiv_pos_as_xyz
'x,y,z'

loop_
_atom_site_label
_atom_site_type_symbol
_atom_site_fract_x
_atom_site_fract_y
_atom_site_fract_z
C11	C1	0.819600	0.123830	0.569100
C21	C2	0.671000	0.125970	0.416100
C31	C3	0.815800	0.259120	0.733100
C41	C4	0.666400	0.237200	0.746800
C51	C5	0.002100	0.010770	0.422000
C61	C6	0.487100	0.011500	0.571400
O11	O1	0.889930	0.155100	0.619070
O21	O2	0.856680	0.090430	0.630200
O31	O3	0.620210	0.159710	0.369890
O41	O4	0.615510	0.094320	0.352880
O51	O5	0.622390	0.207620	0.655790
O61	O6	0.599000	0.249740	0.841100
O71	O7	0.877090	0.246100	0.631580
O81	O8	0.864800	0.287710	0.823340
O91	O9	0.910230	0.040120	0.380880
O101	O10	0.091800	0.998260	0.349830
O111	O11	0.573970	0.040850	0.620430
O121	O12	0.381570	0.998740	0.626860
Cu11	Cu1	0.749420	0.203870	0.492380
Cu21	Cu2	0.741830	0.045770	0.501070
C71	C7	0.180400	0.623830	0.930900
C81	C8	0.329000	0.625970	0.083900
C91	C9	0.184200	0.759120	0.766900
C101	C10	0.333600	0.737200	0.753200
C111	C11	0.997900	0.510770	0.078000
C121	C12	0.512900	0.511500	0.928600
O131	O13	0.110070	0.655100	0.880930
O141	O14	0.143320	0.590430	0.869800
O151	O15	0.379790	0.659710	0.130110
O161	O16	0.384490	0.594320	0.147120
O171	O17	0.377610	0.707620	0.844210
O181	O18	0.401000	0.749740	0.658900
O191	O19	0.122910	0.746100	0.868420
O201	O20	0.135200	0.787710	0.676660
O211	O21	0.089770	0.540120	0.119120
O221	O22	0.908200	0.498260	0.150170
O231	O23	0.426030	0.540850	0.879570
O241	O24	0.618430	0.498740	0.873140
Cu31	Cu3	0.250580	0.703870	0.007620
Cu41	Cu4	0.258170	0.545770	0.998930
C131	C13	0.180400	0.876170	0.430900
C141	C14	0.329000	0.874030	0.583900
C151	C15	0.184200	0.740880	0.266900
C161	C16	0.333600	0.762800	0.253200
C171	C17	0.997900	0.989230	0.578000
C181	C18	0.512900	0.988500	0.428600
O251	O25	0.110070	0.844900	0.380930
O261	O26	0.143320	0.909570	0.369800
O271	O27	0.379790	0.840290	0.630110
O281	O28	0.384490	0.905680	0.647120
O291	O29	0.377610	0.792380	0.344210
O301	O30	0.401000	0.750260	0.158900
O311	O31	0.122910	0.753900	0.368420
O321	O32	0.135200	0.712290	0.176660
O331	O33	0.089770	0.959880	0.619120
O341	O34	0.908200	0.001740	0.650170
O351	O35	0.426030	0.959150	0.379570
O361	O36	0.618430	0.001260	0.373140
Cu51	Cu5	0.250580	0.796130	0.507620
Cu61	Cu6	0.258170	0.954230	0.498930
C191	C19	0.819600	0.376170	0.069100
C201	C20	0.671000	0.374030	0.916100
C211	C21	0.815800	0.240880	0.233100
C221	C22	0.666400	0.262800	0.246800
C231	C23	0.002100	0.489230	0.922000
C241	C24	0.487100	0.488500	0.071400
O371	O37	0.889930	0.344900	0.119070
O381	O38	0.856680	0.409570	0.130200
O391	O39	0.620210	0.340290	0.869890
O401	O40	0.615510	0.405680	0.852880
O411	O41	0.622390	0.292380	0.155790
O421	O42	0.599000	0.250260	0.341100
O431	O43	0.877090	0.253900	0.131580
O441	O44	0.864800	0.212290	0.323340
O451	O45	0.910230	0.459880	0.880880
O461	O46	0.091800	0.501740	0.849830
O471	O47	0.573970	0.459150	0.120430
O481	O48	0.381570	0.501260	0.126860
Cu71	Cu7	0.749420	0.296130	0.992380
Cu81	Cu8	0.741830	0.454230	0.001070
