data_KEDJAG26_clean_PM
_symmetry_space_group_name_H-M	'P1'
_cell_length_a	8.853300
_cell_length_b	33.716200
_cell_length_c	8.834700
_cell_angle_alpha	90.000000
_cell_angle_beta	107.963000
_cell_angle_gamma	90.000000
_symmetry_Int_Tables_number 1

loop_
_symmetry_equiv_pos_as_xyz
'x,y,z'

loop_
_atom_site_label
_atom_site_type_symbol
_atom_site_fract_x
_atom_site_fract_y
_atom_site_fract_z
Cu11	Cu1	0.744690	0.204200	0.502800
Cu21	Cu2	0.742870	0.045570	0.502940
O11	O1	0.883400	0.155440	0.626790
O21	O2	0.857710	0.090510	0.632240
O31	O3	0.615900	0.159770	0.380410
O41	O4	0.615880	0.094370	0.359080
O51	O5	0.617220	0.208260	0.666170
O61	O6	0.597100	0.249610	0.852400
O71	O7	0.872510	0.246310	0.644110
O81	O8	0.862200	0.287450	0.836170
O91	O9	0.910100	0.040030	0.381540
O101	O10	0.091400	0.998390	0.351540
O111	O11	0.577260	0.039980	0.623520
O121	O12	0.382900	0.998490	0.625560
C11	C1	0.817200	0.124010	0.575100
C21	C2	0.668700	0.126050	0.423900
C31	C3	0.812700	0.259250	0.744600
C41	C4	0.663000	0.237430	0.757600
C51	C5	0.002000	0.010810	0.423000
C61	C6	0.488400	0.011240	0.571900
Cu31	Cu3	0.255310	0.704200	0.997200
Cu41	Cu4	0.257130	0.545570	0.997060
O131	O13	0.116600	0.655440	0.873210
O141	O14	0.142290	0.590510	0.867760
O151	O15	0.384100	0.659770	0.119590
O161	O16	0.384120	0.594370	0.140920
O171	O17	0.382780	0.708260	0.833830
O181	O18	0.402900	0.749610	0.647600
O191	O19	0.127490	0.746310	0.855890
O201	O20	0.137800	0.787450	0.663830
O211	O21	0.089900	0.540030	0.118460
O221	O22	0.908600	0.498390	0.148460
O231	O23	0.422740	0.539980	0.876480
O241	O24	0.617100	0.498490	0.874440
C71	C7	0.182800	0.624010	0.924900
C81	C8	0.331300	0.626050	0.076100
C91	C9	0.187300	0.759250	0.755400
C101	C10	0.337000	0.737430	0.742400
C111	C11	0.998000	0.510810	0.077000
C121	C12	0.511600	0.511240	0.928100
Cu51	Cu5	0.255310	0.795800	0.497200
Cu61	Cu6	0.257130	0.954430	0.497060
O251	O25	0.116600	0.844560	0.373210
O261	O26	0.142290	0.909490	0.367760
O271	O27	0.384100	0.840230	0.619590
O281	O28	0.384120	0.905630	0.640920
O291	O29	0.382780	0.791740	0.333830
O301	O30	0.402900	0.750390	0.147600
O311	O31	0.127490	0.753690	0.355890
O321	O32	0.137800	0.712550	0.163830
O331	O33	0.089900	0.959970	0.618460
O341	O34	0.908600	0.001610	0.648460
O351	O35	0.422740	0.960020	0.376480
O361	O36	0.617100	0.001510	0.374440
C131	C13	0.182800	0.875990	0.424900
C141	C14	0.331300	0.873950	0.576100
C151	C15	0.187300	0.740750	0.255400
C161	C16	0.337000	0.762570	0.242400
C171	C17	0.998000	0.989190	0.577000
C181	C18	0.511600	0.988760	0.428100
Cu71	Cu7	0.744690	0.295800	0.002800
Cu81	Cu8	0.742870	0.454430	0.002940
O371	O37	0.883400	0.344560	0.126790
O381	O38	0.857710	0.409490	0.132240
O391	O39	0.615900	0.340230	0.880410
O401	O40	0.615880	0.405630	0.859080
O411	O41	0.617220	0.291740	0.166170
O421	O42	0.597100	0.250390	0.352400
O431	O43	0.872510	0.253690	0.144110
O441	O44	0.862200	0.212550	0.336170
O451	O45	0.910100	0.459970	0.881540
O461	O46	0.091400	0.501610	0.851540
O471	O47	0.577260	0.460020	0.123520
O481	O48	0.382900	0.501510	0.125560
C191	C19	0.817200	0.375990	0.075100
C201	C20	0.668700	0.373950	0.923900
C211	C21	0.812700	0.240750	0.244600
C221	C22	0.663000	0.262570	0.257600
C231	C23	0.002000	0.489190	0.923000
C241	C24	0.488400	0.488760	0.071900
