data_KEDQAN_clean_PM
_symmetry_space_group_name_H-M	'P1'
_cell_length_a	11.980000
_cell_length_b	17.982000
_cell_length_c	18.625000
_cell_angle_alpha	90.000000
_cell_angle_beta	90.000000
_cell_angle_gamma	90.000000
_symmetry_Int_Tables_number 1

loop_
_symmetry_equiv_pos_as_xyz
'x,y,z'

loop_
_atom_site_label
_atom_site_type_symbol
_atom_site_fract_x
_atom_site_fract_y
_atom_site_fract_z
Zn11	Zn1	0.389900	0.802650	0.509130
Zn21	Zn2	0.110100	0.802650	0.490870
Zn31	Zn3	0.610100	0.697350	0.509130
Zn41	Zn4	0.889900	0.697350	0.490870
Zn51	Zn5	0.610100	0.197350	0.490870
Zn61	Zn6	0.889900	0.197350	0.509130
Zn71	Zn7	0.389900	0.302650	0.490870
Zn81	Zn8	0.110100	0.302650	0.509130
H11	H1	0.374500	0.743700	0.292800
H21	H2	0.384300	0.829900	0.735800
H31	H3	0.396900	0.065800	0.326200
H41	H4	0.386900	0.831500	0.858800
H51	H5	0.357400	0.806900	0.968200
H61	H6	0.290900	0.837400	0.357300
H71	H7	0.355300	0.805100	0.091000
H81	H8	0.151200	0.919700	0.362800
H91	H9	0.510900	0.894300	0.162200
H101	H10	0.428300	0.988500	0.227700
H111	H11	0.051300	0.010300	0.422600
H121	H12	0.297200	0.155800	0.386200
H131	H13	0.125500	0.743700	0.707200
H141	H14	0.115700	0.829900	0.264200
H151	H15	0.103100	0.065800	0.673800
H161	H16	0.113100	0.831500	0.141200
H171	H17	0.142600	0.806900	0.031800
H181	H18	0.209100	0.837400	0.642700
H191	H19	0.144700	0.805100	0.909000
H201	H20	0.348800	0.919700	0.637200
H211	H21	0.989100	0.894300	0.837800
H221	H22	0.071700	0.988500	0.772300
H231	H23	0.448700	0.010300	0.577400
H241	H24	0.202800	0.155800	0.613800
H251	H25	0.625500	0.756300	0.292800
H261	H26	0.615700	0.670100	0.735800
H271	H27	0.603100	0.434200	0.326200
H281	H28	0.613100	0.668500	0.858800
H291	H29	0.642600	0.693100	0.968200
H301	H30	0.709100	0.662600	0.357300
H311	H31	0.644700	0.694900	0.091000
H321	H32	0.848800	0.580300	0.362800
H331	H33	0.489100	0.605700	0.162200
H341	H34	0.571700	0.511500	0.227700
H351	H35	0.948700	0.489700	0.422600
H361	H36	0.702800	0.344200	0.386200
H371	H37	0.874500	0.756300	0.707200
H381	H38	0.884300	0.670100	0.264200
H391	H39	0.896900	0.434200	0.673800
H401	H40	0.886900	0.668500	0.141200
H411	H41	0.857400	0.693100	0.031800
H421	H42	0.790900	0.662600	0.642700
H431	H43	0.855300	0.694900	0.909000
H441	H44	0.651200	0.580300	0.637200
H451	H45	0.010900	0.605700	0.837800
H461	H46	0.928300	0.511500	0.772300
H471	H47	0.551300	0.489700	0.577400
H481	H48	0.797200	0.344200	0.613800
H491	H49	0.625500	0.256300	0.707200
H501	H50	0.615700	0.170100	0.264200
H511	H51	0.603100	0.934200	0.673800
H521	H52	0.613100	0.168500	0.141200
H531	H53	0.642600	0.193100	0.031800
H541	H54	0.709100	0.162600	0.642700
H551	H55	0.644700	0.194900	0.909000
H561	H56	0.848800	0.080300	0.637200
H571	H57	0.489100	0.105700	0.837800
H581	H58	0.571700	0.011500	0.772300
H591	H59	0.948700	0.989700	0.577400
H601	H60	0.702800	0.844200	0.613800
H611	H61	0.874500	0.256300	0.292800
H621	H62	0.884300	0.170100	0.735800
H631	H63	0.896900	0.934200	0.326200
H641	H64	0.886900	0.168500	0.858800
H651	H65	0.857400	0.193100	0.968200
H661	H66	0.790900	0.162600	0.357300
H671	H67	0.855300	0.194900	0.091000
H681	H68	0.651200	0.080300	0.362800
H691	H69	0.010900	0.105700	0.162200
H701	H70	0.928300	0.011500	0.227700
H711	H71	0.551300	0.989700	0.422600
H721	H72	0.797200	0.844200	0.386200
H731	H73	0.374500	0.243700	0.707200
H741	H74	0.384300	0.329900	0.264200
H751	H75	0.396900	0.565800	0.673800
H761	H76	0.386900	0.331500	0.141200
H771	H77	0.357400	0.306900	0.031800
H781	H78	0.290900	0.337400	0.642700
H791	H79	0.355300	0.305100	0.909000
H801	H80	0.151200	0.419700	0.637200
H811	H81	0.510900	0.394300	0.837800
H821	H82	0.428300	0.488500	0.772300
H831	H83	0.051300	0.510300	0.577400
H841	H84	0.297200	0.655800	0.613800
H851	H85	0.125500	0.243700	0.292800
H861	H86	0.115700	0.329900	0.735800
H871	H87	0.103100	0.565800	0.326200
H881	H88	0.113100	0.331500	0.858800
H891	H89	0.142600	0.306900	0.968200
H901	H90	0.209100	0.337400	0.357300
H911	H91	0.144700	0.305100	0.091000
H921	H92	0.348800	0.419700	0.362800
H931	H93	0.989100	0.394300	0.162200
H941	H94	0.071700	0.488500	0.227700
H951	H95	0.448700	0.510300	0.422600
H961	H96	0.202800	0.655800	0.386200
H971	H97	0.250000	0.404300	0.500000
H981	H98	0.750000	0.095700	0.500000
H991	H99	0.750000	0.595700	0.500000
H1001	H100	0.250000	0.904300	0.500000
C11	C1	0.384500	0.792920	0.278800
C21	C2	0.431600	0.797690	0.760410
C31	C3	0.449100	0.808840	0.219820
C41	C4	0.327400	0.054180	0.345400
C51	C5	0.432500	0.798170	0.834430
C61	C6	0.285400	0.982280	0.337760
C71	C7	0.346900	0.923070	0.298360
C81	C8	0.415300	0.783400	0.992530
C91	C9	0.334200	0.849320	0.317530
C101	C10	0.414300	0.783000	0.066600
C111	C11	0.181100	0.967180	0.367220
C121	C12	0.465800	0.882560	0.201260
C131	C13	0.415600	0.939210	0.240500
C141	C14	0.163100	0.092750	0.409820
C151	C15	0.120700	0.021730	0.403040
C161	C16	0.267400	0.108360	0.381200
C171	C17	0.098000	0.150690	0.447700
C181	C18	0.115500	0.792920	0.721200
C191	C19	0.068400	0.797690	0.239590
C201	C20	0.050900	0.808840	0.780180
C211	C21	0.172600	0.054180	0.654600
C221	C22	0.067500	0.798170	0.165570
C231	C23	0.214600	0.982280	0.662240
C241	C24	0.153100	0.923070	0.701640
C251	C25	0.084700	0.783400	0.007470
C261	C26	0.165800	0.849320	0.682470
C271	C27	0.085700	0.783000	0.933400
C281	C28	0.318900	0.967180	0.632780
C291	C29	0.034200	0.882560	0.798740
C301	C30	0.084400	0.939210	0.759500
C311	C31	0.336900	0.092750	0.590180
C321	C32	0.379300	0.021730	0.596960
C331	C33	0.232600	0.108360	0.618800
C341	C34	0.402000	0.150690	0.552300
C351	C35	0.615500	0.707080	0.278800
C361	C36	0.568400	0.702310	0.760410
C371	C37	0.550900	0.691160	0.219820
C381	C38	0.672600	0.445820	0.345400
C391	C39	0.567500	0.701830	0.834430
C401	C40	0.714600	0.517720	0.337760
C411	C41	0.653100	0.576930	0.298360
C421	C42	0.584700	0.716600	0.992530
C431	C43	0.665800	0.650680	0.317530
C441	C44	0.585700	0.717000	0.066600
C451	C45	0.818900	0.532820	0.367220
C461	C46	0.534200	0.617440	0.201260
C471	C47	0.584400	0.560790	0.240500
C481	C48	0.836900	0.407250	0.409820
C491	C49	0.879300	0.478270	0.403040
C501	C50	0.732600	0.391640	0.381200
C511	C51	0.902000	0.349310	0.447700
C521	C52	0.884500	0.707080	0.721200
C531	C53	0.931600	0.702310	0.239590
C541	C54	0.949100	0.691160	0.780180
C551	C55	0.827400	0.445820	0.654600
C561	C56	0.932500	0.701830	0.165570
C571	C57	0.785400	0.517720	0.662240
C581	C58	0.846900	0.576930	0.701640
C591	C59	0.915300	0.716600	0.007470
C601	C60	0.834200	0.650680	0.682470
C611	C61	0.914300	0.717000	0.933400
C621	C62	0.681100	0.532820	0.632780
C631	C63	0.965800	0.617440	0.798740
C641	C64	0.915600	0.560790	0.759500
C651	C65	0.663100	0.407250	0.590180
C661	C66	0.620700	0.478270	0.596960
C671	C67	0.767400	0.391640	0.618800
C681	C68	0.598000	0.349310	0.552300
C691	C69	0.615500	0.207080	0.721200
C701	C70	0.568400	0.202310	0.239590
C711	C71	0.550900	0.191160	0.780180
C721	C72	0.672600	0.945820	0.654600
C731	C73	0.567500	0.201830	0.165570
C741	C74	0.714600	0.017720	0.662240
C751	C75	0.653100	0.076930	0.701640
C761	C76	0.584700	0.216600	0.007470
C771	C77	0.665800	0.150680	0.682470
C781	C78	0.585700	0.217000	0.933400
C791	C79	0.818900	0.032820	0.632780
C801	C80	0.534200	0.117440	0.798740
C811	C81	0.584400	0.060790	0.759500
C821	C82	0.836900	0.907250	0.590180
C831	C83	0.879300	0.978270	0.596960
C841	C84	0.732600	0.891640	0.618800
C851	C85	0.902000	0.849310	0.552300
C861	C86	0.884500	0.207080	0.278800
C871	C87	0.931600	0.202310	0.760410
C881	C88	0.949100	0.191160	0.219820
C891	C89	0.827400	0.945820	0.345400
C901	C90	0.932500	0.201830	0.834430
C911	C91	0.785400	0.017720	0.337760
C921	C92	0.846900	0.076930	0.298360
C931	C93	0.915300	0.216600	0.992530
C941	C94	0.834200	0.150680	0.317530
C951	C95	0.914300	0.217000	0.066600
C961	C96	0.681100	0.032820	0.367220
C971	C97	0.965800	0.117440	0.201260
C981	C98	0.915600	0.060790	0.240500
C991	C99	0.663100	0.907250	0.409820
C1001	C100	0.620700	0.978270	0.403040
C1011	C101	0.767400	0.891640	0.381200
C1021	C102	0.598000	0.849310	0.447700
C1031	C103	0.384500	0.292920	0.721200
C1041	C104	0.431600	0.297690	0.239590
C1051	C105	0.449100	0.308840	0.780180
C1061	C106	0.327400	0.554180	0.654600
C1071	C107	0.432500	0.298170	0.165570
C1081	C108	0.285400	0.482280	0.662240
C1091	C109	0.346900	0.423070	0.701640
C1101	C110	0.415300	0.283400	0.007470
C1111	C111	0.334200	0.349320	0.682470
C1121	C112	0.414300	0.283000	0.933400
C1131	C113	0.181100	0.467180	0.632780
C1141	C114	0.465800	0.382560	0.798740
C1151	C115	0.415600	0.439210	0.759500
C1161	C116	0.163100	0.592750	0.590180
C1171	C117	0.120700	0.521730	0.596960
C1181	C118	0.267400	0.608360	0.618800
C1191	C119	0.098000	0.650690	0.552300
C1201	C120	0.115500	0.292920	0.278800
C1211	C121	0.068400	0.297690	0.760410
C1221	C122	0.050900	0.308840	0.219820
C1231	C123	0.172600	0.554180	0.345400
C1241	C124	0.067500	0.298170	0.834430
C1251	C125	0.214600	0.482280	0.337760
C1261	C126	0.153100	0.423070	0.298360
C1271	C127	0.084700	0.283400	0.992530
C1281	C128	0.165800	0.349320	0.317530
C1291	C129	0.085700	0.283000	0.066600
C1301	C130	0.318900	0.467180	0.367220
C1311	C131	0.034200	0.382560	0.201260
C1321	C132	0.084400	0.439210	0.240500
C1331	C133	0.336900	0.592750	0.409820
C1341	C134	0.379300	0.521730	0.403040
C1351	C135	0.232600	0.608360	0.381200
C1361	C136	0.402000	0.650690	0.447700
C1371	C137	0.500000	0.750000	0.105000
C1381	C138	0.500000	0.750000	0.873500
C1391	C139	0.500000	0.750000	0.641550
C1401	C140	0.500000	0.750000	0.722150
C1411	C141	0.500000	0.750000	0.953100
C1421	C142	0.000000	0.750000	0.895000
C1431	C143	0.000000	0.750000	0.126500
C1441	C144	0.000000	0.750000	0.358450
C1451	C145	0.000000	0.750000	0.277850
C1461	C146	0.000000	0.750000	0.046900
C1471	C147	0.500000	0.250000	0.895000
C1481	C148	0.500000	0.250000	0.126500
C1491	C149	0.500000	0.250000	0.358450
C1501	C150	0.500000	0.250000	0.277850
C1511	C151	0.500000	0.250000	0.046900
C1521	C152	0.000000	0.250000	0.105000
C1531	C153	0.000000	0.250000	0.873500
C1541	C154	0.000000	0.250000	0.641550
C1551	C155	0.000000	0.250000	0.722150
C1561	C156	0.000000	0.250000	0.953100
N11	N1	0.500000	0.750000	0.180670
N21	N2	0.000000	0.750000	0.819330
N31	N3	0.500000	0.250000	0.819330
N41	N4	0.000000	0.250000	0.180670
O11	O1	0.423060	0.784390	0.610680
O21	O2	0.139600	0.214890	0.451500
O31	O3	0.005590	0.132340	0.473550
O41	O4	0.076940	0.784390	0.389320
O51	O5	0.360400	0.214890	0.548500
O61	O6	0.494410	0.132340	0.526450
O71	O7	0.576940	0.715610	0.610680
O81	O8	0.860400	0.285110	0.451500
O91	O9	0.994410	0.367660	0.473550
O101	O10	0.923060	0.715610	0.389320
O111	O11	0.639600	0.285110	0.548500
O121	O12	0.505590	0.367660	0.526450
O131	O13	0.576940	0.215610	0.389320
O141	O14	0.860400	0.785110	0.548500
O151	O15	0.994410	0.867660	0.526450
O161	O16	0.923060	0.215610	0.610680
O171	O17	0.639600	0.785110	0.451500
O181	O18	0.505590	0.867660	0.473550
O191	O19	0.423060	0.284390	0.389320
O201	O20	0.139600	0.714890	0.548500
O211	O21	0.005590	0.632340	0.526450
O221	O22	0.076940	0.284390	0.610680
O231	O23	0.360400	0.714890	0.451500
O241	O24	0.494410	0.632340	0.473550
O251	O25	0.250000	0.352540	0.500000
O261	O26	0.750000	0.147460	0.500000
O271	O27	0.750000	0.647460	0.500000
O281	O28	0.250000	0.852540	0.500000
