data_KEFWID_clean_PM
_symmetry_space_group_name_H-M	'P1'
_cell_length_a	10.760800
_cell_length_b	11.635100
_cell_length_c	16.853800
_cell_angle_alpha	84.966200
_cell_angle_beta	79.062100
_cell_angle_gamma	62.456100
_symmetry_Int_Tables_number 1

loop_
_symmetry_equiv_pos_as_xyz
'x,y,z'

loop_
_atom_site_label
_atom_site_type_symbol
_atom_site_fract_x
_atom_site_fract_y
_atom_site_fract_z
Gd11	Gd1	0.744090	0.170860	0.051430
Gd21	Gd2	0.085050	0.170860	0.448570
Gd31	Gd3	0.255910	0.829140	0.948570
Gd41	Gd4	0.914950	0.829140	0.551430
Co11	Co1	0.500000	0.500000	0.000000
Co21	Co2	0.000000	0.500000	0.500000
H11	H1	0.681400	0.537000	0.826300
H21	H2	0.585000	0.713000	0.191000
H31	H3	0.973400	0.414200	0.069000
H41	H4	0.168300	0.472000	0.078800
H51	H5	0.781600	0.537000	0.673700
H61	H6	0.702000	0.713000	0.309000
H71	H7	0.612400	0.414200	0.431000
H81	H8	0.359700	0.472000	0.421200
H91	H9	0.318600	0.463000	0.173700
H101	H10	0.415000	0.287000	0.809000
H111	H11	0.026600	0.585800	0.931000
H121	H12	0.831700	0.528000	0.921200
H131	H13	0.218400	0.463000	0.326300
H141	H14	0.298000	0.287000	0.691000
H151	H15	0.387600	0.585800	0.569000
H161	H16	0.640300	0.528000	0.578800
C11	C1	0.787700	0.339600	0.815000
C21	C2	0.739000	0.465200	0.793300
C31	C3	0.770900	0.277400	0.892700
C41	C4	0.645900	0.640800	0.217300
C51	C5	0.687800	0.515600	0.201200
C61	C6	0.652300	0.453400	0.140800
C71	C7	0.452100	0.262000	0.027500
C81	C8	0.083200	0.148800	0.007700
C91	C9	0.135100	0.240400	0.023400
C101	C10	0.070700	0.362200	0.054200
C111	C11	0.179800	0.394800	0.059200
C121	C12	0.303100	0.293800	0.030600
C131	C13	0.872700	0.339600	0.685000
C141	C14	0.795800	0.465200	0.706700
C151	C15	0.951700	0.277400	0.607300
C161	C16	0.713300	0.640800	0.282700
C171	C17	0.796600	0.515600	0.298800
C181	C18	0.894300	0.453400	0.359200
C191	C19	0.285900	0.262000	0.472500
C201	C20	0.768000	0.148800	0.492300
C211	C21	0.624500	0.240400	0.476600
C221	C22	0.567100	0.362200	0.445800
C231	C23	0.425400	0.394800	0.440800
C241	C24	0.403100	0.293800	0.469400
C251	C25	0.212300	0.660400	0.185000
C261	C26	0.261000	0.534800	0.206700
C271	C27	0.229100	0.722600	0.107300
C281	C28	0.354100	0.359200	0.782700
C291	C29	0.312200	0.484400	0.798800
C301	C30	0.347700	0.546600	0.859200
C311	C31	0.547900	0.738000	0.972500
C321	C32	0.916800	0.851200	0.992300
C331	C33	0.864900	0.759600	0.976600
C341	C34	0.929300	0.637800	0.945800
C351	C35	0.820200	0.605200	0.940800
C361	C36	0.696900	0.706200	0.969400
C371	C37	0.127300	0.660400	0.315000
C381	C38	0.204200	0.534800	0.293300
C391	C39	0.048300	0.722600	0.392700
C401	C40	0.286700	0.359200	0.717300
C411	C41	0.203400	0.484400	0.701200
C421	C42	0.105700	0.546600	0.640800
C431	C43	0.714100	0.738000	0.527500
C441	C44	0.232000	0.851200	0.507700
C451	C45	0.375500	0.759600	0.523400
C461	C46	0.432900	0.637800	0.554200
C471	C47	0.574600	0.605200	0.559200
C481	C48	0.596900	0.706200	0.530600
O11	O1	0.825000	0.157800	0.899400
O21	O2	0.702400	0.351000	0.954000
O31	O3	0.169300	0.043200	0.979100
O41	O4	0.950800	0.191000	0.024100
O51	O5	0.278900	0.196000	0.008300
O61	O6	0.478100	0.343800	0.059600
O71	O7	0.551300	0.160000	0.996400
O81	O8	0.702700	0.332400	0.142200
O91	O9	0.573700	0.531200	0.094000
O101	O10	0.017200	0.157800	0.600600
O111	O11	0.946600	0.351000	0.546000
O121	O12	0.787500	0.043200	0.520900
O131	O13	0.858200	0.191000	0.475900
O141	O14	0.525100	0.196000	0.491700
O151	O15	0.178100	0.343800	0.440400
O161	O16	0.288700	0.160000	0.503600
O171	O17	0.964900	0.332400	0.357800
O181	O18	0.895100	0.531200	0.406000
O191	O19	0.175000	0.842200	0.100600
O201	O20	0.297600	0.649000	0.046000
O211	O21	0.830700	0.956800	0.020900
O221	O22	0.049200	0.809000	0.975900
O231	O23	0.721100	0.804000	0.991700
O241	O24	0.521900	0.656200	0.940400
O251	O25	0.448700	0.840000	0.003600
O261	O26	0.297300	0.667600	0.857800
O271	O27	0.426300	0.468800	0.906000
O281	O28	0.982800	0.842200	0.399400
O291	O29	0.053400	0.649000	0.454000
O301	O30	0.212500	0.956800	0.479100
O311	O31	0.141800	0.809000	0.524100
O321	O32	0.474900	0.804000	0.508300
O331	O33	0.821900	0.656200	0.559600
O341	O34	0.711300	0.840000	0.496400
O351	O35	0.035100	0.667600	0.642200
O361	O36	0.104900	0.468800	0.594000
O371	O37	0.870300	0.259400	0.750000
O381	O38	0.129700	0.740600	0.250000
O391	O39	0.781700	0.436600	0.250000
O401	O40	0.218300	0.563400	0.750000
