data_KEHFUA_clean_PM
_symmetry_space_group_name_H-M	'P1'
_cell_length_a	21.856700
_cell_length_b	11.552500
_cell_length_c	21.460400
_cell_angle_alpha	90.000000
_cell_angle_beta	117.611000
_cell_angle_gamma	90.000000
_symmetry_Int_Tables_number 1

loop_
_symmetry_equiv_pos_as_xyz
'x,y,z'

loop_
_atom_site_label
_atom_site_type_symbol
_atom_site_fract_x
_atom_site_fract_y
_atom_site_fract_z
Cu11	Cu1	0.744930	0.326300	0.419400
Cu21	Cu2	0.756770	0.301250	0.602470
N11	N1	0.791120	0.456100	0.486750
N21	N2	0.786990	0.467060	0.548030
N31	N3	0.849070	0.610790	0.539730
N41	N4	0.796260	0.200530	0.495290
N51	N5	0.788720	0.180710	0.554900
N61	N6	0.849420	0.039110	0.543940
N71	N7	0.142590	0.810290	0.822630
N81	N8	0.090190	0.819900	0.841770
N91	N9	0.044400	0.822140	0.725920
N101	N10	0.973550	0.827780	0.529020
N111	N11	0.659480	0.291430	0.451520
N121	N12	0.662160	0.293700	0.517530
N131	N13	0.555650	0.256480	0.439520
N141	N14	0.312380	0.947190	0.151100
N151	N15	0.361670	0.005600	0.140510
N161	N16	0.364620	0.066250	0.239050
N171	N17	0.273280	0.578050	0.351490
N181	N18	0.246770	0.563600	0.279620
N191	N19	0.320190	0.423110	0.335580
N201	N20	0.388530	0.132220	0.421480
C11	C1	0.827330	0.542200	0.481720
H11	H1	0.836900	0.554900	0.443900
C21	C2	0.822250	0.560600	0.579480
H21	H2	0.828200	0.588800	0.623000
C31	C3	0.892450	0.716900	0.557340
C41	C4	0.845710	0.824800	0.542380
H31	H3	0.810600	0.825900	0.492900
H41	H4	0.822300	0.823600	0.571800
C51	C5	0.892460	0.932600	0.559350
C61	C6	0.946370	0.933100	0.637020
H51	H5	0.923400	0.932600	0.666900
H61	H6	0.975000	0.002900	0.647700
C71	C7	0.991900	0.823800	0.651300
C81	C8	0.946930	0.713600	0.635560
H71	H7	0.975800	0.644300	0.645000
H81	H8	0.924100	0.711300	0.665500
C91	C9	0.930250	0.722600	0.511700
H91	H9	0.959300	0.653800	0.520300
H101	H10	0.896300	0.723700	0.461800
C101	C10	0.928800	0.931400	0.512790
H111	H11	0.894300	0.930300	0.463100
H121	H12	0.956800	0.001500	0.521300
C111	C11	0.026360	0.827100	0.603040
H131	H13	0.055100	0.896700	0.613100
H141	H14	0.056200	0.759300	0.612100
C121	C12	0.820890	0.083800	0.583210
H151	H15	0.823800	0.050300	0.624400
C131	C13	0.832440	0.115300	0.489870
H161	H16	0.845100	0.107300	0.453800
C141	C14	0.113680	0.811500	0.753690
H171	H17	0.137900	0.805800	0.727200
C151	C15	0.032660	0.826700	0.783140
H181	H18	0.988700	0.833800	0.780600
C161	C16	0.595540	0.268800	0.406060
H191	H19	0.579200	0.261900	0.357300
C171	C17	0.599440	0.273400	0.508770
H201	H20	0.586800	0.271000	0.545100
C181	C18	0.480390	0.232100	0.405440
C191	C19	0.460910	0.162700	0.337550
H211	H21	0.470600	0.208500	0.304700
H221	H22	0.488100	0.091300	0.348400
C201	C20	0.383780	0.134000	0.304500
C211	C21	0.340730	0.246000	0.284640
H231	H23	0.291400	0.227600	0.262800
H241	H24	0.349800	0.291300	0.251200
C221	C22	0.362000	0.315200	0.353070
C231	C23	0.439160	0.346300	0.387850
H251	H25	0.451700	0.391100	0.430900
H261	H26	0.449400	0.393000	0.355700
C241	C24	0.462860	0.159200	0.455440
H271	H27	0.489600	0.087200	0.467500
H281	H28	0.475400	0.202400	0.499000
C251	C25	0.368520	0.063700	0.356410
H291	H29	0.319200	0.045000	0.335000
H301	H30	0.394500	0.991000	0.367800
C261	C26	0.347380	0.240500	0.404440
H311	H31	0.359300	0.284200	0.447700
H321	H32	0.298100	0.221600	0.383000
C271	C27	0.314950	0.984900	0.209560
H331	H33	0.286300	0.959000	0.228500
C281	C28	0.391800	0.076200	0.193900
H341	H34	0.427700	0.127200	0.200200
C291	C29	0.317150	0.495100	0.383860
H351	H35	0.342600	0.486700	0.432900
C301	C30	0.276170	0.469600	0.272350
H361	H36	0.267800	0.438000	0.228700
Cu31	Cu3	0.255070	0.826300	0.080600
Cu41	Cu4	0.243230	0.801250	0.897530
N211	N21	0.208880	0.956100	0.013250
N221	N22	0.213010	0.967060	0.951970
N231	N23	0.150930	0.110790	0.960270
N241	N24	0.203740	0.700530	0.004710
N251	N25	0.211280	0.680710	0.945100
N261	N26	0.150580	0.539110	0.956060
N271	N27	0.857410	0.310290	0.677370
N281	N28	0.909810	0.319900	0.658230
N291	N29	0.955600	0.322140	0.774080
N301	N30	0.026450	0.327780	0.970980
N311	N31	0.340520	0.791430	0.048480
N321	N32	0.337840	0.793700	0.982470
N331	N33	0.444350	0.756480	0.060480
N341	N34	0.687620	0.447190	0.348900
N351	N35	0.638330	0.505600	0.359490
N361	N36	0.635380	0.566250	0.260950
N371	N37	0.726720	0.078050	0.148510
N381	N38	0.753230	0.063600	0.220380
N391	N39	0.679810	0.923110	0.164420
N401	N40	0.611470	0.632220	0.078520
C311	C31	0.172670	0.042200	0.018280
H371	H37	0.163100	0.054900	0.056100
C321	C32	0.177750	0.060600	0.920520
H381	H38	0.171800	0.088800	0.877000
C331	C33	0.107550	0.216900	0.942660
C341	C34	0.154290	0.324800	0.957620
H391	H39	0.189400	0.325900	0.007100
H401	H40	0.177700	0.323600	0.928200
C351	C35	0.107540	0.432600	0.940650
C361	C36	0.053630	0.433100	0.862980
H411	H41	0.076600	0.432600	0.833100
H421	H42	0.025000	0.502900	0.852300
C371	C37	0.008100	0.323800	0.848700
C381	C38	0.053070	0.213600	0.864440
H431	H43	0.024200	0.144300	0.855000
H441	H44	0.075900	0.211300	0.834500
C391	C39	0.069750	0.222600	0.988300
H451	H45	0.040700	0.153800	0.979700
H461	H46	0.103700	0.223700	0.038200
C401	C40	0.071200	0.431400	0.987210
H471	H47	0.105700	0.430300	0.036900
H481	H48	0.043200	0.501500	0.978700
C411	C41	0.973640	0.327100	0.896960
H491	H49	0.944900	0.396700	0.886900
H501	H50	0.943800	0.259300	0.887900
C421	C42	0.179110	0.583800	0.916790
H511	H51	0.176200	0.550300	0.875600
C431	C43	0.167560	0.615300	0.010130
H521	H52	0.154900	0.607300	0.046200
C441	C44	0.886320	0.311500	0.746310
H531	H53	0.862100	0.305800	0.772800
C451	C45	0.967340	0.326700	0.716860
H541	H54	0.011300	0.333800	0.719400
C461	C46	0.404460	0.768800	0.093940
H551	H55	0.420800	0.761900	0.142700
C471	C47	0.400560	0.773400	0.991230
H561	H56	0.413200	0.771000	0.954900
C481	C48	0.519610	0.732100	0.094560
C491	C49	0.539090	0.662700	0.162450
H571	H57	0.529400	0.708500	0.195300
H581	H58	0.511900	0.591300	0.151600
C501	C50	0.616220	0.634000	0.195500
C511	C51	0.659270	0.746000	0.215360
H591	H59	0.708600	0.727600	0.237200
H601	H60	0.650200	0.791300	0.248800
C521	C52	0.638000	0.815200	0.146930
C531	C53	0.560840	0.846300	0.112150
H611	H61	0.548300	0.891100	0.069100
H621	H62	0.550600	0.893000	0.144300
C541	C54	0.537140	0.659200	0.044560
H631	H63	0.510400	0.587200	0.032500
H641	H64	0.524600	0.702400	0.001000
C551	C55	0.631480	0.563700	0.143590
H651	H65	0.680800	0.545000	0.165000
H661	H66	0.605500	0.491000	0.132200
C561	C56	0.652620	0.740500	0.095560
H671	H67	0.640700	0.784200	0.052300
H681	H68	0.701900	0.721600	0.117000
C571	C57	0.685050	0.484900	0.290440
H691	H69	0.713700	0.459000	0.271500
C581	C58	0.608200	0.576200	0.306100
H701	H70	0.572300	0.627200	0.299800
C591	C59	0.682850	0.995100	0.116140
H711	H71	0.657400	0.986700	0.067100
C601	C60	0.723830	0.969600	0.227650
H721	H72	0.732200	0.938000	0.271300
Cu51	Cu5	0.255070	0.673700	0.580600
Cu61	Cu6	0.243230	0.698750	0.397530
N411	N41	0.208880	0.543900	0.513250
N421	N42	0.213010	0.532940	0.451970
N431	N43	0.150930	0.389210	0.460270
N441	N44	0.203740	0.799470	0.504710
N451	N45	0.211280	0.819290	0.445100
N461	N46	0.150580	0.960890	0.456060
N471	N47	0.857410	0.189710	0.177370
N481	N48	0.909810	0.180100	0.158230
N491	N49	0.955600	0.177860	0.274080
N501	N50	0.026450	0.172220	0.470980
N511	N51	0.340520	0.708570	0.548480
N521	N52	0.337840	0.706300	0.482470
N531	N53	0.444350	0.743520	0.560480
N541	N54	0.687620	0.052810	0.848900
N551	N55	0.638330	0.994400	0.859490
N561	N56	0.635380	0.933750	0.760950
N571	N57	0.726720	0.421950	0.648510
N581	N58	0.753230	0.436400	0.720380
N591	N59	0.679810	0.576890	0.664420
N601	N60	0.611470	0.867780	0.578520
C611	C61	0.172670	0.457800	0.518280
H731	H73	0.163100	0.445100	0.556100
C621	C62	0.177750	0.439400	0.420520
H741	H74	0.171800	0.411200	0.377000
C631	C63	0.107550	0.283100	0.442660
C641	C64	0.154290	0.175200	0.457620
H751	H75	0.189400	0.174100	0.507100
H761	H76	0.177700	0.176400	0.428200
C651	C65	0.107540	0.067400	0.440650
C661	C66	0.053630	0.066900	0.362980
H771	H77	0.076600	0.067400	0.333100
H781	H78	0.025000	0.997100	0.352300
C671	C67	0.008100	0.176200	0.348700
C681	C68	0.053070	0.286400	0.364440
H791	H79	0.024200	0.355700	0.355000
H801	H80	0.075900	0.288700	0.334500
C691	C69	0.069750	0.277400	0.488300
H811	H81	0.040700	0.346200	0.479700
H821	H82	0.103700	0.276300	0.538200
C701	C70	0.071200	0.068600	0.487210
H831	H83	0.105700	0.069700	0.536900
H841	H84	0.043200	0.998500	0.478700
C711	C71	0.973640	0.172900	0.396960
H851	H85	0.944900	0.103300	0.386900
H861	H86	0.943800	0.240700	0.387900
C721	C72	0.179110	0.916200	0.416790
H871	H87	0.176200	0.949700	0.375600
C731	C73	0.167560	0.884700	0.510130
H881	H88	0.154900	0.892700	0.546200
C741	C74	0.886320	0.188500	0.246310
H891	H89	0.862100	0.194200	0.272800
C751	C75	0.967340	0.173300	0.216860
H901	H90	0.011300	0.166200	0.219400
C761	C76	0.404460	0.731200	0.593940
H911	H91	0.420800	0.738100	0.642700
C771	C77	0.400560	0.726600	0.491230
H921	H92	0.413200	0.729000	0.454900
C781	C78	0.519610	0.767900	0.594560
C791	C79	0.539090	0.837300	0.662450
H931	H93	0.529400	0.791500	0.695300
H941	H94	0.511900	0.908700	0.651600
C801	C80	0.616220	0.866000	0.695500
C811	C81	0.659270	0.754000	0.715360
H951	H95	0.708600	0.772400	0.737200
H961	H96	0.650200	0.708700	0.748800
C821	C82	0.638000	0.684800	0.646930
C831	C83	0.560840	0.653700	0.612150
H971	H97	0.548300	0.608900	0.569100
H981	H98	0.550600	0.607000	0.644300
C841	C84	0.537140	0.840800	0.544560
H991	H99	0.510400	0.912800	0.532500
H1001	H100	0.524600	0.797600	0.501000
C851	C85	0.631480	0.936300	0.643590
H1011	H101	0.680800	0.955000	0.665000
H1021	H102	0.605500	0.009000	0.632200
C861	C86	0.652620	0.759500	0.595560
H1031	H103	0.640700	0.715800	0.552300
H1041	H104	0.701900	0.778400	0.617000
C871	C87	0.685050	0.015100	0.790440
H1051	H105	0.713700	0.041000	0.771500
C881	C88	0.608200	0.923800	0.806100
H1061	H106	0.572300	0.872800	0.799800
C891	C89	0.682850	0.504900	0.616140
H1071	H107	0.657400	0.513300	0.567100
C901	C90	0.723830	0.530400	0.727650
H1081	H108	0.732200	0.562000	0.771300
Cu71	Cu7	0.744930	0.173700	0.919400
Cu81	Cu8	0.756770	0.198750	0.102470
N611	N61	0.791120	0.043900	0.986750
N621	N62	0.786990	0.032940	0.048030
N631	N63	0.849070	0.889210	0.039730
N641	N64	0.796260	0.299470	0.995290
N651	N65	0.788720	0.319290	0.054900
N661	N66	0.849420	0.460890	0.043940
N671	N67	0.142590	0.689710	0.322630
N681	N68	0.090190	0.680100	0.341770
N691	N69	0.044400	0.677860	0.225920
N701	N70	0.973550	0.672220	0.029020
N711	N71	0.659480	0.208570	0.951520
N721	N72	0.662160	0.206300	0.017530
N731	N73	0.555650	0.243520	0.939520
N741	N74	0.312380	0.552810	0.651100
N751	N75	0.361670	0.494400	0.640510
N761	N76	0.364620	0.433750	0.739050
N771	N77	0.273280	0.921950	0.851490
N781	N78	0.246770	0.936400	0.779620
N791	N79	0.320190	0.076890	0.835580
N801	N80	0.388530	0.367780	0.921480
C911	C91	0.827330	0.957800	0.981720
H1091	H109	0.836900	0.945100	0.943900
C921	C92	0.822250	0.939400	0.079480
H1101	H110	0.828200	0.911200	0.123000
C931	C93	0.892450	0.783100	0.057340
C941	C94	0.845710	0.675200	0.042380
H1111	H111	0.810600	0.674100	0.992900
H1121	H112	0.822300	0.676400	0.071800
C951	C95	0.892460	0.567400	0.059350
C961	C96	0.946370	0.566900	0.137020
H1131	H113	0.923400	0.567400	0.166900
H1141	H114	0.975000	0.497100	0.147700
C971	C97	0.991900	0.676200	0.151300
C981	C98	0.946930	0.786400	0.135560
H1151	H115	0.975800	0.855700	0.145000
H1161	H116	0.924100	0.788700	0.165500
C991	C99	0.930250	0.777400	0.011700
H1171	H117	0.959300	0.846200	0.020300
H1181	H118	0.896300	0.776300	0.961800
C1001	C100	0.928800	0.568600	0.012790
H1191	H119	0.894300	0.569700	0.963100
H1201	H120	0.956800	0.498500	0.021300
C1011	C101	0.026360	0.672900	0.103040
H1211	H121	0.055100	0.603300	0.113100
H1221	H122	0.056200	0.740700	0.112100
C1021	C102	0.820890	0.416200	0.083210
H1231	H123	0.823800	0.449700	0.124400
C1031	C103	0.832440	0.384700	0.989870
H1241	H124	0.845100	0.392700	0.953800
C1041	C104	0.113680	0.688500	0.253690
H1251	H125	0.137900	0.694200	0.227200
C1051	C105	0.032660	0.673300	0.283140
H1261	H126	0.988700	0.666200	0.280600
C1061	C106	0.595540	0.231200	0.906060
H1271	H127	0.579200	0.238100	0.857300
C1071	C107	0.599440	0.226600	0.008770
H1281	H128	0.586800	0.229000	0.045100
C1081	C108	0.480390	0.267900	0.905440
C1091	C109	0.460910	0.337300	0.837550
H1291	H129	0.470600	0.291500	0.804700
H1301	H130	0.488100	0.408700	0.848400
C1101	C110	0.383780	0.366000	0.804500
C1111	C111	0.340730	0.254000	0.784640
H1311	H131	0.291400	0.272400	0.762800
H1321	H132	0.349800	0.208700	0.751200
C1121	C112	0.362000	0.184800	0.853070
C1131	C113	0.439160	0.153700	0.887850
H1331	H133	0.451700	0.108900	0.930900
H1341	H134	0.449400	0.107000	0.855700
C1141	C114	0.462860	0.340800	0.955440
H1351	H135	0.489600	0.412800	0.967500
H1361	H136	0.475400	0.297600	0.999000
C1151	C115	0.368520	0.436300	0.856410
H1371	H137	0.319200	0.455000	0.835000
H1381	H138	0.394500	0.509000	0.867800
C1161	C116	0.347380	0.259500	0.904440
H1391	H139	0.359300	0.215800	0.947700
H1401	H140	0.298100	0.278400	0.883000
C1171	C117	0.314950	0.515100	0.709560
H1411	H141	0.286300	0.541000	0.728500
C1181	C118	0.391800	0.423800	0.693900
H1421	H142	0.427700	0.372800	0.700200
C1191	C119	0.317150	0.004900	0.883860
H1431	H143	0.342600	0.013300	0.932900
C1201	C120	0.276170	0.030400	0.772350
H1441	H144	0.267800	0.062000	0.728700
