data_KEJBOQ_clean_h_PM
_symmetry_space_group_name_H-M	'P1'
_cell_length_a	12.691000
_cell_length_b	15.545000
_cell_length_c	18.342000
_cell_angle_alpha	90.000000
_cell_angle_beta	90.000000
_cell_angle_gamma	90.000000
_symmetry_Int_Tables_number 1

loop_
_symmetry_equiv_pos_as_xyz
'x,y,z'

loop_
_atom_site_label
_atom_site_type_symbol
_atom_site_fract_x
_atom_site_fract_y
_atom_site_fract_z
Cd11	Cd1	0.182860	0.712570	0.683120
C11	C1	0.048800	0.578500	0.724500
C21	C2	0.988900	0.495700	0.740800
C31	C3	0.026000	0.418900	0.713100
C41	C4	0.972300	0.343600	0.731000
C51	C5	0.850100	0.417900	0.797900
C61	C6	0.898600	0.495600	0.783500
C71	C7	0.852100	0.766900	0.408100
C81	C8	0.936600	0.751900	0.464200
C91	C9	0.956600	0.670300	0.491200
C101	C10	0.029200	0.660800	0.546300
C111	C11	0.069100	0.805000	0.545600
C121	C12	0.995300	0.821100	0.491500
N11	N1	0.885800	0.342400	0.772700
N21	N2	0.083900	0.727000	0.574500
O11	O1	0.005500	0.649400	0.739400
O21	O2	0.137700	0.571600	0.696700
O31	O3	0.823000	0.842800	0.395100
O41	O4	0.811700	0.702600	0.378400
H11	H1	0.098740	0.418240	0.676640
H21	H2	0.001720	0.278960	0.709850
H31	H3	0.775830	0.415880	0.832820
H41	H4	0.866120	0.558710	0.805800
H51	H5	0.913170	0.612370	0.467760
H61	H6	0.045320	0.594400	0.570200
H71	H7	0.120300	0.859560	0.567270
H81	H8	0.981850	0.888690	0.469240
Cd21	Cd2	0.317140	0.287430	0.183120
C131	C13	0.451200	0.421500	0.224500
C141	C14	0.511100	0.504300	0.240800
C151	C15	0.474000	0.581100	0.213100
C161	C16	0.527700	0.656400	0.231000
C171	C17	0.649900	0.582100	0.297900
C181	C18	0.601400	0.504400	0.283500
C191	C19	0.647900	0.233100	0.908100
C201	C20	0.563400	0.248100	0.964200
C211	C21	0.543400	0.329700	0.991200
C221	C22	0.470800	0.339200	0.046300
C231	C23	0.430900	0.195000	0.045600
C241	C24	0.504700	0.178900	0.991500
N31	N3	0.614200	0.657600	0.272700
N41	N4	0.416100	0.273000	0.074500
O51	O5	0.494500	0.350600	0.239400
O61	O6	0.362300	0.428400	0.196700
O71	O7	0.677000	0.157200	0.895100
O81	O8	0.688300	0.297400	0.878400
H91	H9	0.401260	0.581760	0.176640
H101	H10	0.498280	0.721040	0.209850
H111	H11	0.724170	0.584120	0.332820
H121	H12	0.633880	0.441290	0.305800
H131	H13	0.586830	0.387630	0.967760
H141	H14	0.454680	0.405600	0.070200
H151	H15	0.379700	0.140440	0.067270
H161	H16	0.518150	0.111310	0.969240
Cd31	Cd3	0.817140	0.212570	0.816880
C251	C25	0.951200	0.078500	0.775500
C261	C26	0.011100	0.995700	0.759200
C271	C27	0.974000	0.918900	0.786900
C281	C28	0.027700	0.843600	0.769000
C291	C29	0.149900	0.917900	0.702100
C301	C30	0.101400	0.995600	0.716500
C311	C31	0.147900	0.266900	0.091900
C321	C32	0.063400	0.251900	0.035800
C331	C33	0.043400	0.170300	0.008800
C341	C34	0.970800	0.160800	0.953700
C351	C35	0.930900	0.305000	0.954400
C361	C36	0.004700	0.321100	0.008500
N51	N5	0.114200	0.842400	0.727300
N61	N6	0.916100	0.227000	0.925500
O91	O9	0.994500	0.149400	0.760600
O101	O10	0.862300	0.071600	0.803300
O111	O11	0.177000	0.342800	0.104900
O121	O12	0.188300	0.202600	0.121600
H171	H17	0.901260	0.918240	0.823360
H181	H18	0.998280	0.778960	0.790150
H191	H19	0.224170	0.915880	0.667180
H201	H20	0.133880	0.058710	0.694200
H211	H21	0.086830	0.112370	0.032240
H221	H22	0.954680	0.094400	0.929800
H231	H23	0.879700	0.359560	0.932730
H241	H24	0.018150	0.388690	0.030760
Cd41	Cd4	0.682860	0.787430	0.316880
C371	C37	0.548800	0.921500	0.275500
C381	C38	0.488900	0.004300	0.259200
C391	C39	0.526000	0.081100	0.286900
C401	C40	0.472300	0.156400	0.269000
C411	C41	0.350100	0.082100	0.202100
C421	C42	0.398600	0.004400	0.216500
C431	C43	0.352100	0.733100	0.591900
C441	C44	0.436600	0.748100	0.535800
C451	C45	0.456600	0.829700	0.508800
C461	C46	0.529200	0.839200	0.453700
C471	C47	0.569100	0.695000	0.454400
C481	C48	0.495300	0.678900	0.508500
N71	N7	0.385800	0.157600	0.227300
N81	N8	0.583900	0.773000	0.425500
O131	O13	0.505500	0.850600	0.260600
O141	O14	0.637700	0.928400	0.303300
O151	O15	0.323000	0.657200	0.604900
O161	O16	0.311700	0.797400	0.621600
H251	H25	0.598740	0.081760	0.323360
H261	H26	0.501720	0.221040	0.290150
H271	H27	0.275830	0.084120	0.167180
H281	H28	0.366120	0.941290	0.194200
H291	H29	0.413170	0.887630	0.532240
H301	H30	0.545320	0.905600	0.429800
H311	H31	0.620300	0.640440	0.432730
H321	H32	0.481850	0.611310	0.530760
Cd51	Cd5	0.817140	0.287430	0.316880
C491	C49	0.951200	0.421500	0.275500
C501	C50	0.011100	0.504300	0.259200
C511	C51	0.974000	0.581100	0.286900
C521	C52	0.027700	0.656400	0.269000
C531	C53	0.149900	0.582100	0.202100
C541	C54	0.101400	0.504400	0.216500
C551	C55	0.147900	0.233100	0.591900
C561	C56	0.063400	0.248100	0.535800
C571	C57	0.043400	0.329700	0.508800
C581	C58	0.970800	0.339200	0.453700
C591	C59	0.930900	0.195000	0.454400
C601	C60	0.004700	0.178900	0.508500
N91	N9	0.114200	0.657600	0.227300
N101	N10	0.916100	0.273000	0.425500
O171	O17	0.994500	0.350600	0.260600
O181	O18	0.862300	0.428400	0.303300
O191	O19	0.177000	0.157200	0.604900
O201	O20	0.188300	0.297400	0.621600
H331	H33	0.901260	0.581760	0.323360
H341	H34	0.998280	0.721040	0.290150
H351	H35	0.224170	0.584120	0.167180
H361	H36	0.133880	0.441290	0.194200
H371	H37	0.086830	0.387630	0.532240
H381	H38	0.954680	0.405600	0.429800
H391	H39	0.879700	0.140440	0.432730
H401	H40	0.018150	0.111310	0.530760
Cd61	Cd6	0.682860	0.712570	0.816880
C611	C61	0.548800	0.578500	0.775500
C621	C62	0.488900	0.495700	0.759200
C631	C63	0.526000	0.418900	0.786900
C641	C64	0.472300	0.343600	0.769000
C651	C65	0.350100	0.417900	0.702100
C661	C66	0.398600	0.495600	0.716500
C671	C67	0.352100	0.766900	0.091900
C681	C68	0.436600	0.751900	0.035800
C691	C69	0.456600	0.670300	0.008800
C701	C70	0.529200	0.660800	0.953700
C711	C71	0.569100	0.805000	0.954400
C721	C72	0.495300	0.821100	0.008500
N111	N11	0.385800	0.342400	0.727300
N121	N12	0.583900	0.727000	0.925500
O211	O21	0.505500	0.649400	0.760600
O221	O22	0.637700	0.571600	0.803300
O231	O23	0.323000	0.842800	0.104900
O241	O24	0.311700	0.702600	0.121600
H411	H41	0.598740	0.418240	0.823360
H421	H42	0.501720	0.278960	0.790150
H431	H43	0.275830	0.415880	0.667180
H441	H44	0.366120	0.558710	0.694200
H451	H45	0.413170	0.612370	0.032240
H461	H46	0.545320	0.594400	0.929800
H471	H47	0.620300	0.859560	0.932730
H481	H48	0.481850	0.888690	0.030760
Cd71	Cd7	0.182860	0.787430	0.183120
C731	C73	0.048800	0.921500	0.224500
C741	C74	0.988900	0.004300	0.240800
C751	C75	0.026000	0.081100	0.213100
C761	C76	0.972300	0.156400	0.231000
C771	C77	0.850100	0.082100	0.297900
C781	C78	0.898600	0.004400	0.283500
C791	C79	0.852100	0.733100	0.908100
C801	C80	0.936600	0.748100	0.964200
C811	C81	0.956600	0.829700	0.991200
C821	C82	0.029200	0.839200	0.046300
C831	C83	0.069100	0.695000	0.045600
C841	C84	0.995300	0.678900	0.991500
N131	N13	0.885800	0.157600	0.272700
N141	N14	0.083900	0.773000	0.074500
O251	O25	0.005500	0.850600	0.239400
O261	O26	0.137700	0.928400	0.196700
O271	O27	0.823000	0.657200	0.895100
O281	O28	0.811700	0.797400	0.878400
H491	H49	0.098740	0.081760	0.176640
H501	H50	0.001720	0.221040	0.209850
H511	H51	0.775830	0.084120	0.332820
H521	H52	0.866120	0.941290	0.305800
H531	H53	0.913170	0.887630	0.967760
H541	H54	0.045320	0.905600	0.070200
H551	H55	0.120300	0.640440	0.067270
H561	H56	0.981850	0.611310	0.969240
Cd81	Cd8	0.317140	0.212570	0.683120
C851	C85	0.451200	0.078500	0.724500
C861	C86	0.511100	0.995700	0.740800
C871	C87	0.474000	0.918900	0.713100
C881	C88	0.527700	0.843600	0.731000
C891	C89	0.649900	0.917900	0.797900
C901	C90	0.601400	0.995600	0.783500
C911	C91	0.647900	0.266900	0.408100
C921	C92	0.563400	0.251900	0.464200
C931	C93	0.543400	0.170300	0.491200
C941	C94	0.470800	0.160800	0.546300
C951	C95	0.430900	0.305000	0.545600
C961	C96	0.504700	0.321100	0.491500
N151	N15	0.614200	0.842400	0.772700
N161	N16	0.416100	0.227000	0.574500
O291	O29	0.494500	0.149400	0.739400
O301	O30	0.362300	0.071600	0.696700
O311	O31	0.677000	0.342800	0.395100
O321	O32	0.688300	0.202600	0.378400
H571	H57	0.401260	0.918240	0.676640
H581	H58	0.498280	0.778960	0.709850
H591	H59	0.724170	0.915880	0.832820
H601	H60	0.633880	0.058710	0.805800
H611	H61	0.586830	0.112370	0.467760
H621	H62	0.454680	0.094400	0.570200
H631	H63	0.379700	0.359560	0.567270
H641	H64	0.518150	0.388690	0.469240
