data_KEJHIQ_clean_h_PM
_symmetry_space_group_name_H-M	'P1'
_cell_length_a	12.081000
_cell_length_b	15.323000
_cell_length_c	19.705000
_cell_angle_alpha	90.000000
_cell_angle_beta	90.000000
_cell_angle_gamma	90.000000
_symmetry_Int_Tables_number 1

loop_
_symmetry_equiv_pos_as_xyz
'x,y,z'

loop_
_atom_site_label
_atom_site_type_symbol
_atom_site_fract_x
_atom_site_fract_y
_atom_site_fract_z
Cd11	Cd1	0.688850	0.272250	0.178720
C11	C1	0.555000	0.408570	0.221360
C21	C2	0.493700	0.490030	0.242270
C31	C3	0.415400	0.488270	0.293370
C41	C4	0.365800	0.565520	0.312360
C51	C5	0.462900	0.643450	0.233170
C61	C6	0.517900	0.568850	0.211310
C71	C7	0.365000	0.255600	0.905070
C81	C8	0.449900	0.264030	0.960590
C91	C9	0.452300	0.336900	0.001350
C101	C10	0.522000	0.338700	0.057350
C111	C11	0.589000	0.202900	0.032070
C121	C12	0.521200	0.196500	0.976310
N11	N1	0.388500	0.642560	0.283640
N21	N2	0.589000	0.272420	0.073670
O11	O1	0.510900	0.335960	0.230660
O21	O2	0.647580	0.417860	0.194210
O31	O3	0.315350	0.322660	0.886000
O41	O4	0.344700	0.180630	0.883020
H11	H1	0.393060	0.423850	0.318860
H21	H2	0.301530	0.565970	0.354720
H31	H3	0.480370	0.708950	0.207910
H41	H4	0.581810	0.571680	0.168800
H51	H5	0.397300	0.395250	0.989040
H61	H6	0.523790	0.398500	0.091750
H71	H7	0.648730	0.147670	0.044770
H81	H8	0.523680	0.135660	0.943050
Cd21	Cd2	0.811150	0.727750	0.678720
C131	C13	0.945000	0.591430	0.721360
C141	C14	0.006300	0.509970	0.742270
C151	C15	0.084600	0.511730	0.793370
C161	C16	0.134200	0.434480	0.812360
C171	C17	0.037100	0.356550	0.733170
C181	C18	0.982100	0.431150	0.711310
C191	C19	0.135000	0.744400	0.405070
C201	C20	0.050100	0.735970	0.460590
C211	C21	0.047700	0.663100	0.501350
C221	C22	0.978000	0.661300	0.557350
C231	C23	0.911000	0.797100	0.532070
C241	C24	0.978800	0.803500	0.476310
N31	N3	0.111500	0.357440	0.783640
N41	N4	0.911000	0.727580	0.573670
O51	O5	0.989100	0.664040	0.730660
O61	O6	0.852420	0.582140	0.694210
O71	O7	0.184650	0.677340	0.386000
O81	O8	0.155300	0.819370	0.383020
H91	H9	0.106940	0.576150	0.818860
H101	H10	0.198470	0.434030	0.854720
H111	H11	0.019630	0.291050	0.707910
H121	H12	0.918190	0.428320	0.668800
H131	H13	0.102700	0.604750	0.489040
H141	H14	0.976210	0.601500	0.591750
H151	H15	0.851270	0.852330	0.544770
H161	H16	0.976320	0.864340	0.443050
Cd31	Cd3	0.311150	0.772250	0.321280
C251	C25	0.445000	0.908570	0.278640
C261	C26	0.506300	0.990030	0.257730
C271	C27	0.584600	0.988270	0.206630
C281	C28	0.634200	0.065520	0.187640
C291	C29	0.537100	0.143450	0.266830
C301	C30	0.482100	0.068850	0.288690
C311	C31	0.635000	0.755600	0.594930
C321	C32	0.550100	0.764030	0.539410
C331	C33	0.547700	0.836900	0.498650
C341	C34	0.478000	0.838700	0.442650
C351	C35	0.411000	0.702900	0.467930
C361	C36	0.478800	0.696500	0.523690
N51	N5	0.611500	0.142560	0.216360
N61	N6	0.411000	0.772420	0.426330
O91	O9	0.489100	0.835960	0.269340
O101	O10	0.352420	0.917860	0.305790
O111	O11	0.684650	0.822660	0.614000
O121	O12	0.655300	0.680630	0.616980
H171	H17	0.606940	0.923850	0.181140
H181	H18	0.698470	0.065970	0.145280
H191	H19	0.519630	0.208950	0.292090
H201	H20	0.418190	0.071680	0.331200
H211	H21	0.602700	0.895250	0.510960
H221	H22	0.476210	0.898500	0.408250
H231	H23	0.351270	0.647670	0.455230
H241	H24	0.476320	0.635660	0.556950
Cd41	Cd4	0.188850	0.227750	0.821280
C371	C37	0.055000	0.091430	0.778640
C381	C38	0.993700	0.009970	0.757730
C391	C39	0.915400	0.011730	0.706630
C401	C40	0.865800	0.934480	0.687640
C411	C41	0.962900	0.856550	0.766830
C421	C42	0.017900	0.931150	0.788690
C431	C43	0.865000	0.244400	0.094930
C441	C44	0.949900	0.235970	0.039410
C451	C45	0.952300	0.163100	0.998650
C461	C46	0.022000	0.161300	0.942650
C471	C47	0.089000	0.297100	0.967930
C481	C48	0.021200	0.303500	0.023690
N71	N7	0.888500	0.857440	0.716360
N81	N8	0.089000	0.227580	0.926330
O131	O13	0.010900	0.164040	0.769340
O141	O14	0.147580	0.082140	0.805790
O151	O15	0.815350	0.177340	0.114000
O161	O16	0.844700	0.319370	0.116980
H251	H25	0.893060	0.076150	0.681140
H261	H26	0.801530	0.934030	0.645280
H271	H27	0.980370	0.791050	0.792090
H281	H28	0.081810	0.928320	0.831200
H291	H29	0.897300	0.104750	0.010960
H301	H30	0.023790	0.101500	0.908250
H311	H31	0.148730	0.352330	0.955230
H321	H32	0.023680	0.364340	0.056950
Cd51	Cd5	0.311150	0.727750	0.821280
C491	C49	0.445000	0.591430	0.778640
C501	C50	0.506300	0.509970	0.757730
C511	C51	0.584600	0.511730	0.706630
C521	C52	0.634200	0.434480	0.687640
C531	C53	0.537100	0.356550	0.766830
C541	C54	0.482100	0.431150	0.788690
C551	C55	0.635000	0.744400	0.094930
C561	C56	0.550100	0.735970	0.039410
C571	C57	0.547700	0.663100	0.998650
C581	C58	0.478000	0.661300	0.942650
C591	C59	0.411000	0.797100	0.967930
C601	C60	0.478800	0.803500	0.023690
N91	N9	0.611500	0.357440	0.716360
N101	N10	0.411000	0.727580	0.926330
O171	O17	0.489100	0.664040	0.769340
O181	O18	0.352420	0.582140	0.805790
O191	O19	0.684650	0.677340	0.114000
O201	O20	0.655300	0.819370	0.116980
H331	H33	0.606940	0.576150	0.681140
H341	H34	0.698470	0.434030	0.645280
H351	H35	0.519630	0.291050	0.792090
H361	H36	0.418190	0.428320	0.831200
H371	H37	0.602700	0.604750	0.010960
H381	H38	0.476210	0.601500	0.908250
H391	H39	0.351270	0.852330	0.955230
H401	H40	0.476320	0.864340	0.056950
Cd61	Cd6	0.188850	0.272250	0.321280
C611	C61	0.055000	0.408570	0.278640
C621	C62	0.993700	0.490030	0.257730
C631	C63	0.915400	0.488270	0.206630
C641	C64	0.865800	0.565520	0.187640
C651	C65	0.962900	0.643450	0.266830
C661	C66	0.017900	0.568850	0.288690
C671	C67	0.865000	0.255600	0.594930
C681	C68	0.949900	0.264030	0.539410
C691	C69	0.952300	0.336900	0.498650
C701	C70	0.022000	0.338700	0.442650
C711	C71	0.089000	0.202900	0.467930
C721	C72	0.021200	0.196500	0.523690
N111	N11	0.888500	0.642560	0.216360
N121	N12	0.089000	0.272420	0.426330
O211	O21	0.010900	0.335960	0.269340
O221	O22	0.147580	0.417860	0.305790
O231	O23	0.815350	0.322660	0.614000
O241	O24	0.844700	0.180630	0.616980
H411	H41	0.893060	0.423850	0.181140
H421	H42	0.801530	0.565970	0.145280
H431	H43	0.980370	0.708950	0.292090
H441	H44	0.081810	0.571680	0.331200
H451	H45	0.897300	0.395250	0.510960
H461	H46	0.023790	0.398500	0.408250
H471	H47	0.148730	0.147670	0.455230
H481	H48	0.023680	0.135660	0.556950
Cd71	Cd7	0.688850	0.227750	0.678720
C731	C73	0.555000	0.091430	0.721360
C741	C74	0.493700	0.009970	0.742270
C751	C75	0.415400	0.011730	0.793370
C761	C76	0.365800	0.934480	0.812360
C771	C77	0.462900	0.856550	0.733170
C781	C78	0.517900	0.931150	0.711310
C791	C79	0.365000	0.244400	0.405070
C801	C80	0.449900	0.235970	0.460590
C811	C81	0.452300	0.163100	0.501350
C821	C82	0.522000	0.161300	0.557350
C831	C83	0.589000	0.297100	0.532070
C841	C84	0.521200	0.303500	0.476310
N131	N13	0.388500	0.857440	0.783640
N141	N14	0.589000	0.227580	0.573670
O251	O25	0.510900	0.164040	0.730660
O261	O26	0.647580	0.082140	0.694210
O271	O27	0.315350	0.177340	0.386000
O281	O28	0.344700	0.319370	0.383020
H491	H49	0.393060	0.076150	0.818860
H501	H50	0.301530	0.934030	0.854720
H511	H51	0.480370	0.791050	0.707910
H521	H52	0.581810	0.928320	0.668800
H531	H53	0.397300	0.104750	0.489040
H541	H54	0.523790	0.101500	0.591750
H551	H55	0.648730	0.352330	0.544770
H561	H56	0.523680	0.364340	0.443050
Cd81	Cd8	0.811150	0.772250	0.178720
C851	C85	0.945000	0.908570	0.221360
C861	C86	0.006300	0.990030	0.242270
C871	C87	0.084600	0.988270	0.293370
C881	C88	0.134200	0.065520	0.312360
C891	C89	0.037100	0.143450	0.233170
C901	C90	0.982100	0.068850	0.211310
C911	C91	0.135000	0.755600	0.905070
C921	C92	0.050100	0.764030	0.960590
C931	C93	0.047700	0.836900	0.001350
C941	C94	0.978000	0.838700	0.057350
C951	C95	0.911000	0.702900	0.032070
C961	C96	0.978800	0.696500	0.976310
N151	N15	0.111500	0.142560	0.283640
N161	N16	0.911000	0.772420	0.073670
O291	O29	0.989100	0.835960	0.230660
O301	O30	0.852420	0.917860	0.194210
O311	O31	0.184650	0.822660	0.886000
O321	O32	0.155300	0.680630	0.883020
H571	H57	0.106940	0.923850	0.318860
H581	H58	0.198470	0.065970	0.354720
H591	H59	0.019630	0.208950	0.207910
H601	H60	0.918190	0.071680	0.168800
H611	H61	0.102700	0.895250	0.989040
H621	H62	0.976210	0.898500	0.091750
H631	H63	0.851270	0.647670	0.044770
H641	H64	0.976320	0.635660	0.943050
