data_KEJXUU_clean_PM
_symmetry_space_group_name_H-M	'P1'
_cell_length_a	17.384900
_cell_length_b	21.033100
_cell_length_c	23.409000
_cell_angle_alpha	90.000000
_cell_angle_beta	91.978000
_cell_angle_gamma	90.000000
_symmetry_Int_Tables_number 1

loop_
_symmetry_equiv_pos_as_xyz
'x,y,z'

loop_
_atom_site_label
_atom_site_type_symbol
_atom_site_fract_x
_atom_site_fract_y
_atom_site_fract_z
Pr11	Pr1	0.571840	0.833530	0.906330
Pr21	Pr2	0.450320	0.827640	0.075500
Pr31	Pr3	0.935080	0.996910	0.585030
Pr41	Pr4	0.769650	0.086190	0.751760
Cu11	Cu1	0.230250	0.834950	0.725570
Cu21	Cu2	0.274840	0.001910	0.768400
Cu31	Cu3	0.288870	0.669840	0.760000
Cu41	Cu4	0.490210	0.116680	0.506430
Cl11	Cl1	0.476200	0.221000	0.501800
O11	O1	0.584100	0.716000	0.530200
O21	O2	0.615300	0.881300	0.743800
O31	O3	0.533900	0.876200	0.814700
O41	O4	0.595300	0.731600	0.961300
O51	O5	0.536900	0.747700	0.043100
O61	O6	0.926700	0.906400	0.649700
O71	O7	0.845300	0.878600	0.716300
O81	O8	0.444700	0.784500	0.897800
O91	O9	0.391500	0.798900	0.982400
O101	O10	0.977800	0.038400	0.680100
O111	O11	0.895100	0.040000	0.749600
O121	O12	0.427400	0.929100	0.023400
O131	O13	0.479400	0.912400	0.939700
O141	O14	0.435900	0.912400	0.144700
O151	O15	0.649100	0.063100	0.793000
O161	O16	0.877500	0.025800	0.491300
O171	O17	0.065900	0.953800	0.591400
O181	O18	0.592800	0.744700	0.839900
O191	O19	0.843200	0.168800	0.703600
O201	O20	0.636800	0.860200	0.997100
O211	O21	0.578500	0.876300	0.078700
O221	O22	0.504800	0.782700	0.164000
O231	O23	0.414600	0.781900	0.227400
O241	O24	0.921200	0.898500	0.526300
O251	O25	0.020600	0.080200	0.554300
O261	O26	0.748000	0.052100	0.656900
O271	O27	0.798400	0.980000	0.597300
N11	N1	0.347100	0.855800	0.702500
N21	N2	0.224800	0.813200	0.639700
N31	N3	0.116600	0.862100	0.750700
N41	N4	0.239400	0.818700	0.811200
N51	N5	0.164900	0.020900	0.791600
N61	N6	0.285200	0.976900	0.852200
N71	N7	0.383600	0.033300	0.747000
N81	N8	0.269100	0.983200	0.683400
N91	N9	0.399000	0.694800	0.737800
N101	N10	0.281000	0.652600	0.672300
N111	N11	0.179300	0.689500	0.781900
N121	N12	0.293800	0.643400	0.847400
N131	N13	0.559800	0.057300	0.536600
C11	C1	0.551300	0.874400	0.762100
C21	C2	0.483600	0.863600	0.720400
C31	C3	0.407500	0.867400	0.737400
H11	H1	0.398600	0.878700	0.775000
C41	C4	0.494500	0.849500	0.663900
H21	H2	0.544000	0.848300	0.650200
C51	C5	0.433200	0.837200	0.628000
H31	H3	0.441200	0.825400	0.590400
C61	C6	0.357200	0.842100	0.647500
C71	C7	0.289600	0.828800	0.612300
C81	C8	0.290100	0.831100	0.552100
H41	H4	0.334800	0.842800	0.534100
C91	C9	0.225800	0.816300	0.520100
H51	H5	0.226200	0.817900	0.480400
C101	C10	0.162500	0.798800	0.607200
H61	H6	0.117900	0.788100	0.625800
C111	C11	0.159200	0.798800	0.547600
C121	C12	0.591700	0.727500	0.014000
C131	C13	0.912700	0.887500	0.697300
C141	C14	0.979300	0.873900	0.736900
C151	C15	0.053900	0.873300	0.718000
H71	H7	0.060700	0.881200	0.679400
C161	C16	0.971100	0.859700	0.795900
H81	H8	0.922300	0.856900	0.810700
C171	C17	0.033700	0.850200	0.830500
H91	H9	0.028500	0.844000	0.869500
C181	C18	0.106200	0.849700	0.807000
C191	C19	0.177800	0.834400	0.840600
C201	C20	0.179200	0.836100	0.902000
H101	H10	0.135700	0.846500	0.922000
C211	C21	0.247500	0.821700	0.929600
H111	H11	0.250600	0.822800	0.969300
C221	C22	0.302600	0.802900	0.840600
H121	H12	0.344300	0.789000	0.820100
C231	C23	0.312100	0.805500	0.900100
C241	C24	0.389100	0.793500	0.929600
C251	C25	0.961200	0.037000	0.731200
C261	C26	0.027500	0.029400	0.774300
C271	C27	0.016300	0.016900	0.832000
H131	H13	0.966800	0.015500	0.845800
C281	C28	0.102600	0.030300	0.756300
H141	H14	0.110700	0.037700	0.717900
C291	C29	0.078000	0.006800	0.867600
H151	H15	0.070900	0.999500	0.906200
C301	C30	0.151900	0.007400	0.846900
C311	C31	0.223200	0.992200	0.882400
C321	C32	0.225600	0.992100	0.942700
H161	H16	0.182000	0.002500	0.962600
C331	C33	0.291700	0.976700	0.971000
H171	H17	0.294400	0.978100	0.010800
C341	C34	0.349400	0.960700	0.882200
H181	H18	0.392600	0.949800	0.861900
C351	C35	0.355400	0.959100	0.941600
C361	C36	0.426300	0.932500	0.971100
C371	C37	0.417900	0.932600	0.192400
C381	C38	0.479900	0.951400	0.234100
C391	C39	0.443100	0.048000	0.781800
H191	H19	0.432900	0.058600	0.819300
C401	C40	0.465800	0.968900	0.289900
H201	H20	0.415700	0.970700	0.302400
C411	C41	0.527400	0.983700	0.326500
H211	H21	0.518500	0.993700	0.364400
C421	C42	0.399900	0.016300	0.692000
C431	C43	0.332100	0.002300	0.655800
C441	C44	0.330800	0.006900	0.595700
H221	H22	0.374800	0.018600	0.576800
C451	C45	0.263500	0.993600	0.565400
H231	H23	0.261500	0.996800	0.525800
C461	C46	0.205500	0.970200	0.651800
H241	H24	0.162000	0.956600	0.670400
C471	C47	0.200800	0.976000	0.593100
C481	C48	0.876600	0.034100	0.439000
C491	C49	0.599000	0.706500	0.800700
C501	C50	0.535400	0.700000	0.755500
C511	C51	0.459800	0.704300	0.772600
H251	H25	0.451300	0.714300	0.810500
C521	C52	0.546600	0.687400	0.699600
H261	H26	0.596500	0.683900	0.686800
C531	C53	0.486900	0.679900	0.662400
H271	H27	0.495700	0.673700	0.623800
C541	C54	0.413900	0.681400	0.680600
C551	C55	0.344700	0.669200	0.645000
C561	C56	0.345300	0.671200	0.584600
H281	H28	0.390400	0.680900	0.566100
C571	C57	0.278500	0.658800	0.553500
H291	H29	0.277900	0.661400	0.513800
C581	C58	0.217500	0.639100	0.639900
H301	H30	0.173600	0.626500	0.658500
C591	C59	0.213200	0.642800	0.580700
C601	C60	0.637800	0.866000	0.049600
C611	C61	0.481600	0.785500	0.213800
C621	C62	0.544100	0.795900	0.259900
C631	C63	0.120600	0.702800	0.744700
H311	H31	0.131900	0.711500	0.707000
C641	C64	0.528400	0.807000	0.317400
H321	H32	0.478100	0.804800	0.329500
C651	C65	0.586500	0.821000	0.355300
H331	H33	0.576200	0.829000	0.393400
C661	C66	0.163200	0.676800	0.836700
C671	C67	0.228500	0.660800	0.873500
C681	C68	0.227000	0.664700	0.934100
H341	H34	0.182900	0.678100	0.952000
C691	C69	0.291600	0.648200	0.965300
H351	H35	0.291400	0.650500	0.005000
C701	C70	0.355600	0.627800	0.880400
H361	H36	0.400100	0.615800	0.862300
C711	C71	0.357600	0.628400	0.939200
C721	C72	0.925600	0.897500	0.472900
C731	C73	0.744300	0.012400	0.615600
C741	C74	0.668600	0.007200	0.583700
C751	C75	0.625700	0.060900	0.570000
H371	H37	0.642200	0.100200	0.583800
C761	C76	0.534900	0.002100	0.516800
C771	C77	0.428500	0.047700	0.469600
C781	C78	0.642800	0.950000	0.562600
H381	H38	0.669800	0.912300	0.568900
Pr51	Pr5	0.928160	0.333530	0.593670
Pr61	Pr6	0.049680	0.327640	0.424500
Pr71	Pr7	0.564920	0.496910	0.914970
Pr81	Pr8	0.730350	0.586190	0.748240
Cu51	Cu5	0.269750	0.334950	0.774430
Cu61	Cu6	0.225160	0.501910	0.731600
Cu71	Cu7	0.211130	0.169840	0.740000
Cu81	Cu8	0.009790	0.616680	0.993570
Cl21	Cl2	0.023800	0.721000	0.998200
O281	O28	0.915900	0.216000	0.969800
O291	O29	0.884700	0.381300	0.756200
O301	O30	0.966100	0.376200	0.685300
O311	O31	0.904700	0.231600	0.538700
O321	O32	0.963100	0.247700	0.456900
O331	O33	0.573300	0.406400	0.850300
O341	O34	0.654700	0.378600	0.783700
O351	O35	0.055300	0.284500	0.602200
O361	O36	0.108500	0.298900	0.517600
O371	O37	0.522200	0.538400	0.819900
O381	O38	0.604900	0.540000	0.750400
O391	O39	0.072600	0.429100	0.476600
O401	O40	0.020600	0.412400	0.560300
O411	O41	0.064100	0.412400	0.355300
O421	O42	0.850900	0.563100	0.707000
O431	O43	0.622500	0.525800	0.008700
O441	O44	0.434100	0.453800	0.908600
O451	O45	0.907200	0.244700	0.660100
O461	O46	0.656800	0.668800	0.796400
O471	O47	0.863200	0.360200	0.502900
O481	O48	0.921500	0.376300	0.421300
O491	O49	0.995200	0.282700	0.336000
O501	O50	0.085400	0.281900	0.272600
O511	O51	0.578800	0.398500	0.973700
O521	O52	0.479400	0.580200	0.945700
O531	O53	0.752000	0.552100	0.843100
O541	O54	0.701600	0.480000	0.902700
N141	N14	0.152900	0.355800	0.797500
N151	N15	0.275200	0.313200	0.860300
N161	N16	0.383400	0.362100	0.749300
N171	N17	0.260600	0.318700	0.688800
N181	N18	0.335100	0.520900	0.708400
N191	N19	0.214800	0.476900	0.647800
N201	N20	0.116400	0.533300	0.753000
N211	N21	0.230900	0.483200	0.816600
N221	N22	0.101000	0.194800	0.762200
N231	N23	0.219000	0.152600	0.827700
N241	N24	0.320700	0.189500	0.718100
N251	N25	0.206200	0.143400	0.652600
N261	N26	0.940200	0.557300	0.963400
C791	C79	0.948700	0.374400	0.737900
C801	C80	0.016400	0.363600	0.779600
C811	C81	0.092500	0.367400	0.762600
H391	H39	0.101400	0.378700	0.725000
C821	C82	0.005500	0.349500	0.836100
H401	H40	0.956000	0.348300	0.849800
C831	C83	0.066800	0.337200	0.872000
H411	H41	0.058800	0.325400	0.909600
C841	C84	0.142800	0.342100	0.852500
C851	C85	0.210400	0.328800	0.887700
C861	C86	0.209900	0.331100	0.947900
H421	H42	0.165200	0.342800	0.965900
C871	C87	0.274200	0.316300	0.979900
H431	H43	0.273800	0.317900	0.019600
C881	C88	0.337500	0.298800	0.892800
H441	H44	0.382100	0.288100	0.874200
C891	C89	0.340800	0.298800	0.952400
C901	C90	0.908300	0.227500	0.486000
C911	C91	0.587300	0.387500	0.802700
C921	C92	0.520700	0.373900	0.763100
C931	C93	0.446100	0.373300	0.782000
H451	H45	0.439300	0.381200	0.820600
C941	C94	0.528900	0.359700	0.704100
H461	H46	0.577700	0.356900	0.689300
C951	C95	0.466300	0.350200	0.669500
H471	H47	0.471500	0.344000	0.630500
C961	C96	0.393800	0.349700	0.693000
C971	C97	0.322200	0.334400	0.659400
C981	C98	0.320800	0.336100	0.598000
H481	H48	0.364300	0.346500	0.578000
C991	C99	0.252500	0.321700	0.570400
H491	H49	0.249400	0.322800	0.530700
C1001	C100	0.197400	0.302900	0.659400
H501	H50	0.155700	0.289000	0.679900
C1011	C101	0.187900	0.305500	0.599900
C1021	C102	0.110900	0.293500	0.570400
C1031	C103	0.538800	0.537000	0.768800
C1041	C104	0.472500	0.529400	0.725700
C1051	C105	0.483700	0.516900	0.668000
H511	H51	0.533200	0.515500	0.654200
C1061	C106	0.397400	0.530300	0.743700
H521	H52	0.389300	0.537700	0.782100
C1071	C107	0.422000	0.506800	0.632400
H531	H53	0.429100	0.499500	0.593800
C1081	C108	0.348100	0.507400	0.653100
C1091	C109	0.276800	0.492200	0.617600
C1101	C110	0.274400	0.492100	0.557300
H541	H54	0.318000	0.502500	0.537400
C1111	C111	0.208300	0.476700	0.529000
H551	H55	0.205600	0.478100	0.489200
C1121	C112	0.150600	0.460700	0.617800
H561	H56	0.107400	0.449800	0.638100
C1131	C113	0.144600	0.459100	0.558400
C1141	C114	0.073700	0.432500	0.528900
C1151	C115	0.082100	0.432600	0.307600
C1161	C116	0.020100	0.451400	0.265900
C1171	C117	0.056900	0.548000	0.718200
H571	H57	0.067100	0.558600	0.680700
C1181	C118	0.034200	0.468900	0.210100
H581	H58	0.084300	0.470700	0.197600
C1191	C119	0.972600	0.483700	0.173500
H591	H59	0.981500	0.493700	0.135600
C1201	C120	0.100100	0.516300	0.808000
C1211	C121	0.167900	0.502300	0.844200
C1221	C122	0.169200	0.506900	0.904300
H601	H60	0.125200	0.518600	0.923200
C1231	C123	0.236500	0.493600	0.934600
H611	H61	0.238500	0.496800	0.974200
C1241	C124	0.294500	0.470200	0.848200
H621	H62	0.338000	0.456600	0.829600
C1251	C125	0.299200	0.476000	0.906900
C1261	C126	0.623400	0.534100	0.061000
C1271	C127	0.901000	0.206500	0.699300
C1281	C128	0.964600	0.200000	0.744500
C1291	C129	0.040200	0.204300	0.727400
H631	H63	0.048700	0.214300	0.689500
C1301	C130	0.953400	0.187400	0.800400
H641	H64	0.903500	0.183900	0.813200
C1311	C131	0.013100	0.179900	0.837600
H651	H65	0.004300	0.173700	0.876200
C1321	C132	0.086100	0.181400	0.819400
C1331	C133	0.155300	0.169200	0.855000
C1341	C134	0.154700	0.171200	0.915400
H661	H66	0.109600	0.180900	0.933900
C1351	C135	0.221500	0.158800	0.946500
H671	H67	0.222100	0.161400	0.986200
C1361	C136	0.282500	0.139100	0.860100
H681	H68	0.326400	0.126500	0.841500
C1371	C137	0.286800	0.142800	0.919300
C1381	C138	0.862200	0.366000	0.450400
C1391	C139	0.018400	0.285500	0.286200
C1401	C140	0.955900	0.295900	0.240100
C1411	C141	0.379400	0.202800	0.755300
H691	H69	0.368100	0.211500	0.793000
C1421	C142	0.971600	0.307000	0.182600
H701	H70	0.021900	0.304800	0.170500
C1431	C143	0.913500	0.321000	0.144700
H711	H71	0.923800	0.329000	0.106600
C1441	C144	0.336800	0.176800	0.663300
C1451	C145	0.271500	0.160800	0.626500
C1461	C146	0.273000	0.164700	0.565900
H721	H72	0.317100	0.178100	0.548000
C1471	C147	0.208400	0.148200	0.534700
H731	H73	0.208600	0.150500	0.495000
C1481	C148	0.144400	0.127800	0.619600
H741	H74	0.099900	0.115800	0.637700
C1491	C149	0.142400	0.128400	0.560800
C1501	C150	0.574400	0.397500	0.027100
C1511	C151	0.755700	0.512400	0.884400
C1521	C152	0.831400	0.507200	0.916300
C1531	C153	0.874300	0.560900	0.930000
H751	H75	0.857800	0.600200	0.916200
C1541	C154	0.965100	0.502100	0.983200
C1551	C155	0.071500	0.547700	0.030400
C1561	C156	0.857200	0.450000	0.937400
H761	H76	0.830200	0.412300	0.931100
Pr91	Pr9	0.428160	0.166470	0.093670
Pr101	Pr10	0.549680	0.172360	0.924500
Pr111	Pr11	0.064920	0.003090	0.414970
Pr121	Pr12	0.230350	0.913810	0.248240
Cu91	Cu9	0.769750	0.165050	0.274430
Cu101	Cu10	0.725160	0.998090	0.231600
Cu111	Cu11	0.711130	0.330160	0.240000
Cu121	Cu12	0.509790	0.883320	0.493570
Cl31	Cl3	0.523800	0.779000	0.498200
O551	O55	0.415900	0.284000	0.469800
O561	O56	0.384700	0.118700	0.256200
O571	O57	0.466100	0.123800	0.185300
O581	O58	0.404700	0.268400	0.038700
O591	O59	0.463100	0.252300	0.956900
O601	O60	0.073300	0.093600	0.350300
O611	O61	0.154700	0.121400	0.283700
O621	O62	0.555300	0.215500	0.102200
O631	O63	0.608500	0.201100	0.017600
O641	O64	0.022200	0.961600	0.319900
O651	O65	0.104900	0.960000	0.250400
O661	O66	0.572600	0.070900	0.976600
O671	O67	0.520600	0.087600	0.060300
O681	O68	0.564100	0.087600	0.855300
O691	O69	0.350900	0.936900	0.207000
O701	O70	0.122500	0.974200	0.508700
O711	O71	0.934100	0.046200	0.408600
O721	O72	0.407200	0.255300	0.160100
O731	O73	0.156800	0.831200	0.296400
O741	O74	0.363200	0.139800	0.002900
O751	O75	0.421500	0.123700	0.921300
O761	O76	0.495200	0.217300	0.836000
O771	O77	0.585400	0.218100	0.772600
O781	O78	0.078800	0.101500	0.473700
O791	O79	0.979400	0.919800	0.445700
O801	O80	0.252000	0.947900	0.343100
O811	O81	0.201600	0.020000	0.402700
N271	N27	0.652900	0.144200	0.297500
N281	N28	0.775200	0.186800	0.360300
N291	N29	0.883400	0.137900	0.249300
N301	N30	0.760600	0.181300	0.188800
N311	N31	0.835100	0.979100	0.208400
N321	N32	0.714800	0.023100	0.147800
N331	N33	0.616400	0.966700	0.253000
N341	N34	0.730900	0.016800	0.316600
N351	N35	0.601000	0.305200	0.262200
N361	N36	0.719000	0.347400	0.327700
N371	N37	0.820700	0.310500	0.218100
N381	N38	0.706200	0.356600	0.152600
N391	N39	0.440200	0.942700	0.463400
C1571	C157	0.448700	0.125600	0.237900
C1581	C158	0.516400	0.136400	0.279600
C1591	C159	0.592500	0.132600	0.262600
H771	H77	0.601400	0.121300	0.225000
C1601	C160	0.505500	0.150500	0.336100
H781	H78	0.456000	0.151700	0.349800
C1611	C161	0.566800	0.162800	0.372000
H791	H79	0.558800	0.174600	0.409600
C1621	C162	0.642800	0.157900	0.352500
C1631	C163	0.710400	0.171200	0.387700
C1641	C164	0.709900	0.168900	0.447900
H801	H80	0.665200	0.157200	0.465900
C1651	C165	0.774200	0.183700	0.479900
H811	H81	0.773800	0.182100	0.519600
C1661	C166	0.837500	0.201200	0.392800
H821	H82	0.882100	0.211900	0.374200
C1671	C167	0.840800	0.201200	0.452400
C1681	C168	0.408300	0.272500	0.986000
C1691	C169	0.087300	0.112500	0.302700
C1701	C170	0.020700	0.126100	0.263100
C1711	C171	0.946100	0.126700	0.282000
H831	H83	0.939300	0.118800	0.320600
C1721	C172	0.028900	0.140300	0.204100
H841	H84	0.077700	0.143100	0.189300
C1731	C173	0.966300	0.149800	0.169500
H851	H85	0.971500	0.156000	0.130500
C1741	C174	0.893800	0.150300	0.193000
C1751	C175	0.822200	0.165600	0.159400
C1761	C176	0.820800	0.163900	0.098000
H861	H86	0.864300	0.153500	0.078000
C1771	C177	0.752500	0.178300	0.070400
H871	H87	0.749400	0.177200	0.030700
C1781	C178	0.697400	0.197100	0.159400
H881	H88	0.655700	0.211000	0.179900
C1791	C179	0.687900	0.194500	0.099900
C1801	C180	0.610900	0.206500	0.070400
C1811	C181	0.038800	0.963000	0.268800
C1821	C182	0.972500	0.970600	0.225700
C1831	C183	0.983700	0.983100	0.168000
H891	H89	0.033200	0.984500	0.154200
C1841	C184	0.897400	0.969700	0.243700
H901	H90	0.889300	0.962300	0.282100
C1851	C185	0.922000	0.993200	0.132400
H911	H91	0.929100	0.000500	0.093800
C1861	C186	0.848100	0.992600	0.153100
C1871	C187	0.776800	0.007800	0.117600
C1881	C188	0.774400	0.007900	0.057300
H921	H92	0.818000	0.997500	0.037400
C1891	C189	0.708300	0.023300	0.029000
H931	H93	0.705600	0.021900	0.989200
C1901	C190	0.650600	0.039300	0.117800
H941	H94	0.607400	0.050200	0.138100
C1911	C191	0.644600	0.040900	0.058400
C1921	C192	0.573700	0.067500	0.028900
C1931	C193	0.582100	0.067400	0.807600
C1941	C194	0.520100	0.048600	0.765900
C1951	C195	0.556900	0.952000	0.218200
H951	H95	0.567100	0.941400	0.180700
C1961	C196	0.534200	0.031100	0.710100
H961	H96	0.584300	0.029300	0.697600
C1971	C197	0.472600	0.016300	0.673500
H971	H97	0.481500	0.006300	0.635600
C1981	C198	0.600100	0.983700	0.308000
C1991	C199	0.667900	0.997700	0.344200
C2001	C200	0.669200	0.993100	0.404300
H981	H98	0.625200	0.981400	0.423200
C2011	C201	0.736500	0.006400	0.434600
H991	H99	0.738500	0.003200	0.474200
C2021	C202	0.794500	0.029800	0.348200
H1001	H100	0.838000	0.043400	0.329600
C2031	C203	0.799200	0.024000	0.406900
C2041	C204	0.123400	0.965900	0.561000
C2051	C205	0.401000	0.293500	0.199300
C2061	C206	0.464600	0.300000	0.244500
C2071	C207	0.540200	0.295700	0.227400
H1011	H101	0.548700	0.285700	0.189500
C2081	C208	0.453400	0.312600	0.300400
H1021	H102	0.403500	0.316100	0.313200
C2091	C209	0.513100	0.320100	0.337600
H1031	H103	0.504300	0.326300	0.376200
C2101	C210	0.586100	0.318600	0.319400
C2111	C211	0.655300	0.330800	0.355000
C2121	C212	0.654700	0.328800	0.415400
H1041	H104	0.609600	0.319100	0.433900
C2131	C213	0.721500	0.341200	0.446500
H1051	H105	0.722100	0.338600	0.486200
C2141	C214	0.782500	0.360900	0.360100
H1061	H106	0.826400	0.373500	0.341500
C2151	C215	0.786800	0.357200	0.419300
C2161	C216	0.362200	0.134000	0.950400
C2171	C217	0.518400	0.214500	0.786200
C2181	C218	0.455900	0.204100	0.740100
C2191	C219	0.879400	0.297200	0.255300
H1071	H107	0.868100	0.288500	0.293000
C2201	C220	0.471600	0.193000	0.682600
H1081	H108	0.521900	0.195200	0.670500
C2211	C221	0.413500	0.179000	0.644700
H1091	H109	0.423800	0.171000	0.606600
C2221	C222	0.836800	0.323200	0.163300
C2231	C223	0.771500	0.339200	0.126500
C2241	C224	0.773000	0.335300	0.065900
H1101	H110	0.817100	0.321900	0.048000
C2251	C225	0.708400	0.351800	0.034700
H1111	H111	0.708600	0.349500	0.995000
C2261	C226	0.644400	0.372200	0.119600
H1121	H112	0.599900	0.384200	0.137700
C2271	C227	0.642400	0.371600	0.060800
C2281	C228	0.074400	0.102500	0.527100
C2291	C229	0.255700	0.987600	0.384400
C2301	C230	0.331400	0.992800	0.416300
C2311	C231	0.374300	0.939100	0.430000
H1131	H113	0.357800	0.899800	0.416200
C2321	C232	0.465100	0.997900	0.483200
C2331	C233	0.571500	0.952300	0.530400
C2341	C234	0.357200	0.050000	0.437400
H1141	H114	0.330200	0.087700	0.431100
Pr131	Pr13	0.071840	0.666470	0.406330
Pr141	Pr14	0.950320	0.672360	0.575500
Pr151	Pr15	0.435080	0.503090	0.085030
Pr161	Pr16	0.269650	0.413810	0.251760
Cu131	Cu13	0.730250	0.665050	0.225570
Cu141	Cu14	0.774840	0.498090	0.268400
Cu151	Cu15	0.788870	0.830160	0.260000
Cu161	Cu16	0.990210	0.383320	0.006430
Cl41	Cl4	0.976200	0.279000	0.001800
O821	O82	0.084100	0.784000	0.030200
O831	O83	0.115300	0.618700	0.243800
O841	O84	0.033900	0.623800	0.314700
O851	O85	0.095300	0.768400	0.461300
O861	O86	0.036900	0.752300	0.543100
O871	O87	0.426700	0.593600	0.149700
O881	O88	0.345300	0.621400	0.216300
O891	O89	0.944700	0.715500	0.397800
O901	O90	0.891500	0.701100	0.482400
O911	O91	0.477800	0.461600	0.180100
O921	O92	0.395100	0.460000	0.249600
O931	O93	0.927400	0.570900	0.523400
O941	O94	0.979400	0.587600	0.439700
O951	O95	0.935900	0.587600	0.644700
O961	O96	0.149100	0.436900	0.293000
O971	O97	0.377500	0.474200	0.991300
O981	O98	0.565900	0.546200	0.091400
O991	O99	0.092800	0.755300	0.339900
O1001	O100	0.343200	0.331200	0.203600
O1011	O101	0.136800	0.639800	0.497100
O1021	O102	0.078500	0.623700	0.578700
O1031	O103	0.004800	0.717300	0.664000
O1041	O104	0.914600	0.718100	0.727400
O1051	O105	0.421200	0.601500	0.026300
O1061	O106	0.520600	0.419800	0.054300
O1071	O107	0.248000	0.447900	0.156900
O1081	O108	0.298400	0.520000	0.097300
N401	N40	0.847100	0.644200	0.202500
N411	N41	0.724800	0.686800	0.139700
N421	N42	0.616600	0.637900	0.250700
N431	N43	0.739400	0.681300	0.311200
N441	N44	0.664900	0.479100	0.291600
N451	N45	0.785200	0.523100	0.352200
N461	N46	0.883600	0.466700	0.247000
N471	N47	0.769100	0.516800	0.183400
N481	N48	0.899000	0.805200	0.237800
N491	N49	0.781000	0.847400	0.172300
N501	N50	0.679300	0.810500	0.281900
N511	N51	0.793800	0.856600	0.347400
N521	N52	0.059800	0.442700	0.036600
C2351	C235	0.051300	0.625600	0.262100
C2361	C236	0.983600	0.636400	0.220400
C2371	C237	0.907500	0.632600	0.237400
H1151	H115	0.898600	0.621300	0.275000
C2381	C238	0.994500	0.650500	0.163900
H1161	H116	0.044000	0.651700	0.150200
C2391	C239	0.933200	0.662800	0.128000
H1171	H117	0.941200	0.674600	0.090400
C2401	C240	0.857200	0.657900	0.147500
C2411	C241	0.789600	0.671200	0.112300
C2421	C242	0.790100	0.668900	0.052100
H1181	H118	0.834800	0.657200	0.034100
C2431	C243	0.725800	0.683700	0.020100
H1191	H119	0.726200	0.682100	0.980400
C2441	C244	0.662500	0.701200	0.107200
H1201	H120	0.617900	0.711900	0.125800
C2451	C245	0.659200	0.701200	0.047600
C2461	C246	0.091700	0.772500	0.514000
C2471	C247	0.412700	0.612500	0.197300
C2481	C248	0.479300	0.626100	0.236900
C2491	C249	0.553900	0.626700	0.218000
H1211	H121	0.560700	0.618800	0.179400
C2501	C250	0.471100	0.640300	0.295900
H1221	H122	0.422300	0.643100	0.310700
C2511	C251	0.533700	0.649800	0.330500
H1231	H123	0.528500	0.656000	0.369500
C2521	C252	0.606200	0.650300	0.307000
C2531	C253	0.677800	0.665600	0.340600
C2541	C254	0.679200	0.663900	0.402000
H1241	H124	0.635700	0.653500	0.422000
C2551	C255	0.747500	0.678300	0.429600
H1251	H125	0.750600	0.677200	0.469300
C2561	C256	0.802600	0.697100	0.340600
H1261	H126	0.844300	0.711000	0.320100
C2571	C257	0.812100	0.694500	0.400100
C2581	C258	0.889100	0.706500	0.429600
C2591	C259	0.461200	0.463000	0.231200
C2601	C260	0.527500	0.470600	0.274300
C2611	C261	0.516300	0.483100	0.332000
H1271	H127	0.466800	0.484500	0.345800
C2621	C262	0.602600	0.469700	0.256300
H1281	H128	0.610700	0.462300	0.217900
C2631	C263	0.578000	0.493200	0.367600
H1291	H129	0.570900	0.500500	0.406200
C2641	C264	0.651900	0.492600	0.346900
C2651	C265	0.723200	0.507800	0.382400
C2661	C266	0.725600	0.507900	0.442700
H1301	H130	0.682000	0.497500	0.462600
C2671	C267	0.791700	0.523300	0.471000
H1311	H131	0.794400	0.521900	0.510800
C2681	C268	0.849400	0.539300	0.382200
H1321	H132	0.892600	0.550200	0.361900
C2691	C269	0.855400	0.540900	0.441600
C2701	C270	0.926300	0.567500	0.471100
C2711	C271	0.917900	0.567400	0.692400
C2721	C272	0.979900	0.548600	0.734100
C2731	C273	0.943100	0.452000	0.281800
H1331	H133	0.932900	0.441400	0.319300
C2741	C274	0.965800	0.531100	0.789900
H1341	H134	0.915700	0.529300	0.802400
C2751	C275	0.027400	0.516300	0.826500
H1351	H135	0.018500	0.506300	0.864400
C2761	C276	0.899900	0.483700	0.192000
C2771	C277	0.832100	0.497700	0.155800
C2781	C278	0.830800	0.493100	0.095700
H1361	H136	0.874800	0.481400	0.076800
C2791	C279	0.763500	0.506400	0.065400
H1371	H137	0.761500	0.503200	0.025800
C2801	C280	0.705500	0.529800	0.151800
H1381	H138	0.662000	0.543400	0.170400
C2811	C281	0.700800	0.524000	0.093100
C2821	C282	0.376600	0.465900	0.939000
C2831	C283	0.099000	0.793500	0.300700
C2841	C284	0.035400	0.800000	0.255500
C2851	C285	0.959800	0.795700	0.272600
H1391	H139	0.951300	0.785700	0.310500
C2861	C286	0.046600	0.812600	0.199600
H1401	H140	0.096500	0.816100	0.186800
C2871	C287	0.986900	0.820100	0.162400
H1411	H141	0.995700	0.826300	0.123800
C2881	C288	0.913900	0.818600	0.180600
C2891	C289	0.844700	0.830800	0.145000
C2901	C290	0.845300	0.828800	0.084600
H1421	H142	0.890400	0.819100	0.066100
C2911	C291	0.778500	0.841200	0.053500
H1431	H143	0.777900	0.838600	0.013800
C2921	C292	0.717500	0.860900	0.139900
H1441	H144	0.673600	0.873500	0.158500
C2931	C293	0.713200	0.857200	0.080700
C2941	C294	0.137800	0.634000	0.549600
C2951	C295	0.981600	0.714500	0.713800
C2961	C296	0.044100	0.704100	0.759900
C2971	C297	0.620600	0.797200	0.244700
H1451	H145	0.631900	0.788500	0.207000
C2981	C298	0.028400	0.693000	0.817400
H1461	H146	0.978100	0.695200	0.829500
C2991	C299	0.086500	0.679000	0.855300
H1471	H147	0.076200	0.671000	0.893400
C3001	C300	0.663200	0.823200	0.336700
C3011	C301	0.728500	0.839200	0.373500
C3021	C302	0.727000	0.835300	0.434100
H1481	H148	0.682900	0.821900	0.452000
C3031	C303	0.791600	0.851800	0.465300
H1491	H149	0.791400	0.849500	0.505000
C3041	C304	0.855600	0.872200	0.380400
H1501	H150	0.900100	0.884200	0.362300
C3051	C305	0.857600	0.871600	0.439200
C3061	C306	0.425600	0.602500	0.972900
C3071	C307	0.244300	0.487600	0.115600
C3081	C308	0.168600	0.492800	0.083700
C3091	C309	0.125700	0.439100	0.070000
H1511	H151	0.142200	0.399800	0.083800
C3101	C310	0.034900	0.497900	0.016800
C3111	C311	0.928500	0.452300	0.969600
C3121	C312	0.142800	0.550000	0.062600
H1521	H152	0.169800	0.587700	0.068900
