data_KEPPIF_clean_PM
_symmetry_space_group_name_H-M	'P1'
_cell_length_a	16.807000
_cell_length_b	16.807000
_cell_length_c	16.807000
_cell_angle_alpha	90.000000
_cell_angle_beta	90.000000
_cell_angle_gamma	90.000000
_symmetry_Int_Tables_number 1

loop_
_symmetry_equiv_pos_as_xyz
'x,y,z'

loop_
_atom_site_label
_atom_site_type_symbol
_atom_site_fract_x
_atom_site_fract_y
_atom_site_fract_z
C11	C1	0.820800	0.391000	0.341300
C21	C2	0.876000	0.457300	0.302100
C31	C3	0.946700	0.414000	0.262300
C41	C4	0.990400	0.386400	0.573400
O11	O1	0.788500	0.343400	0.294400
O21	O2	0.904600	0.506700	0.364200
O31	O3	0.814400	0.390100	0.414800
O41	O4	0.016300	0.433500	0.288400
O51	O5	0.935100	0.364200	0.210200
O61	O6	0.921400	0.378900	0.548900
O71	O7	0.026000	0.334600	0.616800
Zn11	Zn1	0.874640	0.472710	0.482760
C51	C5	0.679200	0.609000	0.841300
C61	C6	0.624000	0.542700	0.802100
C71	C7	0.553300	0.586000	0.762300
C81	C8	0.509600	0.613600	0.073400
O81	O8	0.711500	0.656600	0.794400
O91	O9	0.595400	0.493300	0.864200
O101	O10	0.685600	0.609900	0.914800
O111	O11	0.483700	0.566500	0.788400
O121	O12	0.564900	0.635800	0.710200
O131	O13	0.578600	0.621100	0.048900
O141	O14	0.474000	0.665400	0.116800
Zn21	Zn2	0.625360	0.527290	0.982760
C91	C9	0.179200	0.891000	0.158700
C101	C10	0.124000	0.957300	0.197900
C111	C11	0.053300	0.914000	0.237700
C121	C12	0.009600	0.886400	0.926600
O151	O15	0.211500	0.843400	0.205600
O161	O16	0.095400	0.006700	0.135800
O171	O17	0.185600	0.890100	0.085200
O181	O18	0.983700	0.933500	0.211600
O191	O19	0.064900	0.864200	0.289800
O201	O20	0.078600	0.878900	0.951100
O211	O21	0.974000	0.834600	0.883200
Zn31	Zn3	0.125360	0.972710	0.017240
C131	C13	0.320800	0.109000	0.658700
C141	C14	0.376000	0.042700	0.697900
C151	C15	0.446700	0.086000	0.737700
C161	C16	0.490400	0.113600	0.426600
O221	O22	0.288500	0.156600	0.705600
O231	O23	0.404600	0.993300	0.635800
O241	O24	0.314400	0.109900	0.585200
O251	O25	0.516300	0.066500	0.711600
O261	O26	0.435100	0.135800	0.789800
O271	O27	0.421400	0.121100	0.451100
O281	O28	0.526000	0.165400	0.383200
Zn41	Zn4	0.374640	0.027290	0.517240
C171	C17	0.341300	0.820800	0.391000
C181	C18	0.302100	0.876000	0.457300
C191	C19	0.262300	0.946700	0.414000
C201	C20	0.573400	0.990400	0.386400
O291	O29	0.294400	0.788500	0.343400
O301	O30	0.364200	0.904600	0.506700
O311	O31	0.414800	0.814400	0.390100
O321	O32	0.288400	0.016300	0.433500
O331	O33	0.210200	0.935100	0.364200
O341	O34	0.548900	0.921400	0.378900
O351	O35	0.616800	0.026000	0.334600
Zn51	Zn5	0.482760	0.874640	0.472710
C211	C21	0.841300	0.679200	0.609000
C221	C22	0.802100	0.624000	0.542700
C231	C23	0.762300	0.553300	0.586000
C241	C24	0.073400	0.509600	0.613600
O361	O36	0.794400	0.711500	0.656600
O371	O37	0.864200	0.595400	0.493300
O381	O38	0.914800	0.685600	0.609900
O391	O39	0.788400	0.483700	0.566500
O401	O40	0.710200	0.564900	0.635800
O411	O41	0.048900	0.578600	0.621100
O421	O42	0.116800	0.474000	0.665400
Zn61	Zn6	0.982760	0.625360	0.527290
C251	C25	0.158700	0.179200	0.891000
C261	C26	0.197900	0.124000	0.957300
C271	C27	0.237700	0.053300	0.914000
C281	C28	0.926600	0.009600	0.886400
O431	O43	0.205600	0.211500	0.843400
O441	O44	0.135800	0.095400	0.006700
O451	O45	0.085200	0.185600	0.890100
O461	O46	0.211600	0.983700	0.933500
O471	O47	0.289800	0.064900	0.864200
O481	O48	0.951100	0.078600	0.878900
O491	O49	0.883200	0.974000	0.834600
Zn71	Zn7	0.017240	0.125360	0.972710
C291	C29	0.658700	0.320800	0.109000
C301	C30	0.697900	0.376000	0.042700
C311	C31	0.737700	0.446700	0.086000
C321	C32	0.426600	0.490400	0.113600
O501	O50	0.705600	0.288500	0.156600
O511	O51	0.635800	0.404600	0.993300
O521	O52	0.585200	0.314400	0.109900
O531	O53	0.711600	0.516300	0.066500
O541	O54	0.789800	0.435100	0.135800
O551	O55	0.451100	0.421400	0.121100
O561	O56	0.383200	0.526000	0.165400
Zn81	Zn8	0.517240	0.374640	0.027290
C331	C33	0.391000	0.341300	0.820800
C341	C34	0.457300	0.302100	0.876000
C351	C35	0.414000	0.262300	0.946700
C361	C36	0.386400	0.573400	0.990400
O571	O57	0.343400	0.294400	0.788500
O581	O58	0.506700	0.364200	0.904600
O591	O59	0.390100	0.414800	0.814400
O601	O60	0.433500	0.288400	0.016300
O611	O61	0.364200	0.210200	0.935100
O621	O62	0.378900	0.548900	0.921400
O631	O63	0.334600	0.616800	0.026000
Zn91	Zn9	0.472710	0.482760	0.874640
C371	C37	0.609000	0.841300	0.679200
C381	C38	0.542700	0.802100	0.624000
C391	C39	0.586000	0.762300	0.553300
C401	C40	0.613600	0.073400	0.509600
O641	O64	0.656600	0.794400	0.711500
O651	O65	0.493300	0.864200	0.595400
O661	O66	0.609900	0.914800	0.685600
O671	O67	0.566500	0.788400	0.483700
O681	O68	0.635800	0.710200	0.564900
O691	O69	0.621100	0.048900	0.578600
O701	O70	0.665400	0.116800	0.474000
Zn101	Zn10	0.527290	0.982760	0.625360
C411	C41	0.891000	0.158700	0.179200
C421	C42	0.957300	0.197900	0.124000
C431	C43	0.914000	0.237700	0.053300
C441	C44	0.886400	0.926600	0.009600
O711	O71	0.843400	0.205600	0.211500
O721	O72	0.006700	0.135800	0.095400
O731	O73	0.890100	0.085200	0.185600
O741	O74	0.933500	0.211600	0.983700
O751	O75	0.864200	0.289800	0.064900
O761	O76	0.878900	0.951100	0.078600
O771	O77	0.834600	0.883200	0.974000
Zn111	Zn11	0.972710	0.017240	0.125360
C451	C45	0.109000	0.658700	0.320800
C461	C46	0.042700	0.697900	0.376000
C471	C47	0.086000	0.737700	0.446700
C481	C48	0.113600	0.426600	0.490400
O781	O78	0.156600	0.705600	0.288500
O791	O79	0.993300	0.635800	0.404600
O801	O80	0.109900	0.585200	0.314400
O811	O81	0.066500	0.711600	0.516300
O821	O82	0.135800	0.789800	0.435100
O831	O83	0.121100	0.451100	0.421400
O841	O84	0.165400	0.383200	0.526000
Zn121	Zn12	0.027290	0.517240	0.374640
C491	C49	0.042400	0.457600	0.542400
O851	O85	0.993200	0.506800	0.493200
Zn131	Zn13	0.871190	0.628810	0.371190
Zn141	Zn14	0.147500	0.352500	0.647500
C501	C50	0.457600	0.542400	0.042400
O861	O86	0.506800	0.493200	0.993200
Zn151	Zn15	0.628810	0.371190	0.871190
Zn161	Zn16	0.352500	0.647500	0.147500
C511	C51	0.957600	0.957600	0.957600
O871	O87	0.006800	0.006800	0.006800
Zn171	Zn17	0.128810	0.128810	0.128810
Zn181	Zn18	0.852500	0.852500	0.852500
C521	C52	0.542400	0.042400	0.457600
O881	O88	0.493200	0.993200	0.506800
Zn191	Zn19	0.371190	0.871190	0.628810
Zn201	Zn20	0.647500	0.147500	0.352500
Zn211	Zn21	0.821820	0.321820	0.178180
Zn221	Zn22	0.678180	0.678180	0.678180
Zn231	Zn23	0.178180	0.821820	0.321820
Zn241	Zn24	0.321820	0.178180	0.821820
