data_KEQDER_clean_PM
_symmetry_space_group_name_H-M	'P1'
_cell_length_a	18.765000
_cell_length_b	18.765000
_cell_length_c	26.753800
_cell_angle_alpha	110.530000
_cell_angle_beta	110.530000
_cell_angle_gamma	90.000100
_symmetry_Int_Tables_number 1

loop_
_symmetry_equiv_pos_as_xyz
'x,y,z'

loop_
_atom_site_label
_atom_site_type_symbol
_atom_site_fract_x
_atom_site_fract_y
_atom_site_fract_z
Zn11	Zn1	0.486920	0.486920	0.548780
Zn21	Zn2	0.061860	0.061860	0.548780
Zn31	Zn3	0.486920	0.061860	0.548780
Zn41	Zn4	0.061860	0.486920	0.548780
Zn51	Zn5	0.938140	0.513080	0.451220
Zn61	Zn6	0.513080	0.938140	0.451220
Zn71	Zn7	0.938140	0.938140	0.451220
Zn81	Zn8	0.513080	0.513080	0.451220
H11	H1	0.275400	0.465300	0.337600
H21	H2	0.180900	0.445200	0.155400
H31	H3	0.133300	0.443500	0.062000
H41	H4	0.062200	0.872300	0.337600
H51	H5	0.974500	0.710200	0.155400
H61	H6	0.928700	0.618500	0.062000
H71	H7	0.465300	0.062200	0.337600
H81	H8	0.445200	0.974500	0.155400
H91	H9	0.443500	0.928700	0.062000
H101	H10	0.872300	0.275400	0.337600
H111	H11	0.710200	0.180900	0.155400
H121	H12	0.618500	0.133300	0.062000
H131	H13	0.937800	0.534700	0.662400
H141	H14	0.025500	0.554800	0.844600
H151	H15	0.071300	0.556500	0.938000
H161	H16	0.724600	0.127700	0.662400
H171	H17	0.819100	0.289800	0.844600
H181	H18	0.866700	0.381500	0.938000
H191	H19	0.127700	0.937800	0.662400
H201	H20	0.289800	0.025500	0.844600
H211	H21	0.381500	0.071300	0.938000
H221	H22	0.534700	0.724600	0.662400
H231	H23	0.554800	0.819100	0.844600
H241	H24	0.556500	0.866700	0.938000
H251	H25	0.724600	0.534700	0.662400
H261	H26	0.819100	0.554800	0.844600
H271	H27	0.866700	0.556500	0.938000
H281	H28	0.937800	0.127700	0.662400
H291	H29	0.025500	0.289800	0.844600
H301	H30	0.071300	0.381500	0.938000
H311	H31	0.534700	0.937800	0.662400
H321	H32	0.554800	0.025500	0.844600
H331	H33	0.556500	0.071300	0.938000
H341	H34	0.127700	0.724600	0.662400
H351	H35	0.289800	0.819100	0.844600
H361	H36	0.381500	0.866700	0.938000
H371	H37	0.062200	0.465300	0.337600
H381	H38	0.974500	0.445200	0.155400
H391	H39	0.928700	0.443500	0.062000
H401	H40	0.275400	0.872300	0.337600
H411	H41	0.180900	0.710200	0.155400
H421	H42	0.133300	0.618500	0.062000
H431	H43	0.872300	0.062200	0.337600
H441	H44	0.710200	0.974500	0.155400
H451	H45	0.618500	0.928700	0.062000
H461	H46	0.465300	0.275400	0.337600
H471	H47	0.445200	0.180900	0.155400
H481	H48	0.443500	0.133300	0.062000
H491	H49	0.241000	0.485300	0.482000
H501	H50	0.241000	0.996700	0.482000
H511	H51	0.485300	0.241000	0.482000
H521	H52	0.996700	0.241000	0.482000
H531	H53	0.759000	0.514700	0.518000
H541	H54	0.759000	0.003300	0.518000
H551	H55	0.003300	0.759000	0.518000
H561	H56	0.514700	0.759000	0.518000
C11	C1	0.242380	0.469080	0.358160
C21	C2	0.273850	0.479950	0.416300
C31	C3	0.127000	0.440000	0.135400
C41	C4	0.098570	0.441870	0.080340
C51	C5	0.357170	0.489270	0.446340
C61	C6	0.115780	0.889080	0.358160
C71	C7	0.142450	0.936350	0.416300
C81	C8	0.008400	0.695400	0.135400
C91	C9	0.981770	0.638470	0.080340
C101	C10	0.089170	0.957070	0.446340
C111	C11	0.469080	0.115780	0.358160
C121	C12	0.479950	0.142450	0.416300
C131	C13	0.440000	0.008400	0.135400
C141	C14	0.441870	0.981770	0.080340
C151	C15	0.489270	0.089170	0.446340
C161	C16	0.889080	0.242380	0.358160
C171	C17	0.936350	0.273850	0.416300
C181	C18	0.695400	0.127000	0.135400
C191	C19	0.638470	0.098570	0.080340
C201	C20	0.957070	0.357170	0.446340
C211	C21	0.884220	0.530920	0.641840
C221	C22	0.857550	0.520050	0.583700
C231	C23	0.991600	0.560000	0.864600
C241	C24	0.018230	0.558130	0.919660
C251	C25	0.910830	0.510730	0.553660
C261	C26	0.757620	0.110920	0.641840
C271	C27	0.726150	0.063650	0.583700
C281	C28	0.873000	0.304600	0.864600
C291	C29	0.901430	0.361530	0.919660
C301	C30	0.642830	0.042930	0.553660
C311	C31	0.110920	0.884220	0.641840
C321	C32	0.063650	0.857550	0.583700
C331	C33	0.304600	0.991600	0.864600
C341	C34	0.361530	0.018230	0.919660
C351	C35	0.042930	0.910830	0.553660
C361	C36	0.530920	0.757620	0.641840
C371	C37	0.520050	0.726150	0.583700
C381	C38	0.560000	0.873000	0.864600
C391	C39	0.558130	0.901430	0.919660
C401	C40	0.510730	0.642830	0.553660
C411	C41	0.757620	0.530920	0.641840
C421	C42	0.726150	0.520050	0.583700
C431	C43	0.873000	0.560000	0.864600
C441	C44	0.901430	0.558130	0.919660
C451	C45	0.642830	0.510730	0.553660
C461	C46	0.884220	0.110920	0.641840
C471	C47	0.857550	0.063650	0.583700
C481	C48	0.991600	0.304600	0.864600
C491	C49	0.018230	0.361530	0.919660
C501	C50	0.910830	0.042930	0.553660
C511	C51	0.530920	0.884220	0.641840
C521	C52	0.520050	0.857550	0.583700
C531	C53	0.560000	0.991600	0.864600
C541	C54	0.558130	0.018230	0.919660
C551	C55	0.510730	0.910830	0.553660
C561	C56	0.110920	0.757620	0.641840
C571	C57	0.063650	0.726150	0.583700
C581	C58	0.304600	0.873000	0.864600
C591	C59	0.361530	0.901430	0.919660
C601	C60	0.042930	0.642830	0.553660
C611	C61	0.115780	0.469080	0.358160
C621	C62	0.142450	0.479950	0.416300
C631	C63	0.008400	0.440000	0.135400
C641	C64	0.981770	0.441870	0.080340
C651	C65	0.089170	0.489270	0.446340
C661	C66	0.242380	0.889080	0.358160
C671	C67	0.273850	0.936350	0.416300
C681	C68	0.127000	0.695400	0.135400
C691	C69	0.098570	0.638470	0.080340
C701	C70	0.357170	0.957070	0.446340
C711	C71	0.889080	0.115780	0.358160
C721	C72	0.936350	0.142450	0.416300
C731	C73	0.695400	0.008400	0.135400
C741	C74	0.638470	0.981770	0.080340
C751	C75	0.957070	0.089170	0.446340
C761	C76	0.469080	0.242380	0.358160
C771	C77	0.479950	0.273850	0.416300
C781	C78	0.440000	0.127000	0.135400
C791	C79	0.441870	0.098570	0.080340
C801	C80	0.489270	0.357170	0.446340
C811	C81	0.165220	0.463920	0.330440
C821	C82	0.221590	0.482090	0.443180
C831	C83	0.110250	0.440350	0.220500
C841	C84	0.135880	0.453280	0.271760
C851	C85	0.079920	0.431220	0.159840
C861	C86	0.026970	0.441670	0.053940
C871	C87	0.165220	0.866520	0.330440
C881	C88	0.221590	0.961090	0.443180
C891	C89	0.110250	0.780150	0.220500
C901	C90	0.135880	0.818480	0.271760
C911	C91	0.079920	0.728620	0.159840
C921	C92	0.026970	0.612270	0.053940
C931	C93	0.463920	0.165220	0.330440
C941	C94	0.482090	0.221590	0.443180
C951	C95	0.440350	0.110250	0.220500
C961	C96	0.453280	0.135880	0.271760
C971	C97	0.431220	0.079920	0.159840
C981	C98	0.441670	0.026970	0.053940
C991	C99	0.866520	0.165220	0.330440
C1001	C100	0.961090	0.221590	0.443180
C1011	C101	0.780150	0.110250	0.220500
C1021	C102	0.818480	0.135880	0.271760
C1031	C103	0.728620	0.079920	0.159840
C1041	C104	0.612270	0.026970	0.053940
C1051	C105	0.834780	0.536080	0.669560
C1061	C106	0.778410	0.517910	0.556820
C1071	C107	0.889750	0.559650	0.779500
C1081	C108	0.864120	0.546720	0.728240
C1091	C109	0.920080	0.568780	0.840160
C1101	C110	0.973030	0.558330	0.946060
C1111	C111	0.834780	0.133480	0.669560
C1121	C112	0.778410	0.038910	0.556820
C1131	C113	0.889750	0.219850	0.779500
C1141	C114	0.864120	0.181520	0.728240
C1151	C115	0.920080	0.271380	0.840160
C1161	C116	0.973030	0.387730	0.946060
C1171	C117	0.133480	0.834780	0.669560
C1181	C118	0.038910	0.778410	0.556820
C1191	C119	0.219850	0.889750	0.779500
C1201	C120	0.181520	0.864120	0.728240
C1211	C121	0.271380	0.920080	0.840160
C1221	C122	0.387730	0.973030	0.946060
C1231	C123	0.536080	0.834780	0.669560
C1241	C124	0.517910	0.778410	0.556820
C1251	C125	0.559650	0.889750	0.779500
C1261	C126	0.546720	0.864120	0.728240
C1271	C127	0.568780	0.920080	0.840160
C1281	C128	0.558330	0.973030	0.946060
C1291	C129	0.000000	0.465300	0.000000
C1301	C130	0.000000	0.534700	0.000000
C1311	C131	0.465300	0.000000	0.000000
C1321	C132	0.534700	0.000000	0.000000
O11	O1	0.379930	0.486240	0.497880
O21	O2	0.399960	0.502260	0.422520
O31	O3	0.117950	0.011640	0.497880
O41	O4	0.022560	0.920260	0.422520
O51	O5	0.486240	0.117950	0.497880
O61	O6	0.502260	0.022560	0.422520
O71	O7	0.011640	0.379930	0.497880
O81	O8	0.920260	0.399960	0.422520
O91	O9	0.882050	0.513760	0.502120
O101	O10	0.977440	0.497740	0.577480
O111	O11	0.620070	0.988360	0.502120
O121	O12	0.600040	0.079740	0.577480
O131	O13	0.988360	0.882050	0.502120
O141	O14	0.079740	0.977440	0.577480
O151	O15	0.513760	0.620070	0.502120
O161	O16	0.497740	0.600040	0.577480
O171	O17	0.620070	0.513760	0.502120
O181	O18	0.600040	0.497740	0.577480
O191	O19	0.882050	0.988360	0.502120
O201	O20	0.977440	0.079740	0.577480
O211	O21	0.513760	0.882050	0.502120
O221	O22	0.497740	0.977440	0.577480
O231	O23	0.988360	0.620070	0.502120
O241	O24	0.079740	0.600040	0.577480
O251	O25	0.117950	0.486240	0.497880
O261	O26	0.022560	0.502260	0.422520
O271	O27	0.379930	0.011640	0.497880
O281	O28	0.399960	0.920260	0.422520
O291	O29	0.011640	0.117950	0.497880
O301	O30	0.920260	0.022560	0.422520
O311	O31	0.486240	0.379930	0.497880
O321	O32	0.502260	0.399960	0.422520
