data_KESHAT_clean_PM
_symmetry_space_group_name_H-M	'P1'
_cell_length_a	10.377900
_cell_length_b	11.382900
_cell_length_c	22.387800
_cell_angle_alpha	90.000000
_cell_angle_beta	97.399000
_cell_angle_gamma	90.000000
_symmetry_Int_Tables_number 1

loop_
_symmetry_equiv_pos_as_xyz
'x,y,z'

loop_
_atom_site_label
_atom_site_type_symbol
_atom_site_fract_x
_atom_site_fract_y
_atom_site_fract_z
Pr11	Pr1	0.262240	0.081240	0.064690
Pr21	Pr2	0.891490	0.308500	0.274670
Pr31	Pr3	0.237760	0.581240	0.435310
Pr41	Pr4	0.608510	0.808500	0.225330
Pr51	Pr5	0.737760	0.918760	0.935310
Pr61	Pr6	0.108510	0.691500	0.725330
Pr71	Pr7	0.762240	0.418760	0.564690
Pr81	Pr8	0.391490	0.191500	0.774670
H11	H1	0.204300	0.225900	0.413000
H21	H2	0.093300	0.131800	0.409400
H31	H3	0.238800	0.092900	0.424000
H41	H4	0.884200	0.175900	0.731000
H51	H5	0.988400	0.089100	0.711500
H61	H6	0.014300	0.224800	0.712100
H71	H7	0.336200	0.023000	0.336100
H81	H8	0.886400	0.124000	0.838300
H91	H9	0.295700	0.725900	0.087000
H101	H10	0.406700	0.631800	0.090600
H111	H11	0.261200	0.592900	0.076000
H121	H12	0.615800	0.675900	0.769000
H131	H13	0.511600	0.589100	0.788500
H141	H14	0.485700	0.724800	0.787900
H151	H15	0.163800	0.523000	0.163900
H161	H16	0.613600	0.624000	0.661700
H171	H17	0.795700	0.774100	0.587000
H181	H18	0.906700	0.868200	0.590600
H191	H19	0.761200	0.907100	0.576000
H201	H20	0.115800	0.824100	0.269000
H211	H21	0.011600	0.910900	0.288500
H221	H22	0.985700	0.775200	0.287900
H231	H23	0.663800	0.977000	0.663900
H241	H24	0.113600	0.876000	0.161700
H251	H25	0.704300	0.274100	0.913000
H261	H26	0.593300	0.368200	0.909400
H271	H27	0.738800	0.407100	0.924000
H281	H28	0.384200	0.324100	0.231000
H291	H29	0.488400	0.410900	0.211500
H301	H30	0.514300	0.275200	0.212100
H311	H31	0.836200	0.477000	0.836100
H321	H32	0.386400	0.376000	0.338300
C11	C1	0.083100	0.179600	0.180700
C21	C2	0.152700	0.140000	0.238680
C31	C3	0.257600	0.065400	0.252930
C41	C4	0.339200	0.988700	0.218310
C51	C5	0.188100	0.131400	0.336200
C61	C6	0.180400	0.146900	0.401400
C71	C7	0.304800	0.151700	0.912820
C81	C8	0.172800	0.148700	0.877240
C91	C9	0.051900	0.130600	0.894430
C101	C10	0.995500	0.117200	0.951530
C111	C11	0.037300	0.153500	0.795420
C121	C12	0.975600	0.161600	0.731900
C131	C13	0.764400	0.040900	0.285480
C141	C14	0.703800	0.087000	0.222770
C151	C15	0.416900	0.679600	0.319300
C161	C16	0.347300	0.640000	0.261320
C171	C17	0.242400	0.565400	0.247070
C181	C18	0.160800	0.488700	0.281690
C191	C19	0.311900	0.631400	0.163800
C201	C20	0.319600	0.646900	0.098600
C211	C21	0.195200	0.651700	0.587180
C221	C22	0.327200	0.648700	0.622760
C231	C23	0.448100	0.630600	0.605570
C241	C24	0.504500	0.617200	0.548470
C251	C25	0.462700	0.653500	0.704580
C261	C26	0.524400	0.661600	0.768100
C271	C27	0.735600	0.540900	0.214520
C281	C28	0.796200	0.587000	0.277230
C291	C29	0.916900	0.820400	0.819300
C301	C30	0.847300	0.860000	0.761320
C311	C31	0.742400	0.934600	0.747070
C321	C32	0.660800	0.011300	0.781690
C331	C33	0.811900	0.868600	0.663800
C341	C34	0.819600	0.853100	0.598600
C351	C35	0.695200	0.848300	0.087180
C361	C36	0.827200	0.851300	0.122760
C371	C37	0.948100	0.869400	0.105570
C381	C38	0.004500	0.882800	0.048470
C391	C39	0.962700	0.846500	0.204580
C401	C40	0.024400	0.838400	0.268100
C411	C41	0.235600	0.959100	0.714520
C421	C42	0.296200	0.913000	0.777230
C431	C43	0.583100	0.320400	0.680700
C441	C44	0.652700	0.360000	0.738680
C451	C45	0.757600	0.434600	0.752930
C461	C46	0.839200	0.511300	0.718310
C471	C47	0.688100	0.368600	0.836200
C481	C48	0.680400	0.353100	0.901400
C491	C49	0.804800	0.348300	0.412820
C501	C50	0.672800	0.351300	0.377240
C511	C51	0.551900	0.369400	0.394430
C521	C52	0.495500	0.382800	0.451530
C531	C53	0.537300	0.346500	0.295420
C541	C54	0.475600	0.338400	0.231900
C551	C55	0.264400	0.459100	0.785480
C561	C56	0.203800	0.413000	0.722770
N11	N1	0.110200	0.179600	0.291320
N21	N2	0.276800	0.062600	0.314550
N31	N3	0.162300	0.162900	0.815670
N41	N4	0.969200	0.133500	0.841500
N51	N5	0.389800	0.679600	0.208680
N61	N6	0.223200	0.562600	0.185450
N71	N7	0.337700	0.662900	0.684330
N81	N8	0.530800	0.633500	0.658500
N91	N9	0.889800	0.820400	0.708680
N101	N10	0.723200	0.937400	0.685450
N111	N11	0.837700	0.837100	0.184330
N121	N12	0.030800	0.866500	0.158500
N131	N13	0.610200	0.320400	0.791320
N141	N14	0.776800	0.437400	0.814550
N151	N15	0.662300	0.337100	0.315670
N161	N16	0.469200	0.366500	0.341500
O11	O1	0.978800	0.234900	0.182480
O21	O2	0.128100	0.160100	0.132680
O31	O3	0.314400	0.980100	0.162170
O41	O4	0.426200	0.934200	0.250370
O51	O5	0.399200	0.179600	0.885070
O61	O6	0.319500	0.124200	0.967080
O71	O7	0.062800	0.133800	0.000830
O81	O8	0.875900	0.091900	0.945560
O91	O9	0.841900	0.108200	0.315860
O101	O10	0.732000	0.940400	0.300800
O111	O11	0.731000	0.189600	0.209690
O121	O12	0.631400	0.017900	0.190750
O131	O13	0.521200	0.734900	0.317520
O141	O14	0.371900	0.660100	0.367320
O151	O15	0.185600	0.480100	0.337830
O161	O16	0.073800	0.434200	0.249630
O171	O17	0.100800	0.679600	0.614930
O181	O18	0.180500	0.624200	0.532920
O191	O19	0.437200	0.633800	0.499170
O201	O20	0.624100	0.591900	0.554440
O211	O21	0.658100	0.608200	0.184140
O221	O22	0.768000	0.440400	0.199200
O231	O23	0.769000	0.689600	0.290310
O241	O24	0.868600	0.517900	0.309250
O251	O25	0.021200	0.765100	0.817520
O261	O26	0.871900	0.839900	0.867320
O271	O27	0.685600	0.019900	0.837830
O281	O28	0.573800	0.065800	0.749630
O291	O29	0.600800	0.820400	0.114930
O301	O30	0.680500	0.875800	0.032920
O311	O31	0.937200	0.866200	0.999170
O321	O32	0.124100	0.908100	0.054440
O331	O33	0.158100	0.891800	0.684140
O341	O34	0.268000	0.059600	0.699200
O351	O35	0.269000	0.810400	0.790310
O361	O36	0.368600	0.982100	0.809250
O371	O37	0.478800	0.265100	0.682480
O381	O38	0.628100	0.339900	0.632680
O391	O39	0.814400	0.519900	0.662170
O401	O40	0.926200	0.565800	0.750370
O411	O41	0.899200	0.320400	0.385070
O421	O42	0.819500	0.375800	0.467080
O431	O43	0.562800	0.366200	0.500830
O441	O44	0.375900	0.408100	0.445560
O451	O45	0.341900	0.391800	0.815860
O461	O46	0.232000	0.559600	0.800800
O471	O47	0.231000	0.310400	0.709690
O481	O48	0.131400	0.482100	0.690750
