data_KETHEY01_clean_PM
_symmetry_space_group_name_H-M	'P1'
_cell_length_a	9.242000
_cell_length_b	9.727000
_cell_length_c	18.201000
_cell_angle_alpha	90.000000
_cell_angle_beta	90.000000
_cell_angle_gamma	105.110000
_symmetry_Int_Tables_number 1

loop_
_symmetry_equiv_pos_as_xyz
'x,y,z'

loop_
_atom_site_label
_atom_site_type_symbol
_atom_site_fract_x
_atom_site_fract_y
_atom_site_fract_z
Cd11	Cd1	0.366370	0.061720	0.433730
Cd21	Cd2	0.633630	0.438280	0.933730
H11	H1	0.896100	0.783000	0.725700
H21	H2	0.751000	0.477600	0.367300
H31	H3	0.976100	0.605000	0.950900
H41	H4	0.834800	0.721500	0.398400
H51	H5	0.477700	0.204400	0.689600
H61	H6	0.716500	0.606600	0.781800
H71	H7	0.165200	0.778500	0.898400
H81	H8	0.283500	0.893400	0.281800
H91	H9	0.249000	0.022400	0.867300
H101	H10	0.869200	0.640600	0.166600
H111	H11	0.023900	0.895000	0.450900
H121	H12	0.103900	0.717000	0.225700
H131	H13	0.522300	0.295600	0.189600
H141	H14	0.130800	0.859400	0.666600
C11	C1	0.193000	0.856600	0.305990
C21	C2	0.925800	0.753400	0.374020
C31	C3	0.828100	0.580000	0.272870
C41	C4	0.171900	0.920000	0.772870
C51	C5	0.805900	0.574100	0.196740
C61	C6	0.084900	0.751000	0.271530
C71	C7	0.915100	0.749000	0.771530
C81	C8	0.689500	0.469200	0.165900
C91	C9	0.074200	0.746600	0.874020
C101	C10	0.310500	0.030800	0.665900
C111	C11	0.375800	0.133800	0.785630
C121	C12	0.736800	0.475100	0.316710
C131	C13	0.663200	0.468200	0.084750
C141	C14	0.599600	0.365800	0.210340
C151	C15	0.336800	0.031800	0.584750
C161	C16	0.040200	0.858100	0.405360
C171	C17	0.263200	0.024900	0.816710
C181	C18	0.807000	0.643400	0.805990
C191	C19	0.400400	0.134200	0.710340
C201	C20	0.053000	0.804100	0.806030
C211	C21	0.528800	0.251300	0.333660
C221	C22	0.947000	0.695900	0.306030
C231	C23	0.959800	0.641900	0.905360
C241	C24	0.194100	0.925900	0.696740
C251	C25	0.471200	0.248700	0.833660
C261	C26	0.624200	0.366200	0.285630
N11	N1	0.173900	0.908400	0.372450
N21	N2	0.826100	0.591600	0.872450
O11	O1	0.577300	0.338900	0.805620
O21	O2	0.231200	0.975100	0.542940
O31	O3	0.768800	0.524900	0.042940
O41	O4	0.438200	0.249000	0.900810
O51	O5	0.468500	0.092100	0.561030
O61	O6	0.531500	0.407900	0.061030
O71	O7	0.561800	0.251000	0.400810
O81	O8	0.422700	0.161100	0.305620
Cd31	Cd3	0.633630	0.938280	0.566270
Cd41	Cd4	0.366370	0.561720	0.066270
H151	H15	0.283500	0.393400	0.218200
H161	H16	0.716500	0.106600	0.718200
H171	H17	0.522300	0.795600	0.310400
H181	H18	0.023900	0.395000	0.049100
H191	H19	0.165200	0.278500	0.601600
H201	H20	0.869200	0.140600	0.333400
H211	H21	0.896100	0.283000	0.774300
H221	H22	0.976100	0.105000	0.549100
H231	H23	0.477700	0.704400	0.810400
H241	H24	0.130800	0.359400	0.833400
H251	H25	0.103900	0.217000	0.274300
H261	H26	0.249000	0.522400	0.632700
H271	H27	0.834800	0.221500	0.101600
H281	H28	0.751000	0.977600	0.132700
C271	C27	0.471200	0.748700	0.666340
C281	C28	0.336800	0.531800	0.915250
C291	C29	0.959800	0.141900	0.594640
C301	C30	0.736800	0.975100	0.183290
C311	C31	0.053000	0.304100	0.693970
C321	C32	0.663200	0.968200	0.415250
C331	C33	0.084900	0.251000	0.228470
C341	C34	0.947000	0.195900	0.193970
C351	C35	0.528800	0.751300	0.166340
C361	C36	0.310500	0.530800	0.834100
C371	C37	0.599600	0.865800	0.289660
C381	C38	0.074200	0.246600	0.625980
C391	C39	0.400400	0.634200	0.789660
C401	C40	0.805900	0.074100	0.303260
C411	C41	0.624200	0.866200	0.214370
C421	C42	0.375800	0.633800	0.714370
C431	C43	0.828100	0.080000	0.227130
C441	C44	0.689500	0.969200	0.334100
C451	C45	0.040200	0.358100	0.094640
C461	C46	0.193000	0.356600	0.194010
C471	C47	0.263200	0.524900	0.683290
C481	C48	0.194100	0.425900	0.803260
C491	C49	0.171900	0.420000	0.727130
C501	C50	0.915100	0.249000	0.728470
C511	C51	0.925800	0.253400	0.125980
C521	C52	0.807000	0.143400	0.694010
N31	N3	0.173900	0.408400	0.127550
N41	N4	0.826100	0.091600	0.627550
O91	O9	0.422700	0.661100	0.194380
O101	O10	0.231200	0.475100	0.957060
O111	O11	0.468500	0.592100	0.938970
O121	O12	0.561800	0.751000	0.099190
O131	O13	0.768800	0.024900	0.457060
O141	O14	0.531500	0.907900	0.438970
O151	O15	0.438200	0.749000	0.599190
O161	O16	0.577300	0.838900	0.694380
