data_KETHEY02_clean_PM
_symmetry_space_group_name_H-M	'P1'
_cell_length_a	9.221100
_cell_length_b	18.184800
_cell_length_c	9.722700
_cell_angle_alpha	90.000000
_cell_angle_beta	104.994000
_cell_angle_gamma	90.000000
_symmetry_Int_Tables_number 1

loop_
_symmetry_equiv_pos_as_xyz
'x,y,z'

loop_
_atom_site_label
_atom_site_type_symbol
_atom_site_fract_x
_atom_site_fract_y
_atom_site_fract_z
Cd11	Cd1	0.866800	0.933900	0.061680
C11	C1	0.693700	0.806120	0.856500
H11	H1	0.784600	0.782100	0.892600
C21	C2	0.584800	0.771630	0.751600
H21	H2	0.603300	0.725700	0.717800
C31	C3	0.446700	0.806280	0.696700
C41	C4	0.426000	0.874000	0.754200
H31	H3	0.334800	0.898400	0.722600
C51	C5	0.539800	0.905470	0.858200
H41	H4	0.523400	0.951000	0.894900
C61	C6	0.328200	0.773020	0.580500
C71	C7	0.305300	0.697040	0.574900
H51	H5	0.367800	0.666900	0.642100
C81	C8	0.190200	0.666110	0.469900
C91	C9	0.162800	0.584820	0.468700
C101	C10	0.100000	0.710730	0.366100
H61	H6	0.022800	0.689900	0.295800
C111	C11	0.028200	0.833750	0.251400
C121	C12	0.124100	0.785970	0.366400
C131	C13	0.236600	0.816850	0.475300
H71	H7	0.250800	0.867500	0.478000
N11	N1	0.674300	0.872490	0.908700
O11	O1	0.268800	0.542810	0.524800
O21	O2	0.031500	0.561300	0.408400
O31	O3	0.061900	0.901120	0.251200
O41	O4	0.922100	0.805910	0.161800
Cd21	Cd2	0.133200	0.433900	0.438320
C141	C14	0.306300	0.306120	0.643500
H81	H8	0.215400	0.282100	0.607400
C151	C15	0.415200	0.271630	0.748400
H91	H9	0.396700	0.225700	0.782200
C161	C16	0.553300	0.306280	0.803300
C171	C17	0.574000	0.374000	0.745800
H101	H10	0.665200	0.398400	0.777400
C181	C18	0.460200	0.405470	0.641800
H111	H11	0.476600	0.451000	0.605100
C191	C19	0.671800	0.273020	0.919500
C201	C20	0.694700	0.197040	0.925100
H121	H12	0.632200	0.166900	0.857900
C211	C21	0.809800	0.166110	0.030100
C221	C22	0.837200	0.084820	0.031300
C231	C23	0.900000	0.210730	0.133900
H131	H13	0.977200	0.189900	0.204200
C241	C24	0.971800	0.333750	0.248600
C251	C25	0.875900	0.285970	0.133600
C261	C26	0.763400	0.316850	0.024700
H141	H14	0.749200	0.367500	0.022000
N21	N2	0.325700	0.372490	0.591300
O51	O5	0.731200	0.042810	0.975200
O61	O6	0.968500	0.061300	0.091600
O71	O7	0.938100	0.401120	0.248800
O81	O8	0.077900	0.305910	0.338200
Cd31	Cd3	0.133200	0.066100	0.938320
C271	C27	0.306300	0.193880	0.143500
H151	H15	0.215400	0.217900	0.107400
C281	C28	0.415200	0.228370	0.248400
H161	H16	0.396700	0.274300	0.282200
C291	C29	0.553300	0.193720	0.303300
C301	C30	0.574000	0.126000	0.245800
H171	H17	0.665200	0.101600	0.277400
C311	C31	0.460200	0.094530	0.141800
H181	H18	0.476600	0.049000	0.105100
C321	C32	0.671800	0.226980	0.419500
C331	C33	0.694700	0.302960	0.425100
H191	H19	0.632200	0.333100	0.357900
C341	C34	0.809800	0.333890	0.530100
C351	C35	0.837200	0.415180	0.531300
C361	C36	0.900000	0.289270	0.633900
H201	H20	0.977200	0.310100	0.704200
C371	C37	0.971800	0.166250	0.748600
C381	C38	0.875900	0.214030	0.633600
C391	C39	0.763400	0.183150	0.524700
H211	H21	0.749200	0.132500	0.522000
N31	N3	0.325700	0.127510	0.091300
O91	O9	0.731200	0.457190	0.475200
O101	O10	0.968500	0.438700	0.591600
O111	O11	0.938100	0.098880	0.748800
O121	O12	0.077900	0.194090	0.838200
Cd41	Cd4	0.866800	0.566100	0.561680
C401	C40	0.693700	0.693880	0.356500
H221	H22	0.784600	0.717900	0.392600
C411	C41	0.584800	0.728370	0.251600
H231	H23	0.603300	0.774300	0.217800
C421	C42	0.446700	0.693720	0.196700
C431	C43	0.426000	0.626000	0.254200
H241	H24	0.334800	0.601600	0.222600
C441	C44	0.539800	0.594530	0.358200
H251	H25	0.523400	0.549000	0.394900
C451	C45	0.328200	0.726980	0.080500
C461	C46	0.305300	0.802960	0.074900
H261	H26	0.367800	0.833100	0.142100
C471	C47	0.190200	0.833890	0.969900
C481	C48	0.162800	0.915180	0.968700
C491	C49	0.100000	0.789270	0.866100
H271	H27	0.022800	0.810100	0.795800
C501	C50	0.028200	0.666250	0.751400
C511	C51	0.124100	0.714030	0.866400
C521	C52	0.236600	0.683150	0.975300
H281	H28	0.250800	0.632500	0.978000
N41	N4	0.674300	0.627510	0.408700
O131	O13	0.268800	0.957190	0.024800
O141	O14	0.031500	0.938700	0.908400
O151	O15	0.061900	0.598880	0.751200
O161	O16	0.922100	0.694090	0.661800
