data_KEVVIS_clean_PM
_symmetry_space_group_name_H-M	'P1'
_cell_length_a	12.484000
_cell_length_b	14.275000
_cell_length_c	22.272000
_cell_angle_alpha	92.713000
_cell_angle_beta	90.000000
_cell_angle_gamma	90.000000
_symmetry_Int_Tables_number 1

loop_
_symmetry_equiv_pos_as_xyz
'x,y,z'

loop_
_atom_site_label
_atom_site_type_symbol
_atom_site_fract_x
_atom_site_fract_y
_atom_site_fract_z
Co11	Co1	0.727920	0.189640	0.228350
Co21	Co2	0.550400	0.000260	0.248750
Co31	Co3	0.877830	0.191520	0.726320
Co41	Co4	0.227920	0.810360	0.771650
Co51	Co5	0.050400	0.999740	0.751250
Co61	Co6	0.377830	0.808480	0.273680
H11	H1	0.932600	0.312500	0.905600
H21	H2	0.998900	0.401500	0.985800
H31	H3	0.265800	0.247400	0.974600
H41	H4	0.194700	0.160500	0.893700
H51	H5	0.183500	0.225700	0.089200
H61	H6	0.286800	0.137800	0.141100
H71	H7	0.512800	0.331200	0.135100
H81	H8	0.416100	0.419500	0.075300
H91	H9	0.672700	0.314500	0.402600
H101	H10	0.598000	0.401900	0.483100
H111	H11	0.332900	0.238200	0.475000
H121	H12	0.413900	0.145400	0.399600
H131	H13	0.434500	0.220700	0.586300
H141	H14	0.315200	0.132100	0.645800
H151	H15	0.098300	0.340800	0.644700
H161	H16	0.216600	0.427500	0.588300
H171	H17	0.877000	0.270100	0.327500
H181	H18	0.051000	0.293700	0.347900
H191	H19	0.132300	0.113000	0.221200
H201	H20	0.949800	0.090200	0.196800
H211	H21	0.263500	0.172300	0.270500
H221	H22	0.241000	0.207100	0.337800
H231	H23	0.254300	0.339500	0.233900
H241	H24	0.193800	0.376600	0.292600
H251	H25	0.413200	0.316700	0.289700
H261	H26	0.352800	0.345200	0.350400
H271	H27	0.290500	0.503300	0.367900
H281	H28	0.281200	0.661100	0.349900
H291	H29	0.455500	0.623000	0.211400
H301	H30	0.425900	0.464500	0.210800
H311	H31	0.644300	0.374700	0.287400
H321	H32	0.647600	0.532300	0.276900
H331	H33	0.875000	0.490000	0.153100
H341	H34	0.852800	0.332500	0.162100
H351	H35	0.725900	0.640700	0.160100
H361	H36	0.697300	0.663400	0.228000
H371	H37	0.875900	0.671800	0.251300
H381	H38	0.905800	0.646100	0.185000
H391	H39	0.830300	0.809000	0.226200
H401	H40	0.865900	0.782400	0.160200
H411	H41	0.985600	0.889800	0.292400
H421	H42	0.160800	0.892600	0.313000
H431	H43	0.237800	0.730600	0.177600
H441	H44	0.063900	0.717700	0.145400
H451	H45	0.432600	0.687500	0.094400
H461	H46	0.498900	0.598500	0.014200
H471	H47	0.765800	0.752600	0.025400
H481	H48	0.694700	0.839500	0.106300
H491	H49	0.683500	0.774300	0.910800
H501	H50	0.786800	0.862200	0.858900
H511	H51	0.012800	0.668800	0.864900
H521	H52	0.916100	0.580500	0.924700
H531	H53	0.172700	0.685500	0.597400
H541	H54	0.098000	0.598100	0.516900
H551	H55	0.832900	0.761800	0.525000
H561	H56	0.913900	0.854600	0.600400
H571	H57	0.934500	0.779300	0.413700
H581	H58	0.815200	0.867900	0.354200
H591	H59	0.598300	0.659200	0.355300
H601	H60	0.716600	0.572500	0.411700
H611	H61	0.377000	0.729900	0.672500
H621	H62	0.551000	0.706300	0.652100
H631	H63	0.632300	0.887000	0.778800
H641	H64	0.449800	0.909800	0.803200
H651	H65	0.763500	0.827700	0.729500
H661	H66	0.741000	0.792900	0.662200
H671	H67	0.754300	0.660500	0.766100
H681	H68	0.693800	0.623400	0.707400
H691	H69	0.913200	0.683300	0.710300
H701	H70	0.852800	0.654800	0.649600
H711	H71	0.790500	0.496700	0.632100
H721	H72	0.781200	0.338900	0.650100
H731	H73	0.955500	0.377000	0.788600
H741	H74	0.925900	0.535500	0.789200
H751	H75	0.144300	0.625300	0.712600
H761	H76	0.147600	0.467700	0.723100
H771	H77	0.375000	0.510000	0.846900
H781	H78	0.352800	0.667500	0.837900
H791	H79	0.225900	0.359300	0.839900
H801	H80	0.197300	0.336600	0.772000
H811	H81	0.375900	0.328200	0.748700
H821	H82	0.405800	0.353900	0.815000
H831	H83	0.330300	0.191000	0.773800
H841	H84	0.365900	0.217600	0.839800
H851	H85	0.485600	0.110200	0.707600
H861	H86	0.660800	0.107400	0.687000
H871	H87	0.737800	0.269400	0.822400
H881	H88	0.563900	0.282300	0.854600
C11	C1	0.006100	0.171600	0.838100
C21	C2	0.052900	0.225800	0.891600
C31	C3	0.000600	0.298300	0.919700
C41	C4	0.040000	0.353500	0.967900
C51	C5	0.142100	0.335000	0.988400
C61	C6	0.197800	0.261800	0.960700
C71	C7	0.154300	0.208400	0.912200
C81	C8	0.200500	0.393800	0.038600
C91	C9	0.277000	0.336800	0.074400
C101	C10	0.252000	0.248400	0.097700
C111	C11	0.311700	0.195400	0.129000
C121	C12	0.414700	0.226500	0.144300
C131	C13	0.445000	0.309800	0.124000
C141	C14	0.387100	0.364700	0.089500
C151	C15	0.488800	0.171400	0.181500
C161	C16	0.246000	0.475500	0.007000
C171	C17	0.116600	0.432300	0.086000
C181	C18	0.591900	0.166100	0.337200
C191	C19	0.547800	0.225400	0.391900
C201	C20	0.605600	0.299200	0.417500
C211	C21	0.561000	0.350500	0.466300
C221	C22	0.462200	0.326400	0.490500
C231	C23	0.402000	0.251300	0.462200
C241	C24	0.448400	0.198700	0.415500
C251	C25	0.414000	0.389200	0.543400
C261	C26	0.330200	0.329800	0.580300
C271	C27	0.367100	0.243400	0.597400
C281	C28	0.294400	0.190800	0.633500
C291	C29	0.195000	0.225400	0.650400
C301	C30	0.164400	0.315800	0.633200
C311	C31	0.235000	0.367200	0.598700
C321	C32	0.117800	0.166100	0.688300
C331	C33	0.501000	0.426300	0.589700
C341	C34	0.352000	0.470700	0.511500
C351	C35	0.928100	0.239100	0.303500
C361	C36	0.032600	0.251900	0.316300
C371	C37	0.111200	0.207600	0.285800
C381	C38	0.080600	0.147600	0.242600
C391	C39	0.969000	0.133600	0.227400
C401	C40	0.223300	0.216600	0.296100
C411	C41	0.249100	0.334400	0.277000
C421	C42	0.356000	0.354400	0.307600
C431	C43	0.368100	0.467300	0.292900
C441	C44	0.320900	0.525700	0.333300
C451	C45	0.318000	0.622000	0.322400
C461	C46	0.412000	0.599300	0.241100
C471	C47	0.405000	0.503300	0.243400
C481	C48	0.688600	0.398300	0.258200
C491	C49	0.692000	0.493100	0.253500
C501	C50	0.762000	0.528900	0.214100
C511	C51	0.824800	0.467800	0.179800
C521	C52	0.812000	0.373700	0.186100
C531	C53	0.750100	0.634400	0.201100
C541	C54	0.855700	0.682200	0.210100
C551	C55	0.878500	0.769600	0.202000
C561	C56	0.998000	0.797000	0.218700
C571	C57	0.033000	0.855000	0.268400
C581	C58	0.138700	0.857100	0.279100
C591	C59	0.185400	0.762700	0.199900
C601	C60	0.081000	0.751900	0.180700
C611	C61	0.506100	0.828400	0.161900
C621	C62	0.552900	0.774200	0.108400
C631	C63	0.500600	0.701700	0.080300
C641	C64	0.540000	0.646500	0.032100
C651	C65	0.642100	0.665000	0.011600
C661	C66	0.697800	0.738200	0.039300
C671	C67	0.654300	0.791600	0.087800
C681	C68	0.700500	0.606200	0.961400
C691	C69	0.777000	0.663200	0.925600
C701	C70	0.752000	0.751600	0.902300
C711	C71	0.811700	0.804600	0.871000
C721	C72	0.914700	0.773500	0.855700
C731	C73	0.945000	0.690200	0.876000
C741	C74	0.887100	0.635300	0.910500
C751	C75	0.988800	0.828600	0.818500
C761	C76	0.746000	0.524500	0.993000
C771	C77	0.616600	0.567700	0.914000
C781	C78	0.091900	0.833900	0.662800
C791	C79	0.047800	0.774600	0.608100
C801	C80	0.105600	0.700800	0.582500
C811	C81	0.061000	0.649500	0.533700
C821	C82	0.962200	0.673600	0.509500
C831	C83	0.902000	0.748700	0.537800
C841	C84	0.948400	0.801300	0.584500
C851	C85	0.914000	0.610800	0.456600
C861	C86	0.830200	0.670200	0.419700
C871	C87	0.867100	0.756600	0.402600
C881	C88	0.794400	0.809200	0.366500
C891	C89	0.695000	0.774600	0.349600
C901	C90	0.664400	0.684200	0.366800
C911	C91	0.735000	0.632800	0.401300
C921	C92	0.617800	0.833900	0.311700
C931	C93	0.001000	0.573700	0.410300
C941	C94	0.852000	0.529300	0.488500
C951	C95	0.428100	0.760900	0.696500
C961	C96	0.532600	0.748100	0.683700
C971	C97	0.611200	0.792400	0.714200
C981	C98	0.580600	0.852400	0.757400
C991	C99	0.469000	0.866400	0.772600
C1001	C100	0.723300	0.783400	0.703900
C1011	C101	0.749100	0.665600	0.723000
C1021	C102	0.856000	0.645600	0.692400
C1031	C103	0.868100	0.532700	0.707100
C1041	C104	0.820900	0.474300	0.666700
C1051	C105	0.818000	0.378000	0.677600
C1061	C106	0.912000	0.400700	0.758900
C1071	C107	0.905000	0.496700	0.756600
C1081	C108	0.188600	0.601700	0.741800
C1091	C109	0.192000	0.506900	0.746500
C1101	C110	0.262000	0.471100	0.785900
C1111	C111	0.324800	0.532200	0.820200
C1121	C112	0.312000	0.626300	0.813900
C1131	C113	0.250100	0.365600	0.798900
C1141	C114	0.355700	0.317800	0.789900
C1151	C115	0.378500	0.230400	0.798000
C1161	C116	0.498000	0.203000	0.781300
C1171	C117	0.533000	0.145000	0.731600
C1181	C118	0.638700	0.142900	0.720900
C1191	C119	0.685400	0.237300	0.800100
C1201	C120	0.581000	0.248100	0.819300
N11	N1	0.895300	0.181900	0.256500
N21	N2	0.362400	0.660300	0.277300
N31	N3	0.743800	0.338000	0.224000
N41	N4	0.217100	0.813400	0.246200
N51	N5	0.395300	0.818100	0.743500
N61	N6	0.862400	0.339700	0.722700
N71	N7	0.243800	0.662000	0.776000
N81	N8	0.717100	0.186600	0.753800
O11	O1	0.053200	0.098800	0.821500
O21	O2	0.922900	0.200800	0.816100
O31	O3	0.571000	0.211400	0.200300
O41	O4	0.465300	0.090100	0.192100
O51	O5	0.535700	0.098900	0.318100
O61	O6	0.678100	0.200100	0.317200
O71	O7	0.034900	0.212300	0.703500
O81	O8	0.143300	0.085000	0.697600
O91	O9	0.714600	0.037000	0.223700
O101	O10	0.889500	0.040200	0.724300
O111	O11	0.553200	0.901200	0.178500
O121	O12	0.422900	0.799200	0.183900
O131	O13	0.071000	0.788600	0.799700
O141	O14	0.965300	0.909900	0.807900
O151	O15	0.035700	0.901100	0.681900
O161	O16	0.178100	0.799900	0.682800
O171	O17	0.534900	0.787700	0.296500
O181	O18	0.643300	0.915000	0.302400
O191	O19	0.214600	0.963000	0.776300
O201	O20	0.389500	0.959800	0.275700
F11	F1	0.294900	0.541600	0.045600
F21	F2	0.187300	0.517700	0.971100
F31	F3	0.337400	0.442800	0.973200
F41	F4	0.051000	0.371100	0.102300
F51	F5	0.162200	0.470800	0.133900
F61	F6	0.056100	0.505400	0.065700
F71	F7	0.558500	0.492700	0.568500
F81	F8	0.450300	0.462300	0.639500
F91	F9	0.565300	0.357000	0.603800
F101	F10	0.329900	0.536900	0.555400
F111	F11	0.273200	0.446500	0.482700
F121	F12	0.427500	0.516000	0.478000
F131	F13	0.794900	0.458400	0.954400
F141	F14	0.687300	0.482300	0.028900
F151	F15	0.837400	0.557200	0.026800
F161	F16	0.551000	0.628900	0.897700
F171	F17	0.662200	0.529200	0.866100
F181	F18	0.556100	0.494600	0.934300
F191	F19	0.058500	0.507300	0.431500
F201	F20	0.950300	0.537700	0.360500
F211	F21	0.065300	0.643000	0.396200
F221	F22	0.829900	0.463100	0.444600
F231	F23	0.773200	0.553500	0.517300
F241	F24	0.927500	0.484000	0.522000
