data_KEWNUX_clean_PM
_symmetry_space_group_name_H-M	'P1'
_cell_length_a	20.911200
_cell_length_b	20.911200
_cell_length_c	38.350200
_cell_angle_alpha	90.000000
_cell_angle_beta	90.000000
_cell_angle_gamma	120.000000
_symmetry_Int_Tables_number 1

loop_
_symmetry_equiv_pos_as_xyz
'x,y,z'

loop_
_atom_site_label
_atom_site_type_symbol
_atom_site_fract_x
_atom_site_fract_y
_atom_site_fract_z
W11	W1	0.083930	0.983440	0.684960
W21	W2	0.075740	0.884170	0.603040
W31	W3	0.073350	0.881190	0.505130
W41	W4	0.091110	0.995460	0.428180
W51	W5	0.192940	0.083300	0.509880
W61	W6	0.193220	0.085640	0.607820
Cu11	Cu1	0.305060	0.009420	0.487900
Cu21	Cu2	0.319200	0.044700	0.318230
O11	O1	0.074900	0.917000	0.652200
O21	O2	0.155800	0.056500	0.652500
O31	O3	0.989000	0.919600	0.704000
O41	O4	0.992700	0.926500	0.597000
O51	O5	0.062200	0.868000	0.555300
O61	O6	0.147700	0.982300	0.597100
O71	O7	0.980700	0.803300	0.612600
O81	O8	0.075400	0.916900	0.460500
O91	O9	0.991100	0.925200	0.516300
O101	O10	0.148100	0.979600	0.516300
O111	O11	0.978200	0.801500	0.499900
O121	O12	0.158600	0.057800	0.461200
O131	O13	0.994600	0.925000	0.409700
O141	O14	0.201100	0.098300	0.556900
O151	O15	0.281800	0.102000	0.500900
N11	N1	0.328900	0.993000	0.533600
N21	N2	0.371000	0.996300	0.602700
N31	N3	0.296200	0.014800	0.439000
N41	N4	0.308000	0.033600	0.367600
C11	C1	0.398600	0.014500	0.542800
C21	C2	0.456500	0.043000	0.517000
H11	H1	0.443900	0.042400	0.493200
C31	C3	0.527300	0.070000	0.525500
H21	H2	0.564700	0.091100	0.508200
C41	C4	0.545500	0.066700	0.560600
H31	H3	0.594800	0.080200	0.566600
C51	C5	0.492500	0.044200	0.586600
H41	H4	0.505400	0.046900	0.610500
C61	C6	0.422500	0.018400	0.576800
C71	C7	0.302200	0.971500	0.593800
H51	H5	0.265800	0.955200	0.611600
C81	C8	0.279200	0.968000	0.557400
H61	H6	0.228600	0.947500	0.551600
C91	C9	0.269000	0.953500	0.418100
C101	C10	0.238900	0.882900	0.431600
H71	H7	0.239500	0.877200	0.456200
C111	C11	0.210200	0.824500	0.412500
H81	H8	0.187300	0.777500	0.423500
C121	C12	0.211800	0.828500	0.374600
H91	H9	0.192000	0.785400	0.360500
C131	C13	0.248200	0.908400	0.358400
H101	H10	0.250900	0.916000	0.333900
C141	C14	0.275500	0.965400	0.381100
C151	C15	0.324600	0.087200	0.388500
H111	H11	0.340500	0.135100	0.379500
C161	C16	0.319500	0.076000	0.425200
H121	H12	0.334800	0.117700	0.440000
W71	W7	0.750600	0.316770	0.018290
W81	W8	0.742410	0.217500	0.936370
W91	W9	0.740020	0.214520	0.838460
W101	W10	0.757780	0.328790	0.761510
W111	W11	0.859610	0.416630	0.843220
W121	W12	0.859890	0.418970	0.941150
Cu31	Cu3	0.971730	0.342750	0.821230
Cu41	Cu4	0.985870	0.378030	0.651560
O161	O16	0.741570	0.250330	0.985530
O171	O17	0.822470	0.389830	0.985830
O181	O18	0.655670	0.252930	0.037330
O191	O19	0.659370	0.259830	0.930330
O201	O20	0.728870	0.201330	0.888630
O211	O21	0.814370	0.315630	0.930430
O221	O22	0.647370	0.136630	0.945930
O231	O23	0.742070	0.250230	0.793830
O241	O24	0.657770	0.258530	0.849630
O251	O25	0.814770	0.312930	0.849630
O261	O26	0.644870	0.134830	0.833230
O271	O27	0.825270	0.391130	0.794530
O281	O28	0.661270	0.258330	0.743030
O291	O29	0.867770	0.431630	0.890230
O301	O30	0.948470	0.435330	0.834230
N51	N5	0.995570	0.326330	0.866930
N61	N6	0.037670	0.329630	0.936030
N71	N7	0.962870	0.348130	0.772330
N81	N8	0.974670	0.366930	0.700930
C171	C17	0.065270	0.347830	0.876130
C181	C18	0.123170	0.376330	0.850330
H131	H13	0.110570	0.375730	0.826530
C191	C19	0.193970	0.403330	0.858830
H141	H14	0.231370	0.424430	0.841530
C201	C20	0.212170	0.400030	0.893930
H151	H15	0.261470	0.413530	0.899930
C211	C21	0.159170	0.377530	0.919930
H161	H16	0.172070	0.380230	0.943830
C221	C22	0.089170	0.351730	0.910130
C231	C23	0.968870	0.304830	0.927130
H171	H17	0.932470	0.288530	0.944930
C241	C24	0.945870	0.301330	0.890730
H181	H18	0.895270	0.280830	0.884930
C251	C25	0.935670	0.286830	0.751430
C261	C26	0.905570	0.216230	0.764930
H191	H19	0.906170	0.210530	0.789530
C271	C27	0.876870	0.157830	0.745830
H201	H20	0.853970	0.110830	0.756830
C281	C28	0.878470	0.161830	0.707930
H211	H21	0.858670	0.118730	0.693830
C291	C29	0.914870	0.241730	0.691730
H221	H22	0.917570	0.249330	0.667230
C301	C30	0.942170	0.298730	0.714430
C311	C31	0.991270	0.420530	0.721830
H231	H23	0.007170	0.468430	0.712830
C321	C32	0.986170	0.409330	0.758530
H241	H24	0.001470	0.451030	0.773330
W131	W13	0.417260	0.650110	0.351630
W141	W14	0.409070	0.550840	0.269710
W151	W15	0.406680	0.547860	0.171800
W161	W16	0.424440	0.662130	0.094850
W171	W17	0.526270	0.749970	0.176550
W181	W18	0.526550	0.752310	0.274490
Cu51	Cu5	0.638390	0.676090	0.154570
Cu61	Cu6	0.652530	0.711370	0.984900
O311	O31	0.408230	0.583670	0.318870
O321	O32	0.489130	0.723170	0.319170
O331	O33	0.322330	0.586270	0.370670
O341	O34	0.326030	0.593170	0.263670
O351	O35	0.395530	0.534670	0.221970
O361	O36	0.481030	0.648970	0.263770
O371	O37	0.314030	0.469970	0.279270
O381	O38	0.408730	0.583570	0.127170
O391	O39	0.324430	0.591870	0.182970
O401	O40	0.481430	0.646270	0.182970
O411	O41	0.311530	0.468170	0.166570
O421	O42	0.491930	0.724470	0.127870
O431	O43	0.327930	0.591670	0.076370
O441	O44	0.534430	0.764970	0.223570
O451	O45	0.615130	0.768670	0.167570
N91	N9	0.662230	0.659670	0.200270
N101	N10	0.704330	0.662970	0.269370
N111	N11	0.629530	0.681470	0.105670
N121	N12	0.641330	0.700270	0.034270
C331	C33	0.731930	0.681170	0.209470
C341	C34	0.789830	0.709670	0.183670
H251	H25	0.777230	0.709070	0.159870
C351	C35	0.860630	0.736670	0.192170
H261	H26	0.898030	0.757770	0.174870
C361	C36	0.878830	0.733370	0.227270
H271	H27	0.928130	0.746870	0.233270
C371	C37	0.825830	0.710870	0.253270
H281	H28	0.838730	0.713570	0.277170
C381	C38	0.755830	0.685070	0.243470
C391	C39	0.635530	0.638170	0.260470
H291	H29	0.599130	0.621870	0.278270
C401	C40	0.612530	0.634670	0.224070
H301	H30	0.561930	0.614170	0.218270
C411	C41	0.602330	0.620170	0.084770
C421	C42	0.572230	0.549570	0.098270
H311	H31	0.572830	0.543870	0.122870
C431	C43	0.543530	0.491170	0.079170
H321	H32	0.520630	0.444170	0.090170
C441	C44	0.545130	0.495170	0.041270
H331	H33	0.525330	0.452070	0.027170
C451	C45	0.581530	0.575070	0.025070
H341	H34	0.584230	0.582670	0.000570
C461	C46	0.608830	0.632070	0.047770
C471	C47	0.657930	0.753870	0.055170
H351	H35	0.673830	0.801770	0.046170
C481	C48	0.652830	0.742670	0.091870
H361	H36	0.668130	0.784370	0.106670
W191	W19	0.016560	0.100490	0.684960
W201	W20	0.115830	0.191570	0.603040
W211	W21	0.118810	0.192160	0.505130
W221	W22	0.004540	0.095650	0.428180
W231	W23	0.916700	0.109640	0.509880
W241	W24	0.914360	0.107580	0.607820
Cu71	Cu7	0.990580	0.295640	0.487900
Cu81	Cu8	0.955300	0.274500	0.318230
O461	O46	0.083000	0.157900	0.652200
O471	O47	0.943500	0.099300	0.652500
O481	O48	0.080400	0.069400	0.704000
O491	O49	0.073500	0.066200	0.597000
O501	O50	0.132000	0.194200	0.555300
O511	O51	0.017700	0.165400	0.597100
O521	O52	0.196700	0.177400	0.612600
O531	O53	0.083100	0.158500	0.460500
O541	O54	0.074800	0.065900	0.516300
O551	O55	0.020400	0.168500	0.516300
O561	O56	0.198500	0.176700	0.499900
O571	O57	0.942200	0.100800	0.461200
O581	O58	0.075000	0.069600	0.409700
O591	O59	0.901700	0.102800	0.556900
O601	O60	0.898000	0.179800	0.500900
N131	N13	0.007000	0.335900	0.533600
N141	N14	0.003700	0.374700	0.602700
N151	N15	0.985200	0.281400	0.439000
N161	N16	0.966400	0.274400	0.367600
C491	C49	0.985500	0.384100	0.542800
C501	C50	0.957000	0.413500	0.517000
H371	H37	0.957600	0.401500	0.493200
C511	C51	0.930000	0.457300	0.525500
H381	H38	0.908900	0.473600	0.508200
C521	C52	0.933300	0.478800	0.560600
H391	H39	0.919800	0.514600	0.566600
C531	C53	0.955800	0.448300	0.586600
H401	H40	0.953100	0.458500	0.610500
C541	C54	0.981600	0.404100	0.576800
C551	C55	0.028500	0.330700	0.593800
H411	H41	0.044800	0.310600	0.611600
C561	C56	0.032000	0.311200	0.557400
H421	H42	0.052500	0.281100	0.551600
C571	C57	0.046500	0.315500	0.418100
C581	C58	0.117100	0.356000	0.431600
H431	H43	0.122800	0.362300	0.456200
C591	C59	0.175500	0.385700	0.412500
H441	H44	0.222500	0.409800	0.423500
C601	C60	0.171500	0.383300	0.374600
H451	H45	0.214600	0.406600	0.360500
C611	C61	0.091600	0.339800	0.358400
H461	H46	0.084000	0.334900	0.333900
C621	C62	0.034600	0.310100	0.381100
C631	C63	0.912800	0.237400	0.388500
H471	H47	0.864900	0.205400	0.379500
C641	C64	0.924000	0.243500	0.425200
H481	H48	0.882300	0.217100	0.440000
W251	W25	0.683230	0.433820	0.018290
W261	W26	0.782500	0.524900	0.936370
W271	W27	0.785480	0.525490	0.838460
W281	W28	0.671210	0.428980	0.761510
W291	W29	0.583370	0.442970	0.843220
W301	W30	0.581030	0.440910	0.941150
Cu91	Cu9	0.657250	0.628970	0.821230
Cu101	Cu10	0.621970	0.607830	0.651560
O611	O61	0.749670	0.491230	0.985530
O621	O62	0.610170	0.432630	0.985830
O631	O63	0.747070	0.402730	0.037330
O641	O64	0.740170	0.399530	0.930330
O651	O65	0.798670	0.527530	0.888630
O661	O66	0.684370	0.498730	0.930430
O671	O67	0.863370	0.510730	0.945930
O681	O68	0.749770	0.491830	0.793830
O691	O69	0.741470	0.399230	0.849630
O701	O70	0.687070	0.501830	0.849630
O711	O71	0.865170	0.510030	0.833230
O721	O72	0.608870	0.434130	0.794530
O731	O73	0.741670	0.402930	0.743030
O741	O74	0.568370	0.436130	0.890230
O751	O75	0.564670	0.513130	0.834230
N171	N17	0.673670	0.669230	0.866930
N181	N18	0.670370	0.708030	0.936030
N191	N19	0.651870	0.614730	0.772330
N201	N20	0.633070	0.607730	0.700930
C651	C65	0.652170	0.717430	0.876130
C661	C66	0.623670	0.746830	0.850330
H491	H49	0.624270	0.734830	0.826530
C671	C67	0.596670	0.790630	0.858830
H501	H50	0.575570	0.806930	0.841530
C681	C68	0.599970	0.812130	0.893930
H511	H51	0.586470	0.847930	0.899930
C691	C69	0.622470	0.781630	0.919930
H521	H52	0.619770	0.791830	0.943830
C701	C70	0.648270	0.737430	0.910130
C711	C71	0.695170	0.664030	0.927130
H531	H53	0.711470	0.643930	0.944930
C721	C72	0.698670	0.644530	0.890730
H541	H54	0.719170	0.614430	0.884930
C731	C73	0.713170	0.648830	0.751430
C741	C74	0.783770	0.689330	0.764930
H551	H55	0.789470	0.695630	0.789530
C751	C75	0.842170	0.719030	0.745830
H561	H56	0.889170	0.743130	0.756830
C761	C76	0.838170	0.716630	0.707930
H571	H57	0.881270	0.739930	0.693830
C771	C77	0.758270	0.673130	0.691730
H581	H58	0.750670	0.668230	0.667230
C781	C78	0.701270	0.643430	0.714430
C791	C79	0.579470	0.570730	0.721830
H591	H59	0.531570	0.538730	0.712830
C801	C80	0.590670	0.576830	0.758530
H601	H60	0.548970	0.550430	0.773330
W311	W31	0.349890	0.767160	0.351630
W321	W32	0.449160	0.858240	0.269710
W331	W33	0.452140	0.858830	0.171800
W341	W34	0.337870	0.762320	0.094850
W351	W35	0.250030	0.776310	0.176550
W361	W36	0.247690	0.774250	0.274490
Cu111	Cu11	0.323910	0.962310	0.154570
Cu121	Cu12	0.288630	0.941170	0.984900
O761	O76	0.416330	0.824570	0.318870
O771	O77	0.276830	0.765970	0.319170
O781	O78	0.413730	0.736070	0.370670
O791	O79	0.406830	0.732870	0.263670
O801	O80	0.465330	0.860870	0.221970
O811	O81	0.351030	0.832070	0.263770
O821	O82	0.530030	0.844070	0.279270
O831	O83	0.416430	0.825170	0.127170
O841	O84	0.408130	0.732570	0.182970
O851	O85	0.353730	0.835170	0.182970
O861	O86	0.531830	0.843370	0.166570
O871	O87	0.275530	0.767470	0.127870
O881	O88	0.408330	0.736270	0.076370
O891	O89	0.235030	0.769470	0.223570
O901	O90	0.231330	0.846470	0.167570
N211	N21	0.340330	0.002570	0.200270
N221	N22	0.337030	0.041370	0.269370
N231	N23	0.318530	0.948070	0.105670
N241	N24	0.299730	0.941070	0.034270
C811	C81	0.318830	0.050770	0.209470
C821	C82	0.290330	0.080170	0.183670
H611	H61	0.290930	0.068170	0.159870
C831	C83	0.263330	0.123970	0.192170
H621	H62	0.242230	0.140270	0.174870
C841	C84	0.266630	0.145470	0.227270
H631	H63	0.253130	0.181270	0.233270
C851	C85	0.289130	0.114970	0.253270
H641	H64	0.286430	0.125170	0.277170
C861	C86	0.314930	0.070770	0.243470
C871	C87	0.361830	0.997370	0.260470
H651	H65	0.378130	0.977270	0.278270
C881	C88	0.365330	0.977870	0.224070
H661	H66	0.385830	0.947770	0.218270
C891	C89	0.379830	0.982170	0.084770
C901	C90	0.450430	0.022670	0.098270
H671	H67	0.456130	0.028970	0.122870
C911	C91	0.508830	0.052370	0.079170
H681	H68	0.555830	0.076470	0.090170
C921	C92	0.504830	0.049970	0.041270
H691	H69	0.547930	0.073270	0.027170
C931	C93	0.424930	0.006470	0.025070
H701	H70	0.417330	0.001570	0.000570
C941	C94	0.367930	0.976770	0.047770
C951	C95	0.246130	0.904070	0.055170
H711	H71	0.198230	0.872070	0.046170
C961	C96	0.257330	0.910170	0.091870
H721	H72	0.215630	0.883770	0.106670
W371	W37	0.899510	0.916070	0.684960
W381	W38	0.808430	0.924260	0.603040
W391	W39	0.807840	0.926650	0.505130
W401	W40	0.904350	0.908890	0.428180
W411	W41	0.890360	0.807060	0.509880
W421	W42	0.892420	0.806780	0.607820
Cu131	Cu13	0.704360	0.694940	0.487900
Cu141	Cu14	0.725500	0.680800	0.318230
O911	O91	0.842100	0.925100	0.652200
O921	O92	0.900700	0.844200	0.652500
O931	O93	0.930600	0.011000	0.704000
O941	O94	0.933800	0.007300	0.597000
O951	O95	0.805800	0.937800	0.555300
O961	O96	0.834600	0.852300	0.597100
O971	O97	0.822600	0.019300	0.612600
O981	O98	0.841500	0.924600	0.460500
O991	O99	0.934100	0.008900	0.516300
O1001	O100	0.831500	0.851900	0.516300
O1011	O101	0.823300	0.021800	0.499900
O1021	O102	0.899200	0.841400	0.461200
O1031	O103	0.930400	0.005400	0.409700
O1041	O104	0.897200	0.798900	0.556900
O1051	O105	0.820200	0.718200	0.500900
N251	N25	0.664100	0.671100	0.533600
N261	N26	0.625300	0.629000	0.602700
N271	N27	0.718600	0.703800	0.439000
N281	N28	0.725600	0.692000	0.367600
C971	C97	0.615900	0.601400	0.542800
C981	C98	0.586500	0.543500	0.517000
H731	H73	0.598500	0.556100	0.493200
C991	C99	0.542700	0.472700	0.525500
H741	H74	0.526400	0.435300	0.508200
C1001	C100	0.521200	0.454500	0.560600
H751	H75	0.485400	0.405200	0.566600
C1011	C101	0.551700	0.507500	0.586600
H761	H76	0.541500	0.494600	0.610500
C1021	C102	0.595900	0.577500	0.576800
C1031	C103	0.669300	0.697800	0.593800
H771	H77	0.689400	0.734200	0.611600
C1041	C104	0.688800	0.720800	0.557400
H781	H78	0.718900	0.771400	0.551600
C1051	C105	0.684500	0.731000	0.418100
C1061	C106	0.644000	0.761100	0.431600
H791	H79	0.637700	0.760500	0.456200
C1071	C107	0.614300	0.789800	0.412500
H801	H80	0.590200	0.812700	0.423500
C1081	C108	0.616700	0.788200	0.374600
H811	H81	0.593400	0.808000	0.360500
C1091	C109	0.660200	0.751800	0.358400
H821	H82	0.665100	0.749100	0.333900
C1101	C110	0.689900	0.724500	0.381100
C1111	C111	0.762600	0.675400	0.388500
H831	H83	0.794600	0.659500	0.379500
C1121	C112	0.756500	0.680500	0.425200
H841	H84	0.782900	0.665200	0.440000
W431	W43	0.566180	0.249400	0.018290
W441	W44	0.475100	0.257590	0.936370
W451	W45	0.474510	0.259980	0.838460
W461	W46	0.571020	0.242220	0.761510
W471	W47	0.557030	0.140390	0.843220
W481	W48	0.559090	0.140110	0.941150
Cu151	Cu15	0.371030	0.028270	0.821230
Cu161	Cu16	0.392170	0.014130	0.651560
O1061	O106	0.508770	0.258430	0.985530
O1071	O107	0.567370	0.177530	0.985830
O1081	O108	0.597270	0.344330	0.037330
O1091	O109	0.600470	0.340630	0.930330
O1101	O110	0.472470	0.271130	0.888630
O1111	O111	0.501270	0.185630	0.930430
O1121	O112	0.489270	0.352630	0.945930
O1131	O113	0.508170	0.257930	0.793830
O1141	O114	0.600770	0.342230	0.849630
O1151	O115	0.498170	0.185230	0.849630
O1161	O116	0.489970	0.355130	0.833230
O1171	O117	0.565870	0.174730	0.794530
O1181	O118	0.597070	0.338730	0.743030
O1191	O119	0.563870	0.132230	0.890230
O1201	O120	0.486870	0.051530	0.834230
N291	N29	0.330770	0.004430	0.866930
N301	N30	0.291970	0.962330	0.936030
N311	N31	0.385270	0.037130	0.772330
N321	N32	0.392270	0.025330	0.700930
C1131	C113	0.282570	0.934730	0.876130
C1141	C114	0.253170	0.876830	0.850330
H851	H85	0.265170	0.889430	0.826530
C1151	C115	0.209370	0.806030	0.858830
H861	H86	0.193070	0.768630	0.841530
C1161	C116	0.187870	0.787830	0.893930
H871	H87	0.152070	0.738530	0.899930
C1171	C117	0.218370	0.840830	0.919930
H881	H88	0.208170	0.827930	0.943830
C1181	C118	0.262570	0.910830	0.910130
C1191	C119	0.335970	0.031130	0.927130
H891	H89	0.356070	0.067530	0.944930
C1201	C120	0.355470	0.054130	0.890730
H901	H90	0.385570	0.104730	0.884930
C1211	C121	0.351170	0.064330	0.751430
C1221	C122	0.310670	0.094430	0.764930
H911	H91	0.304370	0.093830	0.789530
C1231	C123	0.280970	0.123130	0.745830
H921	H92	0.256870	0.146030	0.756830
C1241	C124	0.283370	0.121530	0.707930
H931	H93	0.260070	0.141330	0.693830
C1251	C125	0.326870	0.085130	0.691730
H941	H94	0.331770	0.082430	0.667230
C1261	C126	0.356570	0.057830	0.714430
C1271	C127	0.429270	0.008730	0.721830
H951	H95	0.461270	0.992830	0.712830
C1281	C128	0.423170	0.013830	0.758530
H961	H96	0.449570	0.998530	0.773330
W491	W49	0.232840	0.582740	0.351630
W501	W50	0.141760	0.590930	0.269710
W511	W51	0.141170	0.593320	0.171800
W521	W52	0.237680	0.575560	0.094850
W531	W53	0.223690	0.473730	0.176550
W541	W54	0.225750	0.473450	0.274490
Cu171	Cu17	0.037690	0.361610	0.154570
Cu181	Cu18	0.058830	0.347470	0.984900
O1211	O121	0.175430	0.591770	0.318870
O1221	O122	0.234030	0.510870	0.319170
O1231	O123	0.263930	0.677670	0.370670
O1241	O124	0.267130	0.673970	0.263670
O1251	O125	0.139130	0.604470	0.221970
O1261	O126	0.167930	0.518970	0.263770
O1271	O127	0.155930	0.685970	0.279270
O1281	O128	0.174830	0.591270	0.127170
O1291	O129	0.267430	0.675570	0.182970
O1301	O130	0.164830	0.518570	0.182970
O1311	O131	0.156630	0.688470	0.166570
O1321	O132	0.232530	0.508070	0.127870
O1331	O133	0.263730	0.672070	0.076370
O1341	O134	0.230530	0.465570	0.223570
O1351	O135	0.153530	0.384870	0.167570
N331	N33	0.997430	0.337770	0.200270
N341	N34	0.958630	0.295670	0.269370
N351	N35	0.051930	0.370470	0.105670
N361	N36	0.058930	0.358670	0.034270
C1291	C129	0.949230	0.268070	0.209470
C1301	C130	0.919830	0.210170	0.183670
H971	H97	0.931830	0.222770	0.159870
C1311	C131	0.876030	0.139370	0.192170
H981	H98	0.859730	0.101970	0.174870
C1321	C132	0.854530	0.121170	0.227270
H991	H99	0.818730	0.071870	0.233270
C1331	C133	0.885030	0.174170	0.253270
H1001	H100	0.874830	0.161270	0.277170
C1341	C134	0.929230	0.244170	0.243470
C1351	C135	0.002630	0.364470	0.260470
H1011	H101	0.022730	0.400870	0.278270
C1361	C136	0.022130	0.387470	0.224070
H1021	H102	0.052230	0.438070	0.218270
C1371	C137	0.017830	0.397670	0.084770
C1381	C138	0.977330	0.427770	0.098270
H1031	H103	0.971030	0.427170	0.122870
C1391	C139	0.947630	0.456470	0.079170
H1041	H104	0.923530	0.479370	0.090170
C1401	C140	0.950030	0.454870	0.041270
H1051	H105	0.926730	0.474670	0.027170
C1411	C141	0.993530	0.418470	0.025070
H1061	H106	0.998430	0.415770	0.000570
C1421	C142	0.023230	0.391170	0.047770
C1431	C143	0.095930	0.342070	0.055170
H1071	H107	0.127930	0.326170	0.046170
C1441	C144	0.089830	0.347170	0.091870
H1081	H108	0.116230	0.331870	0.106670
P11	P1	0.000000	0.000000	0.608200
P21	P2	0.000000	0.000000	0.504500
O1361	O136	0.000000	0.000000	0.650200
O1371	O137	0.000000	0.000000	0.463600
P31	P3	0.666670	0.333330	0.941530
P41	P4	0.666670	0.333330	0.837830
O1381	O138	0.666670	0.333330	0.983530
O1391	O139	0.666670	0.333330	0.796930
P51	P5	0.333330	0.666670	0.274870
P61	P6	0.333330	0.666670	0.171170
O1401	O140	0.333330	0.666670	0.316870
O1411	O141	0.333330	0.666670	0.130270
