data_KEXFAU_clean_PM
_symmetry_space_group_name_H-M	'P1'
_cell_length_a	9.087000
_cell_length_b	14.999700
_cell_length_c	17.239000
_cell_angle_alpha	105.306000
_cell_angle_beta	90.000000
_cell_angle_gamma	107.632000
_symmetry_Int_Tables_number 1

loop_
_symmetry_equiv_pos_as_xyz
'x,y,z'

loop_
_atom_site_label
_atom_site_type_symbol
_atom_site_fract_x
_atom_site_fract_y
_atom_site_fract_z
Cd11	Cd1	0.000000	0.000000	0.000000
Cd21	Cd2	0.000000	0.000000	0.500000
Ni11	Ni1	0.342540	0.000000	0.750000
Ni21	Ni2	0.657460	0.000000	0.250000
H11	H1	0.044000	0.848000	0.049000
H21	H2	0.179000	0.916000	0.065000
H31	H3	0.238000	0.860000	0.941000
H41	H4	0.215000	0.788000	0.994000
H51	H5	0.990000	0.774000	0.876000
H61	H6	0.965000	0.716000	0.940000
H71	H7	0.157000	0.694000	0.818000
H81	H8	0.152000	0.642000	0.880000
H91	H9	0.897000	0.558000	0.830000
H101	H10	0.912000	0.612000	0.763000
H111	H11	0.089000	0.530000	0.709000
H121	H12	0.059000	0.478000	0.771000
H131	H13	0.834000	0.448000	0.656000
H141	H14	0.806000	0.398000	0.724000
H151	H15	0.979000	0.310000	0.669000
H161	H16	0.011000	0.364000	0.610000
H171	H17	0.721000	0.236000	0.607000
H181	H18	0.762000	0.300000	0.539000
H191	H19	0.766000	0.140000	0.480000
H201	H20	0.936000	0.208000	0.489000
H211	H21	0.946000	0.150000	0.606000
H221	H22	0.798000	0.088000	0.580000
H231	H23	0.196000	0.152000	0.451000
H241	H24	0.263000	0.084000	0.435000
H251	H25	0.378000	0.140000	0.559000
H261	H26	0.427000	0.212000	0.506000
H271	H27	0.216000	0.226000	0.624000
H281	H28	0.249000	0.284000	0.560000
H291	H29	0.463000	0.306000	0.682000
H301	H30	0.510000	0.358000	0.620000
H311	H31	0.339000	0.442000	0.670000
H321	H32	0.300000	0.388000	0.737000
H331	H33	0.559000	0.470000	0.791000
H341	H34	0.581000	0.522000	0.729000
H351	H35	0.386000	0.552000	0.844000
H361	H36	0.408000	0.602000	0.776000
H371	H37	0.669000	0.690000	0.831000
H381	H38	0.647000	0.636000	0.890000
H391	H39	0.485000	0.764000	0.893000
H401	H40	0.462000	0.700000	0.961000
H411	H41	0.626000	0.860000	0.020000
H421	H42	0.728000	0.792000	0.011000
H431	H43	0.796000	0.850000	0.894000
H441	H44	0.710000	0.912000	0.920000
H451	H45	0.956000	0.152000	0.951000
H461	H46	0.821000	0.084000	0.935000
H471	H47	0.762000	0.140000	0.059000
H481	H48	0.785000	0.212000	0.006000
H491	H49	0.010000	0.226000	0.124000
H501	H50	0.035000	0.284000	0.060000
H511	H51	0.843000	0.306000	0.182000
H521	H52	0.848000	0.358000	0.120000
H531	H53	0.103000	0.442000	0.170000
H541	H54	0.088000	0.388000	0.237000
H551	H55	0.911000	0.470000	0.291000
H561	H56	0.941000	0.522000	0.229000
H571	H57	0.166000	0.552000	0.344000
H581	H58	0.194000	0.602000	0.276000
H591	H59	0.021000	0.690000	0.331000
H601	H60	0.989000	0.636000	0.390000
H611	H61	0.279000	0.764000	0.393000
H621	H62	0.238000	0.700000	0.461000
H631	H63	0.234000	0.860000	0.520000
H641	H64	0.064000	0.792000	0.511000
H651	H65	0.054000	0.850000	0.394000
H661	H66	0.202000	0.912000	0.420000
H671	H67	0.804000	0.848000	0.549000
H681	H68	0.737000	0.916000	0.565000
H691	H69	0.622000	0.860000	0.441000
H701	H70	0.573000	0.788000	0.494000
H711	H71	0.784000	0.774000	0.376000
H721	H72	0.751000	0.716000	0.440000
H731	H73	0.537000	0.694000	0.318000
H741	H74	0.490000	0.642000	0.380000
H751	H75	0.661000	0.558000	0.330000
H761	H76	0.700000	0.612000	0.263000
H771	H77	0.441000	0.530000	0.209000
H781	H78	0.419000	0.478000	0.271000
H791	H79	0.614000	0.448000	0.156000
H801	H80	0.592000	0.398000	0.224000
H811	H81	0.331000	0.310000	0.169000
H821	H82	0.353000	0.364000	0.110000
H831	H83	0.515000	0.236000	0.107000
H841	H84	0.538000	0.300000	0.039000
H851	H85	0.374000	0.140000	0.980000
H861	H86	0.272000	0.208000	0.989000
H871	H87	0.204000	0.150000	0.106000
H881	H88	0.290000	0.088000	0.080000
C11	C1	0.167100	0.819800	0.967200
C21	C2	0.039200	0.742800	0.908600
C31	C3	0.093400	0.665200	0.851600
C41	C4	0.962600	0.583200	0.798000
C51	C5	0.014000	0.503800	0.742200
C61	C6	0.881100	0.423200	0.688800
C71	C7	0.929500	0.341000	0.634300
C81	C8	0.799900	0.265000	0.575200
C91	C9	0.848500	0.182600	0.521300
C101	C10	0.195700	0.993200	0.825500
C111	C11	0.485000	0.993200	0.823600
C121	C12	0.347300	0.180200	0.532800
C131	C13	0.296400	0.257200	0.591400
C141	C14	0.428200	0.334800	0.648400
C151	C15	0.379400	0.416800	0.702000
C161	C16	0.510200	0.496200	0.757800
C171	C17	0.457900	0.576800	0.811200
C181	C18	0.588500	0.659000	0.865700
C191	C19	0.534900	0.735000	0.924800
C201	C20	0.665900	0.817400	0.978700
C211	C21	0.202500	0.006800	0.674500
C221	C22	0.491800	0.006800	0.676400
C231	C23	0.832900	0.180200	0.032800
C241	C24	0.960800	0.257200	0.091400
C251	C25	0.906600	0.334800	0.148400
C261	C26	0.037400	0.416800	0.202000
C271	C27	0.986000	0.496200	0.257800
C281	C28	0.118900	0.576800	0.311200
C291	C29	0.070500	0.659000	0.365700
C301	C30	0.200100	0.735000	0.424800
C311	C31	0.151500	0.817400	0.478700
C321	C32	0.804300	0.006800	0.174500
C331	C33	0.515000	0.006800	0.176400
C341	C34	0.652700	0.819800	0.467200
C351	C35	0.703600	0.742800	0.408600
C361	C36	0.571800	0.665200	0.351600
C371	C37	0.620600	0.583200	0.298000
C381	C38	0.489800	0.503800	0.242200
C391	C39	0.542100	0.423200	0.188800
C401	C40	0.411500	0.341000	0.134300
C411	C41	0.465100	0.265000	0.075200
C421	C42	0.334100	0.182600	0.021300
C431	C43	0.797500	0.993200	0.325500
C441	C44	0.508200	0.993200	0.323600
N11	N1	0.105500	0.885400	0.028400
N21	N2	0.885200	0.118600	0.563600
N31	N3	0.106900	0.988800	0.872100
N41	N4	0.576700	0.990400	0.867900
N51	N5	0.220100	0.114600	0.471600
N61	N6	0.766600	0.881400	0.936400
N71	N7	0.118100	0.011200	0.627900
N81	N8	0.586300	0.009600	0.632100
N91	N9	0.894500	0.114600	0.971600
N101	N10	0.114800	0.881400	0.436400
N111	N11	0.893100	0.011200	0.127900
N121	N12	0.423300	0.009600	0.132100
N131	N13	0.779900	0.885400	0.528400
N141	N14	0.233400	0.118600	0.063600
N151	N15	0.881900	0.988800	0.372100
N161	N16	0.413700	0.990400	0.367900
