data_KEXKAB_clean_PM
_symmetry_space_group_name_H-M	'P1'
_cell_length_a	7.319000
_cell_length_b	14.610000
_cell_length_c	20.564000
_cell_angle_alpha	90.000000
_cell_angle_beta	90.000000
_cell_angle_gamma	90.000000
_symmetry_Int_Tables_number 1

loop_
_symmetry_equiv_pos_as_xyz
'x,y,z'

loop_
_atom_site_label
_atom_site_type_symbol
_atom_site_fract_x
_atom_site_fract_y
_atom_site_fract_z
Zn11	Zn1	0.249900	0.125160	0.121560
Zn21	Zn2	0.762600	0.374380	0.045370
Zn31	Zn3	0.750100	0.874840	0.621560
Zn41	Zn4	0.237400	0.625620	0.545370
Zn51	Zn5	0.250100	0.625160	0.121560
Zn61	Zn6	0.737400	0.874380	0.045370
Zn71	Zn7	0.749900	0.374840	0.621560
Zn81	Zn8	0.262600	0.125620	0.545370
H11	H1	0.259000	0.272400	0.943200
H21	H2	0.261800	0.169300	0.964400
H31	H3	0.748300	0.523800	0.222500
H41	H4	0.754100	0.420900	0.200800
H51	H5	0.114300	0.135000	0.263700
H61	H6	0.093200	0.232300	0.350900
H71	H7	0.288800	0.430300	0.235300
H81	H8	0.309700	0.325300	0.154100
H91	H9	0.119100	0.522900	0.312100
H101	H10	0.138200	0.619800	0.398600
H111	H11	0.281600	0.418100	0.513900
H121	H12	0.264500	0.316700	0.429200
H131	H13	0.741000	0.727600	0.443200
H141	H14	0.738200	0.830700	0.464400
H151	H15	0.251700	0.476200	0.722500
H161	H16	0.245900	0.579100	0.700800
H171	H17	0.885700	0.865000	0.763700
H181	H18	0.906800	0.767700	0.850900
H191	H19	0.711200	0.569700	0.735300
H201	H20	0.690300	0.674700	0.654100
H211	H21	0.880900	0.477100	0.812100
H221	H22	0.861800	0.380200	0.898600
H231	H23	0.718400	0.581900	0.013900
H241	H24	0.735500	0.683300	0.929200
H251	H25	0.241000	0.772400	0.943200
H261	H26	0.238200	0.669300	0.964400
H271	H27	0.751700	0.023800	0.222500
H281	H28	0.745900	0.920900	0.200800
H291	H29	0.385700	0.635000	0.263700
H301	H30	0.406800	0.732300	0.350900
H311	H31	0.211200	0.930300	0.235300
H321	H32	0.190300	0.825300	0.154100
H331	H33	0.380900	0.022900	0.312100
H341	H34	0.361800	0.119800	0.398600
H351	H35	0.218400	0.918100	0.513900
H361	H36	0.235500	0.816700	0.429200
H371	H37	0.759000	0.227600	0.443200
H381	H38	0.761800	0.330700	0.464400
H391	H39	0.248300	0.976200	0.722500
H401	H40	0.254100	0.079100	0.700800
H411	H41	0.614300	0.365000	0.763700
H421	H42	0.593200	0.267700	0.850900
H431	H43	0.788800	0.069700	0.735300
H441	H44	0.809700	0.174700	0.654100
H451	H45	0.619100	0.977100	0.812100
H461	H46	0.638200	0.880200	0.898600
H471	H47	0.781600	0.081900	0.013900
H481	H48	0.764500	0.183300	0.929200
C11	C1	0.433700	0.249500	0.021000
C21	C2	0.259400	0.231700	0.980500
C31	C3	0.082700	0.246600	0.019900
C41	C4	0.584400	0.497800	0.145000
C51	C5	0.752200	0.483500	0.185000
C61	C6	0.922900	0.501500	0.147600
C71	C7	0.153100	0.195200	0.258600
C81	C8	0.138700	0.253300	0.311400
C91	C9	0.193500	0.343900	0.304300
C101	C10	0.255200	0.369900	0.243100
C111	C11	0.266300	0.306600	0.194500
C121	C12	0.194000	0.407900	0.360200
C131	C13	0.153900	0.500400	0.352500
C141	C14	0.165800	0.558300	0.404900
C151	C15	0.250100	0.439800	0.472900
C161	C16	0.240100	0.378300	0.421900
C171	C17	0.566300	0.750500	0.521000
C181	C18	0.740600	0.768300	0.480500
C191	C19	0.917300	0.753400	0.519900
C201	C20	0.415600	0.502200	0.645000
C211	C21	0.247800	0.516500	0.685000
C221	C22	0.077100	0.498500	0.647600
C231	C23	0.846900	0.804800	0.758600
C241	C24	0.861300	0.746700	0.811400
C251	C25	0.806500	0.656100	0.804300
C261	C26	0.744800	0.630100	0.743100
C271	C27	0.733700	0.693400	0.694500
C281	C28	0.806000	0.592100	0.860200
C291	C29	0.846100	0.499600	0.852500
C301	C30	0.834200	0.441700	0.904900
C311	C31	0.749900	0.560200	0.972900
C321	C32	0.759900	0.621700	0.921900
C331	C33	0.066300	0.749500	0.021000
C341	C34	0.240600	0.731700	0.980500
C351	C35	0.417300	0.746600	0.019900
C361	C36	0.915600	0.997800	0.145000
C371	C37	0.747800	0.983500	0.185000
C381	C38	0.577100	0.001500	0.147600
C391	C39	0.346900	0.695200	0.258600
C401	C40	0.361300	0.753300	0.311400
C411	C41	0.306500	0.843900	0.304300
C421	C42	0.244800	0.869900	0.243100
C431	C43	0.233700	0.806600	0.194500
C441	C44	0.306000	0.907900	0.360200
C451	C45	0.346100	0.000400	0.352500
C461	C46	0.334200	0.058300	0.404900
C471	C47	0.249900	0.939800	0.472900
C481	C48	0.259900	0.878300	0.421900
C491	C49	0.933700	0.250500	0.521000
C501	C50	0.759400	0.268300	0.480500
C511	C51	0.582700	0.253400	0.519900
C521	C52	0.084400	0.002200	0.645000
C531	C53	0.252200	0.016500	0.685000
C541	C54	0.422900	0.998500	0.647600
C551	C55	0.653100	0.304800	0.758600
C561	C56	0.638700	0.246700	0.811400
C571	C57	0.693500	0.156100	0.804300
C581	C58	0.755200	0.130100	0.743100
C591	C59	0.766300	0.193400	0.694500
C601	C60	0.694000	0.092100	0.860200
C611	C61	0.653900	0.999600	0.852500
C621	C62	0.665800	0.941700	0.904900
C631	C63	0.750100	0.060200	0.972900
C641	C64	0.740100	0.121700	0.921900
N11	N1	0.218300	0.219900	0.202000
N21	N2	0.215700	0.530800	0.465600
N31	N3	0.781700	0.780100	0.702000
N41	N4	0.784300	0.469200	0.965600
N51	N5	0.281700	0.719900	0.202000
N61	N6	0.284300	0.030800	0.465600
N71	N7	0.718300	0.280100	0.702000
N81	N8	0.715700	0.969200	0.965600
O11	O1	0.448700	0.208200	0.074600
O21	O2	0.546500	0.304600	0.998800
O31	O3	0.057400	0.201100	0.070300
O41	O4	0.975300	0.305300	0.998900
O51	O5	0.565000	0.455800	0.091200
O61	O6	0.461600	0.550000	0.167900
O71	O7	0.955100	0.455900	0.096700
O81	O8	0.033500	0.561000	0.170600
O91	O9	0.551300	0.791800	0.574600
O101	O10	0.453500	0.695400	0.498800
O111	O11	0.942600	0.798900	0.570300
O121	O12	0.024700	0.694700	0.498900
O131	O13	0.435000	0.544200	0.591200
O141	O14	0.538400	0.450000	0.667900
O151	O15	0.044900	0.544100	0.596700
O161	O16	0.966500	0.439000	0.670600
O171	O17	0.051300	0.708200	0.074600
O181	O18	0.953500	0.804600	0.998800
O191	O19	0.442600	0.701100	0.070300
O201	O20	0.524700	0.805300	0.998900
O211	O21	0.935000	0.955800	0.091200
O221	O22	0.038400	0.050000	0.167900
O231	O23	0.544900	0.955900	0.096700
O241	O24	0.466500	0.061000	0.170600
O251	O25	0.948700	0.291800	0.574600
O261	O26	0.046500	0.195400	0.498800
O271	O27	0.557400	0.298900	0.570300
O281	O28	0.475300	0.194700	0.498900
O291	O29	0.065000	0.044200	0.591200
O301	O30	0.961600	0.950000	0.667900
O311	O31	0.455100	0.044100	0.596700
O321	O32	0.533500	0.939000	0.670600
