data_KEYFUR_clean_PM
_symmetry_space_group_name_H-M	'P1'
_cell_length_a	26.956000
_cell_length_b	26.956000
_cell_length_c	6.965000
_cell_angle_alpha	90.000000
_cell_angle_beta	90.000000
_cell_angle_gamma	120.000000
_symmetry_Int_Tables_number 1

loop_
_symmetry_equiv_pos_as_xyz
'x,y,z'

loop_
_atom_site_label
_atom_site_type_symbol
_atom_site_fract_x
_atom_site_fract_y
_atom_site_fract_z
Cu11	Cu1	0.790430	0.679120	0.072190
O11	O1	0.821510	0.628110	0.042600
O21	O2	0.763000	0.733100	0.080700
O31	O3	0.720500	0.770600	0.914700
N11	N1	0.759600	0.664700	0.816600
C11	C1	0.779300	0.589600	0.734300
C21	C2	0.806700	0.588200	0.906600
C31	C3	0.818900	0.543800	0.927700
H11	H1	0.835300	0.541000	0.041500
C41	C4	0.807200	0.504400	0.784800
H21	H2	0.815700	0.475300	0.803500
C51	C5	0.783000	0.507400	0.614200
H31	H3	0.776700	0.481400	0.516100
C61	C6	0.768600	0.548700	0.590300
H41	H4	0.751300	0.550000	0.476400
C71	C7	0.759000	0.628600	0.696900
H51	H5	0.744200	0.627500	0.575500
C81	C8	0.736200	0.701200	0.761400
H61	H6	0.696500	0.677700	0.722500
H71	H7	0.757600	0.725200	0.653700
C91	C9	0.740200	0.738100	0.929800
Cu21	Cu2	0.457100	0.012450	0.405520
O41	O4	0.488180	0.961440	0.375930
O51	O5	0.429670	0.066430	0.414030
O61	O6	0.387170	0.103930	0.248030
N21	N2	0.426270	0.998030	0.149930
C101	C10	0.445970	0.922930	0.067630
C111	C11	0.473370	0.921530	0.239930
C121	C12	0.485570	0.877130	0.261030
H81	H8	0.501970	0.874330	0.374830
C131	C13	0.473870	0.837730	0.118130
H91	H9	0.482370	0.808630	0.136830
C141	C14	0.449670	0.840730	0.947530
H101	H10	0.443370	0.814730	0.849430
C151	C15	0.435270	0.882030	0.923630
H111	H11	0.417970	0.883330	0.809730
C161	C16	0.425670	0.961930	0.030230
H121	H12	0.410870	0.960830	0.908830
C171	C17	0.402870	0.034530	0.094730
H131	H13	0.363170	0.011030	0.055830
H141	H14	0.424270	0.058530	0.987030
C181	C18	0.406870	0.071430	0.263130
Cu31	Cu3	0.123760	0.345790	0.738860
O71	O7	0.154840	0.294780	0.709270
O81	O8	0.096330	0.399770	0.747370
O91	O9	0.053830	0.437270	0.581370
N31	N3	0.092930	0.331370	0.483270
C191	C19	0.112630	0.256270	0.400970
C201	C20	0.140030	0.254870	0.573270
C211	C21	0.152230	0.210470	0.594370
H151	H15	0.168630	0.207670	0.708170
C221	C22	0.140530	0.171070	0.451470
H161	H16	0.149030	0.141970	0.470170
C231	C23	0.116330	0.174070	0.280870
H171	H17	0.110030	0.148070	0.182770
C241	C24	0.101930	0.215370	0.256970
H181	H18	0.084630	0.216670	0.143070
C251	C25	0.092330	0.295270	0.363570
H191	H19	0.077530	0.294170	0.242170
C261	C26	0.069530	0.367870	0.428070
H201	H20	0.029830	0.344370	0.389170
H211	H21	0.090930	0.391870	0.320370
C271	C27	0.073530	0.404770	0.596470
Cu41	Cu4	0.320880	0.111310	0.072190
O101	O10	0.371890	0.193400	0.042600
O111	O11	0.266900	0.029900	0.080700
O121	O12	0.229400	0.949900	0.914700
N41	N4	0.335300	0.094900	0.816600
C281	C28	0.410400	0.189700	0.734300
C291	C29	0.411800	0.218500	0.906600
C301	C30	0.456200	0.275100	0.927700
H221	H22	0.459000	0.294300	0.041500
C311	C31	0.495600	0.302800	0.784800
H231	H23	0.524700	0.340400	0.803500
C321	C32	0.492600	0.275600	0.614200
H241	H24	0.518600	0.295300	0.516100
C331	C33	0.451300	0.219900	0.590300
H251	H25	0.450000	0.201300	0.476400
C341	C34	0.371400	0.130400	0.696900
H261	H26	0.372500	0.116700	0.575500
C351	C35	0.298800	0.035000	0.761400
H271	H27	0.322300	0.018800	0.722500
H281	H28	0.274800	0.032400	0.653700
C361	C36	0.261900	0.002100	0.929800
Cu51	Cu5	0.987550	0.444640	0.405520
O131	O13	0.038560	0.526730	0.375930
O141	O14	0.933570	0.363230	0.414030
O151	O15	0.896070	0.283230	0.248030
N51	N5	0.001970	0.428230	0.149930
C371	C37	0.077070	0.523030	0.067630
C381	C38	0.078470	0.551830	0.239930
C391	C39	0.122870	0.608430	0.261030
H291	H29	0.125670	0.627630	0.374830
C401	C40	0.162270	0.636130	0.118130
H301	H30	0.191370	0.673730	0.136830
C411	C41	0.159270	0.608930	0.947530
H311	H31	0.185270	0.628630	0.849430
C421	C42	0.117970	0.553230	0.923630
H321	H32	0.116670	0.534630	0.809730
C431	C43	0.038070	0.463730	0.030230
H331	H33	0.039170	0.450030	0.908830
C441	C44	0.965470	0.368330	0.094730
H341	H34	0.988970	0.352130	0.055830
H351	H35	0.941470	0.365730	0.987030
C451	C45	0.928570	0.335430	0.263130
Cu61	Cu6	0.654210	0.777980	0.738860
O161	O16	0.705220	0.860070	0.709270
O171	O17	0.600230	0.696570	0.747370
O181	O18	0.562730	0.616570	0.581370
N61	N6	0.668630	0.761570	0.483270
C461	C46	0.743730	0.856370	0.400970
C471	C47	0.745130	0.885170	0.573270
C481	C48	0.789530	0.941770	0.594370
H361	H36	0.792330	0.960970	0.708170
C491	C49	0.828930	0.969470	0.451470
H371	H37	0.858030	0.007070	0.470170
C501	C50	0.825930	0.942270	0.280870
H381	H38	0.851930	0.961970	0.182770
C511	C51	0.784630	0.886570	0.256970
H391	H39	0.783330	0.867970	0.143070
C521	C52	0.704730	0.797070	0.363570
H401	H40	0.705830	0.783370	0.242170
C531	C53	0.632130	0.701670	0.428070
H411	H41	0.655630	0.685470	0.389170
H421	H42	0.608130	0.699070	0.320370
C541	C54	0.595230	0.668770	0.596470
Cu71	Cu7	0.888690	0.209570	0.072190
O191	O19	0.806600	0.178490	0.042600
O201	O20	0.970100	0.237000	0.080700
O211	O21	0.050100	0.279500	0.914700
N71	N7	0.905100	0.240400	0.816600
C551	C55	0.810300	0.220700	0.734300
C561	C56	0.781500	0.193300	0.906600
C571	C57	0.724900	0.181100	0.927700
H431	H43	0.705700	0.164700	0.041500
C581	C58	0.697200	0.192800	0.784800
H441	H44	0.659600	0.184300	0.803500
C591	C59	0.724400	0.217000	0.614200
H451	H45	0.704700	0.223300	0.516100
C601	C60	0.780100	0.231400	0.590300
H461	H46	0.798700	0.248700	0.476400
C611	C61	0.869600	0.241000	0.696900
H471	H47	0.883300	0.255800	0.575500
C621	C62	0.965000	0.263800	0.761400
H481	H48	0.981200	0.303500	0.722500
H491	H49	0.967600	0.242400	0.653700
C631	C63	0.997900	0.259800	0.929800
Cu81	Cu8	0.555360	0.542900	0.405520
O221	O22	0.473270	0.511820	0.375930
O231	O23	0.636770	0.570330	0.414030
O241	O24	0.716770	0.612830	0.248030
N81	N8	0.571770	0.573730	0.149930
C641	C64	0.476970	0.554030	0.067630
C651	C65	0.448170	0.526630	0.239930
C661	C66	0.391570	0.514430	0.261030
H501	H50	0.372370	0.498030	0.374830
C671	C67	0.363870	0.526130	0.118130
H511	H51	0.326270	0.517630	0.136830
C681	C68	0.391070	0.550330	0.947530
H521	H52	0.371370	0.556630	0.849430
C691	C69	0.446770	0.564730	0.923630
H531	H53	0.465370	0.582030	0.809730
C701	C70	0.536270	0.574330	0.030230
H541	H54	0.549970	0.589130	0.908830
C711	C71	0.631670	0.597130	0.094730
H551	H55	0.647870	0.636830	0.055830
H561	H56	0.634270	0.575730	0.987030
C721	C72	0.664570	0.593130	0.263130
Cu91	Cu9	0.222020	0.876240	0.738860
O251	O25	0.139930	0.845160	0.709270
O261	O26	0.303430	0.903670	0.747370
O271	O27	0.383430	0.946170	0.581370
N91	N9	0.238430	0.907070	0.483270
C731	C73	0.143630	0.887370	0.400970
C741	C74	0.114830	0.859970	0.573270
C751	C75	0.058230	0.847770	0.594370
H571	H57	0.039030	0.831370	0.708170
C761	C76	0.030530	0.859470	0.451470
H581	H58	0.992930	0.850970	0.470170
C771	C77	0.057730	0.883670	0.280870
H591	H59	0.038030	0.889970	0.182770
C781	C78	0.113430	0.898070	0.256970
H601	H60	0.132030	0.915370	0.143070
C791	C79	0.202930	0.907670	0.363570
H611	H61	0.216630	0.922470	0.242170
C801	C80	0.298330	0.930470	0.428070
H621	H62	0.314530	0.970170	0.389170
H631	H63	0.300930	0.909070	0.320370
C811	C81	0.331230	0.926470	0.596470
Cu101	Cu10	0.209570	0.320880	0.927810
O281	O28	0.178490	0.371890	0.957400
O291	O29	0.237000	0.266900	0.919300
O301	O30	0.279500	0.229400	0.085300
N101	N10	0.240400	0.335300	0.183400
C821	C82	0.220700	0.410400	0.265700
C831	C83	0.193300	0.411800	0.093400
C841	C84	0.181100	0.456200	0.072300
H641	H64	0.164700	0.459000	0.958500
C851	C85	0.192800	0.495600	0.215200
H651	H65	0.184300	0.524700	0.196500
C861	C86	0.217000	0.492600	0.385800
H661	H66	0.223300	0.518600	0.483900
C871	C87	0.231400	0.451300	0.409700
H671	H67	0.248700	0.450000	0.523600
C881	C88	0.241000	0.371400	0.303100
H681	H68	0.255800	0.372500	0.424500
C891	C89	0.263800	0.298800	0.238600
H691	H69	0.303500	0.322300	0.277500
H701	H70	0.242400	0.274800	0.346300
C901	C90	0.259800	0.261900	0.070200
Cu111	Cu11	0.876240	0.654210	0.261140
O311	O31	0.845160	0.705220	0.290730
O321	O32	0.903670	0.600230	0.252630
O331	O33	0.946170	0.562730	0.418630
N111	N11	0.907070	0.668630	0.516730
C911	C91	0.887370	0.743730	0.599030
C921	C92	0.859970	0.745130	0.426730
C931	C93	0.847770	0.789530	0.405630
H711	H71	0.831370	0.792330	0.291830
C941	C94	0.859470	0.828930	0.548530
H721	H72	0.850970	0.858030	0.529830
C951	C95	0.883670	0.825930	0.719130
H731	H73	0.889970	0.851930	0.817230
C961	C96	0.898070	0.784630	0.743030
H741	H74	0.915370	0.783330	0.856930
C971	C97	0.907670	0.704730	0.636430
H751	H75	0.922470	0.705830	0.757830
C981	C98	0.930470	0.632130	0.571930
H761	H76	0.970170	0.655630	0.610830
H771	H77	0.909070	0.608130	0.679630
C991	C99	0.926470	0.595230	0.403530
Cu121	Cu12	0.542900	0.987550	0.594480
O341	O34	0.511820	0.038560	0.624070
O351	O35	0.570330	0.933570	0.585970
O361	O36	0.612830	0.896070	0.751970
N121	N12	0.573730	0.001970	0.850070
C1001	C100	0.554030	0.077070	0.932370
C1011	C101	0.526630	0.078470	0.760070
C1021	C102	0.514430	0.122870	0.738970
H781	H78	0.498030	0.125670	0.625170
C1031	C103	0.526130	0.162270	0.881870
H791	H79	0.517630	0.191370	0.863170
C1041	C104	0.550330	0.159270	0.052470
H801	H80	0.556630	0.185270	0.150570
C1051	C105	0.564730	0.117970	0.076370
H811	H81	0.582030	0.116670	0.190270
C1061	C106	0.574330	0.038070	0.969770
H821	H82	0.589130	0.039170	0.091170
C1071	C107	0.597130	0.965470	0.905270
H831	H83	0.636830	0.988970	0.944170
H841	H84	0.575730	0.941470	0.012970
C1081	C108	0.593130	0.928570	0.736870
Cu131	Cu13	0.679120	0.888690	0.927810
O371	O37	0.628110	0.806600	0.957400
O381	O38	0.733100	0.970100	0.919300
O391	O39	0.770600	0.050100	0.085300
N131	N13	0.664700	0.905100	0.183400
C1091	C109	0.589600	0.810300	0.265700
C1101	C110	0.588200	0.781500	0.093400
C1111	C111	0.543800	0.724900	0.072300
H851	H85	0.541000	0.705700	0.958500
C1121	C112	0.504400	0.697200	0.215200
H861	H86	0.475300	0.659600	0.196500
C1131	C113	0.507400	0.724400	0.385800
H871	H87	0.481400	0.704700	0.483900
C1141	C114	0.548700	0.780100	0.409700
H881	H88	0.550000	0.798700	0.523600
C1151	C115	0.628600	0.869600	0.303100
H891	H89	0.627500	0.883300	0.424500
C1161	C116	0.701200	0.965000	0.238600
H901	H90	0.677700	0.981200	0.277500
H911	H91	0.725200	0.967600	0.346300
C1171	C117	0.738100	0.997900	0.070200
Cu141	Cu14	0.345790	0.222020	0.261140
O401	O40	0.294780	0.139930	0.290730
O411	O41	0.399770	0.303430	0.252630
O421	O42	0.437270	0.383430	0.418630
N141	N14	0.331370	0.238430	0.516730
C1181	C118	0.256270	0.143630	0.599030
C1191	C119	0.254870	0.114830	0.426730
C1201	C120	0.210470	0.058230	0.405630
H921	H92	0.207670	0.039030	0.291830
C1211	C121	0.171070	0.030530	0.548530
H931	H93	0.141970	0.992930	0.529830
C1221	C122	0.174070	0.057730	0.719130
H941	H94	0.148070	0.038030	0.817230
C1231	C123	0.215370	0.113430	0.743030
H951	H95	0.216670	0.132030	0.856930
C1241	C124	0.295270	0.202930	0.636430
H961	H96	0.294170	0.216630	0.757830
C1251	C125	0.367870	0.298330	0.571930
H971	H97	0.344370	0.314530	0.610830
H981	H98	0.391870	0.300930	0.679630
C1261	C126	0.404770	0.331230	0.403530
Cu151	Cu15	0.012450	0.555360	0.594480
O431	O43	0.961440	0.473270	0.624070
O441	O44	0.066430	0.636770	0.585970
O451	O45	0.103930	0.716770	0.751970
N151	N15	0.998030	0.571770	0.850070
C1271	C127	0.922930	0.476970	0.932370
C1281	C128	0.921530	0.448170	0.760070
C1291	C129	0.877130	0.391570	0.738970
H991	H99	0.874330	0.372370	0.625170
C1301	C130	0.837730	0.363870	0.881870
H1001	H100	0.808630	0.326270	0.863170
C1311	C131	0.840730	0.391070	0.052470
H1011	H101	0.814730	0.371370	0.150570
C1321	C132	0.882030	0.446770	0.076370
H1021	H102	0.883330	0.465370	0.190270
C1331	C133	0.961930	0.536270	0.969770
H1031	H103	0.960830	0.549970	0.091170
C1341	C134	0.034530	0.631670	0.905270
H1041	H104	0.011030	0.647870	0.944170
H1051	H105	0.058530	0.634270	0.012970
C1351	C135	0.071430	0.664570	0.736870
Cu161	Cu16	0.111310	0.790430	0.927810
O461	O46	0.193400	0.821510	0.957400
O471	O47	0.029900	0.763000	0.919300
O481	O48	0.949900	0.720500	0.085300
N161	N16	0.094900	0.759600	0.183400
C1361	C136	0.189700	0.779300	0.265700
C1371	C137	0.218500	0.806700	0.093400
C1381	C138	0.275100	0.818900	0.072300
H1061	H106	0.294300	0.835300	0.958500
C1391	C139	0.302800	0.807200	0.215200
H1071	H107	0.340400	0.815700	0.196500
C1401	C140	0.275600	0.783000	0.385800
H1081	H108	0.295300	0.776700	0.483900
C1411	C141	0.219900	0.768600	0.409700
H1091	H109	0.201300	0.751300	0.523600
C1421	C142	0.130400	0.759000	0.303100
H1101	H110	0.116700	0.744200	0.424500
C1431	C143	0.035000	0.736200	0.238600
H1111	H111	0.018800	0.696500	0.277500
H1121	H112	0.032400	0.757600	0.346300
C1441	C144	0.002100	0.740200	0.070200
Cu171	Cu17	0.777980	0.123760	0.261140
O491	O49	0.860070	0.154840	0.290730
O501	O50	0.696570	0.096330	0.252630
O511	O51	0.616570	0.053830	0.418630
N171	N17	0.761570	0.092930	0.516730
C1451	C145	0.856370	0.112630	0.599030
C1461	C146	0.885170	0.140030	0.426730
C1471	C147	0.941770	0.152230	0.405630
H1131	H113	0.960970	0.168630	0.291830
C1481	C148	0.969470	0.140530	0.548530
H1141	H114	0.007070	0.149030	0.529830
C1491	C149	0.942270	0.116330	0.719130
H1151	H115	0.961970	0.110030	0.817230
C1501	C150	0.886570	0.101930	0.743030
H1161	H116	0.867970	0.084630	0.856930
C1511	C151	0.797070	0.092330	0.636430
H1171	H117	0.783370	0.077530	0.757830
C1521	C152	0.701670	0.069530	0.571930
H1181	H118	0.685470	0.029830	0.610830
H1191	H119	0.699070	0.090930	0.679630
C1531	C153	0.668770	0.073530	0.403530
Cu181	Cu18	0.444640	0.457100	0.594480
O521	O52	0.526730	0.488180	0.624070
O531	O53	0.363230	0.429670	0.585970
O541	O54	0.283230	0.387170	0.751970
N181	N18	0.428230	0.426270	0.850070
C1541	C154	0.523030	0.445970	0.932370
C1551	C155	0.551830	0.473370	0.760070
C1561	C156	0.608430	0.485570	0.738970
H1201	H120	0.627630	0.501970	0.625170
C1571	C157	0.636130	0.473870	0.881870
H1211	H121	0.673730	0.482370	0.863170
C1581	C158	0.608930	0.449670	0.052470
H1221	H122	0.628630	0.443370	0.150570
C1591	C159	0.553230	0.435270	0.076370
H1231	H123	0.534630	0.417970	0.190270
C1601	C160	0.463730	0.425670	0.969770
H1241	H124	0.450030	0.410870	0.091170
C1611	C161	0.368330	0.402870	0.905270
H1251	H125	0.352130	0.363170	0.944170
H1261	H126	0.365730	0.424270	0.012970
C1621	C162	0.335430	0.406870	0.736870
