data_KIBYAW_charged_PM
_symmetry_space_group_name_H-M	'P1'
_cell_length_a	13.627000
_cell_length_b	14.044000
_cell_length_c	16.321000
_cell_angle_alpha	90.000000
_cell_angle_beta	90.000000
_cell_angle_gamma	115.186000
_symmetry_Int_Tables_number 1

loop_
_symmetry_equiv_pos_as_xyz
'x,y,z'

loop_
_atom_site_label
_atom_site_type_symbol
_atom_site_fract_x
_atom_site_fract_y
_atom_site_fract_z
Ag11	Ag1	0.409880	0.728970	0.930720
Ag21	Ag2	0.090120	0.271030	0.430720
Ag31	Ag3	0.590120	0.271030	0.069280
Ag41	Ag4	0.909880	0.728970	0.569280
H11	H1	0.182300	0.571600	0.001900
H21	H2	0.095400	0.445100	0.098700
H31	H3	0.373700	0.550400	0.224200
H41	H4	0.451000	0.675400	0.125200
H51	H5	0.098700	0.349700	0.216000
H61	H6	0.210900	0.347000	0.230800
H71	H7	0.006800	0.434200	0.300700
H81	H8	0.096300	0.550500	0.307800
H91	H9	0.161300	0.620800	0.447100
H101	H10	0.781500	0.300600	0.423900
H111	H11	0.856600	0.339700	0.346900
H121	H12	0.751100	0.136300	0.512600
H131	H13	0.863900	0.206200	0.553100
H141	H14	0.742400	0.962700	0.441900
H151	H15	0.958100	0.114800	0.617200
H161	H16	0.983000	0.964900	0.637000
H171	H17	0.773100	0.817200	0.466800
H181	H18	0.317700	0.428400	0.501900
H191	H19	0.404600	0.554900	0.598700
H201	H20	0.126300	0.449600	0.724200
H211	H21	0.049000	0.324600	0.625200
H221	H22	0.401300	0.650300	0.716000
H231	H23	0.289100	0.653000	0.730800
H241	H24	0.493200	0.565800	0.800700
H251	H25	0.403700	0.449500	0.807800
H261	H26	0.338700	0.379200	0.947100
H271	H27	0.718500	0.699400	0.923900
H281	H28	0.643400	0.660300	0.846900
H291	H29	0.748900	0.863700	0.012600
H301	H30	0.636100	0.793800	0.053100
H311	H31	0.757600	0.037300	0.941900
H321	H32	0.541900	0.885200	0.117200
H331	H33	0.517000	0.035100	0.137000
H341	H34	0.726900	0.182800	0.966800
H351	H35	0.817700	0.428400	0.998100
H361	H36	0.904600	0.554900	0.901300
H371	H37	0.626300	0.449600	0.775800
H381	H38	0.549000	0.324600	0.874800
H391	H39	0.901300	0.650300	0.784000
H401	H40	0.789100	0.653000	0.769200
H411	H41	0.993200	0.565800	0.699300
H421	H42	0.903700	0.449500	0.692200
H431	H43	0.838700	0.379200	0.552900
H441	H44	0.218500	0.699400	0.576100
H451	H45	0.143400	0.660300	0.653100
H461	H46	0.248900	0.863700	0.487400
H471	H47	0.136100	0.793800	0.446900
H481	H48	0.257600	0.037300	0.558100
H491	H49	0.041900	0.885200	0.382800
H501	H50	0.017000	0.035100	0.363000
H511	H51	0.226900	0.182800	0.533200
H521	H52	0.682300	0.571600	0.498100
H531	H53	0.595400	0.445100	0.401300
H541	H54	0.873700	0.550400	0.275800
H551	H55	0.951000	0.675400	0.374800
H561	H56	0.598700	0.349700	0.284000
H571	H57	0.710900	0.347000	0.269200
H581	H58	0.506800	0.434200	0.199300
H591	H59	0.596300	0.550500	0.192200
H601	H60	0.661300	0.620800	0.052900
H611	H61	0.281500	0.300600	0.076100
H621	H62	0.356600	0.339700	0.153100
H631	H63	0.251100	0.136300	0.987400
H641	H64	0.363900	0.206200	0.946900
H651	H65	0.242400	0.962700	0.058100
H661	H66	0.458100	0.114800	0.882800
H671	H67	0.483000	0.964900	0.863000
H681	H68	0.273100	0.817200	0.033200
C11	C1	0.221500	0.567000	0.047200
C21	C2	0.168500	0.490000	0.105100
C31	C3	0.225100	0.480500	0.172400
C41	C4	0.332800	0.552600	0.179300
C51	C5	0.378900	0.627500	0.119100
C61	C6	0.173000	0.391800	0.232900
C71	C7	0.067400	0.481600	0.333380
C81	C8	0.029800	0.488400	0.419290
C91	C9	0.931800	0.413900	0.451820
C101	C10	0.095900	0.572100	0.468430
C111	C11	0.854500	0.319800	0.404000
C121	C12	0.828000	0.153600	0.511300
C131	C13	0.846100	0.056200	0.527280
C141	C14	0.791500	0.964900	0.482300
C151	C15	0.919200	0.055200	0.586000
C161	C16	0.933400	0.964400	0.597600
C171	C17	0.810300	0.877600	0.497700
C181	C18	0.278500	0.433000	0.547200
C191	C19	0.331500	0.510000	0.605100
C201	C20	0.274900	0.519500	0.672400
C211	C21	0.167200	0.447400	0.679300
C221	C22	0.121100	0.372500	0.619100
C231	C23	0.327000	0.608200	0.732900
C241	C24	0.432600	0.518400	0.833380
C251	C25	0.470200	0.511600	0.919290
C261	C26	0.568200	0.586100	0.951820
C271	C27	0.404100	0.427900	0.968430
C281	C28	0.645500	0.680200	0.904000
C291	C29	0.672000	0.846400	0.011300
C301	C30	0.653900	0.943800	0.027280
C311	C31	0.708500	0.035100	0.982300
C321	C32	0.580800	0.944800	0.086000
C331	C33	0.566600	0.035600	0.097600
C341	C34	0.689700	0.122400	0.997700
C351	C35	0.778500	0.433000	0.952800
C361	C36	0.831500	0.510000	0.894900
C371	C37	0.774900	0.519500	0.827600
C381	C38	0.667200	0.447400	0.820700
C391	C39	0.621100	0.372500	0.880900
C401	C40	0.827000	0.608200	0.767100
C411	C41	0.932600	0.518400	0.666620
C421	C42	0.970200	0.511600	0.580710
C431	C43	0.068200	0.586100	0.548180
C441	C44	0.904100	0.427900	0.531570
C451	C45	0.145500	0.680200	0.596000
C461	C46	0.172000	0.846400	0.488700
C471	C47	0.153900	0.943800	0.472720
C481	C48	0.208500	0.035100	0.517700
C491	C49	0.080800	0.944800	0.414000
C501	C50	0.066600	0.035600	0.402400
C511	C51	0.189700	0.122400	0.502300
C521	C52	0.721500	0.567000	0.452800
C531	C53	0.668500	0.490000	0.394900
C541	C54	0.725100	0.480500	0.327600
C551	C55	0.832800	0.552600	0.320700
C561	C56	0.878900	0.627500	0.380900
C571	C57	0.673000	0.391800	0.267100
C581	C58	0.567400	0.481600	0.166620
C591	C59	0.529800	0.488400	0.080710
C601	C60	0.431800	0.413900	0.048180
C611	C61	0.595900	0.572100	0.031570
C621	C62	0.354500	0.319800	0.096000
C631	C63	0.328000	0.153600	0.988700
C641	C64	0.346100	0.056200	0.972720
C651	C65	0.291500	0.964900	0.017700
C661	C66	0.419200	0.055200	0.914000
C671	C67	0.433400	0.964400	0.902400
C681	C68	0.310300	0.877600	0.002300
S11	S1	0.172430	0.433150	0.338150
S21	S2	0.883950	0.204400	0.410590
S31	S3	0.327570	0.566850	0.838150
S41	S4	0.616050	0.795600	0.910590
S51	S5	0.827570	0.566850	0.661850
S61	S6	0.116050	0.795600	0.589410
S71	S7	0.672430	0.433150	0.161850
S81	S8	0.383950	0.204400	0.089410
N11	N1	0.325900	0.635100	0.052670
N21	N2	0.879500	0.875700	0.555070
N31	N3	0.174100	0.364900	0.552670
N41	N4	0.620500	0.124300	0.055070
N51	N5	0.674100	0.364900	0.947330
N61	N6	0.120500	0.124300	0.444930
N71	N7	0.825900	0.635100	0.447330
N81	N8	0.379500	0.875700	0.944930
P11	P1	0.738910	0.811140	0.248220
F11	F1	0.777800	0.745800	0.189100
F21	F2	0.694600	0.872000	0.306000
F31	F3	0.854400	0.862800	0.288800
F41	F4	0.776200	0.900700	0.181000
F51	F5	0.701500	0.719500	0.313000
F61	F6	0.621300	0.756700	0.206740
P21	P2	0.761090	0.188860	0.748220
F71	F7	0.722200	0.254200	0.689100
F81	F8	0.805400	0.128000	0.806000
F91	F9	0.645600	0.137200	0.788800
F101	F10	0.723800	0.099300	0.681000
F111	F11	0.798500	0.280500	0.813000
F121	F12	0.878700	0.243300	0.706740
P31	P3	0.261090	0.188860	0.751780
F131	F13	0.222200	0.254200	0.810900
F141	F14	0.305400	0.128000	0.694000
F151	F15	0.145600	0.137200	0.711200
F161	F16	0.223800	0.099300	0.819000
F171	F17	0.298500	0.280500	0.687000
F181	F18	0.378700	0.243300	0.793260
P41	P4	0.238910	0.811140	0.251780
F191	F19	0.277800	0.745800	0.310900
F201	F20	0.194600	0.872000	0.194000
F211	F21	0.354400	0.862800	0.211200
F221	F22	0.276200	0.900700	0.319000
F231	F23	0.201500	0.719500	0.187000
F241	F24	0.121300	0.756700	0.293260
