data_KIDDOS_clean_PM
_symmetry_space_group_name_H-M	'P1'
_cell_length_a	15.953100
_cell_length_b	15.953100
_cell_length_c	21.639800
_cell_angle_alpha	68.370300
_cell_angle_beta	68.370300
_cell_angle_gamma	60.000000
_symmetry_Int_Tables_number 1

loop_
_symmetry_equiv_pos_as_xyz
'x,y,z'

loop_
_atom_site_label
_atom_site_type_symbol
_atom_site_fract_x
_atom_site_fract_y
_atom_site_fract_z
Zn11	Zn1	0.635680	0.450200	0.719200
Zn21	Zn2	0.450200	0.194920	0.719200
Zn31	Zn3	0.194920	0.635680	0.719200
Zn41	Zn4	0.864320	0.305080	0.780800
Zn51	Zn5	0.049800	0.864320	0.780800
Zn61	Zn6	0.305080	0.049800	0.780800
Zn71	Zn7	0.364320	0.549800	0.280800
Zn81	Zn8	0.549800	0.805080	0.280800
Zn91	Zn9	0.805080	0.364320	0.280800
Zn101	Zn10	0.135680	0.694920	0.219200
Zn111	Zn11	0.950200	0.135680	0.219200
Zn121	Zn12	0.694920	0.950200	0.219200
H11	H1	0.766800	0.494800	0.712600
H21	H2	0.823500	0.712400	0.533800
H31	H3	0.809100	0.806500	0.415300
H41	H4	0.541000	0.543500	0.590800
H51	H5	0.611000	0.428500	0.590500
H61	H6	0.416400	0.590100	0.693400
H71	H7	0.401900	0.506400	0.760300
H81	H8	0.494800	0.025800	0.712600
H91	H9	0.712400	0.930300	0.533800
H101	H10	0.806500	0.969100	0.415300
H111	H11	0.543500	0.324700	0.590800
H121	H12	0.428500	0.370000	0.590500
H131	H13	0.590100	0.300100	0.693400
H141	H14	0.506400	0.331400	0.760300
H151	H15	0.025800	0.766800	0.712600
H161	H16	0.930300	0.823500	0.533800
H171	H17	0.969100	0.809100	0.415300
H181	H18	0.324700	0.541000	0.590800
H191	H19	0.370000	0.611000	0.590500
H201	H20	0.300100	0.416400	0.693400
H211	H21	0.331400	0.401900	0.760300
H221	H22	0.733200	0.474200	0.787400
H231	H23	0.676500	0.569700	0.966200
H241	H24	0.690900	0.530900	0.084700
H251	H25	0.959000	0.175300	0.909200
H261	H26	0.889000	0.130000	0.909500
H271	H27	0.083600	0.199900	0.806600
H281	H28	0.098100	0.168600	0.739700
H291	H29	0.005200	0.733200	0.787400
H301	H30	0.787600	0.676500	0.966200
H311	H31	0.693500	0.690900	0.084700
H321	H32	0.956500	0.959000	0.909200
H331	H33	0.071500	0.889000	0.909500
H341	H34	0.909900	0.083600	0.806600
H351	H35	0.993600	0.098100	0.739700
H361	H36	0.474200	0.005200	0.787400
H371	H37	0.569700	0.787600	0.966200
H381	H38	0.530900	0.693500	0.084700
H391	H39	0.175300	0.956500	0.909200
H401	H40	0.130000	0.071500	0.909500
H411	H41	0.199900	0.909900	0.806600
H421	H42	0.168600	0.993600	0.739700
H431	H43	0.233200	0.505200	0.287400
H441	H44	0.176500	0.287600	0.466200
H451	H45	0.190900	0.193500	0.584700
H461	H46	0.459000	0.456500	0.409200
H471	H47	0.389000	0.571500	0.409500
H481	H48	0.583600	0.409900	0.306600
H491	H49	0.598100	0.493600	0.239700
H501	H50	0.505200	0.974200	0.287400
H511	H51	0.287600	0.069700	0.466200
H521	H52	0.193500	0.030900	0.584700
H531	H53	0.456500	0.675300	0.409200
H541	H54	0.571500	0.630000	0.409500
H551	H55	0.409900	0.699900	0.306600
H561	H56	0.493600	0.668600	0.239700
H571	H57	0.974200	0.233200	0.287400
H581	H58	0.069700	0.176500	0.466200
H591	H59	0.030900	0.190900	0.584700
H601	H60	0.675300	0.459000	0.409200
H611	H61	0.630000	0.389000	0.409500
H621	H62	0.699900	0.583600	0.306600
H631	H63	0.668600	0.598100	0.239700
H641	H64	0.266800	0.525800	0.212600
H651	H65	0.323500	0.430300	0.033800
H661	H66	0.309100	0.469100	0.915300
H671	H67	0.041000	0.824700	0.090800
H681	H68	0.111000	0.870000	0.090500
H691	H69	0.916400	0.800100	0.193400
H701	H70	0.901900	0.831400	0.260300
H711	H71	0.994800	0.266800	0.212600
H721	H72	0.212400	0.323500	0.033800
H731	H73	0.306500	0.309100	0.915300
H741	H74	0.043500	0.041000	0.090800
H751	H75	0.928500	0.111000	0.090500
H761	H76	0.090100	0.916400	0.193400
H771	H77	0.006400	0.901900	0.260300
H781	H78	0.525800	0.994800	0.212600
H791	H79	0.430300	0.212400	0.033800
H801	H80	0.469100	0.306500	0.915300
H811	H81	0.824700	0.043500	0.090800
H821	H82	0.870000	0.928500	0.090500
H831	H83	0.800100	0.090100	0.193400
H841	H84	0.831400	0.006400	0.260300
C11	C1	0.723960	0.588560	0.608320
C21	C2	0.731810	0.654410	0.538270
C31	C3	0.785260	0.709760	0.510220
C41	C4	0.777750	0.763050	0.442150
C51	C5	0.720100	0.745000	0.419500
C61	C6	0.698540	0.784940	0.350080
C71	C7	0.543160	0.475860	0.608320
C81	C8	0.418790	0.522490	0.709630
C91	C9	0.588560	0.079160	0.608320
C101	C10	0.654410	0.075510	0.538270
C111	C11	0.709760	0.994760	0.510220
C121	C12	0.763050	0.017050	0.442150
C131	C13	0.745000	0.115400	0.419500
C141	C14	0.784940	0.166440	0.350080
C151	C15	0.475860	0.372660	0.608320
C161	C16	0.522490	0.349090	0.709630
C171	C17	0.079160	0.723960	0.608320
C181	C18	0.075510	0.731810	0.538270
C191	C19	0.994760	0.785260	0.510220
C201	C20	0.017050	0.777750	0.442150
C211	C21	0.115400	0.720100	0.419500
C221	C22	0.166440	0.698540	0.350080
C231	C23	0.372660	0.543160	0.608320
C241	C24	0.349090	0.418790	0.709630
C251	C25	0.776040	0.420840	0.891680
C261	C26	0.768190	0.424490	0.961730
C271	C27	0.714740	0.505240	0.989780
C281	C28	0.722250	0.482950	0.057850
C291	C29	0.779900	0.384600	0.080500
C301	C30	0.801460	0.333560	0.149920
C311	C31	0.956840	0.127340	0.891680
C321	C32	0.081210	0.150910	0.790370
C331	C33	0.911440	0.776040	0.891680
C341	C34	0.845590	0.768190	0.961730
C351	C35	0.790240	0.714740	0.989780
C361	C36	0.736950	0.722250	0.057850
C371	C37	0.755000	0.779900	0.080500
C381	C38	0.715060	0.801460	0.149920
C391	C39	0.024140	0.956840	0.891680
C401	C40	0.977510	0.081210	0.790370
C411	C41	0.420840	0.911440	0.891680
C421	C42	0.424490	0.845590	0.961730
C431	C43	0.505240	0.790240	0.989780
C441	C44	0.482950	0.736950	0.057850
C451	C45	0.384600	0.755000	0.080500
C461	C46	0.333560	0.715060	0.149920
C471	C47	0.127340	0.024140	0.891680
C481	C48	0.150910	0.977510	0.790370
C491	C49	0.276040	0.411440	0.391680
C501	C50	0.268190	0.345590	0.461730
C511	C51	0.214740	0.290240	0.489780
C521	C52	0.222250	0.236950	0.557850
C531	C53	0.279900	0.255000	0.580500
C541	C54	0.301460	0.215060	0.649920
C551	C55	0.456840	0.524140	0.391680
C561	C56	0.581210	0.477510	0.290370
C571	C57	0.411440	0.920840	0.391680
C581	C58	0.345590	0.924490	0.461730
C591	C59	0.290240	0.005240	0.489780
C601	C60	0.236950	0.982950	0.557850
C611	C61	0.255000	0.884600	0.580500
C621	C62	0.215060	0.833560	0.649920
C631	C63	0.524140	0.627340	0.391680
C641	C64	0.477510	0.650910	0.290370
C651	C65	0.920840	0.276040	0.391680
C661	C66	0.924490	0.268190	0.461730
C671	C67	0.005240	0.214740	0.489780
C681	C68	0.982950	0.222250	0.557850
C691	C69	0.884600	0.279900	0.580500
C701	C70	0.833560	0.301460	0.649920
C711	C71	0.627340	0.456840	0.391680
C721	C72	0.650910	0.581210	0.290370
C731	C73	0.223960	0.579160	0.108320
C741	C74	0.231810	0.575510	0.038270
C751	C75	0.285260	0.494760	0.010220
C761	C76	0.277750	0.517050	0.942150
C771	C77	0.220100	0.615400	0.919500
C781	C78	0.198540	0.666440	0.850080
C791	C79	0.043160	0.872660	0.108320
C801	C80	0.918790	0.849090	0.209630
C811	C81	0.088560	0.223960	0.108320
C821	C82	0.154410	0.231810	0.038270
C831	C83	0.209760	0.285260	0.010220
C841	C84	0.263050	0.277750	0.942150
C851	C85	0.245000	0.220100	0.919500
C861	C86	0.284940	0.198540	0.850080
C871	C87	0.975860	0.043160	0.108320
C881	C88	0.022490	0.918790	0.209630
C891	C89	0.579160	0.088560	0.108320
C901	C90	0.575510	0.154410	0.038270
C911	C91	0.494760	0.209760	0.010220
C921	C92	0.517050	0.263050	0.942150
C931	C93	0.615400	0.245000	0.919500
C941	C94	0.666440	0.284940	0.850080
C951	C95	0.872660	0.975860	0.108320
C961	C96	0.849090	0.022490	0.209630
S11	S1	0.672030	0.665610	0.481780
S21	S2	0.665610	0.180580	0.481780
S31	S3	0.180580	0.672030	0.481780
S41	S4	0.827970	0.319420	0.018220
S51	S5	0.834390	0.827970	0.018220
S61	S6	0.319420	0.834390	0.018220
S71	S7	0.327970	0.334390	0.518220
S81	S8	0.334390	0.819420	0.518220
S91	S9	0.819420	0.327970	0.518220
S101	S10	0.172030	0.680580	0.981780
S111	S11	0.165610	0.172030	0.981780
S121	S12	0.680580	0.165610	0.981780
N11	N1	0.520950	0.450250	0.685150
N21	N2	0.450250	0.343650	0.685150
N31	N3	0.343650	0.520950	0.685150
N41	N4	0.979050	0.156350	0.814850
N51	N5	0.049750	0.979050	0.814850
N61	N6	0.156350	0.049750	0.814850
N71	N7	0.479050	0.549750	0.314850
N81	N8	0.549750	0.656350	0.314850
N91	N9	0.656350	0.479050	0.314850
N101	N10	0.020950	0.843650	0.185150
N111	N11	0.950250	0.020950	0.185150
N121	N12	0.843650	0.950250	0.185150
N131	N13	0.472020	0.472020	0.583940
N141	N14	0.027980	0.027980	0.916060
N151	N15	0.527980	0.527980	0.416060
N161	N16	0.972020	0.972020	0.083940
O11	O1	0.655630	0.559530	0.630220
O21	O2	0.785980	0.568380	0.639460
O31	O3	0.727040	0.851310	0.311110
O41	O4	0.653960	0.748650	0.337810
O51	O5	0.559530	0.154620	0.630220
O61	O6	0.568380	0.006180	0.639460
O71	O7	0.851310	0.110540	0.311110
O81	O8	0.748650	0.259580	0.337810
O91	O9	0.154620	0.655630	0.630220
O101	O10	0.006180	0.785980	0.639460
O111	O11	0.110540	0.727040	0.311110
O121	O12	0.259580	0.653960	0.337810
O131	O13	0.844370	0.345380	0.869780
O141	O14	0.714020	0.493820	0.860540
O151	O15	0.772960	0.389460	0.188890
O161	O16	0.846040	0.240420	0.162190
O171	O17	0.940470	0.844370	0.869780
O181	O18	0.931620	0.714020	0.860540
O191	O19	0.648690	0.772960	0.188890
O201	O20	0.751350	0.846040	0.162190
O211	O21	0.345380	0.940470	0.869780
O221	O22	0.493820	0.931620	0.860540
O231	O23	0.389460	0.648690	0.188890
O241	O24	0.240420	0.751350	0.162190
O251	O25	0.344370	0.440470	0.369780
O261	O26	0.214020	0.431620	0.360540
O271	O27	0.272960	0.148690	0.688890
O281	O28	0.346040	0.251350	0.662190
O291	O29	0.440470	0.845380	0.369780
O301	O30	0.431620	0.993820	0.360540
O311	O31	0.148690	0.889460	0.688890
O321	O32	0.251350	0.740420	0.662190
O331	O33	0.845380	0.344370	0.369780
O341	O34	0.993820	0.214020	0.360540
O351	O35	0.889460	0.272960	0.688890
O361	O36	0.740420	0.346040	0.662190
O371	O37	0.155630	0.654620	0.130220
O381	O38	0.285980	0.506180	0.139460
O391	O39	0.227040	0.610540	0.811110
O401	O40	0.153960	0.759580	0.837810
O411	O41	0.059530	0.155630	0.130220
O421	O42	0.068380	0.285980	0.139460
O431	O43	0.351310	0.227040	0.811110
O441	O44	0.248650	0.153960	0.837810
O451	O45	0.654620	0.059530	0.130220
O461	O46	0.506180	0.068380	0.139460
O471	O47	0.610540	0.351310	0.811110
O481	O48	0.759580	0.248650	0.837810
O491	O49	0.750000	0.447650	0.750000
O501	O50	0.447650	0.052350	0.750000
O511	O51	0.052350	0.750000	0.750000
O521	O52	0.250000	0.552350	0.250000
O531	O53	0.552350	0.947650	0.250000
O541	O54	0.947650	0.250000	0.250000
