data_KIDDIM_clean_PM
_symmetry_space_group_name_H-M	'P1'
_cell_length_a	16.263600
_cell_length_b	16.263600
_cell_length_c	22.199300
_cell_angle_alpha	68.511900
_cell_angle_beta	68.511800
_cell_angle_gamma	60.000000
_symmetry_Int_Tables_number 1

loop_
_symmetry_equiv_pos_as_xyz
'x,y,z'

loop_
_atom_site_label
_atom_site_type_symbol
_atom_site_fract_x
_atom_site_fract_y
_atom_site_fract_z
Cd11	Cd1	0.364450	0.545080	0.281140
Cd21	Cd2	0.545080	0.809330	0.281140
Cd31	Cd3	0.809330	0.364450	0.281140
Cd41	Cd4	0.135550	0.690670	0.218860
Cd51	Cd5	0.954920	0.135550	0.218860
Cd61	Cd6	0.690670	0.954920	0.218860
Cd71	Cd7	0.635550	0.454920	0.718860
Cd81	Cd8	0.454920	0.190670	0.718860
Cd91	Cd9	0.190670	0.635550	0.718860
Cd101	Cd10	0.864450	0.309330	0.781140
Cd111	Cd11	0.045080	0.864450	0.781140
Cd121	Cd12	0.309330	0.045080	0.781140
H11	H1	0.237100	0.493100	0.284700
H21	H2	0.170300	0.288600	0.470100
H31	H3	0.184200	0.199300	0.585600
H41	H4	0.391800	0.568400	0.410700
H51	H5	0.461500	0.455700	0.410700
H61	H6	0.584900	0.410200	0.311400
H71	H7	0.598100	0.492000	0.246000
H81	H8	0.493100	0.985100	0.284700
H91	H9	0.288600	0.071000	0.470100
H101	H10	0.199300	0.030900	0.585600
H111	H11	0.568400	0.629100	0.410700
H121	H12	0.455700	0.672100	0.410700
H131	H13	0.410200	0.693500	0.311400
H141	H14	0.492000	0.663900	0.246000
H151	H15	0.985100	0.237100	0.284700
H161	H16	0.071000	0.170300	0.470100
H171	H17	0.030900	0.184200	0.585600
H181	H18	0.629100	0.391800	0.410700
H191	H19	0.672100	0.461500	0.410700
H201	H20	0.693500	0.584900	0.311400
H211	H21	0.663900	0.598100	0.246000
H221	H22	0.262900	0.514900	0.215300
H231	H23	0.329700	0.429000	0.029900
H241	H24	0.315800	0.469100	0.914400
H251	H25	0.108200	0.870900	0.089300
H261	H26	0.038500	0.827900	0.089300
H271	H27	0.915100	0.806500	0.188600
H281	H28	0.901900	0.836100	0.254000
H291	H29	0.006900	0.262900	0.215300
H301	H30	0.211400	0.329700	0.029900
H311	H31	0.300700	0.315800	0.914400
H321	H32	0.931600	0.108200	0.089300
H331	H33	0.044300	0.038500	0.089300
H341	H34	0.089800	0.915100	0.188600
H351	H35	0.008000	0.901900	0.254000
H361	H36	0.514900	0.006900	0.215300
H371	H37	0.429000	0.211400	0.029900
H381	H38	0.469100	0.300700	0.914400
H391	H39	0.870900	0.931600	0.089300
H401	H40	0.827900	0.044300	0.089300
H411	H41	0.806500	0.089800	0.188600
H421	H42	0.836100	0.008000	0.254000
H431	H43	0.762900	0.506900	0.715300
H441	H44	0.829700	0.711400	0.529900
H451	H45	0.815800	0.800700	0.414400
H461	H46	0.608200	0.431600	0.589300
H471	H47	0.538500	0.544300	0.589300
H481	H48	0.415100	0.589800	0.688600
H491	H49	0.401900	0.508000	0.754000
H501	H50	0.506900	0.014900	0.715300
H511	H51	0.711400	0.929000	0.529900
H521	H52	0.800700	0.969100	0.414400
H531	H53	0.431600	0.370900	0.589300
H541	H54	0.544300	0.327900	0.589300
H551	H55	0.589800	0.306500	0.688600
H561	H56	0.508000	0.336100	0.754000
H571	H57	0.014900	0.762900	0.715300
H581	H58	0.929000	0.829700	0.529900
H591	H59	0.969100	0.815800	0.414400
H601	H60	0.370900	0.608200	0.589300
H611	H61	0.327900	0.538500	0.589300
H621	H62	0.306500	0.415100	0.688600
H631	H63	0.336100	0.401900	0.754000
H641	H64	0.737100	0.485100	0.784700
H651	H65	0.670300	0.571000	0.970100
H661	H66	0.684200	0.530900	0.085600
H671	H67	0.891800	0.129100	0.910700
H681	H68	0.961500	0.172100	0.910700
H691	H69	0.084900	0.193500	0.811400
H701	H70	0.098100	0.163900	0.746000
H711	H71	0.993100	0.737100	0.784700
H721	H72	0.788600	0.670300	0.970100
H731	H73	0.699300	0.684200	0.085600
H741	H74	0.068400	0.891800	0.910700
H751	H75	0.955700	0.961500	0.910700
H761	H76	0.910200	0.084900	0.811400
H771	H77	0.992000	0.098100	0.746000
H781	H78	0.485100	0.993100	0.784700
H791	H79	0.571000	0.788600	0.970100
H801	H80	0.530900	0.699300	0.085600
H811	H81	0.129100	0.068400	0.910700
H821	H82	0.172100	0.955700	0.910700
H831	H83	0.193500	0.910200	0.811400
H841	H84	0.163900	0.992000	0.746000
C11	C1	0.273110	0.405610	0.395370
C21	C2	0.262270	0.344970	0.464190
C31	C3	0.208470	0.291370	0.492390
C41	C4	0.216150	0.240450	0.558750
C51	C5	0.274520	0.256920	0.579840
C61	C6	0.298800	0.216300	0.646500
C71	C7	0.458690	0.522390	0.393630
C81	C8	0.581390	0.476990	0.295230
C91	C9	0.405610	0.925910	0.395370
C101	C10	0.344970	0.928570	0.464190
C111	C11	0.291370	0.007770	0.492390
C121	C12	0.240450	0.984650	0.558750
C131	C13	0.256920	0.888720	0.579840
C141	C14	0.216300	0.838400	0.646500
C151	C15	0.522390	0.625290	0.393630
C161	C16	0.476990	0.646390	0.295230
C171	C17	0.925910	0.273110	0.395370
C181	C18	0.928570	0.262270	0.464190
C191	C19	0.007770	0.208470	0.492390
C201	C20	0.984650	0.216150	0.558750
C211	C21	0.888720	0.274520	0.579840
C221	C22	0.838400	0.298800	0.646500
C231	C23	0.625290	0.458690	0.393630
C241	C24	0.646390	0.581390	0.295230
C251	C25	0.226890	0.574090	0.104630
C261	C26	0.237730	0.571430	0.035810
C271	C27	0.291530	0.492230	0.007610
C281	C28	0.283850	0.515350	0.941250
C291	C29	0.225480	0.611280	0.920160
C301	C30	0.201200	0.661600	0.853500
C311	C31	0.041310	0.874710	0.106370
C321	C32	0.918610	0.853610	0.204770
C331	C33	0.094390	0.226890	0.104630
C341	C34	0.155030	0.237730	0.035810
C351	C35	0.208630	0.291530	0.007610
C361	C36	0.259550	0.283850	0.941250
C371	C37	0.243080	0.225480	0.920160
C381	C38	0.283700	0.201200	0.853500
C391	C39	0.977610	0.041310	0.106370
C401	C40	0.023010	0.918610	0.204770
C411	C41	0.574090	0.094390	0.104630
C421	C42	0.571430	0.155030	0.035810
C431	C43	0.492230	0.208630	0.007610
C441	C44	0.515350	0.259550	0.941250
C451	C45	0.611280	0.243080	0.920160
C461	C46	0.661600	0.283700	0.853500
C471	C47	0.874710	0.977610	0.106370
C481	C48	0.853610	0.023010	0.204770
C491	C49	0.726890	0.594390	0.604630
C501	C50	0.737730	0.655030	0.535810
C511	C51	0.791530	0.708630	0.507610
C521	C52	0.783850	0.759550	0.441250
C531	C53	0.725480	0.743080	0.420160
C541	C54	0.701200	0.783700	0.353500
C551	C55	0.541310	0.477610	0.606370
C561	C56	0.418610	0.523010	0.704770
C571	C57	0.594390	0.074090	0.604630
C581	C58	0.655030	0.071430	0.535810
C591	C59	0.708630	0.992230	0.507610
C601	C60	0.759550	0.015350	0.441250
C611	C61	0.743080	0.111280	0.420160
C621	C62	0.783700	0.161600	0.353500
C631	C63	0.477610	0.374710	0.606370
C641	C64	0.523010	0.353610	0.704770
C651	C65	0.074090	0.726890	0.604630
C661	C66	0.071430	0.737730	0.535810
C671	C67	0.992230	0.791530	0.507610
C681	C68	0.015350	0.783850	0.441250
C691	C69	0.111280	0.725480	0.420160
C701	C70	0.161600	0.701200	0.353500
C711	C71	0.374710	0.541310	0.606370
C721	C72	0.353610	0.418610	0.704770
C731	C73	0.773110	0.425910	0.895370
C741	C74	0.762270	0.428570	0.964190
C751	C75	0.708470	0.507770	0.992390
C761	C76	0.716150	0.484650	0.058750
C771	C77	0.774520	0.388720	0.079840
C781	C78	0.798800	0.338400	0.146500
C791	C79	0.958690	0.125290	0.893630
C801	C80	0.081390	0.146390	0.795230
C811	C81	0.905610	0.773110	0.895370
C821	C82	0.844970	0.762270	0.964190
C831	C83	0.791370	0.708470	0.992390
C841	C84	0.740450	0.716150	0.058750
C851	C85	0.756920	0.774520	0.079840
C861	C86	0.716300	0.798800	0.146500
C871	C87	0.022390	0.958690	0.893630
C881	C88	0.976990	0.081390	0.795230
C891	C89	0.425910	0.905610	0.895370
C901	C90	0.428570	0.844970	0.964190
C911	C91	0.507770	0.791370	0.992390
C921	C92	0.484650	0.740450	0.058750
C931	C93	0.388720	0.756920	0.079840
C941	C94	0.338400	0.716300	0.146500
C951	C95	0.125290	0.022390	0.893630
C961	C96	0.146390	0.976990	0.795230
S11	S1	0.322760	0.332750	0.518460
S21	S2	0.332750	0.826030	0.518460
S31	S3	0.826030	0.322760	0.518460
S41	S4	0.177240	0.673970	0.981540
S51	S5	0.167250	0.177240	0.981540
S61	S6	0.673970	0.167250	0.981540
S71	S7	0.677240	0.667250	0.481540
S81	S8	0.667250	0.173970	0.481540
S91	S9	0.173970	0.677240	0.481540
S101	S10	0.822760	0.326030	0.018460
S111	S11	0.832750	0.822760	0.018460
S121	S12	0.326030	0.832750	0.018460
N11	N1	0.480830	0.547130	0.318810
N21	N2	0.547130	0.653230	0.318810
N31	N3	0.653230	0.480830	0.318810
N41	N4	0.019170	0.846770	0.181190
N51	N5	0.952870	0.019170	0.181190
N61	N6	0.846770	0.952870	0.181190
N71	N7	0.519170	0.452870	0.681190
N81	N8	0.452870	0.346770	0.681190
N91	N9	0.346770	0.519170	0.681190
N101	N10	0.980830	0.153230	0.818810
N111	N11	0.047130	0.980830	0.818810
N121	N12	0.153230	0.047130	0.818810
N131	N13	0.527440	0.527440	0.417680
N141	N14	0.972560	0.972560	0.082320
N151	N15	0.472560	0.472560	0.582320
N161	N16	0.027440	0.027440	0.917680
O11	O1	0.341670	0.432630	0.375690
O21	O2	0.215380	0.424380	0.362760
O31	O3	0.272890	0.149710	0.684570
O41	O4	0.343140	0.251380	0.658080
O51	O5	0.432630	0.850010	0.375690
O61	O6	0.424380	0.997480	0.362760
O71	O7	0.149710	0.892830	0.684570
O81	O8	0.251380	0.747400	0.658080
O91	O9	0.850010	0.341670	0.375690
O101	O10	0.997480	0.215380	0.362760
O111	O11	0.892830	0.272890	0.684570
O121	O12	0.747400	0.343140	0.658080
O131	O13	0.158330	0.649990	0.124310
O141	O14	0.284620	0.502520	0.137240
O151	O15	0.227110	0.607170	0.815430
O161	O16	0.156860	0.752600	0.841920
O171	O17	0.067370	0.158330	0.124310
O181	O18	0.075620	0.284620	0.137240
O191	O19	0.350290	0.227110	0.815430
O201	O20	0.248620	0.156860	0.841920
O211	O21	0.649990	0.067370	0.124310
O221	O22	0.502520	0.075620	0.137240
O231	O23	0.607170	0.350290	0.815430
O241	O24	0.752600	0.248620	0.841920
O251	O25	0.658330	0.567370	0.624310
O261	O26	0.784620	0.575620	0.637240
O271	O27	0.727110	0.850290	0.315430
O281	O28	0.656860	0.748620	0.341920
O291	O29	0.567370	0.149990	0.624310
O301	O30	0.575620	0.002520	0.637240
O311	O31	0.850290	0.107170	0.315430
O321	O32	0.748620	0.252600	0.341920
O331	O33	0.149990	0.658330	0.624310
O341	O34	0.002520	0.784620	0.637240
O351	O35	0.107170	0.727110	0.315430
O361	O36	0.252600	0.656860	0.341920
O371	O37	0.841670	0.350010	0.875690
O381	O38	0.715380	0.497480	0.862760
O391	O39	0.772890	0.392830	0.184570
O401	O40	0.843140	0.247400	0.158080
O411	O41	0.932630	0.841670	0.875690
O421	O42	0.924380	0.715380	0.862760
O431	O43	0.649710	0.772890	0.184570
O441	O44	0.751380	0.843140	0.158080
O451	O45	0.350010	0.932630	0.875690
O461	O46	0.497480	0.924380	0.862760
O471	O47	0.392830	0.649710	0.184570
O481	O48	0.247400	0.751380	0.158080
O491	O49	0.250000	0.535050	0.250000
O501	O50	0.535050	0.964950	0.250000
O511	O51	0.964950	0.250000	0.250000
O521	O52	0.750000	0.464950	0.750000
O531	O53	0.464950	0.035050	0.750000
O541	O54	0.035050	0.750000	0.750000
