data_KIDVIE_clean_PM
_symmetry_space_group_name_H-M	'P1'
_cell_length_a	10.016000
_cell_length_b	11.380000
_cell_length_c	12.821000
_cell_angle_alpha	80.390000
_cell_angle_beta	80.650000
_cell_angle_gamma	66.340000
_symmetry_Int_Tables_number 1

loop_
_symmetry_equiv_pos_as_xyz
'x,y,z'

loop_
_atom_site_label
_atom_site_type_symbol
_atom_site_fract_x
_atom_site_fract_y
_atom_site_fract_z
La11	La1	0.698620	0.891860	0.788180
La21	La2	0.380250	0.512110	0.749610
La31	La3	0.301380	0.108140	0.211820
La41	La4	0.619750	0.487890	0.250390
C11	C1	0.547000	0.676600	0.826500
C21	C2	0.519600	0.739800	0.716200
C31	C3	0.600100	0.206100	0.789300
C41	C4	0.508000	0.201800	0.713700
C51	C5	0.056700	0.736900	0.803400
C61	C6	0.020000	0.637900	0.759200
C71	C7	0.580000	0.465700	0.509800
C81	C8	0.432200	0.029800	0.966800
C91	C9	0.453000	0.323400	0.173500
C101	C10	0.480400	0.260200	0.283800
C111	C11	0.399900	0.793900	0.210700
C121	C12	0.492000	0.798200	0.286300
C131	C13	0.943300	0.263100	0.196600
C141	C14	0.980000	0.362100	0.240800
C151	C15	0.420000	0.534300	0.490200
C161	C16	0.567800	0.970200	0.033200
O11	O1	0.450600	0.698300	0.667600
O21	O2	0.565300	0.826500	0.681600
O31	O3	0.607600	0.717000	0.881000
O41	O4	0.509100	0.581100	0.862200
O51	O5	0.398200	0.300100	0.696200
O61	O6	0.580000	0.310500	0.826400
O71	O7	0.541500	0.092800	0.689100
O81	O8	0.711200	0.100300	0.818400
O91	O9	0.951400	0.840200	0.829100
O101	O10	0.888300	0.671900	0.748100
O111	O11	0.122200	0.536300	0.741700
O121	O12	0.186700	0.716500	0.806600
O131	O13	0.599400	0.439400	0.609700
O141	O14	0.677700	0.434400	0.435500
O151	O15	0.447700	0.008700	0.874900
O161	O16	0.315700	0.103400	0.015900
O171	O17	0.549400	0.301700	0.332400
O181	O18	0.434700	0.173500	0.318400
O191	O19	0.392400	0.283000	0.119000
O201	O20	0.490900	0.418900	0.137800
O211	O21	0.601800	0.699900	0.303800
O221	O22	0.420000	0.689500	0.173600
O231	O23	0.458500	0.907200	0.310900
O241	O24	0.288800	0.899700	0.181600
O251	O25	0.048600	0.159800	0.170900
O261	O26	0.111700	0.328100	0.251900
O271	O27	0.877800	0.463700	0.258300
O281	O28	0.813300	0.283500	0.193400
O291	O29	0.400600	0.560600	0.390300
O301	O30	0.322300	0.565600	0.564500
O311	O31	0.552300	0.991300	0.125100
O321	O32	0.684300	0.896600	0.984100
