data_KIFKAM_clean_PM
_symmetry_space_group_name_H-M	'P1'
_cell_length_a	8.977800
_cell_length_b	9.873000
_cell_length_c	17.253000
_cell_angle_alpha	90.000000
_cell_angle_beta	90.000000
_cell_angle_gamma	92.618000
_symmetry_Int_Tables_number 1

loop_
_symmetry_equiv_pos_as_xyz
'x,y,z'

loop_
_atom_site_label
_atom_site_type_symbol
_atom_site_fract_x
_atom_site_fract_y
_atom_site_fract_z
Mg11	Mg1	0.622290	0.397320	0.979900
Mg21	Mg2	0.877710	0.102680	0.479900
Mg31	Mg3	0.377710	0.602680	0.020100
Mg41	Mg4	0.122290	0.897320	0.520100
Mg51	Mg5	0.000000	0.500000	0.000000
Mg61	Mg6	0.500000	0.000000	0.500000
H11	H1	0.016500	0.707500	0.788300
H21	H2	0.009700	0.835600	0.674600
H31	H3	0.582600	0.700600	0.639100
H41	H4	0.589700	0.572400	0.752600
H51	H5	0.808000	0.983900	0.908100
H61	H6	0.038200	0.198000	0.073200
H71	H7	0.483500	0.792500	0.288300
H81	H8	0.490300	0.664400	0.174600
H91	H9	0.917400	0.799400	0.139100
H101	H10	0.910300	0.927600	0.252600
H111	H11	0.692000	0.516100	0.408100
H121	H12	0.461800	0.302000	0.573200
H131	H13	0.983500	0.292500	0.211700
H141	H14	0.990300	0.164400	0.325400
H151	H15	0.417400	0.299400	0.360900
H161	H16	0.410300	0.427600	0.247400
H171	H17	0.192000	0.016100	0.091900
H181	H18	0.961800	0.802000	0.926800
H191	H19	0.516500	0.207500	0.711700
H201	H20	0.509700	0.335600	0.825400
H211	H21	0.082600	0.200600	0.860900
H221	H22	0.089700	0.072400	0.747400
H231	H23	0.308000	0.483900	0.591900
H241	H24	0.538200	0.698000	0.426800
C11	C1	0.806800	0.553050	0.858040
C21	C2	0.803500	0.628810	0.782420
C31	C3	0.927860	0.706400	0.758210
C41	C4	0.924110	0.782510	0.690390
C51	C5	0.795520	0.780900	0.645930
C61	C6	0.670900	0.702300	0.669530
C71	C7	0.674900	0.626300	0.737150
C81	C8	0.783280	0.868010	0.575140
C91	C9	0.808280	0.223420	0.977720
C101	C10	0.909500	0.108540	0.988710
C111	C11	0.886000	0.990410	0.945310
C121	C12	0.022900	0.117600	0.043410
C131	C13	0.693200	0.946950	0.358040
C141	C14	0.696500	0.871190	0.282420
C151	C15	0.572140	0.793600	0.258210
C161	C16	0.575890	0.717490	0.190390
C171	C17	0.704480	0.719100	0.145930
C181	C18	0.829100	0.797700	0.169530
C191	C19	0.825100	0.873700	0.237150
C201	C20	0.716720	0.631990	0.075140
C211	C21	0.691720	0.276580	0.477720
C221	C22	0.590500	0.391460	0.488710
C231	C23	0.614000	0.509590	0.445310
C241	C24	0.477100	0.382400	0.543410
C251	C25	0.193200	0.446950	0.141960
C261	C26	0.196500	0.371190	0.217580
C271	C27	0.072140	0.293600	0.241790
C281	C28	0.075890	0.217490	0.309610
C291	C29	0.204480	0.219100	0.354070
C301	C30	0.329100	0.297700	0.330470
C311	C31	0.325100	0.373700	0.262850
C321	C32	0.216720	0.131990	0.424860
C331	C33	0.191720	0.776580	0.022280
C341	C34	0.090500	0.891460	0.011290
C351	C35	0.114000	0.009590	0.054690
C361	C36	0.977100	0.882400	0.956590
C371	C37	0.306800	0.053050	0.641960
C381	C38	0.303500	0.128810	0.717580
C391	C39	0.427860	0.206400	0.741790
C401	C40	0.424110	0.282510	0.809610
C411	C41	0.295520	0.280900	0.854070
C421	C42	0.170900	0.202300	0.830470
C431	C43	0.174900	0.126300	0.762850
C441	C44	0.283280	0.368010	0.924860
C451	C45	0.308280	0.723420	0.522280
C461	C46	0.409500	0.608540	0.511290
C471	C47	0.386000	0.490410	0.554690
C481	C48	0.522900	0.617600	0.456590
O11	O1	0.682190	0.507440	0.884360
O21	O2	0.930060	0.542600	0.889990
O31	O3	0.901650	0.928510	0.547790
O41	O4	0.657330	0.881850	0.547550
O51	O5	0.687450	0.205380	0.941800
O61	O6	0.842060	0.338530	0.008400
O71	O7	0.817810	0.992560	0.384360
O81	O8	0.569940	0.957400	0.389990
O91	O9	0.598350	0.571490	0.047790
O101	O10	0.842670	0.618150	0.047550
O111	O11	0.812550	0.294620	0.441800
O121	O12	0.657940	0.161470	0.508400
O131	O13	0.317810	0.492560	0.115640
O141	O14	0.069940	0.457400	0.110010
O151	O15	0.098350	0.071490	0.452210
O161	O16	0.342670	0.118150	0.452450
O171	O17	0.312550	0.794620	0.058200
O181	O18	0.157940	0.661470	0.991600
O191	O19	0.182190	0.007440	0.615640
O201	O20	0.430060	0.042600	0.610010
O211	O21	0.401650	0.428510	0.952210
O221	O22	0.157330	0.381850	0.952450
O231	O23	0.187450	0.705380	0.558200
O241	O24	0.342060	0.838530	0.491600
