data_KIFKEQ_clean_PM
_symmetry_space_group_name_H-M	'P1'
_cell_length_a	12.194800
_cell_length_b	13.783500
_cell_length_c	18.384000
_cell_angle_alpha	90.000000
_cell_angle_beta	90.000000
_cell_angle_gamma	113.960000
_symmetry_Int_Tables_number 1

loop_
_symmetry_equiv_pos_as_xyz
'x,y,z'

loop_
_atom_site_label
_atom_site_type_symbol
_atom_site_fract_x
_atom_site_fract_y
_atom_site_fract_z
Mg11	Mg1	0.680070	0.915830	0.520720
Mg21	Mg2	0.819930	0.084170	0.020720
Mg31	Mg3	0.319930	0.084170	0.479280
Mg41	Mg4	0.180070	0.915830	0.979280
Mg51	Mg5	0.000000	0.000000	0.500000
Mg61	Mg6	0.500000	0.000000	0.000000
H11	H1	0.658800	0.709800	0.698500
H21	H2	0.638100	0.565200	0.771900
H31	H3	0.948500	0.568800	0.690500
H41	H4	0.973300	0.718500	0.621300
H51	H5	0.588000	0.376100	0.757800
H61	H6	0.553800	0.220500	0.822000
H71	H7	0.906000	0.333000	0.874300
H81	H8	0.941900	0.487300	0.808100
H91	H9	0.000600	0.226700	0.554200
H101	H10	0.088900	0.411100	0.563200
H111	H11	0.841200	0.430000	0.424200
H121	H12	0.748400	0.245400	0.418800
H131	H13	0.841200	0.290200	0.198500
H141	H14	0.861900	0.434800	0.271900
H151	H15	0.551500	0.431200	0.190500
H161	H16	0.526700	0.281500	0.121300
H171	H17	0.912000	0.623900	0.257800
H181	H18	0.946200	0.779500	0.322000
H191	H19	0.594000	0.667000	0.374300
H201	H20	0.558100	0.512700	0.308100
H211	H21	0.499400	0.773300	0.054200
H221	H22	0.411100	0.588900	0.063200
H231	H23	0.658800	0.570000	0.924200
H241	H24	0.751600	0.754600	0.918800
H251	H25	0.341200	0.290200	0.301500
H261	H26	0.361900	0.434800	0.228100
H271	H27	0.051500	0.431200	0.309500
H281	H28	0.026700	0.281500	0.378700
H291	H29	0.412000	0.623900	0.242200
H301	H30	0.446200	0.779500	0.178000
H311	H31	0.094000	0.667000	0.125700
H321	H32	0.058100	0.512700	0.191900
H331	H33	0.999400	0.773300	0.445800
H341	H34	0.911100	0.588900	0.436800
H351	H35	0.158800	0.570000	0.575800
H361	H36	0.251600	0.754600	0.581200
H371	H37	0.158800	0.709800	0.801500
H381	H38	0.138100	0.565200	0.728100
H391	H39	0.448500	0.568800	0.809500
H401	H40	0.473300	0.718500	0.878700
H411	H41	0.088000	0.376100	0.742200
H421	H42	0.053800	0.220500	0.678000
H431	H43	0.406000	0.333000	0.625700
H441	H44	0.441900	0.487300	0.691900
H451	H45	0.500600	0.226700	0.945800
H461	H46	0.588900	0.411100	0.936800
H471	H47	0.341200	0.430000	0.075800
H481	H48	0.248400	0.245400	0.081200
C11	C1	0.826990	0.818540	0.601490
C21	C2	0.817010	0.727540	0.651190
C31	C3	0.717970	0.681530	0.696810
C41	C4	0.704970	0.594370	0.740050
C51	C5	0.788950	0.549300	0.737140
C61	C6	0.889300	0.597120	0.692410
C71	C7	0.903660	0.686040	0.650520
C81	C8	0.768510	0.449970	0.777710
C91	C9	0.652920	0.368140	0.781710
C101	C10	0.632350	0.275340	0.820350
C111	C11	0.725630	0.262130	0.856480
C121	C12	0.841120	0.341800	0.851010
C131	C13	0.862420	0.434260	0.811770
C141	C14	0.701960	0.166650	0.904950
C151	C15	0.803350	0.099490	0.486590
C161	C16	0.864870	0.217640	0.486660
C171	C17	0.966680	0.267790	0.528720
C181	C18	0.019510	0.377970	0.533840
C191	C19	0.972480	0.441050	0.496520
C201	C20	0.872490	0.389100	0.452170
C211	C21	0.817880	0.278930	0.448020
C221	C22	0.673010	0.181460	0.101490
C231	C23	0.682990	0.272460	0.151190
C241	C24	0.782030	0.318470	0.196810
C251	C25	0.795030	0.405630	0.240050
C261	C26	0.711050	0.450700	0.237140
C271	C27	0.610700	0.402880	0.192410
C281	C28	0.596340	0.313960	0.150520
C291	C29	0.731490	0.550030	0.277710
C301	C30	0.847080	0.631860	0.281710
C311	C31	0.867650	0.724660	0.320350
C321	C32	0.774370	0.737870	0.356480
C331	C33	0.658880	0.658200	0.351010
C341	C34	0.637580	0.565740	0.311770
C351	C35	0.798040	0.833350	0.404950
C361	C36	0.696650	0.900510	0.986590
C371	C37	0.635130	0.782360	0.986660
C381	C38	0.533320	0.732210	0.028720
C391	C39	0.480490	0.622030	0.033840
C401	C40	0.527520	0.558950	0.996520
C411	C41	0.627510	0.610900	0.952170
C421	C42	0.682120	0.721070	0.948020
C431	C43	0.173010	0.181460	0.398510
C441	C44	0.182990	0.272460	0.348810
C451	C45	0.282030	0.318470	0.303190
C461	C46	0.295030	0.405630	0.259950
C471	C47	0.211050	0.450700	0.262860
C481	C48	0.110700	0.402880	0.307590
C491	C49	0.096340	0.313960	0.349480
C501	C50	0.231490	0.550030	0.222290
C511	C51	0.347080	0.631860	0.218290
C521	C52	0.367650	0.724660	0.179650
C531	C53	0.274370	0.737870	0.143520
C541	C54	0.158880	0.658200	0.148990
C551	C55	0.137580	0.565740	0.188230
C561	C56	0.298040	0.833350	0.095050
C571	C57	0.196650	0.900510	0.513410
C581	C58	0.135130	0.782360	0.513340
C591	C59	0.033320	0.732210	0.471280
C601	C60	0.980490	0.622030	0.466160
C611	C61	0.027520	0.558950	0.503480
C621	C62	0.127510	0.610900	0.547830
C631	C63	0.182120	0.721070	0.551980
C641	C64	0.326990	0.818540	0.898510
C651	C65	0.317010	0.727540	0.848810
C661	C66	0.217970	0.681530	0.803190
C671	C67	0.204970	0.594370	0.759950
C681	C68	0.288950	0.549300	0.762860
C691	C69	0.389300	0.597120	0.807590
C701	C70	0.403660	0.686040	0.849480
C711	C71	0.268510	0.449970	0.722290
C721	C72	0.152920	0.368140	0.718290
C731	C73	0.132350	0.275340	0.679650
C741	C74	0.225630	0.262130	0.643520
C751	C75	0.341120	0.341800	0.648990
C761	C76	0.362420	0.434260	0.688230
C771	C77	0.201960	0.166650	0.595050
C781	C78	0.303350	0.099490	0.013410
C791	C79	0.364870	0.217640	0.013340
C801	C80	0.466680	0.267790	0.971280
C811	C81	0.519510	0.377970	0.966160
C821	C82	0.472480	0.441050	0.003480
C831	C83	0.372490	0.389100	0.047830
C841	C84	0.317880	0.278930	0.051980
O11	O1	0.928450	0.876940	0.576840
O21	O2	0.729600	0.826220	0.588450
O31	O3	0.594180	0.106210	0.917310
O41	O4	0.793110	0.157510	0.930000
O51	O5	0.697540	0.055750	0.464140
O61	O6	0.856290	0.045000	0.514470
O71	O7	0.571550	0.123060	0.076840
O81	O8	0.770400	0.173780	0.088450
O91	O9	0.905820	0.893790	0.417310
O101	O10	0.706890	0.842490	0.430000
O111	O11	0.802460	0.944250	0.964140
O121	O12	0.643710	0.955000	0.014470
O131	O13	0.071550	0.123060	0.423160
O141	O14	0.270400	0.173780	0.411550
O151	O15	0.405820	0.893790	0.082690
O161	O16	0.206890	0.842490	0.070000
O171	O17	0.302460	0.944250	0.535860
O181	O18	0.143710	0.955000	0.485530
O191	O19	0.428450	0.876940	0.923160
O201	O20	0.229600	0.826220	0.911550
O211	O21	0.094180	0.106210	0.582690
O221	O22	0.293110	0.157510	0.570000
O231	O23	0.197540	0.055750	0.035860
O241	O24	0.356290	0.045000	0.985530
