data_KIFWUT_clean_PM
_symmetry_space_group_name_H-M	'P1'
_cell_length_a	10.441000
_cell_length_b	17.571100
_cell_length_c	17.571100
_cell_angle_alpha	115.282000
_cell_angle_beta	96.330100
_cell_angle_gamma	83.669900
_symmetry_Int_Tables_number 1

loop_
_symmetry_equiv_pos_as_xyz
'x,y,z'

loop_
_atom_site_label
_atom_site_type_symbol
_atom_site_fract_x
_atom_site_fract_y
_atom_site_fract_z
Co11	Co1	0.511330	0.212190	0.044650
Co21	Co2	0.988670	0.044650	0.212190
Co31	Co3	0.488670	0.787810	0.955350
Co41	Co4	0.011330	0.955350	0.787810
Co51	Co5	0.750000	0.234790	0.234790
Co61	Co6	0.250000	0.765210	0.765210
H11	H1	0.850700	0.352900	0.484700
H21	H2	0.891900	0.410600	0.628800
H31	H3	0.168800	0.232600	0.607800
H41	H4	0.129500	0.174500	0.462900
H51	H5	0.999100	0.240200	0.723000
H61	H6	0.076100	0.183300	0.816900
H71	H7	0.338000	0.356500	0.915300
H81	H8	0.258300	0.413100	0.821100
H91	H9	0.516400	0.380700	0.039700
H101	H10	0.632700	0.458200	0.999200
H111	H11	0.910100	0.269500	0.936700
H121	H12	0.786200	0.196900	0.978900
H131	H13	0.945700	0.398400	0.918200
H141	H14	0.787600	0.615400	0.915200
H151	H15	0.841200	0.736800	0.884000
H161	H16	0.090400	0.535700	0.827700
H171	H17	0.224100	0.601900	0.785700
H181	H18	0.982300	0.796900	0.838500
H191	H19	0.649300	0.484700	0.352900
H201	H20	0.608100	0.628800	0.410600
H211	H21	0.331200	0.607800	0.232600
H221	H22	0.370500	0.462900	0.174500
H231	H23	0.500900	0.723000	0.240200
H241	H24	0.423900	0.816900	0.183300
H251	H25	0.162000	0.915300	0.356500
H261	H26	0.241700	0.821100	0.413100
H271	H27	0.983600	0.039700	0.380700
H281	H28	0.867300	0.999200	0.458200
H291	H29	0.589900	0.936700	0.269500
H301	H30	0.713800	0.978900	0.196900
H311	H31	0.554300	0.918200	0.398400
H321	H32	0.712400	0.915200	0.615400
H331	H33	0.658800	0.884000	0.736800
H341	H34	0.409600	0.827700	0.535700
H351	H35	0.275900	0.785700	0.601900
H361	H36	0.517700	0.838500	0.796900
H371	H37	0.149300	0.647100	0.515300
H381	H38	0.108100	0.589400	0.371200
H391	H39	0.831200	0.767400	0.392200
H401	H40	0.870500	0.825500	0.537100
H411	H41	0.000900	0.759800	0.277000
H421	H42	0.923900	0.816700	0.183100
H431	H43	0.662000	0.643500	0.084700
H441	H44	0.741700	0.586900	0.178900
H451	H45	0.483600	0.619300	0.960300
H461	H46	0.367300	0.541800	0.000800
H471	H47	0.089900	0.730500	0.063300
H481	H48	0.213800	0.803100	0.021100
H491	H49	0.054300	0.601600	0.081800
H501	H50	0.212400	0.384600	0.084800
H511	H51	0.158800	0.263200	0.116000
H521	H52	0.909600	0.464300	0.172300
H531	H53	0.775900	0.398100	0.214300
H541	H54	0.017700	0.203100	0.161500
H551	H55	0.350700	0.515300	0.647100
H561	H56	0.391900	0.371200	0.589400
H571	H57	0.668800	0.392200	0.767400
H581	H58	0.629500	0.537100	0.825500
H591	H59	0.499100	0.277000	0.759800
H601	H60	0.576100	0.183100	0.816700
H611	H61	0.838000	0.084700	0.643500
H621	H62	0.758300	0.178900	0.586900
H631	H63	0.016400	0.960300	0.619300
H641	H64	0.132700	0.000800	0.541800
H651	H65	0.410100	0.063300	0.730500
H661	H66	0.286200	0.021100	0.803100
H671	H67	0.445700	0.081800	0.601600
H681	H68	0.287600	0.084800	0.384600
H691	H69	0.341200	0.116000	0.263200
H701	H70	0.590400	0.172300	0.464300
H711	H71	0.724100	0.214300	0.398100
H721	H72	0.482300	0.161500	0.203100
C11	C1	0.963000	0.221720	0.363280
C21	C2	0.992900	0.260100	0.456500
C31	C3	0.918600	0.329460	0.508540
C41	C4	0.943200	0.364400	0.594800
C51	C5	0.107700	0.259000	0.582800
C61	C6	0.083000	0.224060	0.495540
C71	C7	0.043000	0.330690	0.629910
C81	C8	0.119400	0.331970	0.764830
C91	C9	0.066900	0.263800	0.762400
C101	C10	0.113500	0.229320	0.817880
C111	C11	0.216700	0.263780	0.875620
C121	C12	0.269500	0.332820	0.876580
C131	C13	0.221700	0.367040	0.820760
C141	C14	0.269200	0.229220	0.938580
C151	C15	0.596500	0.358000	0.018400
C161	C16	0.665800	0.405050	0.994150
C171	C17	0.785500	0.372820	0.962180
C181	C18	0.830000	0.293260	0.957140
C191	C19	0.754800	0.249920	0.982680
C201	C20	0.862500	0.419740	0.934260
C211	C21	0.868500	0.590130	0.897470
C221	C22	0.952500	0.630060	0.864740
C231	C23	0.920000	0.708260	0.865340
C241	C24	0.066700	0.590030	0.832370
C251	C25	0.146400	0.630330	0.806870
C261	C26	0.006000	0.744050	0.837750
C271	C27	0.537000	0.363280	0.221720
C281	C28	0.507100	0.456500	0.260100
C291	C29	0.581400	0.508540	0.329460
C301	C30	0.556800	0.594800	0.364400
C311	C31	0.392300	0.582800	0.259000
C321	C32	0.417000	0.495540	0.224060
C331	C33	0.457000	0.629910	0.330690
C341	C34	0.380600	0.764830	0.331970
C351	C35	0.433100	0.762400	0.263800
C361	C36	0.386500	0.817880	0.229320
C371	C37	0.283300	0.875620	0.263780
C381	C38	0.230500	0.876580	0.332820
C391	C39	0.278300	0.820760	0.367040
C401	C40	0.230800	0.938580	0.229220
C411	C41	0.903500	0.018400	0.358000
C421	C42	0.834200	0.994150	0.405050
C431	C43	0.714500	0.962180	0.372820
C441	C44	0.670000	0.957140	0.293260
C451	C45	0.745200	0.982680	0.249920
C461	C46	0.637500	0.934260	0.419740
C471	C47	0.631500	0.897470	0.590130
C481	C48	0.547500	0.864740	0.630060
C491	C49	0.580000	0.865340	0.708260
C501	C50	0.433300	0.832370	0.590030
C511	C51	0.353600	0.806870	0.630330
C521	C52	0.494000	0.837750	0.744050
C531	C53	0.037000	0.778280	0.636720
C541	C54	0.007100	0.739900	0.543500
C551	C55	0.081400	0.670540	0.491460
C561	C56	0.056800	0.635600	0.405200
C571	C57	0.892300	0.741000	0.417200
C581	C58	0.917000	0.775940	0.504460
C591	C59	0.957000	0.669310	0.370090
C601	C60	0.880600	0.668030	0.235170
C611	C61	0.933100	0.736200	0.237600
C621	C62	0.886500	0.770680	0.182120
C631	C63	0.783300	0.736220	0.124380
C641	C64	0.730500	0.667180	0.123420
C651	C65	0.778300	0.632960	0.179240
C661	C66	0.730800	0.770780	0.061420
C671	C67	0.403500	0.642000	0.981600
C681	C68	0.334200	0.594950	0.005850
C691	C69	0.214500	0.627180	0.037820
C701	C70	0.170000	0.706740	0.042860
C711	C71	0.245200	0.750080	0.017320
C721	C72	0.137500	0.580260	0.065740
C731	C73	0.131500	0.409870	0.102530
C741	C74	0.047500	0.369940	0.135260
C751	C75	0.080000	0.291740	0.134660
C761	C76	0.933300	0.409970	0.167630
C771	C77	0.853600	0.369670	0.193130
C781	C78	0.994000	0.255950	0.162250
C791	C79	0.463000	0.636720	0.778280
C801	C80	0.492900	0.543500	0.739900
C811	C81	0.418600	0.491460	0.670540
C821	C82	0.443200	0.405200	0.635600
C831	C83	0.607700	0.417200	0.741000
C841	C84	0.583000	0.504460	0.775940
C851	C85	0.543000	0.370090	0.669310
C861	C86	0.619400	0.235170	0.668030
C871	C87	0.566900	0.237600	0.736200
C881	C88	0.613500	0.182120	0.770680
C891	C89	0.716700	0.124380	0.736220
C901	C90	0.769500	0.123420	0.667180
C911	C91	0.721700	0.179240	0.632960
C921	C92	0.769200	0.061420	0.770780
C931	C93	0.096500	0.981600	0.642000
C941	C94	0.165800	0.005850	0.594950
C951	C95	0.285500	0.037820	0.627180
C961	C96	0.330000	0.042860	0.706740
C971	C97	0.254800	0.017320	0.750080
C981	C98	0.362500	0.065740	0.580260
C991	C99	0.368500	0.102530	0.409870
C1001	C100	0.452500	0.135260	0.369940
C1011	C101	0.420000	0.134660	0.291740
C1021	C102	0.566700	0.167630	0.409970
C1031	C103	0.646400	0.193130	0.369670
C1041	C104	0.506000	0.162250	0.255950
S11	S1	0.750000	0.084290	0.084290
S21	S2	0.250000	0.915710	0.915710
N11	N1	0.639100	0.280540	0.012720
N21	N2	0.818300	0.488720	0.931280
N31	N3	0.908600	0.521020	0.900780
N41	N4	0.119500	0.707580	0.810440
N51	N5	0.860900	0.012720	0.280540
N61	N6	0.681700	0.931280	0.488720
N71	N7	0.591400	0.900780	0.521020
N81	N8	0.380500	0.810440	0.707580
N91	N9	0.360900	0.719460	0.987280
N101	N10	0.181700	0.511280	0.068720
N111	N11	0.091400	0.478980	0.099220
N121	N12	0.880500	0.292420	0.189560
N131	N13	0.139100	0.987280	0.719460
N141	N14	0.318300	0.068720	0.511280
N151	N15	0.408600	0.099220	0.478980
N161	N16	0.619500	0.189560	0.292420
O11	O1	0.368100	0.260080	0.982960
O21	O2	0.212600	0.173140	0.945160
O31	O3	0.067200	0.374970	0.716470
O41	O4	0.671400	0.166920	0.103760
O51	O5	0.833900	0.066330	0.017650
O61	O6	0.874300	0.260340	0.336120
O71	O7	0.023400	0.153540	0.319400
O81	O8	0.131900	0.982960	0.260080
O91	O9	0.287400	0.945160	0.173140
O101	O10	0.432800	0.716470	0.374970
O111	O11	0.828600	0.103760	0.166920
O121	O12	0.666100	0.017650	0.066330
O131	O13	0.625700	0.336120	0.260340
O141	O14	0.476600	0.319400	0.153540
O151	O15	0.631900	0.739920	0.017040
O161	O16	0.787400	0.826860	0.054840
O171	O17	0.932800	0.625030	0.283530
O181	O18	0.328600	0.833080	0.896240
O191	O19	0.166100	0.933670	0.982350
O201	O20	0.125700	0.739660	0.663880
O211	O21	0.976600	0.846460	0.680600
O221	O22	0.868100	0.017040	0.739920
O231	O23	0.712600	0.054840	0.826860
O241	O24	0.567200	0.283530	0.625030
O251	O25	0.171400	0.896240	0.833080
O261	O26	0.333900	0.982350	0.933670
O271	O27	0.374300	0.663880	0.739660
O281	O28	0.523400	0.680600	0.846460
