data_KIGCEK_clean_PM
_symmetry_space_group_name_H-M	'P1'
_cell_length_a	10.435000
_cell_length_b	17.480700
_cell_length_c	17.480700
_cell_angle_alpha	120.000000
_cell_angle_beta	90.000000
_cell_angle_gamma	90.000000
_symmetry_Int_Tables_number 1

loop_
_symmetry_equiv_pos_as_xyz
'x,y,z'

loop_
_atom_site_label
_atom_site_type_symbol
_atom_site_fract_x
_atom_site_fract_y
_atom_site_fract_z
Zn11	Zn1	0.912010	0.535190	0.071260
Zn21	Zn2	0.578680	0.536070	0.464810
Zn31	Zn3	0.245340	0.928740	0.463930
Zn41	Zn4	0.412010	0.464810	0.928740
Zn51	Zn5	0.078680	0.463930	0.535190
Zn61	Zn6	0.745340	0.071260	0.536070
H11	H1	0.925800	0.347500	0.926400
H21	H2	0.009000	0.470000	0.919300
H31	H3	0.203700	0.469500	0.692400
H41	H4	0.166400	0.516800	0.838600
H51	H5	0.824600	0.607500	0.816300
H61	H6	0.873000	0.561000	0.671000
H71	H7	0.028700	0.620700	0.975800
H81	H8	0.882100	0.623700	0.957200
H91	H9	0.808900	0.473600	0.845300
H101	H10	0.781900	0.317500	0.821000
H111	H11	0.901000	0.369200	0.726600
H121	H12	0.893800	0.269300	0.700000
H131	H13	0.014400	0.325700	0.750000
H141	H14	0.592470	0.578900	0.652500
H151	H15	0.675670	0.449300	0.530000
H161	H16	0.870370	0.222900	0.530500
H171	H17	0.833070	0.321800	0.483200
H181	H18	0.491270	0.208800	0.392500
H191	H19	0.539670	0.110000	0.439000
H201	H20	0.695370	0.355100	0.379300
H211	H21	0.548770	0.333500	0.376300
H221	H22	0.475570	0.371700	0.526400
H231	H23	0.448570	0.503500	0.682500
H241	H24	0.567670	0.357400	0.630800
H251	H25	0.560470	0.430700	0.730700
H261	H26	0.681070	0.424300	0.674300
H271	H27	0.259130	0.073600	0.421100
H281	H28	0.342330	0.080700	0.550700
H291	H29	0.537030	0.307600	0.777100
H301	H30	0.499730	0.161400	0.678200
H311	H31	0.157930	0.183700	0.791200
H321	H32	0.206330	0.329000	0.890000
H331	H33	0.362030	0.024200	0.644900
H341	H34	0.215430	0.042800	0.666500
H351	H35	0.142230	0.154700	0.628300
H361	H36	0.115230	0.179000	0.496500
H371	H37	0.234330	0.273400	0.642600
H381	H38	0.227130	0.300000	0.569300
H391	H39	0.347730	0.250000	0.575700
H401	H40	0.425800	0.652500	0.073600
H411	H41	0.509000	0.530000	0.080700
H421	H42	0.703700	0.530500	0.307600
H431	H43	0.666400	0.483200	0.161400
H441	H44	0.324600	0.392500	0.183700
H451	H45	0.373000	0.439000	0.329000
H461	H46	0.528700	0.379300	0.024200
H471	H47	0.382100	0.376300	0.042800
H481	H48	0.308900	0.526400	0.154700
H491	H49	0.281900	0.682500	0.179000
H501	H50	0.401000	0.630800	0.273400
H511	H51	0.393800	0.730700	0.300000
H521	H52	0.514400	0.674300	0.250000
H531	H53	0.092470	0.421100	0.347500
H541	H54	0.175670	0.550700	0.470000
H551	H55	0.370370	0.777100	0.469500
H561	H56	0.333070	0.678200	0.516800
H571	H57	0.991270	0.791200	0.607500
H581	H58	0.039670	0.890000	0.561000
H591	H59	0.195370	0.644900	0.620700
H601	H60	0.048770	0.666500	0.623700
H611	H61	0.975570	0.628300	0.473600
H621	H62	0.948570	0.496500	0.317500
H631	H63	0.067670	0.642600	0.369200
H641	H64	0.060470	0.569300	0.269300
H651	H65	0.181070	0.575700	0.325700
H661	H66	0.759130	0.926400	0.578900
H671	H67	0.842330	0.919300	0.449300
H681	H68	0.037030	0.692400	0.222900
H691	H69	0.999730	0.838600	0.321800
H701	H70	0.657930	0.816300	0.208800
H711	H71	0.706330	0.671000	0.110000
H721	H72	0.862030	0.975800	0.355100
H731	H73	0.715430	0.957200	0.333500
H741	H74	0.642230	0.845300	0.371700
H751	H75	0.615230	0.821000	0.503500
H761	H76	0.734330	0.726600	0.357400
H771	H77	0.727130	0.700000	0.430700
H781	H78	0.847730	0.750000	0.424300
C11	C1	0.126400	0.497400	0.717500
C21	C2	0.104300	0.525200	0.805300
C31	C3	0.989200	0.565700	0.844000
C41	C4	0.902200	0.579400	0.792600
C51	C5	0.931800	0.550700	0.704800
C61	C6	0.958600	0.587400	0.937000
C71	C7	0.828100	0.452900	0.886900
C81	C8	0.708900	0.468900	0.943900
C91	C9	0.860300	0.352200	0.831200
C101	C10	0.923100	0.326800	0.744100
C111	C11	0.793070	0.220100	0.502600
C121	C12	0.770970	0.280100	0.474800
C131	C13	0.655870	0.278300	0.434300
C141	C14	0.568870	0.213200	0.420600
C151	C15	0.598470	0.154100	0.449300
C161	C16	0.625270	0.349600	0.412600
C171	C17	0.494770	0.434000	0.547100
C181	C18	0.375570	0.475000	0.531100
C191	C19	0.526970	0.479000	0.647800
C201	C20	0.589770	0.417300	0.673200
C211	C21	0.459730	0.282500	0.779900
C221	C22	0.437630	0.194700	0.719900
C231	C23	0.322530	0.156000	0.721700
C241	C24	0.235530	0.207400	0.786800
C251	C25	0.265130	0.295200	0.845900
C261	C26	0.291930	0.063000	0.650400
C271	C27	0.161430	0.113100	0.566000
C281	C28	0.042230	0.056100	0.525000
C291	C29	0.193630	0.168800	0.521000
C301	C30	0.256430	0.255900	0.582700
C311	C31	0.626400	0.502600	0.282500
C321	C32	0.604300	0.474800	0.194700
C331	C33	0.489200	0.434300	0.156000
C341	C34	0.402200	0.420600	0.207400
C351	C35	0.431800	0.449300	0.295200
C361	C36	0.458600	0.412600	0.063000
C371	C37	0.328100	0.547100	0.113100
C381	C38	0.208900	0.531100	0.056100
C391	C39	0.360300	0.647800	0.168800
C401	C40	0.423100	0.673200	0.255900
C411	C41	0.293070	0.779900	0.497400
C421	C42	0.270970	0.719900	0.525200
C431	C43	0.155870	0.721700	0.565700
C441	C44	0.068870	0.786800	0.579400
C451	C45	0.098470	0.845900	0.550700
C461	C46	0.125270	0.650400	0.587400
C471	C47	0.994770	0.566000	0.452900
C481	C48	0.875570	0.525000	0.468900
C491	C49	0.026970	0.521000	0.352200
C501	C50	0.089770	0.582700	0.326800
C511	C51	0.959730	0.717500	0.220100
C521	C52	0.937630	0.805300	0.280100
C531	C53	0.822530	0.844000	0.278300
C541	C54	0.735530	0.792600	0.213200
C551	C55	0.765130	0.704800	0.154100
C561	C56	0.791930	0.937000	0.349600
C571	C57	0.661430	0.886900	0.434000
C581	C58	0.542230	0.943900	0.475000
C591	C59	0.693630	0.831200	0.479000
C601	C60	0.756430	0.744100	0.417300
N11	N1	0.041000	0.508800	0.666500
N21	N2	0.937500	0.504000	0.940600
N31	N3	0.707670	0.157700	0.491200
N41	N4	0.604170	0.436600	0.496000
N51	N5	0.374330	0.333500	0.842300
N61	N6	0.270830	0.059400	0.563400
N71	N7	0.541000	0.491200	0.333500
N81	N8	0.437500	0.496000	0.059400
N91	N9	0.207670	0.842300	0.508800
N101	N10	0.104170	0.563400	0.504000
N111	N11	0.874330	0.666500	0.157700
N121	N12	0.770830	0.940600	0.436600
O11	O1	0.719100	0.509500	0.025900
O21	O2	0.606900	0.439500	0.901000
O31	O3	0.949800	0.329300	0.875400
O41	O4	0.385770	0.516400	0.490500
O51	O5	0.273570	0.461500	0.560500
O61	O6	0.616470	0.546100	0.670700
O71	O7	0.052430	0.974100	0.483600
O81	O8	0.940230	0.099000	0.538500
O91	O9	0.283130	0.124600	0.453900
O101	O10	0.219100	0.490500	0.974100
O111	O11	0.106900	0.560500	0.099000
O121	O12	0.449800	0.670700	0.124600
O131	O13	0.885770	0.483600	0.509500
O141	O14	0.773570	0.538500	0.439500
O151	O15	0.116470	0.453900	0.329300
O161	O16	0.552430	0.025900	0.516400
O171	O17	0.440230	0.901000	0.461500
O181	O18	0.783130	0.875400	0.546100
