data_KIHTOL_clean_PM
_symmetry_space_group_name_H-M	'P1'
_cell_length_a	8.952900
_cell_length_b	12.220300
_cell_length_c	16.733800
_cell_angle_alpha	90.000000
_cell_angle_beta	90.000000
_cell_angle_gamma	110.009000
_symmetry_Int_Tables_number 1

loop_
_symmetry_equiv_pos_as_xyz
'x,y,z'

loop_
_atom_site_label
_atom_site_type_symbol
_atom_site_fract_x
_atom_site_fract_y
_atom_site_fract_z
Nd11	Nd1	0.563670	0.047730	0.883030
Nd21	Nd2	0.936330	0.952270	0.383030
Nd31	Nd3	0.436330	0.952270	0.116970
Nd41	Nd4	0.063670	0.047730	0.616970
H11	H1	0.088100	0.274100	0.822200
H21	H2	0.169900	0.179900	0.833500
H31	H3	0.404800	0.345600	0.805000
H41	H4	0.596700	0.524800	0.772900
H51	H5	0.366400	0.531000	0.568000
H61	H6	0.174100	0.357000	0.603100
H71	H7	0.526200	0.709700	0.565400
H81	H8	0.621800	0.632900	0.532900
H91	H9	0.872000	0.862800	0.983400
H101	H10	0.732700	0.794400	0.926300
H111	H11	0.504700	0.660800	0.926000
H121	H12	0.708500	0.510200	0.083100
H131	H13	0.411900	0.725900	0.322200
H141	H14	0.330100	0.820100	0.333500
H151	H15	0.095200	0.654400	0.305000
H161	H16	0.903300	0.475200	0.272900
H171	H17	0.133600	0.469000	0.068000
H181	H18	0.325900	0.643000	0.103100
H191	H19	0.973800	0.290300	0.065400
H201	H20	0.878200	0.367100	0.032900
H211	H21	0.628000	0.137200	0.483400
H221	H22	0.767300	0.205600	0.426300
H231	H23	0.995300	0.339200	0.426000
H241	H24	0.791500	0.489800	0.583100
H251	H25	0.911900	0.725900	0.177800
H261	H26	0.830100	0.820100	0.166500
H271	H27	0.595200	0.654400	0.195000
H281	H28	0.403300	0.475200	0.227100
H291	H29	0.633600	0.469000	0.432000
H301	H30	0.825900	0.643000	0.396900
H311	H31	0.473800	0.290300	0.434600
H321	H32	0.378200	0.367100	0.467100
H331	H33	0.128000	0.137200	0.016600
H341	H34	0.267300	0.205600	0.073700
H351	H35	0.495300	0.339200	0.074000
H361	H36	0.291500	0.489800	0.916900
H371	H37	0.588100	0.274100	0.677800
H381	H38	0.669900	0.179900	0.666500
H391	H39	0.904800	0.345600	0.695000
H401	H40	0.096700	0.524800	0.727100
H411	H41	0.866400	0.531000	0.932000
H421	H42	0.674100	0.357000	0.896900
H431	H43	0.026200	0.709700	0.934600
H441	H44	0.121800	0.632900	0.967100
H451	H45	0.372000	0.862800	0.516600
H461	H46	0.232700	0.794400	0.573700
H471	H47	0.004700	0.660800	0.574000
H481	H48	0.208500	0.510200	0.416900
C11	C1	0.938100	0.109000	0.797500
C21	C2	0.097900	0.203600	0.800000
C31	C3	0.275400	0.335200	0.705500
C41	C4	0.398100	0.383200	0.757500
C51	C5	0.513500	0.490000	0.737800
C61	C6	0.504600	0.544100	0.666600
C71	C7	0.375200	0.494200	0.615500
C81	C8	0.261200	0.390200	0.636300
C91	C9	0.623100	0.691900	0.571900
C101	C10	0.766400	0.801900	0.555900
C111	C11	0.655500	0.858700	0.024500
C121	C12	0.764600	0.807000	0.981900
C131	C13	0.629600	0.602200	0.006200
C141	C14	0.503200	0.596200	0.955800
C151	C15	0.624300	0.506400	0.049400
C161	C16	0.561900	0.891000	0.297500
C171	C17	0.402100	0.796400	0.300000
C181	C18	0.224600	0.664800	0.205500
C191	C19	0.101900	0.616800	0.257500
C201	C20	0.986500	0.510000	0.237800
C211	C21	0.995400	0.455900	0.166600
C221	C22	0.124800	0.505800	0.115500
C231	C23	0.238800	0.609800	0.136300
C241	C24	0.876900	0.308100	0.071900
C251	C25	0.733600	0.198100	0.055900
C261	C26	0.844500	0.141300	0.524500
C271	C27	0.735400	0.193000	0.481900
C281	C28	0.870400	0.397800	0.506200
C291	C29	0.996800	0.403800	0.455800
C301	C30	0.875700	0.493600	0.549400
C311	C31	0.061900	0.891000	0.202500
C321	C32	0.902100	0.796400	0.200000
C331	C33	0.724600	0.664800	0.294500
C341	C34	0.601900	0.616800	0.242500
C351	C35	0.486500	0.510000	0.262200
C361	C36	0.495400	0.455900	0.333400
C371	C37	0.624800	0.505800	0.384500
C381	C38	0.738800	0.609800	0.363700
C391	C39	0.376900	0.308100	0.428100
C401	C40	0.233600	0.198100	0.444100
C411	C41	0.344500	0.141300	0.975500
C421	C42	0.235400	0.193000	0.018100
C431	C43	0.370400	0.397800	0.993800
C441	C44	0.496800	0.403800	0.044200
C451	C45	0.375700	0.493600	0.950600
C461	C46	0.438100	0.109000	0.702500
C471	C47	0.597900	0.203600	0.700000
C481	C48	0.775400	0.335200	0.794500
C491	C49	0.898100	0.383200	0.742500
C501	C50	0.013500	0.490000	0.762200
C511	C51	0.004600	0.544100	0.833400
C521	C52	0.875200	0.494200	0.884500
C531	C53	0.761200	0.390200	0.863700
C541	C54	0.123100	0.691900	0.928100
C551	C55	0.266400	0.801900	0.944100
C561	C56	0.155500	0.858700	0.475500
C571	C57	0.264600	0.807000	0.518100
C581	C58	0.129600	0.602200	0.493800
C591	C59	0.003200	0.596200	0.544200
C601	C60	0.124300	0.506400	0.450600
O11	O1	0.849400	0.098200	0.857000
O21	O2	0.902700	0.045200	0.736400
O31	O3	0.159200	0.224900	0.719900
O41	O4	0.626300	0.647300	0.649400
O51	O5	0.834200	0.865900	0.613300
O61	O6	0.798900	0.816000	0.483800
O71	O7	0.627900	0.941900	0.991200
O81	O8	0.600000	0.822500	0.091500
O91	O9	0.765100	0.701800	0.014500
O101	O10	0.650600	0.901800	0.357000
O111	O11	0.597300	0.954800	0.236400
O121	O12	0.340800	0.775100	0.219900
O131	O13	0.873700	0.352700	0.149400
O141	O14	0.665800	0.134100	0.113300
O151	O15	0.701100	0.184000	0.983800
O161	O16	0.872100	0.058100	0.491200
O171	O17	0.900000	0.177500	0.591500
O181	O18	0.734900	0.298200	0.514500
O191	O19	0.150600	0.901800	0.143000
O201	O20	0.097300	0.954800	0.263600
O211	O21	0.840800	0.775100	0.280100
O221	O22	0.373700	0.352700	0.350600
O231	O23	0.165800	0.134100	0.386700
O241	O24	0.201100	0.184000	0.516200
O251	O25	0.372100	0.058100	0.008800
O261	O26	0.400000	0.177500	0.908500
O271	O27	0.234900	0.298200	0.985500
O281	O28	0.349400	0.098200	0.643000
O291	O29	0.402700	0.045200	0.763600
O301	O30	0.659200	0.224900	0.780100
O311	O31	0.126300	0.647300	0.850600
O321	O32	0.334200	0.865900	0.886700
O331	O33	0.298900	0.816000	0.016200
O341	O34	0.127900	0.941900	0.508800
O351	O35	0.100000	0.822500	0.408500
O361	O36	0.265100	0.701800	0.485500
