data_KIHTOL01_clean_PM
_symmetry_space_group_name_H-M	'P1'
_cell_length_a	8.940600
_cell_length_b	12.130600
_cell_length_c	16.699800
_cell_angle_alpha	90.000000
_cell_angle_beta	90.000000
_cell_angle_gamma	109.281000
_symmetry_Int_Tables_number 1

loop_
_symmetry_equiv_pos_as_xyz
'x,y,z'

loop_
_atom_site_label
_atom_site_type_symbol
_atom_site_fract_x
_atom_site_fract_y
_atom_site_fract_z
Nd11	Nd1	0.066970	0.048040	0.116850
Nd21	Nd2	0.933030	0.951960	0.883150
Nd31	Nd3	0.566970	0.048040	0.383150
Nd41	Nd4	0.433030	0.951960	0.616850
H11	H1	0.371900	0.532900	0.067700
H21	H2	0.529400	0.717600	0.068300
H31	H3	0.741500	0.795200	0.428300
H41	H4	0.258500	0.204800	0.571700
H51	H5	0.029400	0.717600	0.431700
H61	H6	0.412500	0.724000	0.822300
H71	H7	0.679400	0.357100	0.399000
H81	H8	0.401700	0.347900	0.307600
H91	H9	0.871900	0.532900	0.432300
H101	H10	0.008200	0.664000	0.073400
H111	H11	0.907100	0.474600	0.775500
H121	H12	0.758500	0.204800	0.928300
H131	H13	0.241500	0.795200	0.071700
H141	H14	0.587500	0.276000	0.177700
H151	H15	0.380500	0.363700	0.965000
H161	H16	0.828300	0.818200	0.666400
H171	H17	0.619500	0.636300	0.035000
H181	H18	0.204600	0.505200	0.914600
H191	H19	0.328300	0.818200	0.833600
H201	H20	0.991800	0.336000	0.926600
H211	H21	0.592900	0.525400	0.275500
H221	H22	0.128100	0.467100	0.567700
H231	H23	0.795400	0.494800	0.085400
H241	H24	0.295400	0.494800	0.414600
H251	H25	0.119500	0.636300	0.465000
H261	H26	0.470600	0.282400	0.931700
H271	H27	0.704600	0.505200	0.585400
H281	H28	0.087500	0.276000	0.322300
H291	H29	0.671700	0.181800	0.166400
H301	H30	0.171700	0.181800	0.333600
H311	H31	0.820600	0.642900	0.899000
H321	H32	0.491800	0.336000	0.573400
H331	H33	0.598300	0.652100	0.692400
H341	H34	0.875500	0.860600	0.488700
H351	H35	0.407100	0.474600	0.724500
H361	H36	0.508200	0.664000	0.426600
H371	H37	0.628100	0.467100	0.932300
H381	H38	0.901700	0.347900	0.192400
H391	H39	0.970600	0.282400	0.568300
H401	H40	0.124500	0.139400	0.511300
H411	H41	0.098300	0.652100	0.807600
H421	H42	0.375500	0.860600	0.011300
H431	H43	0.912500	0.724000	0.677700
H441	H44	0.880500	0.363700	0.535000
H451	H45	0.320600	0.642900	0.601000
H461	H46	0.179400	0.357100	0.101000
H471	H47	0.624500	0.139400	0.988700
H481	H48	0.092900	0.525400	0.224500
C11	C1	0.225200	0.664600	0.706020
C21	C2	0.870000	0.398100	0.006910
C31	C3	0.156100	0.856900	0.974000
C41	C4	0.656100	0.856900	0.526000
C51	C5	0.060100	0.890300	0.702180
C61	C6	0.996800	0.454600	0.667880
C71	C7	0.098900	0.205300	0.300090
C81	C8	0.376100	0.304000	0.925600
C91	C9	0.274800	0.335400	0.206020
C101	C10	0.121300	0.504200	0.615710
C111	C11	0.560100	0.890300	0.797820
C121	C12	0.396300	0.384800	0.259420
C131	C13	0.236200	0.609600	0.635520
C141	C14	0.130000	0.601900	0.993090
C151	C15	0.510800	0.490900	0.239900
C161	C16	0.489200	0.509100	0.760100
C171	C17	0.377700	0.496900	0.449210
C181	C18	0.598900	0.205300	0.199910
C191	C19	0.878700	0.495800	0.384290
C201	C20	0.378700	0.495800	0.115710
C211	C21	0.876100	0.304000	0.574400
C221	C22	0.122300	0.503100	0.949210
C231	C23	0.994600	0.401700	0.956010
C241	C24	0.010800	0.490900	0.260100
C251	C25	0.630000	0.601900	0.506910
C261	C26	0.439900	0.109700	0.202180
C271	C27	0.494600	0.401700	0.543990
C281	C28	0.505400	0.598300	0.456010
C291	C29	0.896300	0.384800	0.240580
C301	C30	0.623900	0.696000	0.074400
C311	C31	0.731600	0.198000	0.558280
C321	C32	0.768400	0.802000	0.058280
C331	C33	0.401100	0.794700	0.800090
C341	C34	0.877700	0.496900	0.050790
C351	C35	0.343900	0.143100	0.474000
C361	C36	0.774800	0.335400	0.293980
C371	C37	0.231300	0.194400	0.515300
C381	C38	0.989200	0.509100	0.739900
C391	C39	0.621300	0.504200	0.884290
C401	C40	0.003200	0.545400	0.332120
C411	C41	0.496800	0.454600	0.832120
C421	C42	0.736200	0.609600	0.864480
C431	C43	0.370000	0.398100	0.493090
C441	C44	0.268700	0.805600	0.015300
C451	C45	0.763800	0.390400	0.364480
C461	C46	0.768700	0.805600	0.484700
C471	C47	0.725200	0.664600	0.793980
C481	C48	0.901100	0.794700	0.699910
C491	C49	0.603700	0.615200	0.740580
C501	C50	0.103700	0.615200	0.759420
C511	C51	0.503200	0.545400	0.167880
C521	C52	0.843900	0.143100	0.026000
C531	C53	0.268400	0.802000	0.441720
C541	C54	0.939900	0.109700	0.297820
C551	C55	0.263800	0.390400	0.135520
C561	C56	0.123900	0.696000	0.425600
C571	C57	0.231600	0.198000	0.941720
C581	C58	0.622300	0.503100	0.550790
C591	C59	0.005400	0.598300	0.043990
C601	C60	0.731300	0.194400	0.984700
O11	O1	0.839500	0.864410	0.115300
O21	O2	0.593500	0.954630	0.737000
O31	O3	0.840800	0.773580	0.780240
O41	O4	0.353100	0.099720	0.142190
O51	O5	0.870100	0.057600	0.992240
O61	O6	0.733800	0.303120	0.017010
O71	O7	0.339500	0.864410	0.384700
O81	O8	0.199800	0.183030	0.014560
O91	O9	0.800200	0.816970	0.985440
O101	O10	0.902400	0.180640	0.091850
O111	O11	0.093500	0.954630	0.763000
O121	O12	0.659200	0.226420	0.280240
O131	O13	0.375200	0.351050	0.847740
O141	O14	0.699800	0.183030	0.485440
O151	O15	0.660500	0.135590	0.615300
O161	O16	0.266200	0.696880	0.982990
O171	O17	0.340800	0.773580	0.719760
O181	O18	0.129900	0.942400	0.007760
O191	O19	0.146900	0.900280	0.642190
O201	O20	0.906500	0.045370	0.237000
O211	O21	0.402400	0.180640	0.408150
O221	O22	0.875200	0.351050	0.652260
O231	O23	0.124800	0.648950	0.347740
O241	O24	0.370100	0.057600	0.507760
O251	O25	0.624800	0.648950	0.152260
O261	O26	0.629900	0.942400	0.492240
O271	O27	0.097600	0.819360	0.908150
O281	O28	0.300200	0.816970	0.514560
O291	O29	0.160500	0.135590	0.884700
O301	O30	0.853100	0.099720	0.357810
O311	O31	0.766200	0.696880	0.517010
O321	O32	0.406500	0.045370	0.263000
O331	O33	0.646900	0.900280	0.857810
O341	O34	0.597600	0.819360	0.591850
O351	O35	0.159200	0.226420	0.219760
O361	O36	0.233800	0.303120	0.482990
