data_KIJPUQ_clean_PM
_symmetry_space_group_name_H-M	'P1'
_cell_length_a	9.735500
_cell_length_b	10.000200
_cell_length_c	26.295000
_cell_angle_alpha	90.000000
_cell_angle_beta	90.000000
_cell_angle_gamma	90.000000
_symmetry_Int_Tables_number 1

loop_
_symmetry_equiv_pos_as_xyz
'x,y,z'

loop_
_atom_site_label
_atom_site_type_symbol
_atom_site_fract_x
_atom_site_fract_y
_atom_site_fract_z
Cd11	Cd1	0.468620	0.313420	0.866160
N11	N1	0.350600	0.152900	0.912100
C11	C1	0.305900	0.184700	0.959800
H11	H1	0.325800	0.269200	0.972600
C21	C2	0.232800	0.097500	0.989700
C31	C3	0.251500	0.936400	0.923900
H21	H2	0.238500	0.850000	0.911800
C41	C4	0.323200	0.029200	0.895600
H31	H3	0.354100	0.004600	0.863500
C51	C5	0.200000	0.973600	0.969900
H41	H4	0.142900	0.915900	0.987800
C61	C6	0.175900	0.139000	0.040100
O11	O1	0.045200	0.367800	0.192000
C71	C7	0.261600	0.218800	0.076500
C81	C8	0.403600	0.227200	0.073200
H51	H5	0.451600	0.184100	0.047400
C91	C9	0.472400	0.302700	0.110200
H61	H6	0.567900	0.306000	0.110700
C101	C10	0.397100	0.372000	0.145900
H71	H7	0.439500	0.428800	0.169100
C111	C11	0.252900	0.353900	0.146100
N21	N2	0.188700	0.276300	0.113100
C121	C12	0.160500	0.417700	0.184800
O21	O2	0.059300	0.106500	0.051400
C131	C13	0.238400	0.757400	0.272500
H81	H8	0.252700	0.833600	0.292100
C141	C14	0.300600	0.748800	0.226100
H91	H9	0.356500	0.818400	0.215000
C151	C15	0.281700	0.637400	0.195200
H101	H10	0.321700	0.631700	0.163100
C161	C16	0.200400	0.534900	0.214400
C171	C17	0.142100	0.552100	0.261900
H111	H11	0.088000	0.483200	0.274700
N31	N3	0.158400	0.661400	0.290700
Cd21	Cd2	0.031380	0.686580	0.366160
N41	N4	0.149400	0.847100	0.412100
C181	C18	0.194100	0.815300	0.459800
H121	H12	0.174200	0.730800	0.472600
C191	C19	0.267200	0.902500	0.489700
C201	C20	0.248500	0.063600	0.423900
H131	H13	0.261500	0.150000	0.411800
C211	C21	0.176800	0.970800	0.395600
H141	H14	0.145900	0.995400	0.363500
C221	C22	0.300000	0.026400	0.469900
H151	H15	0.357100	0.084100	0.487800
C231	C23	0.324100	0.861000	0.540100
O31	O3	0.454800	0.632200	0.692000
C241	C24	0.238400	0.781200	0.576500
C251	C25	0.096400	0.772800	0.573200
H161	H16	0.048400	0.815900	0.547400
C261	C26	0.027600	0.697300	0.610200
H171	H17	0.932100	0.694000	0.610700
C271	C27	0.102900	0.628000	0.645900
H181	H18	0.060500	0.571200	0.669100
C281	C28	0.247100	0.646100	0.646100
N51	N5	0.311300	0.723700	0.613100
C291	C29	0.339500	0.582300	0.684800
O41	O4	0.440700	0.893500	0.551400
C301	C30	0.261600	0.242600	0.772500
H191	H19	0.247300	0.166400	0.792100
C311	C31	0.199400	0.251200	0.726100
H201	H20	0.143500	0.181600	0.715000
C321	C32	0.218300	0.362600	0.695200
H211	H21	0.178300	0.368300	0.663100
C331	C33	0.299600	0.465100	0.714400
C341	C34	0.357900	0.447900	0.761900
H221	H22	0.412000	0.516800	0.774700
N61	N6	0.341600	0.338600	0.790700
Cd31	Cd3	0.531380	0.813420	0.633840
N71	N7	0.649400	0.652900	0.587900
C351	C35	0.694100	0.684700	0.540200
H231	H23	0.674200	0.769200	0.527400
C361	C36	0.767200	0.597500	0.510300
C371	C37	0.748500	0.436400	0.576100
H241	H24	0.761500	0.350000	0.588200
C381	C38	0.676800	0.529200	0.604400
H251	H25	0.645900	0.504600	0.636500
C391	C39	0.800000	0.473600	0.530100
H261	H26	0.857100	0.415900	0.512200
C401	C40	0.824100	0.639000	0.459900
O51	O5	0.954800	0.867800	0.308000
C411	C41	0.738400	0.718800	0.423500
C421	C42	0.596400	0.727200	0.426800
H271	H27	0.548400	0.684100	0.452600
C431	C43	0.527600	0.802700	0.389800
H281	H28	0.432100	0.806000	0.389300
C441	C44	0.602900	0.872000	0.354100
H291	H29	0.560500	0.928800	0.330900
C451	C45	0.747100	0.853900	0.353900
N81	N8	0.811300	0.776300	0.386900
C461	C46	0.839500	0.917700	0.315200
O61	O6	0.940700	0.606500	0.448600
C471	C47	0.761600	0.257400	0.227500
H301	H30	0.747300	0.333600	0.207900
C481	C48	0.699400	0.248800	0.273900
H311	H31	0.643500	0.318400	0.285000
C491	C49	0.718300	0.137400	0.304800
H321	H32	0.678300	0.131700	0.336900
C501	C50	0.799600	0.034900	0.285600
C511	C51	0.857900	0.052100	0.238100
H331	H33	0.912000	0.983200	0.225300
N91	N9	0.841600	0.161400	0.209300
Cd41	Cd4	0.968620	0.186580	0.133840
N101	N10	0.850600	0.347100	0.087900
C521	C52	0.805900	0.315300	0.040200
H341	H34	0.825800	0.230800	0.027400
C531	C53	0.732800	0.402500	0.010300
C541	C54	0.751500	0.563600	0.076100
H351	H35	0.738500	0.650000	0.088200
C551	C55	0.823200	0.470800	0.104400
H361	H36	0.854100	0.495400	0.136500
C561	C56	0.700000	0.526400	0.030100
H371	H37	0.642900	0.584100	0.012200
C571	C57	0.675900	0.361000	0.959900
O71	O7	0.545200	0.132200	0.808000
C581	C58	0.761600	0.281200	0.923500
C591	C59	0.903600	0.272800	0.926800
H381	H38	0.951600	0.315900	0.952600
C601	C60	0.972400	0.197300	0.889800
H391	H39	0.067900	0.194000	0.889300
C611	C61	0.897100	0.128000	0.854100
H401	H40	0.939500	0.071200	0.830900
C621	C62	0.752900	0.146100	0.853900
N111	N11	0.688700	0.223700	0.886900
C631	C63	0.660500	0.082300	0.815200
O81	O8	0.559300	0.393500	0.948600
C641	C64	0.738400	0.742600	0.727500
H411	H41	0.752700	0.666400	0.707900
C651	C65	0.800600	0.751200	0.773900
H421	H42	0.856500	0.681600	0.785000
C661	C66	0.781700	0.862600	0.804800
H431	H43	0.821700	0.868300	0.836900
C671	C67	0.700400	0.965100	0.785600
C681	C68	0.642100	0.947900	0.738100
H441	H44	0.588000	0.016800	0.725300
N121	N12	0.658400	0.838600	0.709300
