data_KIJRUS_clean_PM
_symmetry_space_group_name_H-M	'P1'
_cell_length_a	18.139900
_cell_length_b	21.904200
_cell_length_c	21.904200
_cell_angle_alpha	80.127400
_cell_angle_beta	65.539000
_cell_angle_gamma	65.538900
_symmetry_Int_Tables_number 1

loop_
_symmetry_equiv_pos_as_xyz
'x,y,z'

loop_
_atom_site_label
_atom_site_type_symbol
_atom_site_fract_x
_atom_site_fract_y
_atom_site_fract_z
Cu11	Cu1	0.887190	0.723810	0.276190
Cu21	Cu2	0.995080	0.786210	0.213790
Cu31	Cu3	0.887190	0.276190	0.723810
Cu41	Cu4	0.995080	0.213790	0.786210
H11	H1	0.855700	0.681300	0.106300
H21	H2	0.862600	0.655600	0.005800
H31	H3	0.046100	0.734100	0.907300
H41	H4	0.037300	0.758400	0.009200
H51	H5	0.964300	0.764800	0.835200
H61	H6	0.954100	0.646000	0.721000
H71	H7	0.942300	0.588500	0.906100
H81	H8	0.010500	0.486500	0.859700
H91	H9	0.019600	0.385200	0.834400
H101	H10	0.873700	0.478000	0.728400
H111	H11	0.874600	0.577900	0.745700
H121	H12	0.643300	0.318700	0.893700
H131	H13	0.524000	0.344400	0.994200
H141	H14	0.687500	0.265900	0.092700
H151	H15	0.804900	0.241600	0.990800
H161	H16	0.564300	0.235200	0.164800
H171	H17	0.321100	0.354000	0.279000
H181	H18	0.436900	0.411500	0.093900
H191	H19	0.356700	0.513500	0.140300
H201	H20	0.239200	0.614800	0.165600
H211	H21	0.080100	0.522000	0.271600
H221	H22	0.198200	0.422100	0.254300
H231	H23	0.643300	0.893700	0.318700
H241	H24	0.524000	0.994200	0.344400
H251	H25	0.687500	0.092700	0.265900
H261	H26	0.804900	0.990800	0.241600
H271	H27	0.564300	0.164800	0.235200
H281	H28	0.321100	0.279000	0.354000
H291	H29	0.436900	0.093900	0.411500
H301	H30	0.356700	0.140300	0.513500
H311	H31	0.239200	0.165600	0.614800
H321	H32	0.080100	0.271600	0.522000
H331	H33	0.198200	0.254300	0.422100
H341	H34	0.855700	0.106300	0.681300
H351	H35	0.862600	0.005800	0.655600
H361	H36	0.046100	0.907300	0.734100
H371	H37	0.037300	0.009200	0.758400
H381	H38	0.964300	0.835200	0.764800
H391	H39	0.954100	0.721000	0.646000
H401	H40	0.942300	0.906100	0.588500
H411	H41	0.010500	0.859700	0.486500
H421	H42	0.019600	0.834400	0.385200
H431	H43	0.873700	0.728400	0.478000
H441	H44	0.874600	0.745700	0.577900
C11	C1	0.944440	0.736410	0.133510
C21	C2	0.947410	0.721190	0.067390
C31	C3	0.894230	0.691510	0.066230
C41	C4	0.897830	0.676640	0.005900
C51	C5	0.953210	0.692810	0.945770
C61	C6	0.007450	0.723450	0.947050
C71	C7	0.002450	0.737460	0.008240
C81	C8	0.957630	0.677890	0.879050
C91	C9	0.960990	0.725410	0.828410
C101	C10	0.959520	0.716130	0.767630
C111	C11	0.954620	0.654400	0.760960
C121	C12	0.950600	0.607330	0.810270
C131	C13	0.948950	0.618990	0.871110
C141	C14	0.945620	0.542760	0.802000
C151	C15	0.985200	0.485070	0.830930
C161	C16	0.987600	0.424490	0.817710
C171	C17	0.945210	0.420710	0.781470
C181	C18	0.903020	0.479000	0.754160
C191	C19	0.903600	0.538920	0.764680
C201	C20	0.943870	0.354110	0.771950
C211	C21	0.814360	0.263590	0.866490
C221	C22	0.735990	0.278810	0.932610
C231	C23	0.651970	0.308490	0.933770
C241	C24	0.580370	0.323360	0.994100
C251	C25	0.591790	0.307190	0.054230
C261	C26	0.677950	0.276550	0.052950
C271	C27	0.748150	0.262540	0.991760
C281	C28	0.514570	0.322110	0.120950
C291	C29	0.514810	0.274590	0.171590
C301	C30	0.443280	0.283870	0.232370
C311	C31	0.369980	0.345600	0.239040
C321	C32	0.368200	0.392670	0.189730
C331	C33	0.439050	0.381010	0.128890
C341	C34	0.290380	0.457240	0.198000
C351	C35	0.301200	0.514930	0.169070
C361	C36	0.229800	0.575510	0.182290
C371	C37	0.147390	0.579290	0.218530
C381	C38	0.136180	0.521000	0.245840
C391	C39	0.207200	0.461080	0.235320
C401	C40	0.069930	0.645890	0.228050
C411	C41	0.814360	0.866490	0.263590
C421	C42	0.735990	0.932610	0.278810
C431	C43	0.651970	0.933770	0.308490
C441	C44	0.580370	0.994100	0.323360
C451	C45	0.591790	0.054230	0.307190
C461	C46	0.677950	0.052950	0.276550
C471	C47	0.748150	0.991760	0.262540
C481	C48	0.514570	0.120950	0.322110
C491	C49	0.514810	0.171590	0.274590
C501	C50	0.443280	0.232370	0.283870
C511	C51	0.369980	0.239040	0.345600
C521	C52	0.368200	0.189730	0.392670
C531	C53	0.439050	0.128890	0.381010
C541	C54	0.290380	0.198000	0.457240
C551	C55	0.301200	0.169070	0.514930
C561	C56	0.229800	0.182290	0.575510
C571	C57	0.147390	0.218530	0.579290
C581	C58	0.136180	0.245840	0.521000
C591	C59	0.207200	0.235320	0.461080
C601	C60	0.069930	0.228050	0.645890
C611	C61	0.944440	0.133510	0.736410
C621	C62	0.947410	0.067390	0.721190
C631	C63	0.894230	0.066230	0.691510
C641	C64	0.897830	0.005900	0.676640
C651	C65	0.953210	0.945770	0.692810
C661	C66	0.007450	0.947050	0.723450
C671	C67	0.002450	0.008240	0.737460
C681	C68	0.957630	0.879050	0.677890
C691	C69	0.960990	0.828410	0.725410
C701	C70	0.959520	0.767630	0.716130
C711	C71	0.954620	0.760960	0.654400
C721	C72	0.950600	0.810270	0.607330
C731	C73	0.948950	0.871110	0.618990
C741	C74	0.945620	0.802000	0.542760
C751	C75	0.985200	0.830930	0.485070
C761	C76	0.987600	0.817710	0.424490
C771	C77	0.945210	0.781470	0.420710
C781	C78	0.903020	0.754160	0.479000
C791	C79	0.903600	0.764680	0.538920
C801	C80	0.943870	0.771950	0.354110
O11	O1	0.988200	0.768290	0.131890
O21	O2	0.894520	0.715210	0.185970
O31	O3	0.987670	0.303140	0.795500
O41	O4	0.897880	0.356220	0.740400
O51	O5	0.888380	0.231710	0.868110
O61	O6	0.795700	0.284790	0.814030
O71	O7	0.086310	0.696860	0.204500
O81	O8	0.994500	0.643780	0.259600
O91	O9	0.888380	0.868110	0.231710
O101	O10	0.795700	0.814030	0.284790
O111	O11	0.086310	0.204500	0.696860
O121	O12	0.994500	0.259600	0.643780
O131	O13	0.988200	0.131890	0.768290
O141	O14	0.894520	0.185970	0.715210
O151	O15	0.987670	0.795500	0.303140
O161	O16	0.897880	0.740400	0.356220
Cu51	Cu5	0.836620	0.276190	0.276190
Cu61	Cu6	0.791130	0.213790	0.213790
Cu71	Cu7	0.389000	0.723810	0.723810
Cu81	Cu8	0.218710	0.786210	0.786210
H451	H45	0.038000	0.106300	0.318700
H461	H46	0.131600	0.005800	0.344400
H471	H47	0.046600	0.907300	0.265900
H481	H48	0.953500	0.009200	0.241600
H491	H49	0.200500	0.835200	0.235200
H501	H50	0.324900	0.721000	0.354000
H511	H51	0.151600	0.906100	0.411500
H521	H52	0.129800	0.859700	0.513500
H531	H53	0.146000	0.834400	0.614800
H541	H54	0.397900	0.728400	0.522000
H551	H55	0.379700	0.745700	0.422100
H561	H56	0.463000	0.893700	0.681300
H571	H57	0.481800	0.994200	0.655600
H581	H58	0.219800	0.092700	0.734100
H591	H59	0.204300	0.990800	0.758400
H601	H60	0.270900	0.164800	0.764800
H611	H61	0.399900	0.279000	0.646000
H621	H62	0.469200	0.093900	0.588500
H631	H63	0.503000	0.140300	0.486500
H641	H64	0.595200	0.165600	0.385200
H651	H65	0.648300	0.271600	0.478000
H661	H66	0.547500	0.254300	0.577900
H671	H67	0.463000	0.681300	0.893700
H681	H68	0.481800	0.655600	0.994200
H691	H69	0.219800	0.734100	0.092700
H701	H70	0.204300	0.758400	0.990800
H711	H71	0.270900	0.764800	0.164800
H721	H72	0.399900	0.646000	0.279000
H731	H73	0.469200	0.588500	0.093900
H741	H74	0.503000	0.486500	0.140300
H751	H75	0.595200	0.385200	0.165600
H761	H76	0.648300	0.478000	0.271600
H771	H77	0.547500	0.577900	0.254300
H781	H78	0.038000	0.318700	0.106300
H791	H79	0.131600	0.344400	0.005800
H801	H80	0.046600	0.265900	0.907300
H811	H81	0.953500	0.241600	0.009200
H821	H82	0.200500	0.235200	0.835200
H831	H83	0.324900	0.354000	0.721000
H841	H84	0.151600	0.411500	0.906100
H851	H85	0.129800	0.513500	0.859700
H861	H86	0.146000	0.614800	0.834400
H871	H87	0.397900	0.522000	0.728400
H881	H88	0.379700	0.422100	0.745700
C811	C81	0.922050	0.133510	0.263590
C821	C82	0.985200	0.067390	0.278810
C831	C83	0.039540	0.066230	0.308490
C841	C84	0.096270	0.005900	0.323360
C851	C85	0.101020	0.945770	0.307190
C861	C86	0.045500	0.947050	0.276550
C871	C87	0.989310	0.008240	0.262540
C881	C88	0.163320	0.879050	0.322110
C891	C89	0.210600	0.828410	0.274590
C901	C90	0.272850	0.767630	0.283870
C911	C91	0.284420	0.760960	0.345600
C921	C92	0.239130	0.810270	0.392670
C931	C93	0.179940	0.871110	0.381010
C941	C94	0.252380	0.802000	0.457240
C951	C95	0.183870	0.830930	0.514930
C961	C96	0.194690	0.817710	0.575510
C971	C97	0.273320	0.781470	0.579290
C981	C98	0.342820	0.754160	0.521000
C991	C99	0.331720	0.764680	0.461080
C1001	C100	0.284180	0.771950	0.645890
C1011	C101	0.319150	0.866490	0.736410
C1021	C102	0.331400	0.932610	0.721190
C1031	C103	0.414260	0.933770	0.691510
C1041	C104	0.425530	0.994100	0.676640
C1051	C105	0.353980	0.054230	0.692810
C1061	C106	0.269100	0.052950	0.723450
C1071	C107	0.260090	0.991760	0.737460
C1081	C108	0.364480	0.120950	0.677890
C1091	C109	0.313600	0.171590	0.725410
C1101	C110	0.324350	0.232370	0.716130
C1111	C111	0.390980	0.239040	0.654400
C1121	C112	0.442070	0.189730	0.607330
C1131	C113	0.432060	0.128890	0.618990
C1141	C114	0.511620	0.198000	0.542760
C1151	C115	0.529730	0.169070	0.485070
C1161	C116	0.587910	0.182290	0.424490
C1171	C117	0.634080	0.218530	0.420710
C1181	C118	0.617980	0.245840	0.479000
C1191	C119	0.557480	0.235320	0.538920
C1201	C120	0.702020	0.228050	0.354110
C1211	C121	0.319150	0.736410	0.866490
C1221	C122	0.331400	0.721190	0.932610
C1231	C123	0.414260	0.691510	0.933770
C1241	C124	0.425530	0.676640	0.994100
C1251	C125	0.353980	0.692810	0.054230
C1261	C126	0.269100	0.723450	0.052950
C1271	C127	0.260090	0.737460	0.991760
C1281	C128	0.364480	0.677890	0.120950
C1291	C129	0.313600	0.725410	0.171590
C1301	C130	0.324350	0.716130	0.232370
C1311	C131	0.390980	0.654400	0.239040
C1321	C132	0.442070	0.607330	0.189730
C1331	C133	0.432060	0.618990	0.128890
C1341	C134	0.511620	0.542760	0.198000
C1351	C135	0.529730	0.485070	0.169070
C1361	C136	0.587910	0.424490	0.182290
C1371	C137	0.634080	0.420710	0.218530
C1381	C138	0.617980	0.479000	0.245840
C1391	C139	0.557480	0.538920	0.235320
C1401	C140	0.702020	0.354110	0.228050
C1411	C141	0.922050	0.263590	0.133510
C1421	C142	0.985200	0.278810	0.067390
C1431	C143	0.039540	0.308490	0.066230
C1441	C144	0.096270	0.323360	0.005900
C1451	C145	0.101020	0.307190	0.945770
C1461	C146	0.045500	0.276550	0.947050
C1471	C147	0.989310	0.262540	0.008240
C1481	C148	0.163320	0.322110	0.879050
C1491	C149	0.210600	0.274590	0.828410
C1501	C150	0.272850	0.283870	0.767630
C1511	C151	0.284420	0.345600	0.760960
C1521	C152	0.239130	0.392670	0.810270
C1531	C153	0.179940	0.381010	0.871110
C1541	C154	0.252380	0.457240	0.802000
C1551	C155	0.183870	0.514930	0.830930
C1561	C156	0.194690	0.575510	0.817710
C1571	C157	0.273320	0.579290	0.781470
C1581	C158	0.342820	0.521000	0.754160
C1591	C159	0.331720	0.461080	0.764680
C1601	C160	0.284180	0.645890	0.771950
O171	O17	0.879910	0.131890	0.231710
O181	O18	0.919510	0.185970	0.284790
O191	O19	0.216830	0.795500	0.696860
O201	O20	0.361720	0.740400	0.643780
O211	O21	0.243510	0.868110	0.768290
O221	O22	0.390270	0.814030	0.715210
O231	O23	0.709190	0.204500	0.303140
O241	O24	0.745900	0.259600	0.356220
O251	O25	0.243510	0.768290	0.868110
O261	O26	0.390270	0.715210	0.814030
O271	O27	0.709190	0.303140	0.204500
O281	O28	0.745900	0.356220	0.259600
O291	O29	0.879910	0.231710	0.131890
O301	O30	0.919510	0.284790	0.185970
O311	O31	0.216830	0.696860	0.795500
O321	O32	0.361720	0.643780	0.740400
