data_KIKDIT_clean_PM
_symmetry_space_group_name_H-M	'P1'
_cell_length_a	19.522000
_cell_length_b	19.522000
_cell_length_c	33.791000
_cell_angle_alpha	90.000000
_cell_angle_beta	90.000000
_cell_angle_gamma	90.000000
_symmetry_Int_Tables_number 1

loop_
_symmetry_equiv_pos_as_xyz
'x,y,z'

loop_
_atom_site_label
_atom_site_type_symbol
_atom_site_fract_x
_atom_site_fract_y
_atom_site_fract_z
Cd11	Cd1	0.644220	0.157900	0.749150
Cd21	Cd2	0.355780	0.842100	0.749150
Cd31	Cd3	0.842100	0.644220	0.249150
Cd41	Cd4	0.157900	0.355780	0.249150
Cd51	Cd5	0.355780	0.842100	0.250850
Cd61	Cd6	0.644220	0.157900	0.250850
Cd71	Cd7	0.157900	0.355780	0.750850
Cd81	Cd8	0.842100	0.644220	0.750850
Cd91	Cd9	0.671360	0.377730	0.000000
Cd101	Cd10	0.328640	0.622270	0.000000
Cd111	Cd11	0.622270	0.671360	0.500000
Cd121	Cd12	0.377730	0.328640	0.500000
Cd131	Cd13	0.891280	0.179850	0.500000
Cd141	Cd14	0.108720	0.820150	0.500000
Cd151	Cd15	0.820150	0.891280	0.000000
Cd161	Cd16	0.179850	0.108720	0.000000
H11	H1	0.506000	0.355400	0.965700
H21	H2	0.540700	0.092200	0.817100
H31	H3	0.596000	0.047900	0.682300
H41	H4	0.861300	0.018600	0.535800
H51	H5	0.478700	0.152400	0.726600
H61	H6	0.470200	0.401300	0.565500
H71	H7	0.640900	0.993200	0.776100
H81	H8	0.899200	0.976700	0.932400
H91	H9	0.714200	0.266500	0.939900
H101	H10	0.691400	0.221300	0.903200
H111	H11	0.709700	0.299600	0.897200
H121	H12	0.408000	0.333400	0.920900
H131	H13	0.427600	0.303900	0.878700
H141	H14	0.412200	0.253200	0.914300
H151	H15	0.608200	0.303800	0.783500
H161	H16	0.567300	0.339900	0.818200
H171	H17	0.645100	0.319200	0.824300
H181	H18	0.547000	0.080400	0.905500
H191	H19	0.488100	0.134000	0.914500
H201	H20	0.477000	0.076900	0.881800
H211	H21	0.804200	0.132300	0.714900
H221	H22	0.839200	0.120900	0.673100
H231	H23	0.795400	0.187700	0.681100
H241	H24	0.568700	0.034300	0.605800
H251	H25	0.634600	0.019200	0.579900
H261	H26	0.609500	0.965000	0.611600
H271	H27	0.805900	0.225700	0.603400
H281	H28	0.780600	0.231100	0.559000
H291	H29	0.728200	0.211400	0.592900
H301	H30	0.757600	0.924000	0.583100
H311	H31	0.838700	0.923200	0.580500
H321	H32	0.802200	0.940000	0.621200
H331	H33	0.665900	0.250100	0.673900
H341	H34	0.637700	0.249900	0.629900
H351	H35	0.625400	0.314400	0.657400
H361	H36	0.355500	0.217700	0.689100
H371	H37	0.366700	0.183800	0.647000
H381	H38	0.372800	0.138600	0.685800
H391	H39	0.451700	0.174300	0.540200
H401	H40	0.477600	0.149800	0.582300
H411	H41	0.399000	0.165900	0.575500
H421	H42	0.506300	0.445400	0.628300
H431	H43	0.478300	0.400500	0.663800
H441	H44	0.555400	0.392900	0.650000
H451	H45	0.731700	0.179000	0.843000
H461	H46	0.795300	0.138200	0.860000
H471	H47	0.794300	0.161100	0.815100
H481	H48	0.695900	0.871200	0.808900
H491	H49	0.692700	0.883900	0.855200
H501	H50	0.626100	0.893300	0.829000
H511	H51	0.658500	0.009700	0.942900
H521	H52	0.647700	0.953000	0.909900
H531	H53	0.673800	0.931800	0.952600
H541	H54	0.936900	0.983300	0.860600
H551	H55	0.881500	0.011600	0.830500
H561	H56	0.916000	0.061700	0.861500
H571	H57	0.494000	0.644600	0.965700
H581	H58	0.459300	0.907800	0.817100
H591	H59	0.404000	0.952100	0.682300
H601	H60	0.138700	0.981400	0.535800
H611	H61	0.521300	0.847600	0.726600
H621	H62	0.529800	0.598700	0.565500
H631	H63	0.359100	0.006800	0.776100
H641	H64	0.100800	0.023300	0.932400
H651	H65	0.285800	0.733500	0.939900
H661	H66	0.308600	0.778700	0.903200
H671	H67	0.290300	0.700400	0.897200
H681	H68	0.592000	0.666600	0.920900
H691	H69	0.572400	0.696100	0.878700
H701	H70	0.587800	0.746800	0.914300
H711	H71	0.391800	0.696200	0.783500
H721	H72	0.432700	0.660100	0.818200
H731	H73	0.354900	0.680800	0.824300
H741	H74	0.453000	0.919600	0.905500
H751	H75	0.511900	0.866000	0.914500
H761	H76	0.523000	0.923100	0.881800
H771	H77	0.195800	0.867700	0.714900
H781	H78	0.160800	0.879100	0.673100
H791	H79	0.204600	0.812300	0.681100
H801	H80	0.431300	0.965700	0.605800
H811	H81	0.365400	0.980800	0.579900
H821	H82	0.390500	0.035000	0.611600
H831	H83	0.194100	0.774300	0.603400
H841	H84	0.219400	0.768900	0.559000
H851	H85	0.271800	0.788600	0.592900
H861	H86	0.242400	0.076000	0.583100
H871	H87	0.161300	0.076800	0.580500
H881	H88	0.197800	0.060000	0.621200
H891	H89	0.334100	0.749900	0.673900
H901	H90	0.362300	0.750100	0.629900
H911	H91	0.374600	0.685600	0.657400
H921	H92	0.644500	0.782300	0.689100
H931	H93	0.633300	0.816200	0.647000
H941	H94	0.627200	0.861400	0.685800
H951	H95	0.548300	0.825700	0.540200
H961	H96	0.522400	0.850200	0.582300
H971	H97	0.601000	0.834100	0.575500
H981	H98	0.493700	0.554600	0.628300
H991	H99	0.521700	0.599500	0.663800
H1001	H100	0.444600	0.607100	0.650000
H1011	H101	0.268300	0.821000	0.843000
H1021	H102	0.204700	0.861800	0.860000
H1031	H103	0.205700	0.838900	0.815100
H1041	H104	0.304100	0.128800	0.808900
H1051	H105	0.307300	0.116100	0.855200
H1061	H106	0.373900	0.106700	0.829000
H1071	H107	0.341500	0.990300	0.942900
H1081	H108	0.352300	0.047000	0.909900
H1091	H109	0.326200	0.068200	0.952600
H1101	H110	0.063100	0.016700	0.860600
H1111	H111	0.118500	0.988400	0.830500
H1121	H112	0.084000	0.938300	0.861500
H1131	H113	0.644600	0.506000	0.465700
H1141	H114	0.907800	0.540700	0.317100
H1151	H115	0.952100	0.596000	0.182300
H1161	H116	0.981400	0.861300	0.035800
H1171	H117	0.847600	0.478700	0.226600
H1181	H118	0.598700	0.470200	0.065500
H1191	H119	0.006800	0.640900	0.276100
H1201	H120	0.023300	0.899200	0.432400
H1211	H121	0.733500	0.714200	0.439900
H1221	H122	0.778700	0.691400	0.403200
H1231	H123	0.700400	0.709700	0.397200
H1241	H124	0.666600	0.408000	0.420900
H1251	H125	0.696100	0.427600	0.378700
H1261	H126	0.746800	0.412200	0.414300
H1271	H127	0.696200	0.608200	0.283500
H1281	H128	0.660100	0.567300	0.318200
H1291	H129	0.680800	0.645100	0.324300
H1301	H130	0.919600	0.547000	0.405500
H1311	H131	0.866000	0.488100	0.414500
H1321	H132	0.923100	0.477000	0.381800
H1331	H133	0.867700	0.804200	0.214900
H1341	H134	0.879100	0.839200	0.173100
H1351	H135	0.812300	0.795400	0.181100
H1361	H136	0.965700	0.568700	0.105800
H1371	H137	0.980800	0.634600	0.079900
H1381	H138	0.035000	0.609500	0.111600
H1391	H139	0.774300	0.805900	0.103400
H1401	H140	0.768900	0.780600	0.059000
H1411	H141	0.788600	0.728200	0.092900
H1421	H142	0.076000	0.757600	0.083100
H1431	H143	0.076800	0.838700	0.080500
H1441	H144	0.060000	0.802200	0.121200
H1451	H145	0.749900	0.665900	0.173900
H1461	H146	0.750100	0.637700	0.129900
H1471	H147	0.685600	0.625400	0.157400
H1481	H148	0.782300	0.355500	0.189100
H1491	H149	0.816200	0.366700	0.147000
H1501	H150	0.861400	0.372800	0.185800
H1511	H151	0.825700	0.451700	0.040200
H1521	H152	0.850200	0.477600	0.082300
H1531	H153	0.834100	0.399000	0.075500
H1541	H154	0.554600	0.506300	0.128300
H1551	H155	0.599500	0.478300	0.163800
H1561	H156	0.607100	0.555400	0.150000
H1571	H157	0.821000	0.731700	0.343000
H1581	H158	0.861800	0.795300	0.360000
H1591	H159	0.838900	0.794300	0.315100
H1601	H160	0.128800	0.695900	0.308900
H1611	H161	0.116100	0.692700	0.355200
H1621	H162	0.106700	0.626100	0.329000
H1631	H163	0.990300	0.658500	0.442900
H1641	H164	0.047000	0.647700	0.409900
H1651	H165	0.068200	0.673800	0.452600
H1661	H166	0.016700	0.936900	0.360600
H1671	H167	0.988400	0.881500	0.330500
H1681	H168	0.938300	0.916000	0.361500
H1691	H169	0.355400	0.494000	0.465700
H1701	H170	0.092200	0.459300	0.317100
H1711	H171	0.047900	0.404000	0.182300
H1721	H172	0.018600	0.138700	0.035800
H1731	H173	0.152400	0.521300	0.226600
H1741	H174	0.401300	0.529800	0.065500
H1751	H175	0.993200	0.359100	0.276100
H1761	H176	0.976700	0.100800	0.432400
H1771	H177	0.266500	0.285800	0.439900
H1781	H178	0.221300	0.308600	0.403200
H1791	H179	0.299600	0.290300	0.397200
H1801	H180	0.333400	0.592000	0.420900
H1811	H181	0.303900	0.572400	0.378700
H1821	H182	0.253200	0.587800	0.414300
H1831	H183	0.303800	0.391800	0.283500
H1841	H184	0.339900	0.432700	0.318200
H1851	H185	0.319200	0.354900	0.324300
H1861	H186	0.080400	0.453000	0.405500
H1871	H187	0.134000	0.511900	0.414500
H1881	H188	0.076900	0.523000	0.381800
H1891	H189	0.132300	0.195800	0.214900
H1901	H190	0.120900	0.160800	0.173100
H1911	H191	0.187700	0.204600	0.181100
H1921	H192	0.034300	0.431300	0.105800
H1931	H193	0.019200	0.365400	0.079900
H1941	H194	0.965000	0.390500	0.111600
H1951	H195	0.225700	0.194100	0.103400
H1961	H196	0.231100	0.219400	0.059000
H1971	H197	0.211400	0.271800	0.092900
H1981	H198	0.924000	0.242400	0.083100
H1991	H199	0.923200	0.161300	0.080500
H2001	H200	0.940000	0.197800	0.121200
H2011	H201	0.250100	0.334100	0.173900
H2021	H202	0.249900	0.362300	0.129900
H2031	H203	0.314400	0.374600	0.157400
H2041	H204	0.217700	0.644500	0.189100
H2051	H205	0.183800	0.633300	0.147000
H2061	H206	0.138600	0.627200	0.185800
H2071	H207	0.174300	0.548300	0.040200
H2081	H208	0.149800	0.522400	0.082300
H2091	H209	0.165900	0.601000	0.075500
H2101	H210	0.445400	0.493700	0.128300
H2111	H211	0.400500	0.521700	0.163800
H2121	H212	0.392900	0.444600	0.150000
H2131	H213	0.179000	0.268300	0.343000
H2141	H214	0.138200	0.204700	0.360000
H2151	H215	0.161100	0.205700	0.315100
H2161	H216	0.871200	0.304100	0.308900
H2171	H217	0.883900	0.307300	0.355200
H2181	H218	0.893300	0.373900	0.329000
H2191	H219	0.009700	0.341500	0.442900
H2201	H220	0.953000	0.352300	0.409900
H2211	H221	0.931800	0.326200	0.452600
H2221	H222	0.983300	0.063100	0.360600
H2231	H223	0.011600	0.118500	0.330500
H2241	H224	0.061700	0.084000	0.361500
H2251	H225	0.494000	0.644600	0.034300
H2261	H226	0.459300	0.907800	0.182900
H2271	H227	0.404000	0.952100	0.317700
H2281	H228	0.138700	0.981400	0.464200
H2291	H229	0.521300	0.847600	0.273400
H2301	H230	0.529800	0.598700	0.434500
H2311	H231	0.359100	0.006800	0.223900
H2321	H232	0.100800	0.023300	0.067600
H2331	H233	0.285800	0.733500	0.060100
H2341	H234	0.308600	0.778700	0.096800
H2351	H235	0.290300	0.700400	0.102800
H2361	H236	0.592000	0.666600	0.079100
H2371	H237	0.572400	0.696100	0.121300
H2381	H238	0.587800	0.746800	0.085700
H2391	H239	0.391800	0.696200	0.216500
H2401	H240	0.432700	0.660100	0.181800
H2411	H241	0.354900	0.680800	0.175700
H2421	H242	0.453000	0.919600	0.094500
H2431	H243	0.511900	0.866000	0.085500
H2441	H244	0.523000	0.923100	0.118200
H2451	H245	0.195800	0.867700	0.285100
H2461	H246	0.160800	0.879100	0.326900
H2471	H247	0.204600	0.812300	0.318900
H2481	H248	0.431300	0.965700	0.394200
H2491	H249	0.365400	0.980800	0.420100
H2501	H250	0.390500	0.035000	0.388400
H2511	H251	0.194100	0.774300	0.396600
H2521	H252	0.219400	0.768900	0.441000
H2531	H253	0.271800	0.788600	0.407100
H2541	H254	0.242400	0.076000	0.416900
H2551	H255	0.161300	0.076800	0.419500
H2561	H256	0.197800	0.060000	0.378800
H2571	H257	0.334100	0.749900	0.326100
H2581	H258	0.362300	0.750100	0.370100
H2591	H259	0.374600	0.685600	0.342600
H2601	H260	0.644500	0.782300	0.310900
H2611	H261	0.633300	0.816200	0.353000
H2621	H262	0.627200	0.861400	0.314200
H2631	H263	0.548300	0.825700	0.459800
H2641	H264	0.522400	0.850200	0.417700
H2651	H265	0.601000	0.834100	0.424500
H2661	H266	0.493700	0.554600	0.371700
H2671	H267	0.521700	0.599500	0.336200
H2681	H268	0.444600	0.607100	0.350000
H2691	H269	0.268300	0.821000	0.157000
H2701	H270	0.204700	0.861800	0.140000
H2711	H271	0.205700	0.838900	0.184900
H2721	H272	0.304100	0.128800	0.191100
H2731	H273	0.307300	0.116100	0.144800
H2741	H274	0.373900	0.106700	0.171000
H2751	H275	0.341500	0.990300	0.057100
H2761	H276	0.352300	0.047000	0.090100
H2771	H277	0.326200	0.068200	0.047400
H2781	H278	0.063100	0.016700	0.139400
H2791	H279	0.118500	0.988400	0.169500
H2801	H280	0.084000	0.938300	0.138500
H2811	H281	0.506000	0.355400	0.034300
H2821	H282	0.540700	0.092200	0.182900
H2831	H283	0.596000	0.047900	0.317700
H2841	H284	0.861300	0.018600	0.464200
H2851	H285	0.478700	0.152400	0.273400
H2861	H286	0.470200	0.401300	0.434500
H2871	H287	0.640900	0.993200	0.223900
H2881	H288	0.899200	0.976700	0.067600
H2891	H289	0.714200	0.266500	0.060100
H2901	H290	0.691400	0.221300	0.096800
H2911	H291	0.709700	0.299600	0.102800
H2921	H292	0.408000	0.333400	0.079100
H2931	H293	0.427600	0.303900	0.121300
H2941	H294	0.412200	0.253200	0.085700
H2951	H295	0.608200	0.303800	0.216500
H2961	H296	0.567300	0.339900	0.181800
H2971	H297	0.645100	0.319200	0.175700
H2981	H298	0.547000	0.080400	0.094500
H2991	H299	0.488100	0.134000	0.085500
H3001	H300	0.477000	0.076900	0.118200
H3011	H301	0.804200	0.132300	0.285100
H3021	H302	0.839200	0.120900	0.326900
H3031	H303	0.795400	0.187700	0.318900
H3041	H304	0.568700	0.034300	0.394200
H3051	H305	0.634600	0.019200	0.420100
H3061	H306	0.609500	0.965000	0.388400
H3071	H307	0.805900	0.225700	0.396600
H3081	H308	0.780600	0.231100	0.441000
H3091	H309	0.728200	0.211400	0.407100
H3101	H310	0.757600	0.924000	0.416900
H3111	H311	0.838700	0.923200	0.419500
H3121	H312	0.802200	0.940000	0.378800
H3131	H313	0.665900	0.250100	0.326100
H3141	H314	0.637700	0.249900	0.370100
H3151	H315	0.625400	0.314400	0.342600
H3161	H316	0.355500	0.217700	0.310900
H3171	H317	0.366700	0.183800	0.353000
H3181	H318	0.372800	0.138600	0.314200
H3191	H319	0.451700	0.174300	0.459800
H3201	H320	0.477600	0.149800	0.417700
H3211	H321	0.399000	0.165900	0.424500
H3221	H322	0.506300	0.445400	0.371700
H3231	H323	0.478300	0.400500	0.336200
H3241	H324	0.555400	0.392900	0.350000
H3251	H325	0.731700	0.179000	0.157000
H3261	H326	0.795300	0.138200	0.140000
H3271	H327	0.794300	0.161100	0.184900
H3281	H328	0.695900	0.871200	0.191100
H3291	H329	0.692700	0.883900	0.144800
H3301	H330	0.626100	0.893300	0.171000
H3311	H331	0.658500	0.009700	0.057100
H3321	H332	0.647700	0.953000	0.090100
H3331	H333	0.673800	0.931800	0.047400
H3341	H334	0.936900	0.983300	0.139400
H3351	H335	0.881500	0.011600	0.169500
H3361	H336	0.916000	0.061700	0.138500
H3371	H337	0.355400	0.494000	0.534300
H3381	H338	0.092200	0.459300	0.682900
H3391	H339	0.047900	0.404000	0.817700
H3401	H340	0.018600	0.138700	0.964200
H3411	H341	0.152400	0.521300	0.773400
H3421	H342	0.401300	0.529800	0.934500
H3431	H343	0.993200	0.359100	0.723900
H3441	H344	0.976700	0.100800	0.567600
H3451	H345	0.266500	0.285800	0.560100
H3461	H346	0.221300	0.308600	0.596800
H3471	H347	0.299600	0.290300	0.602800
H3481	H348	0.333400	0.592000	0.579100
H3491	H349	0.303900	0.572400	0.621300
H3501	H350	0.253200	0.587800	0.585700
H3511	H351	0.303800	0.391800	0.716500
H3521	H352	0.339900	0.432700	0.681800
H3531	H353	0.319200	0.354900	0.675700
H3541	H354	0.080400	0.453000	0.594500
H3551	H355	0.134000	0.511900	0.585500
H3561	H356	0.076900	0.523000	0.618200
H3571	H357	0.132300	0.195800	0.785100
H3581	H358	0.120900	0.160800	0.826900
H3591	H359	0.187700	0.204600	0.818900
H3601	H360	0.034300	0.431300	0.894200
H3611	H361	0.019200	0.365400	0.920100
H3621	H362	0.965000	0.390500	0.888400
H3631	H363	0.225700	0.194100	0.896600
H3641	H364	0.231100	0.219400	0.941000
H3651	H365	0.211400	0.271800	0.907100
H3661	H366	0.924000	0.242400	0.916900
H3671	H367	0.923200	0.161300	0.919500
H3681	H368	0.940000	0.197800	0.878800
H3691	H369	0.250100	0.334100	0.826100
H3701	H370	0.249900	0.362300	0.870100
H3711	H371	0.314400	0.374600	0.842600
H3721	H372	0.217700	0.644500	0.810900
H3731	H373	0.183800	0.633300	0.853000
H3741	H374	0.138600	0.627200	0.814200
H3751	H375	0.174300	0.548300	0.959800
H3761	H376	0.149800	0.522400	0.917700
H3771	H377	0.165900	0.601000	0.924500
H3781	H378	0.445400	0.493700	0.871700
H3791	H379	0.400500	0.521700	0.836200
H3801	H380	0.392900	0.444600	0.850000
H3811	H381	0.179000	0.268300	0.657000
H3821	H382	0.138200	0.204700	0.640000
H3831	H383	0.161100	0.205700	0.684900
H3841	H384	0.871200	0.304100	0.691100
H3851	H385	0.883900	0.307300	0.644800
H3861	H386	0.893300	0.373900	0.671000
H3871	H387	0.009700	0.341500	0.557100
H3881	H388	0.953000	0.352300	0.590100
H3891	H389	0.931800	0.326200	0.547400
H3901	H390	0.983300	0.063100	0.639400
H3911	H391	0.011600	0.118500	0.669500
H3921	H392	0.061700	0.084000	0.638500
H3931	H393	0.644600	0.506000	0.534300
H3941	H394	0.907800	0.540700	0.682900
H3951	H395	0.952100	0.596000	0.817700
H3961	H396	0.981400	0.861300	0.964200
H3971	H397	0.847600	0.478700	0.773400
H3981	H398	0.598700	0.470200	0.934500
H3991	H399	0.006800	0.640900	0.723900
H4001	H400	0.023300	0.899200	0.567600
H4011	H401	0.733500	0.714200	0.560100
H4021	H402	0.778700	0.691400	0.596800
H4031	H403	0.700400	0.709700	0.602800
H4041	H404	0.666600	0.408000	0.579100
H4051	H405	0.696100	0.427600	0.621300
H4061	H406	0.746800	0.412200	0.585700
H4071	H407	0.696200	0.608200	0.716500
H4081	H408	0.660100	0.567300	0.681800
H4091	H409	0.680800	0.645100	0.675700
H4101	H410	0.919600	0.547000	0.594500
H4111	H411	0.866000	0.488100	0.585500
H4121	H412	0.923100	0.477000	0.618200
H4131	H413	0.867700	0.804200	0.785100
H4141	H414	0.879100	0.839200	0.826900
H4151	H415	0.812300	0.795400	0.818900
H4161	H416	0.965700	0.568700	0.894200
H4171	H417	0.980800	0.634600	0.920100
H4181	H418	0.035000	0.609500	0.888400
H4191	H419	0.774300	0.805900	0.896600
H4201	H420	0.768900	0.780600	0.941000
H4211	H421	0.788600	0.728200	0.907100
H4221	H422	0.076000	0.757600	0.916900
H4231	H423	0.076800	0.838700	0.919500
H4241	H424	0.060000	0.802200	0.878800
H4251	H425	0.749900	0.665900	0.826100
H4261	H426	0.750100	0.637700	0.870100
H4271	H427	0.685600	0.625400	0.842600
H4281	H428	0.782300	0.355500	0.810900
H4291	H429	0.816200	0.366700	0.853000
H4301	H430	0.861400	0.372800	0.814200
H4311	H431	0.825700	0.451700	0.959800
H4321	H432	0.850200	0.477600	0.917700
H4331	H433	0.834100	0.399000	0.924500
H4341	H434	0.554600	0.506300	0.871700
H4351	H435	0.599500	0.478300	0.836200
H4361	H436	0.607100	0.555400	0.850000
H4371	H437	0.821000	0.731700	0.657000
H4381	H438	0.861800	0.795300	0.640000
H4391	H439	0.838900	0.794300	0.684900
H4401	H440	0.128800	0.695900	0.691100
H4411	H441	0.116100	0.692700	0.644800
H4421	H442	0.106700	0.626100	0.671000
H4431	H443	0.990300	0.658500	0.557100
H4441	H444	0.047000	0.647700	0.590100
H4451	H445	0.068200	0.673800	0.547400
H4461	H446	0.016700	0.936900	0.639400
H4471	H447	0.988400	0.881500	0.669500
H4481	H448	0.938300	0.916000	0.638500
C11	C1	0.689300	0.266500	0.915000
C21	C2	0.617900	0.284900	0.922300
C31	C3	0.559500	0.266900	0.899600
C41	C4	0.504100	0.298200	0.918000
C51	C5	0.431900	0.297100	0.907100
C61	C6	0.602200	0.306100	0.811900
C71	C7	0.580800	0.238800	0.826900
C81	C8	0.558700	0.220900	0.864600
C91	C9	0.539100	0.154600	0.863000
C101	C10	0.510200	0.107300	0.893900
C111	C11	0.799300	0.139100	0.686600
C121	C12	0.735900	0.102700	0.672200
C131	C13	0.723500	0.075200	0.634100
C141	C14	0.658000	0.047200	0.636700
C151	C15	0.613800	0.013400	0.605700
C161	C16	0.775000	0.206700	0.583800
C171	C17	0.791000	0.133200	0.577800
C181	C18	0.769400	0.076000	0.599100
C191	C19	0.799200	0.019000	0.582500
C201	C20	0.799400	0.945200	0.592700
C211	C21	0.628700	0.264900	0.656800
C221	C22	0.563100	0.234300	0.670900
C231	C23	0.499400	0.236500	0.652500
C241	C24	0.455800	0.199500	0.676800
C251	C25	0.381200	0.183500	0.674500
C261	C26	0.445300	0.179100	0.568500
C271	C27	0.457300	0.252700	0.580300
C281	C28	0.481500	0.275300	0.616800
C291	C29	0.488200	0.346400	0.612600
C301	C30	0.508900	0.401100	0.641200
C311	C31	0.766500	0.145200	0.837000
C321	C32	0.732800	0.078800	0.825900
C331	C33	0.735700	0.015400	0.845500
C341	C34	0.693100	0.972000	0.823400
C351	C35	0.675400	0.898700	0.829700
C361	C36	0.675700	0.966900	0.932300
C371	C37	0.749100	0.976200	0.918900
C381	C38	0.774000	0.998000	0.882000
C391	C39	0.844500	0.999800	0.885900
C401	C40	0.899500	0.015500	0.857100
C411	C41	0.723800	0.303300	0.736800
C421	C42	0.310700	0.733500	0.915000
C431	C43	0.382100	0.715100	0.922300
C441	C44	0.440500	0.733100	0.899600
C451	C45	0.495900	0.701800	0.918000
C461	C46	0.568100	0.702900	0.907100
C471	C47	0.397800	0.693900	0.811900
C481	C48	0.419200	0.761200	0.826900
C491	C49	0.441300	0.779100	0.864600
C501	C50	0.460900	0.845400	0.863000
C511	C51	0.489800	0.892700	0.893900
C521	C52	0.200700	0.860900	0.686600
C531	C53	0.264100	0.897300	0.672200
C541	C54	0.276500	0.924800	0.634100
C551	C55	0.342000	0.952800	0.636700
C561	C56	0.386200	0.986600	0.605700
C571	C57	0.225000	0.793300	0.583800
C581	C58	0.209000	0.866800	0.577800
C591	C59	0.230600	0.924000	0.599100
C601	C60	0.200800	0.981000	0.582500
C611	C61	0.200600	0.054800	0.592700
C621	C62	0.371300	0.735100	0.656800
C631	C63	0.436900	0.765700	0.670900
C641	C64	0.500600	0.763500	0.652500
C651	C65	0.544200	0.800500	0.676800
C661	C66	0.618800	0.816500	0.674500
C671	C67	0.554700	0.820900	0.568500
C681	C68	0.542700	0.747300	0.580300
C691	C69	0.518500	0.724700	0.616800
C701	C70	0.511800	0.653600	0.612600
C711	C71	0.491100	0.598900	0.641200
C721	C72	0.233500	0.854800	0.837000
C731	C73	0.267200	0.921200	0.825900
C741	C74	0.264300	0.984600	0.845500
C751	C75	0.306900	0.028000	0.823400
C761	C76	0.324600	0.101300	0.829700
C771	C77	0.324300	0.033100	0.932300
C781	C78	0.250900	0.023800	0.918900
C791	C79	0.226000	0.002000	0.882000
C801	C80	0.155500	0.000200	0.885900
C811	C81	0.100500	0.984500	0.857100
C821	C82	0.276200	0.696700	0.736800
C831	C83	0.733500	0.689300	0.415000
C841	C84	0.715100	0.617900	0.422300
C851	C85	0.733100	0.559500	0.399600
C861	C86	0.701800	0.504100	0.418000
C871	C87	0.702900	0.431900	0.407100
C881	C88	0.693900	0.602200	0.311900
C891	C89	0.761200	0.580800	0.326900
C901	C90	0.779100	0.558700	0.364600
C911	C91	0.845400	0.539100	0.363000
C921	C92	0.892700	0.510200	0.393900
C931	C93	0.860900	0.799300	0.186600
C941	C94	0.897300	0.735900	0.172200
C951	C95	0.924800	0.723500	0.134100
C961	C96	0.952800	0.658000	0.136700
C971	C97	0.986600	0.613800	0.105700
C981	C98	0.793300	0.775000	0.083800
C991	C99	0.866800	0.791000	0.077800
C1001	C100	0.924000	0.769400	0.099100
C1011	C101	0.981000	0.799200	0.082500
C1021	C102	0.054800	0.799400	0.092700
C1031	C103	0.735100	0.628700	0.156800
C1041	C104	0.765700	0.563100	0.170900
C1051	C105	0.763500	0.499400	0.152500
C1061	C106	0.800500	0.455800	0.176800
C1071	C107	0.816500	0.381200	0.174500
C1081	C108	0.820900	0.445300	0.068500
C1091	C109	0.747300	0.457300	0.080300
C1101	C110	0.724700	0.481500	0.116800
C1111	C111	0.653600	0.488200	0.112600
C1121	C112	0.598900	0.508900	0.141200
C1131	C113	0.854800	0.766500	0.337000
C1141	C114	0.921200	0.732800	0.325900
C1151	C115	0.984600	0.735700	0.345500
C1161	C116	0.028000	0.693100	0.323400
C1171	C117	0.101300	0.675400	0.329700
C1181	C118	0.033100	0.675700	0.432300
C1191	C119	0.023800	0.749100	0.418900
C1201	C120	0.002000	0.774000	0.382000
C1211	C121	0.000200	0.844500	0.385900
C1221	C122	0.984500	0.899500	0.357100
C1231	C123	0.696700	0.723800	0.236800
C1241	C124	0.266500	0.310700	0.415000
C1251	C125	0.284900	0.382100	0.422300
C1261	C126	0.266900	0.440500	0.399600
C1271	C127	0.298200	0.495900	0.418000
C1281	C128	0.297100	0.568100	0.407100
C1291	C129	0.306100	0.397800	0.311900
C1301	C130	0.238800	0.419200	0.326900
C1311	C131	0.220900	0.441300	0.364600
C1321	C132	0.154600	0.460900	0.363000
C1331	C133	0.107300	0.489800	0.393900
C1341	C134	0.139100	0.200700	0.186600
C1351	C135	0.102700	0.264100	0.172200
C1361	C136	0.075200	0.276500	0.134100
C1371	C137	0.047200	0.342000	0.136700
C1381	C138	0.013400	0.386200	0.105700
C1391	C139	0.206700	0.225000	0.083800
C1401	C140	0.133200	0.209000	0.077800
C1411	C141	0.076000	0.230600	0.099100
C1421	C142	0.019000	0.200800	0.082500
C1431	C143	0.945200	0.200600	0.092700
C1441	C144	0.264900	0.371300	0.156800
C1451	C145	0.234300	0.436900	0.170900
C1461	C146	0.236500	0.500600	0.152500
C1471	C147	0.199500	0.544200	0.176800
C1481	C148	0.183500	0.618800	0.174500
C1491	C149	0.179100	0.554700	0.068500
C1501	C150	0.252700	0.542700	0.080300
C1511	C151	0.275300	0.518500	0.116800
C1521	C152	0.346400	0.511800	0.112600
C1531	C153	0.401100	0.491100	0.141200
C1541	C154	0.145200	0.233500	0.337000
C1551	C155	0.078800	0.267200	0.325900
C1561	C156	0.015400	0.264300	0.345500
C1571	C157	0.972000	0.306900	0.323400
C1581	C158	0.898700	0.324600	0.329700
C1591	C159	0.966900	0.324300	0.432300
C1601	C160	0.976200	0.250900	0.418900
C1611	C161	0.998000	0.226000	0.382000
C1621	C162	0.999800	0.155500	0.385900
C1631	C163	0.015500	0.100500	0.357100
C1641	C164	0.303300	0.276200	0.236800
C1651	C165	0.310700	0.733500	0.085000
C1661	C166	0.382100	0.715100	0.077700
C1671	C167	0.440500	0.733100	0.100400
C1681	C168	0.495900	0.701800	0.082000
C1691	C169	0.568100	0.702900	0.092900
C1701	C170	0.397800	0.693900	0.188100
C1711	C171	0.419200	0.761200	0.173100
C1721	C172	0.441300	0.779100	0.135400
C1731	C173	0.460900	0.845400	0.137000
C1741	C174	0.489800	0.892700	0.106100
C1751	C175	0.200700	0.860900	0.313400
C1761	C176	0.264100	0.897300	0.327800
C1771	C177	0.276500	0.924800	0.365900
C1781	C178	0.342000	0.952800	0.363300
C1791	C179	0.386200	0.986600	0.394300
C1801	C180	0.225000	0.793300	0.416200
C1811	C181	0.209000	0.866800	0.422200
C1821	C182	0.230600	0.924000	0.400900
C1831	C183	0.200800	0.981000	0.417500
C1841	C184	0.200600	0.054800	0.407300
C1851	C185	0.371300	0.735100	0.343200
C1861	C186	0.436900	0.765700	0.329100
C1871	C187	0.500600	0.763500	0.347500
C1881	C188	0.544200	0.800500	0.323200
C1891	C189	0.618800	0.816500	0.325500
C1901	C190	0.554700	0.820900	0.431500
C1911	C191	0.542700	0.747300	0.419700
C1921	C192	0.518500	0.724700	0.383200
C1931	C193	0.511800	0.653600	0.387400
C1941	C194	0.491100	0.598900	0.358800
C1951	C195	0.233500	0.854800	0.163000
C1961	C196	0.267200	0.921200	0.174100
C1971	C197	0.264300	0.984600	0.154500
C1981	C198	0.306900	0.028000	0.176600
C1991	C199	0.324600	0.101300	0.170300
C2001	C200	0.324300	0.033100	0.067700
C2011	C201	0.250900	0.023800	0.081100
C2021	C202	0.226000	0.002000	0.118000
C2031	C203	0.155500	0.000200	0.114100
C2041	C204	0.100500	0.984500	0.142900
C2051	C205	0.276200	0.696700	0.263200
C2061	C206	0.689300	0.266500	0.085000
C2071	C207	0.617900	0.284900	0.077700
C2081	C208	0.559500	0.266900	0.100400
C2091	C209	0.504100	0.298200	0.082000
C2101	C210	0.431900	0.297100	0.092900
C2111	C211	0.602200	0.306100	0.188100
C2121	C212	0.580800	0.238800	0.173100
C2131	C213	0.558700	0.220900	0.135400
C2141	C214	0.539100	0.154600	0.137000
C2151	C215	0.510200	0.107300	0.106100
C2161	C216	0.799300	0.139100	0.313400
C2171	C217	0.735900	0.102700	0.327800
C2181	C218	0.723500	0.075200	0.365900
C2191	C219	0.658000	0.047200	0.363300
C2201	C220	0.613800	0.013400	0.394300
C2211	C221	0.775000	0.206700	0.416200
C2221	C222	0.791000	0.133200	0.422200
C2231	C223	0.769400	0.076000	0.400900
C2241	C224	0.799200	0.019000	0.417500
C2251	C225	0.799400	0.945200	0.407300
C2261	C226	0.628700	0.264900	0.343200
C2271	C227	0.563100	0.234300	0.329100
C2281	C228	0.499400	0.236500	0.347500
C2291	C229	0.455800	0.199500	0.323200
C2301	C230	0.381200	0.183500	0.325500
C2311	C231	0.445300	0.179100	0.431500
C2321	C232	0.457300	0.252700	0.419700
C2331	C233	0.481500	0.275300	0.383200
C2341	C234	0.488200	0.346400	0.387400
C2351	C235	0.508900	0.401100	0.358800
C2361	C236	0.766500	0.145200	0.163000
C2371	C237	0.732800	0.078800	0.174100
C2381	C238	0.735700	0.015400	0.154500
C2391	C239	0.693100	0.972000	0.176600
C2401	C240	0.675400	0.898700	0.170300
C2411	C241	0.675700	0.966900	0.067700
C2421	C242	0.749100	0.976200	0.081100
C2431	C243	0.774000	0.998000	0.118000
C2441	C244	0.844500	0.999800	0.114100
C2451	C245	0.899500	0.015500	0.142900
C2461	C246	0.723800	0.303300	0.263200
C2471	C247	0.266500	0.310700	0.585000
C2481	C248	0.284900	0.382100	0.577700
C2491	C249	0.266900	0.440500	0.600400
C2501	C250	0.298200	0.495900	0.582000
C2511	C251	0.297100	0.568100	0.592900
C2521	C252	0.306100	0.397800	0.688100
C2531	C253	0.238800	0.419200	0.673100
C2541	C254	0.220900	0.441300	0.635400
C2551	C255	0.154600	0.460900	0.637000
C2561	C256	0.107300	0.489800	0.606100
C2571	C257	0.139100	0.200700	0.813400
C2581	C258	0.102700	0.264100	0.827800
C2591	C259	0.075200	0.276500	0.865900
C2601	C260	0.047200	0.342000	0.863300
C2611	C261	0.013400	0.386200	0.894300
C2621	C262	0.206700	0.225000	0.916200
C2631	C263	0.133200	0.209000	0.922200
C2641	C264	0.076000	0.230600	0.900900
C2651	C265	0.019000	0.200800	0.917500
C2661	C266	0.945200	0.200600	0.907300
C2671	C267	0.264900	0.371300	0.843200
C2681	C268	0.234300	0.436900	0.829100
C2691	C269	0.236500	0.500600	0.847500
C2701	C270	0.199500	0.544200	0.823200
C2711	C271	0.183500	0.618800	0.825500
C2721	C272	0.179100	0.554700	0.931500
C2731	C273	0.252700	0.542700	0.919700
C2741	C274	0.275300	0.518500	0.883200
C2751	C275	0.346400	0.511800	0.887400
C2761	C276	0.401100	0.491100	0.858800
C2771	C277	0.145200	0.233500	0.663000
C2781	C278	0.078800	0.267200	0.674100
C2791	C279	0.015400	0.264300	0.654500
C2801	C280	0.972000	0.306900	0.676600
C2811	C281	0.898700	0.324600	0.670300
C2821	C282	0.966900	0.324300	0.567700
C2831	C283	0.976200	0.250900	0.581100
C2841	C284	0.998000	0.226000	0.618000
C2851	C285	0.999800	0.155500	0.614100
C2861	C286	0.015500	0.100500	0.642900
C2871	C287	0.303300	0.276200	0.763200
C2881	C288	0.733500	0.689300	0.585000
C2891	C289	0.715100	0.617900	0.577700
C2901	C290	0.733100	0.559500	0.600400
C2911	C291	0.701800	0.504100	0.582000
C2921	C292	0.702900	0.431900	0.592900
C2931	C293	0.693900	0.602200	0.688100
C2941	C294	0.761200	0.580800	0.673100
C2951	C295	0.779100	0.558700	0.635400
C2961	C296	0.845400	0.539100	0.637000
C2971	C297	0.892700	0.510200	0.606100
C2981	C298	0.860900	0.799300	0.813400
C2991	C299	0.897300	0.735900	0.827800
C3001	C300	0.924800	0.723500	0.865900
C3011	C301	0.952800	0.658000	0.863300
C3021	C302	0.986600	0.613800	0.894300
C3031	C303	0.793300	0.775000	0.916200
C3041	C304	0.866800	0.791000	0.922200
C3051	C305	0.924000	0.769400	0.900900
C3061	C306	0.981000	0.799200	0.917500
C3071	C307	0.054800	0.799400	0.907300
C3081	C308	0.735100	0.628700	0.843200
C3091	C309	0.765700	0.563100	0.829100
C3101	C310	0.763500	0.499400	0.847500
C3111	C311	0.800500	0.455800	0.823200
C3121	C312	0.816500	0.381200	0.825500
C3131	C313	0.820900	0.445300	0.931500
C3141	C314	0.747300	0.457300	0.919700
C3151	C315	0.724700	0.481500	0.883200
C3161	C316	0.653600	0.488200	0.887400
C3171	C317	0.598900	0.508900	0.858800
C3181	C318	0.854800	0.766500	0.663000
C3191	C319	0.921200	0.732800	0.674100
C3201	C320	0.984600	0.735700	0.654500
C3211	C321	0.028000	0.693100	0.676600
C3221	C322	0.101300	0.675400	0.670300
C3231	C323	0.033100	0.675700	0.567700
C3241	C324	0.023800	0.749100	0.581100
C3251	C325	0.002000	0.774000	0.618000
C3261	C326	0.000200	0.844500	0.614100
C3271	C327	0.984500	0.899500	0.642900
C3281	C328	0.696700	0.723800	0.763200
C3291	C329	0.826700	0.314400	0.000000
C3301	C330	0.173300	0.685600	0.000000
C3311	C331	0.685600	0.826700	0.500000
C3321	C332	0.314400	0.173300	0.500000
C3331	C333	0.825500	0.335300	0.500000
C3341	C334	0.174500	0.664700	0.500000
C3351	C335	0.664700	0.825500	0.000000
C3361	C336	0.335300	0.174500	0.000000
S11	S1	0.738210	0.380630	0.723040
S21	S2	0.261790	0.619370	0.723040
S31	S3	0.619370	0.738210	0.223040
S41	S4	0.380630	0.261790	0.223040
S51	S5	0.261790	0.619370	0.276960
S61	S6	0.738210	0.380630	0.276960
S71	S7	0.380630	0.261790	0.776960
S81	S8	0.619370	0.738210	0.776960
S91	S9	0.910400	0.301200	0.000000
S101	S10	0.089600	0.698800	0.000000
S111	S11	0.698800	0.910400	0.500000
S121	S12	0.301200	0.089600	0.500000
S131	S13	0.811100	0.419300	0.500000
S141	S14	0.188900	0.580700	0.500000
S151	S15	0.580700	0.811100	0.000000
S161	S16	0.419300	0.188900	0.000000
N11	N1	0.598900	0.325200	0.952110
N21	N2	0.530600	0.331800	0.949110
N31	N3	0.574800	0.185100	0.801590
N41	N4	0.549300	0.133500	0.825370
N51	N5	0.682700	0.093900	0.695330
N61	N6	0.636000	0.060100	0.673510
N71	N7	0.831500	0.112900	0.547340
N81	N8	0.836700	0.044200	0.551350
N91	N9	0.560500	0.196800	0.704740
N101	N10	0.494700	0.177100	0.707250
N111	N11	0.451100	0.303900	0.554650
N121	N12	0.470000	0.360200	0.575450
N131	N13	0.692800	0.074300	0.794070
N141	N14	0.669100	0.009000	0.793840
N151	N15	0.800500	0.965300	0.944540
N161	N16	0.857900	0.980000	0.922920
N171	N17	0.717200	0.246000	0.747000
N181	N18	0.401100	0.674800	0.952110
N191	N19	0.469400	0.668200	0.949110
N201	N20	0.425200	0.814900	0.801590
N211	N21	0.450700	0.866500	0.825370
N221	N22	0.317300	0.906100	0.695330
N231	N23	0.364000	0.939900	0.673510
N241	N24	0.168500	0.887100	0.547340
N251	N25	0.163300	0.955800	0.551350
N261	N26	0.439500	0.803200	0.704740
N271	N27	0.505300	0.822900	0.707250
N281	N28	0.548900	0.696100	0.554650
N291	N29	0.530000	0.639800	0.575450
N301	N30	0.307200	0.925700	0.794070
N311	N31	0.330900	0.991000	0.793840
N321	N32	0.199500	0.034700	0.944540
N331	N33	0.142100	0.020000	0.922920
N341	N34	0.282800	0.754000	0.747000
N351	N35	0.674800	0.598900	0.452110
N361	N36	0.668200	0.530600	0.449110
N371	N37	0.814900	0.574800	0.301590
N381	N38	0.866500	0.549300	0.325370
N391	N39	0.906100	0.682700	0.195330
N401	N40	0.939900	0.636000	0.173510
N411	N41	0.887100	0.831500	0.047340
N421	N42	0.955800	0.836700	0.051350
N431	N43	0.803200	0.560500	0.204740
N441	N44	0.822900	0.494700	0.207250
N451	N45	0.696100	0.451100	0.054650
N461	N46	0.639800	0.470000	0.075450
N471	N47	0.925700	0.692800	0.294070
N481	N48	0.991000	0.669100	0.293840
N491	N49	0.034700	0.800500	0.444540
N501	N50	0.020000	0.857900	0.422920
N511	N51	0.754000	0.717200	0.247000
N521	N52	0.325200	0.401100	0.452110
N531	N53	0.331800	0.469400	0.449110
N541	N54	0.185100	0.425200	0.301590
N551	N55	0.133500	0.450700	0.325370
N561	N56	0.093900	0.317300	0.195330
N571	N57	0.060100	0.364000	0.173510
N581	N58	0.112900	0.168500	0.047340
N591	N59	0.044200	0.163300	0.051350
N601	N60	0.196800	0.439500	0.204740
N611	N61	0.177100	0.505300	0.207250
N621	N62	0.303900	0.548900	0.054650
N631	N63	0.360200	0.530000	0.075450
N641	N64	0.074300	0.307200	0.294070
N651	N65	0.009000	0.330900	0.293840
N661	N66	0.965300	0.199500	0.444540
N671	N67	0.980000	0.142100	0.422920
N681	N68	0.246000	0.282800	0.247000
N691	N69	0.401100	0.674800	0.047890
N701	N70	0.469400	0.668200	0.050890
N711	N71	0.425200	0.814900	0.198410
N721	N72	0.450700	0.866500	0.174630
N731	N73	0.317300	0.906100	0.304670
N741	N74	0.364000	0.939900	0.326490
N751	N75	0.168500	0.887100	0.452660
N761	N76	0.163300	0.955800	0.448650
N771	N77	0.439500	0.803200	0.295260
N781	N78	0.505300	0.822900	0.292750
N791	N79	0.548900	0.696100	0.445350
N801	N80	0.530000	0.639800	0.424550
N811	N81	0.307200	0.925700	0.205930
N821	N82	0.330900	0.991000	0.206160
N831	N83	0.199500	0.034700	0.055460
N841	N84	0.142100	0.020000	0.077080
N851	N85	0.282800	0.754000	0.253000
N861	N86	0.598900	0.325200	0.047890
N871	N87	0.530600	0.331800	0.050890
N881	N88	0.574800	0.185100	0.198410
N891	N89	0.549300	0.133500	0.174630
N901	N90	0.682700	0.093900	0.304670
N911	N91	0.636000	0.060100	0.326490
N921	N92	0.831500	0.112900	0.452660
N931	N93	0.836700	0.044200	0.448650
N941	N94	0.560500	0.196800	0.295260
N951	N95	0.494700	0.177100	0.292750
N961	N96	0.451100	0.303900	0.445350
N971	N97	0.470000	0.360200	0.424550
N981	N98	0.692800	0.074300	0.205930
N991	N99	0.669100	0.009000	0.206160
N1001	N100	0.800500	0.965300	0.055460
N1011	N101	0.857900	0.980000	0.077080
N1021	N102	0.717200	0.246000	0.253000
N1031	N103	0.325200	0.401100	0.547890
N1041	N104	0.331800	0.469400	0.550890
N1051	N105	0.185100	0.425200	0.698410
N1061	N106	0.133500	0.450700	0.674630
N1071	N107	0.093900	0.317300	0.804670
N1081	N108	0.060100	0.364000	0.826490
N1091	N109	0.112900	0.168500	0.952660
N1101	N110	0.044200	0.163300	0.948650
N1111	N111	0.196800	0.439500	0.795260
N1121	N112	0.177100	0.505300	0.792750
N1131	N113	0.303900	0.548900	0.945350
N1141	N114	0.360200	0.530000	0.924550
N1151	N115	0.074300	0.307200	0.705930
N1161	N116	0.009000	0.330900	0.706160
N1171	N117	0.965300	0.199500	0.555460
N1181	N118	0.980000	0.142100	0.577080
N1191	N119	0.246000	0.282800	0.753000
N1201	N120	0.674800	0.598900	0.547890
N1211	N121	0.668200	0.530600	0.550890
N1221	N122	0.814900	0.574800	0.698410
N1231	N123	0.866500	0.549300	0.674630
N1241	N124	0.906100	0.682700	0.804670
N1251	N125	0.939900	0.636000	0.826490
N1261	N126	0.887100	0.831500	0.952660
N1271	N127	0.955800	0.836700	0.948650
N1281	N128	0.803200	0.560500	0.795260
N1291	N129	0.822900	0.494700	0.792750
N1301	N130	0.696100	0.451100	0.945350
N1311	N131	0.639800	0.470000	0.924550
N1321	N132	0.925700	0.692800	0.705930
N1331	N133	0.991000	0.669100	0.706160
N1341	N134	0.034700	0.800500	0.555460
N1351	N135	0.020000	0.857900	0.577080
N1361	N136	0.754000	0.717200	0.753000
N1371	N137	0.766400	0.319300	0.000000
N1381	N138	0.233600	0.680700	0.000000
N1391	N139	0.680700	0.766400	0.500000
N1401	N140	0.319300	0.233600	0.500000
N1411	N141	0.840300	0.279700	0.500000
N1421	N142	0.159700	0.720300	0.500000
N1431	N143	0.720300	0.840300	0.000000
N1441	N144	0.279700	0.159700	0.000000
