data_KINDOC_clean_PM
_symmetry_space_group_name_H-M	'P1'
_cell_length_a	9.955000
_cell_length_b	12.795000
_cell_length_c	13.801000
_cell_angle_alpha	69.415000
_cell_angle_beta	82.562000
_cell_angle_gamma	83.117000
_symmetry_Int_Tables_number 1

loop_
_symmetry_equiv_pos_as_xyz
'x,y,z'

loop_
_atom_site_label
_atom_site_type_symbol
_atom_site_fract_x
_atom_site_fract_y
_atom_site_fract_z
Tm11	Tm1	0.530190	0.640350	0.374810
Tm21	Tm2	0.469810	0.359650	0.625190
H11	H1	0.189700	0.938000	0.486500
H21	H2	0.261400	0.954500	0.374600
H31	H3	0.285500	0.840500	0.465000
H41	H4	0.689300	0.766900	0.617600
H51	H5	0.794900	0.857800	0.574700
H61	H6	0.705200	0.845800	0.679600
H71	H7	0.268300	0.435900	0.353400
H81	H8	0.145900	0.406000	0.309800
H91	H9	0.183700	0.530400	0.273000
H101	H10	0.179300	0.647200	0.587200
H111	H11	0.029800	0.671800	0.630300
H121	H12	0.114600	0.561300	0.689400
H131	H13	0.275100	0.896100	0.202000
H141	H14	0.254200	0.025300	0.181300
H151	H15	0.186100	0.973500	0.114200
H161	H16	0.715200	0.775300	0.094100
H171	H17	0.780500	0.834200	0.980900
H181	H18	0.803600	0.876400	0.070800
H191	H19	0.810300	0.062000	0.513500
H201	H20	0.738600	0.045500	0.625400
H211	H21	0.714500	0.159500	0.535000
H221	H22	0.310700	0.233100	0.382400
H231	H23	0.205100	0.142200	0.425300
H241	H24	0.294800	0.154200	0.320400
H251	H25	0.731700	0.564100	0.646600
H261	H26	0.854100	0.594000	0.690200
H271	H27	0.816300	0.469600	0.727000
H281	H28	0.820700	0.352800	0.412800
H291	H29	0.970200	0.328200	0.369700
H301	H30	0.885400	0.438700	0.310600
H311	H31	0.724900	0.103900	0.798000
H321	H32	0.745800	0.974700	0.818700
H331	H33	0.813900	0.026500	0.885800
H341	H34	0.284800	0.224700	0.905900
H351	H35	0.219500	0.165800	0.019100
H361	H36	0.196400	0.123600	0.929200
C11	C1	0.474400	0.764200	0.556300
C21	C2	0.488600	0.888100	0.526500
C31	C3	0.387500	0.962500	0.473600
C41	C4	0.270900	0.920200	0.447700
C51	C5	0.600800	0.923600	0.553200
C61	C6	0.707100	0.841100	0.611500
C71	C7	0.268300	0.573000	0.451500
C81	C8	0.128400	0.534300	0.478100
C91	C9	0.085100	0.480100	0.418300
C101	C10	0.179300	0.461400	0.330700
C111	C11	0.045600	0.555600	0.559600
C121	C12	0.096900	0.614200	0.622200
C131	C13	0.505200	0.817500	0.193700
C141	C14	0.501800	0.913100	0.092000
C151	C15	0.387000	0.986100	0.073600
C161	C16	0.264900	0.968700	0.149500
C171	C17	0.613900	0.926000	0.020800
C181	C18	0.739900	0.845600	0.043700
C191	C19	0.525600	0.235800	0.443700
C201	C20	0.511400	0.111900	0.473500
C211	C21	0.612500	0.037500	0.526400
C221	C22	0.729100	0.079800	0.552300
C231	C23	0.399200	0.076400	0.446800
C241	C24	0.292900	0.158900	0.388500
C251	C25	0.731700	0.427000	0.548500
C261	C26	0.871600	0.465700	0.521900
C271	C27	0.914900	0.519900	0.581700
C281	C28	0.820700	0.538600	0.669300
C291	C29	0.954400	0.444400	0.440400
C301	C30	0.903100	0.385800	0.377800
C311	C31	0.494800	0.182500	0.806300
C321	C32	0.498200	0.086900	0.908000
C331	C33	0.613000	0.013900	0.926400
C341	C34	0.735100	0.031300	0.850500
C351	C35	0.386100	0.074000	0.979200
C361	C36	0.260100	0.154400	0.956300
O11	O1	0.528500	0.715100	0.494400
O21	O2	0.410700	0.715600	0.638700
O31	O3	0.289700	0.664100	0.382500
O41	O4	0.366800	0.513100	0.496700
O51	O5	0.507900	0.836400	0.276500
O61	O6	0.505700	0.719400	0.196400
O71	O7	0.471500	0.284900	0.505600
O81	O8	0.589300	0.284400	0.361300
O91	O9	0.710300	0.335900	0.617500
O101	O10	0.633200	0.486900	0.503300
O111	O11	0.492100	0.163600	0.723500
O121	O12	0.494300	0.280600	0.803600
