data_KINFAQ_clean_PM
_symmetry_space_group_name_H-M	'P1'
_cell_length_a	10.970900
_cell_length_b	10.970900
_cell_length_c	18.842000
_cell_angle_alpha	73.369600
_cell_angle_beta	73.369600
_cell_angle_gamma	74.308000
_symmetry_Int_Tables_number 1

loop_
_symmetry_equiv_pos_as_xyz
'x,y,z'

loop_
_atom_site_label
_atom_site_type_symbol
_atom_site_fract_x
_atom_site_fract_y
_atom_site_fract_z
Tm11	Tm1	0.438450	0.554970	0.605370
Tm21	Tm2	0.445030	0.561550	0.894630
Tm31	Tm3	0.561550	0.445030	0.394630
Tm41	Tm4	0.554970	0.438450	0.105370
H11	H1	0.584800	0.841400	0.564500
H21	H2	0.587700	0.048300	0.512300
H31	H3	0.489300	0.126300	0.722000
H41	H4	0.490000	0.899800	0.771600
H51	H5	0.972000	0.422000	0.405100
H61	H6	0.821600	0.549800	0.595000
H71	H7	0.158600	0.415200	0.935500
H81	H8	0.951700	0.412300	0.987700
H91	H9	0.873700	0.510700	0.778000
H101	H10	0.100200	0.510000	0.728400
H111	H11	0.578000	0.028000	0.094900
H121	H12	0.450200	0.178400	0.905000
H131	H13	0.415200	0.158600	0.435500
H141	H14	0.412300	0.951700	0.487700
H151	H15	0.510700	0.873700	0.278000
H161	H16	0.510000	0.100200	0.228400
H171	H17	0.028000	0.578000	0.594900
H181	H18	0.178400	0.450200	0.405000
H191	H19	0.841400	0.584800	0.064500
H201	H20	0.048300	0.587700	0.012300
H211	H21	0.126300	0.489300	0.222000
H221	H22	0.899800	0.490000	0.271600
H231	H23	0.422000	0.972000	0.905100
H241	H24	0.549800	0.821600	0.095000
C11	C1	0.535400	0.706000	0.709700
C21	C2	0.547200	0.851600	0.671100
C31	C3	0.569700	0.897700	0.595900
C41	C4	0.569400	0.022000	0.565000
C51	C5	0.543600	0.117400	0.607500
C61	C6	0.527300	0.257500	0.572000
C71	C7	0.510800	0.070000	0.689600
C81	C8	0.512600	0.932600	0.719400
C91	C9	0.740900	0.491900	0.494500
C101	C10	0.876300	0.493300	0.497600
C111	C11	0.981700	0.455700	0.442700
C121	C12	0.892100	0.532100	0.555700
C131	C13	0.294000	0.464600	0.790300
C141	C14	0.148400	0.452800	0.828900
C151	C15	0.102300	0.430300	0.904100
C161	C16	0.978000	0.430600	0.935000
C171	C17	0.882600	0.456400	0.892500
C181	C18	0.742500	0.472700	0.928000
C191	C19	0.930000	0.489200	0.810400
C201	C20	0.067400	0.487400	0.780600
C211	C21	0.508100	0.259100	0.005500
C221	C22	0.506700	0.123700	0.002400
C231	C23	0.544300	0.018300	0.057300
C241	C24	0.467900	0.107900	0.944300
C251	C25	0.464600	0.294000	0.290300
C261	C26	0.452800	0.148400	0.328900
C271	C27	0.430300	0.102300	0.404100
C281	C28	0.430600	0.978000	0.435000
C291	C29	0.456400	0.882600	0.392500
C301	C30	0.472700	0.742500	0.428000
C311	C31	0.489200	0.930000	0.310400
C321	C32	0.487400	0.067400	0.280600
C331	C33	0.259100	0.508100	0.505500
C341	C34	0.123700	0.506700	0.502400
C351	C35	0.018300	0.544300	0.557300
C361	C36	0.107900	0.467900	0.444300
C371	C37	0.706000	0.535400	0.209700
C381	C38	0.851600	0.547200	0.171100
C391	C39	0.897700	0.569700	0.095900
C401	C40	0.022000	0.569400	0.065000
C411	C41	0.117400	0.543600	0.107500
C421	C42	0.257500	0.527300	0.072000
C431	C43	0.070000	0.510800	0.189600
C441	C44	0.932600	0.512600	0.219400
C451	C45	0.491900	0.740900	0.994500
C461	C46	0.493300	0.876300	0.997600
C471	C47	0.455700	0.981700	0.942700
C481	C48	0.532100	0.892100	0.055700
O11	O1	0.530500	0.648900	0.663100
O21	O2	0.531900	0.669100	0.775700
O31	O3	0.548200	0.295200	0.503200
O41	O4	0.492300	0.332700	0.617200
O51	O5	0.659400	0.508200	0.553500
O61	O6	0.723000	0.474400	0.438800
O71	O7	0.351100	0.469500	0.836900
O81	O8	0.330900	0.468100	0.724300
O91	O9	0.704800	0.451800	0.996800
O101	O10	0.667300	0.507700	0.882800
O111	O11	0.491800	0.340600	0.946500
O121	O12	0.525600	0.277000	0.061200
O131	O13	0.469500	0.351100	0.336900
O141	O14	0.468100	0.330900	0.224300
O151	O15	0.451800	0.704800	0.496800
O161	O16	0.507700	0.667300	0.382800
O171	O17	0.340600	0.491800	0.446500
O181	O18	0.277000	0.525600	0.561200
O191	O19	0.648900	0.530500	0.163100
O201	O20	0.669100	0.531900	0.275700
O211	O21	0.295200	0.548200	0.003200
O221	O22	0.332700	0.492300	0.117200
O231	O23	0.508200	0.659400	0.053500
O241	O24	0.474400	0.723000	0.938800
