data_KINNIG_clean_PM
_symmetry_space_group_name_H-M	'P1'
_cell_length_a	22.176000
_cell_length_b	9.636000
_cell_length_c	11.293100
_cell_angle_alpha	90.000000
_cell_angle_beta	90.000000
_cell_angle_gamma	90.000000
_symmetry_Int_Tables_number 1

loop_
_symmetry_equiv_pos_as_xyz
'x,y,z'

loop_
_atom_site_label
_atom_site_type_symbol
_atom_site_fract_x
_atom_site_fract_y
_atom_site_fract_z
F11	F1	0.562510	0.353900	0.560170
F21	F2	0.445150	0.361170	0.563260
N11	N1	0.700310	0.118000	0.900200
N21	N2	0.305170	0.109800	0.890200
C11	C1	0.534950	0.302200	0.656700
C21	C2	0.472720	0.304300	0.657800
C31	C3	0.337190	0.171600	0.829100
C41	C4	0.669940	0.177500	0.834300
F31	F3	0.937490	0.646100	0.560170
F41	F4	0.054850	0.638830	0.563260
N31	N3	0.799690	0.882000	0.900200
N41	N4	0.194830	0.890200	0.890200
C51	C5	0.965050	0.697800	0.656700
C61	C6	0.027280	0.695700	0.657800
C71	C7	0.162810	0.828400	0.829100
C81	C8	0.830060	0.822500	0.834300
F51	F5	0.937490	0.853900	0.939830
F61	F6	0.054850	0.861170	0.936740
N51	N5	0.799690	0.618000	0.599800
N61	N6	0.194830	0.609800	0.609800
C91	C9	0.965050	0.802200	0.843300
C101	C10	0.027280	0.804300	0.842200
C111	C11	0.162810	0.671600	0.670900
C121	C12	0.830060	0.677500	0.665700
F71	F7	0.562510	0.146100	0.939830
F81	F8	0.445150	0.138830	0.936740
N71	N7	0.700310	0.382000	0.599800
N81	N8	0.305170	0.390200	0.609800
C131	C13	0.534950	0.197800	0.843300
C141	C14	0.472720	0.195700	0.842200
C151	C15	0.337190	0.328400	0.670900
C161	C16	0.669940	0.322500	0.665700
F91	F9	0.437490	0.646100	0.439830
F101	F10	0.554850	0.638830	0.436740
N91	N9	0.299690	0.882000	0.099800
N101	N10	0.694830	0.890200	0.109800
C171	C17	0.465050	0.697800	0.343300
C181	C18	0.527280	0.695700	0.342200
C191	C19	0.662810	0.828400	0.170900
C201	C20	0.330060	0.822500	0.165700
F111	F11	0.062510	0.353900	0.439830
F121	F12	0.945150	0.361170	0.436740
N111	N11	0.200310	0.118000	0.099800
N121	N12	0.805170	0.109800	0.109800
C211	C21	0.034950	0.302200	0.343300
C221	C22	0.972720	0.304300	0.342200
C231	C23	0.837190	0.171600	0.170900
C241	C24	0.169940	0.177500	0.165700
F131	F13	0.062510	0.146100	0.060170
F141	F14	0.945150	0.138830	0.063260
N131	N13	0.200310	0.382000	0.400200
N141	N14	0.805170	0.390200	0.390200
C251	C25	0.034950	0.197800	0.156700
C261	C26	0.972720	0.195700	0.157800
C271	C27	0.837190	0.328400	0.329100
C281	C28	0.169940	0.322500	0.334300
F151	F15	0.437490	0.853900	0.060170
F161	F16	0.554850	0.861170	0.063260
N151	N15	0.299690	0.618000	0.400200
N161	N16	0.694830	0.609800	0.390200
C291	C29	0.465050	0.802200	0.156700
C301	C30	0.527280	0.804300	0.157800
C311	C31	0.662810	0.671600	0.329100
C321	C32	0.330060	0.677500	0.334300
Cu11	Cu1	0.250000	0.000000	0.991400
Cu21	Cu2	0.250000	0.500000	0.508600
Cu31	Cu3	0.750000	0.000000	0.008600
Cu41	Cu4	0.750000	0.500000	0.491400
C331	C33	0.635830	0.250000	0.750000
C341	C34	0.437750	0.250000	0.750000
C351	C35	0.371900	0.250000	0.750000
C361	C36	0.569820	0.250000	0.750000
C371	C37	0.864170	0.750000	0.750000
C381	C38	0.062250	0.750000	0.750000
C391	C39	0.128100	0.750000	0.750000
C401	C40	0.930180	0.750000	0.750000
C411	C41	0.364170	0.750000	0.250000
C421	C42	0.562250	0.750000	0.250000
C431	C43	0.628100	0.750000	0.250000
C441	C44	0.430180	0.750000	0.250000
C451	C45	0.135830	0.250000	0.250000
C461	C46	0.937750	0.250000	0.250000
C471	C47	0.871900	0.250000	0.250000
C481	C48	0.069820	0.250000	0.250000
