data_KIRKAZ_clean_PM
_symmetry_space_group_name_H-M	'P1'
_cell_length_a	13.437400
_cell_length_b	13.664500
_cell_length_c	16.627700
_cell_angle_alpha	90.000000
_cell_angle_beta	90.000000
_cell_angle_gamma	95.379000
_symmetry_Int_Tables_number 1

loop_
_symmetry_equiv_pos_as_xyz
'x,y,z'

loop_
_atom_site_label
_atom_site_type_symbol
_atom_site_fract_x
_atom_site_fract_y
_atom_site_fract_z
Co11	Co1	0.127120	0.218610	0.232650
Co21	Co2	0.372880	0.281390	0.732650
Co31	Co3	0.872880	0.781390	0.767350
Co41	Co4	0.627120	0.718610	0.267350
H11	H1	0.238600	0.063700	0.147100
H21	H2	0.313000	0.207600	0.342900
H31	H3	0.449400	0.969800	0.288000
H41	H4	0.210800	0.918200	0.106500
H51	H5	0.486800	0.878600	0.182900
H61	H6	0.352500	0.698600	0.017600
H71	H7	0.214000	0.785300	0.023000
H81	H8	0.368000	0.187700	0.464500
H91	H9	0.620700	0.143200	0.580600
H101	H10	0.675900	0.062800	0.469400
H111	H11	0.578400	0.046300	0.355300
H121	H12	0.209200	0.387300	0.356400
H131	H13	0.303400	0.562900	0.178000
H141	H14	0.240100	0.404000	0.122900
H151	H15	0.350800	0.616900	0.337200
H161	H16	0.287000	0.554200	0.401200
H171	H17	0.095000	0.561400	0.391200
H181	H18	0.971800	0.665900	0.379500
H191	H19	0.168200	0.868800	0.282900
H201	H20	0.291200	0.763300	0.292700
H211	H21	0.913000	0.808200	0.308700
H221	H22	0.964100	0.871700	0.378400
H231	H23	0.042100	0.039500	0.343100
H241	H24	0.028100	0.036300	0.108900
H251	H25	0.971100	0.871000	0.155400
H261	H26	0.261400	0.436300	0.647100
H271	H27	0.187000	0.292400	0.842900
H281	H28	0.050600	0.530200	0.788000
H291	H29	0.289200	0.581800	0.606500
H301	H30	0.013200	0.621400	0.682900
H311	H31	0.147500	0.801400	0.517600
H321	H32	0.286000	0.714700	0.523000
H331	H33	0.132000	0.312300	0.964500
H341	H34	0.879300	0.356800	0.080600
H351	H35	0.824100	0.437200	0.969400
H361	H36	0.921600	0.453700	0.855300
H371	H37	0.290800	0.112700	0.856400
H381	H38	0.196600	0.937100	0.678000
H391	H39	0.259900	0.096000	0.622900
H401	H40	0.149200	0.883100	0.837200
H411	H41	0.213000	0.945800	0.901200
H421	H42	0.405000	0.938600	0.891200
H431	H43	0.528200	0.834100	0.879500
H441	H44	0.331800	0.631200	0.782900
H451	H45	0.208800	0.736700	0.792700
H461	H46	0.587000	0.691800	0.808700
H471	H47	0.535900	0.628300	0.878400
H481	H48	0.457900	0.460500	0.843100
H491	H49	0.471900	0.463700	0.608900
H501	H50	0.528900	0.629000	0.655400
H511	H51	0.761400	0.936300	0.852900
H521	H52	0.687000	0.792400	0.657100
H531	H53	0.550600	0.030200	0.712000
H541	H54	0.789200	0.081800	0.893500
H551	H55	0.513200	0.121400	0.817100
H561	H56	0.647500	0.301400	0.982400
H571	H57	0.786000	0.214700	0.977000
H581	H58	0.632000	0.812300	0.535500
H591	H59	0.379300	0.856800	0.419400
H601	H60	0.324100	0.937200	0.530600
H611	H61	0.421600	0.953700	0.644700
H621	H62	0.790800	0.612700	0.643600
H631	H63	0.696600	0.437100	0.822000
H641	H64	0.759900	0.596000	0.877100
H651	H65	0.649200	0.383100	0.662800
H661	H66	0.713000	0.445800	0.598800
H671	H67	0.905000	0.438600	0.608800
H681	H68	0.028200	0.334100	0.620500
H691	H69	0.831800	0.131200	0.717100
H701	H70	0.708800	0.236700	0.707300
H711	H71	0.087000	0.191800	0.691300
H721	H72	0.035900	0.128300	0.621600
H731	H73	0.957900	0.960500	0.656900
H741	H74	0.971900	0.963700	0.891100
H751	H75	0.028900	0.129000	0.844600
H761	H76	0.738600	0.563700	0.352900
H771	H77	0.813000	0.707600	0.157100
H781	H78	0.949400	0.469800	0.212000
H791	H79	0.710800	0.418200	0.393500
H801	H80	0.986800	0.378600	0.317100
H811	H81	0.852500	0.198600	0.482400
H821	H82	0.714000	0.285300	0.477000
H831	H83	0.868000	0.687700	0.035500
H841	H84	0.120700	0.643200	0.919400
H851	H85	0.175900	0.562800	0.030600
H861	H86	0.078400	0.546300	0.144700
H871	H87	0.709200	0.887300	0.143600
H881	H88	0.803400	0.062900	0.322000
H891	H89	0.740100	0.904000	0.377100
H901	H90	0.850800	0.116900	0.162800
H911	H91	0.787000	0.054200	0.098800
H921	H92	0.595000	0.061400	0.108800
H931	H93	0.471800	0.165900	0.120500
H941	H94	0.668200	0.368800	0.217100
H951	H95	0.791200	0.263300	0.207300
H961	H96	0.413000	0.308200	0.191300
H971	H97	0.464100	0.371700	0.121600
H981	H98	0.542100	0.539500	0.156900
H991	H99	0.528100	0.536300	0.391100
H1001	H100	0.471100	0.371000	0.344600
C11	C1	0.276200	0.069230	0.194140
C21	C2	0.321640	0.155430	0.308470
C31	C3	0.395680	0.094570	0.326680
C41	C4	0.403400	0.014480	0.276070
C51	C5	0.344020	0.999920	0.208300
C61	C6	0.348900	0.914270	0.153680
C71	C7	0.267400	0.883900	0.105080
C81	C8	0.431600	0.859990	0.150750
C91	C9	0.433300	0.778360	0.100610
C101	C10	0.351600	0.751900	0.052230
C111	C11	0.269100	0.804200	0.055200
C121	C12	0.522700	0.719800	0.097200
C131	C13	0.460960	0.112580	0.398180
C141	C14	0.429800	0.162290	0.465270
C151	C15	0.489390	0.174690	0.533370
C161	C16	0.581100	0.136400	0.534750
C171	C17	0.614000	0.088100	0.468370
C181	C18	0.555000	0.077400	0.400360
C191	C19	0.451900	0.222750	0.606630
C201	C20	0.224600	0.410700	0.304900
C211	C21	0.277200	0.508400	0.207100
C221	C22	0.241600	0.420600	0.177130
C231	C23	0.286000	0.581600	0.347500
C241	C24	0.205900	0.651700	0.342300
C251	C25	0.109800	0.623400	0.368600
C261	C26	0.036100	0.685900	0.361800
C271	C27	0.056700	0.778200	0.328920
C281	C28	0.152900	0.806300	0.304200
C291	C29	0.226800	0.743300	0.310400
C301	C30	0.974600	0.845700	0.325100
C311	C31	0.031400	0.018800	0.290240
C321	C32	0.023700	0.016400	0.162340
C331	C33	0.991900	0.924900	0.187400
C341	C34	0.223800	0.430770	0.694140
C351	C35	0.178360	0.344570	0.808470
C361	C36	0.104320	0.405430	0.826680
C371	C37	0.096600	0.485520	0.776070
C381	C38	0.155980	0.500080	0.708300
C391	C39	0.151100	0.585730	0.653680
C401	C40	0.232600	0.616100	0.605080
C411	C41	0.068400	0.640010	0.650750
C421	C42	0.066700	0.721640	0.600610
C431	C43	0.148400	0.748100	0.552230
C441	C44	0.230900	0.695800	0.555200
C451	C45	0.977300	0.780200	0.597200
C461	C46	0.039040	0.387420	0.898180
C471	C47	0.070200	0.337710	0.965270
C481	C48	0.010610	0.325310	0.033370
C491	C49	0.918900	0.363600	0.034750
C501	C50	0.886000	0.411900	0.968370
C511	C51	0.945000	0.422600	0.900360
C521	C52	0.048100	0.277250	0.106630
C531	C53	0.275400	0.089300	0.804900
C541	C54	0.222800	0.991600	0.707100
C551	C55	0.258400	0.079400	0.677130
C561	C56	0.214000	0.918400	0.847500
C571	C57	0.294100	0.848300	0.842300
C581	C58	0.390200	0.876600	0.868600
C591	C59	0.463900	0.814100	0.861800
C601	C60	0.443300	0.721800	0.828920
C611	C61	0.347100	0.693700	0.804200
C621	C62	0.273200	0.756700	0.810400
C631	C63	0.525400	0.654300	0.825100
C641	C64	0.468600	0.481200	0.790240
C651	C65	0.476300	0.483600	0.662340
C661	C66	0.508100	0.575100	0.687400
C671	C67	0.723800	0.930770	0.805860
C681	C68	0.678360	0.844570	0.691530
C691	C69	0.604320	0.905430	0.673320
C701	C70	0.596600	0.985520	0.723930
C711	C71	0.655980	0.000080	0.791700
C721	C72	0.651100	0.085730	0.846320
C731	C73	0.732600	0.116100	0.894920
C741	C74	0.568400	0.140010	0.849250
C751	C75	0.566700	0.221640	0.899390
C761	C76	0.648400	0.248100	0.947770
C771	C77	0.730900	0.195800	0.944800
C781	C78	0.477300	0.280200	0.902800
C791	C79	0.539040	0.887420	0.601820
C801	C80	0.570200	0.837710	0.534730
C811	C81	0.510610	0.825310	0.466630
C821	C82	0.418900	0.863600	0.465250
C831	C83	0.386000	0.911900	0.531630
C841	C84	0.445000	0.922600	0.599640
C851	C85	0.548100	0.777250	0.393370
C861	C86	0.775400	0.589300	0.695100
C871	C87	0.722800	0.491600	0.792900
C881	C88	0.758400	0.579400	0.822870
C891	C89	0.714000	0.418400	0.652500
C901	C90	0.794100	0.348300	0.657700
C911	C91	0.890200	0.376600	0.631400
C921	C92	0.963900	0.314100	0.638200
C931	C93	0.943300	0.221800	0.671080
C941	C94	0.847100	0.193700	0.695800
C951	C95	0.773200	0.256700	0.689600
C961	C96	0.025400	0.154300	0.674900
C971	C97	0.968600	0.981200	0.709760
C981	C98	0.976300	0.983600	0.837660
C991	C99	0.008100	0.075100	0.812600
C1001	C100	0.776200	0.569230	0.305860
C1011	C101	0.821640	0.655430	0.191530
C1021	C102	0.895680	0.594570	0.173320
C1031	C103	0.903400	0.514480	0.223930
C1041	C104	0.844020	0.499920	0.291700
C1051	C105	0.848900	0.414270	0.346320
C1061	C106	0.767400	0.383900	0.394920
C1071	C107	0.931600	0.359990	0.349250
C1081	C108	0.933300	0.278360	0.399390
C1091	C109	0.851600	0.251900	0.447770
C1101	C110	0.769100	0.304200	0.444800
C1111	C111	0.022700	0.219800	0.402800
C1121	C112	0.960960	0.612580	0.101820
C1131	C113	0.929800	0.662290	0.034730
C1141	C114	0.989390	0.674690	0.966630
C1151	C115	0.081100	0.636400	0.965250
C1161	C116	0.114000	0.588100	0.031630
C1171	C117	0.055000	0.577400	0.099640
C1181	C118	0.951900	0.722750	0.893370
C1191	C119	0.724600	0.910700	0.195100
C1201	C120	0.777200	0.008400	0.292900
C1211	C121	0.741600	0.920600	0.322870
C1221	C122	0.786000	0.081600	0.152500
C1231	C123	0.705900	0.151700	0.157700
C1241	C124	0.609800	0.123400	0.131400
C1251	C125	0.536100	0.185900	0.138200
C1261	C126	0.556700	0.278200	0.171080
C1271	C127	0.652900	0.306300	0.195800
C1281	C128	0.726800	0.243300	0.189600
C1291	C129	0.474600	0.345700	0.174900
C1301	C130	0.531400	0.518800	0.209760
C1311	C131	0.523700	0.516400	0.337660
C1321	C132	0.491900	0.424900	0.312600
N11	N1	0.262220	0.143120	0.244200
N21	N2	0.207800	0.359200	0.238660
N31	N3	0.267140	0.501830	0.288530
N41	N4	0.996530	0.927520	0.269160
N51	N5	0.048730	0.075820	0.227020
N61	N6	0.237780	0.356880	0.744200
N71	N7	0.292200	0.140800	0.738660
N81	N8	0.232860	0.998170	0.788530
N91	N9	0.503470	0.572480	0.769160
N101	N10	0.451270	0.424180	0.727020
N111	N11	0.737780	0.856880	0.755800
N121	N12	0.792200	0.640800	0.761340
N131	N13	0.732860	0.498170	0.711470
N141	N14	0.003470	0.072480	0.730840
N151	N15	0.951270	0.924180	0.772980
N161	N16	0.762220	0.643120	0.255800
N171	N17	0.707800	0.859200	0.261340
N181	N18	0.767140	0.001830	0.211470
N191	N19	0.496530	0.427520	0.230840
N201	N20	0.548730	0.575820	0.272980
O11	O1	0.373880	0.268380	0.602500
O21	O2	0.495640	0.215220	0.672540
O31	O3	0.526100	0.659150	0.041570
O41	O4	0.590300	0.734850	0.149850
O51	O5	0.126120	0.231620	0.102500
O61	O6	0.004360	0.284780	0.172540
O71	O7	0.973900	0.840850	0.541570
O81	O8	0.909700	0.765150	0.649850
O91	O9	0.626120	0.731620	0.397500
O101	O10	0.504360	0.784780	0.327460
O111	O11	0.473900	0.340850	0.958430
O121	O12	0.409700	0.265150	0.850150
O131	O13	0.873880	0.768380	0.897500
O141	O14	0.995640	0.715220	0.827460
O151	O15	0.026100	0.159150	0.458430
O161	O16	0.090300	0.234850	0.350150
