data_KIRTOW_clean_PM
_symmetry_space_group_name_H-M	'P1'
_cell_length_a	13.130200
_cell_length_b	13.130200
_cell_length_c	17.455900
_cell_angle_alpha	90.000000
_cell_angle_beta	90.000000
_cell_angle_gamma	120.000000
_symmetry_Int_Tables_number 1

loop_
_symmetry_equiv_pos_as_xyz
'x,y,z'

loop_
_atom_site_label
_atom_site_type_symbol
_atom_site_fract_x
_atom_site_fract_y
_atom_site_fract_z
Al11	Al1	0.292040	0.856780	0.458590
P11	P1	0.160090	0.973260	0.371180
H11	H1	0.250000	0.055000	0.341300
P21	P2	0.126230	0.630920	0.555150
H21	H2	0.191000	0.692000	0.624000
O11	O1	0.190400	0.879500	0.392370
O21	O2	0.131200	0.024900	0.440150
O31	O3	0.065300	0.926300	0.309830
O41	O4	0.156600	0.724800	0.494400
O51	O5	0.996700	0.574700	0.575200
O61	O6	0.164700	0.544500	0.534500
O71	O7	0.320100	0.771500	0.384400
Al21	Al2	0.143220	0.435260	0.458590
P31	P3	0.026740	0.186830	0.371180
H31	H3	0.945000	0.195000	0.341300
P41	P4	0.369080	0.495310	0.555150
H41	H4	0.308000	0.499000	0.624000
O81	O8	0.120500	0.310900	0.392370
O91	O9	0.975100	0.106300	0.440150
O101	O10	0.073700	0.139000	0.309830
O111	O11	0.275200	0.431800	0.494400
O121	O12	0.425300	0.422000	0.575200
O131	O13	0.455500	0.620200	0.534500
O141	O14	0.228500	0.548600	0.384400
Al31	Al3	0.564740	0.707960	0.458590
P51	P5	0.813170	0.839910	0.371180
H51	H5	0.805000	0.750000	0.341300
P61	P6	0.504690	0.873770	0.555150
H61	H6	0.501000	0.809000	0.624000
O151	O15	0.689100	0.809600	0.392370
O161	O16	0.893700	0.868800	0.440150
O171	O17	0.861000	0.934700	0.309830
O181	O18	0.568200	0.843400	0.494400
O191	O19	0.578000	0.003300	0.575200
O201	O20	0.379800	0.835300	0.534500
O211	O21	0.451400	0.679900	0.384400
Al41	Al4	0.856780	0.292040	0.041410
P71	P7	0.973260	0.160090	0.128820
H71	H7	0.055000	0.250000	0.158700
P81	P8	0.630920	0.126230	0.944850
H81	H8	0.692000	0.191000	0.876000
O221	O22	0.879500	0.190400	0.107630
O231	O23	0.024900	0.131200	0.059850
O241	O24	0.926300	0.065300	0.190170
O251	O25	0.724800	0.156600	0.005600
O261	O26	0.574700	0.996700	0.924800
O271	O27	0.544500	0.164700	0.965500
O281	O28	0.771500	0.320100	0.115600
Al51	Al5	0.435260	0.143220	0.041410
P91	P9	0.186830	0.026740	0.128820
H91	H9	0.195000	0.945000	0.158700
P101	P10	0.495310	0.369080	0.944850
H101	H10	0.499000	0.308000	0.876000
O291	O29	0.310900	0.120500	0.107630
O301	O30	0.106300	0.975100	0.059850
O311	O31	0.139000	0.073700	0.190170
O321	O32	0.431800	0.275200	0.005600
O331	O33	0.422000	0.425300	0.924800
O341	O34	0.620200	0.455500	0.965500
O351	O35	0.548600	0.228500	0.115600
Al61	Al6	0.707960	0.564740	0.041410
P111	P11	0.839910	0.813170	0.128820
H111	H11	0.750000	0.805000	0.158700
P121	P12	0.873770	0.504690	0.944850
H121	H12	0.809000	0.501000	0.876000
O361	O36	0.809600	0.689100	0.107630
O371	O37	0.868800	0.893700	0.059850
O381	O38	0.934700	0.861000	0.190170
O391	O39	0.843400	0.568200	0.005600
O401	O40	0.003300	0.578000	0.924800
O411	O41	0.835300	0.379800	0.965500
O421	O42	0.679900	0.451400	0.115600
Al71	Al7	0.707960	0.143220	0.541410
P131	P13	0.839910	0.026740	0.628820
H131	H13	0.750000	0.945000	0.658700
P141	P14	0.873770	0.369080	0.444850
H141	H14	0.809000	0.308000	0.376000
O431	O43	0.809600	0.120500	0.607630
O441	O44	0.868800	0.975100	0.559850
O451	O45	0.934700	0.073700	0.690170
O461	O46	0.843400	0.275200	0.505600
O471	O47	0.003300	0.425300	0.424800
O481	O48	0.835300	0.455500	0.465500
O491	O49	0.679900	0.228500	0.615600
Al81	Al8	0.856780	0.564740	0.541410
P151	P15	0.973260	0.813170	0.628820
H151	H15	0.055000	0.805000	0.658700
P161	P16	0.630920	0.504690	0.444850
H161	H16	0.692000	0.501000	0.376000
O501	O50	0.879500	0.689100	0.607630
O511	O51	0.024900	0.893700	0.559850
O521	O52	0.926300	0.861000	0.690170
O531	O53	0.724800	0.568200	0.505600
O541	O54	0.574700	0.578000	0.424800
O551	O55	0.544500	0.379800	0.465500
O561	O56	0.771500	0.451400	0.615600
Al91	Al9	0.435260	0.292040	0.541410
P171	P17	0.186830	0.160090	0.628820
H171	H17	0.195000	0.250000	0.658700
P181	P18	0.495310	0.126230	0.444850
H181	H18	0.499000	0.191000	0.376000
O571	O57	0.310900	0.190400	0.607630
O581	O58	0.106300	0.131200	0.559850
O591	O59	0.139000	0.065300	0.690170
O601	O60	0.431800	0.156600	0.505600
O611	O61	0.422000	0.996700	0.424800
O621	O62	0.620200	0.164700	0.465500
O631	O63	0.548600	0.320100	0.615600
Al101	Al10	0.143220	0.707960	0.958590
P191	P19	0.026740	0.839910	0.871180
H191	H19	0.945000	0.750000	0.841300
P201	P20	0.369080	0.873770	0.055150
H201	H20	0.308000	0.809000	0.124000
O641	O64	0.120500	0.809600	0.892370
O651	O65	0.975100	0.868800	0.940150
O661	O66	0.073700	0.934700	0.809830
O671	O67	0.275200	0.843400	0.994400
O681	O68	0.425300	0.003300	0.075200
O691	O69	0.455500	0.835300	0.034500
O701	O70	0.228500	0.679900	0.884400
Al111	Al11	0.564740	0.856780	0.958590
P211	P21	0.813170	0.973260	0.871180
H211	H21	0.805000	0.055000	0.841300
P221	P22	0.504690	0.630920	0.055150
H221	H22	0.501000	0.692000	0.124000
O711	O71	0.689100	0.879500	0.892370
O721	O72	0.893700	0.024900	0.940150
O731	O73	0.861000	0.926300	0.809830
O741	O74	0.568200	0.724800	0.994400
O751	O75	0.578000	0.574700	0.075200
O761	O76	0.379800	0.544500	0.034500
O771	O77	0.451400	0.771500	0.884400
Al121	Al12	0.292040	0.435260	0.958590
P231	P23	0.160090	0.186830	0.871180
H231	H23	0.250000	0.195000	0.841300
P241	P24	0.126230	0.495310	0.055150
H241	H24	0.191000	0.499000	0.124000
O781	O78	0.190400	0.310900	0.892370
O791	O79	0.131200	0.106300	0.940150
O801	O80	0.065300	0.139000	0.809830
O811	O81	0.156600	0.431800	0.994400
O821	O82	0.996700	0.422000	0.075200
O831	O83	0.164700	0.620200	0.034500
O841	O84	0.320100	0.548600	0.884400
Al131	Al13	0.000000	0.000000	0.250000
Al141	Al14	0.000000	0.000000	0.750000
Al151	Al15	0.000000	0.000000	0.500000
Al161	Al16	0.000000	0.000000	0.000000
P251	P25	0.333330	0.666670	0.363050
H251	H25	0.333330	0.666670	0.281000
P261	P26	0.666670	0.333330	0.136950
H261	H26	0.666670	0.333330	0.219000
P271	P27	0.666670	0.333330	0.636950
H271	H27	0.666670	0.333330	0.719000
P281	P28	0.333330	0.666670	0.863050
H281	H28	0.333330	0.666670	0.781000
