data_KISPOS_ion_b_PM
_symmetry_space_group_name_H-M	'P1'
_cell_length_a	29.915500
_cell_length_b	29.915500
_cell_length_c	29.915500
_cell_angle_alpha	33.403200
_cell_angle_beta	33.403200
_cell_angle_gamma	33.403200
_symmetry_Int_Tables_number 1

loop_
_symmetry_equiv_pos_as_xyz
'x,y,z'

loop_
_atom_site_label
_atom_site_type_symbol
_atom_site_fract_x
_atom_site_fract_y
_atom_site_fract_z
Co11	Co1	0.354690	0.279190	0.542490
Co21	Co2	0.259430	0.242190	0.561500
O31	O3	0.298150	0.331150	0.486650
O51	O5	0.174450	0.259450	0.671250
O61	O6	0.253180	0.247980	0.678480
O71	O7	0.934780	0.253180	0.070580
O81	O8	0.079380	0.210680	0.999680
C91	C9	0.186520	0.249020	0.711520
C101	C10	0.114570	0.232970	0.808970
C111	C11	0.032450	0.227750	0.947550
C121	C12	0.102460	0.240460	0.859160
H131	H13	0.141200	0.253900	0.833500
C141	C14	0.015880	0.231880	0.007480
C151	C15	0.060030	0.207330	0.850030
H161	H16	0.069400	0.200200	0.817400
C171	C17	0.991930	0.192430	0.938730
H181	H18	0.955900	0.174900	0.966100
C191	C19	0.977750	0.203950	0.986450
H201	H20	0.930800	0.195500	0.045600
O211	O21	0.841200	0.464700	0.550400
O221	O22	0.882320	0.397520	0.639220
O231	O23	0.237500	0.429700	0.362800
O241	O24	0.165740	0.349740	0.511340
C251	C25	0.895360	0.434560	0.562860
C261	C26	0.982060	0.444460	0.480660
C271	C27	0.118520	0.429620	0.416520
C281	C28	0.039360	0.419560	0.490560
H291	H29	0.024300	0.395500	0.548100
C301	C30	0.177540	0.401740	0.431340
C311	C31	0.004020	0.480820	0.394620
H321	H32	0.965700	0.498600	0.386900
C331	C33	0.083950	0.490150	0.320150
H341	H34	0.099100	0.514000	0.262700
C351	C35	0.141560	0.464260	0.330760
H361	H36	0.195100	0.470100	0.280800
O371	O37	0.205360	0.164760	0.637860
H381	H38	0.221200	0.106200	0.679200
H391	H39	0.135900	0.192900	0.664900
Co451	Co45	0.542490	0.354690	0.279190
Co461	Co46	0.561500	0.259430	0.242190
O471	O47	0.486650	0.298150	0.331150
O491	O49	0.671250	0.174450	0.259450
O501	O50	0.678480	0.253180	0.247980
O511	O51	0.070580	0.934780	0.253180
O521	O52	0.999680	0.079380	0.210680
C531	C53	0.711520	0.186520	0.249020
C541	C54	0.808970	0.114570	0.232970
C551	C55	0.947550	0.032450	0.227750
C561	C56	0.859160	0.102460	0.240460
H571	H57	0.833500	0.141200	0.253900
C581	C58	0.007480	0.015880	0.231880
C591	C59	0.850030	0.060030	0.207330
H601	H60	0.817400	0.069400	0.200200
C611	C61	0.938730	0.991930	0.192430
H621	H62	0.966100	0.955900	0.174900
C631	C63	0.986450	0.977750	0.203950
H641	H64	0.045600	0.930800	0.195500
O651	O65	0.550400	0.841200	0.464700
O661	O66	0.639220	0.882320	0.397520
O671	O67	0.362800	0.237500	0.429700
O681	O68	0.511340	0.165740	0.349740
C691	C69	0.562860	0.895360	0.434560
C701	C70	0.480660	0.982060	0.444460
C711	C71	0.416520	0.118520	0.429620
C721	C72	0.490560	0.039360	0.419560
H731	H73	0.548100	0.024300	0.395500
C741	C74	0.431340	0.177540	0.401740
C751	C75	0.394620	0.004020	0.480820
H761	H76	0.386900	0.965700	0.498600
C771	C77	0.320150	0.083950	0.490150
H781	H78	0.262700	0.099100	0.514000
C791	C79	0.330760	0.141560	0.464260
H801	H80	0.280800	0.195100	0.470100
O811	O81	0.637860	0.205360	0.164760
H821	H82	0.679200	0.221200	0.106200
H831	H83	0.664900	0.135900	0.192900
Co891	Co89	0.279190	0.542490	0.354690
Co901	Co90	0.242190	0.561500	0.259430
O911	O91	0.331150	0.486650	0.298150
O931	O93	0.259450	0.671250	0.174450
O941	O94	0.247980	0.678480	0.253180
O951	O95	0.253180	0.070580	0.934780
O961	O96	0.210680	0.999680	0.079380
C971	C97	0.249020	0.711520	0.186520
C981	C98	0.232970	0.808970	0.114570
C991	C99	0.227750	0.947550	0.032450
C1001	C100	0.240460	0.859160	0.102460
H1011	H101	0.253900	0.833500	0.141200
C1021	C102	0.231880	0.007480	0.015880
C1031	C103	0.207330	0.850030	0.060030
H1041	H104	0.200200	0.817400	0.069400
C1051	C105	0.192430	0.938730	0.991930
H1061	H106	0.174900	0.966100	0.955900
C1071	C107	0.203950	0.986450	0.977750
H1081	H108	0.195500	0.045600	0.930800
O1091	O109	0.464700	0.550400	0.841200
O1101	O110	0.397520	0.639220	0.882320
O1111	O111	0.429700	0.362800	0.237500
O1121	O112	0.349740	0.511340	0.165740
C1131	C113	0.434560	0.562860	0.895360
C1141	C114	0.444460	0.480660	0.982060
C1151	C115	0.429620	0.416520	0.118520
C1161	C116	0.419560	0.490560	0.039360
H1171	H117	0.395500	0.548100	0.024300
C1181	C118	0.401740	0.431340	0.177540
C1191	C119	0.480820	0.394620	0.004020
H1201	H120	0.498600	0.386900	0.965700
C1211	C121	0.490150	0.320150	0.083950
H1221	H122	0.514000	0.262700	0.099100
C1231	C123	0.464260	0.330760	0.141560
H1241	H124	0.470100	0.280800	0.195100
O1251	O125	0.164760	0.637860	0.205360
H1261	H126	0.106200	0.679200	0.221200
H1271	H127	0.192900	0.664900	0.135900
Co1331	Co133	0.220810	0.145310	0.957510
Co1341	Co134	0.257810	0.240570	0.938500
O1351	O135	0.168850	0.201850	0.013350
O1371	O137	0.240550	0.325550	0.828750
O1381	O138	0.252020	0.246820	0.821520
O1391	O139	0.246820	0.565220	0.429420
O1401	O140	0.289320	0.420620	0.500320
C1411	C141	0.250980	0.313480	0.788480
C1421	C142	0.267030	0.385430	0.691030
C1431	C143	0.272250	0.467550	0.552450
C1441	C144	0.259540	0.397540	0.640840
H1451	H145	0.246100	0.358800	0.666500
C1461	C146	0.268120	0.484120	0.492520
C1471	C147	0.292670	0.439970	0.649970
H1481	H148	0.299800	0.430600	0.682600
C1491	C149	0.307570	0.508070	0.561270
H1501	H150	0.325100	0.544100	0.533900
C1511	C151	0.296050	0.522250	0.513550
H1521	H152	0.304500	0.569200	0.454400
O1531	O153	0.035300	0.658800	0.949600
O1541	O154	0.102480	0.617680	0.860780
O1551	O155	0.070300	0.262500	0.137200
O1561	O156	0.150260	0.334260	0.988660
C1571	C157	0.065440	0.604640	0.937140
C1581	C158	0.055540	0.517940	0.019340
C1591	C159	0.070380	0.381480	0.083480
C1601	C160	0.080440	0.460640	0.009440
H1611	H161	0.104500	0.475700	0.951900
C1621	C162	0.098260	0.322460	0.068660
C1631	C163	0.019180	0.495980	0.105380
H1641	H164	0.001400	0.534300	0.113100
C1651	C165	0.009850	0.416050	0.179850
H1661	H166	0.986000	0.400900	0.237300
C1671	C167	0.035740	0.358440	0.169240
H1681	H168	0.029900	0.304900	0.219200
O1691	O169	0.335240	0.294640	0.862140
H1701	H170	0.393800	0.278800	0.820800
H1711	H171	0.307100	0.364100	0.835100
Co1771	Co177	0.145310	0.957510	0.220810
Co1781	Co178	0.240570	0.938500	0.257810
O1791	O179	0.201850	0.013350	0.168850
O1811	O181	0.325550	0.828750	0.240550
O1821	O182	0.246820	0.821520	0.252020
O1831	O183	0.565220	0.429420	0.246820
O1841	O184	0.420620	0.500320	0.289320
C1851	C185	0.313480	0.788480	0.250980
C1861	C186	0.385430	0.691030	0.267030
C1871	C187	0.467550	0.552450	0.272250
C1881	C188	0.397540	0.640840	0.259540
H1891	H189	0.358800	0.666500	0.246100
C1901	C190	0.484120	0.492520	0.268120
C1911	C191	0.439970	0.649970	0.292670
H1921	H192	0.430600	0.682600	0.299800
C1931	C193	0.508070	0.561270	0.307570
H1941	H194	0.544100	0.533900	0.325100
C1951	C195	0.522250	0.513550	0.296050
H1961	H196	0.569200	0.454400	0.304500
O1971	O197	0.658800	0.949600	0.035300
O1981	O198	0.617680	0.860780	0.102480
O1991	O199	0.262500	0.137200	0.070300
O2001	O200	0.334260	0.988660	0.150260
C2011	C201	0.604640	0.937140	0.065440
C2021	C202	0.517940	0.019340	0.055540
C2031	C203	0.381480	0.083480	0.070380
C2041	C204	0.460640	0.009440	0.080440
H2051	H205	0.475700	0.951900	0.104500
C2061	C206	0.322460	0.068660	0.098260
C2071	C207	0.495980	0.105380	0.019180
H2081	H208	0.534300	0.113100	0.001400
C2091	C209	0.416050	0.179850	0.009850
H2101	H210	0.400900	0.237300	0.986000
C2111	C211	0.358440	0.169240	0.035740
H2121	H212	0.304900	0.219200	0.029900
O2131	O213	0.294640	0.862140	0.335240
H2141	H214	0.278800	0.820800	0.393800
H2151	H215	0.364100	0.835100	0.307100
Co2211	Co221	0.957510	0.220810	0.145310
Co2221	Co222	0.938500	0.257810	0.240570
O2231	O223	0.013350	0.168850	0.201850
O2251	O225	0.828750	0.240550	0.325550
O2261	O226	0.821520	0.252020	0.246820
O2271	O227	0.429420	0.246820	0.565220
O2281	O228	0.500320	0.289320	0.420620
C2291	C229	0.788480	0.250980	0.313480
C2301	C230	0.691030	0.267030	0.385430
C2311	C231	0.552450	0.272250	0.467550
C2321	C232	0.640840	0.259540	0.397540
H2331	H233	0.666500	0.246100	0.358800
C2341	C234	0.492520	0.268120	0.484120
C2351	C235	0.649970	0.292670	0.439970
H2361	H236	0.682600	0.299800	0.430600
C2371	C237	0.561270	0.307570	0.508070
H2381	H238	0.533900	0.325100	0.544100
C2391	C239	0.513550	0.296050	0.522250
H2401	H240	0.454400	0.304500	0.569200
O2411	O241	0.949600	0.035300	0.658800
O2421	O242	0.860780	0.102480	0.617680
O2431	O243	0.137200	0.070300	0.262500
O2441	O244	0.988660	0.150260	0.334260
C2451	C245	0.937140	0.065440	0.604640
C2461	C246	0.019340	0.055540	0.517940
C2471	C247	0.083480	0.070380	0.381480
C2481	C248	0.009440	0.080440	0.460640
H2491	H249	0.951900	0.104500	0.475700
C2501	C250	0.068660	0.098260	0.322460
C2511	C251	0.105380	0.019180	0.495980
H2521	H252	0.113100	0.001400	0.534300
C2531	C253	0.179850	0.009850	0.416050
H2541	H254	0.237300	0.986000	0.400900
C2551	C255	0.169240	0.035740	0.358440
H2561	H256	0.219200	0.029900	0.304900
O2571	O257	0.862140	0.335240	0.294640
H2581	H258	0.820800	0.393800	0.278800
H2591	H259	0.835100	0.307100	0.364100
Co2651	Co265	0.645310	0.720810	0.457510
Co2661	Co266	0.740570	0.757810	0.438500
O2671	O267	0.701850	0.668850	0.513350
O2691	O269	0.825550	0.740550	0.328750
O2701	O270	0.746820	0.752020	0.321520
O2711	O271	0.065220	0.746820	0.929420
O2721	O272	0.920620	0.789320	0.000320
C2731	C273	0.813480	0.750980	0.288480
C2741	C274	0.885430	0.767030	0.191030
C2751	C275	0.967550	0.772250	0.052450
C2761	C276	0.897540	0.759540	0.140840
H2771	H277	0.858800	0.746100	0.166500
C2781	C278	0.984120	0.768120	0.992520
C2791	C279	0.939970	0.792670	0.149970
H2801	H280	0.930600	0.799800	0.182600
C2811	C281	0.008070	0.807570	0.061270
H2821	H282	0.044100	0.825100	0.033900
C2831	C283	0.022250	0.796050	0.013550
H2841	H284	0.069200	0.804500	0.954400
O2851	O285	0.158800	0.535300	0.449600
O2861	O286	0.117680	0.602480	0.360780
O2871	O287	0.762500	0.570300	0.637200
O2881	O288	0.834260	0.650260	0.488660
C2891	C289	0.104640	0.565440	0.437140
C2901	C290	0.017940	0.555540	0.519340
C2911	C291	0.881480	0.570380	0.583480
C2921	C292	0.960640	0.580440	0.509440
H2931	H293	0.975700	0.604500	0.451900
C2941	C294	0.822460	0.598260	0.568660
C2951	C295	0.995980	0.519180	0.605380
H2961	H296	0.034300	0.501400	0.613100
C2971	C297	0.916050	0.509850	0.679850
H2981	H298	0.900900	0.486000	0.737300
C2991	C299	0.858440	0.535740	0.669240
H3001	H300	0.804900	0.529900	0.719200
O3011	O301	0.794640	0.835240	0.362140
H3021	H302	0.778800	0.893800	0.320800
H3031	H303	0.864100	0.807100	0.335100
Co3091	Co309	0.457510	0.645310	0.720810
Co3101	Co310	0.438500	0.740570	0.757810
O3111	O311	0.513350	0.701850	0.668850
O3131	O313	0.328750	0.825550	0.740550
O3141	O314	0.321520	0.746820	0.752020
O3151	O315	0.929420	0.065220	0.746820
O3161	O316	0.000320	0.920620	0.789320
C3171	C317	0.288480	0.813480	0.750980
C3181	C318	0.191030	0.885430	0.767030
C3191	C319	0.052450	0.967550	0.772250
C3201	C320	0.140840	0.897540	0.759540
H3211	H321	0.166500	0.858800	0.746100
C3221	C322	0.992520	0.984120	0.768120
C3231	C323	0.149970	0.939970	0.792670
H3241	H324	0.182600	0.930600	0.799800
C3251	C325	0.061270	0.008070	0.807570
H3261	H326	0.033900	0.044100	0.825100
C3271	C327	0.013550	0.022250	0.796050
H3281	H328	0.954400	0.069200	0.804500
O3291	O329	0.449600	0.158800	0.535300
O3301	O330	0.360780	0.117680	0.602480
O3311	O331	0.637200	0.762500	0.570300
O3321	O332	0.488660	0.834260	0.650260
C3331	C333	0.437140	0.104640	0.565440
C3341	C334	0.519340	0.017940	0.555540
C3351	C335	0.583480	0.881480	0.570380
C3361	C336	0.509440	0.960640	0.580440
H3371	H337	0.451900	0.975700	0.604500
C3381	C338	0.568660	0.822460	0.598260
C3391	C339	0.605380	0.995980	0.519180
H3401	H340	0.613100	0.034300	0.501400
C3411	C341	0.679850	0.916050	0.509850
H3421	H342	0.737300	0.900900	0.486000
C3431	C343	0.669240	0.858440	0.535740
H3441	H344	0.719200	0.804900	0.529900
O3451	O345	0.362140	0.794640	0.835240
H3461	H346	0.320800	0.778800	0.893800
H3471	H347	0.335100	0.864100	0.807100
Co3531	Co353	0.720810	0.457510	0.645310
Co3541	Co354	0.757810	0.438500	0.740570
O3551	O355	0.668850	0.513350	0.701850
O3571	O357	0.740550	0.328750	0.825550
O3581	O358	0.752020	0.321520	0.746820
O3591	O359	0.746820	0.929420	0.065220
O3601	O360	0.789320	0.000320	0.920620
C3611	C361	0.750980	0.288480	0.813480
C3621	C362	0.767030	0.191030	0.885430
C3631	C363	0.772250	0.052450	0.967550
C3641	C364	0.759540	0.140840	0.897540
H3651	H365	0.746100	0.166500	0.858800
C3661	C366	0.768120	0.992520	0.984120
C3671	C367	0.792670	0.149970	0.939970
H3681	H368	0.799800	0.182600	0.930600
C3691	C369	0.807570	0.061270	0.008070
H3701	H370	0.825100	0.033900	0.044100
C3711	C371	0.796050	0.013550	0.022250
H3721	H372	0.804500	0.954400	0.069200
O3731	O373	0.535300	0.449600	0.158800
O3741	O374	0.602480	0.360780	0.117680
O3751	O375	0.570300	0.637200	0.762500
O3761	O376	0.650260	0.488660	0.834260
C3771	C377	0.565440	0.437140	0.104640
C3781	C378	0.555540	0.519340	0.017940
C3791	C379	0.570380	0.583480	0.881480
C3801	C380	0.580440	0.509440	0.960640
H3811	H381	0.604500	0.451900	0.975700
C3821	C382	0.598260	0.568660	0.822460
C3831	C383	0.519180	0.605380	0.995980
H3841	H384	0.501400	0.613100	0.034300
C3851	C385	0.509850	0.679850	0.916050
H3861	H386	0.486000	0.737300	0.900900
C3871	C387	0.535740	0.669240	0.858440
H3881	H388	0.529900	0.719200	0.804900
O3891	O389	0.835240	0.362140	0.794640
H3901	H390	0.893800	0.320800	0.778800
H3911	H391	0.807100	0.335100	0.864100
Co3971	Co397	0.779190	0.854690	0.042490
Co3981	Co398	0.742190	0.759430	0.061500
O3991	O399	0.831150	0.798150	0.986650
O4011	O401	0.759450	0.674450	0.171250
O4021	O402	0.747980	0.753180	0.178480
O4031	O403	0.753180	0.434780	0.570580
O4041	O404	0.710680	0.579380	0.499680
C4051	C405	0.749020	0.686520	0.211520
C4061	C406	0.732970	0.614570	0.308970
C4071	C407	0.727750	0.532450	0.447550
C4081	C408	0.740460	0.602460	0.359160
H4091	H409	0.753900	0.641200	0.333500
C4101	C410	0.731880	0.515880	0.507480
C4111	C411	0.707330	0.560030	0.350030
H4121	H412	0.700200	0.569400	0.317400
C4131	C413	0.692430	0.491930	0.438730
H4141	H414	0.674900	0.455900	0.466100
C4151	C415	0.703950	0.477750	0.486450
H4161	H416	0.695500	0.430800	0.545600
O4171	O417	0.964700	0.341200	0.050400
O4181	O418	0.897520	0.382320	0.139220
O4191	O419	0.929700	0.737500	0.862800
O4201	O420	0.849740	0.665740	0.011340
C4211	C421	0.934560	0.395360	0.062860
C4221	C422	0.944460	0.482060	0.980660
C4231	C423	0.929620	0.618520	0.916520
C4241	C424	0.919560	0.539360	0.990560
H4251	H425	0.895500	0.524300	0.048100
C4261	C426	0.901740	0.677540	0.931340
C4271	C427	0.980820	0.504020	0.894620
H4281	H428	0.998600	0.465700	0.886900
C4291	C429	0.990150	0.583950	0.820150
H4301	H430	0.014000	0.599100	0.762700
C4311	C431	0.964260	0.641560	0.830760
H4321	H432	0.970100	0.695100	0.780800
O4331	O433	0.664760	0.705360	0.137860
H4341	H434	0.606200	0.721200	0.179200
H4351	H435	0.692900	0.635900	0.164900
Co4411	Co441	0.854690	0.042490	0.779190
Co4421	Co442	0.759430	0.061500	0.742190
O4431	O443	0.798150	0.986650	0.831150
O4451	O445	0.674450	0.171250	0.759450
O4461	O446	0.753180	0.178480	0.747980
O4471	O447	0.434780	0.570580	0.753180
O4481	O448	0.579380	0.499680	0.710680
C4491	C449	0.686520	0.211520	0.749020
C4501	C450	0.614570	0.308970	0.732970
C4511	C451	0.532450	0.447550	0.727750
C4521	C452	0.602460	0.359160	0.740460
H4531	H453	0.641200	0.333500	0.753900
C4541	C454	0.515880	0.507480	0.731880
C4551	C455	0.560030	0.350030	0.707330
H4561	H456	0.569400	0.317400	0.700200
C4571	C457	0.491930	0.438730	0.692430
H4581	H458	0.455900	0.466100	0.674900
C4591	C459	0.477750	0.486450	0.703950
H4601	H460	0.430800	0.545600	0.695500
O4611	O461	0.341200	0.050400	0.964700
O4621	O462	0.382320	0.139220	0.897520
O4631	O463	0.737500	0.862800	0.929700
O4641	O464	0.665740	0.011340	0.849740
C4651	C465	0.395360	0.062860	0.934560
C4661	C466	0.482060	0.980660	0.944460
C4671	C467	0.618520	0.916520	0.929620
C4681	C468	0.539360	0.990560	0.919560
H4691	H469	0.524300	0.048100	0.895500
C4701	C470	0.677540	0.931340	0.901740
C4711	C471	0.504020	0.894620	0.980820
H4721	H472	0.465700	0.886900	0.998600
C4731	C473	0.583950	0.820150	0.990150
H4741	H474	0.599100	0.762700	0.014000
C4751	C475	0.641560	0.830760	0.964260
H4761	H476	0.695100	0.780800	0.970100
O4771	O477	0.705360	0.137860	0.664760
H4781	H478	0.721200	0.179200	0.606200
H4791	H479	0.635900	0.164900	0.692900
Co4851	Co485	0.042490	0.779190	0.854690
Co4861	Co486	0.061500	0.742190	0.759430
O4871	O487	0.986650	0.831150	0.798150
O4891	O489	0.171250	0.759450	0.674450
O4901	O490	0.178480	0.747980	0.753180
O4911	O491	0.570580	0.753180	0.434780
O4921	O492	0.499680	0.710680	0.579380
C4931	C493	0.211520	0.749020	0.686520
C4941	C494	0.308970	0.732970	0.614570
C4951	C495	0.447550	0.727750	0.532450
C4961	C496	0.359160	0.740460	0.602460
H4971	H497	0.333500	0.753900	0.641200
C4981	C498	0.507480	0.731880	0.515880
C4991	C499	0.350030	0.707330	0.560030
H5001	H500	0.317400	0.700200	0.569400
C5011	C501	0.438730	0.692430	0.491930
H5021	H502	0.466100	0.674900	0.455900
C5031	C503	0.486450	0.703950	0.477750
H5041	H504	0.545600	0.695500	0.430800
O5051	O505	0.050400	0.964700	0.341200
O5061	O506	0.139220	0.897520	0.382320
O5071	O507	0.862800	0.929700	0.737500
O5081	O508	0.011340	0.849740	0.665740
C5091	C509	0.062860	0.934560	0.395360
C5101	C510	0.980660	0.944460	0.482060
C5111	C511	0.916520	0.929620	0.618520
C5121	C512	0.990560	0.919560	0.539360
H5131	H513	0.048100	0.895500	0.524300
C5141	C514	0.931340	0.901740	0.677540
C5151	C515	0.894620	0.980820	0.504020
H5161	H516	0.886900	0.998600	0.465700
C5171	C517	0.820150	0.990150	0.583950
H5181	H518	0.762700	0.014000	0.599100
C5191	C519	0.830760	0.964260	0.641560
H5201	H520	0.780800	0.970100	0.695100
O5211	O521	0.137860	0.664760	0.705360
H5221	H522	0.179200	0.606200	0.721200
H5231	H523	0.164900	0.692900	0.635900
Co5291	Co529	0.358900	0.358900	0.358900
Co5301	Co530	0.141100	0.141100	0.141100
Co5311	Co531	0.641100	0.641100	0.641100
Co5321	Co532	0.858900	0.858900	0.858900
K5331	K533	0.361850	0.138150	0.750000
K5341	K534	0.750000	0.361850	0.138150
K5351	K535	0.138150	0.750000	0.361850
K5361	K536	0.638150	0.861850	0.250000
K5371	K537	0.250000	0.638150	0.861850
K5381	K538	0.861850	0.250000	0.638150
