data_KISVEO_clean_PM
_symmetry_space_group_name_H-M	'P1'
_cell_length_a	28.023000
_cell_length_b	28.023000
_cell_length_c	19.684000
_cell_angle_alpha	90.000000
_cell_angle_beta	90.000000
_cell_angle_gamma	90.000000
_symmetry_Int_Tables_number 1

loop_
_symmetry_equiv_pos_as_xyz
'x,y,z'

loop_
_atom_site_label
_atom_site_type_symbol
_atom_site_fract_x
_atom_site_fract_y
_atom_site_fract_z
U11	U1	0.000390	0.371440	0.216810
U21	U2	0.809170	0.331370	0.804570
U31	U3	0.707310	0.565520	0.837560
S11	S1	0.899920	0.420540	0.132900
S21	S2	0.774300	0.456350	0.826590
S31	S3	0.925960	0.271130	0.175290
S41	S4	0.807970	0.219810	0.707940
O11	O1	0.008000	0.458100	0.206400
O21	O2	0.728500	0.482200	0.822800
O31	O3	0.892500	0.448000	0.070600
O41	O4	0.764800	0.404900	0.833500
O51	O5	0.947300	0.397800	0.127900
O61	O6	0.802300	0.251100	0.767500
O71	O7	0.802200	0.464800	0.764300
O81	O8	0.912300	0.248300	0.112600
O91	O9	0.941100	0.234700	0.225100
O101	O10	0.801800	0.473700	0.885000
O111	O11	0.856200	0.199300	0.709800
O121	O12	0.899100	0.451200	0.192100
O131	O13	0.966600	0.303400	0.162300
O141	O14	0.773900	0.180000	0.717500
O151	O15	0.887200	0.298800	0.205200
O161	O16	0.863300	0.383900	0.137700
O171	O17	0.798900	0.244400	0.646200
O181	O18	0.685300	0.524100	0.060300
U41	U4	0.500390	0.871440	0.716810
U51	U5	0.309170	0.831370	0.304570
U61	U6	0.207310	0.065520	0.337560
S51	S5	0.399920	0.920540	0.632900
S61	S6	0.274300	0.956350	0.326590
S71	S7	0.425960	0.771130	0.675290
S81	S8	0.307970	0.719810	0.207940
O191	O19	0.508000	0.958100	0.706400
O201	O20	0.228500	0.982200	0.322800
O211	O21	0.392500	0.948000	0.570600
O221	O22	0.264800	0.904900	0.333500
O231	O23	0.447300	0.897800	0.627900
O241	O24	0.302300	0.751100	0.267500
O251	O25	0.302200	0.964800	0.264300
O261	O26	0.412300	0.748300	0.612600
O271	O27	0.441100	0.734700	0.725100
O281	O28	0.301800	0.973700	0.385000
O291	O29	0.356200	0.699300	0.209800
O301	O30	0.399100	0.951200	0.692100
O311	O31	0.466600	0.803400	0.662300
O321	O32	0.273900	0.680000	0.217500
O331	O33	0.387200	0.798800	0.705200
O341	O34	0.363300	0.883900	0.637700
O351	O35	0.298900	0.744400	0.146200
O361	O36	0.185300	0.024100	0.560300
U71	U7	0.999610	0.628560	0.216810
U81	U8	0.190830	0.668630	0.804570
U91	U9	0.292690	0.434480	0.837560
S91	S9	0.100080	0.579460	0.132900
S101	S10	0.225700	0.543650	0.826590
S111	S11	0.074040	0.728870	0.175290
S121	S12	0.192030	0.780190	0.707940
O371	O37	0.992000	0.541900	0.206400
O381	O38	0.271500	0.517800	0.822800
O391	O39	0.107500	0.552000	0.070600
O401	O40	0.235200	0.595100	0.833500
O411	O41	0.052700	0.602200	0.127900
O421	O42	0.197700	0.748900	0.767500
O431	O43	0.197800	0.535200	0.764300
O441	O44	0.087700	0.751700	0.112600
O451	O45	0.058900	0.765300	0.225100
O461	O46	0.198200	0.526300	0.885000
O471	O47	0.143800	0.800700	0.709800
O481	O48	0.100900	0.548800	0.192100
O491	O49	0.033400	0.696600	0.162300
O501	O50	0.226100	0.820000	0.717500
O511	O51	0.112800	0.701200	0.205200
O521	O52	0.136700	0.616100	0.137700
O531	O53	0.201100	0.755600	0.646200
O541	O54	0.314700	0.475900	0.060300
U101	U10	0.499610	0.128560	0.716810
U111	U11	0.690830	0.168630	0.304570
U121	U12	0.792690	0.934480	0.337560
S131	S13	0.600080	0.079460	0.632900
S141	S14	0.725700	0.043650	0.326590
S151	S15	0.574040	0.228870	0.675290
S161	S16	0.692030	0.280190	0.207940
O551	O55	0.492000	0.041900	0.706400
O561	O56	0.771500	0.017800	0.322800
O571	O57	0.607500	0.052000	0.570600
O581	O58	0.735200	0.095100	0.333500
O591	O59	0.552700	0.102200	0.627900
O601	O60	0.697700	0.248900	0.267500
O611	O61	0.697800	0.035200	0.264300
O621	O62	0.587700	0.251700	0.612600
O631	O63	0.558900	0.265300	0.725100
O641	O64	0.698200	0.026300	0.385000
O651	O65	0.643800	0.300700	0.209800
O661	O66	0.600900	0.048800	0.692100
O671	O67	0.533400	0.196600	0.662300
O681	O68	0.726100	0.320000	0.217500
O691	O69	0.612800	0.201200	0.705200
O701	O70	0.636700	0.116100	0.637700
O711	O71	0.701100	0.255600	0.146200
O721	O72	0.814700	0.975900	0.560300
U131	U13	0.628560	0.000390	0.216810
U141	U14	0.668630	0.809170	0.804570
U151	U15	0.434480	0.707310	0.837560
S171	S17	0.579460	0.899920	0.132900
S181	S18	0.543650	0.774300	0.826590
S191	S19	0.728870	0.925960	0.175290
S201	S20	0.780190	0.807970	0.707940
O731	O73	0.541900	0.008000	0.206400
O741	O74	0.517800	0.728500	0.822800
O751	O75	0.552000	0.892500	0.070600
O761	O76	0.595100	0.764800	0.833500
O771	O77	0.602200	0.947300	0.127900
O781	O78	0.748900	0.802300	0.767500
O791	O79	0.535200	0.802200	0.764300
O801	O80	0.751700	0.912300	0.112600
O811	O81	0.765300	0.941100	0.225100
O821	O82	0.526300	0.801800	0.885000
O831	O83	0.800700	0.856200	0.709800
O841	O84	0.548800	0.899100	0.192100
O851	O85	0.696600	0.966600	0.162300
O861	O86	0.820000	0.773900	0.717500
O871	O87	0.701200	0.887200	0.205200
O881	O88	0.616100	0.863300	0.137700
O891	O89	0.755600	0.798900	0.646200
O901	O90	0.475900	0.685300	0.060300
U161	U16	0.128560	0.500390	0.716810
U171	U17	0.168630	0.309170	0.304570
U181	U18	0.934480	0.207310	0.337560
S211	S21	0.079460	0.399920	0.632900
S221	S22	0.043650	0.274300	0.326590
S231	S23	0.228870	0.425960	0.675290
S241	S24	0.280190	0.307970	0.207940
O911	O91	0.041900	0.508000	0.706400
O921	O92	0.017800	0.228500	0.322800
O931	O93	0.052000	0.392500	0.570600
O941	O94	0.095100	0.264800	0.333500
O951	O95	0.102200	0.447300	0.627900
O961	O96	0.248900	0.302300	0.267500
O971	O97	0.035200	0.302200	0.264300
O981	O98	0.251700	0.412300	0.612600
O991	O99	0.265300	0.441100	0.725100
O1001	O100	0.026300	0.301800	0.385000
O1011	O101	0.300700	0.356200	0.209800
O1021	O102	0.048800	0.399100	0.692100
O1031	O103	0.196600	0.466600	0.662300
O1041	O104	0.320000	0.273900	0.217500
O1051	O105	0.201200	0.387200	0.705200
O1061	O106	0.116100	0.363300	0.637700
O1071	O107	0.255600	0.298900	0.146200
O1081	O108	0.975900	0.185300	0.560300
U191	U19	0.371440	0.999610	0.216810
U201	U20	0.331370	0.190830	0.804570
U211	U21	0.565520	0.292690	0.837560
S251	S25	0.420540	0.100080	0.132900
S261	S26	0.456350	0.225700	0.826590
S271	S27	0.271130	0.074040	0.175290
S281	S28	0.219810	0.192030	0.707940
O1091	O109	0.458100	0.992000	0.206400
O1101	O110	0.482200	0.271500	0.822800
O1111	O111	0.448000	0.107500	0.070600
O1121	O112	0.404900	0.235200	0.833500
O1131	O113	0.397800	0.052700	0.127900
O1141	O114	0.251100	0.197700	0.767500
O1151	O115	0.464800	0.197800	0.764300
O1161	O116	0.248300	0.087700	0.112600
O1171	O117	0.234700	0.058900	0.225100
O1181	O118	0.473700	0.198200	0.885000
O1191	O119	0.199300	0.143800	0.709800
O1201	O120	0.451200	0.100900	0.192100
O1211	O121	0.303400	0.033400	0.162300
O1221	O122	0.180000	0.226100	0.717500
O1231	O123	0.298800	0.112800	0.205200
O1241	O124	0.383900	0.136700	0.137700
O1251	O125	0.244400	0.201100	0.646200
O1261	O126	0.524100	0.314700	0.060300
U221	U22	0.871440	0.499610	0.716810
U231	U23	0.831370	0.690830	0.304570
U241	U24	0.065520	0.792690	0.337560
S291	S29	0.920540	0.600080	0.632900
S301	S30	0.956350	0.725700	0.326590
S311	S31	0.771130	0.574040	0.675290
S321	S32	0.719810	0.692030	0.207940
O1271	O127	0.958100	0.492000	0.706400
O1281	O128	0.982200	0.771500	0.322800
O1291	O129	0.948000	0.607500	0.570600
O1301	O130	0.904900	0.735200	0.333500
O1311	O131	0.897800	0.552700	0.627900
O1321	O132	0.751100	0.697700	0.267500
O1331	O133	0.964800	0.697800	0.264300
O1341	O134	0.748300	0.587700	0.612600
O1351	O135	0.734700	0.558900	0.725100
O1361	O136	0.973700	0.698200	0.385000
O1371	O137	0.699300	0.643800	0.209800
O1381	O138	0.951200	0.600900	0.692100
O1391	O139	0.803400	0.533400	0.662300
O1401	O140	0.680000	0.726100	0.217500
O1411	O141	0.798800	0.612800	0.705200
O1421	O142	0.883900	0.636700	0.637700
O1431	O143	0.744400	0.701100	0.146200
O1441	O144	0.024100	0.814700	0.560300
U251	U25	0.999610	0.628560	0.783190
U261	U26	0.190830	0.668630	0.195430
U271	U27	0.292690	0.434480	0.162440
S331	S33	0.100080	0.579460	0.867100
S341	S34	0.225700	0.543650	0.173410
S351	S35	0.074040	0.728870	0.824710
S361	S36	0.192030	0.780190	0.292060
O1451	O145	0.992000	0.541900	0.793600
O1461	O146	0.271500	0.517800	0.177200
O1471	O147	0.107500	0.552000	0.929400
O1481	O148	0.235200	0.595100	0.166500
O1491	O149	0.052700	0.602200	0.872100
O1501	O150	0.197700	0.748900	0.232500
O1511	O151	0.197800	0.535200	0.235700
O1521	O152	0.087700	0.751700	0.887400
O1531	O153	0.058900	0.765300	0.774900
O1541	O154	0.198200	0.526300	0.115000
O1551	O155	0.143800	0.800700	0.290200
O1561	O156	0.100900	0.548800	0.807900
O1571	O157	0.033400	0.696600	0.837700
O1581	O158	0.226100	0.820000	0.282500
O1591	O159	0.112800	0.701200	0.794800
O1601	O160	0.136700	0.616100	0.862300
O1611	O161	0.201100	0.755600	0.353800
O1621	O162	0.314700	0.475900	0.939700
U281	U28	0.499610	0.128560	0.283190
U291	U29	0.690830	0.168630	0.695430
U301	U30	0.792690	0.934480	0.662440
S371	S37	0.600080	0.079460	0.367100
S381	S38	0.725700	0.043650	0.673410
S391	S39	0.574040	0.228870	0.324710
S401	S40	0.692030	0.280190	0.792060
O1631	O163	0.492000	0.041900	0.293600
O1641	O164	0.771500	0.017800	0.677200
O1651	O165	0.607500	0.052000	0.429400
O1661	O166	0.735200	0.095100	0.666500
O1671	O167	0.552700	0.102200	0.372100
O1681	O168	0.697700	0.248900	0.732500
O1691	O169	0.697800	0.035200	0.735700
O1701	O170	0.587700	0.251700	0.387400
O1711	O171	0.558900	0.265300	0.274900
O1721	O172	0.698200	0.026300	0.615000
O1731	O173	0.643800	0.300700	0.790200
O1741	O174	0.600900	0.048800	0.307900
O1751	O175	0.533400	0.196600	0.337700
O1761	O176	0.726100	0.320000	0.782500
O1771	O177	0.612800	0.201200	0.294800
O1781	O178	0.636700	0.116100	0.362300
O1791	O179	0.701100	0.255600	0.853800
O1801	O180	0.814700	0.975900	0.439700
U311	U31	0.000390	0.371440	0.783190
U321	U32	0.809170	0.331370	0.195430
U331	U33	0.707310	0.565520	0.162440
S411	S41	0.899920	0.420540	0.867100
S421	S42	0.774300	0.456350	0.173410
S431	S43	0.925960	0.271130	0.824710
S441	S44	0.807970	0.219810	0.292060
O1811	O181	0.008000	0.458100	0.793600
O1821	O182	0.728500	0.482200	0.177200
O1831	O183	0.892500	0.448000	0.929400
O1841	O184	0.764800	0.404900	0.166500
O1851	O185	0.947300	0.397800	0.872100
O1861	O186	0.802300	0.251100	0.232500
O1871	O187	0.802200	0.464800	0.235700
O1881	O188	0.912300	0.248300	0.887400
O1891	O189	0.941100	0.234700	0.774900
O1901	O190	0.801800	0.473700	0.115000
O1911	O191	0.856200	0.199300	0.290200
O1921	O192	0.899100	0.451200	0.807900
O1931	O193	0.966600	0.303400	0.837700
O1941	O194	0.773900	0.180000	0.282500
O1951	O195	0.887200	0.298800	0.794800
O1961	O196	0.863300	0.383900	0.862300
O1971	O197	0.798900	0.244400	0.353800
O1981	O198	0.685300	0.524100	0.939700
U341	U34	0.500390	0.871440	0.283190
U351	U35	0.309170	0.831370	0.695430
U361	U36	0.207310	0.065520	0.662440
S451	S45	0.399920	0.920540	0.367100
S461	S46	0.274300	0.956350	0.673410
S471	S47	0.425960	0.771130	0.324710
S481	S48	0.307970	0.719810	0.792060
O1991	O199	0.508000	0.958100	0.293600
O2001	O200	0.228500	0.982200	0.677200
O2011	O201	0.392500	0.948000	0.429400
O2021	O202	0.264800	0.904900	0.666500
O2031	O203	0.447300	0.897800	0.372100
O2041	O204	0.302300	0.751100	0.732500
O2051	O205	0.302200	0.964800	0.735700
O2061	O206	0.412300	0.748300	0.387400
O2071	O207	0.441100	0.734700	0.274900
O2081	O208	0.301800	0.973700	0.615000
O2091	O209	0.356200	0.699300	0.790200
O2101	O210	0.399100	0.951200	0.307900
O2111	O211	0.466600	0.803400	0.337700
O2121	O212	0.273900	0.680000	0.782500
O2131	O213	0.387200	0.798800	0.294800
O2141	O214	0.363300	0.883900	0.362300
O2151	O215	0.298900	0.744400	0.853800
O2161	O216	0.185300	0.024100	0.439700
U371	U37	0.371440	0.999610	0.783190
U381	U38	0.331370	0.190830	0.195430
U391	U39	0.565520	0.292690	0.162440
S491	S49	0.420540	0.100080	0.867100
S501	S50	0.456350	0.225700	0.173410
S511	S51	0.271130	0.074040	0.824710
S521	S52	0.219810	0.192030	0.292060
O2171	O217	0.458100	0.992000	0.793600
O2181	O218	0.482200	0.271500	0.177200
O2191	O219	0.448000	0.107500	0.929400
O2201	O220	0.404900	0.235200	0.166500
O2211	O221	0.397800	0.052700	0.872100
O2221	O222	0.251100	0.197700	0.232500
O2231	O223	0.464800	0.197800	0.235700
O2241	O224	0.248300	0.087700	0.887400
O2251	O225	0.234700	0.058900	0.774900
O2261	O226	0.473700	0.198200	0.115000
O2271	O227	0.199300	0.143800	0.290200
O2281	O228	0.451200	0.100900	0.807900
O2291	O229	0.303400	0.033400	0.837700
O2301	O230	0.180000	0.226100	0.282500
O2311	O231	0.298800	0.112800	0.794800
O2321	O232	0.383900	0.136700	0.862300
O2331	O233	0.244400	0.201100	0.353800
O2341	O234	0.524100	0.314700	0.939700
U401	U40	0.871440	0.499610	0.283190
U411	U41	0.831370	0.690830	0.695430
U421	U42	0.065520	0.792690	0.662440
S531	S53	0.920540	0.600080	0.367100
S541	S54	0.956350	0.725700	0.673410
S551	S55	0.771130	0.574040	0.324710
S561	S56	0.719810	0.692030	0.792060
O2351	O235	0.958100	0.492000	0.293600
O2361	O236	0.982200	0.771500	0.677200
O2371	O237	0.948000	0.607500	0.429400
O2381	O238	0.904900	0.735200	0.666500
O2391	O239	0.897800	0.552700	0.372100
O2401	O240	0.751100	0.697700	0.732500
O2411	O241	0.964800	0.697800	0.735700
O2421	O242	0.748300	0.587700	0.387400
O2431	O243	0.734700	0.558900	0.274900
O2441	O244	0.973700	0.698200	0.615000
O2451	O245	0.699300	0.643800	0.790200
O2461	O246	0.951200	0.600900	0.307900
O2471	O247	0.803400	0.533400	0.337700
O2481	O248	0.680000	0.726100	0.782500
O2491	O249	0.798800	0.612800	0.294800
O2501	O250	0.883900	0.636700	0.362300
O2511	O251	0.744400	0.701100	0.853800
O2521	O252	0.024100	0.814700	0.439700
U431	U43	0.628560	0.000390	0.783190
U441	U44	0.668630	0.809170	0.195430
U451	U45	0.434480	0.707310	0.162440
S571	S57	0.579460	0.899920	0.867100
S581	S58	0.543650	0.774300	0.173410
S591	S59	0.728870	0.925960	0.824710
S601	S60	0.780190	0.807970	0.292060
O2531	O253	0.541900	0.008000	0.793600
O2541	O254	0.517800	0.728500	0.177200
O2551	O255	0.552000	0.892500	0.929400
O2561	O256	0.595100	0.764800	0.166500
O2571	O257	0.602200	0.947300	0.872100
O2581	O258	0.748900	0.802300	0.232500
O2591	O259	0.535200	0.802200	0.235700
O2601	O260	0.751700	0.912300	0.887400
O2611	O261	0.765300	0.941100	0.774900
O2621	O262	0.526300	0.801800	0.115000
O2631	O263	0.800700	0.856200	0.290200
O2641	O264	0.548800	0.899100	0.807900
O2651	O265	0.696600	0.966600	0.837700
O2661	O266	0.820000	0.773900	0.282500
O2671	O267	0.701200	0.887200	0.794800
O2681	O268	0.616100	0.863300	0.862300
O2691	O269	0.755600	0.798900	0.353800
O2701	O270	0.475900	0.685300	0.939700
U461	U46	0.128560	0.500390	0.283190
U471	U47	0.168630	0.309170	0.695430
U481	U48	0.934480	0.207310	0.662440
S611	S61	0.079460	0.399920	0.367100
S621	S62	0.043650	0.274300	0.673410
S631	S63	0.228870	0.425960	0.324710
S641	S64	0.280190	0.307970	0.792060
O2711	O271	0.041900	0.508000	0.293600
O2721	O272	0.017800	0.228500	0.677200
O2731	O273	0.052000	0.392500	0.429400
O2741	O274	0.095100	0.264800	0.666500
O2751	O275	0.102200	0.447300	0.372100
O2761	O276	0.248900	0.302300	0.732500
O2771	O277	0.035200	0.302200	0.735700
O2781	O278	0.251700	0.412300	0.387400
O2791	O279	0.265300	0.441100	0.274900
O2801	O280	0.026300	0.301800	0.615000
O2811	O281	0.300700	0.356200	0.790200
O2821	O282	0.048800	0.399100	0.307900
O2831	O283	0.196600	0.466600	0.337700
O2841	O284	0.320000	0.273900	0.782500
O2851	O285	0.201200	0.387200	0.294800
O2861	O286	0.116100	0.363300	0.362300
O2871	O287	0.255600	0.298900	0.853800
O2881	O288	0.975900	0.185300	0.439700
U491	U49	0.823970	0.464950	0.000000
S651	S65	0.697190	0.498990	0.000000
O2891	O289	0.744700	0.486900	0.000000
O2901	O290	0.664900	0.460500	0.000000
U501	U50	0.323970	0.964950	0.500000
S661	S66	0.197190	0.998990	0.500000
O2911	O291	0.244700	0.986900	0.500000
O2921	O292	0.164900	0.960500	0.500000
U511	U51	0.176030	0.535050	0.000000
S671	S67	0.302810	0.501010	0.000000
O2931	O293	0.255300	0.513100	0.000000
O2941	O294	0.335100	0.539500	0.000000
U521	U52	0.676030	0.035050	0.500000
S681	S68	0.802810	0.001010	0.500000
O2951	O295	0.755300	0.013100	0.500000
O2961	O296	0.835100	0.039500	0.500000
U531	U53	0.535050	0.823970	0.000000
S691	S69	0.501010	0.697190	0.000000
O2971	O297	0.513100	0.744700	0.000000
O2981	O298	0.539500	0.664900	0.000000
U541	U54	0.035050	0.323970	0.500000
S701	S70	0.001010	0.197190	0.500000
O2991	O299	0.013100	0.244700	0.500000
O3001	O300	0.039500	0.164900	0.500000
U551	U55	0.464950	0.176030	0.000000
S711	S71	0.498990	0.302810	0.000000
O3011	O301	0.486900	0.255300	0.000000
O3021	O302	0.460500	0.335100	0.000000
U561	U56	0.964950	0.676030	0.500000
S721	S72	0.998990	0.802810	0.500000
O3031	O303	0.986900	0.755300	0.500000
O3041	O304	0.960500	0.835100	0.500000
S731	S73	0.000000	0.500000	0.250000
S741	S74	0.500000	0.000000	0.250000
S751	S75	0.000000	0.500000	0.750000
S761	S76	0.500000	0.000000	0.750000
