data_KITVEQ_clean_PM
_symmetry_space_group_name_H-M	'P1'
_cell_length_a	15.749000
_cell_length_b	16.425000
_cell_length_c	15.725000
_cell_angle_alpha	90.000000
_cell_angle_beta	90.000000
_cell_angle_gamma	90.000000
_symmetry_Int_Tables_number 1

loop_
_symmetry_equiv_pos_as_xyz
'x,y,z'

loop_
_atom_site_label
_atom_site_type_symbol
_atom_site_fract_x
_atom_site_fract_y
_atom_site_fract_z
Zn11	Zn1	0.374100	0.036600	0.135000
O11	O1	0.374000	0.913100	0.142000
O21	O2	0.260000	0.542000	0.136000
O31	O3	0.198000	0.663000	0.144000
O41	O4	0.512000	0.903000	0.137000
O51	O5	0.570000	0.599000	0.166000
N11	N1	0.377000	0.040000	0.271000
N21	N2	0.384000	0.044000	0.996000
C11	C1	0.435000	0.781000	0.131000
C21	C2	0.441000	0.873000	0.137000
C31	C3	0.390000	0.050000	0.818000
C41	C4	0.369000	0.975000	0.323000
H11	H1	0.366600	0.924600	0.295800
C51	C5	0.508000	0.736000	0.150000
H21	H2	0.555300	0.755600	0.178600
C61	C6	0.365000	0.973000	0.407000
H31	H3	0.352200	0.924400	0.434600
C71	C7	0.265000	0.619000	0.123000
C81	C8	0.350000	0.660000	0.121000
C91	C9	0.500000	0.650000	0.116000
C101	C10	0.413000	0.109000	0.875000
H41	H4	0.432100	0.157200	0.851600
C111	C11	0.389000	0.048000	0.726000
C121	C12	0.422000	0.613000	0.132000
H51	H5	0.417800	0.558900	0.148200
C131	C13	0.355000	0.743000	0.125000
H61	H6	0.305800	0.774100	0.123000
C141	C14	0.392000	0.111000	0.317000
H71	H7	0.400800	0.159500	0.286800
C151	C15	0.410000	0.105000	0.956000
H81	H8	0.429300	0.149900	0.986700
C161	C16	0.364000	0.995000	0.877000
H91	H9	0.354200	0.945300	0.850200
C171	C17	0.394000	0.114000	0.408000
H101	H10	0.403100	0.162500	0.436100
C181	C18	0.381000	0.044000	0.454000
C191	C19	0.696000	0.690000	0.432000
C201	C20	0.690000	0.696000	0.343000
C211	C21	0.778000	0.719000	0.325000
H111	H11	0.789100	0.718100	0.267000
C221	C22	0.632000	0.644000	0.491000
C231	C23	0.856000	0.743000	0.376000
H121	H12	0.903700	0.766700	0.350600
C241	C24	0.852000	0.727000	0.468000
C251	C25	0.644000	0.641000	0.304000
C261	C26	0.648000	0.632000	0.198000
H131	H13	0.658400	0.685100	0.173300
H141	H14	0.695400	0.596700	0.182800
C271	C27	0.581000	0.612000	0.431000
H151	H15	0.539500	0.582400	0.459400
C281	C28	0.565000	0.604000	0.352000
H161	H16	0.517100	0.581400	0.327600
C291	C29	0.761000	0.714000	0.494000
C301	C30	0.679000	0.674000	0.615000
H171	H17	0.680700	0.664200	0.673200
C311	C31	0.842000	0.734000	0.620000
H181	H18	0.853100	0.719500	0.675900
C321	C32	0.920000	0.784000	0.480000
H191	H19	0.949500	0.818200	0.447400
C331	C33	0.605000	0.636000	0.576000
H201	H20	0.556000	0.614500	0.599000
C341	C34	0.754000	0.723000	0.590000
C351	C35	0.911000	0.766000	0.568000
H211	H21	0.961100	0.775500	0.598400
C361	C36	0.350000	0.992000	0.586000
H221	H22	0.328800	0.947900	0.556300
C371	C37	0.420000	0.109000	0.688000
H231	H23	0.446700	0.150300	0.718200
C381	C38	0.351000	0.987000	0.677000
H241	H24	0.325900	0.942200	0.703100
C391	C39	0.413000	0.113000	0.598000
H251	H25	0.433900	0.159100	0.570600
C401	C40	0.374000	0.047000	0.545000
C411	C41	0.345000	0.986000	0.964000
H261	H26	0.312100	0.946000	0.990000
Zn21	Zn2	0.625900	0.963400	0.135000
O61	O6	0.626000	0.086900	0.142000
O71	O7	0.740000	0.458000	0.136000
O81	O8	0.802000	0.337000	0.144000
O91	O9	0.488000	0.097000	0.137000
O101	O10	0.430000	0.401000	0.166000
N31	N3	0.623000	0.960000	0.271000
N41	N4	0.616000	0.956000	0.996000
C421	C42	0.565000	0.219000	0.131000
C431	C43	0.559000	0.127000	0.137000
C441	C44	0.610000	0.950000	0.818000
C451	C45	0.631000	0.025000	0.323000
H271	H27	0.633400	0.075400	0.295800
C461	C46	0.492000	0.264000	0.150000
H281	H28	0.444700	0.244400	0.178600
C471	C47	0.635000	0.027000	0.407000
H291	H29	0.647800	0.075600	0.434600
C481	C48	0.735000	0.381000	0.123000
C491	C49	0.650000	0.340000	0.121000
C501	C50	0.500000	0.350000	0.116000
C511	C51	0.587000	0.891000	0.875000
H301	H30	0.567900	0.842800	0.851600
C521	C52	0.611000	0.952000	0.726000
C531	C53	0.578000	0.387000	0.132000
H311	H31	0.582200	0.441100	0.148200
C541	C54	0.645000	0.257000	0.125000
H321	H32	0.694200	0.225900	0.123000
C551	C55	0.608000	0.889000	0.317000
H331	H33	0.599200	0.840500	0.286800
C561	C56	0.590000	0.895000	0.956000
H341	H34	0.570700	0.850100	0.986700
C571	C57	0.636000	0.005000	0.877000
H351	H35	0.645800	0.054700	0.850200
C581	C58	0.606000	0.886000	0.408000
H361	H36	0.596900	0.837500	0.436100
C591	C59	0.619000	0.956000	0.454000
C601	C60	0.304000	0.310000	0.432000
C611	C61	0.310000	0.304000	0.343000
C621	C62	0.222000	0.281000	0.325000
H371	H37	0.210900	0.281900	0.267000
C631	C63	0.368000	0.356000	0.491000
C641	C64	0.144000	0.257000	0.376000
H381	H38	0.096300	0.233300	0.350600
C651	C65	0.148000	0.273000	0.468000
C661	C66	0.356000	0.359000	0.304000
C671	C67	0.352000	0.368000	0.198000
H391	H39	0.341600	0.314900	0.173300
H401	H40	0.304600	0.403300	0.182800
C681	C68	0.419000	0.388000	0.431000
H411	H41	0.460500	0.417600	0.459400
C691	C69	0.435000	0.396000	0.352000
H421	H42	0.482900	0.418600	0.327600
C701	C70	0.239000	0.286000	0.494000
C711	C71	0.321000	0.326000	0.615000
H431	H43	0.319300	0.335800	0.673200
C721	C72	0.158000	0.266000	0.620000
H441	H44	0.146900	0.280500	0.675900
C731	C73	0.080000	0.216000	0.480000
H451	H45	0.050500	0.181800	0.447400
C741	C74	0.395000	0.364000	0.576000
H461	H46	0.444000	0.385500	0.599000
C751	C75	0.246000	0.277000	0.590000
C761	C76	0.089000	0.234000	0.568000
H471	H47	0.038900	0.224500	0.598400
C771	C77	0.650000	0.008000	0.586000
H481	H48	0.671200	0.052100	0.556300
C781	C78	0.580000	0.891000	0.688000
H491	H49	0.553300	0.849700	0.718200
C791	C79	0.649000	0.013000	0.677000
H501	H50	0.674100	0.057800	0.703100
C801	C80	0.587000	0.887000	0.598000
H511	H51	0.566100	0.840900	0.570600
C811	C81	0.626000	0.953000	0.545000
C821	C82	0.655000	0.014000	0.964000
H521	H52	0.687900	0.054000	0.990000
Zn31	Zn3	0.874100	0.463400	0.135000
O111	O11	0.874000	0.586900	0.142000
O121	O12	0.760000	0.958000	0.136000
O131	O13	0.698000	0.837000	0.144000
O141	O14	0.012000	0.597000	0.137000
O151	O15	0.070000	0.901000	0.166000
N51	N5	0.877000	0.460000	0.271000
N61	N6	0.884000	0.456000	0.996000
C831	C83	0.935000	0.719000	0.131000
C841	C84	0.941000	0.627000	0.137000
C851	C85	0.890000	0.450000	0.818000
C861	C86	0.869000	0.525000	0.323000
H531	H53	0.866600	0.575400	0.295800
C871	C87	0.008000	0.764000	0.150000
H541	H54	0.055300	0.744400	0.178600
C881	C88	0.865000	0.527000	0.407000
H551	H55	0.852200	0.575600	0.434600
C891	C89	0.765000	0.881000	0.123000
C901	C90	0.850000	0.840000	0.121000
C911	C91	0.000000	0.850000	0.116000
C921	C92	0.913000	0.391000	0.875000
H561	H56	0.932100	0.342800	0.851600
C931	C93	0.889000	0.452000	0.726000
C941	C94	0.922000	0.887000	0.132000
H571	H57	0.917800	0.941100	0.148200
C951	C95	0.855000	0.757000	0.125000
H581	H58	0.805800	0.725900	0.123000
C961	C96	0.892000	0.389000	0.317000
H591	H59	0.900800	0.340500	0.286800
C971	C97	0.910000	0.395000	0.956000
H601	H60	0.929300	0.350100	0.986700
C981	C98	0.864000	0.505000	0.877000
H611	H61	0.854200	0.554700	0.850200
C991	C99	0.894000	0.386000	0.408000
H621	H62	0.903100	0.337500	0.436100
C1001	C100	0.881000	0.456000	0.454000
C1011	C101	0.196000	0.810000	0.432000
C1021	C102	0.190000	0.804000	0.343000
C1031	C103	0.278000	0.781000	0.325000
H631	H63	0.289100	0.781900	0.267000
C1041	C104	0.132000	0.856000	0.491000
C1051	C105	0.356000	0.757000	0.376000
H641	H64	0.403700	0.733300	0.350600
C1061	C106	0.352000	0.773000	0.468000
C1071	C107	0.144000	0.859000	0.304000
C1081	C108	0.148000	0.868000	0.198000
H651	H65	0.158400	0.814900	0.173300
H661	H66	0.195400	0.903300	0.182800
C1091	C109	0.081000	0.888000	0.431000
H671	H67	0.039500	0.917600	0.459400
C1101	C110	0.065000	0.896000	0.352000
H681	H68	0.017100	0.918600	0.327600
C1111	C111	0.261000	0.786000	0.494000
C1121	C112	0.179000	0.826000	0.615000
H691	H69	0.180700	0.835800	0.673200
C1131	C113	0.342000	0.766000	0.620000
H701	H70	0.353100	0.780500	0.675900
C1141	C114	0.420000	0.716000	0.480000
H711	H71	0.449500	0.681800	0.447400
C1151	C115	0.105000	0.864000	0.576000
H721	H72	0.056000	0.885500	0.599000
C1161	C116	0.254000	0.777000	0.590000
C1171	C117	0.411000	0.734000	0.568000
H731	H73	0.461100	0.724500	0.598400
C1181	C118	0.850000	0.508000	0.586000
H741	H74	0.828800	0.552100	0.556300
C1191	C119	0.920000	0.391000	0.688000
H751	H75	0.946700	0.349700	0.718200
C1201	C120	0.851000	0.513000	0.677000
H761	H76	0.825900	0.557800	0.703100
C1211	C121	0.913000	0.387000	0.598000
H771	H77	0.933900	0.340900	0.570600
C1221	C122	0.874000	0.453000	0.545000
C1231	C123	0.845000	0.514000	0.964000
H781	H78	0.812100	0.554000	0.990000
Zn41	Zn4	0.125900	0.536600	0.135000
O161	O16	0.126000	0.413100	0.142000
O171	O17	0.240000	0.042000	0.136000
O181	O18	0.302000	0.163000	0.144000
O191	O19	0.988000	0.403000	0.137000
O201	O20	0.930000	0.099000	0.166000
N71	N7	0.123000	0.540000	0.271000
N81	N8	0.116000	0.544000	0.996000
C1241	C124	0.065000	0.281000	0.131000
C1251	C125	0.059000	0.373000	0.137000
C1261	C126	0.110000	0.550000	0.818000
C1271	C127	0.131000	0.475000	0.323000
H791	H79	0.133400	0.424600	0.295800
C1281	C128	0.992000	0.236000	0.150000
H801	H80	0.944700	0.255600	0.178600
C1291	C129	0.135000	0.473000	0.407000
H811	H81	0.147800	0.424400	0.434600
C1301	C130	0.235000	0.119000	0.123000
C1311	C131	0.150000	0.160000	0.121000
C1321	C132	0.000000	0.150000	0.116000
C1331	C133	0.087000	0.609000	0.875000
H821	H82	0.067900	0.657200	0.851600
C1341	C134	0.111000	0.548000	0.726000
C1351	C135	0.078000	0.113000	0.132000
H831	H83	0.082200	0.058900	0.148200
C1361	C136	0.145000	0.243000	0.125000
H841	H84	0.194200	0.274100	0.123000
C1371	C137	0.108000	0.611000	0.317000
H851	H85	0.099200	0.659500	0.286800
C1381	C138	0.090000	0.605000	0.956000
H861	H86	0.070700	0.649900	0.986700
C1391	C139	0.136000	0.495000	0.877000
H871	H87	0.145800	0.445300	0.850200
C1401	C140	0.106000	0.614000	0.408000
H881	H88	0.096900	0.662500	0.436100
C1411	C141	0.119000	0.544000	0.454000
C1421	C142	0.804000	0.190000	0.432000
C1431	C143	0.810000	0.196000	0.343000
C1441	C144	0.722000	0.219000	0.325000
H891	H89	0.710900	0.218100	0.267000
C1451	C145	0.868000	0.144000	0.491000
C1461	C146	0.644000	0.243000	0.376000
H901	H90	0.596300	0.266700	0.350600
C1471	C147	0.648000	0.227000	0.468000
C1481	C148	0.856000	0.141000	0.304000
C1491	C149	0.852000	0.132000	0.198000
H911	H91	0.841600	0.185100	0.173300
H921	H92	0.804600	0.096700	0.182800
C1501	C150	0.919000	0.112000	0.431000
H931	H93	0.960500	0.082400	0.459400
C1511	C151	0.935000	0.104000	0.352000
H941	H94	0.982900	0.081400	0.327600
C1521	C152	0.739000	0.214000	0.494000
C1531	C153	0.821000	0.174000	0.615000
H951	H95	0.819300	0.164200	0.673200
C1541	C154	0.658000	0.234000	0.620000
H961	H96	0.646900	0.219500	0.675900
C1551	C155	0.580000	0.284000	0.480000
H971	H97	0.550500	0.318200	0.447400
C1561	C156	0.895000	0.136000	0.576000
H981	H98	0.944000	0.114500	0.599000
C1571	C157	0.746000	0.223000	0.590000
C1581	C158	0.589000	0.266000	0.568000
H991	H99	0.538900	0.275500	0.598400
C1591	C159	0.150000	0.492000	0.586000
H1001	H100	0.171200	0.447900	0.556300
C1601	C160	0.080000	0.609000	0.688000
H1011	H101	0.053300	0.650300	0.718200
C1611	C161	0.149000	0.487000	0.677000
H1021	H102	0.174100	0.442200	0.703100
C1621	C162	0.087000	0.613000	0.598000
H1031	H103	0.066100	0.659100	0.570600
C1631	C163	0.126000	0.547000	0.545000
C1641	C164	0.155000	0.486000	0.964000
H1041	H104	0.187900	0.446000	0.990000
