data_KIVDUQ_clean_PM
_symmetry_space_group_name_H-M	'P1'
_cell_length_a	10.872000
_cell_length_b	16.737000
_cell_length_c	17.380000
_cell_angle_alpha	114.480000
_cell_angle_beta	92.950000
_cell_angle_gamma	99.630000
_symmetry_Int_Tables_number 1

loop_
_symmetry_equiv_pos_as_xyz
'x,y,z'

loop_
_atom_site_label
_atom_site_type_symbol
_atom_site_fract_x
_atom_site_fract_y
_atom_site_fract_z
O11	O1	0.818800	0.991300	0.051500
O21	O2	0.463500	0.238200	0.038300
O31	O3	0.304300	0.177300	0.088000
C11	C1	0.414800	0.187400	0.070800
C21	C2	0.492800	0.132100	0.089500
O41	O4	0.928800	0.926900	0.888000
La11	La1	0.082600	0.140790	0.012610
La21	La2	0.370690	0.343640	0.996110
La31	La3	0.438600	0.864830	0.405780
C31	C3	0.261600	0.973600	0.644000
O51	O5	0.992600	0.252700	0.968100
O61	O6	0.611800	0.136500	0.066300
O71	O7	0.841000	0.359200	0.947000
O81	O8	0.852300	0.122600	0.040300
O91	O9	0.226000	0.165700	0.912700
O101	O10	0.600000	0.372400	0.970300
O111	O11	0.153700	0.327600	0.931800
O121	O12	0.935000	0.052000	0.872600
O131	O13	0.759100	0.964500	0.732600
O141	O14	0.375200	0.211800	0.851100
O151	O15	0.219900	0.328000	0.093600
O161	O16	0.382400	0.002000	0.545400
O171	O17	0.296100	0.480800	0.237000
O181	O18	0.625100	0.494900	0.946200
O191	O19	0.078600	0.273800	0.155800
C41	C4	0.194100	0.420100	0.233600
C51	C5	0.662000	0.429100	0.950600
O201	O20	0.308300	0.058900	0.704000
C61	C6	0.249200	0.067100	0.774300
C71	C7	0.787800	0.061400	0.055000
C81	C8	0.960700	0.364900	0.924800
C91	C9	0.661700	0.073500	0.080400
C101	C10	0.041300	0.310100	0.943800
O211	O21	0.625800	0.022100	0.639600
O221	O22	0.274100	0.865200	0.508700
C111	C11	0.163200	0.335000	0.156000
C121	C12	0.790400	0.419400	0.928200
O231	O23	0.554600	0.880200	0.539600
C131	C13	0.169400	0.989400	0.758700
H11	H1	0.119500	0.977800	0.796300
C141	C14	0.286000	0.153000	0.850200
O241	O24	0.393600	0.707000	0.382900
C151	C15	0.981900	0.425600	0.892600
H21	H2	0.055200	0.441500	0.872400
C161	C16	0.897900	0.969300	0.848000
C171	C17	0.872400	0.460600	0.895000
H31	H3	0.859700	0.504000	0.876900
C181	C18	0.617700	0.937900	0.608100
C191	C19	0.467300	0.069500	0.119000
H41	H4	0.393800	0.054300	0.139400
C201	C20	0.689100	0.903600	0.658100
C211	C21	0.815300	0.918000	0.767500
C221	C22	0.177000	0.929500	0.674400
H51	H5	0.132000	0.870700	0.645100
C231	C23	0.308900	0.946000	0.561100
C241	C24	0.782600	0.829600	0.718300
H61	H6	0.807300	0.784100	0.728800
C251	C25	0.577500	0.030400	0.112800
H71	H7	0.588600	0.984700	0.128100
C261	C26	0.205600	0.545100	0.348900
H81	H8	0.187600	0.587300	0.399800
O251	O25	0.495900	0.618300	0.284600
C271	C27	0.299400	0.556600	0.308100
C281	C28	0.700600	0.819800	0.645100
H91	H9	0.663200	0.766400	0.598400
C291	C29	0.136300	0.456200	0.301300
H101	H10	0.064600	0.428600	0.314800
C301	C30	0.406700	0.633000	0.326100
K11	K1	0.730140	0.256330	0.018240
O261	O26	0.181200	0.008700	0.948500
O271	O27	0.536500	0.761800	0.961700
O281	O28	0.695700	0.822700	0.912000
C311	C31	0.585200	0.812600	0.929200
C321	C32	0.507200	0.867900	0.910500
O291	O29	0.071200	0.073100	0.112000
La41	La4	0.917400	0.859210	0.987390
La51	La5	0.629310	0.656360	0.003890
La61	La6	0.561400	0.135170	0.594220
C331	C33	0.738400	0.026400	0.356000
O301	O30	0.007400	0.747300	0.031900
O311	O31	0.388200	0.863500	0.933700
O321	O32	0.159000	0.640800	0.053000
O331	O33	0.147700	0.877400	0.959700
O341	O34	0.774000	0.834300	0.087300
O351	O35	0.400000	0.627600	0.029700
O361	O36	0.846300	0.672400	0.068200
O371	O37	0.065000	0.948000	0.127400
O381	O38	0.240900	0.035500	0.267400
O391	O39	0.624800	0.788200	0.148900
O401	O40	0.780100	0.672000	0.906400
O411	O41	0.617600	0.998000	0.454600
O421	O42	0.703900	0.519200	0.763000
O431	O43	0.374900	0.505100	0.053800
O441	O44	0.921400	0.726200	0.844200
C341	C34	0.805900	0.579900	0.766400
C351	C35	0.338000	0.570900	0.049400
O451	O45	0.691700	0.941100	0.296000
C361	C36	0.750800	0.932900	0.225700
C371	C37	0.212200	0.938600	0.945000
C381	C38	0.039300	0.635100	0.075200
C391	C39	0.338300	0.926500	0.919600
C401	C40	0.958700	0.689900	0.056200
O461	O46	0.374200	0.977900	0.360400
O471	O47	0.725900	0.134800	0.491300
C411	C41	0.836800	0.665000	0.844000
C421	C42	0.209600	0.580600	0.071800
O481	O48	0.445400	0.119800	0.460400
C431	C43	0.830600	0.010600	0.241300
H111	H11	0.880500	0.022200	0.203700
C441	C44	0.714000	0.847000	0.149800
O491	O49	0.606400	0.293000	0.617100
C451	C45	0.018100	0.574400	0.107400
H121	H12	0.944800	0.558500	0.127600
C461	C46	0.102100	0.030700	0.152000
C471	C47	0.127600	0.539400	0.105000
H131	H13	0.140300	0.496000	0.123100
C481	C48	0.382300	0.062100	0.391900
C491	C49	0.532700	0.930500	0.881000
H141	H14	0.606200	0.945700	0.860600
C501	C50	0.310900	0.096400	0.341900
C511	C51	0.184700	0.082000	0.232500
C521	C52	0.823000	0.070500	0.325600
H151	H15	0.868000	0.129300	0.354900
C531	C53	0.691100	0.054000	0.438900
C541	C54	0.217400	0.170400	0.281700
H161	H16	0.192700	0.215900	0.271200
C551	C55	0.422500	0.969600	0.887200
H171	H17	0.411400	0.015300	0.871900
C561	C56	0.794400	0.454900	0.651100
H181	H18	0.812400	0.412700	0.600200
O501	O50	0.504100	0.381700	0.715400
C571	C57	0.700600	0.443400	0.691900
C581	C58	0.299400	0.180200	0.354900
H191	H19	0.336800	0.233600	0.401600
C591	C59	0.863700	0.543800	0.698700
H201	H20	0.935400	0.571400	0.685200
C601	C60	0.593300	0.367000	0.673900
K21	K2	0.269860	0.743670	0.981760
