data_KIVFAY_clean_PM
_symmetry_space_group_name_H-M	'P1'
_cell_length_a	10.819000
_cell_length_b	16.730000
_cell_length_c	17.370000
_cell_angle_alpha	114.650000
_cell_angle_beta	93.040000
_cell_angle_gamma	99.620000
_symmetry_Int_Tables_number 1

loop_
_symmetry_equiv_pos_as_xyz
'x,y,z'

loop_
_atom_site_label
_atom_site_type_symbol
_atom_site_fract_x
_atom_site_fract_y
_atom_site_fract_z
O11	O1	0.817600	0.990500	0.049200
O21	O2	0.462900	0.239800	0.039400
O31	O3	0.303000	0.179300	0.089800
C11	C1	0.414300	0.189300	0.072400
C21	C2	0.493100	0.133400	0.090300
O41	O4	0.929400	0.922800	0.886100
Ce11	Ce1	0.082820	0.140970	0.012800
Ce21	Ce2	0.371440	0.343570	0.996000
Ce31	Ce3	0.437990	0.865730	0.405610
C31	C3	0.260700	0.972300	0.642500
O51	O5	0.993600	0.251300	0.966800
O61	O6	0.611900	0.137600	0.066800
O71	O7	0.841100	0.358700	0.946500
O81	O8	0.854100	0.122600	0.040500
O91	O9	0.226300	0.165200	0.913900
O101	O10	0.599800	0.373900	0.972300
O111	O11	0.154800	0.326100	0.930700
O121	O12	0.936600	0.050100	0.873800
O131	O13	0.761400	0.962900	0.731300
O141	O14	0.376100	0.211300	0.851700
O151	O15	0.222800	0.330400	0.093000
O161	O16	0.383500	0.001800	0.545700
O171	O17	0.297800	0.482400	0.238500
O181	O18	0.625600	0.495800	0.946700
O191	O19	0.077300	0.275000	0.153300
C41	C4	0.192800	0.420800	0.233200
C51	C5	0.663400	0.430500	0.950900
O201	O20	0.306900	0.057400	0.703900
C61	C6	0.249400	0.065400	0.773900
C71	C7	0.788300	0.061400	0.054100
C81	C8	0.962400	0.363500	0.923400
C91	C9	0.662300	0.073500	0.080500
C101	C10	0.042100	0.308700	0.941700
O211	O21	0.628200	0.022100	0.638600
O221	O22	0.272300	0.864500	0.506900
C111	C11	0.162700	0.335900	0.154500
C121	C12	0.790200	0.420000	0.928900
O231	O23	0.554900	0.880200	0.537700
C131	C13	0.169000	0.988000	0.757900
H11	H1	0.118500	0.976500	0.795400
C141	C14	0.285300	0.152200	0.851300
O241	O24	0.393600	0.709400	0.384400
C151	C15	0.983700	0.424600	0.891100
H21	H2	0.057000	0.439800	0.870300
C161	C16	0.898800	0.966700	0.848100
C171	C17	0.873500	0.461300	0.894900
H31	H3	0.861200	0.505100	0.877300
C181	C18	0.619500	0.938300	0.606200
C191	C19	0.468000	0.070000	0.118900
H41	H4	0.394100	0.054300	0.139000
C201	C20	0.692100	0.902300	0.656300
C211	C21	0.816600	0.915300	0.765200
C221	C22	0.176200	0.928000	0.674000
H51	H5	0.131400	0.868900	0.645000
C231	C23	0.309500	0.944800	0.560300
C241	C24	0.783200	0.826500	0.713700
H61	H6	0.808300	0.780100	0.722600
C251	C25	0.578400	0.031000	0.112300
H71	H7	0.589400	0.985100	0.127200
C261	C26	0.202300	0.546000	0.350000
H81	H8	0.182500	0.587600	0.400800
O251	O25	0.498100	0.620100	0.288000
C271	C27	0.300200	0.558600	0.310700
C281	C28	0.701300	0.818600	0.643100
H91	H9	0.661600	0.765500	0.596500
C291	C29	0.133800	0.457500	0.300300
H101	H10	0.060500	0.429800	0.312300
C301	C30	0.406600	0.634800	0.329000
K11	K1	0.732150	0.257780	0.020000
O261	O26	0.182400	0.009500	0.950800
O271	O27	0.537100	0.760200	0.960600
O281	O28	0.697000	0.820700	0.910200
C311	C31	0.585700	0.810700	0.927600
C321	C32	0.506900	0.866600	0.909700
O291	O29	0.070600	0.077200	0.113900
Ce41	Ce4	0.917180	0.859030	0.987200
Ce51	Ce5	0.628560	0.656430	0.004000
Ce61	Ce6	0.562010	0.134270	0.594390
C331	C33	0.739300	0.027700	0.357500
O301	O30	0.006400	0.748700	0.033200
O311	O31	0.388100	0.862400	0.933200
O321	O32	0.158900	0.641300	0.053500
O331	O33	0.145900	0.877400	0.959500
O341	O34	0.773700	0.834800	0.086100
O351	O35	0.400200	0.626100	0.027700
O361	O36	0.845200	0.673900	0.069300
O371	O37	0.063400	0.949900	0.126200
O381	O38	0.238600	0.037100	0.268700
O391	O39	0.623900	0.788700	0.148300
O401	O40	0.777200	0.669600	0.907000
O411	O41	0.616500	0.998200	0.454300
O421	O42	0.702200	0.517600	0.761500
O431	O43	0.374400	0.504200	0.053300
O441	O44	0.922700	0.725000	0.846700
C341	C34	0.807200	0.579200	0.766800
C351	C35	0.336600	0.569500	0.049100
O451	O45	0.693100	0.942600	0.296100
C361	C36	0.750600	0.934600	0.226100
C371	C37	0.211700	0.938600	0.945900
C381	C38	0.037600	0.636500	0.076600
C391	C39	0.337700	0.926500	0.919500
C401	C40	0.957900	0.691300	0.058300
O461	O46	0.371800	0.977900	0.361400
O471	O47	0.727700	0.135500	0.493100
C411	C41	0.837300	0.664100	0.845500
C421	C42	0.209800	0.580000	0.071100
O481	O48	0.445100	0.119800	0.462300
C431	C43	0.831000	0.012000	0.242100
H111	H11	0.881500	0.023500	0.204600
C441	C44	0.714700	0.847800	0.148700
O491	O49	0.606400	0.290600	0.615600
C451	C45	0.016300	0.575400	0.108900
H121	H12	0.943000	0.560200	0.129700
C461	C46	0.101200	0.033300	0.151900
C471	C47	0.126500	0.538700	0.105100
H131	H13	0.138800	0.494900	0.122700
C481	C48	0.380500	0.061700	0.393800
C491	C49	0.532000	0.930000	0.881100
H141	H14	0.605900	0.945700	0.861000
C501	C50	0.307900	0.097700	0.343700
C511	C51	0.183400	0.084700	0.234800
C521	C52	0.823800	0.072000	0.326000
H151	H15	0.868600	0.131100	0.355000
C531	C53	0.690500	0.055200	0.439700
C541	C54	0.216800	0.173500	0.286300
H161	H16	0.191700	0.219900	0.277400
C551	C55	0.421600	0.969000	0.887700
H171	H17	0.410600	0.014900	0.872800
C561	C56	0.797700	0.454000	0.650000
H181	H18	0.817500	0.412400	0.599200
O501	O50	0.501900	0.379900	0.712000
C571	C57	0.699800	0.441400	0.689300
C581	C58	0.298700	0.181400	0.356900
H191	H19	0.338400	0.234500	0.403500
C591	C59	0.866200	0.542500	0.699700
H201	H20	0.939500	0.570200	0.687700
C601	C60	0.593400	0.365200	0.671000
K21	K2	0.267850	0.742220	0.980000
