data_KIXXOG_clean_PM
_symmetry_space_group_name_H-M	'P1'
_cell_length_a	6.701700
_cell_length_b	14.395800
_cell_length_c	14.940500
_cell_angle_alpha	90.000000
_cell_angle_beta	90.000000
_cell_angle_gamma	90.000000
_symmetry_Int_Tables_number 1

loop_
_symmetry_equiv_pos_as_xyz
'x,y,z'

loop_
_atom_site_label
_atom_site_type_symbol
_atom_site_fract_x
_atom_site_fract_y
_atom_site_fract_z
Ca11	Ca1	0.863270	0.803860	0.458070
Ca21	Ca2	0.636730	0.196140	0.958070
Ca31	Ca3	0.136730	0.303860	0.041930
Ca41	Ca4	0.363270	0.696140	0.541930
H11	H1	0.853400	0.660200	0.751200
H21	H2	0.891300	0.548600	0.862500
H31	H3	0.864900	0.267500	0.710100
H41	H4	0.868700	0.226300	0.563600
H51	H5	0.878400	0.338800	0.451700
H61	H6	0.875800	0.493100	0.488200
H71	H7	0.646600	0.339800	0.251200
H81	H8	0.608700	0.451400	0.362500
H91	H9	0.635100	0.732500	0.210100
H101	H10	0.631300	0.773700	0.063600
H111	H11	0.621600	0.661200	0.951700
H121	H12	0.624200	0.506900	0.988200
H131	H13	0.146600	0.160200	0.748800
H141	H14	0.108700	0.048600	0.637500
H151	H15	0.135100	0.767500	0.789900
H161	H16	0.131300	0.726300	0.936400
H171	H17	0.121600	0.838800	0.048300
H181	H18	0.124200	0.993100	0.011800
H191	H19	0.353400	0.839800	0.248800
H201	H20	0.391300	0.951400	0.137500
H211	H21	0.364900	0.232500	0.289900
H221	H22	0.368700	0.273700	0.436400
H231	H23	0.378400	0.161200	0.548300
H241	H24	0.375800	0.006900	0.511800
C11	C1	0.863200	0.649100	0.578780
C21	C2	0.865600	0.572990	0.647920
C31	C3	0.864700	0.597840	0.735560
C41	C4	0.880600	0.529860	0.803060
C51	C5	0.880900	0.437730	0.783510
C61	C6	0.872500	0.408530	0.692530
C71	C7	0.872200	0.477510	0.623670
C81	C8	0.868700	0.313440	0.666380
C91	C9	0.870500	0.288830	0.579120
C101	C10	0.875000	0.356660	0.511510
C111	C11	0.874600	0.448670	0.533440
C121	C12	0.891400	0.370120	0.861710
C131	C13	0.636800	0.350900	0.078780
C141	C14	0.634400	0.427010	0.147920
C151	C15	0.635300	0.402160	0.235560
C161	C16	0.619400	0.470140	0.303060
C171	C17	0.619100	0.562270	0.283510
C181	C18	0.627500	0.591470	0.192530
C191	C19	0.627800	0.522490	0.123670
C201	C20	0.631300	0.686560	0.166380
C211	C21	0.629500	0.711170	0.079120
C221	C22	0.625000	0.643340	0.011510
C231	C23	0.625400	0.551330	0.033440
C241	C24	0.608600	0.629880	0.361710
C251	C25	0.136800	0.149100	0.921220
C261	C26	0.134400	0.072990	0.852080
C271	C27	0.135300	0.097840	0.764440
C281	C28	0.119400	0.029860	0.696940
C291	C29	0.119100	0.937730	0.716490
C301	C30	0.127500	0.908530	0.807470
C311	C31	0.127800	0.977510	0.876330
C321	C32	0.131300	0.813440	0.833620
C331	C33	0.129500	0.788830	0.920880
C341	C34	0.125000	0.856660	0.988490
C351	C35	0.125400	0.948670	0.966560
C361	C36	0.108600	0.870120	0.638290
C371	C37	0.363200	0.850900	0.421220
C381	C38	0.365600	0.927010	0.352080
C391	C39	0.364700	0.902160	0.264440
C401	C40	0.380600	0.970140	0.196940
C411	C41	0.380900	0.062270	0.216490
C421	C42	0.372500	0.091470	0.307470
C431	C43	0.372200	0.022490	0.376330
C441	C44	0.368700	0.186560	0.333620
C451	C45	0.370500	0.211170	0.420880
C461	C46	0.375000	0.143340	0.488490
C471	C47	0.374600	0.051330	0.466560
C481	C48	0.391400	0.129880	0.138290
O11	O1	0.718740	0.704530	0.578480
O21	O2	0.008070	0.656530	0.525280
O31	O3	0.782800	0.299480	0.858910
O41	O4	0.007600	0.391300	0.924110
O51	O5	0.781260	0.295470	0.078480
O61	O6	0.491930	0.343470	0.025280
O71	O7	0.717200	0.700520	0.358910
O81	O8	0.492400	0.608700	0.424110
O91	O9	0.281260	0.204530	0.921520
O101	O10	0.991930	0.156530	0.974720
O111	O11	0.217200	0.799480	0.641090
O121	O12	0.992400	0.891300	0.575890
O131	O13	0.218740	0.795470	0.421520
O141	O14	0.508070	0.843470	0.474720
O151	O15	0.282800	0.200520	0.141090
O161	O16	0.507600	0.108700	0.075890
