data_KIYJAF_clean_PM
_symmetry_space_group_name_H-M	'P1'
_cell_length_a	16.209900
_cell_length_b	17.206100
_cell_length_c	34.912300
_cell_angle_alpha	94.604000
_cell_angle_beta	90.000000
_cell_angle_gamma	90.000000
_symmetry_Int_Tables_number 1

loop_
_symmetry_equiv_pos_as_xyz
'x,y,z'

loop_
_atom_site_label
_atom_site_type_symbol
_atom_site_fract_x
_atom_site_fract_y
_atom_site_fract_z
Co11	Co1	0.218720	0.113690	0.011830
Co21	Co2	0.718720	0.386310	0.488170
Co31	Co3	0.527250	0.952000	0.663750
Co41	Co4	0.027250	0.548000	0.836250
Co51	Co5	0.430890	0.414880	0.146670
Co61	Co6	0.781280	0.886310	0.988170
Co71	Co7	0.763840	0.609830	0.488920
Co81	Co8	0.755740	0.720330	0.205070
Co91	Co9	0.744260	0.220330	0.705070
Co101	Co10	0.263840	0.890170	0.011080
Co111	Co11	0.569110	0.585120	0.853330
Co121	Co12	0.736160	0.109830	0.988920
Co131	Co13	0.244260	0.279670	0.794930
Co141	Co14	0.255740	0.779670	0.294930
Co151	Co15	0.236160	0.390170	0.511080
Co161	Co16	0.972750	0.452000	0.163750
Co171	Co17	0.069110	0.914880	0.646670
Co181	Co18	0.281280	0.613690	0.511830
Co191	Co19	0.472750	0.048000	0.336250
Co201	Co20	0.930890	0.085120	0.353330
H11	H1	0.119500	0.937200	0.254100
H21	H2	0.101800	0.797100	0.409200
H31	H3	0.462300	0.126200	0.997500
H41	H4	0.545600	0.139800	0.196700
H51	H5	0.979500	0.267900	0.177200
H61	H6	0.018600	0.182000	0.472000
H71	H7	0.981400	0.818000	0.528000
H81	H8	0.005200	0.995600	0.959100
H91	H9	0.934400	0.588900	0.388800
H101	H10	0.959700	0.085700	0.056500
H111	H11	0.625300	0.085800	0.089200
H121	H12	0.772500	0.360000	0.627600
H131	H13	0.139800	0.573600	0.333100
H141	H14	0.824500	0.485700	0.253500
H151	H15	0.170700	0.618600	0.632100
H161	H16	0.880500	0.062800	0.745900
H171	H17	0.350300	0.418800	0.389800
H181	H18	0.753400	0.194800	0.910000
H191	H19	0.329300	0.118600	0.132100
H201	H20	0.576800	0.813900	0.059100
H211	H21	0.654200	0.497800	0.925000
H221	H22	0.454100	0.669500	0.715500
H231	H23	0.873300	0.759600	0.133800
H241	H24	0.962300	0.373800	0.502500
H251	H25	0.200400	0.151300	0.257900
H261	H26	0.299600	0.651300	0.757900
H271	H27	0.362800	0.605300	0.610400
H281	H28	0.333500	0.281200	0.090900
H291	H29	0.957700	0.465900	0.974300
H301	H30	0.139100	0.040900	0.781800
H311	H31	0.045600	0.360200	0.303300
H321	H32	0.190000	0.247000	0.119600
H331	H33	0.156000	0.510400	0.455000
H341	H34	0.620000	0.555700	0.084100
H351	H35	0.532800	0.765900	0.833500
H361	H36	0.494800	0.495600	0.459100
H371	H37	0.324700	0.298300	0.438800
H381	H38	0.626700	0.259600	0.633800
H391	H39	0.113700	0.948400	0.188700
H401	H40	0.223900	0.064200	0.528500
H411	H41	0.537700	0.873800	0.002500
H421	H42	0.045900	0.169500	0.215500
H431	H43	0.954100	0.830500	0.784500
H441	H44	0.345900	0.505200	0.567200
H451	H45	0.292700	0.305600	0.333100
H461	H46	0.727500	0.860000	0.127600
H471	H47	0.792700	0.194400	0.166900
H481	H48	0.120000	0.944300	0.415900
H491	H49	0.222300	0.917300	0.367200
H501	H50	0.467200	0.234100	0.166500
H511	H51	0.272500	0.140000	0.872400
H521	H52	0.218900	0.195700	0.520900
H531	H53	0.954400	0.639800	0.696700
H541	H54	0.006800	0.766900	0.950100
H551	H55	0.200100	0.870700	0.150700
H561	H56	0.524100	0.359000	0.642300
H571	H57	0.874700	0.585800	0.589200
H581	H58	0.844000	0.489600	0.545000
H591	H59	0.166500	0.781200	0.590900
H601	H60	0.754800	0.650000	0.023800
H611	H61	0.398200	0.297100	0.909200
H621	H62	0.860200	0.426400	0.666900
H631	H63	0.984900	0.589300	0.974900
H641	H64	0.832100	0.338900	0.079100
H651	H65	0.142600	0.381700	0.120400
H661	H66	0.015100	0.410700	0.025100
H671	H67	0.238600	0.798600	0.531300
H681	H68	0.040300	0.914300	0.943500
H691	H69	0.327800	0.464100	0.331500
H701	H70	0.761400	0.201400	0.468700
H711	H71	0.260400	0.680700	0.854800
H721	H72	0.254800	0.850000	0.476200
H731	H73	0.475900	0.641000	0.357700
H741	H74	0.801400	0.461900	0.081500
H751	H75	0.190000	0.593200	0.695300
H761	H76	0.079200	0.150000	0.409300
H771	H77	0.310000	0.093200	0.195300
H781	H78	0.420800	0.650000	0.909300
H791	H79	0.613700	0.551600	0.311300
H801	H80	0.975900	0.859000	0.142300
H811	H81	0.268100	0.942400	0.732800
H821	H82	0.670700	0.881400	0.867900
H831	H83	0.057600	0.090000	0.786000
H841	H84	0.159400	0.621500	0.098500
H851	H85	0.859200	0.402300	0.728200
H861	H86	0.859300	0.459800	0.923400
H871	H87	0.285000	0.694400	0.433500
H881	H88	0.883800	0.689900	0.070800
H891	H89	0.829300	0.381400	0.367900
H901	H90	0.310000	0.747000	0.619600
H911	H91	0.672200	0.535900	0.668500
H921	H92	0.520500	0.767900	0.677200
H931	H93	0.738600	0.701400	0.968700
H941	H94	0.690000	0.253000	0.380400
H951	H95	0.799600	0.848700	0.742100
H961	H96	0.601800	0.702900	0.090800
H971	H97	0.642600	0.118300	0.379600
H981	H98	0.731900	0.057600	0.267200
H991	H99	0.032800	0.734100	0.666500
H1001	H100	0.198600	0.538100	0.918500
H1011	H101	0.020500	0.732100	0.822800
H1021	H102	0.024100	0.141000	0.857700
H1031	H103	0.785000	0.805600	0.066500
H1041	H104	0.649700	0.581200	0.610200
H1051	H105	0.414400	0.886700	0.174000
H1061	H106	0.207300	0.805600	0.833100
H1071	H107	0.140700	0.540200	0.076600
H1081	H108	0.845800	0.997800	0.425000
H1091	H109	0.940400	0.049300	0.681400
H1101	H110	0.776100	0.935800	0.471500
H1111	H111	0.967200	0.265900	0.333500
H1121	H112	0.149700	0.918800	0.889800
H1131	H113	0.540300	0.585700	0.556500
H1141	H114	0.172200	0.964100	0.831500
H1151	H115	0.454400	0.860200	0.803300
H1161	H116	0.566400	0.508500	0.053100
H1171	H117	0.125300	0.414200	0.410800
H1181	H118	0.446800	0.803500	0.557900
H1191	H119	0.644700	0.223300	0.088600
H1201	H120	0.154100	0.005200	0.067200
H1211	H121	0.052000	0.576200	0.574100
H1221	H122	0.786400	0.103500	0.209900
H1231	H123	0.400600	0.958700	0.243000
H1241	H124	0.477100	0.376400	0.234800
H1251	H125	0.042300	0.534100	0.025700
H1261	H126	0.193900	0.242800	0.214500
H1271	H127	0.246600	0.805200	0.090000
H1281	H128	0.718900	0.304300	0.979100
H1291	H129	0.286400	0.396500	0.290100
H1301	H130	0.144700	0.276700	0.411400
H1311	H131	0.810000	0.406800	0.304700
H1321	H132	0.479500	0.232100	0.322800
H1331	H133	0.522900	0.623600	0.765200
H1341	H134	0.357400	0.881700	0.620400
H1351	H135	0.359300	0.040200	0.576600
H1361	H136	0.812100	0.616700	0.796800
H1371	H137	0.037700	0.626200	0.497500
H1381	H138	0.442400	0.590000	0.286000
H1391	H139	0.227500	0.640000	0.372400
H1401	H140	0.827800	0.035900	0.168500
H1411	H141	0.914400	0.613300	0.326000
H1421	H142	0.746600	0.694800	0.410000
H1431	H143	0.933600	0.008500	0.553100
H1441	H144	0.639800	0.926400	0.166900
H1451	H145	0.231900	0.442400	0.232800
H1461	H146	0.430600	0.989000	0.060300
H1471	H147	0.011400	0.403800	0.248000
H1481	H148	0.659400	0.878500	0.401500
H1491	H149	0.175300	0.798300	0.938800
H1501	H150	0.324500	0.014300	0.246500
H1511	H151	0.988600	0.596200	0.752000
H1521	H152	0.085600	0.386700	0.674000
H1531	H153	0.126700	0.240400	0.866200
H1541	H154	0.409900	0.239000	0.576400
H1551	H155	0.360200	0.073600	0.833100
H1561	H156	0.448000	0.076200	0.074100
H1571	H157	0.239600	0.180700	0.354800
H1581	H158	0.253400	0.305200	0.590000
H1591	H159	0.698600	0.961900	0.581500
H1601	H160	0.860900	0.959100	0.218200
H1611	H161	0.707300	0.694400	0.666900
H1621	H162	0.690000	0.906800	0.804700
H1631	H163	0.511400	0.096200	0.252000
H1641	H164	0.116200	0.310100	0.929200
H1651	H165	0.545900	0.330500	0.284500
H1661	H166	0.656000	0.989600	0.045000
H1671	H167	0.810000	0.753000	0.880400
H1681	H168	0.423200	0.186100	0.940900
H1691	H169	0.187900	0.383300	0.203200
H1701	H170	0.003100	0.926800	0.495600
H1711	H171	0.994800	0.004400	0.040900
H1721	H172	0.022900	0.876400	0.734800
H1731	H173	0.281100	0.695700	0.020900
H1741	H174	0.599400	0.041300	0.757000
H1751	H175	0.404300	0.091300	0.704900
H1761	H176	0.948000	0.423800	0.425900
H1771	H177	0.066400	0.991500	0.446900
H1781	H178	0.306100	0.742800	0.714500
H1791	H179	0.904300	0.408700	0.795100
H1801	H180	0.245200	0.350000	0.976200
H1811	H181	0.880000	0.055700	0.584100
H1821	H182	0.332100	0.161100	0.420900
H1831	H183	0.383800	0.810100	0.429200
H1841	H184	0.745200	0.150000	0.523800
H1851	H185	0.989300	0.321400	0.465800
H1861	H186	0.510700	0.821400	0.965800
H1871	H187	0.472700	0.297400	0.527100
H1881	H188	0.277700	0.417300	0.867200
H1891	H189	0.175500	0.514300	0.746500
H1901	H190	0.713300	0.383200	0.177300
H1911	H191	0.850300	0.081200	0.110200
H1921	H192	0.459700	0.414300	0.443500
H1931	H193	0.857400	0.618300	0.879600
H1941	H194	0.355300	0.776700	0.911400
H1951	H195	0.569400	0.011000	0.939700
H1961	H196	0.374700	0.914200	0.910800
H1971	H197	0.213300	0.116800	0.322700
H1981	H198	0.862800	0.894700	0.889600
H1991	H199	0.434400	0.911100	0.111200
H2001	H200	0.542300	0.965900	0.474300
H2011	H201	0.215000	0.194400	0.933500
H2021	H202	0.167900	0.661100	0.920900
H2031	H203	0.946800	0.696500	0.942100
H2041	H204	0.722300	0.582700	0.132800
H2051	H205	0.616200	0.189900	0.570800
H2061	H206	0.137200	0.105300	0.110400
H2071	H207	0.053200	0.303500	0.057900
H2081	H208	0.345800	0.502200	0.075000
H2091	H209	0.845900	0.994800	0.932800
H2101	H210	0.700100	0.629300	0.349300
H2111	H211	0.824700	0.201700	0.061200
H2121	H212	0.261400	0.298600	0.031300
H2131	H213	0.565600	0.088900	0.888800
H2141	H214	0.506800	0.733100	0.549900
H2151	H215	0.301400	0.038100	0.418500
H2161	H216	0.675300	0.701700	0.561200
H2171	H217	0.213600	0.896500	0.790100
H2181	H218	0.496700	0.599300	0.417600
H2191	H219	0.559600	0.549300	0.181400
H2201	H220	0.552000	0.923800	0.925900
H2211	H221	0.286700	0.616800	0.822700
H2221	H222	0.069400	0.489000	0.560300
H2231	H223	0.484900	0.910700	0.525100
H2241	H224	0.693900	0.257200	0.285500
H2251	H225	0.687900	0.116700	0.296800
H2261	H226	0.065600	0.411100	0.611200
H2271	H227	0.595700	0.908700	0.295100
H2281	H228	0.489300	0.178600	0.034200
H2291	H229	0.977100	0.123600	0.265200
H2301	H230	0.359200	0.097700	0.771800
H2311	H231	0.276100	0.564200	0.028500
H2321	H232	0.380000	0.444300	0.915900
H2331	H233	0.637200	0.394700	0.389600
H2341	H234	0.140800	0.597700	0.271800
H2351	H235	0.619500	0.562800	0.245900
H2361	H236	0.900600	0.541300	0.257000
H2371	H237	0.768100	0.557600	0.767200
H2381	H238	0.299900	0.370700	0.650700
H2391	H239	0.095700	0.591300	0.204900
H2401	H240	0.360900	0.540900	0.281800
H2411	H241	0.996900	0.073200	0.504400
H2421	H242	0.373300	0.740400	0.366200
H2431	H243	0.806100	0.757200	0.785500
H2441	H244	0.666500	0.718800	0.909100
H2451	H245	0.715000	0.305600	0.566500
H2461	H246	0.433600	0.491500	0.946900
H2471	H247	0.840600	0.378500	0.901500
H2481	H248	0.639100	0.459100	0.718200
H2491	H249	0.481400	0.682000	0.972000
H2501	H250	0.027300	0.797400	0.027100
H2511	H251	0.386300	0.448400	0.688700
H2521	H252	0.777700	0.082700	0.632800
H2531	H253	0.739600	0.319300	0.145200
H2541	H254	0.786700	0.883200	0.677300
H2551	H255	0.640700	0.959800	0.423400
H2561	H256	0.527300	0.702600	0.472900
H2571	H257	0.099400	0.458700	0.743000
H2581	H258	0.579200	0.350000	0.090700
H2591	H259	0.923200	0.313900	0.559100
H2601	H260	0.090100	0.739000	0.076400
H2611	H261	0.700400	0.348700	0.242100
H2621	H262	0.503100	0.573200	0.004400
H2631	H263	0.723900	0.435800	0.971500
H2641	H264	0.312100	0.883300	0.703200
H2651	H265	0.585600	0.113300	0.826000
H2661	H266	0.654100	0.494800	0.432800
H2671	H267	0.930600	0.511000	0.439700
H2681	H268	0.518600	0.318000	0.028000
H2691	H269	0.457700	0.034100	0.525700
H2701	H270	0.515100	0.089300	0.474900
H2711	H271	0.557600	0.410000	0.714000
H2721	H272	0.667900	0.838900	0.579100
H2731	H273	0.833500	0.218800	0.409100
H2741	H274	0.972700	0.202600	0.972900
H2751	H275	0.675500	0.985700	0.753500
H2761	H276	0.920800	0.850000	0.590700
H2771	H277	0.380500	0.437200	0.754100
H2781	H278	0.010700	0.678600	0.534200
H2791	H279	0.781100	0.804300	0.479100
H2801	H280	0.440400	0.450700	0.818600
H2811	H281	0.340600	0.121500	0.598500
H2821	H282	0.760400	0.819300	0.645200
H2831	H283	0.713600	0.603500	0.709900
H2841	H284	0.003300	0.099300	0.917600
H2851	H285	0.488600	0.903800	0.748000
H2861	H286	0.505200	0.504400	0.540900
H2871	H287	0.799900	0.129300	0.849300
H2881	H288	0.886300	0.051600	0.811300
H2891	H289	0.590100	0.761000	0.423600
H2901	H290	0.154200	0.002200	0.575000
H2911	H291	0.898200	0.202900	0.590800
H2921	H292	0.553200	0.196500	0.442100
H2931	H293	0.496900	0.426800	0.995600
H2941	H294	0.059600	0.950700	0.318600
H2951	H295	0.942400	0.910000	0.214000
H2961	H296	0.996700	0.900700	0.082400
H2971	H297	0.493200	0.266900	0.450100
H2981	H298	0.076800	0.686100	0.440900
H2991	H299	0.909900	0.261000	0.923600
H3001	H300	0.855300	0.723300	0.588600
H3011	H301	0.640800	0.902300	0.228200
H3021	H302	0.993200	0.233100	0.049900
H3031	H303	0.344000	0.010400	0.955000
H3041	H304	0.503300	0.400700	0.582400
C11	C1	0.748500	0.349600	0.569870
C21	C2	0.090500	0.448900	0.627900
C31	C3	0.994900	0.921300	0.729280
C41	C4	0.152600	0.571500	0.640300
C51	C5	0.746700	0.842300	0.670700
C61	C6	0.041100	0.588200	0.026000
C71	C7	0.497300	0.752800	0.852920
C81	C8	0.195900	0.759700	0.953360
C91	C9	0.530900	0.756700	0.473900
C101	C10	0.501700	0.831300	0.993200
C111	C11	0.580600	0.122200	0.141350
C121	C12	0.736200	0.547900	0.992200
C131	C13	0.002700	0.252800	0.352920
C141	C14	0.343700	0.785000	0.374330
C151	C15	0.762900	0.608400	0.781100
C161	C16	0.431700	0.208100	0.555800
C171	C17	0.001700	0.668700	0.506800
C181	C18	0.263800	0.452100	0.007800
C191	C19	0.391300	0.709200	0.531510
C201	C20	0.603600	0.066200	0.834400
C211	C21	0.994800	0.378800	0.004400
C221	C22	0.810300	0.106200	0.307700
C231	C23	0.415500	0.054100	0.722120
C241	C24	0.286100	0.757200	0.739100
C251	C25	0.864100	0.009200	0.151600
C261	C26	0.995400	0.187000	0.496400
C271	C27	0.285200	0.016700	0.440930
C281	C28	0.974500	0.720100	0.837060
C291	C29	0.980800	0.121700	0.515700
C301	C30	0.438600	0.234700	0.952100
C311	C31	0.588800	0.029500	0.187680
C321	C32	0.818800	0.450600	0.557800
C331	C33	0.607800	0.500900	0.318370
C341	C34	0.462300	0.951200	0.745330
C351	C35	0.424300	0.556900	0.707180
C361	C36	0.561400	0.765300	0.047900
C371	C37	0.173300	0.828500	0.580100
C381	C38	0.661200	0.343400	0.702370
C391	C39	0.318800	0.049400	0.942200
C401	C40	0.567800	0.103600	0.178330
C411	C41	0.890600	0.441600	0.740970
C421	C42	0.834700	0.440000	0.449530
C431	C43	0.377400	0.463700	0.383500
C441	C44	0.906600	0.464600	0.426570
C451	C45	0.246700	0.657700	0.829300
C461	C46	0.738700	0.118300	0.625480
C471	C47	0.498300	0.168700	0.006800
C481	C48	0.401600	0.555100	0.337600
C491	C49	0.498000	0.459200	0.898300
C501	C50	0.826700	0.171500	0.419900
C511	C51	0.131100	0.017900	0.145550
C521	C52	0.622600	0.536300	0.616500
C531	C53	0.253300	0.157700	0.329300
C541	C54	0.598400	0.444900	0.662400
C551	C55	0.115700	0.588300	0.087400
C561	C56	0.695900	0.740300	0.546640
C571	C57	0.292400	0.900800	0.240160
C581	C58	0.944100	0.430300	0.880900
C591	C59	0.608700	0.290800	0.468490
C601	C60	0.446800	0.469400	0.447650
C611	C61	0.888900	0.918200	0.202500
C621	C62	0.098400	0.055100	0.837600
C631	C63	0.739200	0.467800	0.993090
C641	C64	0.875000	0.475900	0.660430
C651	C65	0.828800	0.036900	0.919620
C661	C66	0.435700	0.689900	0.894270
C671	C67	0.142100	0.486000	0.691000
C681	C68	0.161200	0.156600	0.797630
C691	C69	0.883800	0.571300	0.613970
C701	C70	0.075700	0.056900	0.207180
C711	C71	0.550100	0.515700	0.200600
C721	C72	0.622400	0.407100	0.365090
C731	C73	0.553200	0.530600	0.552350
C741	C74	0.207600	0.400800	0.740160
C751	C75	0.237100	0.391600	0.218900
C761	C76	0.719300	0.062300	0.557610
C771	C77	0.720400	0.879700	0.103830
C781	C78	0.755200	0.780500	0.698800
C791	C79	0.103600	0.433800	0.665600
C801	C80	0.671200	0.536900	0.419620
C811	C81	0.064300	0.189900	0.394270
C821	C82	0.926200	0.371200	0.944400
C831	C83	0.213900	0.257200	0.239100
C841	C84	0.962300	0.548800	0.754670
C851	C85	0.463100	0.762400	0.538700
C861	C86	0.361900	0.001900	0.876130
C871	C87	0.084500	0.554100	0.222120
C881	C88	0.030900	0.743300	0.026100
C891	C89	0.964300	0.930100	0.100100
C901	C90	0.665300	0.944200	0.821700
C911	C91	0.850300	0.676400	0.090890
C921	C92	0.278200	0.354100	0.592970
C931	C93	0.915900	0.023600	0.736100
C941	C94	0.689700	0.606200	0.807700
C951	C95	0.432700	0.631400	0.697890
C961	C96	0.760800	0.967800	0.493090
C971	C97	0.933600	0.053500	0.571700
C981	C98	0.901600	0.944900	0.162400
C991	C99	0.142400	0.267600	0.131240
C1001	C100	0.635900	0.509200	0.651600
C1011	C101	0.590500	0.051100	0.872100
C1021	C102	0.067800	0.396400	0.321670
C1031	C103	0.549200	0.404800	0.635900
C1041	C104	0.050100	0.984300	0.299400
C1051	C105	0.761300	0.618300	0.125480
C1061	C106	0.929700	0.999100	0.090510
C1071	C107	0.998300	0.331300	0.493200
C1081	C108	0.908800	0.850400	0.838490
C1091	C109	0.846600	0.531900	0.267600
C1101	C110	0.913000	0.645000	0.499590
C1111	C111	0.673300	0.671500	0.919900
C1121	C112	0.786900	0.162600	0.452820
C1131	C113	0.384600	0.841600	0.631580
C1141	C114	0.999200	0.699300	0.995250
C1151	C115	0.347400	0.071500	0.140300
C1161	C116	0.892200	0.000900	0.818370
C1171	C117	0.346600	0.968100	0.232400
C1181	C118	0.350300	0.823600	0.409110
C1191	C119	0.019200	0.878300	0.484300
C1201	C120	0.384300	0.088300	0.587400
C1211	C121	0.891300	0.790800	0.968490
C1221	C122	0.409500	0.948900	0.127900
C1231	C123	0.567300	0.368600	0.302110
C1241	C124	0.780700	0.562300	0.057610
C1251	C125	0.189700	0.893800	0.692300
C1261	C126	0.383800	0.928700	0.886030
C1271	C127	0.076900	0.801700	0.433300
C1281	C128	0.753500	0.795600	0.501650
C1291	C129	0.932200	0.603600	0.678330
C1301	C130	0.713900	0.242800	0.260900
C1311	C131	0.238300	0.331600	0.247400
C1321	C132	0.232500	0.846400	0.782800
C1331	C133	0.334700	0.055800	0.178300
C1341	C134	0.785200	0.483300	0.059070
C1351	C135	0.396400	0.933800	0.165600
C1361	C136	0.642400	0.232400	0.368760
C1371	C137	0.221800	0.854100	0.092970
C1381	C138	0.433600	0.446500	0.928300
C1391	C139	0.500800	0.199300	0.495250
C1401	C140	0.714800	0.983300	0.559070
C1411	C141	0.005200	0.621200	0.995600
C1421	C142	0.080600	0.377800	0.358650
C1431	C143	0.037700	0.451200	0.245330
C1441	C144	0.652600	0.928500	0.859700
C1451	C145	0.884600	0.658400	0.868420
C1461	C146	0.886600	0.481600	0.385450
C1471	C147	0.804100	0.240300	0.046640
C1481	C148	0.310300	0.393800	0.192300
C1491	C149	0.153400	0.468100	0.732400
C1501	C150	0.000800	0.300700	0.004750
C1511	C151	0.251500	0.650400	0.430130
C1521	C152	0.444100	0.069700	0.619100
C1531	C153	0.555900	0.930300	0.380900
C1541	C154	0.573800	0.871200	0.444400
C1551	C155	0.523900	0.759000	0.013000
C1561	C156	0.804000	0.110000	0.873320
C1571	C157	0.838000	0.379100	0.169200
C1581	C158	0.923100	0.198300	0.566700
C1591	C159	0.390600	0.058400	0.759030
C1601	C160	0.377600	0.592900	0.634910
C1611	C161	0.857900	0.514000	0.309000
C1621	C162	0.122400	0.092900	0.134910
C1631	C163	0.729000	0.708500	0.691200
C1641	C164	0.458900	0.088200	0.526000
C1651	C165	0.615700	0.911700	0.412600
C1661	C166	0.847400	0.428500	0.359700
C1671	C167	0.943800	0.125900	0.550400
C1681	C168	0.125000	0.524100	0.339570
C1691	C169	0.091200	0.149600	0.161510
C1701	C170	0.732500	0.653600	0.717200
C1711	C171	0.138100	0.501900	0.376130
C1721	C172	0.004600	0.813000	0.503600
C1731	C173	0.025500	0.279900	0.162940
C1741	C174	0.696000	0.610000	0.373320
C1751	C175	0.935700	0.810100	0.605730
C1761	C176	0.494800	0.121200	0.495600
C1771	C177	0.499200	0.800700	0.504750
C1781	C178	0.334700	0.060000	0.050470
C1791	C179	0.093400	0.535400	0.573430
C1801	C180	0.587000	0.145000	0.999590
C1811	C181	0.495400	0.313000	0.003600
C1821	C182	0.616200	0.071300	0.113970
C1831	C183	0.116200	0.428700	0.386030
C1841	C184	0.767500	0.153600	0.217200
C1851	C185	0.761700	0.668400	0.752600
C1861	C186	0.443800	0.374100	0.949600
C1871	C187	0.611100	0.418200	0.702500
C1881	C188	0.833600	0.050700	0.428460
C1891	C189	0.779600	0.379700	0.603830
C1901	C190	0.066400	0.946500	0.428300
C1911	C191	0.564300	0.310100	0.105730
C1921	C192	0.450800	0.595200	0.364100
C1931	C193	0.662000	0.879100	0.669200
C1941	C194	0.406600	0.035400	0.073430
C1951	C195	0.426200	0.128800	0.555600
C1961	C196	0.541100	0.911800	0.474000
C1971	C197	0.375000	0.024100	0.839570
C1981	C198	0.576900	0.698300	0.066700
C1991	C199	0.519200	0.621700	0.015700
C2001	C200	0.408800	0.649600	0.661510
C2011	C201	0.744800	0.280500	0.198800
C2021	C202	0.115400	0.341600	0.131580
C2031	C203	0.969100	0.256700	0.973900
C2041	C204	0.262900	0.891600	0.718900
C2051	C205	0.474500	0.779900	0.662940
C2061	C206	0.681200	0.950600	0.057800
C2071	C207	0.181200	0.549400	0.442200
C2081	C208	0.950800	0.904800	0.135900
C2091	C209	0.328800	0.463100	0.580380
C2101	C210	0.261300	0.881700	0.374520
C2111	C211	0.665300	0.940000	0.949530
C2121	C212	0.756800	0.596000	0.024360
C2131	C213	0.535700	0.430100	0.600100
C2141	C214	0.638100	0.998100	0.123870
C2151	C215	0.998000	0.040800	0.601700
C2161	C216	0.786100	0.742800	0.760900
C2171	C217	0.304000	0.390000	0.626680
C2181	C218	0.248500	0.150400	0.930130
C2191	C219	0.238700	0.381700	0.874520
C2201	C220	0.260800	0.532200	0.006910
C2211	C221	0.877600	0.907100	0.865090
C2221	C222	0.476100	0.241000	0.987000
C2231	C223	0.843700	0.715000	0.125670
C2241	C224	0.267500	0.346400	0.282800
C2251	C225	0.958900	0.411800	0.974000
C2261	C226	0.949900	0.015700	0.700600
C2271	C227	0.214800	0.516700	0.940930
C2281	C228	0.932700	0.868600	0.802110
C2291	C229	0.419400	0.877800	0.858650
C2301	C230	0.113400	0.518400	0.614550
C2311	C231	0.911200	0.529500	0.687680
C2321	C232	0.713100	0.662600	0.952820
C2331	C233	0.135900	0.990800	0.848400
C2341	C234	0.536900	0.237600	0.461300
C2351	C235	0.220400	0.620300	0.396170
C2361	C236	0.005100	0.078700	0.270720
C2371	C237	0.884300	0.411700	0.912600
C2381	C238	0.338800	0.656600	0.297630
C2391	C239	0.217300	0.202000	0.265200
C2401	C240	0.649700	0.176400	0.590890
C2411	C241	0.235100	0.564800	0.973940
C2421	C242	0.480800	0.378300	0.984300
C2431	C243	0.073800	0.628800	0.055600
C2441	C244	0.261700	0.831600	0.747400
C2451	C245	0.087000	0.355000	0.500410
C2461	C246	0.642100	0.014000	0.809000
C2471	C247	0.368900	0.517900	0.645550
C2481	C248	0.909500	0.551100	0.372100
C2491	C249	0.691300	0.815600	0.556740
C2501	C250	0.171200	0.963100	0.080380
C2511	C251	0.308700	0.184400	0.443260
C2521	C252	0.834700	0.444200	0.321700
C2531	C253	0.931700	0.291900	0.944200
C2541	C254	0.494900	0.578700	0.770720
C2551	C255	0.707600	0.099200	0.759840
C2561	C256	0.279600	0.120300	0.896170
C2571	C257	0.196000	0.890000	0.126680
C2581	C258	0.084100	0.976400	0.263900
C2591	C259	0.357900	0.986000	0.191000
C2601	C260	0.449900	0.484300	0.799400
C2611	C261	0.246500	0.204400	0.498350
C2621	C262	0.861900	0.498100	0.623870
C2631	C263	0.271000	0.291500	0.308800
C2641	C264	0.165300	0.560000	0.550470
C2651	C265	0.746500	0.295600	0.001650
C2661	C266	0.191300	0.684400	0.943260
C2671	C267	0.333600	0.449300	0.071540
C2681	C268	0.388900	0.581800	0.297500
C2691	C269	0.411200	0.970500	0.812320
C2701	C270	0.219300	0.437700	0.942390
C2711	C271	0.868900	0.982100	0.854450
C2721	C272	0.229000	0.791500	0.808800
C2731	C273	0.653400	0.031900	0.767600
C2741	C274	0.782700	0.798000	0.734800
C2751	C275	0.165300	0.555800	0.678300
C2761	C276	0.737100	0.108400	0.281100
C2771	C277	0.877400	0.036300	0.116500
C2781	C278	0.061400	0.734700	0.452100
C2791	C279	0.896400	0.566200	0.334400
C2801	C280	0.253500	0.704400	0.998350
C2811	C281	0.875200	0.020200	0.024730
C2821	C282	0.244800	0.219500	0.301200
C2831	C283	0.899100	0.740500	0.604340
C2841	C284	0.976100	0.259000	0.513000
C2851	C285	0.124800	0.979800	0.975270
C2861	C286	0.504600	0.687000	0.996400
C2871	C287	0.243200	0.404000	0.975640
C2881	C288	0.505200	0.878800	0.504400
C2891	C289	0.375200	0.479800	0.475270
C2901	C290	0.392200	0.499100	0.681630
C2911	C291	0.575700	0.443100	0.292820
C2921	C292	0.023900	0.741000	0.487000
C2931	C293	0.613400	0.981600	0.885450
C2941	C294	0.282700	0.702000	0.765200
C2951	C295	0.568300	0.791900	0.444200
C2961	C296	0.656300	0.215000	0.625670
C2971	C297	0.036900	0.262400	0.038700
C2981	C298	0.304100	0.259700	0.453360
C2991	C299	0.415900	0.476400	0.763900
C3001	C300	0.055900	0.569700	0.119100
C3011	C301	0.600900	0.240500	0.104340
C3021	C302	0.053200	0.969400	0.947650
C3031	C303	0.717300	0.298000	0.234800
C3041	C304	0.946800	0.030600	0.052350
C3051	C305	0.326700	0.328500	0.080100
C3061	C306	0.808700	0.315600	0.056740
C3071	C307	0.423100	0.301700	0.933300
C3081	C308	0.566400	0.553500	0.071700
C3091	C309	0.838800	0.843400	0.202370
C3101	C310	0.357600	0.767600	0.631240
C3111	C311	0.100900	0.259500	0.395660
C3121	C312	0.615400	0.158400	0.368420
C3131	C313	0.778200	0.145900	0.907030
C3141	C314	0.049200	0.095200	0.864100
C3151	C315	0.591200	0.350400	0.338490
C3161	C316	0.149700	0.323600	0.909110
C3171	C317	0.963100	0.737600	0.961300
C3181	C318	0.255200	0.719500	0.801200
C3191	C319	0.792400	0.599200	0.259840
C3201	C320	0.584100	0.523600	0.236100
C3211	C321	0.108700	0.209200	0.031510
C3221	C322	0.432200	0.896400	0.821670
C3231	C323	0.537700	0.048800	0.254670
C3241	C324	0.213100	0.837400	0.547180
C3251	C325	0.399100	0.759500	0.895660
C3261	C326	0.386600	0.018400	0.114550
C3271	C327	0.088800	0.470500	0.312320
C3281	C328	0.915500	0.445900	0.777880
C3291	C329	0.631100	0.482100	0.354450
C3301	C330	0.469100	0.243300	0.526100
C3311	C331	0.609400	0.941600	0.240970
C3321	C332	0.286900	0.337400	0.047180
C3331	C333	0.239200	0.032200	0.506910
C3341	C334	0.002000	0.959200	0.398300
C3351	C335	0.111100	0.081800	0.797500
C3361	C336	0.764900	0.435200	0.026060
C3371	C337	0.236200	0.952100	0.507800
C3381	C338	0.067300	0.131400	0.197890
C3391	C339	0.625000	0.975900	0.160430
C3401	C340	0.056200	0.874100	0.449600
C3411	C341	0.593400	0.964600	0.926570
C3421	C342	0.107800	0.999100	0.181630
C3431	C343	0.068300	0.708100	0.055800
C3441	C344	0.413000	0.855000	0.000410
C3451	C345	0.505100	0.421300	0.229280
C3461	C346	0.743200	0.096000	0.524360
C3471	C347	0.584500	0.945900	0.277880
C3481	C348	0.919400	0.622200	0.641350
C3491	C349	0.924300	0.943100	0.792820
C3501	C350	0.721800	0.645900	0.407030
C3511	C351	0.738300	0.168400	0.252600
C3521	C352	0.256800	0.904000	0.475640
C3531	C353	0.997300	0.747200	0.647080
C3541	C354	0.771000	0.208500	0.191200
C3551	C355	0.525500	0.220100	0.337060
C3561	C356	0.938600	0.265300	0.547900
C3571	C357	0.035700	0.069900	0.899900
C3581	C358	0.763800	0.047900	0.492200
C3591	C359	0.162000	0.620900	0.830800
C3601	C360	0.122600	0.963700	0.883500
C3611	C361	0.624800	0.520200	0.524730
C3621	C362	0.166400	0.949300	0.571540
C3631	C363	0.751500	0.849600	0.069870
C3641	C364	0.464300	0.569900	0.399900
C3651	C365	0.156300	0.285000	0.874330
C3661	C366	0.364100	0.490800	0.348400
C3671	C367	0.264900	0.064800	0.473940
C3681	C368	0.570300	0.499100	0.590510
C3691	C369	0.338000	0.120900	0.330800
C3701	C370	0.070300	0.000900	0.909490
C3711	C371	0.502700	0.247200	0.147080
C3721	C372	0.502000	0.540800	0.101700
C3731	C373	0.753300	0.342300	0.170700
C3741	C374	0.857600	0.732400	0.868760
C3751	C375	0.429700	0.500900	0.409490
C3761	C376	0.109400	0.558400	0.259030
C3771	C377	0.735100	0.935200	0.526060
C3781	C378	0.556200	0.625900	0.050400
C3791	C379	0.280700	0.937700	0.442390
C3801	C380	0.666400	0.550700	0.928460
N11	N1	0.725900	0.894200	0.041130
N21	N2	0.213000	0.320500	0.852410
N31	N3	0.002000	0.184800	0.367790
N41	N4	0.323400	0.055500	0.903420
N51	N5	0.499800	0.548200	0.803460
N61	N6	0.085000	0.228800	0.151690
N71	N7	0.299300	0.885800	0.409590
N81	N8	0.959200	0.650700	0.848880
N91	N9	0.578500	0.007800	0.226070
N101	N10	0.939600	0.699000	0.631090
N111	N11	0.498000	0.684800	0.867790
N121	N12	0.144000	0.898000	0.595530
N131	N13	0.856000	0.102000	0.404470
N141	N14	0.705900	0.599400	0.436080
N151	N15	0.078500	0.492200	0.273930
N161	N16	0.176600	0.555500	0.403420
N171	N17	0.915000	0.771200	0.848310
N181	N18	0.709000	0.583800	0.958600
N191	N19	0.772400	0.353400	0.027840
N201	N20	0.274100	0.105800	0.958870
N211	N21	0.287000	0.820500	0.352410
N221	N22	0.444700	0.538000	0.745510
N231	N23	0.998000	0.815200	0.632210
N241	N24	0.162900	0.959900	0.118920
N251	N25	0.791000	0.083800	0.458600
N261	N26	0.439600	0.801000	0.868910
N271	N27	0.837100	0.040100	0.881080
N281	N28	0.676600	0.944500	0.096580
N291	N29	0.039700	0.486300	0.213360
N301	N30	0.774100	0.394200	0.541130
N311	N31	0.294100	0.400600	0.563920
N321	N32	0.794100	0.099400	0.936080
N331	N33	0.205900	0.900600	0.063920
N341	N34	0.713000	0.179500	0.647590
N351	N35	0.227600	0.646600	0.972160
N361	N36	0.060400	0.301000	0.368910
N371	N37	0.234800	0.774200	0.987900
N381	N38	0.421500	0.992200	0.773930
N391	N39	0.459200	0.849300	0.651120
N401	N40	0.265200	0.274200	0.487900
N411	N41	0.662900	0.540100	0.381080
N421	N42	0.337100	0.459900	0.618920
N431	N43	0.540800	0.150700	0.348880
N441	N44	0.000200	0.048200	0.303460
N451	N45	0.727600	0.853400	0.527840
N461	N46	0.765200	0.225800	0.012100
N471	N47	0.944700	0.962000	0.754490
N481	N48	0.272400	0.146600	0.472160
N491	N49	0.500200	0.451800	0.196540
N501	N50	0.555300	0.462000	0.254490
N511	N51	0.734800	0.725800	0.512100
N521	N52	0.999800	0.951800	0.696540
N531	N53	0.502000	0.315200	0.132210
N541	N54	0.415000	0.728800	0.651690
N551	N55	0.209000	0.916200	0.541400
N561	N56	0.823400	0.444500	0.596580
N571	N57	0.921500	0.507800	0.726070
N581	N58	0.799300	0.614200	0.090410
N591	N59	0.356000	0.398000	0.095530
N601	N60	0.539700	0.013700	0.286640
N611	N61	0.460300	0.986300	0.713360
N621	N62	0.200700	0.385800	0.909590
N631	N63	0.700700	0.114200	0.590410
N641	N64	0.585000	0.271200	0.348310
N651	N65	0.055300	0.038000	0.245510
N661	N66	0.225900	0.605800	0.458870
N671	N67	0.787000	0.679500	0.147590
N681	N68	0.960300	0.513700	0.786640
N691	N69	0.644000	0.602000	0.904470
N701	N70	0.291000	0.416200	0.041400
N711	N71	0.560400	0.199000	0.131090
N721	N72	0.040800	0.349300	0.151120
O11	O1	0.460800	0.001500	0.622730
O21	O2	0.300500	0.013700	0.026320
O31	O3	0.676800	0.544800	0.824110
O41	O4	0.679200	0.572000	0.525450
O51	O5	0.993000	0.977800	0.616180
O61	O6	0.320800	0.428000	0.474550
O71	O7	0.507000	0.477800	0.116180
O81	O8	0.860500	0.407800	0.138590
O91	O9	0.176800	0.955200	0.675890
O101	O10	0.844200	0.784400	0.997170
O111	O11	0.493000	0.522200	0.883820
O121	O12	0.690400	0.870300	0.945180
O131	O13	0.820800	0.072000	0.025450
O141	O14	0.253600	0.371100	0.714660
O151	O15	0.793800	0.618800	0.225790
O161	O16	0.378400	0.842500	0.031900
O171	O17	0.360500	0.092200	0.361410
O181	O18	0.323200	0.455200	0.175890
O191	O19	0.446400	0.589000	0.108760
O201	O20	0.800500	0.486300	0.473680
O211	O21	0.699500	0.986300	0.973680
O221	O22	0.553600	0.411000	0.891240
O231	O23	0.125100	0.040900	0.997100
O241	O24	0.884100	0.381100	0.197880
O251	O25	0.139500	0.592200	0.861410
O261	O26	0.809600	0.370300	0.445180
O271	O27	0.615900	0.881100	0.697880
O281	O28	0.627100	0.113100	0.024830
O291	O29	0.753600	0.128900	0.785340
O301	O30	0.621600	0.157500	0.968100
O311	O31	0.121600	0.342500	0.531900
O321	O32	0.624000	0.339900	0.445220
O331	O33	0.856200	0.163900	0.312960
O341	O34	0.039200	0.501500	0.122730
O351	O35	0.706200	0.118800	0.725790
O361	O36	0.374900	0.540900	0.497100
O371	O37	0.356200	0.336100	0.187040
O381	O38	0.124000	0.160100	0.054780
O391	O39	0.643800	0.663900	0.812960
O401	O40	0.384100	0.118900	0.302120
O411	O41	0.129300	0.217900	0.786740
O421	O42	0.115900	0.618900	0.802120
O431	O43	0.629300	0.282100	0.713260
O441	O44	0.874900	0.959100	0.002900
O451	O45	0.376000	0.660100	0.554780
O461	O46	0.246400	0.871100	0.214660
O471	O47	0.155800	0.215600	0.002830
O481	O48	0.972000	0.373100	0.860080
O491	O49	0.206200	0.381200	0.774210
O501	O50	0.823200	0.044800	0.324110
O511	O51	0.946400	0.911000	0.391240
O521	O52	0.539200	0.998500	0.377270
O531	O53	0.179200	0.928000	0.974550
O541	O54	0.872900	0.613100	0.524830
O551	O55	0.765000	0.842000	0.191320
O561	O56	0.876000	0.839900	0.945220
O571	O57	0.053600	0.089000	0.608760
O581	O58	0.878400	0.657500	0.468100
O591	O59	0.007000	0.022200	0.383820
O601	O60	0.127100	0.386900	0.475170
O611	O61	0.639500	0.907800	0.638590
O621	O62	0.870700	0.782100	0.213260
O631	O63	0.370700	0.717900	0.286740
O641	O64	0.960800	0.498500	0.877270
O651	O65	0.655800	0.284400	0.497170
O661	O66	0.028000	0.626900	0.139920
O671	O67	0.735000	0.342000	0.691320
O681	O68	0.190400	0.629700	0.554820
O691	O69	0.625100	0.459100	0.502900
O701	O70	0.472000	0.126900	0.639920
O711	O71	0.344200	0.715600	0.502830
O721	O72	0.746400	0.628900	0.285340
O731	O73	0.528000	0.873100	0.360080
O741	O74	0.235000	0.158000	0.808680
O751	O75	0.199500	0.513700	0.526320
O761	O76	0.143800	0.836100	0.687040
O771	O77	0.265000	0.658000	0.308680
O781	O78	0.309600	0.129700	0.054820
O791	O79	0.293800	0.881200	0.274210
O801	O80	0.372900	0.886900	0.975170
