data_KIYMEM_clean_PM
_symmetry_space_group_name_H-M	'P1'
_cell_length_a	7.126900
_cell_length_b	14.672400
_cell_length_c	15.002700
_cell_angle_alpha	90.000000
_cell_angle_beta	90.000000
_cell_angle_gamma	90.000000
_symmetry_Int_Tables_number 1

loop_
_symmetry_equiv_pos_as_xyz
'x,y,z'

loop_
_atom_site_label
_atom_site_type_symbol
_atom_site_fract_x
_atom_site_fract_y
_atom_site_fract_z
Ba11	Ba1	0.927280	0.194120	0.439030
Ba21	Ba2	0.572720	0.805880	0.939030
Ba31	Ba3	0.072720	0.694120	0.060970
Ba41	Ba4	0.427280	0.305880	0.560970
H11	H1	0.857100	0.612200	0.698100
H21	H2	0.930800	0.498100	0.597200
H31	H3	0.870300	0.231700	0.760300
H41	H4	0.829700	0.197900	0.906900
H51	H5	0.796100	0.313300	0.012100
H61	H6	0.793200	0.462300	0.968800
H71	H7	0.642900	0.387800	0.198100
H81	H8	0.569200	0.501900	0.097200
H91	H9	0.629700	0.768300	0.260300
H101	H10	0.670300	0.802100	0.406900
H111	H11	0.703900	0.686700	0.512100
H121	H12	0.706800	0.537700	0.468800
H131	H13	0.142900	0.112200	0.801900
H141	H14	0.069200	0.998100	0.902800
H151	H15	0.129700	0.731700	0.739700
H161	H16	0.170300	0.697900	0.593100
H171	H17	0.203900	0.813300	0.487900
H181	H18	0.206800	0.962300	0.531200
H191	H19	0.357100	0.887800	0.301900
H201	H20	0.430800	0.001900	0.402800
H211	H21	0.370300	0.268300	0.239700
H221	H22	0.329700	0.302100	0.093100
H231	H23	0.296100	0.186700	0.987900
H241	H24	0.293200	0.037700	0.031200
C11	C1	0.916000	0.322800	0.608980
C21	C2	0.894400	0.393400	0.681000
C31	C3	0.859300	0.370300	0.771100
C41	C4	0.833200	0.441100	0.835200
C51	C5	0.828500	0.534100	0.804700
C61	C6	0.861000	0.552100	0.717600
C71	C7	0.900500	0.482900	0.655700
C81	C8	0.855800	0.278700	0.801300
C91	C9	0.831800	0.258500	0.888700
C101	C10	0.810100	0.328000	0.952100
C111	C11	0.809400	0.416800	0.926300
C121	C12	0.781200	0.614700	0.863900
C131	C13	0.584000	0.677200	0.108980
C141	C14	0.605600	0.606600	0.181000
C151	C15	0.640700	0.629700	0.271100
C161	C16	0.666800	0.558900	0.335200
C171	C17	0.671500	0.465900	0.304700
C181	C18	0.639000	0.447900	0.217600
C191	C19	0.599500	0.517100	0.155700
C201	C20	0.644200	0.721300	0.301300
C211	C21	0.668200	0.741500	0.388700
C221	C22	0.689900	0.672000	0.452100
C231	C23	0.690600	0.583200	0.426300
C241	C24	0.718800	0.385300	0.363900
C251	C25	0.084000	0.822800	0.891020
C261	C26	0.105600	0.893400	0.819000
C271	C27	0.140700	0.870300	0.728900
C281	C28	0.166800	0.941100	0.664800
C291	C29	0.171500	0.034100	0.695300
C301	C30	0.139000	0.052100	0.782400
C311	C31	0.099500	0.982900	0.844300
C321	C32	0.144200	0.778700	0.698700
C331	C33	0.168200	0.758500	0.611300
C341	C34	0.189900	0.828000	0.547900
C351	C35	0.190600	0.916800	0.573700
C361	C36	0.218800	0.114700	0.636100
C371	C37	0.416000	0.177200	0.391020
C381	C38	0.394400	0.106600	0.319000
C391	C39	0.359300	0.129700	0.228900
C401	C40	0.333200	0.058900	0.164800
C411	C41	0.328500	0.965900	0.195300
C421	C42	0.361000	0.947900	0.282400
C431	C43	0.400500	0.017100	0.344300
C441	C44	0.355800	0.221300	0.198700
C451	C45	0.331800	0.241500	0.111300
C461	C46	0.310100	0.172000	0.047900
C471	C47	0.309400	0.083200	0.073700
C481	C48	0.281200	0.885300	0.136100
O11	O1	0.792700	0.261840	0.602290
O21	O2	0.053700	0.331610	0.556390
O31	O3	0.684700	0.675500	0.829900
O41	O4	0.844900	0.616200	0.942500
O51	O5	0.707300	0.738160	0.102290
O61	O6	0.446300	0.668390	0.056390
O71	O7	0.815300	0.324500	0.329900
O81	O8	0.655100	0.383800	0.442500
O91	O9	0.207300	0.761840	0.897710
O101	O10	0.946300	0.831610	0.943610
O111	O11	0.315300	0.175500	0.670100
O121	O12	0.155100	0.116200	0.557500
O131	O13	0.292700	0.238160	0.397710
O141	O14	0.553700	0.168390	0.443610
O151	O15	0.184700	0.824500	0.170100
O161	O16	0.344900	0.883800	0.057500
