data_KIYMEM01_clean_PM
_symmetry_space_group_name_H-M	'P1'
_cell_length_a	7.139500
_cell_length_b	14.678000
_cell_length_c	15.014000
_cell_angle_alpha	90.000000
_cell_angle_beta	90.000000
_cell_angle_gamma	90.000000
_symmetry_Int_Tables_number 1

loop_
_symmetry_equiv_pos_as_xyz
'x,y,z'

loop_
_atom_site_label
_atom_site_type_symbol
_atom_site_fract_x
_atom_site_fract_y
_atom_site_fract_z
Ba11	Ba1	0.928020	0.194090	0.438910
O11	O1	0.794300	0.260800	0.602720
O21	O2	0.053400	0.331410	0.557070
O31	O3	0.844400	0.615700	0.942600
O41	O4	0.683400	0.675300	0.830000
C11	C1	0.917200	0.322800	0.609500
C21	C2	0.780100	0.614000	0.865200
C31	C3	0.898300	0.483100	0.656200
H11	H1	0.926300	0.498200	0.597500
C41	C4	0.895800	0.394200	0.680800
C51	C5	0.856700	0.370100	0.771700
C61	C6	0.854200	0.277700	0.802000
H21	H2	0.867900	0.230600	0.761100
C71	C7	0.832100	0.258000	0.889100
H31	H3	0.830400	0.197500	0.907500
C81	C8	0.811800	0.327100	0.951900
H41	H4	0.799100	0.312300	0.011900
C91	C9	0.810300	0.415900	0.926400
H51	H5	0.794500	0.461100	0.969200
C101	C10	0.832400	0.440800	0.835600
C111	C11	0.826700	0.534200	0.805100
C121	C12	0.859300	0.552400	0.717500
H61	H6	0.855700	0.612500	0.697900
Ba21	Ba2	0.571980	0.805910	0.938910
O51	O5	0.705700	0.739200	0.102720
O61	O6	0.446600	0.668590	0.057070
O71	O7	0.655600	0.384300	0.442600
O81	O8	0.816600	0.324700	0.330000
C131	C13	0.582800	0.677200	0.109500
C141	C14	0.719900	0.386000	0.365200
C151	C15	0.601700	0.516900	0.156200
H71	H7	0.573700	0.501800	0.097500
C161	C16	0.604200	0.605800	0.180800
C171	C17	0.643300	0.629900	0.271700
C181	C18	0.645800	0.722300	0.302000
H81	H8	0.632100	0.769400	0.261100
C191	C19	0.667900	0.742000	0.389100
H91	H9	0.669600	0.802500	0.407500
C201	C20	0.688200	0.672900	0.451900
H101	H10	0.700900	0.687700	0.511900
C211	C21	0.689700	0.584100	0.426400
H111	H11	0.705500	0.538900	0.469200
C221	C22	0.667600	0.559200	0.335600
C231	C23	0.673300	0.465800	0.305100
C241	C24	0.640700	0.447600	0.217500
H121	H12	0.644300	0.387500	0.197900
Ba31	Ba3	0.071980	0.694090	0.061090
O91	O9	0.205700	0.760800	0.897280
O101	O10	0.946600	0.831410	0.942930
O111	O11	0.155600	0.115700	0.557400
O121	O12	0.316600	0.175300	0.670000
C251	C25	0.082800	0.822800	0.890500
C261	C26	0.219900	0.114000	0.634800
C271	C27	0.101700	0.983100	0.843800
H131	H13	0.073700	0.998200	0.902500
C281	C28	0.104200	0.894200	0.819200
C291	C29	0.143300	0.870100	0.728300
C301	C30	0.145800	0.777700	0.698000
H141	H14	0.132100	0.730600	0.738900
C311	C31	0.167900	0.758000	0.610900
H151	H15	0.169600	0.697500	0.592500
C321	C32	0.188200	0.827100	0.548100
H161	H16	0.200900	0.812300	0.488100
C331	C33	0.189700	0.915900	0.573600
H171	H17	0.205500	0.961100	0.530800
C341	C34	0.167600	0.940800	0.664400
C351	C35	0.173300	0.034200	0.694900
C361	C36	0.140700	0.052400	0.782500
H181	H18	0.144300	0.112500	0.802100
Ba41	Ba4	0.428020	0.305910	0.561090
O131	O13	0.294300	0.239200	0.397280
O141	O14	0.553400	0.168590	0.442930
O151	O15	0.344400	0.884300	0.057400
O161	O16	0.183400	0.824700	0.170000
C371	C37	0.417200	0.177200	0.390500
C381	C38	0.280100	0.886000	0.134800
C391	C39	0.398300	0.016900	0.343800
H191	H19	0.426300	0.001800	0.402500
C401	C40	0.395800	0.105800	0.319200
C411	C41	0.356700	0.129900	0.228300
C421	C42	0.354200	0.222300	0.198000
H201	H20	0.367900	0.269400	0.238900
C431	C43	0.332100	0.242000	0.110900
H211	H21	0.330400	0.302500	0.092500
C441	C44	0.311800	0.172900	0.048100
H221	H22	0.299100	0.187700	0.988100
C451	C45	0.310300	0.084100	0.073600
H231	H23	0.294500	0.038900	0.030800
C461	C46	0.332400	0.059200	0.164400
C471	C47	0.326700	0.965800	0.194900
C481	C48	0.359300	0.947600	0.282500
H241	H24	0.355700	0.887500	0.302100
