data_KIYMAI01_clean_PM
_symmetry_space_group_name_H-M	'P1'
_cell_length_a	6.901000
_cell_length_b	14.700000
_cell_length_c	15.012000
_cell_angle_alpha	90.000000
_cell_angle_beta	90.000000
_cell_angle_gamma	90.000000
_symmetry_Int_Tables_number 1

loop_
_symmetry_equiv_pos_as_xyz
'x,y,z'

loop_
_atom_site_label
_atom_site_type_symbol
_atom_site_fract_x
_atom_site_fract_y
_atom_site_fract_z
Sr11	Sr1	0.855600	0.192280	0.546380
O11	O1	0.995000	0.347770	0.478210
O21	O2	0.719100	0.299600	0.419660
O31	O3	0.014900	0.602100	0.079000
O41	O4	0.813900	0.700300	0.145500
C11	C1	0.858700	0.354300	0.423400
C21	C2	0.909200	0.627200	0.141800
C31	C3	0.863700	0.429700	0.354800
C41	C4	0.860700	0.405800	0.267100
H11	H1	0.842900	0.345100	0.251600
C51	C5	0.884100	0.471100	0.199700
H21	H2	0.893900	0.452400	0.140700
C61	C6	0.892800	0.560900	0.219400
C71	C7	0.884000	0.589600	0.311500
C81	C8	0.878000	0.522300	0.377800
C91	C9	0.879400	0.551000	0.469100
H31	H3	0.876000	0.507600	0.514100
C101	C10	0.885700	0.640700	0.491000
H41	H4	0.888600	0.657800	0.550600
C111	C11	0.887800	0.707000	0.425100
H51	H5	0.890500	0.768100	0.441200
C121	C12	0.886000	0.684000	0.337600
H61	H6	0.886200	0.729200	0.294300
Sr21	Sr2	0.644400	0.807720	0.046380
O51	O5	0.505000	0.652230	0.978210
O61	O6	0.780900	0.700400	0.919660
O71	O7	0.485100	0.397900	0.579000
O81	O8	0.686100	0.299700	0.645500
C131	C13	0.641300	0.645700	0.923400
C141	C14	0.590800	0.372800	0.641800
C151	C15	0.636300	0.570300	0.854800
C161	C16	0.639300	0.594200	0.767100
H71	H7	0.657100	0.654900	0.751600
C171	C17	0.615900	0.528900	0.699700
H81	H8	0.606100	0.547600	0.640700
C181	C18	0.607200	0.439100	0.719400
C191	C19	0.616000	0.410400	0.811500
C201	C20	0.622000	0.477700	0.877800
C211	C21	0.620600	0.449000	0.969100
H91	H9	0.624000	0.492400	0.014100
C221	C22	0.614300	0.359300	0.991000
H101	H10	0.611400	0.342200	0.050600
C231	C23	0.612200	0.293000	0.925100
H111	H11	0.609500	0.231900	0.941200
C241	C24	0.614000	0.316000	0.837600
H121	H12	0.613800	0.270800	0.794300
Sr31	Sr3	0.144400	0.692280	0.953620
O91	O9	0.005000	0.847770	0.021790
O101	O10	0.280900	0.799600	0.080340
O111	O11	0.985100	0.102100	0.421000
O121	O12	0.186100	0.200300	0.354500
C251	C25	0.141300	0.854300	0.076600
C261	C26	0.090800	0.127200	0.358200
C271	C27	0.136300	0.929700	0.145200
C281	C28	0.139300	0.905800	0.232900
H131	H13	0.157100	0.845100	0.248400
C291	C29	0.115900	0.971100	0.300300
H141	H14	0.106100	0.952400	0.359300
C301	C30	0.107200	0.060900	0.280600
C311	C31	0.116000	0.089600	0.188500
C321	C32	0.122000	0.022300	0.122200
C331	C33	0.120600	0.051000	0.030900
H151	H15	0.124000	0.007600	0.985900
C341	C34	0.114300	0.140700	0.009000
H161	H16	0.111400	0.157800	0.949400
C351	C35	0.112200	0.207000	0.074900
H171	H17	0.109500	0.268100	0.058800
C361	C36	0.114000	0.184000	0.162400
H181	H18	0.113800	0.229200	0.205700
Sr41	Sr4	0.355600	0.307720	0.453620
O131	O13	0.495000	0.152230	0.521790
O141	O14	0.219100	0.200400	0.580340
O151	O15	0.514900	0.897900	0.921000
O161	O16	0.313900	0.799700	0.854500
C371	C37	0.358700	0.145700	0.576600
C381	C38	0.409200	0.872800	0.858200
C391	C39	0.363700	0.070300	0.645200
C401	C40	0.360700	0.094200	0.732900
H191	H19	0.342900	0.154900	0.748400
C411	C41	0.384100	0.028900	0.800300
H201	H20	0.393900	0.047600	0.859300
C421	C42	0.392800	0.939100	0.780600
C431	C43	0.384000	0.910400	0.688500
C441	C44	0.378000	0.977700	0.622200
C451	C45	0.379400	0.949000	0.530900
H211	H21	0.376000	0.992400	0.485900
C461	C46	0.385700	0.859300	0.509000
H221	H22	0.388600	0.842200	0.449400
C471	C47	0.387800	0.793000	0.574900
H231	H23	0.390500	0.731900	0.558800
C481	C48	0.386000	0.816000	0.662400
H241	H24	0.386200	0.770800	0.705700
