data_KIYMIQ_clean_PM
_symmetry_space_group_name_H-M	'P1'
_cell_length_a	8.688000
_cell_length_b	18.218600
_cell_length_c	18.218600
_cell_angle_alpha	120.000000
_cell_angle_beta	90.000000
_cell_angle_gamma	90.000000
_symmetry_Int_Tables_number 1

loop_
_symmetry_equiv_pos_as_xyz
'x,y,z'

loop_
_atom_site_label
_atom_site_type_symbol
_atom_site_fract_x
_atom_site_fract_y
_atom_site_fract_z
Na11	Na1	0.823680	0.361650	0.725210
Na21	Na2	0.821610	0.259080	0.511050
Na31	Na3	0.157010	0.363560	0.638350
Na41	Na4	0.154940	0.251970	0.740920
Na51	Na5	0.490350	0.274790	0.636440
Na61	Na6	0.488280	0.488950	0.748030
Na71	Na7	0.323680	0.638350	0.274790
Na81	Na8	0.321610	0.740920	0.488950
Na91	Na9	0.657010	0.636440	0.361650
Na101	Na10	0.654940	0.748030	0.259080
Na111	Na11	0.990350	0.725210	0.363560
Na121	Na12	0.988280	0.511050	0.251970
H11	H1	0.883500	0.056400	0.492300
H21	H2	0.552800	0.875300	0.621500
H31	H3	0.656400	0.163100	0.754700
H41	H4	0.473700	0.964400	0.756900
H51	H5	0.525200	0.107700	0.822800
H61	H6	0.834700	0.913500	0.425200
H71	H7	0.216830	0.435900	0.943600
H81	H8	0.886130	0.746200	0.124700
H91	H9	0.989730	0.591600	0.836900
H101	H10	0.807030	0.792500	0.035600
H111	H11	0.858530	0.715100	0.892300
H121	H12	0.168030	0.511700	0.086500
H131	H13	0.550170	0.507700	0.564100
H141	H14	0.219470	0.378500	0.253800
H151	H15	0.323070	0.245300	0.408400
H161	H16	0.140370	0.243100	0.207500
H171	H17	0.191870	0.177200	0.284900
H181	H18	0.501370	0.574800	0.488300
H191	H19	0.383500	0.943600	0.507700
H201	H20	0.052800	0.124700	0.378500
H211	H21	0.156400	0.836900	0.245300
H221	H22	0.973700	0.035600	0.243100
H231	H23	0.025200	0.892300	0.177200
H241	H24	0.334700	0.086500	0.574800
H251	H25	0.716830	0.564100	0.056400
H261	H26	0.386130	0.253800	0.875300
H271	H27	0.489730	0.408400	0.163100
H281	H28	0.307030	0.207500	0.964400
H291	H29	0.358530	0.284900	0.107700
H301	H30	0.668030	0.488300	0.913500
H311	H31	0.050170	0.492300	0.435900
H321	H32	0.719470	0.621500	0.746200
H331	H33	0.823070	0.754700	0.591600
H341	H34	0.640370	0.756900	0.792500
H351	H35	0.691870	0.822800	0.715100
H361	H36	0.001370	0.425200	0.511700
C11	C1	0.806000	0.181490	0.640900
C21	C2	0.774800	0.087310	0.600510
C31	C3	0.658500	0.964170	0.601140
C41	C4	0.692300	0.053010	0.643420
C51	C5	0.826800	0.034350	0.520100
C61	C6	0.575100	0.932850	0.647080
C71	C7	0.637600	0.105110	0.727180
C81	C8	0.527800	0.986100	0.727900
C91	C9	0.559000	0.072300	0.767600
C101	C10	0.796000	0.947870	0.479460
C111	C11	0.711100	0.911170	0.515850
C121	C12	0.671600	0.818380	0.461660
C131	C13	0.139330	0.459410	0.818510
C141	C14	0.108130	0.513200	0.912690
C151	C15	0.991830	0.636970	0.035830
C161	C16	0.025630	0.590410	0.946990
C171	C17	0.160130	0.485750	0.965650
C181	C18	0.908430	0.714230	0.067150
C191	C19	0.970930	0.622070	0.894890
C201	C20	0.861130	0.741800	0.013900
C211	C21	0.892330	0.695300	0.927700
C221	C22	0.129330	0.531590	0.052130
C231	C23	0.044430	0.604680	0.088830
C241	C24	0.004930	0.643280	0.181620
C251	C25	0.472670	0.359100	0.540590
C261	C26	0.441470	0.399490	0.486800
C271	C27	0.325170	0.398860	0.363030
C281	C28	0.358970	0.356580	0.409590
C291	C29	0.493470	0.479900	0.514250
C301	C30	0.241770	0.352920	0.285770
C311	C31	0.304270	0.272820	0.377930
C321	C32	0.194470	0.272100	0.258200
C331	C33	0.225670	0.232400	0.304700
C341	C34	0.462670	0.520540	0.468410
C351	C35	0.377770	0.484150	0.395320
C361	C36	0.338270	0.538340	0.356720
C371	C37	0.306000	0.818510	0.359100
C381	C38	0.274800	0.912690	0.399490
C391	C39	0.158500	0.035830	0.398860
C401	C40	0.192300	0.946990	0.356580
C411	C41	0.326800	0.965650	0.479900
C421	C42	0.075100	0.067150	0.352920
C431	C43	0.137600	0.894890	0.272820
C441	C44	0.027800	0.013900	0.272100
C451	C45	0.059000	0.927700	0.232400
C461	C46	0.296000	0.052130	0.520540
C471	C47	0.211100	0.088830	0.484150
C481	C48	0.171600	0.181620	0.538340
C491	C49	0.639330	0.540590	0.181490
C501	C50	0.608130	0.486800	0.087310
C511	C51	0.491830	0.363030	0.964170
C521	C52	0.525630	0.409590	0.053010
C531	C53	0.660130	0.514250	0.034350
C541	C54	0.408430	0.285770	0.932850
C551	C55	0.470930	0.377930	0.105110
C561	C56	0.361130	0.258200	0.986100
C571	C57	0.392330	0.304700	0.072300
C581	C58	0.629330	0.468410	0.947870
C591	C59	0.544430	0.395320	0.911170
C601	C60	0.504930	0.356720	0.818380
C611	C61	0.972670	0.640900	0.459410
C621	C62	0.941470	0.600510	0.513200
C631	C63	0.825170	0.601140	0.636970
C641	C64	0.858970	0.643420	0.590410
C651	C65	0.993470	0.520100	0.485750
C661	C66	0.741770	0.647080	0.714230
C671	C67	0.804270	0.727180	0.622070
C681	C68	0.694470	0.727900	0.741800
C691	C69	0.725670	0.767600	0.695300
C701	C70	0.962670	0.479460	0.531590
C711	C71	0.877770	0.515850	0.604680
C721	C72	0.838270	0.461660	0.643280
O11	O1	0.733400	0.219500	0.609970
O21	O2	0.897800	0.215870	0.700850
O31	O3	0.747500	0.776650	0.394290
O41	O4	0.565600	0.786700	0.482500
O51	O5	0.066730	0.390470	0.780500
O61	O6	0.231130	0.484980	0.784130
O71	O7	0.080830	0.617640	0.223350
O81	O8	0.898930	0.695800	0.213300
O91	O9	0.400070	0.390030	0.609530
O101	O10	0.564470	0.299150	0.515020
O111	O11	0.414170	0.605710	0.382360
O121	O12	0.232270	0.517500	0.304200
O131	O13	0.233400	0.780500	0.390030
O141	O14	0.397800	0.784130	0.299150
O151	O15	0.247500	0.223350	0.605710
O161	O16	0.065600	0.213300	0.517500
O171	O17	0.566730	0.609530	0.219500
O181	O18	0.731130	0.515020	0.215870
O191	O19	0.580830	0.382360	0.776650
O201	O20	0.398930	0.304200	0.786700
O211	O21	0.900070	0.609970	0.390470
O221	O22	0.064470	0.700850	0.484980
O231	O23	0.914170	0.394290	0.617640
O241	O24	0.732270	0.482500	0.695800
