data_KIYQIU_clean_PM
_symmetry_space_group_name_H-M	'P1'
_cell_length_a	12.180000
_cell_length_b	14.210700
_cell_length_c	14.283400
_cell_angle_alpha	105.093000
_cell_angle_beta	90.000000
_cell_angle_gamma	90.000000
_symmetry_Int_Tables_number 1

loop_
_symmetry_equiv_pos_as_xyz
'x,y,z'

loop_
_atom_site_label
_atom_site_type_symbol
_atom_site_fract_x
_atom_site_fract_y
_atom_site_fract_z
Zn11	Zn1	0.515500	0.845890	0.157910
Zn21	Zn2	0.015500	0.654110	0.342090
Zn31	Zn3	0.758100	0.438010	0.799090
Zn41	Zn4	0.741900	0.938010	0.299090
Zn51	Zn5	0.258100	0.061990	0.700910
Zn61	Zn6	0.241900	0.561990	0.200910
Zn71	Zn7	0.984500	0.345890	0.657910
Zn81	Zn8	0.484500	0.154110	0.842090
H11	H1	0.948400	0.744700	0.107400
H21	H2	0.545800	0.865800	0.503400
H31	H3	0.673900	0.619800	0.978200
H41	H4	0.826100	0.119800	0.478200
H51	H5	0.187000	0.827000	0.867400
H61	H6	0.448400	0.755300	0.392600
H71	H7	0.315900	0.220600	0.466600
H81	H8	0.936400	0.534800	0.478800
H91	H9	0.051600	0.255300	0.892600
H101	H10	0.684100	0.779400	0.533400
H111	H11	0.551600	0.244700	0.607400
H121	H12	0.184100	0.720600	0.966600
H131	H13	0.815900	0.279400	0.033400
H141	H14	0.813000	0.173000	0.132600
H151	H15	0.045800	0.634200	0.996600
H161	H16	0.063600	0.465200	0.521200
H171	H17	0.313000	0.327000	0.367400
H181	H18	0.954200	0.365800	0.003400
H191	H19	0.454200	0.134200	0.496600
H201	H20	0.436400	0.965200	0.021200
H211	H21	0.173900	0.880200	0.521800
H221	H22	0.687000	0.673000	0.632600
H231	H23	0.563600	0.034800	0.978800
H241	H24	0.326100	0.380200	0.021800
C11	C1	0.469600	0.866900	0.507500
C21	C2	0.587200	0.198300	0.558800
C31	C3	0.823500	0.527300	0.633400
C41	C4	0.750000	0.123900	0.481000
C51	C5	0.030400	0.366900	0.007500
C61	C6	0.077800	0.434100	0.079700
C71	C7	0.750000	0.623900	0.981000
C81	C8	0.685100	0.094300	0.069900
C91	C9	0.764700	0.229200	0.023500
C101	C10	0.614000	0.085700	0.991300
C111	C11	0.422200	0.934100	0.579700
C121	C12	0.735300	0.729200	0.523500
C131	C13	0.738300	0.666100	0.583000
C141	C14	0.323500	0.972700	0.866600
C151	C15	0.176500	0.472700	0.366600
C161	C16	0.701000	0.194900	0.553200
C171	C17	0.250000	0.376100	0.019000
C181	C18	0.233500	0.731800	0.375700
C191	C19	0.314900	0.905700	0.930100
C201	C20	0.238300	0.833900	0.917000
C211	C21	0.412800	0.801700	0.441200
C221	C22	0.513300	0.991000	0.343100
C231	C23	0.266500	0.231800	0.875700
C241	C24	0.766500	0.268200	0.624300
C251	C25	0.679600	0.279600	0.883100
C261	C26	0.261700	0.333900	0.417000
C271	C27	0.689900	0.214900	0.949800
C281	C28	0.201000	0.305100	0.946800
C291	C29	0.577800	0.065900	0.420300
C301	C30	0.310100	0.785100	0.050200
C311	C31	0.986700	0.491000	0.843100
C321	C32	0.814900	0.594300	0.569900
C331	C33	0.179600	0.220400	0.616900
C341	C34	0.733500	0.768200	0.124300
C351	C35	0.810100	0.714900	0.449800
C361	C36	0.799000	0.694900	0.053200
C371	C37	0.912800	0.698300	0.058800
C381	C38	0.299000	0.805100	0.446800
C391	C39	0.886000	0.585700	0.491300
C401	C40	0.087200	0.301700	0.941200
C411	C41	0.969600	0.633100	0.992500
C421	C42	0.235300	0.770800	0.976500
C431	C43	0.820400	0.779600	0.383100
C441	C44	0.486700	0.009000	0.656900
C451	C45	0.013300	0.509000	0.156900
C461	C46	0.114000	0.414300	0.508700
C471	C47	0.530400	0.133100	0.492500
C481	C48	0.185100	0.405700	0.430100
C491	C49	0.320400	0.720400	0.116900
C501	C50	0.761700	0.166100	0.083000
C511	C51	0.386000	0.914300	0.008700
C521	C52	0.189900	0.285100	0.550200
C531	C53	0.264700	0.270800	0.476500
C541	C54	0.922200	0.565900	0.920300
C551	C55	0.250000	0.876100	0.519000
C561	C56	0.676500	0.027300	0.133400
N11	N1	0.688300	0.058700	0.412900
N21	N2	0.188300	0.441300	0.087100
N31	N3	0.886800	0.643100	0.434800
N41	N4	0.386800	0.856900	0.065200
N51	N5	0.113200	0.356900	0.565200
N61	N6	0.613200	0.143100	0.934800
N71	N7	0.311700	0.941300	0.587100
N81	N8	0.811700	0.558700	0.912900
O11	O1	0.253600	0.656500	0.116300
O21	O2	0.602500	0.963800	0.106200
O31	O3	0.096300	0.236900	0.672200
O41	O4	0.266900	0.965100	0.794300
O51	O5	0.277700	0.664700	0.313800
O61	O6	0.222300	0.164700	0.813800
O71	O7	0.897500	0.463800	0.606200
O81	O8	0.746400	0.343500	0.883700
O91	O9	0.733100	0.034900	0.205700
O101	O10	0.414800	0.002000	0.323000
O111	O11	0.403700	0.736900	0.172200
O121	O12	0.397500	0.036200	0.893800
O131	O13	0.070500	0.581700	0.199400
O141	O14	0.766900	0.534900	0.705700
O151	O15	0.129400	0.745600	0.381600
O161	O16	0.585200	0.998000	0.677000
O171	O17	0.903700	0.763100	0.327800
O181	O18	0.429500	0.081700	0.699400
O191	O19	0.914800	0.498000	0.177000
O201	O20	0.722300	0.335300	0.686200
O211	O21	0.777700	0.835300	0.186200
O221	O22	0.929500	0.418300	0.800600
O231	O23	0.629400	0.754400	0.118400
O241	O24	0.085200	0.502000	0.823000
O251	O25	0.370600	0.245600	0.881600
O261	O26	0.102500	0.536200	0.393800
O271	O27	0.570500	0.918300	0.300600
O281	O28	0.596300	0.263100	0.827800
O291	O29	0.753600	0.843500	0.383700
O301	O30	0.870600	0.254400	0.618400
O311	O31	0.246400	0.156500	0.616300
O321	O32	0.233100	0.465100	0.294300
