data_KIYTOD_clean_PM
_symmetry_space_group_name_H-M	'P1'
_cell_length_a	28.550000
_cell_length_b	28.550000
_cell_length_c	27.059400
_cell_angle_alpha	90.000000
_cell_angle_beta	90.000000
_cell_angle_gamma	90.000000
_symmetry_Int_Tables_number 1

loop_
_symmetry_equiv_pos_as_xyz
'x,y,z'

loop_
_atom_site_label
_atom_site_type_symbol
_atom_site_fract_x
_atom_site_fract_y
_atom_site_fract_z
Cu11	Cu1	0.035050	0.263380	0.213720
Cu21	Cu2	0.027900	0.205070	0.290910
O11	O1	0.978430	0.231100	0.193300
O21	O2	0.973960	0.179920	0.254200
O31	O3	0.835830	0.069630	0.256000
O41	O4	0.787000	0.073500	0.189800
O51	O5	0.712400	0.089900	0.244900
O61	O6	0.759900	0.083600	0.312200
O71	O7	0.998600	0.303700	0.249300
O81	O8	0.988300	0.255900	0.315500
C11	C1	0.790400	0.257100	0.154300
H11	H1	0.804700	0.243900	0.181900
C21	C2	0.799800	0.245800	0.103100
C31	C3	0.831800	0.213600	0.088500
C41	C4	0.843200	0.204900	0.039900
C51	C5	0.876000	0.168800	0.024200
H21	H2	0.893600	0.149400	0.044700
C61	C6	0.855900	0.185800	0.131000
C71	C7	0.896900	0.201800	0.151600
H31	H3	0.911700	0.228000	0.138300
C81	C8	0.916500	0.179000	0.192100
C91	C9	0.892800	0.140600	0.212100
H41	H4	0.904500	0.125500	0.240000
C101	C10	0.851300	0.125200	0.189700
C111	C11	0.833600	0.147600	0.148900
H51	H5	0.806500	0.136700	0.133700
C121	C12	0.960000	0.197100	0.214200
C131	C13	0.824200	0.085800	0.215100
C141	C14	0.728200	0.166700	0.351300
H61	H6	0.755900	0.154100	0.363700
C151	C15	0.704600	0.145300	0.310900
C161	C16	0.726000	0.102400	0.287600
C171	C17	0.903600	0.355600	0.374400
C181	C18	0.966100	0.387100	0.303700
H71	H7	0.995500	0.393900	0.290800
C191	C19	0.955200	0.330800	0.313700
C201	C20	0.928500	0.321700	0.352100
H81	H8	0.926800	0.291200	0.364000
C211	C21	0.982300	0.295700	0.290000
Cu31	Cu3	0.964950	0.736620	0.213720
Cu41	Cu4	0.972100	0.794930	0.290910
O91	O9	0.021570	0.768900	0.193300
O101	O10	0.026040	0.820080	0.254200
O111	O11	0.164170	0.930370	0.256000
O121	O12	0.213000	0.926500	0.189800
O131	O13	0.287600	0.910100	0.244900
O141	O14	0.240100	0.916400	0.312200
O151	O15	0.001400	0.696300	0.249300
O161	O16	0.011700	0.744100	0.315500
C221	C22	0.209600	0.742900	0.154300
H91	H9	0.195300	0.756100	0.181900
C231	C23	0.200200	0.754200	0.103100
C241	C24	0.168200	0.786400	0.088500
C251	C25	0.156800	0.795100	0.039900
C261	C26	0.124000	0.831200	0.024200
H101	H10	0.106400	0.850600	0.044700
C271	C27	0.144100	0.814200	0.131000
C281	C28	0.103100	0.798200	0.151600
H111	H11	0.088300	0.772000	0.138300
C291	C29	0.083500	0.821000	0.192100
C301	C30	0.107200	0.859400	0.212100
H121	H12	0.095500	0.874500	0.240000
C311	C31	0.148700	0.874800	0.189700
C321	C32	0.166400	0.852400	0.148900
H131	H13	0.193500	0.863300	0.133700
C331	C33	0.040000	0.802900	0.214200
C341	C34	0.175800	0.914200	0.215100
C351	C35	0.271800	0.833300	0.351300
H141	H14	0.244100	0.845900	0.363700
C361	C36	0.295400	0.854700	0.310900
C371	C37	0.274000	0.897600	0.287600
C381	C38	0.096400	0.644400	0.374400
C391	C39	0.033900	0.612900	0.303700
H151	H15	0.004500	0.606100	0.290800
C401	C40	0.044800	0.669200	0.313700
C411	C41	0.071500	0.678300	0.352100
H161	H16	0.073200	0.708800	0.364000
C421	C42	0.017700	0.704300	0.290000
Cu51	Cu5	0.736620	0.035050	0.213720
Cu61	Cu6	0.794930	0.027900	0.290910
O171	O17	0.768900	0.978430	0.193300
O181	O18	0.820080	0.973960	0.254200
O191	O19	0.930370	0.835830	0.256000
O201	O20	0.926500	0.787000	0.189800
O211	O21	0.910100	0.712400	0.244900
O221	O22	0.916400	0.759900	0.312200
O231	O23	0.696300	0.998600	0.249300
O241	O24	0.744100	0.988300	0.315500
C431	C43	0.742900	0.790400	0.154300
H171	H17	0.756100	0.804700	0.181900
C441	C44	0.754200	0.799800	0.103100
C451	C45	0.786400	0.831800	0.088500
C461	C46	0.795100	0.843200	0.039900
C471	C47	0.831200	0.876000	0.024200
H181	H18	0.850600	0.893600	0.044700
C481	C48	0.814200	0.855900	0.131000
C491	C49	0.798200	0.896900	0.151600
H191	H19	0.772000	0.911700	0.138300
C501	C50	0.821000	0.916500	0.192100
C511	C51	0.859400	0.892800	0.212100
H201	H20	0.874500	0.904500	0.240000
C521	C52	0.874800	0.851300	0.189700
C531	C53	0.852400	0.833600	0.148900
H211	H21	0.863300	0.806500	0.133700
C541	C54	0.802900	0.960000	0.214200
C551	C55	0.914200	0.824200	0.215100
C561	C56	0.833300	0.728200	0.351300
H221	H22	0.845900	0.755900	0.363700
C571	C57	0.854700	0.704600	0.310900
C581	C58	0.897600	0.726000	0.287600
C591	C59	0.644400	0.903600	0.374400
C601	C60	0.612900	0.966100	0.303700
H231	H23	0.606100	0.995500	0.290800
C611	C61	0.669200	0.955200	0.313700
C621	C62	0.678300	0.928500	0.352100
H241	H24	0.708800	0.926800	0.364000
C631	C63	0.704300	0.982300	0.290000
Cu71	Cu7	0.263380	0.964950	0.213720
Cu81	Cu8	0.205070	0.972100	0.290910
O251	O25	0.231100	0.021570	0.193300
O261	O26	0.179920	0.026040	0.254200
O271	O27	0.069630	0.164170	0.256000
O281	O28	0.073500	0.213000	0.189800
O291	O29	0.089900	0.287600	0.244900
O301	O30	0.083600	0.240100	0.312200
O311	O31	0.303700	0.001400	0.249300
O321	O32	0.255900	0.011700	0.315500
C641	C64	0.257100	0.209600	0.154300
H251	H25	0.243900	0.195300	0.181900
C651	C65	0.245800	0.200200	0.103100
C661	C66	0.213600	0.168200	0.088500
C671	C67	0.204900	0.156800	0.039900
C681	C68	0.168800	0.124000	0.024200
H261	H26	0.149400	0.106400	0.044700
C691	C69	0.185800	0.144100	0.131000
C701	C70	0.201800	0.103100	0.151600
H271	H27	0.228000	0.088300	0.138300
C711	C71	0.179000	0.083500	0.192100
C721	C72	0.140600	0.107200	0.212100
H281	H28	0.125500	0.095500	0.240000
C731	C73	0.125200	0.148700	0.189700
C741	C74	0.147600	0.166400	0.148900
H291	H29	0.136700	0.193500	0.133700
C751	C75	0.197100	0.040000	0.214200
C761	C76	0.085800	0.175800	0.215100
C771	C77	0.166700	0.271800	0.351300
H301	H30	0.154100	0.244100	0.363700
C781	C78	0.145300	0.295400	0.310900
C791	C79	0.102400	0.274000	0.287600
C801	C80	0.355600	0.096400	0.374400
C811	C81	0.387100	0.033900	0.303700
H311	H31	0.393900	0.004500	0.290800
C821	C82	0.330800	0.044800	0.313700
C831	C83	0.321700	0.071500	0.352100
H321	H32	0.291200	0.073200	0.364000
C841	C84	0.295700	0.017700	0.290000
Cu91	Cu9	0.464950	0.763380	0.786280
Cu101	Cu10	0.472100	0.705070	0.709090
O331	O33	0.521570	0.731100	0.806700
O341	O34	0.526040	0.679920	0.745800
O351	O35	0.664170	0.569630	0.744000
O361	O36	0.713000	0.573500	0.810200
O371	O37	0.787600	0.589900	0.755100
O381	O38	0.740100	0.583600	0.687800
O391	O39	0.501400	0.803700	0.750700
O401	O40	0.511700	0.755900	0.684500
C851	C85	0.709600	0.757100	0.845700
H331	H33	0.695300	0.743900	0.818100
C861	C86	0.700200	0.745800	0.896900
C871	C87	0.668200	0.713600	0.911500
C881	C88	0.656800	0.704900	0.960100
C891	C89	0.624000	0.668800	0.975800
H341	H34	0.606400	0.649400	0.955300
C901	C90	0.644100	0.685800	0.869000
C911	C91	0.603100	0.701800	0.848400
H351	H35	0.588300	0.728000	0.861700
C921	C92	0.583500	0.679000	0.807900
C931	C93	0.607200	0.640600	0.787900
H361	H36	0.595500	0.625500	0.760000
C941	C94	0.648700	0.625200	0.810300
C951	C95	0.666400	0.647600	0.851100
H371	H37	0.693500	0.636700	0.866300
C961	C96	0.540000	0.697100	0.785800
C971	C97	0.675800	0.585800	0.784900
C981	C98	0.771800	0.666700	0.648700
H381	H38	0.744100	0.654100	0.636300
C991	C99	0.795400	0.645300	0.689100
C1001	C100	0.774000	0.602400	0.712400
C1011	C101	0.596400	0.855600	0.625600
C1021	C102	0.533900	0.887100	0.696300
H391	H39	0.504500	0.893900	0.709200
C1031	C103	0.544800	0.830800	0.686300
C1041	C104	0.571500	0.821700	0.647900
H401	H40	0.573200	0.791200	0.636000
C1051	C105	0.517700	0.795700	0.710000
Cu111	Cu11	0.535050	0.236620	0.786280
Cu121	Cu12	0.527900	0.294930	0.709090
O411	O41	0.478430	0.268900	0.806700
O421	O42	0.473960	0.320080	0.745800
O431	O43	0.335830	0.430370	0.744000
O441	O44	0.287000	0.426500	0.810200
O451	O45	0.212400	0.410100	0.755100
O461	O46	0.259900	0.416400	0.687800
O471	O47	0.498600	0.196300	0.750700
O481	O48	0.488300	0.244100	0.684500
C1061	C106	0.290400	0.242900	0.845700
H411	H41	0.304700	0.256100	0.818100
C1071	C107	0.299800	0.254200	0.896900
C1081	C108	0.331800	0.286400	0.911500
C1091	C109	0.343200	0.295100	0.960100
C1101	C110	0.376000	0.331200	0.975800
H421	H42	0.393600	0.350600	0.955300
C1111	C111	0.355900	0.314200	0.869000
C1121	C112	0.396900	0.298200	0.848400
H431	H43	0.411700	0.272000	0.861700
C1131	C113	0.416500	0.321000	0.807900
C1141	C114	0.392800	0.359400	0.787900
H441	H44	0.404500	0.374500	0.760000
C1151	C115	0.351300	0.374800	0.810300
C1161	C116	0.333600	0.352400	0.851100
H451	H45	0.306500	0.363300	0.866300
C1171	C117	0.460000	0.302900	0.785800
C1181	C118	0.324200	0.414200	0.784900
C1191	C119	0.228200	0.333300	0.648700
H461	H46	0.255900	0.345900	0.636300
C1201	C120	0.204600	0.354700	0.689100
C1211	C121	0.226000	0.397600	0.712400
C1221	C122	0.403600	0.144400	0.625600
C1231	C123	0.466100	0.112900	0.696300
H471	H47	0.495500	0.106100	0.709200
C1241	C124	0.455200	0.169200	0.686300
C1251	C125	0.428500	0.178300	0.647900
H481	H48	0.426800	0.208800	0.636000
C1261	C126	0.482300	0.204300	0.710000
Cu131	Cu13	0.763380	0.535050	0.786280
Cu141	Cu14	0.705070	0.527900	0.709090
O491	O49	0.731100	0.478430	0.806700
O501	O50	0.679920	0.473960	0.745800
O511	O51	0.569630	0.335830	0.744000
O521	O52	0.573500	0.287000	0.810200
O531	O53	0.589900	0.212400	0.755100
O541	O54	0.583600	0.259900	0.687800
O551	O55	0.803700	0.498600	0.750700
O561	O56	0.755900	0.488300	0.684500
C1271	C127	0.757100	0.290400	0.845700
H491	H49	0.743900	0.304700	0.818100
C1281	C128	0.745800	0.299800	0.896900
C1291	C129	0.713600	0.331800	0.911500
C1301	C130	0.704900	0.343200	0.960100
C1311	C131	0.668800	0.376000	0.975800
H501	H50	0.649400	0.393600	0.955300
C1321	C132	0.685800	0.355900	0.869000
C1331	C133	0.701800	0.396900	0.848400
H511	H51	0.728000	0.411700	0.861700
C1341	C134	0.679000	0.416500	0.807900
C1351	C135	0.640600	0.392800	0.787900
H521	H52	0.625500	0.404500	0.760000
C1361	C136	0.625200	0.351300	0.810300
C1371	C137	0.647600	0.333600	0.851100
H531	H53	0.636700	0.306500	0.866300
C1381	C138	0.697100	0.460000	0.785800
C1391	C139	0.585800	0.324200	0.784900
C1401	C140	0.666700	0.228200	0.648700
H541	H54	0.654100	0.255900	0.636300
C1411	C141	0.645300	0.204600	0.689100
C1421	C142	0.602400	0.226000	0.712400
C1431	C143	0.855600	0.403600	0.625600
C1441	C144	0.887100	0.466100	0.696300
H551	H55	0.893900	0.495500	0.709200
C1451	C145	0.830800	0.455200	0.686300
C1461	C146	0.821700	0.428500	0.647900
H561	H56	0.791200	0.426800	0.636000
C1471	C147	0.795700	0.482300	0.710000
Cu151	Cu15	0.236620	0.464950	0.786280
Cu161	Cu16	0.294930	0.472100	0.709090
O571	O57	0.268900	0.521570	0.806700
O581	O58	0.320080	0.526040	0.745800
O591	O59	0.430370	0.664170	0.744000
O601	O60	0.426500	0.713000	0.810200
O611	O61	0.410100	0.787600	0.755100
O621	O62	0.416400	0.740100	0.687800
O631	O63	0.196300	0.501400	0.750700
O641	O64	0.244100	0.511700	0.684500
C1481	C148	0.242900	0.709600	0.845700
H571	H57	0.256100	0.695300	0.818100
C1491	C149	0.254200	0.700200	0.896900
C1501	C150	0.286400	0.668200	0.911500
C1511	C151	0.295100	0.656800	0.960100
C1521	C152	0.331200	0.624000	0.975800
H581	H58	0.350600	0.606400	0.955300
C1531	C153	0.314200	0.644100	0.869000
C1541	C154	0.298200	0.603100	0.848400
H591	H59	0.272000	0.588300	0.861700
C1551	C155	0.321000	0.583500	0.807900
C1561	C156	0.359400	0.607200	0.787900
H601	H60	0.374500	0.595500	0.760000
C1571	C157	0.374800	0.648700	0.810300
C1581	C158	0.352400	0.666400	0.851100
H611	H61	0.363300	0.693500	0.866300
C1591	C159	0.302900	0.540000	0.785800
C1601	C160	0.414200	0.675800	0.784900
C1611	C161	0.333300	0.771800	0.648700
H621	H62	0.345900	0.744100	0.636300
C1621	C162	0.354700	0.795400	0.689100
C1631	C163	0.397600	0.774000	0.712400
C1641	C164	0.144400	0.596400	0.625600
C1651	C165	0.112900	0.533900	0.696300
H631	H63	0.106100	0.504500	0.709200
C1661	C166	0.169200	0.544800	0.686300
C1671	C167	0.178300	0.571500	0.647900
H641	H64	0.208800	0.573200	0.636000
C1681	C168	0.204300	0.517700	0.710000
Cu171	Cu17	0.964950	0.736620	0.786280
Cu181	Cu18	0.972100	0.794930	0.709090
O651	O65	0.021570	0.768900	0.806700
O661	O66	0.026040	0.820080	0.745800
O671	O67	0.164170	0.930370	0.744000
O681	O68	0.213000	0.926500	0.810200
O691	O69	0.287600	0.910100	0.755100
O701	O70	0.240100	0.916400	0.687800
O711	O71	0.001400	0.696300	0.750700
O721	O72	0.011700	0.744100	0.684500
C1691	C169	0.209600	0.742900	0.845700
H651	H65	0.195300	0.756100	0.818100
C1701	C170	0.200200	0.754200	0.896900
C1711	C171	0.168200	0.786400	0.911500
C1721	C172	0.156800	0.795100	0.960100
C1731	C173	0.124000	0.831200	0.975800
H661	H66	0.106400	0.850600	0.955300
C1741	C174	0.144100	0.814200	0.869000
C1751	C175	0.103100	0.798200	0.848400
H671	H67	0.088300	0.772000	0.861700
C1761	C176	0.083500	0.821000	0.807900
C1771	C177	0.107200	0.859400	0.787900
H681	H68	0.095500	0.874500	0.760000
C1781	C178	0.148700	0.874800	0.810300
C1791	C179	0.166400	0.852400	0.851100
H691	H69	0.193500	0.863300	0.866300
C1801	C180	0.040000	0.802900	0.785800
C1811	C181	0.175800	0.914200	0.784900
C1821	C182	0.271800	0.833300	0.648700
H701	H70	0.244100	0.845900	0.636300
C1831	C183	0.295400	0.854700	0.689100
C1841	C184	0.274000	0.897600	0.712400
C1851	C185	0.096400	0.644400	0.625600
C1861	C186	0.033900	0.612900	0.696300
H711	H71	0.004500	0.606100	0.709200
C1871	C187	0.044800	0.669200	0.686300
C1881	C188	0.071500	0.678300	0.647900
H721	H72	0.073200	0.708800	0.636000
C1891	C189	0.017700	0.704300	0.710000
Cu191	Cu19	0.035050	0.263380	0.786280
Cu201	Cu20	0.027900	0.205070	0.709090
O731	O73	0.978430	0.231100	0.806700
O741	O74	0.973960	0.179920	0.745800
O751	O75	0.835830	0.069630	0.744000
O761	O76	0.787000	0.073500	0.810200
O771	O77	0.712400	0.089900	0.755100
O781	O78	0.759900	0.083600	0.687800
O791	O79	0.998600	0.303700	0.750700
O801	O80	0.988300	0.255900	0.684500
C1901	C190	0.790400	0.257100	0.845700
H731	H73	0.804700	0.243900	0.818100
C1911	C191	0.799800	0.245800	0.896900
C1921	C192	0.831800	0.213600	0.911500
C1931	C193	0.843200	0.204900	0.960100
C1941	C194	0.876000	0.168800	0.975800
H741	H74	0.893600	0.149400	0.955300
C1951	C195	0.855900	0.185800	0.869000
C1961	C196	0.896900	0.201800	0.848400
H751	H75	0.911700	0.228000	0.861700
C1971	C197	0.916500	0.179000	0.807900
C1981	C198	0.892800	0.140600	0.787900
H761	H76	0.904500	0.125500	0.760000
C1991	C199	0.851300	0.125200	0.810300
C2001	C200	0.833600	0.147600	0.851100
H771	H77	0.806500	0.136700	0.866300
C2011	C201	0.960000	0.197100	0.785800
C2021	C202	0.824200	0.085800	0.784900
C2031	C203	0.728200	0.166700	0.648700
H781	H78	0.755900	0.154100	0.636300
C2041	C204	0.704600	0.145300	0.689100
C2051	C205	0.726000	0.102400	0.712400
C2061	C206	0.903600	0.355600	0.625600
C2071	C207	0.966100	0.387100	0.696300
H791	H79	0.995500	0.393900	0.709200
C2081	C208	0.955200	0.330800	0.686300
C2091	C209	0.928500	0.321700	0.647900
H801	H80	0.926800	0.291200	0.636000
C2101	C210	0.982300	0.295700	0.710000
Cu211	Cu21	0.263380	0.964950	0.786280
Cu221	Cu22	0.205070	0.972100	0.709090
O811	O81	0.231100	0.021570	0.806700
O821	O82	0.179920	0.026040	0.745800
O831	O83	0.069630	0.164170	0.744000
O841	O84	0.073500	0.213000	0.810200
O851	O85	0.089900	0.287600	0.755100
O861	O86	0.083600	0.240100	0.687800
O871	O87	0.303700	0.001400	0.750700
O881	O88	0.255900	0.011700	0.684500
C2111	C211	0.257100	0.209600	0.845700
H811	H81	0.243900	0.195300	0.818100
C2121	C212	0.245800	0.200200	0.896900
C2131	C213	0.213600	0.168200	0.911500
C2141	C214	0.204900	0.156800	0.960100
C2151	C215	0.168800	0.124000	0.975800
H821	H82	0.149400	0.106400	0.955300
C2161	C216	0.185800	0.144100	0.869000
C2171	C217	0.201800	0.103100	0.848400
H831	H83	0.228000	0.088300	0.861700
C2181	C218	0.179000	0.083500	0.807900
C2191	C219	0.140600	0.107200	0.787900
H841	H84	0.125500	0.095500	0.760000
C2201	C220	0.125200	0.148700	0.810300
C2211	C221	0.147600	0.166400	0.851100
H851	H85	0.136700	0.193500	0.866300
C2221	C222	0.197100	0.040000	0.785800
C2231	C223	0.085800	0.175800	0.784900
C2241	C224	0.166700	0.271800	0.648700
H861	H86	0.154100	0.244100	0.636300
C2251	C225	0.145300	0.295400	0.689100
C2261	C226	0.102400	0.274000	0.712400
C2271	C227	0.355600	0.096400	0.625600
C2281	C228	0.387100	0.033900	0.696300
H871	H87	0.393900	0.004500	0.709200
C2291	C229	0.330800	0.044800	0.686300
C2301	C230	0.321700	0.071500	0.647900
H881	H88	0.291200	0.073200	0.636000
C2311	C231	0.295700	0.017700	0.710000
Cu231	Cu23	0.736620	0.035050	0.786280
Cu241	Cu24	0.794930	0.027900	0.709090
O891	O89	0.768900	0.978430	0.806700
O901	O90	0.820080	0.973960	0.745800
O911	O91	0.930370	0.835830	0.744000
O921	O92	0.926500	0.787000	0.810200
O931	O93	0.910100	0.712400	0.755100
O941	O94	0.916400	0.759900	0.687800
O951	O95	0.696300	0.998600	0.750700
O961	O96	0.744100	0.988300	0.684500
C2321	C232	0.742900	0.790400	0.845700
H891	H89	0.756100	0.804700	0.818100
C2331	C233	0.754200	0.799800	0.896900
C2341	C234	0.786400	0.831800	0.911500
C2351	C235	0.795100	0.843200	0.960100
C2361	C236	0.831200	0.876000	0.975800
H901	H90	0.850600	0.893600	0.955300
C2371	C237	0.814200	0.855900	0.869000
C2381	C238	0.798200	0.896900	0.848400
H911	H91	0.772000	0.911700	0.861700
C2391	C239	0.821000	0.916500	0.807900
C2401	C240	0.859400	0.892800	0.787900
H921	H92	0.874500	0.904500	0.760000
C2411	C241	0.874800	0.851300	0.810300
C2421	C242	0.852400	0.833600	0.851100
H931	H93	0.863300	0.806500	0.866300
C2431	C243	0.802900	0.960000	0.785800
C2441	C244	0.914200	0.824200	0.784900
C2451	C245	0.833300	0.728200	0.648700
H941	H94	0.845900	0.755900	0.636300
C2461	C246	0.854700	0.704600	0.689100
C2471	C247	0.897600	0.726000	0.712400
C2481	C248	0.644400	0.903600	0.625600
C2491	C249	0.612900	0.966100	0.696300
H951	H95	0.606100	0.995500	0.709200
C2501	C250	0.669200	0.955200	0.686300
C2511	C251	0.678300	0.928500	0.647900
H961	H96	0.708800	0.926800	0.636000
C2521	C252	0.704300	0.982300	0.710000
Cu251	Cu25	0.535050	0.236620	0.213720
Cu261	Cu26	0.527900	0.294930	0.290910
O971	O97	0.478430	0.268900	0.193300
O981	O98	0.473960	0.320080	0.254200
O991	O99	0.335830	0.430370	0.256000
O1001	O100	0.287000	0.426500	0.189800
O1011	O101	0.212400	0.410100	0.244900
O1021	O102	0.259900	0.416400	0.312200
O1031	O103	0.498600	0.196300	0.249300
O1041	O104	0.488300	0.244100	0.315500
C2531	C253	0.290400	0.242900	0.154300
H971	H97	0.304700	0.256100	0.181900
C2541	C254	0.299800	0.254200	0.103100
C2551	C255	0.331800	0.286400	0.088500
C2561	C256	0.343200	0.295100	0.039900
C2571	C257	0.376000	0.331200	0.024200
H981	H98	0.393600	0.350600	0.044700
C2581	C258	0.355900	0.314200	0.131000
C2591	C259	0.396900	0.298200	0.151600
H991	H99	0.411700	0.272000	0.138300
C2601	C260	0.416500	0.321000	0.192100
C2611	C261	0.392800	0.359400	0.212100
H1001	H100	0.404500	0.374500	0.240000
C2621	C262	0.351300	0.374800	0.189700
C2631	C263	0.333600	0.352400	0.148900
H1011	H101	0.306500	0.363300	0.133700
C2641	C264	0.460000	0.302900	0.214200
C2651	C265	0.324200	0.414200	0.215100
C2661	C266	0.228200	0.333300	0.351300
H1021	H102	0.255900	0.345900	0.363700
C2671	C267	0.204600	0.354700	0.310900
C2681	C268	0.226000	0.397600	0.287600
C2691	C269	0.403600	0.144400	0.374400
C2701	C270	0.466100	0.112900	0.303700
H1031	H103	0.495500	0.106100	0.290800
C2711	C271	0.455200	0.169200	0.313700
C2721	C272	0.428500	0.178300	0.352100
H1041	H104	0.426800	0.208800	0.364000
C2731	C273	0.482300	0.204300	0.290000
Cu271	Cu27	0.464950	0.763380	0.213720
Cu281	Cu28	0.472100	0.705070	0.290910
O1051	O105	0.521570	0.731100	0.193300
O1061	O106	0.526040	0.679920	0.254200
O1071	O107	0.664170	0.569630	0.256000
O1081	O108	0.713000	0.573500	0.189800
O1091	O109	0.787600	0.589900	0.244900
O1101	O110	0.740100	0.583600	0.312200
O1111	O111	0.501400	0.803700	0.249300
O1121	O112	0.511700	0.755900	0.315500
C2741	C274	0.709600	0.757100	0.154300
H1051	H105	0.695300	0.743900	0.181900
C2751	C275	0.700200	0.745800	0.103100
C2761	C276	0.668200	0.713600	0.088500
C2771	C277	0.656800	0.704900	0.039900
C2781	C278	0.624000	0.668800	0.024200
H1061	H106	0.606400	0.649400	0.044700
C2791	C279	0.644100	0.685800	0.131000
C2801	C280	0.603100	0.701800	0.151600
H1071	H107	0.588300	0.728000	0.138300
C2811	C281	0.583500	0.679000	0.192100
C2821	C282	0.607200	0.640600	0.212100
H1081	H108	0.595500	0.625500	0.240000
C2831	C283	0.648700	0.625200	0.189700
C2841	C284	0.666400	0.647600	0.148900
H1091	H109	0.693500	0.636700	0.133700
C2851	C285	0.540000	0.697100	0.214200
C2861	C286	0.675800	0.585800	0.215100
C2871	C287	0.771800	0.666700	0.351300
H1101	H110	0.744100	0.654100	0.363700
C2881	C288	0.795400	0.645300	0.310900
C2891	C289	0.774000	0.602400	0.287600
C2901	C290	0.596400	0.855600	0.374400
C2911	C291	0.533900	0.887100	0.303700
H1111	H111	0.504500	0.893900	0.290800
C2921	C292	0.544800	0.830800	0.313700
C2931	C293	0.571500	0.821700	0.352100
H1121	H112	0.573200	0.791200	0.364000
C2941	C294	0.517700	0.795700	0.290000
Cu291	Cu29	0.236620	0.464950	0.213720
Cu301	Cu30	0.294930	0.472100	0.290910
O1131	O113	0.268900	0.521570	0.193300
O1141	O114	0.320080	0.526040	0.254200
O1151	O115	0.430370	0.664170	0.256000
O1161	O116	0.426500	0.713000	0.189800
O1171	O117	0.410100	0.787600	0.244900
O1181	O118	0.416400	0.740100	0.312200
O1191	O119	0.196300	0.501400	0.249300
O1201	O120	0.244100	0.511700	0.315500
C2951	C295	0.242900	0.709600	0.154300
H1131	H113	0.256100	0.695300	0.181900
C2961	C296	0.254200	0.700200	0.103100
C2971	C297	0.286400	0.668200	0.088500
C2981	C298	0.295100	0.656800	0.039900
C2991	C299	0.331200	0.624000	0.024200
H1141	H114	0.350600	0.606400	0.044700
C3001	C300	0.314200	0.644100	0.131000
C3011	C301	0.298200	0.603100	0.151600
H1151	H115	0.272000	0.588300	0.138300
C3021	C302	0.321000	0.583500	0.192100
C3031	C303	0.359400	0.607200	0.212100
H1161	H116	0.374500	0.595500	0.240000
C3041	C304	0.374800	0.648700	0.189700
C3051	C305	0.352400	0.666400	0.148900
H1171	H117	0.363300	0.693500	0.133700
C3061	C306	0.302900	0.540000	0.214200
C3071	C307	0.414200	0.675800	0.215100
C3081	C308	0.333300	0.771800	0.351300
H1181	H118	0.345900	0.744100	0.363700
C3091	C309	0.354700	0.795400	0.310900
C3101	C310	0.397600	0.774000	0.287600
C3111	C311	0.144400	0.596400	0.374400
C3121	C312	0.112900	0.533900	0.303700
H1191	H119	0.106100	0.504500	0.290800
C3131	C313	0.169200	0.544800	0.313700
C3141	C314	0.178300	0.571500	0.352100
H1201	H120	0.208800	0.573200	0.364000
C3151	C315	0.204300	0.517700	0.290000
Cu311	Cu31	0.763380	0.535050	0.213720
Cu321	Cu32	0.705070	0.527900	0.290910
O1211	O121	0.731100	0.478430	0.193300
O1221	O122	0.679920	0.473960	0.254200
O1231	O123	0.569630	0.335830	0.256000
O1241	O124	0.573500	0.287000	0.189800
O1251	O125	0.589900	0.212400	0.244900
O1261	O126	0.583600	0.259900	0.312200
O1271	O127	0.803700	0.498600	0.249300
O1281	O128	0.755900	0.488300	0.315500
C3161	C316	0.757100	0.290400	0.154300
H1211	H121	0.743900	0.304700	0.181900
C3171	C317	0.745800	0.299800	0.103100
C3181	C318	0.713600	0.331800	0.088500
C3191	C319	0.704900	0.343200	0.039900
C3201	C320	0.668800	0.376000	0.024200
H1221	H122	0.649400	0.393600	0.044700
C3211	C321	0.685800	0.355900	0.131000
C3221	C322	0.701800	0.396900	0.151600
H1231	H123	0.728000	0.411700	0.138300
C3231	C323	0.679000	0.416500	0.192100
C3241	C324	0.640600	0.392800	0.212100
H1241	H124	0.625500	0.404500	0.240000
C3251	C325	0.625200	0.351300	0.189700
C3261	C326	0.647600	0.333600	0.148900
H1251	H125	0.636700	0.306500	0.133700
C3271	C327	0.697100	0.460000	0.214200
C3281	C328	0.585800	0.324200	0.215100
C3291	C329	0.666700	0.228200	0.351300
H1261	H126	0.654100	0.255900	0.363700
C3301	C330	0.645300	0.204600	0.310900
C3311	C331	0.602400	0.226000	0.287600
C3321	C332	0.855600	0.403600	0.374400
C3331	C333	0.887100	0.466100	0.303700
H1271	H127	0.893900	0.495500	0.290800
C3341	C334	0.830800	0.455200	0.313700
C3351	C335	0.821700	0.428500	0.352100
H1281	H128	0.791200	0.426800	0.364000
C3361	C336	0.795700	0.482300	0.290000
Ni11	Ni1	0.774130	0.274130	0.000000
Ni21	Ni2	0.225870	0.725870	0.000000
Ni31	Ni3	0.725870	0.774130	0.000000
Ni41	Ni4	0.274130	0.225870	0.000000
Ni51	Ni5	0.793530	0.293530	0.500000
N11	N1	0.744500	0.244500	0.500000
N21	N2	0.840400	0.340400	0.500000
Ni61	Ni6	0.206470	0.706470	0.500000
N31	N3	0.255500	0.755500	0.500000
N41	N4	0.159600	0.659600	0.500000
Ni71	Ni7	0.706470	0.793530	0.500000
N51	N5	0.755500	0.744500	0.500000
N61	N6	0.659600	0.840400	0.500000
Ni81	Ni8	0.293530	0.206470	0.500000
N71	N7	0.244500	0.255500	0.500000
N81	N8	0.340400	0.159600	0.500000
N91	N9	0.774700	0.274700	0.072000
N101	N10	0.793300	0.293300	0.429200
C3371	C337	0.689800	0.189800	0.475900
H1291	H129	0.671300	0.171300	0.455500
C3381	C338	0.724200	0.224200	0.460000
C3391	C339	0.735000	0.235000	0.411700
C3401	C340	0.767200	0.267200	0.397400
C3411	C341	0.776600	0.276600	0.347300
H1301	H130	0.762600	0.262600	0.320100
C3421	C342	0.807600	0.307600	0.346700
H1311	H131	0.821600	0.321600	0.319300
C3431	C343	0.816500	0.316500	0.397000
C3441	C344	0.851800	0.351800	0.412100
C3451	C345	0.861100	0.361100	0.464600
C3461	C346	0.896100	0.396100	0.475600
H1321	H132	0.914000	0.414000	0.454000
C3471	C347	0.708200	0.208200	0.372600
C3481	C348	0.666400	0.166400	0.287500
H1331	H133	0.655500	0.155500	0.257300
C3491	C349	0.901800	0.401800	0.358700
C3501	C350	0.932300	0.432300	0.313400
N111	N11	0.225300	0.725300	0.072000
N121	N12	0.206700	0.706700	0.429200
C3511	C351	0.310200	0.810200	0.475900
H1341	H134	0.328700	0.828700	0.455500
C3521	C352	0.275800	0.775800	0.460000
C3531	C353	0.265000	0.765000	0.411700
C3541	C354	0.232800	0.732800	0.397400
C3551	C355	0.223400	0.723400	0.347300
H1351	H135	0.237400	0.737400	0.320100
C3561	C356	0.192400	0.692400	0.346700
H1361	H136	0.178400	0.678400	0.319300
C3571	C357	0.183500	0.683500	0.397000
C3581	C358	0.148200	0.648200	0.412100
C3591	C359	0.138900	0.638900	0.464600
C3601	C360	0.103900	0.603900	0.475600
H1371	H137	0.086000	0.586000	0.454000
C3611	C361	0.291800	0.791800	0.372600
C3621	C362	0.333600	0.833600	0.287500
H1381	H138	0.344500	0.844500	0.257300
C3631	C363	0.098200	0.598200	0.358700
C3641	C364	0.067700	0.567700	0.313400
N131	N13	0.725300	0.774700	0.072000
N141	N14	0.706700	0.793300	0.429200
C3651	C365	0.810200	0.689800	0.475900
H1391	H139	0.828700	0.671300	0.455500
C3661	C366	0.775800	0.724200	0.460000
C3671	C367	0.765000	0.735000	0.411700
C3681	C368	0.732800	0.767200	0.397400
C3691	C369	0.723400	0.776600	0.347300
H1401	H140	0.737400	0.762600	0.320100
C3701	C370	0.692400	0.807600	0.346700
H1411	H141	0.678400	0.821600	0.319300
C3711	C371	0.683500	0.816500	0.397000
C3721	C372	0.648200	0.851800	0.412100
C3731	C373	0.638900	0.861100	0.464600
C3741	C374	0.603900	0.896100	0.475600
H1421	H142	0.586000	0.914000	0.454000
C3751	C375	0.791800	0.708200	0.372600
C3761	C376	0.833600	0.666400	0.287500
H1431	H143	0.844500	0.655500	0.257300
C3771	C377	0.598200	0.901800	0.358700
C3781	C378	0.567700	0.932300	0.313400
N151	N15	0.274700	0.225300	0.072000
N161	N16	0.293300	0.206700	0.429200
C3791	C379	0.189800	0.310200	0.475900
H1441	H144	0.171300	0.328700	0.455500
C3801	C380	0.224200	0.275800	0.460000
C3811	C381	0.235000	0.265000	0.411700
C3821	C382	0.267200	0.232800	0.397400
C3831	C383	0.276600	0.223400	0.347300
H1451	H145	0.262600	0.237400	0.320100
C3841	C384	0.307600	0.192400	0.346700
H1461	H146	0.321600	0.178400	0.319300
C3851	C385	0.316500	0.183500	0.397000
C3861	C386	0.351800	0.148200	0.412100
C3871	C387	0.361100	0.138900	0.464600
C3881	C388	0.396100	0.103900	0.475600
H1471	H147	0.414000	0.086000	0.454000
C3891	C389	0.208200	0.291800	0.372600
C3901	C390	0.166400	0.333600	0.287500
H1481	H148	0.155500	0.344500	0.257300
C3911	C391	0.401800	0.098200	0.358700
C3921	C392	0.432300	0.067700	0.313400
N171	N17	0.725300	0.774700	0.928000
N181	N18	0.706700	0.793300	0.570800
C3931	C393	0.810200	0.689800	0.524100
H1491	H149	0.828700	0.671300	0.544500
C3941	C394	0.775800	0.724200	0.540000
C3951	C395	0.765000	0.735000	0.588300
C3961	C396	0.732800	0.767200	0.602600
C3971	C397	0.723400	0.776600	0.652700
H1501	H150	0.737400	0.762600	0.679900
C3981	C398	0.692400	0.807600	0.653300
H1511	H151	0.678400	0.821600	0.680700
C3991	C399	0.683500	0.816500	0.603000
C4001	C400	0.648200	0.851800	0.587900
C4011	C401	0.638900	0.861100	0.535400
C4021	C402	0.603900	0.896100	0.524400
H1521	H152	0.586000	0.914000	0.546000
C4031	C403	0.791800	0.708200	0.627400
C4041	C404	0.833600	0.666400	0.712500
H1531	H153	0.844500	0.655500	0.742700
C4051	C405	0.598200	0.901800	0.641300
C4061	C406	0.567700	0.932300	0.686600
N191	N19	0.274700	0.225300	0.928000
N201	N20	0.293300	0.206700	0.570800
C4071	C407	0.189800	0.310200	0.524100
H1541	H154	0.171300	0.328700	0.544500
C4081	C408	0.224200	0.275800	0.540000
C4091	C409	0.235000	0.265000	0.588300
C4101	C410	0.267200	0.232800	0.602600
C4111	C411	0.276600	0.223400	0.652700
H1551	H155	0.262600	0.237400	0.679900
C4121	C412	0.307600	0.192400	0.653300
H1561	H156	0.321600	0.178400	0.680700
C4131	C413	0.316500	0.183500	0.603000
C4141	C414	0.351800	0.148200	0.587900
C4151	C415	0.361100	0.138900	0.535400
C4161	C416	0.396100	0.103900	0.524400
H1571	H157	0.414000	0.086000	0.546000
C4171	C417	0.208200	0.291800	0.627400
C4181	C418	0.166400	0.333600	0.712500
H1581	H158	0.155500	0.344500	0.742700
C4191	C419	0.401800	0.098200	0.641300
C4201	C420	0.432300	0.067700	0.686600
N211	N21	0.774700	0.274700	0.928000
N221	N22	0.793300	0.293300	0.570800
C4211	C421	0.689800	0.189800	0.524100
H1591	H159	0.671300	0.171300	0.544500
C4221	C422	0.724200	0.224200	0.540000
C4231	C423	0.735000	0.235000	0.588300
C4241	C424	0.767200	0.267200	0.602600
C4251	C425	0.776600	0.276600	0.652700
H1601	H160	0.762600	0.262600	0.679900
C4261	C426	0.807600	0.307600	0.653300
H1611	H161	0.821600	0.321600	0.680700
C4271	C427	0.816500	0.316500	0.603000
C4281	C428	0.851800	0.351800	0.587900
C4291	C429	0.861100	0.361100	0.535400
C4301	C430	0.896100	0.396100	0.524400
H1621	H162	0.914000	0.414000	0.546000
C4311	C431	0.708200	0.208200	0.627400
C4321	C432	0.666400	0.166400	0.712500
H1631	H163	0.655500	0.155500	0.742700
C4331	C433	0.901800	0.401800	0.641300
C4341	C434	0.932300	0.432300	0.686600
N231	N23	0.225300	0.725300	0.928000
N241	N24	0.206700	0.706700	0.570800
C4351	C435	0.310200	0.810200	0.524100
H1641	H164	0.328700	0.828700	0.544500
C4361	C436	0.275800	0.775800	0.540000
C4371	C437	0.265000	0.765000	0.588300
C4381	C438	0.232800	0.732800	0.602600
C4391	C439	0.223400	0.723400	0.652700
H1651	H165	0.237400	0.737400	0.679900
C4401	C440	0.192400	0.692400	0.653300
H1661	H166	0.178400	0.678400	0.680700
C4411	C441	0.183500	0.683500	0.603000
C4421	C442	0.148200	0.648200	0.587900
C4431	C443	0.138900	0.638900	0.535400
C4441	C444	0.103900	0.603900	0.524400
H1671	H167	0.086000	0.586000	0.546000
C4451	C445	0.291800	0.791800	0.627400
C4461	C446	0.333600	0.833600	0.712500
H1681	H168	0.344500	0.844500	0.742700
C4471	C447	0.098200	0.598200	0.641300
C4481	C448	0.067700	0.567700	0.686600
N251	N25	0.822600	0.225400	0.000000
N261	N26	0.177400	0.774600	0.000000
N271	N27	0.774600	0.822600	0.000000
N281	N28	0.225400	0.177400	0.000000
N291	N29	0.677400	0.725400	0.000000
N301	N30	0.322600	0.274600	0.000000
N311	N31	0.725400	0.322600	0.000000
N321	N32	0.274600	0.677400	0.000000
