data_KIYXUN_clean_PM
_symmetry_space_group_name_H-M	'P1'
_cell_length_a	22.505300
_cell_length_b	22.505300
_cell_length_c	36.444000
_cell_angle_alpha	90.000000
_cell_angle_beta	90.000000
_cell_angle_gamma	120.000000
_symmetry_Int_Tables_number 1

loop_
_symmetry_equiv_pos_as_xyz
'x,y,z'

loop_
_atom_site_label
_atom_site_type_symbol
_atom_site_fract_x
_atom_site_fract_y
_atom_site_fract_z
Cu11	Cu1	0.047550	0.683250	0.013450
O11	O1	0.354800	0.786200	0.189910
O21	O2	0.242460	0.727540	0.196960
O31	O3	0.097770	0.630350	0.088770
O41	O4	0.127090	0.694060	0.037940
C11	C1	0.380100	0.965200	0.096230
H11	H1	0.346200	0.937100	0.112800
C21	C2	0.404800	0.943200	0.066440
C31	C3	0.380000	0.875300	0.056400
C41	C4	0.401800	0.854800	0.025580
C51	C5	0.377100	0.784700	0.015690
H21	H2	0.345700	0.746200	0.028800
C61	C6	0.325100	0.820600	0.079690
C71	C7	0.336800	0.811800	0.115980
H31	H3	0.380100	0.839200	0.126100
C81	C8	0.284800	0.762500	0.137450
C91	C9	0.221300	0.719100	0.121910
H41	H4	0.186600	0.685400	0.136200
C101	C10	0.209100	0.725600	0.085360
C111	C11	0.260800	0.776900	0.064580
H51	H5	0.252500	0.782300	0.040200
C121	C12	0.295600	0.758000	0.177770
C131	C13	0.139400	0.680100	0.068770
Cu21	Cu2	0.316750	0.364300	0.013450
O51	O5	0.213800	0.568600	0.189910
O61	O6	0.272460	0.514920	0.196960
O71	O7	0.369650	0.467420	0.088770
O81	O8	0.305940	0.433030	0.037940
C141	C14	0.034800	0.414900	0.096230
H61	H6	0.062900	0.409100	0.112800
C151	C15	0.056800	0.461600	0.066440
C161	C16	0.124700	0.504700	0.056400
C171	C17	0.145200	0.547000	0.025580
C181	C18	0.215300	0.592400	0.015690
H71	H7	0.253800	0.599500	0.028800
C191	C19	0.179400	0.504500	0.079690
C201	C20	0.188200	0.525000	0.115980
H81	H8	0.160800	0.540900	0.126100
C211	C21	0.237500	0.522300	0.137450
C221	C22	0.280900	0.502200	0.121910
H91	H9	0.314600	0.501200	0.136200
C231	C23	0.274400	0.483500	0.085360
C241	C24	0.223100	0.483900	0.064580
H101	H10	0.217700	0.470200	0.040200
C251	C25	0.242000	0.537600	0.177770
C261	C26	0.319900	0.459300	0.068770
Cu31	Cu3	0.635700	0.952450	0.013450
O91	O9	0.431400	0.645200	0.189910
O101	O10	0.485080	0.757540	0.196960
O111	O11	0.532580	0.902230	0.088770
O121	O12	0.566970	0.872910	0.037940
C271	C27	0.585100	0.619900	0.096230
H111	H11	0.590900	0.653800	0.112800
C281	C28	0.538400	0.595200	0.066440
C291	C29	0.495300	0.620000	0.056400
C301	C30	0.453000	0.598200	0.025580
C311	C31	0.407600	0.622900	0.015690
H121	H12	0.400500	0.654300	0.028800
C321	C32	0.495500	0.674900	0.079690
C331	C33	0.475000	0.663200	0.115980
H131	H13	0.459100	0.619900	0.126100
C341	C34	0.477700	0.715200	0.137450
C351	C35	0.497800	0.778700	0.121910
H141	H14	0.498800	0.813400	0.136200
C361	C36	0.516500	0.790900	0.085360
C371	C37	0.516100	0.739200	0.064580
H151	H15	0.529800	0.747500	0.040200
C381	C38	0.462400	0.704400	0.177770
C391	C39	0.540700	0.860600	0.068770
Cu41	Cu4	0.952450	0.316750	0.513450
O131	O13	0.645200	0.213800	0.689910
O141	O14	0.757540	0.272460	0.696960
O151	O15	0.902230	0.369650	0.588770
O161	O16	0.872910	0.305940	0.537940
C401	C40	0.619900	0.034800	0.596230
H161	H16	0.653800	0.062900	0.612800
C411	C41	0.595200	0.056800	0.566440
C421	C42	0.620000	0.124700	0.556400
C431	C43	0.598200	0.145200	0.525580
C441	C44	0.622900	0.215300	0.515690
H171	H17	0.654300	0.253800	0.528800
C451	C45	0.674900	0.179400	0.579690
C461	C46	0.663200	0.188200	0.615980
H181	H18	0.619900	0.160800	0.626100
C471	C47	0.715200	0.237500	0.637450
C481	C48	0.778700	0.280900	0.621910
H191	H19	0.813400	0.314600	0.636200
C491	C49	0.790900	0.274400	0.585360
C501	C50	0.739200	0.223100	0.564580
H201	H20	0.747500	0.217700	0.540200
C511	C51	0.704400	0.242000	0.677770
C521	C52	0.860600	0.319900	0.568770
Cu51	Cu5	0.683250	0.635700	0.513450
O171	O17	0.786200	0.431400	0.689910
O181	O18	0.727540	0.485080	0.696960
O191	O19	0.630350	0.532580	0.588770
O201	O20	0.694060	0.566970	0.537940
C531	C53	0.965200	0.585100	0.596230
H211	H21	0.937100	0.590900	0.612800
C541	C54	0.943200	0.538400	0.566440
C551	C55	0.875300	0.495300	0.556400
C561	C56	0.854800	0.453000	0.525580
C571	C57	0.784700	0.407600	0.515690
H221	H22	0.746200	0.400500	0.528800
C581	C58	0.820600	0.495500	0.579690
C591	C59	0.811800	0.475000	0.615980
H231	H23	0.839200	0.459100	0.626100
C601	C60	0.762500	0.477700	0.637450
C611	C61	0.719100	0.497800	0.621910
H241	H24	0.685400	0.498800	0.636200
C621	C62	0.725600	0.516500	0.585360
C631	C63	0.776900	0.516100	0.564580
H251	H25	0.782300	0.529800	0.540200
C641	C64	0.758000	0.462400	0.677770
C651	C65	0.680100	0.540700	0.568770
Cu61	Cu6	0.364300	0.047550	0.513450
O211	O21	0.568600	0.354800	0.689910
O221	O22	0.514920	0.242460	0.696960
O231	O23	0.467420	0.097770	0.588770
O241	O24	0.433030	0.127090	0.537940
C661	C66	0.414900	0.380100	0.596230
H261	H26	0.409100	0.346200	0.612800
C671	C67	0.461600	0.404800	0.566440
C681	C68	0.504700	0.380000	0.556400
C691	C69	0.547000	0.401800	0.525580
C701	C70	0.592400	0.377100	0.515690
H271	H27	0.599500	0.345700	0.528800
C711	C71	0.504500	0.325100	0.579690
C721	C72	0.525000	0.336800	0.615980
H281	H28	0.540900	0.380100	0.626100
C731	C73	0.522300	0.284800	0.637450
C741	C74	0.502200	0.221300	0.621910
H291	H29	0.501200	0.186600	0.636200
C751	C75	0.483500	0.209100	0.585360
C761	C76	0.483900	0.260800	0.564580
H301	H30	0.470200	0.252500	0.540200
C771	C77	0.537600	0.295600	0.677770
C781	C78	0.459300	0.139400	0.568770
Cu71	Cu7	0.683250	0.047550	0.486550
O251	O25	0.786200	0.354800	0.310090
O261	O26	0.727540	0.242460	0.303040
O271	O27	0.630350	0.097770	0.411230
O281	O28	0.694060	0.127090	0.462060
C791	C79	0.965200	0.380100	0.403770
H311	H31	0.937100	0.346200	0.387200
C801	C80	0.943200	0.404800	0.433560
C811	C81	0.875300	0.380000	0.443600
C821	C82	0.854800	0.401800	0.474420
C831	C83	0.784700	0.377100	0.484310
H321	H32	0.746200	0.345700	0.471200
C841	C84	0.820600	0.325100	0.420310
C851	C85	0.811800	0.336800	0.384020
H331	H33	0.839200	0.380100	0.373900
C861	C86	0.762500	0.284800	0.362550
C871	C87	0.719100	0.221300	0.378090
H341	H34	0.685400	0.186600	0.363800
C881	C88	0.725600	0.209100	0.414640
C891	C89	0.776900	0.260800	0.435420
H351	H35	0.782300	0.252500	0.459800
C901	C90	0.758000	0.295600	0.322230
C911	C91	0.680100	0.139400	0.431230
Cu81	Cu8	0.364300	0.316750	0.486550
O291	O29	0.568600	0.213800	0.310090
O301	O30	0.514920	0.272460	0.303040
O311	O31	0.467420	0.369650	0.411230
O321	O32	0.433030	0.305940	0.462060
C921	C92	0.414900	0.034800	0.403770
H361	H36	0.409100	0.062900	0.387200
C931	C93	0.461600	0.056800	0.433560
C941	C94	0.504700	0.124700	0.443600
C951	C95	0.547000	0.145200	0.474420
C961	C96	0.592400	0.215300	0.484310
H371	H37	0.599500	0.253800	0.471200
C971	C97	0.504500	0.179400	0.420310
C981	C98	0.525000	0.188200	0.384020
H381	H38	0.540900	0.160800	0.373900
C991	C99	0.522300	0.237500	0.362550
C1001	C100	0.502200	0.280900	0.378090
H391	H39	0.501200	0.314600	0.363800
C1011	C101	0.483500	0.274400	0.414640
C1021	C102	0.483900	0.223100	0.435420
H401	H40	0.470200	0.217700	0.459800
C1031	C103	0.537600	0.242000	0.322230
C1041	C104	0.459300	0.319900	0.431230
Cu91	Cu9	0.952450	0.635700	0.486550
O331	O33	0.645200	0.431400	0.310090
O341	O34	0.757540	0.485080	0.303040
O351	O35	0.902230	0.532580	0.411230
O361	O36	0.872910	0.566970	0.462060
C1051	C105	0.619900	0.585100	0.403770
H411	H41	0.653800	0.590900	0.387200
C1061	C106	0.595200	0.538400	0.433560
C1071	C107	0.620000	0.495300	0.443600
C1081	C108	0.598200	0.453000	0.474420
C1091	C109	0.622900	0.407600	0.484310
H421	H42	0.654300	0.400500	0.471200
C1101	C110	0.674900	0.495500	0.420310
C1111	C111	0.663200	0.475000	0.384020
H431	H43	0.619900	0.459100	0.373900
C1121	C112	0.715200	0.477700	0.362550
C1131	C113	0.778700	0.497800	0.378090
H441	H44	0.813400	0.498800	0.363800
C1141	C114	0.790900	0.516500	0.414640
C1151	C115	0.739200	0.516100	0.435420
H451	H45	0.747500	0.529800	0.459800
C1161	C116	0.704400	0.462400	0.322230
C1171	C117	0.860600	0.540700	0.431230
Cu101	Cu10	0.316750	0.952450	0.986550
O371	O37	0.213800	0.645200	0.810090
O381	O38	0.272460	0.757540	0.803040
O391	O39	0.369650	0.902230	0.911230
O401	O40	0.305940	0.872910	0.962060
C1181	C118	0.034800	0.619900	0.903770
H461	H46	0.062900	0.653800	0.887200
C1191	C119	0.056800	0.595200	0.933560
C1201	C120	0.124700	0.620000	0.943600
C1211	C121	0.145200	0.598200	0.974420
C1221	C122	0.215300	0.622900	0.984310
H471	H47	0.253800	0.654300	0.971200
C1231	C123	0.179400	0.674900	0.920310
C1241	C124	0.188200	0.663200	0.884020
H481	H48	0.160800	0.619900	0.873900
C1251	C125	0.237500	0.715200	0.862550
C1261	C126	0.280900	0.778700	0.878090
H491	H49	0.314600	0.813400	0.863800
C1271	C127	0.274400	0.790900	0.914640
C1281	C128	0.223100	0.739200	0.935420
H501	H50	0.217700	0.747500	0.959800
C1291	C129	0.242000	0.704400	0.822230
C1301	C130	0.319900	0.860600	0.931230
Cu111	Cu11	0.635700	0.683250	0.986550
O411	O41	0.431400	0.786200	0.810090
O421	O42	0.485080	0.727540	0.803040
O431	O43	0.532580	0.630350	0.911230
O441	O44	0.566970	0.694060	0.962060
C1311	C131	0.585100	0.965200	0.903770
H511	H51	0.590900	0.937100	0.887200
C1321	C132	0.538400	0.943200	0.933560
C1331	C133	0.495300	0.875300	0.943600
C1341	C134	0.453000	0.854800	0.974420
C1351	C135	0.407600	0.784700	0.984310
H521	H52	0.400500	0.746200	0.971200
C1361	C136	0.495500	0.820600	0.920310
C1371	C137	0.475000	0.811800	0.884020
H531	H53	0.459100	0.839200	0.873900
C1381	C138	0.477700	0.762500	0.862550
C1391	C139	0.497800	0.719100	0.878090
H541	H54	0.498800	0.685400	0.863800
C1401	C140	0.516500	0.725600	0.914640
C1411	C141	0.516100	0.776900	0.935420
H551	H55	0.529800	0.782300	0.959800
C1421	C142	0.462400	0.758000	0.822230
C1431	C143	0.540700	0.680100	0.931230
Cu121	Cu12	0.047550	0.364300	0.986550
O451	O45	0.354800	0.568600	0.810090
O461	O46	0.242460	0.514920	0.803040
O471	O47	0.097770	0.467420	0.911230
O481	O48	0.127090	0.433030	0.962060
C1441	C144	0.380100	0.414900	0.903770
H561	H56	0.346200	0.409100	0.887200
C1451	C145	0.404800	0.461600	0.933560
C1461	C146	0.380000	0.504700	0.943600
C1471	C147	0.401800	0.547000	0.974420
C1481	C148	0.377100	0.592400	0.984310
H571	H57	0.345700	0.599500	0.971200
C1491	C149	0.325100	0.504500	0.920310
C1501	C150	0.336800	0.525000	0.884020
H581	H58	0.380100	0.540900	0.873900
C1511	C151	0.284800	0.522300	0.862550
C1521	C152	0.221300	0.502200	0.878090
H591	H59	0.186600	0.501200	0.863800
C1531	C153	0.209100	0.483500	0.914640
C1541	C154	0.260800	0.483900	0.935420
H601	H60	0.252500	0.470200	0.959800
C1551	C155	0.295600	0.537600	0.822230
C1561	C156	0.139400	0.459300	0.931230
Cu131	Cu13	0.952450	0.316750	0.986550
O491	O49	0.645200	0.213800	0.810090
O501	O50	0.757540	0.272460	0.803040
O511	O51	0.902230	0.369650	0.911230
O521	O52	0.872910	0.305940	0.962060
C1571	C157	0.619900	0.034800	0.903770
H611	H61	0.653800	0.062900	0.887200
C1581	C158	0.595200	0.056800	0.933560
C1591	C159	0.620000	0.124700	0.943600
C1601	C160	0.598200	0.145200	0.974420
C1611	C161	0.622900	0.215300	0.984310
H621	H62	0.654300	0.253800	0.971200
C1621	C162	0.674900	0.179400	0.920310
C1631	C163	0.663200	0.188200	0.884020
H631	H63	0.619900	0.160800	0.873900
C1641	C164	0.715200	0.237500	0.862550
C1651	C165	0.778700	0.280900	0.878090
H641	H64	0.813400	0.314600	0.863800
C1661	C166	0.790900	0.274400	0.914640
C1671	C167	0.739200	0.223100	0.935420
H651	H65	0.747500	0.217700	0.959800
C1681	C168	0.704400	0.242000	0.822230
C1691	C169	0.860600	0.319900	0.931230
Cu141	Cu14	0.683250	0.635700	0.986550
O531	O53	0.786200	0.431400	0.810090
O541	O54	0.727540	0.485080	0.803040
O551	O55	0.630350	0.532580	0.911230
O561	O56	0.694060	0.566970	0.962060
C1701	C170	0.965200	0.585100	0.903770
H661	H66	0.937100	0.590900	0.887200
C1711	C171	0.943200	0.538400	0.933560
C1721	C172	0.875300	0.495300	0.943600
C1731	C173	0.854800	0.453000	0.974420
C1741	C174	0.784700	0.407600	0.984310
H671	H67	0.746200	0.400500	0.971200
C1751	C175	0.820600	0.495500	0.920310
C1761	C176	0.811800	0.475000	0.884020
H681	H68	0.839200	0.459100	0.873900
C1771	C177	0.762500	0.477700	0.862550
C1781	C178	0.719100	0.497800	0.878090
H691	H69	0.685400	0.498800	0.863800
C1791	C179	0.725600	0.516500	0.914640
C1801	C180	0.776900	0.516100	0.935420
H701	H70	0.782300	0.529800	0.959800
C1811	C181	0.758000	0.462400	0.822230
C1821	C182	0.680100	0.540700	0.931230
Cu151	Cu15	0.364300	0.047550	0.986550
O571	O57	0.568600	0.354800	0.810090
O581	O58	0.514920	0.242460	0.803040
O591	O59	0.467420	0.097770	0.911230
O601	O60	0.433030	0.127090	0.962060
C1831	C183	0.414900	0.380100	0.903770
H711	H71	0.409100	0.346200	0.887200
C1841	C184	0.461600	0.404800	0.933560
C1851	C185	0.504700	0.380000	0.943600
C1861	C186	0.547000	0.401800	0.974420
C1871	C187	0.592400	0.377100	0.984310
H721	H72	0.599500	0.345700	0.971200
C1881	C188	0.504500	0.325100	0.920310
C1891	C189	0.525000	0.336800	0.884020
H731	H73	0.540900	0.380100	0.873900
C1901	C190	0.522300	0.284800	0.862550
C1911	C191	0.502200	0.221300	0.878090
H741	H74	0.501200	0.186600	0.863800
C1921	C192	0.483500	0.209100	0.914640
C1931	C193	0.483900	0.260800	0.935420
H751	H75	0.470200	0.252500	0.959800
C1941	C194	0.537600	0.295600	0.822230
C1951	C195	0.459300	0.139400	0.931230
Cu161	Cu16	0.047550	0.683250	0.486550
O611	O61	0.354800	0.786200	0.310090
O621	O62	0.242460	0.727540	0.303040
O631	O63	0.097770	0.630350	0.411230
O641	O64	0.127090	0.694060	0.462060
C1961	C196	0.380100	0.965200	0.403770
H761	H76	0.346200	0.937100	0.387200
C1971	C197	0.404800	0.943200	0.433560
C1981	C198	0.380000	0.875300	0.443600
C1991	C199	0.401800	0.854800	0.474420
C2001	C200	0.377100	0.784700	0.484310
H771	H77	0.345700	0.746200	0.471200
C2011	C201	0.325100	0.820600	0.420310
C2021	C202	0.336800	0.811800	0.384020
H781	H78	0.380100	0.839200	0.373900
C2031	C203	0.284800	0.762500	0.362550
C2041	C204	0.221300	0.719100	0.378090
H791	H79	0.186600	0.685400	0.363800
C2051	C205	0.209100	0.725600	0.414640
C2061	C206	0.260800	0.776900	0.435420
H801	H80	0.252500	0.782300	0.459800
C2071	C207	0.295600	0.758000	0.322230
C2081	C208	0.139400	0.680100	0.431230
Cu171	Cu17	0.316750	0.364300	0.486550
O651	O65	0.213800	0.568600	0.310090
O661	O66	0.272460	0.514920	0.303040
O671	O67	0.369650	0.467420	0.411230
O681	O68	0.305940	0.433030	0.462060
C2091	C209	0.034800	0.414900	0.403770
H811	H81	0.062900	0.409100	0.387200
C2101	C210	0.056800	0.461600	0.433560
C2111	C211	0.124700	0.504700	0.443600
C2121	C212	0.145200	0.547000	0.474420
C2131	C213	0.215300	0.592400	0.484310
H821	H82	0.253800	0.599500	0.471200
C2141	C214	0.179400	0.504500	0.420310
C2151	C215	0.188200	0.525000	0.384020
H831	H83	0.160800	0.540900	0.373900
C2161	C216	0.237500	0.522300	0.362550
C2171	C217	0.280900	0.502200	0.378090
H841	H84	0.314600	0.501200	0.363800
C2181	C218	0.274400	0.483500	0.414640
C2191	C219	0.223100	0.483900	0.435420
H851	H85	0.217700	0.470200	0.459800
C2201	C220	0.242000	0.537600	0.322230
C2211	C221	0.319900	0.459300	0.431230
Cu181	Cu18	0.635700	0.952450	0.486550
O691	O69	0.431400	0.645200	0.310090
O701	O70	0.485080	0.757540	0.303040
O711	O71	0.532580	0.902230	0.411230
O721	O72	0.566970	0.872910	0.462060
C2221	C222	0.585100	0.619900	0.403770
H861	H86	0.590900	0.653800	0.387200
C2231	C223	0.538400	0.595200	0.433560
C2241	C224	0.495300	0.620000	0.443600
C2251	C225	0.453000	0.598200	0.474420
C2261	C226	0.407600	0.622900	0.484310
H871	H87	0.400500	0.654300	0.471200
C2271	C227	0.495500	0.674900	0.420310
C2281	C228	0.475000	0.663200	0.384020
H881	H88	0.459100	0.619900	0.373900
C2291	C229	0.477700	0.715200	0.362550
C2301	C230	0.497800	0.778700	0.378090
H891	H89	0.498800	0.813400	0.363800
C2311	C231	0.516500	0.790900	0.414640
C2321	C232	0.516100	0.739200	0.435420
H901	H90	0.529800	0.747500	0.459800
C2331	C233	0.462400	0.704400	0.322230
C2341	C234	0.540700	0.860600	0.431230
Cu191	Cu19	0.316750	0.952450	0.513450
O731	O73	0.213800	0.645200	0.689910
O741	O74	0.272460	0.757540	0.696960
O751	O75	0.369650	0.902230	0.588770
O761	O76	0.305940	0.872910	0.537940
C2351	C235	0.034800	0.619900	0.596230
H911	H91	0.062900	0.653800	0.612800
C2361	C236	0.056800	0.595200	0.566440
C2371	C237	0.124700	0.620000	0.556400
C2381	C238	0.145200	0.598200	0.525580
C2391	C239	0.215300	0.622900	0.515690
H921	H92	0.253800	0.654300	0.528800
C2401	C240	0.179400	0.674900	0.579690
C2411	C241	0.188200	0.663200	0.615980
H931	H93	0.160800	0.619900	0.626100
C2421	C242	0.237500	0.715200	0.637450
C2431	C243	0.280900	0.778700	0.621910
H941	H94	0.314600	0.813400	0.636200
C2441	C244	0.274400	0.790900	0.585360
C2451	C245	0.223100	0.739200	0.564580
H951	H95	0.217700	0.747500	0.540200
C2461	C246	0.242000	0.704400	0.677770
C2471	C247	0.319900	0.860600	0.568770
Cu201	Cu20	0.635700	0.683250	0.513450
O771	O77	0.431400	0.786200	0.689910
O781	O78	0.485080	0.727540	0.696960
O791	O79	0.532580	0.630350	0.588770
O801	O80	0.566970	0.694060	0.537940
C2481	C248	0.585100	0.965200	0.596230
H961	H96	0.590900	0.937100	0.612800
C2491	C249	0.538400	0.943200	0.566440
C2501	C250	0.495300	0.875300	0.556400
C2511	C251	0.453000	0.854800	0.525580
C2521	C252	0.407600	0.784700	0.515690
H971	H97	0.400500	0.746200	0.528800
C2531	C253	0.495500	0.820600	0.579690
C2541	C254	0.475000	0.811800	0.615980
H981	H98	0.459100	0.839200	0.626100
C2551	C255	0.477700	0.762500	0.637450
C2561	C256	0.497800	0.719100	0.621910
H991	H99	0.498800	0.685400	0.636200
C2571	C257	0.516500	0.725600	0.585360
C2581	C258	0.516100	0.776900	0.564580
H1001	H100	0.529800	0.782300	0.540200
C2591	C259	0.462400	0.758000	0.677770
C2601	C260	0.540700	0.680100	0.568770
Cu211	Cu21	0.047550	0.364300	0.513450
O811	O81	0.354800	0.568600	0.689910
O821	O82	0.242460	0.514920	0.696960
O831	O83	0.097770	0.467420	0.588770
O841	O84	0.127090	0.433030	0.537940
C2611	C261	0.380100	0.414900	0.596230
H1011	H101	0.346200	0.409100	0.612800
C2621	C262	0.404800	0.461600	0.566440
C2631	C263	0.380000	0.504700	0.556400
C2641	C264	0.401800	0.547000	0.525580
C2651	C265	0.377100	0.592400	0.515690
H1021	H102	0.345700	0.599500	0.528800
C2661	C266	0.325100	0.504500	0.579690
C2671	C267	0.336800	0.525000	0.615980
H1031	H103	0.380100	0.540900	0.626100
C2681	C268	0.284800	0.522300	0.637450
C2691	C269	0.221300	0.502200	0.621910
H1041	H104	0.186600	0.501200	0.636200
C2701	C270	0.209100	0.483500	0.585360
C2711	C271	0.260800	0.483900	0.564580
H1051	H105	0.252500	0.470200	0.540200
C2721	C272	0.295600	0.537600	0.677770
C2731	C273	0.139400	0.459300	0.568770
Cu221	Cu22	0.683250	0.047550	0.013450
O851	O85	0.786200	0.354800	0.189910
O861	O86	0.727540	0.242460	0.196960
O871	O87	0.630350	0.097770	0.088770
O881	O88	0.694060	0.127090	0.037940
C2741	C274	0.965200	0.380100	0.096230
H1061	H106	0.937100	0.346200	0.112800
C2751	C275	0.943200	0.404800	0.066440
C2761	C276	0.875300	0.380000	0.056400
C2771	C277	0.854800	0.401800	0.025580
C2781	C278	0.784700	0.377100	0.015690
H1071	H107	0.746200	0.345700	0.028800
C2791	C279	0.820600	0.325100	0.079690
C2801	C280	0.811800	0.336800	0.115980
H1081	H108	0.839200	0.380100	0.126100
C2811	C281	0.762500	0.284800	0.137450
C2821	C282	0.719100	0.221300	0.121910
H1091	H109	0.685400	0.186600	0.136200
C2831	C283	0.725600	0.209100	0.085360
C2841	C284	0.776900	0.260800	0.064580
H1101	H110	0.782300	0.252500	0.040200
C2851	C285	0.758000	0.295600	0.177770
C2861	C286	0.680100	0.139400	0.068770
Cu231	Cu23	0.364300	0.316750	0.013450
O891	O89	0.568600	0.213800	0.189910
O901	O90	0.514920	0.272460	0.196960
O911	O91	0.467420	0.369650	0.088770
O921	O92	0.433030	0.305940	0.037940
C2871	C287	0.414900	0.034800	0.096230
H1111	H111	0.409100	0.062900	0.112800
C2881	C288	0.461600	0.056800	0.066440
C2891	C289	0.504700	0.124700	0.056400
C2901	C290	0.547000	0.145200	0.025580
C2911	C291	0.592400	0.215300	0.015690
H1121	H112	0.599500	0.253800	0.028800
C2921	C292	0.504500	0.179400	0.079690
C2931	C293	0.525000	0.188200	0.115980
H1131	H113	0.540900	0.160800	0.126100
C2941	C294	0.522300	0.237500	0.137450
C2951	C295	0.502200	0.280900	0.121910
H1141	H114	0.501200	0.314600	0.136200
C2961	C296	0.483500	0.274400	0.085360
C2971	C297	0.483900	0.223100	0.064580
H1151	H115	0.470200	0.217700	0.040200
C2981	C298	0.537600	0.242000	0.177770
C2991	C299	0.459300	0.319900	0.068770
Cu241	Cu24	0.952450	0.635700	0.013450
O931	O93	0.645200	0.431400	0.189910
O941	O94	0.757540	0.485080	0.196960
O951	O95	0.902230	0.532580	0.088770
O961	O96	0.872910	0.566970	0.037940
C3001	C300	0.619900	0.585100	0.096230
H1161	H116	0.653800	0.590900	0.112800
C3011	C301	0.595200	0.538400	0.066440
C3021	C302	0.620000	0.495300	0.056400
C3031	C303	0.598200	0.453000	0.025580
C3041	C304	0.622900	0.407600	0.015690
H1171	H117	0.654300	0.400500	0.028800
C3051	C305	0.674900	0.495500	0.079690
C3061	C306	0.663200	0.475000	0.115980
H1181	H118	0.619900	0.459100	0.126100
C3071	C307	0.715200	0.477700	0.137450
C3081	C308	0.778700	0.497800	0.121910
H1191	H119	0.813400	0.498800	0.136200
C3091	C309	0.790900	0.516500	0.085360
C3101	C310	0.739200	0.516100	0.064580
H1201	H120	0.747500	0.529800	0.040200
C3111	C311	0.704400	0.462400	0.177770
C3121	C312	0.860600	0.540700	0.068770
Cu251	Cu25	0.000000	0.579610	0.084510
Cu261	Cu26	0.420390	0.420390	0.084510
Cu271	Cu27	0.579610	0.000000	0.084510
Cu281	Cu28	0.000000	0.420390	0.584510
Cu291	Cu29	0.579610	0.579610	0.584510
Cu301	Cu30	0.420390	0.000000	0.584510
Cu311	Cu31	0.579610	0.000000	0.415490
Cu321	Cu32	0.420390	0.420390	0.415490
Cu331	Cu33	0.000000	0.579610	0.415490
Cu341	Cu34	0.420390	0.000000	0.915490
Cu351	Cu35	0.579610	0.579610	0.915490
Cu361	Cu36	0.000000	0.420390	0.915490
Cu371	Cu37	0.244190	0.729680	0.250000
Cu381	Cu38	0.270320	0.514510	0.250000
Cu391	Cu39	0.485490	0.755810	0.250000
Cu401	Cu40	0.755810	0.270320	0.750000
Cu411	Cu41	0.729680	0.485490	0.750000
Cu421	Cu42	0.514510	0.244190	0.750000
Cu431	Cu43	0.729680	0.244190	0.250000
Cu441	Cu44	0.514510	0.270320	0.250000
Cu451	Cu45	0.755810	0.485490	0.250000
Cu461	Cu46	0.270320	0.755810	0.750000
Cu471	Cu47	0.485490	0.729680	0.750000
Cu481	Cu48	0.244190	0.514510	0.750000
Mn11	Mn1	0.500000	0.000000	0.000000
Mn21	Mn2	0.000000	0.500000	0.000000
Mn31	Mn3	0.500000	0.500000	0.000000
Mn41	Mn4	0.500000	0.000000	0.500000
Mn51	Mn5	0.000000	0.500000	0.500000
Mn61	Mn6	0.500000	0.500000	0.500000
O971	O97	0.589190	0.000000	0.030940
N11	N1	0.455200	0.000000	0.048070
O981	O98	0.000000	0.589190	0.030940
N21	N2	0.000000	0.455200	0.048070
O991	O99	0.410810	0.410810	0.030940
N31	N3	0.544800	0.544800	0.048070
O1001	O100	0.410810	0.000000	0.530940
N41	N4	0.544800	0.000000	0.548070
O1011	O101	0.000000	0.410810	0.530940
N51	N5	0.000000	0.544800	0.548070
O1021	O102	0.589190	0.589190	0.530940
N61	N6	0.455200	0.455200	0.548070
O1031	O103	0.000000	0.589190	0.469060
N71	N7	0.000000	0.455200	0.451930
O1041	O104	0.589190	0.000000	0.469060
N81	N8	0.455200	0.000000	0.451930
O1051	O105	0.410810	0.410810	0.469060
N91	N9	0.544800	0.544800	0.451930
O1061	O106	0.000000	0.410810	0.969060
N101	N10	0.000000	0.544800	0.951930
O1071	O107	0.410810	0.000000	0.969060
N111	N11	0.544800	0.000000	0.951930
O1081	O108	0.589190	0.589190	0.969060
N121	N12	0.455200	0.455200	0.951930
N131	N13	0.448300	0.896600	0.000000
N141	N14	0.103400	0.551700	0.000000
N151	N15	0.448300	0.551700	0.000000
N161	N16	0.551700	0.103400	0.500000
N171	N17	0.896600	0.448300	0.500000
N181	N18	0.551700	0.448300	0.500000
N191	N19	0.551700	0.103400	0.000000
N201	N20	0.896600	0.448300	0.000000
N211	N21	0.551700	0.448300	0.000000
N221	N22	0.448300	0.896600	0.500000
N231	N23	0.103400	0.551700	0.500000
N241	N24	0.448300	0.551700	0.500000
