data_KOBFIR_clean_PM
_symmetry_space_group_name_H-M	'P1'
_cell_length_a	12.675100
_cell_length_b	12.675100
_cell_length_c	32.243000
_cell_angle_alpha	90.000000
_cell_angle_beta	90.000000
_cell_angle_gamma	120.000000
_symmetry_Int_Tables_number 1

loop_
_symmetry_equiv_pos_as_xyz
'x,y,z'

loop_
_atom_site_label
_atom_site_type_symbol
_atom_site_fract_x
_atom_site_fract_y
_atom_site_fract_z
C11	C1	0.040700	0.213900	0.074780
C21	C2	0.139000	0.391200	0.119380
C31	C3	0.934700	0.219700	0.139110
N11	N1	0.215850	0.488080	0.128140
C41	C4	0.833200	0.105600	0.131130
H11	H1	0.831800	0.062600	0.106800
C51	C5	0.932400	0.279700	0.175400
H21	H2	0.999900	0.357500	0.181700
C61	C6	0.040000	0.275200	0.110900
N21	N2	0.035910	0.159190	0.045440
C71	C7	0.707370	0.547230	0.408110
C81	C8	0.805670	0.724530	0.452710
C91	C9	0.601370	0.553030	0.472440
N31	N3	0.882520	0.821410	0.461470
C101	C10	0.499870	0.438930	0.464460
H31	H3	0.498470	0.395930	0.440130
C111	C11	0.599070	0.613030	0.508730
H41	H4	0.666570	0.690830	0.515030
C121	C12	0.706670	0.608530	0.444230
N41	N4	0.702580	0.492520	0.378770
C131	C13	0.374030	0.880570	0.741450
C141	C14	0.472330	0.057870	0.786050
C151	C15	0.268030	0.886370	0.805780
N51	N5	0.549180	0.154750	0.794810
C161	C16	0.166530	0.772270	0.797800
H51	H5	0.165130	0.729270	0.773470
C171	C17	0.265730	0.946370	0.842070
H61	H6	0.333230	0.024170	0.848370
C181	C18	0.373330	0.941870	0.777570
N61	N6	0.369240	0.825860	0.712110
C191	C19	0.786100	0.826800	0.074780
C201	C20	0.608800	0.747800	0.119380
C211	C21	0.780300	0.715000	0.139110
N71	N7	0.511920	0.727770	0.128140
C221	C22	0.894400	0.727600	0.131130
H71	H7	0.937400	0.769200	0.106800
C231	C23	0.720300	0.652700	0.175400
H81	H8	0.642500	0.642400	0.181700
C241	C24	0.724800	0.764800	0.110900
N81	N8	0.840810	0.876720	0.045440
C251	C25	0.452770	0.160130	0.408110
C261	C26	0.275470	0.081130	0.452710
C271	C27	0.446970	0.048330	0.472440
N91	N9	0.178590	0.061100	0.461470
C281	C28	0.561070	0.060930	0.464460
H91	H9	0.604070	0.102530	0.440130
C291	C29	0.386970	0.986030	0.508730
H101	H10	0.309170	0.975730	0.515030
C301	C30	0.391470	0.098130	0.444230
N101	N10	0.507480	0.210050	0.378770
C311	C31	0.119430	0.493470	0.741450
C321	C32	0.942130	0.414470	0.786050
C331	C33	0.113630	0.381670	0.805780
N111	N11	0.845250	0.394440	0.794810
C341	C34	0.227730	0.394270	0.797800
H111	H11	0.270730	0.435870	0.773470
C351	C35	0.053630	0.319370	0.842070
H121	H12	0.975830	0.309070	0.848370
C361	C36	0.058130	0.431470	0.777570
N121	N12	0.174140	0.543390	0.712110
C371	C37	0.173200	0.959300	0.074780
C381	C38	0.252200	0.861000	0.119380
C391	C39	0.285000	0.065300	0.139110
N131	N13	0.272230	0.784150	0.128140
C401	C40	0.272400	0.166800	0.131130
H131	H13	0.230800	0.168200	0.106800
C411	C41	0.347300	0.067600	0.175400
H141	H14	0.357600	0.000100	0.181700
C421	C42	0.235200	0.960000	0.110900
N141	N14	0.123280	0.964090	0.045440
C431	C43	0.839870	0.292630	0.408110
C441	C44	0.918870	0.194330	0.452710
C451	C45	0.951670	0.398630	0.472440
N151	N15	0.938900	0.117480	0.461470
C461	C46	0.939070	0.500130	0.464460
H151	H15	0.897470	0.501530	0.440130
C471	C47	0.013970	0.400930	0.508730
H161	H16	0.024270	0.333430	0.515030
C481	C48	0.901870	0.293330	0.444230
N161	N16	0.789950	0.297420	0.378770
C491	C49	0.506530	0.625970	0.741450
C501	C50	0.585530	0.527670	0.786050
C511	C51	0.618330	0.731970	0.805780
N171	N17	0.605560	0.450820	0.794810
C521	C52	0.605730	0.833470	0.797800
H171	H17	0.564130	0.834870	0.773470
C531	C53	0.680630	0.734270	0.842070
H181	H18	0.690930	0.666770	0.848370
C541	C54	0.568530	0.626670	0.777570
N181	N18	0.456610	0.630760	0.712110
C551	C55	0.959300	0.786100	0.925220
C561	C56	0.861000	0.608800	0.880620
C571	C57	0.065300	0.780300	0.860890
N191	N19	0.784150	0.511920	0.871860
C581	C58	0.166800	0.894400	0.868870
H191	H19	0.168200	0.937400	0.893200
C591	C59	0.067600	0.720300	0.824600
H201	H20	0.000100	0.642500	0.818300
C601	C60	0.960000	0.724800	0.889100
N201	N20	0.964090	0.840810	0.954560
C611	C61	0.625970	0.119430	0.258550
C621	C62	0.527670	0.942130	0.213950
C631	C63	0.731970	0.113630	0.194220
N211	N21	0.450820	0.845250	0.205190
C641	C64	0.833470	0.227730	0.202200
H211	H21	0.834870	0.270730	0.226530
C651	C65	0.734270	0.053630	0.157930
H221	H22	0.666770	0.975830	0.151630
C661	C66	0.626670	0.058130	0.222430
N221	N22	0.630760	0.174140	0.287890
C671	C67	0.292630	0.452770	0.591890
C681	C68	0.194330	0.275470	0.547290
C691	C69	0.398630	0.446970	0.527560
N231	N23	0.117480	0.178590	0.538530
C701	C70	0.500130	0.561070	0.535540
H231	H23	0.501530	0.604070	0.559870
C711	C71	0.400930	0.386970	0.491270
H241	H24	0.333430	0.309170	0.484970
C721	C72	0.293330	0.391470	0.555770
N241	N24	0.297420	0.507480	0.621230
C731	C73	0.213900	0.173200	0.925220
C741	C74	0.391200	0.252200	0.880620
C751	C75	0.219700	0.285000	0.860890
N251	N25	0.488080	0.272230	0.871860
C761	C76	0.105600	0.272400	0.868870
H251	H25	0.062600	0.230800	0.893200
C771	C77	0.279700	0.347300	0.824600
H261	H26	0.357500	0.357600	0.818300
C781	C78	0.275200	0.235200	0.889100
N261	N26	0.159190	0.123280	0.954560
C791	C79	0.880570	0.506530	0.258550
C801	C80	0.057870	0.585530	0.213950
C811	C81	0.886370	0.618330	0.194220
N271	N27	0.154750	0.605560	0.205190
C821	C82	0.772270	0.605730	0.202200
H271	H27	0.729270	0.564130	0.226530
C831	C83	0.946370	0.680630	0.157930
H281	H28	0.024170	0.690930	0.151630
C841	C84	0.941870	0.568530	0.222430
N281	N28	0.825860	0.456610	0.287890
C851	C85	0.547230	0.839870	0.591890
C861	C86	0.724530	0.918870	0.547290
C871	C87	0.553030	0.951670	0.527560
N291	N29	0.821410	0.938900	0.538530
C881	C88	0.438930	0.939070	0.535540
H291	H29	0.395930	0.897470	0.559870
C891	C89	0.613030	0.013970	0.491270
H301	H30	0.690830	0.024270	0.484970
C901	C90	0.608530	0.901870	0.555770
N301	N30	0.492520	0.789950	0.621230
C911	C91	0.826800	0.040700	0.925220
C921	C92	0.747800	0.139000	0.880620
C931	C93	0.715000	0.934700	0.860890
N311	N31	0.727770	0.215850	0.871860
C941	C94	0.727600	0.833200	0.868870
H311	H31	0.769200	0.831800	0.893200
C951	C95	0.652700	0.932400	0.824600
H321	H32	0.642400	0.999900	0.818300
C961	C96	0.764800	0.040000	0.889100
N321	N32	0.876720	0.035910	0.954560
C971	C97	0.493470	0.374030	0.258550
C981	C98	0.414470	0.472330	0.213950
C991	C99	0.381670	0.268030	0.194220
N331	N33	0.394440	0.549180	0.205190
C1001	C100	0.394270	0.166530	0.202200
H331	H33	0.435870	0.165130	0.226530
C1011	C101	0.319370	0.265730	0.157930
H341	H34	0.309070	0.333230	0.151630
C1021	C102	0.431470	0.373330	0.222430
N341	N34	0.543390	0.369240	0.287890
C1031	C103	0.160130	0.707370	0.591890
C1041	C104	0.081130	0.805670	0.547290
C1051	C105	0.048330	0.601370	0.527560
N351	N35	0.061100	0.882520	0.538530
C1061	C106	0.060930	0.499870	0.535540
H351	H35	0.102530	0.498470	0.559870
C1071	C107	0.986030	0.599070	0.491270
H361	H36	0.975730	0.666570	0.484970
C1081	C108	0.098130	0.706670	0.555770
N361	N36	0.210050	0.702580	0.621230
Cd11	Cd1	0.333330	0.666670	0.166670
Cd21	Cd2	0.000000	0.000000	0.500000
Cd31	Cd3	0.666670	0.333330	0.833330
Cd41	Cd4	0.000000	0.000000	0.000000
Cd51	Cd5	0.666670	0.333330	0.333330
Cd61	Cd6	0.333330	0.666670	0.666670
