data_KOBPUN_clean_PM
_symmetry_space_group_name_H-M	'P1'
_cell_length_a	7.644000
_cell_length_b	11.148000
_cell_length_c	22.262000
_cell_angle_alpha	90.000000
_cell_angle_beta	90.000000
_cell_angle_gamma	98.828000
_symmetry_Int_Tables_number 1

loop_
_symmetry_equiv_pos_as_xyz
'x,y,z'

loop_
_atom_site_label
_atom_site_type_symbol
_atom_site_fract_x
_atom_site_fract_y
_atom_site_fract_z
Gd11	Gd1	0.605110	0.266330	0.778820
Gd21	Gd2	0.894890	0.733670	0.278820
Gd31	Gd3	0.394890	0.733670	0.221180
Gd41	Gd4	0.105110	0.266330	0.721180
H11	H1	0.404600	0.122600	0.535600
H21	H2	0.270700	0.215900	0.538400
H31	H3	0.521900	0.372700	0.552200
H41	H4	0.637500	0.268900	0.560500
H51	H5	0.303900	0.516500	0.374600
H61	H6	0.411300	0.484000	0.317800
H71	H7	0.098200	0.371400	0.339800
H81	H8	0.203100	0.390200	0.279800
H91	H9	0.768400	0.114600	0.366700
H101	H10	0.750400	0.201800	0.312500
H111	H11	0.562700	0.065200	0.263900
H121	H12	0.498600	0.994400	0.322500
H131	H13	0.095400	0.877400	0.035600
H141	H14	0.229300	0.784100	0.038400
H151	H15	0.978100	0.627300	0.052200
H161	H16	0.862500	0.731100	0.060500
H171	H17	0.196100	0.483500	0.874600
H181	H18	0.088700	0.516000	0.817800
H191	H19	0.401800	0.628600	0.839800
H201	H20	0.296900	0.609800	0.779800
H211	H21	0.731600	0.885400	0.866700
H221	H22	0.749600	0.798200	0.812500
H231	H23	0.937300	0.934800	0.763900
H241	H24	0.001400	0.005600	0.822500
H251	H25	0.595400	0.877400	0.464400
H261	H26	0.729300	0.784100	0.461600
H271	H27	0.478100	0.627300	0.447800
H281	H28	0.362500	0.731100	0.439500
H291	H29	0.696100	0.483500	0.625400
H301	H30	0.588700	0.516000	0.682200
H311	H31	0.901800	0.628600	0.660200
H321	H32	0.796900	0.609800	0.720200
H331	H33	0.231600	0.885400	0.633300
H341	H34	0.249600	0.798200	0.687500
H351	H35	0.437300	0.934800	0.736100
H361	H36	0.501400	0.005600	0.677500
H371	H37	0.904600	0.122600	0.964400
H381	H38	0.770700	0.215900	0.961600
H391	H39	0.021900	0.372700	0.947800
H401	H40	0.137500	0.268900	0.939500
H411	H41	0.803900	0.516500	0.125400
H421	H42	0.911300	0.484000	0.182200
H431	H43	0.598200	0.371400	0.160200
H441	H44	0.703100	0.390200	0.220200
H451	H45	0.268400	0.114600	0.133300
H461	H46	0.250400	0.201800	0.187500
H471	H47	0.062700	0.065200	0.236100
H481	H48	0.998600	0.994400	0.177500
C11	C1	0.539100	0.173800	0.433200
C21	C2	0.323000	0.311000	0.437700
C31	C3	0.456000	0.265000	0.341900
C41	C4	0.390500	0.206000	0.527400
C51	C5	0.519500	0.289500	0.565400
C61	C6	0.467000	0.278600	0.630900
C71	C7	0.313000	0.455400	0.344300
C81	C8	0.175000	0.431000	0.316300
C91	C9	0.067600	0.525800	0.298000
C101	C10	0.685000	0.141300	0.338700
C111	C11	0.602400	0.034900	0.301500
C121	C12	0.720300	0.943700	0.287900
C131	C13	0.960900	0.826200	0.933200
C141	C14	0.177000	0.689000	0.937700
C151	C15	0.044000	0.735000	0.841900
C161	C16	0.109500	0.794000	0.027400
C171	C17	0.980500	0.710500	0.065400
C181	C18	0.033000	0.721400	0.130900
C191	C19	0.187000	0.544600	0.844300
C201	C20	0.325000	0.569000	0.816300
C211	C21	0.432400	0.474200	0.798000
C221	C22	0.815000	0.858700	0.838700
C231	C23	0.897600	0.965100	0.801500
C241	C24	0.779700	0.056300	0.787900
C251	C25	0.460900	0.826200	0.566800
C261	C26	0.677000	0.689000	0.562300
C271	C27	0.544000	0.735000	0.658100
C281	C28	0.609500	0.794000	0.472600
C291	C29	0.480500	0.710500	0.434600
C301	C30	0.533000	0.721400	0.369100
C311	C31	0.687000	0.544600	0.655700
C321	C32	0.825000	0.569000	0.683700
C331	C33	0.932400	0.474200	0.702000
C341	C34	0.315000	0.858700	0.661300
C351	C35	0.397600	0.965100	0.698500
C361	C36	0.279700	0.056300	0.712100
C371	C37	0.039100	0.173800	0.066800
C381	C38	0.823000	0.311000	0.062300
C391	C39	0.956000	0.265000	0.158100
C401	C40	0.890500	0.206000	0.972600
C411	C41	0.019500	0.289500	0.934600
C421	C42	0.967000	0.278600	0.869100
C431	C43	0.813000	0.455400	0.155700
C441	C44	0.675000	0.431000	0.183700
C451	C45	0.567600	0.525800	0.202000
C461	C46	0.185000	0.141300	0.161300
C471	C47	0.102400	0.034900	0.198500
C481	C48	0.220300	0.943700	0.212100
N11	N1	0.416200	0.230100	0.463500
N21	N2	0.337000	0.319000	0.376300
N31	N3	0.553600	0.196600	0.372300
N41	N4	0.083800	0.769900	0.963500
N51	N5	0.163000	0.681000	0.876300
N61	N6	0.946400	0.803400	0.872300
N71	N7	0.583800	0.769900	0.536500
N81	N8	0.663000	0.681000	0.623700
N91	N9	0.446400	0.803400	0.627700
N101	N10	0.916200	0.230100	0.036500
N111	N11	0.837000	0.319000	0.123700
N121	N12	0.053600	0.196600	0.127700
O11	O1	0.460000	0.275800	0.287700
O21	O2	0.626800	0.109600	0.458700
O31	O3	0.229000	0.367000	0.466400
O41	O4	0.583700	0.260800	0.669000
O51	O5	0.312100	0.291100	0.643400
O61	O6	0.913700	0.522800	0.315800
O71	O7	0.135200	0.610400	0.263100
O81	O8	0.669700	0.861100	0.248400
O91	O9	0.862900	0.942300	0.314400
O101	O10	0.040000	0.724200	0.787700
O111	O11	0.873200	0.890400	0.958700
O121	O12	0.271000	0.633000	0.966400
O131	O13	0.916300	0.739200	0.169000
O141	O14	0.187900	0.708900	0.143400
O151	O15	0.586300	0.477200	0.815800
O161	O16	0.364800	0.389600	0.763100
O171	O17	0.830300	0.138900	0.748400
O181	O18	0.637100	0.057700	0.814400
O191	O19	0.540000	0.724200	0.712300
O201	O20	0.373200	0.890400	0.541300
O211	O21	0.771000	0.633000	0.533600
O221	O22	0.416300	0.739200	0.331000
O231	O23	0.687900	0.708900	0.356600
O241	O24	0.086300	0.477200	0.684200
O251	O25	0.864800	0.389600	0.736900
O261	O26	0.330300	0.138900	0.751600
O271	O27	0.137100	0.057700	0.685600
O281	O28	0.960000	0.275800	0.212300
O291	O29	0.126800	0.109600	0.041300
O301	O30	0.729000	0.367000	0.033600
O311	O31	0.083700	0.260800	0.831000
O321	O32	0.812100	0.291100	0.856600
O331	O33	0.413700	0.522800	0.184200
O341	O34	0.635200	0.610400	0.236900
O351	O35	0.169700	0.861100	0.251600
O361	O36	0.362900	0.942300	0.185600
