data_KOBPIB_clean_PM
_symmetry_space_group_name_H-M	'P1'
_cell_length_a	7.868000
_cell_length_b	11.132000
_cell_length_c	22.300000
_cell_angle_alpha	90.000000
_cell_angle_beta	90.000000
_cell_angle_gamma	99.158000
_symmetry_Int_Tables_number 1

loop_
_symmetry_equiv_pos_as_xyz
'x,y,z'

loop_
_atom_site_label
_atom_site_type_symbol
_atom_site_fract_x
_atom_site_fract_y
_atom_site_fract_z
Ce11	Ce1	0.379580	0.723370	0.720640
Ce21	Ce2	0.120420	0.276630	0.220640
Ce31	Ce3	0.620420	0.276630	0.279360
Ce41	Ce4	0.879580	0.723370	0.779360
H11	H1	0.236700	0.199200	0.692000
H21	H2	0.262100	0.115000	0.637400
H31	H3	0.993700	0.991200	0.676100
H41	H4	0.048300	0.058700	0.736300
H51	H5	0.783600	0.217300	0.461800
H61	H6	0.910400	0.122000	0.465300
H71	H7	0.035700	0.373000	0.451200
H81	H8	0.143000	0.266900	0.442200
H91	H9	0.882000	0.481300	0.686400
H101	H10	0.801000	0.510700	0.625000
H111	H11	0.574600	0.364000	0.646600
H121	H12	0.653500	0.355300	0.710600
H131	H13	0.263300	0.800800	0.192000
H141	H14	0.237900	0.885000	0.137400
H151	H15	0.506300	0.008800	0.176100
H161	H16	0.451700	0.941300	0.236300
H171	H17	0.716400	0.782700	0.961800
H181	H18	0.589600	0.878000	0.965300
H191	H19	0.464300	0.627000	0.951200
H201	H20	0.357000	0.733100	0.942200
H211	H21	0.618000	0.518700	0.186400
H221	H22	0.699000	0.489300	0.125000
H231	H23	0.925400	0.636000	0.146600
H241	H24	0.846500	0.644700	0.210600
H251	H25	0.763300	0.800800	0.308000
H261	H26	0.737900	0.885000	0.362600
H271	H27	0.006300	0.008800	0.323900
H281	H28	0.951700	0.941300	0.263700
H291	H29	0.216400	0.782700	0.538200
H301	H30	0.089600	0.878000	0.534700
H311	H31	0.964300	0.627000	0.548800
H321	H32	0.857000	0.733100	0.557800
H331	H33	0.118000	0.518700	0.313600
H341	H34	0.199000	0.489300	0.375000
H351	H35	0.425400	0.636000	0.353400
H361	H36	0.346500	0.644700	0.289400
H371	H37	0.736700	0.199200	0.808000
H381	H38	0.762100	0.115000	0.862600
H391	H39	0.493700	0.991200	0.823900
H401	H40	0.548300	0.058700	0.763700
H411	H41	0.283600	0.217300	0.038200
H421	H42	0.410400	0.122000	0.034700
H431	H43	0.535700	0.373000	0.048800
H441	H44	0.643000	0.266900	0.057800
H451	H45	0.382000	0.481300	0.813600
H461	H46	0.301000	0.510700	0.875000
H471	H47	0.074600	0.364000	0.853400
H481	H48	0.153500	0.355300	0.789400
C11	C1	0.036400	0.172300	0.568900
C21	C2	0.842700	0.318100	0.563800
C31	C3	0.957000	0.267400	0.659800
C41	C4	0.177100	0.139700	0.664300
C51	C5	0.091700	0.030900	0.698900
C61	C6	0.206600	0.939000	0.712900
C71	C7	0.898600	0.205900	0.473600
C81	C8	0.030200	0.290200	0.436900
C91	C9	0.983600	0.284500	0.371100
C101	C10	0.806300	0.447000	0.654300
C111	C11	0.644000	0.410100	0.677300
C121	C12	0.550900	0.509700	0.698800
C131	C13	0.463600	0.827700	0.068900
C141	C14	0.657300	0.681900	0.063800
C151	C15	0.543000	0.732600	0.159800
C161	C16	0.322900	0.860300	0.164300
C171	C17	0.408300	0.969100	0.198900
C181	C18	0.293400	0.061000	0.212900
C191	C19	0.601400	0.794100	0.973600
C201	C20	0.469800	0.709800	0.936900
C211	C21	0.516400	0.715500	0.871100
C221	C22	0.693700	0.553000	0.154300
C231	C23	0.856000	0.589900	0.177300
C241	C24	0.949100	0.490300	0.198800
C251	C25	0.963600	0.827700	0.431100
C261	C26	0.157300	0.681900	0.436200
C271	C27	0.043000	0.732600	0.340200
C281	C28	0.822900	0.860300	0.335700
C291	C29	0.908300	0.969100	0.301100
C301	C30	0.793400	0.061000	0.287100
C311	C31	0.101400	0.794100	0.526400
C321	C32	0.969800	0.709800	0.563100
C331	C33	0.016400	0.715500	0.628900
C341	C34	0.193700	0.553000	0.345700
C351	C35	0.356000	0.589900	0.322700
C361	C36	0.449100	0.490300	0.301200
C371	C37	0.536400	0.172300	0.931100
C381	C38	0.342700	0.318100	0.936200
C391	C39	0.457000	0.267400	0.840200
C401	C40	0.677100	0.139700	0.835700
C411	C41	0.591700	0.030900	0.801100
C421	C42	0.706600	0.939000	0.787100
C431	C43	0.398600	0.205900	0.026400
C441	C44	0.530200	0.290200	0.063100
C451	C45	0.483600	0.284500	0.128900
C461	C46	0.306300	0.447000	0.845700
C471	C47	0.144000	0.410100	0.822700
C481	C48	0.050900	0.509700	0.801200
N11	N1	0.053300	0.195900	0.629500
N21	N2	0.921200	0.229500	0.538300
N31	N3	0.881600	0.345400	0.625000
N41	N4	0.446700	0.804100	0.129500
N51	N5	0.578800	0.770500	0.038300
N61	N6	0.618400	0.654600	0.125000
N71	N7	0.946700	0.804100	0.370500
N81	N8	0.078800	0.770500	0.461700
N91	N9	0.118400	0.654600	0.375000
N101	N10	0.553300	0.195900	0.870500
N111	N11	0.421200	0.229500	0.961700
N121	N12	0.381600	0.345400	0.875000
O11	O1	0.761500	0.380500	0.534000
O21	O2	0.960000	0.276600	0.713800
O31	O3	0.119500	0.105000	0.543500
O41	O4	0.345300	0.939400	0.685500
O51	O5	0.155100	0.856700	0.752100
O61	O6	0.099200	0.266600	0.334340
O71	O7	0.834200	0.301400	0.357500
O81	O8	0.622700	0.593500	0.733900
O91	O9	0.401300	0.508900	0.682100
O101	O10	0.738500	0.619500	0.034000
O111	O11	0.540000	0.723400	0.213800
O121	O12	0.380500	0.895000	0.043500
O131	O13	0.154700	0.060600	0.185500
O141	O14	0.344900	0.143300	0.252100
O151	O15	0.400800	0.733400	0.834340
O161	O16	0.665800	0.698600	0.857500
O171	O17	0.877300	0.406500	0.233900
O181	O18	0.098700	0.491100	0.182100
O191	O19	0.238500	0.619500	0.466000
O201	O20	0.040000	0.723400	0.286200
O211	O21	0.880500	0.895000	0.456500
O221	O22	0.654700	0.060600	0.314500
O231	O23	0.844900	0.143300	0.247900
O241	O24	0.900800	0.733400	0.665660
O251	O25	0.165800	0.698600	0.642500
O261	O26	0.377300	0.406500	0.266100
O271	O27	0.598700	0.491100	0.317900
O281	O28	0.261500	0.380500	0.966000
O291	O29	0.460000	0.276600	0.786200
O301	O30	0.619500	0.105000	0.956500
O311	O31	0.845300	0.939400	0.814500
O321	O32	0.655100	0.856700	0.747900
O331	O33	0.599200	0.266600	0.165660
O341	O34	0.334200	0.301400	0.142500
O351	O35	0.122700	0.593500	0.766100
O361	O36	0.901300	0.508900	0.817900
