data_KOBRAV01_clean_PM
_symmetry_space_group_name_H-M	'P1'
_cell_length_a	15.416000
_cell_length_b	28.641400
_cell_length_c	36.813000
_cell_angle_alpha	90.000000
_cell_angle_beta	90.000000
_cell_angle_gamma	90.000000
_symmetry_Int_Tables_number 1

loop_
_symmetry_equiv_pos_as_xyz
'x,y,z'

loop_
_atom_site_label
_atom_site_type_symbol
_atom_site_fract_x
_atom_site_fract_y
_atom_site_fract_z
Cd11	Cd1	0.461820	0.258110	0.552210
O11	O1	0.370240	0.315620	0.520380
O21	O2	0.509220	0.316000	0.509940
C11	C1	0.433100	0.329480	0.502890
C21	C2	0.418100	0.363340	0.471860
C31	C3	0.483400	0.366700	0.448600
H11	H1	0.478700	0.386100	0.428400
H21	H2	0.533900	0.349600	0.452400
N11	N1	0.325180	0.239340	0.577630
C41	C4	0.321000	0.225620	0.612290
H31	H3	0.372400	0.217600	0.624000
C51	C5	0.244700	0.222740	0.631650
H41	H4	0.245500	0.213300	0.655800
C61	C6	0.166460	0.234030	0.614890
C71	C7	0.170800	0.246910	0.578640
H51	H5	0.120200	0.253600	0.565900
C81	C8	0.250200	0.249860	0.561470
H61	H6	0.251500	0.259700	0.537400
N21	N2	0.459400	0.208900	0.501080
N31	N3	0.508560	0.058650	0.350380
C91	C9	0.410200	0.143010	0.466990
H71	H7	0.370600	0.118700	0.464600
C101	C10	0.404500	0.173880	0.495570
H81	H8	0.359300	0.170000	0.512000
C111	C11	0.523840	0.213960	0.477050
H91	H9	0.563400	0.238100	0.480500
C121	C12	0.534050	0.185190	0.447660
H101	H10	0.579800	0.190000	0.431600
C131	C13	0.476100	0.148850	0.441850
C141	C14	0.485080	0.117830	0.409840
C151	C15	0.469500	0.070130	0.412620
H111	H11	0.450800	0.057100	0.434400
C161	C16	0.482400	0.042500	0.382490
H121	H12	0.472200	0.010600	0.384700
C171	C17	0.521100	0.104320	0.347470
H131	H13	0.537900	0.116300	0.325100
C181	C18	0.510420	0.134900	0.376230
H141	H14	0.520200	0.166700	0.373000
Cd21	Cd2	0.461820	0.758110	0.052210
O31	O3	0.370240	0.815620	0.020380
O41	O4	0.509220	0.816000	0.009940
C191	C19	0.433100	0.829480	0.002890
C201	C20	0.418100	0.863340	0.971860
C211	C21	0.483400	0.866700	0.948600
H151	H15	0.478700	0.886100	0.928400
H161	H16	0.533900	0.849600	0.952400
N41	N4	0.325180	0.739340	0.077630
C221	C22	0.321000	0.725620	0.112290
H171	H17	0.372400	0.717600	0.124000
C231	C23	0.244700	0.722740	0.131650
H181	H18	0.245500	0.713300	0.155800
C241	C24	0.166460	0.734030	0.114890
C251	C25	0.170800	0.746910	0.078640
H191	H19	0.120200	0.753600	0.065900
C261	C26	0.250200	0.749860	0.061470
H201	H20	0.251500	0.759700	0.037400
N51	N5	0.459400	0.708900	0.001080
N61	N6	0.508560	0.558650	0.850380
C271	C27	0.410200	0.643010	0.966990
H211	H21	0.370600	0.618700	0.964600
C281	C28	0.404500	0.673880	0.995570
H221	H22	0.359300	0.670000	0.012000
C291	C29	0.523840	0.713960	0.977050
H231	H23	0.563400	0.738100	0.980500
C301	C30	0.534050	0.685190	0.947660
H241	H24	0.579800	0.690000	0.931600
C311	C31	0.476100	0.648850	0.941850
C321	C32	0.485080	0.617830	0.909840
C331	C33	0.469500	0.570130	0.912620
H251	H25	0.450800	0.557100	0.934400
C341	C34	0.482400	0.542500	0.882490
H261	H26	0.472200	0.510600	0.884700
C351	C35	0.521100	0.604320	0.847470
H271	H27	0.537900	0.616300	0.825100
C361	C36	0.510420	0.634900	0.876230
H281	H28	0.520200	0.666700	0.873000
Cd31	Cd3	0.961820	0.258110	0.052210
O51	O5	0.870240	0.315620	0.020380
O61	O6	0.009220	0.316000	0.009940
C371	C37	0.933100	0.329480	0.002890
C381	C38	0.918100	0.363340	0.971860
C391	C39	0.983400	0.366700	0.948600
H291	H29	0.978700	0.386100	0.928400
H301	H30	0.033900	0.349600	0.952400
N71	N7	0.825180	0.239340	0.077630
C401	C40	0.821000	0.225620	0.112290
H311	H31	0.872400	0.217600	0.124000
C411	C41	0.744700	0.222740	0.131650
H321	H32	0.745500	0.213300	0.155800
C421	C42	0.666460	0.234030	0.114890
C431	C43	0.670800	0.246910	0.078640
H331	H33	0.620200	0.253600	0.065900
C441	C44	0.750200	0.249860	0.061470
H341	H34	0.751500	0.259700	0.037400
N81	N8	0.959400	0.208900	0.001080
N91	N9	0.008560	0.058650	0.850380
C451	C45	0.910200	0.143010	0.966990
H351	H35	0.870600	0.118700	0.964600
C461	C46	0.904500	0.173880	0.995570
H361	H36	0.859300	0.170000	0.012000
C471	C47	0.023840	0.213960	0.977050
H371	H37	0.063400	0.238100	0.980500
C481	C48	0.034050	0.185190	0.947660
H381	H38	0.079800	0.190000	0.931600
C491	C49	0.976100	0.148850	0.941850
C501	C50	0.985080	0.117830	0.909840
C511	C51	0.969500	0.070130	0.912620
H391	H39	0.950800	0.057100	0.934400
C521	C52	0.982400	0.042500	0.882490
H401	H40	0.972200	0.010600	0.884700
C531	C53	0.021100	0.104320	0.847470
H411	H41	0.037900	0.116300	0.825100
C541	C54	0.010420	0.134900	0.876230
H421	H42	0.020200	0.166700	0.873000
Cd41	Cd4	0.961820	0.758110	0.552210
O71	O7	0.870240	0.815620	0.520380
O81	O8	0.009220	0.816000	0.509940
C551	C55	0.933100	0.829480	0.502890
C561	C56	0.918100	0.863340	0.471860
C571	C57	0.983400	0.866700	0.448600
H431	H43	0.978700	0.886100	0.428400
H441	H44	0.033900	0.849600	0.452400
N101	N10	0.825180	0.739340	0.577630
C581	C58	0.821000	0.725620	0.612290
H451	H45	0.872400	0.717600	0.624000
C591	C59	0.744700	0.722740	0.631650
H461	H46	0.745500	0.713300	0.655800
C601	C60	0.666460	0.734030	0.614890
C611	C61	0.670800	0.746910	0.578640
H471	H47	0.620200	0.753600	0.565900
C621	C62	0.750200	0.749860	0.561470
H481	H48	0.751500	0.759700	0.537400
N111	N11	0.959400	0.708900	0.501080
N121	N12	0.008560	0.558650	0.350380
C631	C63	0.910200	0.643010	0.466990
H491	H49	0.870600	0.618700	0.464600
C641	C64	0.904500	0.673880	0.495570
H501	H50	0.859300	0.670000	0.512000
C651	C65	0.023840	0.713960	0.477050
H511	H51	0.063400	0.738100	0.480500
C661	C66	0.034050	0.685190	0.447660
H521	H52	0.079800	0.690000	0.431600
C671	C67	0.976100	0.648850	0.441850
C681	C68	0.985080	0.617830	0.409840
C691	C69	0.969500	0.570130	0.412620
H531	H53	0.950800	0.557100	0.434400
C701	C70	0.982400	0.542500	0.382490
H541	H54	0.972200	0.510600	0.384700
C711	C71	0.021100	0.604320	0.347470
H551	H55	0.037900	0.616300	0.325100
C721	C72	0.010420	0.634900	0.376230
H561	H56	0.020200	0.666700	0.373000
Cd51	Cd5	0.288180	0.491890	0.552210
O91	O9	0.379760	0.434380	0.520380
O101	O10	0.240780	0.434000	0.509940
C731	C73	0.316900	0.420520	0.502890
C741	C74	0.331900	0.386660	0.471860
C751	C75	0.266600	0.383300	0.448600
H571	H57	0.271300	0.363900	0.428400
H581	H58	0.216100	0.400400	0.452400
N131	N13	0.424820	0.510660	0.577630
C761	C76	0.429000	0.524380	0.612290
H591	H59	0.377600	0.532400	0.624000
C771	C77	0.505300	0.527260	0.631650
H601	H60	0.504500	0.536700	0.655800
C781	C78	0.583540	0.515970	0.614890
C791	C79	0.579200	0.503090	0.578640
H611	H61	0.629800	0.496400	0.565900
C801	C80	0.499800	0.500140	0.561470
H621	H62	0.498500	0.490300	0.537400
N141	N14	0.290600	0.541100	0.501080
N151	N15	0.241440	0.691350	0.350380
C811	C81	0.339800	0.606990	0.466990
H631	H63	0.379400	0.631300	0.464600
C821	C82	0.345500	0.576120	0.495570
H641	H64	0.390700	0.580000	0.512000
C831	C83	0.226160	0.536040	0.477050
H651	H65	0.186600	0.511900	0.480500
C841	C84	0.215950	0.564810	0.447660
H661	H66	0.170200	0.560000	0.431600
C851	C85	0.273900	0.601150	0.441850
C861	C86	0.264920	0.632170	0.409840
C871	C87	0.280500	0.679870	0.412620
H671	H67	0.299200	0.692900	0.434400
C881	C88	0.267600	0.707500	0.382490
H681	H68	0.277800	0.739400	0.384700
C891	C89	0.228900	0.645680	0.347470
H691	H69	0.212100	0.633700	0.325100
C901	C90	0.239580	0.615100	0.376230
H701	H70	0.229800	0.583300	0.373000
Cd61	Cd6	0.288180	0.991890	0.052210
O111	O11	0.379760	0.934380	0.020380
O121	O12	0.240780	0.934000	0.009940
C911	C91	0.316900	0.920520	0.002890
C921	C92	0.331900	0.886660	0.971860
C931	C93	0.266600	0.883300	0.948600
H711	H71	0.271300	0.863900	0.928400
H721	H72	0.216100	0.900400	0.952400
N161	N16	0.424820	0.010660	0.077630
C941	C94	0.429000	0.024380	0.112290
H731	H73	0.377600	0.032400	0.124000
C951	C95	0.505300	0.027260	0.131650
H741	H74	0.504500	0.036700	0.155800
C961	C96	0.583540	0.015970	0.114890
C971	C97	0.579200	0.003090	0.078640
H751	H75	0.629800	0.996400	0.065900
C981	C98	0.499800	0.000140	0.061470
H761	H76	0.498500	0.990300	0.037400
N171	N17	0.290600	0.041100	0.001080
N181	N18	0.241440	0.191350	0.850380
C991	C99	0.339800	0.106990	0.966990
H771	H77	0.379400	0.131300	0.964600
C1001	C100	0.345500	0.076120	0.995570
H781	H78	0.390700	0.080000	0.012000
C1011	C101	0.226160	0.036040	0.977050
H791	H79	0.186600	0.011900	0.980500
C1021	C102	0.215950	0.064810	0.947660
H801	H80	0.170200	0.060000	0.931600
C1031	C103	0.273900	0.101150	0.941850
C1041	C104	0.264920	0.132170	0.909840
C1051	C105	0.280500	0.179870	0.912620
H811	H81	0.299200	0.192900	0.934400
C1061	C106	0.267600	0.207500	0.882490
H821	H82	0.277800	0.239400	0.884700
C1071	C107	0.228900	0.145680	0.847470
H831	H83	0.212100	0.133700	0.825100
C1081	C108	0.239580	0.115100	0.876230
H841	H84	0.229800	0.083300	0.873000
Cd71	Cd7	0.788180	0.491890	0.052210
O131	O13	0.879760	0.434380	0.020380
O141	O14	0.740780	0.434000	0.009940
C1091	C109	0.816900	0.420520	0.002890
C1101	C110	0.831900	0.386660	0.971860
C1111	C111	0.766600	0.383300	0.948600
H851	H85	0.771300	0.363900	0.928400
H861	H86	0.716100	0.400400	0.952400
N191	N19	0.924820	0.510660	0.077630
C1121	C112	0.929000	0.524380	0.112290
H871	H87	0.877600	0.532400	0.124000
C1131	C113	0.005300	0.527260	0.131650
H881	H88	0.004500	0.536700	0.155800
C1141	C114	0.083540	0.515970	0.114890
C1151	C115	0.079200	0.503090	0.078640
H891	H89	0.129800	0.496400	0.065900
C1161	C116	0.999800	0.500140	0.061470
H901	H90	0.998500	0.490300	0.037400
N201	N20	0.790600	0.541100	0.001080
N211	N21	0.741440	0.691350	0.850380
C1171	C117	0.839800	0.606990	0.966990
H911	H91	0.879400	0.631300	0.964600
C1181	C118	0.845500	0.576120	0.995570
H921	H92	0.890700	0.580000	0.012000
C1191	C119	0.726160	0.536040	0.977050
H931	H93	0.686600	0.511900	0.980500
C1201	C120	0.715950	0.564810	0.947660
H941	H94	0.670200	0.560000	0.931600
C1211	C121	0.773900	0.601150	0.941850
C1221	C122	0.764920	0.632170	0.909840
C1231	C123	0.780500	0.679870	0.912620
H951	H95	0.799200	0.692900	0.934400
C1241	C124	0.767600	0.707500	0.882490
H961	H96	0.777800	0.739400	0.884700
C1251	C125	0.728900	0.645680	0.847470
H971	H97	0.712100	0.633700	0.825100
C1261	C126	0.739580	0.615100	0.876230
H981	H98	0.729800	0.583300	0.873000
Cd81	Cd8	0.788180	0.991890	0.552210
O151	O15	0.879760	0.934380	0.520380
O161	O16	0.740780	0.934000	0.509940
C1271	C127	0.816900	0.920520	0.502890
C1281	C128	0.831900	0.886660	0.471860
C1291	C129	0.766600	0.883300	0.448600
H991	H99	0.771300	0.863900	0.428400
H1001	H100	0.716100	0.900400	0.452400
N221	N22	0.924820	0.010660	0.577630
C1301	C130	0.929000	0.024380	0.612290
H1011	H101	0.877600	0.032400	0.624000
C1311	C131	0.005300	0.027260	0.631650
H1021	H102	0.004500	0.036700	0.655800
C1321	C132	0.083540	0.015970	0.614890
C1331	C133	0.079200	0.003090	0.578640
H1031	H103	0.129800	0.996400	0.565900
C1341	C134	0.999800	0.000140	0.561470
H1041	H104	0.998500	0.990300	0.537400
N231	N23	0.790600	0.041100	0.501080
N241	N24	0.741440	0.191350	0.350380
C1351	C135	0.839800	0.106990	0.466990
H1051	H105	0.879400	0.131300	0.464600
C1361	C136	0.845500	0.076120	0.495570
H1061	H106	0.890700	0.080000	0.512000
C1371	C137	0.726160	0.036040	0.477050
H1071	H107	0.686600	0.011900	0.480500
C1381	C138	0.715950	0.064810	0.447660
H1081	H108	0.670200	0.060000	0.431600
C1391	C139	0.773900	0.101150	0.441850
C1401	C140	0.764920	0.132170	0.409840
C1411	C141	0.780500	0.179870	0.412620
H1091	H109	0.799200	0.192900	0.434400
C1421	C142	0.767600	0.207500	0.382490
H1101	H110	0.777800	0.239400	0.384700
C1431	C143	0.728900	0.145680	0.347470
H1111	H111	0.712100	0.133700	0.325100
C1441	C144	0.739580	0.115100	0.376230
H1121	H112	0.729800	0.083300	0.373000
Cd91	Cd9	0.288180	0.258110	0.197790
O171	O17	0.379760	0.315620	0.229620
O181	O18	0.240780	0.316000	0.240060
C1451	C145	0.316900	0.329480	0.247110
C1461	C146	0.331900	0.363340	0.278140
C1471	C147	0.266600	0.366700	0.301400
H1131	H113	0.271300	0.386100	0.321600
H1141	H114	0.216100	0.349600	0.297600
N251	N25	0.424820	0.239340	0.172370
C1481	C148	0.429000	0.225620	0.137710
H1151	H115	0.377600	0.217600	0.126000
C1491	C149	0.505300	0.222740	0.118350
H1161	H116	0.504500	0.213300	0.094200
C1501	C150	0.583540	0.234030	0.135110
C1511	C151	0.579200	0.246910	0.171360
H1171	H117	0.629800	0.253600	0.184100
C1521	C152	0.499800	0.249860	0.188530
H1181	H118	0.498500	0.259700	0.212600
N261	N26	0.290600	0.208900	0.248920
N271	N27	0.241440	0.058650	0.399620
C1531	C153	0.339800	0.143010	0.283010
H1191	H119	0.379400	0.118700	0.285400
C1541	C154	0.345500	0.173880	0.254430
H1201	H120	0.390700	0.170000	0.238000
C1551	C155	0.226160	0.213960	0.272950
H1211	H121	0.186600	0.238100	0.269500
C1561	C156	0.215950	0.185190	0.302340
H1221	H122	0.170200	0.190000	0.318400
C1571	C157	0.273900	0.148850	0.308150
C1581	C158	0.264920	0.117830	0.340160
C1591	C159	0.280500	0.070130	0.337380
H1231	H123	0.299200	0.057100	0.315600
C1601	C160	0.267600	0.042500	0.367510
H1241	H124	0.277800	0.010600	0.365300
C1611	C161	0.228900	0.104320	0.402530
H1251	H125	0.212100	0.116300	0.424900
C1621	C162	0.239580	0.134900	0.373770
H1261	H126	0.229800	0.166700	0.377000
Cd101	Cd10	0.288180	0.758110	0.697790
O191	O19	0.379760	0.815620	0.729620
O201	O20	0.240780	0.816000	0.740060
C1631	C163	0.316900	0.829480	0.747110
C1641	C164	0.331900	0.863340	0.778140
C1651	C165	0.266600	0.866700	0.801400
H1271	H127	0.271300	0.886100	0.821600
H1281	H128	0.216100	0.849600	0.797600
N281	N28	0.424820	0.739340	0.672370
C1661	C166	0.429000	0.725620	0.637710
H1291	H129	0.377600	0.717600	0.626000
C1671	C167	0.505300	0.722740	0.618350
H1301	H130	0.504500	0.713300	0.594200
C1681	C168	0.583540	0.734030	0.635110
C1691	C169	0.579200	0.746910	0.671360
H1311	H131	0.629800	0.753600	0.684100
C1701	C170	0.499800	0.749860	0.688530
H1321	H132	0.498500	0.759700	0.712600
N291	N29	0.290600	0.708900	0.748920
N301	N30	0.241440	0.558650	0.899620
C1711	C171	0.339800	0.643010	0.783010
H1331	H133	0.379400	0.618700	0.785400
C1721	C172	0.345500	0.673880	0.754430
H1341	H134	0.390700	0.670000	0.738000
C1731	C173	0.226160	0.713960	0.772950
H1351	H135	0.186600	0.738100	0.769500
C1741	C174	0.215950	0.685190	0.802340
H1361	H136	0.170200	0.690000	0.818400
C1751	C175	0.273900	0.648850	0.808150
C1761	C176	0.264920	0.617830	0.840160
C1771	C177	0.280500	0.570130	0.837380
H1371	H137	0.299200	0.557100	0.815600
C1781	C178	0.267600	0.542500	0.867510
H1381	H138	0.277800	0.510600	0.865300
C1791	C179	0.228900	0.604320	0.902530
H1391	H139	0.212100	0.616300	0.924900
C1801	C180	0.239580	0.634900	0.873770
H1401	H140	0.229800	0.666700	0.877000
Cd111	Cd11	0.788180	0.258110	0.697790
O211	O21	0.879760	0.315620	0.729620
O221	O22	0.740780	0.316000	0.740060
C1811	C181	0.816900	0.329480	0.747110
C1821	C182	0.831900	0.363340	0.778140
C1831	C183	0.766600	0.366700	0.801400
H1411	H141	0.771300	0.386100	0.821600
H1421	H142	0.716100	0.349600	0.797600
N311	N31	0.924820	0.239340	0.672370
C1841	C184	0.929000	0.225620	0.637710
H1431	H143	0.877600	0.217600	0.626000
C1851	C185	0.005300	0.222740	0.618350
H1441	H144	0.004500	0.213300	0.594200
C1861	C186	0.083540	0.234030	0.635110
C1871	C187	0.079200	0.246910	0.671360
H1451	H145	0.129800	0.253600	0.684100
C1881	C188	0.999800	0.249860	0.688530
H1461	H146	0.998500	0.259700	0.712600
N321	N32	0.790600	0.208900	0.748920
N331	N33	0.741440	0.058650	0.899620
C1891	C189	0.839800	0.143010	0.783010
H1471	H147	0.879400	0.118700	0.785400
C1901	C190	0.845500	0.173880	0.754430
H1481	H148	0.890700	0.170000	0.738000
C1911	C191	0.726160	0.213960	0.772950
H1491	H149	0.686600	0.238100	0.769500
C1921	C192	0.715950	0.185190	0.802340
H1501	H150	0.670200	0.190000	0.818400
C1931	C193	0.773900	0.148850	0.808150
C1941	C194	0.764920	0.117830	0.840160
C1951	C195	0.780500	0.070130	0.837380
H1511	H151	0.799200	0.057100	0.815600
C1961	C196	0.767600	0.042500	0.867510
H1521	H152	0.777800	0.010600	0.865300
C1971	C197	0.728900	0.104320	0.902530
H1531	H153	0.712100	0.116300	0.924900
C1981	C198	0.739580	0.134900	0.873770
H1541	H154	0.729800	0.166700	0.877000
Cd121	Cd12	0.788180	0.758110	0.197790
O231	O23	0.879760	0.815620	0.229620
O241	O24	0.740780	0.816000	0.240060
C1991	C199	0.816900	0.829480	0.247110
C2001	C200	0.831900	0.863340	0.278140
C2011	C201	0.766600	0.866700	0.301400
H1551	H155	0.771300	0.886100	0.321600
H1561	H156	0.716100	0.849600	0.297600
N341	N34	0.924820	0.739340	0.172370
C2021	C202	0.929000	0.725620	0.137710
H1571	H157	0.877600	0.717600	0.126000
C2031	C203	0.005300	0.722740	0.118350
H1581	H158	0.004500	0.713300	0.094200
C2041	C204	0.083540	0.734030	0.135110
C2051	C205	0.079200	0.746910	0.171360
H1591	H159	0.129800	0.753600	0.184100
C2061	C206	0.999800	0.749860	0.188530
H1601	H160	0.998500	0.759700	0.212600
N351	N35	0.790600	0.708900	0.248920
N361	N36	0.741440	0.558650	0.399620
C2071	C207	0.839800	0.643010	0.283010
H1611	H161	0.879400	0.618700	0.285400
C2081	C208	0.845500	0.673880	0.254430
H1621	H162	0.890700	0.670000	0.238000
C2091	C209	0.726160	0.713960	0.272950
H1631	H163	0.686600	0.738100	0.269500
C2101	C210	0.715950	0.685190	0.302340
H1641	H164	0.670200	0.690000	0.318400
C2111	C211	0.773900	0.648850	0.308150
C2121	C212	0.764920	0.617830	0.340160
C2131	C213	0.780500	0.570130	0.337380
H1651	H165	0.799200	0.557100	0.315600
C2141	C214	0.767600	0.542500	0.367510
H1661	H166	0.777800	0.510600	0.365300
C2151	C215	0.728900	0.604320	0.402530
H1671	H167	0.712100	0.616300	0.424900
C2161	C216	0.739580	0.634900	0.373770
H1681	H168	0.729800	0.666700	0.377000
Cd131	Cd13	0.461820	0.491890	0.197790
O251	O25	0.370240	0.434380	0.229620
O261	O26	0.509220	0.434000	0.240060
C2171	C217	0.433100	0.420520	0.247110
C2181	C218	0.418100	0.386660	0.278140
C2191	C219	0.483400	0.383300	0.301400
H1691	H169	0.478700	0.363900	0.321600
H1701	H170	0.533900	0.400400	0.297600
N371	N37	0.325180	0.510660	0.172370
C2201	C220	0.321000	0.524380	0.137710
H1711	H171	0.372400	0.532400	0.126000
C2211	C221	0.244700	0.527260	0.118350
H1721	H172	0.245500	0.536700	0.094200
C2221	C222	0.166460	0.515970	0.135110
C2231	C223	0.170800	0.503090	0.171360
H1731	H173	0.120200	0.496400	0.184100
C2241	C224	0.250200	0.500140	0.188530
H1741	H174	0.251500	0.490300	0.212600
N381	N38	0.459400	0.541100	0.248920
N391	N39	0.508560	0.691350	0.399620
C2251	C225	0.410200	0.606990	0.283010
H1751	H175	0.370600	0.631300	0.285400
C2261	C226	0.404500	0.576120	0.254430
H1761	H176	0.359300	0.580000	0.238000
C2271	C227	0.523840	0.536040	0.272950
H1771	H177	0.563400	0.511900	0.269500
C2281	C228	0.534050	0.564810	0.302340
H1781	H178	0.579800	0.560000	0.318400
C2291	C229	0.476100	0.601150	0.308150
C2301	C230	0.485080	0.632170	0.340160
C2311	C231	0.469500	0.679870	0.337380
H1791	H179	0.450800	0.692900	0.315600
C2321	C232	0.482400	0.707500	0.367510
H1801	H180	0.472200	0.739400	0.365300
C2331	C233	0.521100	0.645680	0.402530
H1811	H181	0.537900	0.633700	0.424900
C2341	C234	0.510420	0.615100	0.373770
H1821	H182	0.520200	0.583300	0.377000
Cd141	Cd14	0.461820	0.991890	0.697790
O271	O27	0.370240	0.934380	0.729620
O281	O28	0.509220	0.934000	0.740060
C2351	C235	0.433100	0.920520	0.747110
C2361	C236	0.418100	0.886660	0.778140
C2371	C237	0.483400	0.883300	0.801400
H1831	H183	0.478700	0.863900	0.821600
H1841	H184	0.533900	0.900400	0.797600
N401	N40	0.325180	0.010660	0.672370
C2381	C238	0.321000	0.024380	0.637710
H1851	H185	0.372400	0.032400	0.626000
C2391	C239	0.244700	0.027260	0.618350
H1861	H186	0.245500	0.036700	0.594200
C2401	C240	0.166460	0.015970	0.635110
C2411	C241	0.170800	0.003090	0.671360
H1871	H187	0.120200	0.996400	0.684100
C2421	C242	0.250200	0.000140	0.688530
H1881	H188	0.251500	0.990300	0.712600
N411	N41	0.459400	0.041100	0.748920
N421	N42	0.508560	0.191350	0.899620
C2431	C243	0.410200	0.106990	0.783010
H1891	H189	0.370600	0.131300	0.785400
C2441	C244	0.404500	0.076120	0.754430
H1901	H190	0.359300	0.080000	0.738000
C2451	C245	0.523840	0.036040	0.772950
H1911	H191	0.563400	0.011900	0.769500
C2461	C246	0.534050	0.064810	0.802340
H1921	H192	0.579800	0.060000	0.818400
C2471	C247	0.476100	0.101150	0.808150
C2481	C248	0.485080	0.132170	0.840160
C2491	C249	0.469500	0.179870	0.837380
H1931	H193	0.450800	0.192900	0.815600
C2501	C250	0.482400	0.207500	0.867510
H1941	H194	0.472200	0.239400	0.865300
C2511	C251	0.521100	0.145680	0.902530
H1951	H195	0.537900	0.133700	0.924900
C2521	C252	0.510420	0.115100	0.873770
H1961	H196	0.520200	0.083300	0.877000
Cd151	Cd15	0.961820	0.491890	0.697790
O291	O29	0.870240	0.434380	0.729620
O301	O30	0.009220	0.434000	0.740060
C2531	C253	0.933100	0.420520	0.747110
C2541	C254	0.918100	0.386660	0.778140
C2551	C255	0.983400	0.383300	0.801400
H1971	H197	0.978700	0.363900	0.821600
H1981	H198	0.033900	0.400400	0.797600
N431	N43	0.825180	0.510660	0.672370
C2561	C256	0.821000	0.524380	0.637710
H1991	H199	0.872400	0.532400	0.626000
C2571	C257	0.744700	0.527260	0.618350
H2001	H200	0.745500	0.536700	0.594200
C2581	C258	0.666460	0.515970	0.635110
C2591	C259	0.670800	0.503090	0.671360
H2011	H201	0.620200	0.496400	0.684100
C2601	C260	0.750200	0.500140	0.688530
H2021	H202	0.751500	0.490300	0.712600
N441	N44	0.959400	0.541100	0.748920
N451	N45	0.008560	0.691350	0.899620
C2611	C261	0.910200	0.606990	0.783010
H2031	H203	0.870600	0.631300	0.785400
C2621	C262	0.904500	0.576120	0.754430
H2041	H204	0.859300	0.580000	0.738000
C2631	C263	0.023840	0.536040	0.772950
H2051	H205	0.063400	0.511900	0.769500
C2641	C264	0.034050	0.564810	0.802340
H2061	H206	0.079800	0.560000	0.818400
C2651	C265	0.976100	0.601150	0.808150
C2661	C266	0.985080	0.632170	0.840160
C2671	C267	0.969500	0.679870	0.837380
H2071	H207	0.950800	0.692900	0.815600
C2681	C268	0.982400	0.707500	0.867510
H2081	H208	0.972200	0.739400	0.865300
C2691	C269	0.021100	0.645680	0.902530
H2091	H209	0.037900	0.633700	0.924900
C2701	C270	0.010420	0.615100	0.873770
H2101	H210	0.020200	0.583300	0.877000
Cd161	Cd16	0.961820	0.991890	0.197790
O311	O31	0.870240	0.934380	0.229620
O321	O32	0.009220	0.934000	0.240060
C2711	C271	0.933100	0.920520	0.247110
C2721	C272	0.918100	0.886660	0.278140
C2731	C273	0.983400	0.883300	0.301400
H2111	H211	0.978700	0.863900	0.321600
H2121	H212	0.033900	0.900400	0.297600
N461	N46	0.825180	0.010660	0.172370
C2741	C274	0.821000	0.024380	0.137710
H2131	H213	0.872400	0.032400	0.126000
C2751	C275	0.744700	0.027260	0.118350
H2141	H214	0.745500	0.036700	0.094200
C2761	C276	0.666460	0.015970	0.135110
C2771	C277	0.670800	0.003090	0.171360
H2151	H215	0.620200	0.996400	0.184100
C2781	C278	0.750200	0.000140	0.188530
H2161	H216	0.751500	0.990300	0.212600
N471	N47	0.959400	0.041100	0.248920
N481	N48	0.008560	0.191350	0.399620
C2791	C279	0.910200	0.106990	0.283010
H2171	H217	0.870600	0.131300	0.285400
C2801	C280	0.904500	0.076120	0.254430
H2181	H218	0.859300	0.080000	0.238000
C2811	C281	0.023840	0.036040	0.272950
H2191	H219	0.063400	0.011900	0.269500
C2821	C282	0.034050	0.064810	0.302340
H2201	H220	0.079800	0.060000	0.318400
C2831	C283	0.976100	0.101150	0.308150
C2841	C284	0.985080	0.132170	0.340160
C2851	C285	0.969500	0.179870	0.337380
H2211	H221	0.950800	0.192900	0.315600
C2861	C286	0.982400	0.207500	0.367510
H2221	H222	0.972200	0.239400	0.365300
C2871	C287	0.021100	0.145680	0.402530
H2231	H223	0.037900	0.133700	0.424900
C2881	C288	0.010420	0.115100	0.373770
H2241	H224	0.020200	0.083300	0.377000
Cd171	Cd17	0.538180	0.741890	0.447790
O331	O33	0.629760	0.684380	0.479620
O341	O34	0.490780	0.684000	0.490060
C2891	C289	0.566900	0.670520	0.497110
C2901	C290	0.581900	0.636660	0.528140
C2911	C291	0.516600	0.633300	0.551400
H2251	H225	0.521300	0.613900	0.571600
H2261	H226	0.466100	0.650400	0.547600
N491	N49	0.674820	0.760660	0.422370
C2921	C292	0.679000	0.774380	0.387710
H2271	H227	0.627600	0.782400	0.376000
C2931	C293	0.755300	0.777260	0.368350
H2281	H228	0.754500	0.786700	0.344200
C2941	C294	0.833540	0.765970	0.385110
C2951	C295	0.829200	0.753090	0.421360
H2291	H229	0.879800	0.746400	0.434100
C2961	C296	0.749800	0.750140	0.438530
H2301	H230	0.748500	0.740300	0.462600
N501	N50	0.540600	0.791100	0.498920
N511	N51	0.491440	0.941350	0.649620
C2971	C297	0.589800	0.856990	0.533010
H2311	H231	0.629400	0.881300	0.535400
C2981	C298	0.595500	0.826120	0.504430
H2321	H232	0.640700	0.830000	0.488000
C2991	C299	0.476160	0.786040	0.522950
H2331	H233	0.436600	0.761900	0.519500
C3001	C300	0.465950	0.814810	0.552340
H2341	H234	0.420200	0.810000	0.568400
C3011	C301	0.523900	0.851150	0.558150
C3021	C302	0.514920	0.882170	0.590160
C3031	C303	0.530500	0.929870	0.587380
H2351	H235	0.549200	0.942900	0.565600
C3041	C304	0.517600	0.957500	0.617510
H2361	H236	0.527800	0.989400	0.615300
C3051	C305	0.478900	0.895680	0.652530
H2371	H237	0.462100	0.883700	0.674900
C3061	C306	0.489580	0.865100	0.623770
H2381	H238	0.479800	0.833300	0.627000
Cd181	Cd18	0.538180	0.241890	0.947790
O351	O35	0.629760	0.184380	0.979620
O361	O36	0.490780	0.184000	0.990060
C3071	C307	0.566900	0.170520	0.997110
C3081	C308	0.581900	0.136660	0.028140
C3091	C309	0.516600	0.133300	0.051400
H2391	H239	0.521300	0.113900	0.071600
H2401	H240	0.466100	0.150400	0.047600
N521	N52	0.674820	0.260660	0.922370
C3101	C310	0.679000	0.274380	0.887710
H2411	H241	0.627600	0.282400	0.876000
C3111	C311	0.755300	0.277260	0.868350
H2421	H242	0.754500	0.286700	0.844200
C3121	C312	0.833540	0.265970	0.885110
C3131	C313	0.829200	0.253090	0.921360
H2431	H243	0.879800	0.246400	0.934100
C3141	C314	0.749800	0.250140	0.938530
H2441	H244	0.748500	0.240300	0.962600
N531	N53	0.540600	0.291100	0.998920
N541	N54	0.491440	0.441350	0.149620
C3151	C315	0.589800	0.356990	0.033010
H2451	H245	0.629400	0.381300	0.035400
C3161	C316	0.595500	0.326120	0.004430
H2461	H246	0.640700	0.330000	0.988000
C3171	C317	0.476160	0.286040	0.022950
H2471	H247	0.436600	0.261900	0.019500
C3181	C318	0.465950	0.314810	0.052340
H2481	H248	0.420200	0.310000	0.068400
C3191	C319	0.523900	0.351150	0.058150
C3201	C320	0.514920	0.382170	0.090160
C3211	C321	0.530500	0.429870	0.087380
H2491	H249	0.549200	0.442900	0.065600
C3221	C322	0.517600	0.457500	0.117510
H2501	H250	0.527800	0.489400	0.115300
C3231	C323	0.478900	0.395680	0.152530
H2511	H251	0.462100	0.383700	0.174900
C3241	C324	0.489580	0.365100	0.123770
H2521	H252	0.479800	0.333300	0.127000
Cd191	Cd19	0.038180	0.741890	0.947790
O371	O37	0.129760	0.684380	0.979620
O381	O38	0.990780	0.684000	0.990060
C3251	C325	0.066900	0.670520	0.997110
C3261	C326	0.081900	0.636660	0.028140
C3271	C327	0.016600	0.633300	0.051400
H2531	H253	0.021300	0.613900	0.071600
H2541	H254	0.966100	0.650400	0.047600
N551	N55	0.174820	0.760660	0.922370
C3281	C328	0.179000	0.774380	0.887710
H2551	H255	0.127600	0.782400	0.876000
C3291	C329	0.255300	0.777260	0.868350
H2561	H256	0.254500	0.786700	0.844200
C3301	C330	0.333540	0.765970	0.885110
C3311	C331	0.329200	0.753090	0.921360
H2571	H257	0.379800	0.746400	0.934100
C3321	C332	0.249800	0.750140	0.938530
H2581	H258	0.248500	0.740300	0.962600
N561	N56	0.040600	0.791100	0.998920
N571	N57	0.991440	0.941350	0.149620
C3331	C333	0.089800	0.856990	0.033010
H2591	H259	0.129400	0.881300	0.035400
C3341	C334	0.095500	0.826120	0.004430
H2601	H260	0.140700	0.830000	0.988000
C3351	C335	0.976160	0.786040	0.022950
H2611	H261	0.936600	0.761900	0.019500
C3361	C336	0.965950	0.814810	0.052340
H2621	H262	0.920200	0.810000	0.068400
C3371	C337	0.023900	0.851150	0.058150
C3381	C338	0.014920	0.882170	0.090160
C3391	C339	0.030500	0.929870	0.087380
H2631	H263	0.049200	0.942900	0.065600
C3401	C340	0.017600	0.957500	0.117510
H2641	H264	0.027800	0.989400	0.115300
C3411	C341	0.978900	0.895680	0.152530
H2651	H265	0.962100	0.883700	0.174900
C3421	C342	0.989580	0.865100	0.123770
H2661	H266	0.979800	0.833300	0.127000
Cd201	Cd20	0.038180	0.241890	0.447790
O391	O39	0.129760	0.184380	0.479620
O401	O40	0.990780	0.184000	0.490060
C3431	C343	0.066900	0.170520	0.497110
C3441	C344	0.081900	0.136660	0.528140
C3451	C345	0.016600	0.133300	0.551400
H2671	H267	0.021300	0.113900	0.571600
H2681	H268	0.966100	0.150400	0.547600
N581	N58	0.174820	0.260660	0.422370
C3461	C346	0.179000	0.274380	0.387710
H2691	H269	0.127600	0.282400	0.376000
C3471	C347	0.255300	0.277260	0.368350
H2701	H270	0.254500	0.286700	0.344200
C3481	C348	0.333540	0.265970	0.385110
C3491	C349	0.329200	0.253090	0.421360
H2711	H271	0.379800	0.246400	0.434100
C3501	C350	0.249800	0.250140	0.438530
H2721	H272	0.248500	0.240300	0.462600
N591	N59	0.040600	0.291100	0.498920
N601	N60	0.991440	0.441350	0.649620
C3511	C351	0.089800	0.356990	0.533010
H2731	H273	0.129400	0.381300	0.535400
C3521	C352	0.095500	0.326120	0.504430
H2741	H274	0.140700	0.330000	0.488000
C3531	C353	0.976160	0.286040	0.522950
H2751	H275	0.936600	0.261900	0.519500
C3541	C354	0.965950	0.314810	0.552340
H2761	H276	0.920200	0.310000	0.568400
C3551	C355	0.023900	0.351150	0.558150
C3561	C356	0.014920	0.382170	0.590160
C3571	C357	0.030500	0.429870	0.587380
H2771	H277	0.049200	0.442900	0.565600
C3581	C358	0.017600	0.457500	0.617510
H2781	H278	0.027800	0.489400	0.615300
C3591	C359	0.978900	0.395680	0.652530
H2791	H279	0.962100	0.383700	0.674900
C3601	C360	0.989580	0.365100	0.623770
H2801	H280	0.979800	0.333300	0.627000
Cd211	Cd21	0.711820	0.508110	0.447790
O411	O41	0.620240	0.565620	0.479620
O421	O42	0.759220	0.566000	0.490060
C3611	C361	0.683100	0.579480	0.497110
C3621	C362	0.668100	0.613340	0.528140
C3631	C363	0.733400	0.616700	0.551400
H2811	H281	0.728700	0.636100	0.571600
H2821	H282	0.783900	0.599600	0.547600
N611	N61	0.575180	0.489340	0.422370
C3641	C364	0.571000	0.475620	0.387710
H2831	H283	0.622400	0.467600	0.376000
C3651	C365	0.494700	0.472740	0.368350
H2841	H284	0.495500	0.463300	0.344200
C3661	C366	0.416460	0.484030	0.385110
C3671	C367	0.420800	0.496910	0.421360
H2851	H285	0.370200	0.503600	0.434100
C3681	C368	0.500200	0.499860	0.438530
H2861	H286	0.501500	0.509700	0.462600
N621	N62	0.709400	0.458900	0.498920
N631	N63	0.758560	0.308650	0.649620
C3691	C369	0.660200	0.393010	0.533010
H2871	H287	0.620600	0.368700	0.535400
C3701	C370	0.654500	0.423880	0.504430
H2881	H288	0.609300	0.420000	0.488000
C3711	C371	0.773840	0.463960	0.522950
H2891	H289	0.813400	0.488100	0.519500
C3721	C372	0.784050	0.435190	0.552340
H2901	H290	0.829800	0.440000	0.568400
C3731	C373	0.726100	0.398850	0.558150
C3741	C374	0.735080	0.367830	0.590160
C3751	C375	0.719500	0.320130	0.587380
H2911	H291	0.700800	0.307100	0.565600
C3761	C376	0.732400	0.292500	0.617510
H2921	H292	0.722200	0.260600	0.615300
C3771	C377	0.771100	0.354320	0.652530
H2931	H293	0.787900	0.366300	0.674900
C3781	C378	0.760420	0.384900	0.623770
H2941	H294	0.770200	0.416700	0.627000
Cd221	Cd22	0.711820	0.008110	0.947790
O431	O43	0.620240	0.065620	0.979620
O441	O44	0.759220	0.066000	0.990060
C3791	C379	0.683100	0.079480	0.997110
C3801	C380	0.668100	0.113340	0.028140
C3811	C381	0.733400	0.116700	0.051400
H2951	H295	0.728700	0.136100	0.071600
H2961	H296	0.783900	0.099600	0.047600
N641	N64	0.575180	0.989340	0.922370
C3821	C382	0.571000	0.975620	0.887710
H2971	H297	0.622400	0.967600	0.876000
C3831	C383	0.494700	0.972740	0.868350
H2981	H298	0.495500	0.963300	0.844200
C3841	C384	0.416460	0.984030	0.885110
C3851	C385	0.420800	0.996910	0.921360
H2991	H299	0.370200	0.003600	0.934100
C3861	C386	0.500200	0.999860	0.938530
H3001	H300	0.501500	0.009700	0.962600
N651	N65	0.709400	0.958900	0.998920
N661	N66	0.758560	0.808650	0.149620
C3871	C387	0.660200	0.893010	0.033010
H3011	H301	0.620600	0.868700	0.035400
C3881	C388	0.654500	0.923880	0.004430
H3021	H302	0.609300	0.920000	0.988000
C3891	C389	0.773840	0.963960	0.022950
H3031	H303	0.813400	0.988100	0.019500
C3901	C390	0.784050	0.935190	0.052340
H3041	H304	0.829800	0.940000	0.068400
C3911	C391	0.726100	0.898850	0.058150
C3921	C392	0.735080	0.867830	0.090160
C3931	C393	0.719500	0.820130	0.087380
H3051	H305	0.700800	0.807100	0.065600
C3941	C394	0.732400	0.792500	0.117510
H3061	H306	0.722200	0.760600	0.115300
C3951	C395	0.771100	0.854320	0.152530
H3071	H307	0.787900	0.866300	0.174900
C3961	C396	0.760420	0.884900	0.123770
H3081	H308	0.770200	0.916700	0.127000
Cd231	Cd23	0.211820	0.508110	0.947790
O451	O45	0.120240	0.565620	0.979620
O461	O46	0.259220	0.566000	0.990060
C3971	C397	0.183100	0.579480	0.997110
C3981	C398	0.168100	0.613340	0.028140
C3991	C399	0.233400	0.616700	0.051400
H3091	H309	0.228700	0.636100	0.071600
H3101	H310	0.283900	0.599600	0.047600
N671	N67	0.075180	0.489340	0.922370
C4001	C400	0.071000	0.475620	0.887710
H3111	H311	0.122400	0.467600	0.876000
C4011	C401	0.994700	0.472740	0.868350
H3121	H312	0.995500	0.463300	0.844200
C4021	C402	0.916460	0.484030	0.885110
C4031	C403	0.920800	0.496910	0.921360
H3131	H313	0.870200	0.503600	0.934100
C4041	C404	0.000200	0.499860	0.938530
H3141	H314	0.001500	0.509700	0.962600
N681	N68	0.209400	0.458900	0.998920
N691	N69	0.258560	0.308650	0.149620
C4051	C405	0.160200	0.393010	0.033010
H3151	H315	0.120600	0.368700	0.035400
C4061	C406	0.154500	0.423880	0.004430
H3161	H316	0.109300	0.420000	0.988000
C4071	C407	0.273840	0.463960	0.022950
H3171	H317	0.313400	0.488100	0.019500
C4081	C408	0.284050	0.435190	0.052340
H3181	H318	0.329800	0.440000	0.068400
C4091	C409	0.226100	0.398850	0.058150
C4101	C410	0.235080	0.367830	0.090160
C4111	C411	0.219500	0.320130	0.087380
H3191	H319	0.200800	0.307100	0.065600
C4121	C412	0.232400	0.292500	0.117510
H3201	H320	0.222200	0.260600	0.115300
C4131	C413	0.271100	0.354320	0.152530
H3211	H321	0.287900	0.366300	0.174900
C4141	C414	0.260420	0.384900	0.123770
H3221	H322	0.270200	0.416700	0.127000
Cd241	Cd24	0.211820	0.008110	0.447790
O471	O47	0.120240	0.065620	0.479620
O481	O48	0.259220	0.066000	0.490060
C4151	C415	0.183100	0.079480	0.497110
C4161	C416	0.168100	0.113340	0.528140
C4171	C417	0.233400	0.116700	0.551400
H3231	H323	0.228700	0.136100	0.571600
H3241	H324	0.283900	0.099600	0.547600
N701	N70	0.075180	0.989340	0.422370
C4181	C418	0.071000	0.975620	0.387710
H3251	H325	0.122400	0.967600	0.376000
C4191	C419	0.994700	0.972740	0.368350
H3261	H326	0.995500	0.963300	0.344200
C4201	C420	0.916460	0.984030	0.385110
C4211	C421	0.920800	0.996910	0.421360
H3271	H327	0.870200	0.003600	0.434100
C4221	C422	0.000200	0.999860	0.438530
H3281	H328	0.001500	0.009700	0.462600
N711	N71	0.209400	0.958900	0.498920
N721	N72	0.258560	0.808650	0.649620
C4231	C423	0.160200	0.893010	0.533010
H3291	H329	0.120600	0.868700	0.535400
C4241	C424	0.154500	0.923880	0.504430
H3301	H330	0.109300	0.920000	0.488000
C4251	C425	0.273840	0.963960	0.522950
H3311	H331	0.313400	0.988100	0.519500
C4261	C426	0.284050	0.935190	0.552340
H3321	H332	0.329800	0.940000	0.568400
C4271	C427	0.226100	0.898850	0.558150
C4281	C428	0.235080	0.867830	0.590160
C4291	C429	0.219500	0.820130	0.587380
H3331	H333	0.200800	0.807100	0.565600
C4301	C430	0.232400	0.792500	0.617510
H3341	H334	0.222200	0.760600	0.615300
C4311	C431	0.271100	0.854320	0.652530
H3351	H335	0.287900	0.866300	0.674900
C4321	C432	0.260420	0.884900	0.623770
H3361	H336	0.270200	0.916700	0.627000
Cd251	Cd25	0.711820	0.741890	0.802210
O491	O49	0.620240	0.684380	0.770380
O501	O50	0.759220	0.684000	0.759940
C4331	C433	0.683100	0.670520	0.752890
C4341	C434	0.668100	0.636660	0.721860
C4351	C435	0.733400	0.633300	0.698600
H3371	H337	0.728700	0.613900	0.678400
H3381	H338	0.783900	0.650400	0.702400
N731	N73	0.575180	0.760660	0.827630
C4361	C436	0.571000	0.774380	0.862290
H3391	H339	0.622400	0.782400	0.874000
C4371	C437	0.494700	0.777260	0.881650
H3401	H340	0.495500	0.786700	0.905800
C4381	C438	0.416460	0.765970	0.864890
C4391	C439	0.420800	0.753090	0.828640
H3411	H341	0.370200	0.746400	0.815900
C4401	C440	0.500200	0.750140	0.811470
H3421	H342	0.501500	0.740300	0.787400
N741	N74	0.709400	0.791100	0.751080
N751	N75	0.758560	0.941350	0.600380
C4411	C441	0.660200	0.856990	0.716990
H3431	H343	0.620600	0.881300	0.714600
C4421	C442	0.654500	0.826120	0.745570
H3441	H344	0.609300	0.830000	0.762000
C4431	C443	0.773840	0.786040	0.727050
H3451	H345	0.813400	0.761900	0.730500
C4441	C444	0.784050	0.814810	0.697660
H3461	H346	0.829800	0.810000	0.681600
C4451	C445	0.726100	0.851150	0.691850
C4461	C446	0.735080	0.882170	0.659840
C4471	C447	0.719500	0.929870	0.662620
H3471	H347	0.700800	0.942900	0.684400
C4481	C448	0.732400	0.957500	0.632490
H3481	H348	0.722200	0.989400	0.634700
C4491	C449	0.771100	0.895680	0.597470
H3491	H349	0.787900	0.883700	0.575100
C4501	C450	0.760420	0.865100	0.626230
H3501	H350	0.770200	0.833300	0.623000
Cd261	Cd26	0.711820	0.241890	0.302210
O511	O51	0.620240	0.184380	0.270380
O521	O52	0.759220	0.184000	0.259940
C4511	C451	0.683100	0.170520	0.252890
C4521	C452	0.668100	0.136660	0.221860
C4531	C453	0.733400	0.133300	0.198600
H3511	H351	0.728700	0.113900	0.178400
H3521	H352	0.783900	0.150400	0.202400
N761	N76	0.575180	0.260660	0.327630
C4541	C454	0.571000	0.274380	0.362290
H3531	H353	0.622400	0.282400	0.374000
C4551	C455	0.494700	0.277260	0.381650
H3541	H354	0.495500	0.286700	0.405800
C4561	C456	0.416460	0.265970	0.364890
C4571	C457	0.420800	0.253090	0.328640
H3551	H355	0.370200	0.246400	0.315900
C4581	C458	0.500200	0.250140	0.311470
H3561	H356	0.501500	0.240300	0.287400
N771	N77	0.709400	0.291100	0.251080
N781	N78	0.758560	0.441350	0.100380
C4591	C459	0.660200	0.356990	0.216990
H3571	H357	0.620600	0.381300	0.214600
C4601	C460	0.654500	0.326120	0.245570
H3581	H358	0.609300	0.330000	0.262000
C4611	C461	0.773840	0.286040	0.227050
H3591	H359	0.813400	0.261900	0.230500
C4621	C462	0.784050	0.314810	0.197660
H3601	H360	0.829800	0.310000	0.181600
C4631	C463	0.726100	0.351150	0.191850
C4641	C464	0.735080	0.382170	0.159840
C4651	C465	0.719500	0.429870	0.162620
H3611	H361	0.700800	0.442900	0.184400
C4661	C466	0.732400	0.457500	0.132490
H3621	H362	0.722200	0.489400	0.134700
C4671	C467	0.771100	0.395680	0.097470
H3631	H363	0.787900	0.383700	0.075100
C4681	C468	0.760420	0.365100	0.126230
H3641	H364	0.770200	0.333300	0.123000
Cd271	Cd27	0.211820	0.741890	0.302210
O531	O53	0.120240	0.684380	0.270380
O541	O54	0.259220	0.684000	0.259940
C4691	C469	0.183100	0.670520	0.252890
C4701	C470	0.168100	0.636660	0.221860
C4711	C471	0.233400	0.633300	0.198600
H3651	H365	0.228700	0.613900	0.178400
H3661	H366	0.283900	0.650400	0.202400
N791	N79	0.075180	0.760660	0.327630
C4721	C472	0.071000	0.774380	0.362290
H3671	H367	0.122400	0.782400	0.374000
C4731	C473	0.994700	0.777260	0.381650
H3681	H368	0.995500	0.786700	0.405800
C4741	C474	0.916460	0.765970	0.364890
C4751	C475	0.920800	0.753090	0.328640
H3691	H369	0.870200	0.746400	0.315900
C4761	C476	0.000200	0.750140	0.311470
H3701	H370	0.001500	0.740300	0.287400
N801	N80	0.209400	0.791100	0.251080
N811	N81	0.258560	0.941350	0.100380
C4771	C477	0.160200	0.856990	0.216990
H3711	H371	0.120600	0.881300	0.214600
C4781	C478	0.154500	0.826120	0.245570
H3721	H372	0.109300	0.830000	0.262000
C4791	C479	0.273840	0.786040	0.227050
H3731	H373	0.313400	0.761900	0.230500
C4801	C480	0.284050	0.814810	0.197660
H3741	H374	0.329800	0.810000	0.181600
C4811	C481	0.226100	0.851150	0.191850
C4821	C482	0.235080	0.882170	0.159840
C4831	C483	0.219500	0.929870	0.162620
H3751	H375	0.200800	0.942900	0.184400
C4841	C484	0.232400	0.957500	0.132490
H3761	H376	0.222200	0.989400	0.134700
C4851	C485	0.271100	0.895680	0.097470
H3771	H377	0.287900	0.883700	0.075100
C4861	C486	0.260420	0.865100	0.126230
H3781	H378	0.270200	0.833300	0.123000
Cd281	Cd28	0.211820	0.241890	0.802210
O551	O55	0.120240	0.184380	0.770380
O561	O56	0.259220	0.184000	0.759940
C4871	C487	0.183100	0.170520	0.752890
C4881	C488	0.168100	0.136660	0.721860
C4891	C489	0.233400	0.133300	0.698600
H3791	H379	0.228700	0.113900	0.678400
H3801	H380	0.283900	0.150400	0.702400
N821	N82	0.075180	0.260660	0.827630
C4901	C490	0.071000	0.274380	0.862290
H3811	H381	0.122400	0.282400	0.874000
C4911	C491	0.994700	0.277260	0.881650
H3821	H382	0.995500	0.286700	0.905800
C4921	C492	0.916460	0.265970	0.864890
C4931	C493	0.920800	0.253090	0.828640
H3831	H383	0.870200	0.246400	0.815900
C4941	C494	0.000200	0.250140	0.811470
H3841	H384	0.001500	0.240300	0.787400
N831	N83	0.209400	0.291100	0.751080
N841	N84	0.258560	0.441350	0.600380
C4951	C495	0.160200	0.356990	0.716990
H3851	H385	0.120600	0.381300	0.714600
C4961	C496	0.154500	0.326120	0.745570
H3861	H386	0.109300	0.330000	0.762000
C4971	C497	0.273840	0.286040	0.727050
H3871	H387	0.313400	0.261900	0.730500
C4981	C498	0.284050	0.314810	0.697660
H3881	H388	0.329800	0.310000	0.681600
C4991	C499	0.226100	0.351150	0.691850
C5001	C500	0.235080	0.382170	0.659840
C5011	C501	0.219500	0.429870	0.662620
H3891	H389	0.200800	0.442900	0.684400
C5021	C502	0.232400	0.457500	0.632490
H3901	H390	0.222200	0.489400	0.634700
C5031	C503	0.271100	0.395680	0.597470
H3911	H391	0.287900	0.383700	0.575100
C5041	C504	0.260420	0.365100	0.626230
H3921	H392	0.270200	0.333300	0.623000
Cd291	Cd29	0.538180	0.508110	0.802210
O571	O57	0.629760	0.565620	0.770380
O581	O58	0.490780	0.566000	0.759940
C5051	C505	0.566900	0.579480	0.752890
C5061	C506	0.581900	0.613340	0.721860
C5071	C507	0.516600	0.616700	0.698600
H3931	H393	0.521300	0.636100	0.678400
H3941	H394	0.466100	0.599600	0.702400
N851	N85	0.674820	0.489340	0.827630
C5081	C508	0.679000	0.475620	0.862290
H3951	H395	0.627600	0.467600	0.874000
C5091	C509	0.755300	0.472740	0.881650
H3961	H396	0.754500	0.463300	0.905800
C5101	C510	0.833540	0.484030	0.864890
C5111	C511	0.829200	0.496910	0.828640
H3971	H397	0.879800	0.503600	0.815900
C5121	C512	0.749800	0.499860	0.811470
H3981	H398	0.748500	0.509700	0.787400
N861	N86	0.540600	0.458900	0.751080
N871	N87	0.491440	0.308650	0.600380
C5131	C513	0.589800	0.393010	0.716990
H3991	H399	0.629400	0.368700	0.714600
C5141	C514	0.595500	0.423880	0.745570
H4001	H400	0.640700	0.420000	0.762000
C5151	C515	0.476160	0.463960	0.727050
H4011	H401	0.436600	0.488100	0.730500
C5161	C516	0.465950	0.435190	0.697660
H4021	H402	0.420200	0.440000	0.681600
C5171	C517	0.523900	0.398850	0.691850
C5181	C518	0.514920	0.367830	0.659840
C5191	C519	0.530500	0.320130	0.662620
H4031	H403	0.549200	0.307100	0.684400
C5201	C520	0.517600	0.292500	0.632490
H4041	H404	0.527800	0.260600	0.634700
C5211	C521	0.478900	0.354320	0.597470
H4051	H405	0.462100	0.366300	0.575100
C5221	C522	0.489580	0.384900	0.626230
H4061	H406	0.479800	0.416700	0.623000
Cd301	Cd30	0.538180	0.008110	0.302210
O591	O59	0.629760	0.065620	0.270380
O601	O60	0.490780	0.066000	0.259940
C5231	C523	0.566900	0.079480	0.252890
C5241	C524	0.581900	0.113340	0.221860
C5251	C525	0.516600	0.116700	0.198600
H4071	H407	0.521300	0.136100	0.178400
H4081	H408	0.466100	0.099600	0.202400
N881	N88	0.674820	0.989340	0.327630
C5261	C526	0.679000	0.975620	0.362290
H4091	H409	0.627600	0.967600	0.374000
C5271	C527	0.755300	0.972740	0.381650
H4101	H410	0.754500	0.963300	0.405800
C5281	C528	0.833540	0.984030	0.364890
C5291	C529	0.829200	0.996910	0.328640
H4111	H411	0.879800	0.003600	0.315900
C5301	C530	0.749800	0.999860	0.311470
H4121	H412	0.748500	0.009700	0.287400
N891	N89	0.540600	0.958900	0.251080
N901	N90	0.491440	0.808650	0.100380
C5311	C531	0.589800	0.893010	0.216990
H4131	H413	0.629400	0.868700	0.214600
C5321	C532	0.595500	0.923880	0.245570
H4141	H414	0.640700	0.920000	0.262000
C5331	C533	0.476160	0.963960	0.227050
H4151	H415	0.436600	0.988100	0.230500
C5341	C534	0.465950	0.935190	0.197660
H4161	H416	0.420200	0.940000	0.181600
C5351	C535	0.523900	0.898850	0.191850
C5361	C536	0.514920	0.867830	0.159840
C5371	C537	0.530500	0.820130	0.162620
H4171	H417	0.549200	0.807100	0.184400
C5381	C538	0.517600	0.792500	0.132490
H4181	H418	0.527800	0.760600	0.134700
C5391	C539	0.478900	0.854320	0.097470
H4191	H419	0.462100	0.866300	0.075100
C5401	C540	0.489580	0.884900	0.126230
H4201	H420	0.479800	0.916700	0.123000
Cd311	Cd31	0.038180	0.508110	0.302210
O611	O61	0.129760	0.565620	0.270380
O621	O62	0.990780	0.566000	0.259940
C5411	C541	0.066900	0.579480	0.252890
C5421	C542	0.081900	0.613340	0.221860
C5431	C543	0.016600	0.616700	0.198600
H4211	H421	0.021300	0.636100	0.178400
H4221	H422	0.966100	0.599600	0.202400
N911	N91	0.174820	0.489340	0.327630
C5441	C544	0.179000	0.475620	0.362290
H4231	H423	0.127600	0.467600	0.374000
C5451	C545	0.255300	0.472740	0.381650
H4241	H424	0.254500	0.463300	0.405800
C5461	C546	0.333540	0.484030	0.364890
C5471	C547	0.329200	0.496910	0.328640
H4251	H425	0.379800	0.503600	0.315900
C5481	C548	0.249800	0.499860	0.311470
H4261	H426	0.248500	0.509700	0.287400
N921	N92	0.040600	0.458900	0.251080
N931	N93	0.991440	0.308650	0.100380
C5491	C549	0.089800	0.393010	0.216990
H4271	H427	0.129400	0.368700	0.214600
C5501	C550	0.095500	0.423880	0.245570
H4281	H428	0.140700	0.420000	0.262000
C5511	C551	0.976160	0.463960	0.227050
H4291	H429	0.936600	0.488100	0.230500
C5521	C552	0.965950	0.435190	0.197660
H4301	H430	0.920200	0.440000	0.181600
C5531	C553	0.023900	0.398850	0.191850
C5541	C554	0.014920	0.367830	0.159840
C5551	C555	0.030500	0.320130	0.162620
H4311	H431	0.049200	0.307100	0.184400
C5561	C556	0.017600	0.292500	0.132490
H4321	H432	0.027800	0.260600	0.134700
C5571	C557	0.978900	0.354320	0.097470
H4331	H433	0.962100	0.366300	0.075100
C5581	C558	0.989580	0.384900	0.126230
H4341	H434	0.979800	0.416700	0.123000
Cd321	Cd32	0.038180	0.008110	0.802210
O631	O63	0.129760	0.065620	0.770380
O641	O64	0.990780	0.066000	0.759940
C5591	C559	0.066900	0.079480	0.752890
C5601	C560	0.081900	0.113340	0.721860
C5611	C561	0.016600	0.116700	0.698600
H4351	H435	0.021300	0.136100	0.678400
H4361	H436	0.966100	0.099600	0.702400
N941	N94	0.174820	0.989340	0.827630
C5621	C562	0.179000	0.975620	0.862290
H4371	H437	0.127600	0.967600	0.874000
C5631	C563	0.255300	0.972740	0.881650
H4381	H438	0.254500	0.963300	0.905800
C5641	C564	0.333540	0.984030	0.864890
C5651	C565	0.329200	0.996910	0.828640
H4391	H439	0.379800	0.003600	0.815900
C5661	C566	0.249800	0.999860	0.811470
H4401	H440	0.248500	0.009700	0.787400
N951	N95	0.040600	0.958900	0.751080
N961	N96	0.991440	0.808650	0.600380
C5671	C567	0.089800	0.893010	0.716990
H4411	H441	0.129400	0.868700	0.714600
C5681	C568	0.095500	0.923880	0.745570
H4421	H442	0.140700	0.920000	0.762000
C5691	C569	0.976160	0.963960	0.727050
H4431	H443	0.936600	0.988100	0.730500
C5701	C570	0.965950	0.935190	0.697660
H4441	H444	0.920200	0.940000	0.681600
C5711	C571	0.023900	0.898850	0.691850
C5721	C572	0.014920	0.867830	0.659840
C5731	C573	0.030500	0.820130	0.662620
H4451	H445	0.049200	0.807100	0.684400
C5741	C574	0.017600	0.792500	0.632490
H4461	H446	0.027800	0.760600	0.634700
C5751	C575	0.978900	0.854320	0.597470
H4471	H447	0.962100	0.866300	0.575100
C5761	C576	0.989580	0.884900	0.626230
H4481	H448	0.979800	0.916700	0.623000
