data_KOBRAV_clean_PM
_symmetry_space_group_name_H-M	'P1'
_cell_length_a	15.433000
_cell_length_b	28.552000
_cell_length_c	36.861000
_cell_angle_alpha	90.000000
_cell_angle_beta	90.000000
_cell_angle_gamma	90.000000
_symmetry_Int_Tables_number 1

loop_
_symmetry_equiv_pos_as_xyz
'x,y,z'

loop_
_atom_site_label
_atom_site_type_symbol
_atom_site_fract_x
_atom_site_fract_y
_atom_site_fract_z
Cd11	Cd1	0.461360	0.258130	0.552280
O11	O1	0.369900	0.315580	0.520550
O21	O2	0.508770	0.316180	0.509950
C11	C1	0.433140	0.329630	0.502990
C21	C2	0.418390	0.363240	0.472070
C31	C3	0.482000	0.366700	0.449270
H11	H1	0.477100	0.386300	0.429200
H21	H2	0.532600	0.349600	0.453000
N11	N1	0.324960	0.239340	0.577740
C41	C4	0.320550	0.225640	0.612310
H31	H3	0.371900	0.217500	0.623900
C51	C5	0.244990	0.222830	0.631720
H41	H4	0.245900	0.213600	0.655900
C61	C6	0.166710	0.233940	0.614860
C71	C7	0.170800	0.246580	0.578700
H51	H5	0.120300	0.253000	0.565900
C81	C8	0.250490	0.249630	0.561770
H61	H6	0.251900	0.259500	0.537700
N21	N2	0.459160	0.208790	0.501200
N31	N3	0.508440	0.058520	0.350540
C91	C9	0.533980	0.185020	0.447870
H71	H7	0.579900	0.189700	0.431900
C101	C10	0.523530	0.213800	0.477240
H81	H8	0.563100	0.238000	0.480700
C111	C11	0.404020	0.173570	0.495740
H91	H9	0.359100	0.169500	0.512300
C121	C12	0.409780	0.142910	0.466990
H101	H10	0.370000	0.118700	0.464400
C131	C13	0.475860	0.148790	0.441970
C141	C14	0.484860	0.117670	0.409940
C151	C15	0.509800	0.134850	0.376490
H111	H11	0.519000	0.166800	0.373400
C161	C16	0.521070	0.104390	0.347680
H121	H12	0.538200	0.116500	0.325400
C171	C17	0.482480	0.042290	0.382470
H131	H13	0.472500	0.010300	0.384600
C181	C18	0.469430	0.069890	0.412560
H141	H14	0.450600	0.056800	0.434300
Cd21	Cd2	0.461360	0.758130	0.052280
O31	O3	0.369900	0.815580	0.020550
O41	O4	0.508770	0.816180	0.009950
C191	C19	0.433140	0.829630	0.002990
C201	C20	0.418390	0.863240	0.972070
C211	C21	0.482000	0.866700	0.949270
H151	H15	0.477100	0.886300	0.929200
H161	H16	0.532600	0.849600	0.953000
N41	N4	0.324960	0.739340	0.077740
C221	C22	0.320550	0.725640	0.112310
H171	H17	0.371900	0.717500	0.123900
C231	C23	0.244990	0.722830	0.131720
H181	H18	0.245900	0.713600	0.155900
C241	C24	0.166710	0.733940	0.114860
C251	C25	0.170800	0.746580	0.078700
H191	H19	0.120300	0.753000	0.065900
C261	C26	0.250490	0.749630	0.061770
H201	H20	0.251900	0.759500	0.037700
N51	N5	0.459160	0.708790	0.001200
N61	N6	0.508440	0.558520	0.850540
C271	C27	0.533980	0.685020	0.947870
H211	H21	0.579900	0.689700	0.931900
C281	C28	0.523530	0.713800	0.977240
H221	H22	0.563100	0.738000	0.980700
C291	C29	0.404020	0.673570	0.995740
H231	H23	0.359100	0.669500	0.012300
C301	C30	0.409780	0.642910	0.966990
H241	H24	0.370000	0.618700	0.964400
C311	C31	0.475860	0.648790	0.941970
C321	C32	0.484860	0.617670	0.909940
C331	C33	0.509800	0.634850	0.876490
H251	H25	0.519000	0.666800	0.873400
C341	C34	0.521070	0.604390	0.847680
H261	H26	0.538200	0.616500	0.825400
C351	C35	0.482480	0.542290	0.882470
H271	H27	0.472500	0.510300	0.884600
C361	C36	0.469430	0.569890	0.912560
H281	H28	0.450600	0.556800	0.934300
Cd31	Cd3	0.961360	0.258130	0.052280
O51	O5	0.869900	0.315580	0.020550
O61	O6	0.008770	0.316180	0.009950
C371	C37	0.933140	0.329630	0.002990
C381	C38	0.918390	0.363240	0.972070
C391	C39	0.982000	0.366700	0.949270
H291	H29	0.977100	0.386300	0.929200
H301	H30	0.032600	0.349600	0.953000
N71	N7	0.824960	0.239340	0.077740
C401	C40	0.820550	0.225640	0.112310
H311	H31	0.871900	0.217500	0.123900
C411	C41	0.744990	0.222830	0.131720
H321	H32	0.745900	0.213600	0.155900
C421	C42	0.666710	0.233940	0.114860
C431	C43	0.670800	0.246580	0.078700
H331	H33	0.620300	0.253000	0.065900
C441	C44	0.750490	0.249630	0.061770
H341	H34	0.751900	0.259500	0.037700
N81	N8	0.959160	0.208790	0.001200
N91	N9	0.008440	0.058520	0.850540
C451	C45	0.033980	0.185020	0.947870
H351	H35	0.079900	0.189700	0.931900
C461	C46	0.023530	0.213800	0.977240
H361	H36	0.063100	0.238000	0.980700
C471	C47	0.904020	0.173570	0.995740
H371	H37	0.859100	0.169500	0.012300
C481	C48	0.909780	0.142910	0.966990
H381	H38	0.870000	0.118700	0.964400
C491	C49	0.975860	0.148790	0.941970
C501	C50	0.984860	0.117670	0.909940
C511	C51	0.009800	0.134850	0.876490
H391	H39	0.019000	0.166800	0.873400
C521	C52	0.021070	0.104390	0.847680
H401	H40	0.038200	0.116500	0.825400
C531	C53	0.982480	0.042290	0.882470
H411	H41	0.972500	0.010300	0.884600
C541	C54	0.969430	0.069890	0.912560
H421	H42	0.950600	0.056800	0.934300
Cd41	Cd4	0.961360	0.758130	0.552280
O71	O7	0.869900	0.815580	0.520550
O81	O8	0.008770	0.816180	0.509950
C551	C55	0.933140	0.829630	0.502990
C561	C56	0.918390	0.863240	0.472070
C571	C57	0.982000	0.866700	0.449270
H431	H43	0.977100	0.886300	0.429200
H441	H44	0.032600	0.849600	0.453000
N101	N10	0.824960	0.739340	0.577740
C581	C58	0.820550	0.725640	0.612310
H451	H45	0.871900	0.717500	0.623900
C591	C59	0.744990	0.722830	0.631720
H461	H46	0.745900	0.713600	0.655900
C601	C60	0.666710	0.733940	0.614860
C611	C61	0.670800	0.746580	0.578700
H471	H47	0.620300	0.753000	0.565900
C621	C62	0.750490	0.749630	0.561770
H481	H48	0.751900	0.759500	0.537700
N111	N11	0.959160	0.708790	0.501200
N121	N12	0.008440	0.558520	0.350540
C631	C63	0.033980	0.685020	0.447870
H491	H49	0.079900	0.689700	0.431900
C641	C64	0.023530	0.713800	0.477240
H501	H50	0.063100	0.738000	0.480700
C651	C65	0.904020	0.673570	0.495740
H511	H51	0.859100	0.669500	0.512300
C661	C66	0.909780	0.642910	0.466990
H521	H52	0.870000	0.618700	0.464400
C671	C67	0.975860	0.648790	0.441970
C681	C68	0.984860	0.617670	0.409940
C691	C69	0.009800	0.634850	0.376490
H531	H53	0.019000	0.666800	0.373400
C701	C70	0.021070	0.604390	0.347680
H541	H54	0.038200	0.616500	0.325400
C711	C71	0.982480	0.542290	0.382470
H551	H55	0.972500	0.510300	0.384600
C721	C72	0.969430	0.569890	0.412560
H561	H56	0.950600	0.556800	0.434300
Cd51	Cd5	0.288640	0.491870	0.552280
O91	O9	0.380100	0.434420	0.520550
O101	O10	0.241230	0.433820	0.509950
C731	C73	0.316860	0.420370	0.502990
C741	C74	0.331610	0.386760	0.472070
C751	C75	0.268000	0.383300	0.449270
H571	H57	0.272900	0.363700	0.429200
H581	H58	0.217400	0.400400	0.453000
N131	N13	0.425040	0.510660	0.577740
C761	C76	0.429450	0.524360	0.612310
H591	H59	0.378100	0.532500	0.623900
C771	C77	0.505010	0.527170	0.631720
H601	H60	0.504100	0.536400	0.655900
C781	C78	0.583290	0.516060	0.614860
C791	C79	0.579200	0.503420	0.578700
H611	H61	0.629700	0.497000	0.565900
C801	C80	0.499510	0.500370	0.561770
H621	H62	0.498100	0.490500	0.537700
N141	N14	0.290840	0.541210	0.501200
N151	N15	0.241560	0.691480	0.350540
C811	C81	0.216020	0.564980	0.447870
H631	H63	0.170100	0.560300	0.431900
C821	C82	0.226470	0.536200	0.477240
H641	H64	0.186900	0.512000	0.480700
C831	C83	0.345980	0.576430	0.495740
H651	H65	0.390900	0.580500	0.512300
C841	C84	0.340220	0.607090	0.466990
H661	H66	0.380000	0.631300	0.464400
C851	C85	0.274140	0.601210	0.441970
C861	C86	0.265140	0.632330	0.409940
C871	C87	0.240200	0.615150	0.376490
H671	H67	0.231000	0.583200	0.373400
C881	C88	0.228930	0.645610	0.347680
H681	H68	0.211800	0.633500	0.325400
C891	C89	0.267520	0.707710	0.382470
H691	H69	0.277500	0.739700	0.384600
C901	C90	0.280570	0.680110	0.412560
H701	H70	0.299400	0.693200	0.434300
Cd61	Cd6	0.288640	0.991870	0.052280
O111	O11	0.380100	0.934420	0.020550
O121	O12	0.241230	0.933820	0.009950
C911	C91	0.316860	0.920370	0.002990
C921	C92	0.331610	0.886760	0.972070
C931	C93	0.268000	0.883300	0.949270
H711	H71	0.272900	0.863700	0.929200
H721	H72	0.217400	0.900400	0.953000
N161	N16	0.425040	0.010660	0.077740
C941	C94	0.429450	0.024360	0.112310
H731	H73	0.378100	0.032500	0.123900
C951	C95	0.505010	0.027170	0.131720
H741	H74	0.504100	0.036400	0.155900
C961	C96	0.583290	0.016060	0.114860
C971	C97	0.579200	0.003420	0.078700
H751	H75	0.629700	0.997000	0.065900
C981	C98	0.499510	0.000370	0.061770
H761	H76	0.498100	0.990500	0.037700
N171	N17	0.290840	0.041210	0.001200
N181	N18	0.241560	0.191480	0.850540
C991	C99	0.216020	0.064980	0.947870
H771	H77	0.170100	0.060300	0.931900
C1001	C100	0.226470	0.036200	0.977240
H781	H78	0.186900	0.012000	0.980700
C1011	C101	0.345980	0.076430	0.995740
H791	H79	0.390900	0.080500	0.012300
C1021	C102	0.340220	0.107090	0.966990
H801	H80	0.380000	0.131300	0.964400
C1031	C103	0.274140	0.101210	0.941970
C1041	C104	0.265140	0.132330	0.909940
C1051	C105	0.240200	0.115150	0.876490
H811	H81	0.231000	0.083200	0.873400
C1061	C106	0.228930	0.145610	0.847680
H821	H82	0.211800	0.133500	0.825400
C1071	C107	0.267520	0.207710	0.882470
H831	H83	0.277500	0.239700	0.884600
C1081	C108	0.280570	0.180110	0.912560
H841	H84	0.299400	0.193200	0.934300
Cd71	Cd7	0.788640	0.491870	0.052280
O131	O13	0.880100	0.434420	0.020550
O141	O14	0.741230	0.433820	0.009950
C1091	C109	0.816860	0.420370	0.002990
C1101	C110	0.831610	0.386760	0.972070
C1111	C111	0.768000	0.383300	0.949270
H851	H85	0.772900	0.363700	0.929200
H861	H86	0.717400	0.400400	0.953000
N191	N19	0.925040	0.510660	0.077740
C1121	C112	0.929450	0.524360	0.112310
H871	H87	0.878100	0.532500	0.123900
C1131	C113	0.005010	0.527170	0.131720
H881	H88	0.004100	0.536400	0.155900
C1141	C114	0.083290	0.516060	0.114860
C1151	C115	0.079200	0.503420	0.078700
H891	H89	0.129700	0.497000	0.065900
C1161	C116	0.999510	0.500370	0.061770
H901	H90	0.998100	0.490500	0.037700
N201	N20	0.790840	0.541210	0.001200
N211	N21	0.741560	0.691480	0.850540
C1171	C117	0.716020	0.564980	0.947870
H911	H91	0.670100	0.560300	0.931900
C1181	C118	0.726470	0.536200	0.977240
H921	H92	0.686900	0.512000	0.980700
C1191	C119	0.845980	0.576430	0.995740
H931	H93	0.890900	0.580500	0.012300
C1201	C120	0.840220	0.607090	0.966990
H941	H94	0.880000	0.631300	0.964400
C1211	C121	0.774140	0.601210	0.941970
C1221	C122	0.765140	0.632330	0.909940
C1231	C123	0.740200	0.615150	0.876490
H951	H95	0.731000	0.583200	0.873400
C1241	C124	0.728930	0.645610	0.847680
H961	H96	0.711800	0.633500	0.825400
C1251	C125	0.767520	0.707710	0.882470
H971	H97	0.777500	0.739700	0.884600
C1261	C126	0.780570	0.680110	0.912560
H981	H98	0.799400	0.693200	0.934300
Cd81	Cd8	0.788640	0.991870	0.552280
O151	O15	0.880100	0.934420	0.520550
O161	O16	0.741230	0.933820	0.509950
C1271	C127	0.816860	0.920370	0.502990
C1281	C128	0.831610	0.886760	0.472070
C1291	C129	0.768000	0.883300	0.449270
H991	H99	0.772900	0.863700	0.429200
H1001	H100	0.717400	0.900400	0.453000
N221	N22	0.925040	0.010660	0.577740
C1301	C130	0.929450	0.024360	0.612310
H1011	H101	0.878100	0.032500	0.623900
C1311	C131	0.005010	0.027170	0.631720
H1021	H102	0.004100	0.036400	0.655900
C1321	C132	0.083290	0.016060	0.614860
C1331	C133	0.079200	0.003420	0.578700
H1031	H103	0.129700	0.997000	0.565900
C1341	C134	0.999510	0.000370	0.561770
H1041	H104	0.998100	0.990500	0.537700
N231	N23	0.790840	0.041210	0.501200
N241	N24	0.741560	0.191480	0.350540
C1351	C135	0.716020	0.064980	0.447870
H1051	H105	0.670100	0.060300	0.431900
C1361	C136	0.726470	0.036200	0.477240
H1061	H106	0.686900	0.012000	0.480700
C1371	C137	0.845980	0.076430	0.495740
H1071	H107	0.890900	0.080500	0.512300
C1381	C138	0.840220	0.107090	0.466990
H1081	H108	0.880000	0.131300	0.464400
C1391	C139	0.774140	0.101210	0.441970
C1401	C140	0.765140	0.132330	0.409940
C1411	C141	0.740200	0.115150	0.376490
H1091	H109	0.731000	0.083200	0.373400
C1421	C142	0.728930	0.145610	0.347680
H1101	H110	0.711800	0.133500	0.325400
C1431	C143	0.767520	0.207710	0.382470
H1111	H111	0.777500	0.239700	0.384600
C1441	C144	0.780570	0.180110	0.412560
H1121	H112	0.799400	0.193200	0.434300
Cd91	Cd9	0.288640	0.258130	0.197720
O171	O17	0.380100	0.315580	0.229450
O181	O18	0.241230	0.316180	0.240050
C1451	C145	0.316860	0.329630	0.247010
C1461	C146	0.331610	0.363240	0.277930
C1471	C147	0.268000	0.366700	0.300730
H1131	H113	0.272900	0.386300	0.320800
H1141	H114	0.217400	0.349600	0.297000
N251	N25	0.425040	0.239340	0.172260
C1481	C148	0.429450	0.225640	0.137690
H1151	H115	0.378100	0.217500	0.126100
C1491	C149	0.505010	0.222830	0.118280
H1161	H116	0.504100	0.213600	0.094100
C1501	C150	0.583290	0.233940	0.135140
C1511	C151	0.579200	0.246580	0.171300
H1171	H117	0.629700	0.253000	0.184100
C1521	C152	0.499510	0.249630	0.188230
H1181	H118	0.498100	0.259500	0.212300
N261	N26	0.290840	0.208790	0.248800
N271	N27	0.241560	0.058520	0.399460
C1531	C153	0.216020	0.185020	0.302130
H1191	H119	0.170100	0.189700	0.318100
C1541	C154	0.226470	0.213800	0.272760
H1201	H120	0.186900	0.238000	0.269300
C1551	C155	0.345980	0.173570	0.254260
H1211	H121	0.390900	0.169500	0.237700
C1561	C156	0.340220	0.142910	0.283010
H1221	H122	0.380000	0.118700	0.285600
C1571	C157	0.274140	0.148790	0.308030
C1581	C158	0.265140	0.117670	0.340060
C1591	C159	0.240200	0.134850	0.373510
H1231	H123	0.231000	0.166800	0.376600
C1601	C160	0.228930	0.104390	0.402320
H1241	H124	0.211800	0.116500	0.424600
C1611	C161	0.267520	0.042290	0.367530
H1251	H125	0.277500	0.010300	0.365400
C1621	C162	0.280570	0.069890	0.337440
H1261	H126	0.299400	0.056800	0.315700
Cd101	Cd10	0.288640	0.758130	0.697720
O191	O19	0.380100	0.815580	0.729450
O201	O20	0.241230	0.816180	0.740050
C1631	C163	0.316860	0.829630	0.747010
C1641	C164	0.331610	0.863240	0.777930
C1651	C165	0.268000	0.866700	0.800730
H1271	H127	0.272900	0.886300	0.820800
H1281	H128	0.217400	0.849600	0.797000
N281	N28	0.425040	0.739340	0.672260
C1661	C166	0.429450	0.725640	0.637690
H1291	H129	0.378100	0.717500	0.626100
C1671	C167	0.505010	0.722830	0.618280
H1301	H130	0.504100	0.713600	0.594100
C1681	C168	0.583290	0.733940	0.635140
C1691	C169	0.579200	0.746580	0.671300
H1311	H131	0.629700	0.753000	0.684100
C1701	C170	0.499510	0.749630	0.688230
H1321	H132	0.498100	0.759500	0.712300
N291	N29	0.290840	0.708790	0.748800
N301	N30	0.241560	0.558520	0.899460
C1711	C171	0.216020	0.685020	0.802130
H1331	H133	0.170100	0.689700	0.818100
C1721	C172	0.226470	0.713800	0.772760
H1341	H134	0.186900	0.738000	0.769300
C1731	C173	0.345980	0.673570	0.754260
H1351	H135	0.390900	0.669500	0.737700
C1741	C174	0.340220	0.642910	0.783010
H1361	H136	0.380000	0.618700	0.785600
C1751	C175	0.274140	0.648790	0.808030
C1761	C176	0.265140	0.617670	0.840060
C1771	C177	0.240200	0.634850	0.873510
H1371	H137	0.231000	0.666800	0.876600
C1781	C178	0.228930	0.604390	0.902320
H1381	H138	0.211800	0.616500	0.924600
C1791	C179	0.267520	0.542290	0.867530
H1391	H139	0.277500	0.510300	0.865400
C1801	C180	0.280570	0.569890	0.837440
H1401	H140	0.299400	0.556800	0.815700
Cd111	Cd11	0.788640	0.258130	0.697720
O211	O21	0.880100	0.315580	0.729450
O221	O22	0.741230	0.316180	0.740050
C1811	C181	0.816860	0.329630	0.747010
C1821	C182	0.831610	0.363240	0.777930
C1831	C183	0.768000	0.366700	0.800730
H1411	H141	0.772900	0.386300	0.820800
H1421	H142	0.717400	0.349600	0.797000
N311	N31	0.925040	0.239340	0.672260
C1841	C184	0.929450	0.225640	0.637690
H1431	H143	0.878100	0.217500	0.626100
C1851	C185	0.005010	0.222830	0.618280
H1441	H144	0.004100	0.213600	0.594100
C1861	C186	0.083290	0.233940	0.635140
C1871	C187	0.079200	0.246580	0.671300
H1451	H145	0.129700	0.253000	0.684100
C1881	C188	0.999510	0.249630	0.688230
H1461	H146	0.998100	0.259500	0.712300
N321	N32	0.790840	0.208790	0.748800
N331	N33	0.741560	0.058520	0.899460
C1891	C189	0.716020	0.185020	0.802130
H1471	H147	0.670100	0.189700	0.818100
C1901	C190	0.726470	0.213800	0.772760
H1481	H148	0.686900	0.238000	0.769300
C1911	C191	0.845980	0.173570	0.754260
H1491	H149	0.890900	0.169500	0.737700
C1921	C192	0.840220	0.142910	0.783010
H1501	H150	0.880000	0.118700	0.785600
C1931	C193	0.774140	0.148790	0.808030
C1941	C194	0.765140	0.117670	0.840060
C1951	C195	0.740200	0.134850	0.873510
H1511	H151	0.731000	0.166800	0.876600
C1961	C196	0.728930	0.104390	0.902320
H1521	H152	0.711800	0.116500	0.924600
C1971	C197	0.767520	0.042290	0.867530
H1531	H153	0.777500	0.010300	0.865400
C1981	C198	0.780570	0.069890	0.837440
H1541	H154	0.799400	0.056800	0.815700
Cd121	Cd12	0.788640	0.758130	0.197720
O231	O23	0.880100	0.815580	0.229450
O241	O24	0.741230	0.816180	0.240050
C1991	C199	0.816860	0.829630	0.247010
C2001	C200	0.831610	0.863240	0.277930
C2011	C201	0.768000	0.866700	0.300730
H1551	H155	0.772900	0.886300	0.320800
H1561	H156	0.717400	0.849600	0.297000
N341	N34	0.925040	0.739340	0.172260
C2021	C202	0.929450	0.725640	0.137690
H1571	H157	0.878100	0.717500	0.126100
C2031	C203	0.005010	0.722830	0.118280
H1581	H158	0.004100	0.713600	0.094100
C2041	C204	0.083290	0.733940	0.135140
C2051	C205	0.079200	0.746580	0.171300
H1591	H159	0.129700	0.753000	0.184100
C2061	C206	0.999510	0.749630	0.188230
H1601	H160	0.998100	0.759500	0.212300
N351	N35	0.790840	0.708790	0.248800
N361	N36	0.741560	0.558520	0.399460
C2071	C207	0.716020	0.685020	0.302130
H1611	H161	0.670100	0.689700	0.318100
C2081	C208	0.726470	0.713800	0.272760
H1621	H162	0.686900	0.738000	0.269300
C2091	C209	0.845980	0.673570	0.254260
H1631	H163	0.890900	0.669500	0.237700
C2101	C210	0.840220	0.642910	0.283010
H1641	H164	0.880000	0.618700	0.285600
C2111	C211	0.774140	0.648790	0.308030
C2121	C212	0.765140	0.617670	0.340060
C2131	C213	0.740200	0.634850	0.373510
H1651	H165	0.731000	0.666800	0.376600
C2141	C214	0.728930	0.604390	0.402320
H1661	H166	0.711800	0.616500	0.424600
C2151	C215	0.767520	0.542290	0.367530
H1671	H167	0.777500	0.510300	0.365400
C2161	C216	0.780570	0.569890	0.337440
H1681	H168	0.799400	0.556800	0.315700
Cd131	Cd13	0.461360	0.491870	0.197720
O251	O25	0.369900	0.434420	0.229450
O261	O26	0.508770	0.433820	0.240050
C2171	C217	0.433140	0.420370	0.247010
C2181	C218	0.418390	0.386760	0.277930
C2191	C219	0.482000	0.383300	0.300730
H1691	H169	0.477100	0.363700	0.320800
H1701	H170	0.532600	0.400400	0.297000
N371	N37	0.324960	0.510660	0.172260
C2201	C220	0.320550	0.524360	0.137690
H1711	H171	0.371900	0.532500	0.126100
C2211	C221	0.244990	0.527170	0.118280
H1721	H172	0.245900	0.536400	0.094100
C2221	C222	0.166710	0.516060	0.135140
C2231	C223	0.170800	0.503420	0.171300
H1731	H173	0.120300	0.497000	0.184100
C2241	C224	0.250490	0.500370	0.188230
H1741	H174	0.251900	0.490500	0.212300
N381	N38	0.459160	0.541210	0.248800
N391	N39	0.508440	0.691480	0.399460
C2251	C225	0.533980	0.564980	0.302130
H1751	H175	0.579900	0.560300	0.318100
C2261	C226	0.523530	0.536200	0.272760
H1761	H176	0.563100	0.512000	0.269300
C2271	C227	0.404020	0.576430	0.254260
H1771	H177	0.359100	0.580500	0.237700
C2281	C228	0.409780	0.607090	0.283010
H1781	H178	0.370000	0.631300	0.285600
C2291	C229	0.475860	0.601210	0.308030
C2301	C230	0.484860	0.632330	0.340060
C2311	C231	0.509800	0.615150	0.373510
H1791	H179	0.519000	0.583200	0.376600
C2321	C232	0.521070	0.645610	0.402320
H1801	H180	0.538200	0.633500	0.424600
C2331	C233	0.482480	0.707710	0.367530
H1811	H181	0.472500	0.739700	0.365400
C2341	C234	0.469430	0.680110	0.337440
H1821	H182	0.450600	0.693200	0.315700
Cd141	Cd14	0.461360	0.991870	0.697720
O271	O27	0.369900	0.934420	0.729450
O281	O28	0.508770	0.933820	0.740050
C2351	C235	0.433140	0.920370	0.747010
C2361	C236	0.418390	0.886760	0.777930
C2371	C237	0.482000	0.883300	0.800730
H1831	H183	0.477100	0.863700	0.820800
H1841	H184	0.532600	0.900400	0.797000
N401	N40	0.324960	0.010660	0.672260
C2381	C238	0.320550	0.024360	0.637690
H1851	H185	0.371900	0.032500	0.626100
C2391	C239	0.244990	0.027170	0.618280
H1861	H186	0.245900	0.036400	0.594100
C2401	C240	0.166710	0.016060	0.635140
C2411	C241	0.170800	0.003420	0.671300
H1871	H187	0.120300	0.997000	0.684100
C2421	C242	0.250490	0.000370	0.688230
H1881	H188	0.251900	0.990500	0.712300
N411	N41	0.459160	0.041210	0.748800
N421	N42	0.508440	0.191480	0.899460
C2431	C243	0.533980	0.064980	0.802130
H1891	H189	0.579900	0.060300	0.818100
C2441	C244	0.523530	0.036200	0.772760
H1901	H190	0.563100	0.012000	0.769300
C2451	C245	0.404020	0.076430	0.754260
H1911	H191	0.359100	0.080500	0.737700
C2461	C246	0.409780	0.107090	0.783010
H1921	H192	0.370000	0.131300	0.785600
C2471	C247	0.475860	0.101210	0.808030
C2481	C248	0.484860	0.132330	0.840060
C2491	C249	0.509800	0.115150	0.873510
H1931	H193	0.519000	0.083200	0.876600
C2501	C250	0.521070	0.145610	0.902320
H1941	H194	0.538200	0.133500	0.924600
C2511	C251	0.482480	0.207710	0.867530
H1951	H195	0.472500	0.239700	0.865400
C2521	C252	0.469430	0.180110	0.837440
H1961	H196	0.450600	0.193200	0.815700
Cd151	Cd15	0.961360	0.491870	0.697720
O291	O29	0.869900	0.434420	0.729450
O301	O30	0.008770	0.433820	0.740050
C2531	C253	0.933140	0.420370	0.747010
C2541	C254	0.918390	0.386760	0.777930
C2551	C255	0.982000	0.383300	0.800730
H1971	H197	0.977100	0.363700	0.820800
H1981	H198	0.032600	0.400400	0.797000
N431	N43	0.824960	0.510660	0.672260
C2561	C256	0.820550	0.524360	0.637690
H1991	H199	0.871900	0.532500	0.626100
C2571	C257	0.744990	0.527170	0.618280
H2001	H200	0.745900	0.536400	0.594100
C2581	C258	0.666710	0.516060	0.635140
C2591	C259	0.670800	0.503420	0.671300
H2011	H201	0.620300	0.497000	0.684100
C2601	C260	0.750490	0.500370	0.688230
H2021	H202	0.751900	0.490500	0.712300
N441	N44	0.959160	0.541210	0.748800
N451	N45	0.008440	0.691480	0.899460
C2611	C261	0.033980	0.564980	0.802130
H2031	H203	0.079900	0.560300	0.818100
C2621	C262	0.023530	0.536200	0.772760
H2041	H204	0.063100	0.512000	0.769300
C2631	C263	0.904020	0.576430	0.754260
H2051	H205	0.859100	0.580500	0.737700
C2641	C264	0.909780	0.607090	0.783010
H2061	H206	0.870000	0.631300	0.785600
C2651	C265	0.975860	0.601210	0.808030
C2661	C266	0.984860	0.632330	0.840060
C2671	C267	0.009800	0.615150	0.873510
H2071	H207	0.019000	0.583200	0.876600
C2681	C268	0.021070	0.645610	0.902320
H2081	H208	0.038200	0.633500	0.924600
C2691	C269	0.982480	0.707710	0.867530
H2091	H209	0.972500	0.739700	0.865400
C2701	C270	0.969430	0.680110	0.837440
H2101	H210	0.950600	0.693200	0.815700
Cd161	Cd16	0.961360	0.991870	0.197720
O311	O31	0.869900	0.934420	0.229450
O321	O32	0.008770	0.933820	0.240050
C2711	C271	0.933140	0.920370	0.247010
C2721	C272	0.918390	0.886760	0.277930
C2731	C273	0.982000	0.883300	0.300730
H2111	H211	0.977100	0.863700	0.320800
H2121	H212	0.032600	0.900400	0.297000
N461	N46	0.824960	0.010660	0.172260
C2741	C274	0.820550	0.024360	0.137690
H2131	H213	0.871900	0.032500	0.126100
C2751	C275	0.744990	0.027170	0.118280
H2141	H214	0.745900	0.036400	0.094100
C2761	C276	0.666710	0.016060	0.135140
C2771	C277	0.670800	0.003420	0.171300
H2151	H215	0.620300	0.997000	0.184100
C2781	C278	0.750490	0.000370	0.188230
H2161	H216	0.751900	0.990500	0.212300
N471	N47	0.959160	0.041210	0.248800
N481	N48	0.008440	0.191480	0.399460
C2791	C279	0.033980	0.064980	0.302130
H2171	H217	0.079900	0.060300	0.318100
C2801	C280	0.023530	0.036200	0.272760
H2181	H218	0.063100	0.012000	0.269300
C2811	C281	0.904020	0.076430	0.254260
H2191	H219	0.859100	0.080500	0.237700
C2821	C282	0.909780	0.107090	0.283010
H2201	H220	0.870000	0.131300	0.285600
C2831	C283	0.975860	0.101210	0.308030
C2841	C284	0.984860	0.132330	0.340060
C2851	C285	0.009800	0.115150	0.373510
H2211	H221	0.019000	0.083200	0.376600
C2861	C286	0.021070	0.145610	0.402320
H2221	H222	0.038200	0.133500	0.424600
C2871	C287	0.982480	0.207710	0.367530
H2231	H223	0.972500	0.239700	0.365400
C2881	C288	0.969430	0.180110	0.337440
H2241	H224	0.950600	0.193200	0.315700
Cd171	Cd17	0.538640	0.741870	0.447720
O331	O33	0.630100	0.684420	0.479450
O341	O34	0.491230	0.683820	0.490050
C2891	C289	0.566860	0.670370	0.497010
C2901	C290	0.581610	0.636760	0.527930
C2911	C291	0.518000	0.633300	0.550730
H2251	H225	0.522900	0.613700	0.570800
H2261	H226	0.467400	0.650400	0.547000
N491	N49	0.675040	0.760660	0.422260
C2921	C292	0.679450	0.774360	0.387690
H2271	H227	0.628100	0.782500	0.376100
C2931	C293	0.755010	0.777170	0.368280
H2281	H228	0.754100	0.786400	0.344100
C2941	C294	0.833290	0.766060	0.385140
C2951	C295	0.829200	0.753420	0.421300
H2291	H229	0.879700	0.747000	0.434100
C2961	C296	0.749510	0.750370	0.438230
H2301	H230	0.748100	0.740500	0.462300
N501	N50	0.540840	0.791210	0.498800
N511	N51	0.491560	0.941480	0.649460
C2971	C297	0.466020	0.814980	0.552130
H2311	H231	0.420100	0.810300	0.568100
C2981	C298	0.476470	0.786200	0.522760
H2321	H232	0.436900	0.762000	0.519300
C2991	C299	0.595980	0.826430	0.504260
H2331	H233	0.640900	0.830500	0.487700
C3001	C300	0.590220	0.857090	0.533010
H2341	H234	0.630000	0.881300	0.535600
C3011	C301	0.524140	0.851210	0.558030
C3021	C302	0.515140	0.882330	0.590060
C3031	C303	0.490200	0.865150	0.623510
H2351	H235	0.481000	0.833200	0.626600
C3041	C304	0.478930	0.895610	0.652320
H2361	H236	0.461800	0.883500	0.674600
C3051	C305	0.517520	0.957710	0.617530
H2371	H237	0.527500	0.989700	0.615400
C3061	C306	0.530570	0.930110	0.587440
H2381	H238	0.549400	0.943200	0.565700
Cd181	Cd18	0.538640	0.241870	0.947720
O351	O35	0.630100	0.184420	0.979450
O361	O36	0.491230	0.183820	0.990050
C3071	C307	0.566860	0.170370	0.997010
C3081	C308	0.581610	0.136760	0.027930
C3091	C309	0.518000	0.133300	0.050730
H2391	H239	0.522900	0.113700	0.070800
H2401	H240	0.467400	0.150400	0.047000
N521	N52	0.675040	0.260660	0.922260
C3101	C310	0.679450	0.274360	0.887690
H2411	H241	0.628100	0.282500	0.876100
C3111	C311	0.755010	0.277170	0.868280
H2421	H242	0.754100	0.286400	0.844100
C3121	C312	0.833290	0.266060	0.885140
C3131	C313	0.829200	0.253420	0.921300
H2431	H243	0.879700	0.247000	0.934100
C3141	C314	0.749510	0.250370	0.938230
H2441	H244	0.748100	0.240500	0.962300
N531	N53	0.540840	0.291210	0.998800
N541	N54	0.491560	0.441480	0.149460
C3151	C315	0.466020	0.314980	0.052130
H2451	H245	0.420100	0.310300	0.068100
C3161	C316	0.476470	0.286200	0.022760
H2461	H246	0.436900	0.262000	0.019300
C3171	C317	0.595980	0.326430	0.004260
H2471	H247	0.640900	0.330500	0.987700
C3181	C318	0.590220	0.357090	0.033010
H2481	H248	0.630000	0.381300	0.035600
C3191	C319	0.524140	0.351210	0.058030
C3201	C320	0.515140	0.382330	0.090060
C3211	C321	0.490200	0.365150	0.123510
H2491	H249	0.481000	0.333200	0.126600
C3221	C322	0.478930	0.395610	0.152320
H2501	H250	0.461800	0.383500	0.174600
C3231	C323	0.517520	0.457710	0.117530
H2511	H251	0.527500	0.489700	0.115400
C3241	C324	0.530570	0.430110	0.087440
H2521	H252	0.549400	0.443200	0.065700
Cd191	Cd19	0.038640	0.741870	0.947720
O371	O37	0.130100	0.684420	0.979450
O381	O38	0.991230	0.683820	0.990050
C3251	C325	0.066860	0.670370	0.997010
C3261	C326	0.081610	0.636760	0.027930
C3271	C327	0.018000	0.633300	0.050730
H2531	H253	0.022900	0.613700	0.070800
H2541	H254	0.967400	0.650400	0.047000
N551	N55	0.175040	0.760660	0.922260
C3281	C328	0.179450	0.774360	0.887690
H2551	H255	0.128100	0.782500	0.876100
C3291	C329	0.255010	0.777170	0.868280
H2561	H256	0.254100	0.786400	0.844100
C3301	C330	0.333290	0.766060	0.885140
C3311	C331	0.329200	0.753420	0.921300
H2571	H257	0.379700	0.747000	0.934100
C3321	C332	0.249510	0.750370	0.938230
H2581	H258	0.248100	0.740500	0.962300
N561	N56	0.040840	0.791210	0.998800
N571	N57	0.991560	0.941480	0.149460
C3331	C333	0.966020	0.814980	0.052130
H2591	H259	0.920100	0.810300	0.068100
C3341	C334	0.976470	0.786200	0.022760
H2601	H260	0.936900	0.762000	0.019300
C3351	C335	0.095980	0.826430	0.004260
H2611	H261	0.140900	0.830500	0.987700
C3361	C336	0.090220	0.857090	0.033010
H2621	H262	0.130000	0.881300	0.035600
C3371	C337	0.024140	0.851210	0.058030
C3381	C338	0.015140	0.882330	0.090060
C3391	C339	0.990200	0.865150	0.123510
H2631	H263	0.981000	0.833200	0.126600
C3401	C340	0.978930	0.895610	0.152320
H2641	H264	0.961800	0.883500	0.174600
C3411	C341	0.017520	0.957710	0.117530
H2651	H265	0.027500	0.989700	0.115400
C3421	C342	0.030570	0.930110	0.087440
H2661	H266	0.049400	0.943200	0.065700
Cd201	Cd20	0.038640	0.241870	0.447720
O391	O39	0.130100	0.184420	0.479450
O401	O40	0.991230	0.183820	0.490050
C3431	C343	0.066860	0.170370	0.497010
C3441	C344	0.081610	0.136760	0.527930
C3451	C345	0.018000	0.133300	0.550730
H2671	H267	0.022900	0.113700	0.570800
H2681	H268	0.967400	0.150400	0.547000
N581	N58	0.175040	0.260660	0.422260
C3461	C346	0.179450	0.274360	0.387690
H2691	H269	0.128100	0.282500	0.376100
C3471	C347	0.255010	0.277170	0.368280
H2701	H270	0.254100	0.286400	0.344100
C3481	C348	0.333290	0.266060	0.385140
C3491	C349	0.329200	0.253420	0.421300
H2711	H271	0.379700	0.247000	0.434100
C3501	C350	0.249510	0.250370	0.438230
H2721	H272	0.248100	0.240500	0.462300
N591	N59	0.040840	0.291210	0.498800
N601	N60	0.991560	0.441480	0.649460
C3511	C351	0.966020	0.314980	0.552130
H2731	H273	0.920100	0.310300	0.568100
C3521	C352	0.976470	0.286200	0.522760
H2741	H274	0.936900	0.262000	0.519300
C3531	C353	0.095980	0.326430	0.504260
H2751	H275	0.140900	0.330500	0.487700
C3541	C354	0.090220	0.357090	0.533010
H2761	H276	0.130000	0.381300	0.535600
C3551	C355	0.024140	0.351210	0.558030
C3561	C356	0.015140	0.382330	0.590060
C3571	C357	0.990200	0.365150	0.623510
H2771	H277	0.981000	0.333200	0.626600
C3581	C358	0.978930	0.395610	0.652320
H2781	H278	0.961800	0.383500	0.674600
C3591	C359	0.017520	0.457710	0.617530
H2791	H279	0.027500	0.489700	0.615400
C3601	C360	0.030570	0.430110	0.587440
H2801	H280	0.049400	0.443200	0.565700
Cd211	Cd21	0.711360	0.508130	0.447720
O411	O41	0.619900	0.565580	0.479450
O421	O42	0.758770	0.566180	0.490050
C3611	C361	0.683140	0.579630	0.497010
C3621	C362	0.668390	0.613240	0.527930
C3631	C363	0.732000	0.616700	0.550730
H2811	H281	0.727100	0.636300	0.570800
H2821	H282	0.782600	0.599600	0.547000
N611	N61	0.574960	0.489340	0.422260
C3641	C364	0.570550	0.475640	0.387690
H2831	H283	0.621900	0.467500	0.376100
C3651	C365	0.494990	0.472830	0.368280
H2841	H284	0.495900	0.463600	0.344100
C3661	C366	0.416710	0.483940	0.385140
C3671	C367	0.420800	0.496580	0.421300
H2851	H285	0.370300	0.503000	0.434100
C3681	C368	0.500490	0.499630	0.438230
H2861	H286	0.501900	0.509500	0.462300
N621	N62	0.709160	0.458790	0.498800
N631	N63	0.758440	0.308520	0.649460
C3691	C369	0.783980	0.435020	0.552130
H2871	H287	0.829900	0.439700	0.568100
C3701	C370	0.773530	0.463800	0.522760
H2881	H288	0.813100	0.488000	0.519300
C3711	C371	0.654020	0.423570	0.504260
H2891	H289	0.609100	0.419500	0.487700
C3721	C372	0.659780	0.392910	0.533010
H2901	H290	0.620000	0.368700	0.535600
C3731	C373	0.725860	0.398790	0.558030
C3741	C374	0.734860	0.367670	0.590060
C3751	C375	0.759800	0.384850	0.623510
H2911	H291	0.769000	0.416800	0.626600
C3761	C376	0.771070	0.354390	0.652320
H2921	H292	0.788200	0.366500	0.674600
C3771	C377	0.732480	0.292290	0.617530
H2931	H293	0.722500	0.260300	0.615400
C3781	C378	0.719430	0.319890	0.587440
H2941	H294	0.700600	0.306800	0.565700
Cd221	Cd22	0.711360	0.008130	0.947720
O431	O43	0.619900	0.065580	0.979450
O441	O44	0.758770	0.066180	0.990050
C3791	C379	0.683140	0.079630	0.997010
C3801	C380	0.668390	0.113240	0.027930
C3811	C381	0.732000	0.116700	0.050730
H2951	H295	0.727100	0.136300	0.070800
H2961	H296	0.782600	0.099600	0.047000
N641	N64	0.574960	0.989340	0.922260
C3821	C382	0.570550	0.975640	0.887690
H2971	H297	0.621900	0.967500	0.876100
C3831	C383	0.494990	0.972830	0.868280
H2981	H298	0.495900	0.963600	0.844100
C3841	C384	0.416710	0.983940	0.885140
C3851	C385	0.420800	0.996580	0.921300
H2991	H299	0.370300	0.003000	0.934100
C3861	C386	0.500490	0.999630	0.938230
H3001	H300	0.501900	0.009500	0.962300
N651	N65	0.709160	0.958790	0.998800
N661	N66	0.758440	0.808520	0.149460
C3871	C387	0.783980	0.935020	0.052130
H3011	H301	0.829900	0.939700	0.068100
C3881	C388	0.773530	0.963800	0.022760
H3021	H302	0.813100	0.988000	0.019300
C3891	C389	0.654020	0.923570	0.004260
H3031	H303	0.609100	0.919500	0.987700
C3901	C390	0.659780	0.892910	0.033010
H3041	H304	0.620000	0.868700	0.035600
C3911	C391	0.725860	0.898790	0.058030
C3921	C392	0.734860	0.867670	0.090060
C3931	C393	0.759800	0.884850	0.123510
H3051	H305	0.769000	0.916800	0.126600
C3941	C394	0.771070	0.854390	0.152320
H3061	H306	0.788200	0.866500	0.174600
C3951	C395	0.732480	0.792290	0.117530
H3071	H307	0.722500	0.760300	0.115400
C3961	C396	0.719430	0.819890	0.087440
H3081	H308	0.700600	0.806800	0.065700
Cd231	Cd23	0.211360	0.508130	0.947720
O451	O45	0.119900	0.565580	0.979450
O461	O46	0.258770	0.566180	0.990050
C3971	C397	0.183140	0.579630	0.997010
C3981	C398	0.168390	0.613240	0.027930
C3991	C399	0.232000	0.616700	0.050730
H3091	H309	0.227100	0.636300	0.070800
H3101	H310	0.282600	0.599600	0.047000
N671	N67	0.074960	0.489340	0.922260
C4001	C400	0.070550	0.475640	0.887690
H3111	H311	0.121900	0.467500	0.876100
C4011	C401	0.994990	0.472830	0.868280
H3121	H312	0.995900	0.463600	0.844100
C4021	C402	0.916710	0.483940	0.885140
C4031	C403	0.920800	0.496580	0.921300
H3131	H313	0.870300	0.503000	0.934100
C4041	C404	0.000490	0.499630	0.938230
H3141	H314	0.001900	0.509500	0.962300
N681	N68	0.209160	0.458790	0.998800
N691	N69	0.258440	0.308520	0.149460
C4051	C405	0.283980	0.435020	0.052130
H3151	H315	0.329900	0.439700	0.068100
C4061	C406	0.273530	0.463800	0.022760
H3161	H316	0.313100	0.488000	0.019300
C4071	C407	0.154020	0.423570	0.004260
H3171	H317	0.109100	0.419500	0.987700
C4081	C408	0.159780	0.392910	0.033010
H3181	H318	0.120000	0.368700	0.035600
C4091	C409	0.225860	0.398790	0.058030
C4101	C410	0.234860	0.367670	0.090060
C4111	C411	0.259800	0.384850	0.123510
H3191	H319	0.269000	0.416800	0.126600
C4121	C412	0.271070	0.354390	0.152320
H3201	H320	0.288200	0.366500	0.174600
C4131	C413	0.232480	0.292290	0.117530
H3211	H321	0.222500	0.260300	0.115400
C4141	C414	0.219430	0.319890	0.087440
H3221	H322	0.200600	0.306800	0.065700
Cd241	Cd24	0.211360	0.008130	0.447720
O471	O47	0.119900	0.065580	0.479450
O481	O48	0.258770	0.066180	0.490050
C4151	C415	0.183140	0.079630	0.497010
C4161	C416	0.168390	0.113240	0.527930
C4171	C417	0.232000	0.116700	0.550730
H3231	H323	0.227100	0.136300	0.570800
H3241	H324	0.282600	0.099600	0.547000
N701	N70	0.074960	0.989340	0.422260
C4181	C418	0.070550	0.975640	0.387690
H3251	H325	0.121900	0.967500	0.376100
C4191	C419	0.994990	0.972830	0.368280
H3261	H326	0.995900	0.963600	0.344100
C4201	C420	0.916710	0.983940	0.385140
C4211	C421	0.920800	0.996580	0.421300
H3271	H327	0.870300	0.003000	0.434100
C4221	C422	0.000490	0.999630	0.438230
H3281	H328	0.001900	0.009500	0.462300
N711	N71	0.209160	0.958790	0.498800
N721	N72	0.258440	0.808520	0.649460
C4231	C423	0.283980	0.935020	0.552130
H3291	H329	0.329900	0.939700	0.568100
C4241	C424	0.273530	0.963800	0.522760
H3301	H330	0.313100	0.988000	0.519300
C4251	C425	0.154020	0.923570	0.504260
H3311	H331	0.109100	0.919500	0.487700
C4261	C426	0.159780	0.892910	0.533010
H3321	H332	0.120000	0.868700	0.535600
C4271	C427	0.225860	0.898790	0.558030
C4281	C428	0.234860	0.867670	0.590060
C4291	C429	0.259800	0.884850	0.623510
H3331	H333	0.269000	0.916800	0.626600
C4301	C430	0.271070	0.854390	0.652320
H3341	H334	0.288200	0.866500	0.674600
C4311	C431	0.232480	0.792290	0.617530
H3351	H335	0.222500	0.760300	0.615400
C4321	C432	0.219430	0.819890	0.587440
H3361	H336	0.200600	0.806800	0.565700
Cd251	Cd25	0.711360	0.741870	0.802280
O491	O49	0.619900	0.684420	0.770550
O501	O50	0.758770	0.683820	0.759950
C4331	C433	0.683140	0.670370	0.752990
C4341	C434	0.668390	0.636760	0.722070
C4351	C435	0.732000	0.633300	0.699270
H3371	H337	0.727100	0.613700	0.679200
H3381	H338	0.782600	0.650400	0.703000
N731	N73	0.574960	0.760660	0.827740
C4361	C436	0.570550	0.774360	0.862310
H3391	H339	0.621900	0.782500	0.873900
C4371	C437	0.494990	0.777170	0.881720
H3401	H340	0.495900	0.786400	0.905900
C4381	C438	0.416710	0.766060	0.864860
C4391	C439	0.420800	0.753420	0.828700
H3411	H341	0.370300	0.747000	0.815900
C4401	C440	0.500490	0.750370	0.811770
H3421	H342	0.501900	0.740500	0.787700
N741	N74	0.709160	0.791210	0.751200
N751	N75	0.758440	0.941480	0.600540
C4411	C441	0.783980	0.814980	0.697870
H3431	H343	0.829900	0.810300	0.681900
C4421	C442	0.773530	0.786200	0.727240
H3441	H344	0.813100	0.762000	0.730700
C4431	C443	0.654020	0.826430	0.745740
H3451	H345	0.609100	0.830500	0.762300
C4441	C444	0.659780	0.857090	0.716990
H3461	H346	0.620000	0.881300	0.714400
C4451	C445	0.725860	0.851210	0.691970
C4461	C446	0.734860	0.882330	0.659940
C4471	C447	0.759800	0.865150	0.626490
H3471	H347	0.769000	0.833200	0.623400
C4481	C448	0.771070	0.895610	0.597680
H3481	H348	0.788200	0.883500	0.575400
C4491	C449	0.732480	0.957710	0.632470
H3491	H349	0.722500	0.989700	0.634600
C4501	C450	0.719430	0.930110	0.662560
H3501	H350	0.700600	0.943200	0.684300
Cd261	Cd26	0.711360	0.241870	0.302280
O511	O51	0.619900	0.184420	0.270550
O521	O52	0.758770	0.183820	0.259950
C4511	C451	0.683140	0.170370	0.252990
C4521	C452	0.668390	0.136760	0.222070
C4531	C453	0.732000	0.133300	0.199270
H3511	H351	0.727100	0.113700	0.179200
H3521	H352	0.782600	0.150400	0.203000
N761	N76	0.574960	0.260660	0.327740
C4541	C454	0.570550	0.274360	0.362310
H3531	H353	0.621900	0.282500	0.373900
C4551	C455	0.494990	0.277170	0.381720
H3541	H354	0.495900	0.286400	0.405900
C4561	C456	0.416710	0.266060	0.364860
C4571	C457	0.420800	0.253420	0.328700
H3551	H355	0.370300	0.247000	0.315900
C4581	C458	0.500490	0.250370	0.311770
H3561	H356	0.501900	0.240500	0.287700
N771	N77	0.709160	0.291210	0.251200
N781	N78	0.758440	0.441480	0.100540
C4591	C459	0.783980	0.314980	0.197870
H3571	H357	0.829900	0.310300	0.181900
C4601	C460	0.773530	0.286200	0.227240
H3581	H358	0.813100	0.262000	0.230700
C4611	C461	0.654020	0.326430	0.245740
H3591	H359	0.609100	0.330500	0.262300
C4621	C462	0.659780	0.357090	0.216990
H3601	H360	0.620000	0.381300	0.214400
C4631	C463	0.725860	0.351210	0.191970
C4641	C464	0.734860	0.382330	0.159940
C4651	C465	0.759800	0.365150	0.126490
H3611	H361	0.769000	0.333200	0.123400
C4661	C466	0.771070	0.395610	0.097680
H3621	H362	0.788200	0.383500	0.075400
C4671	C467	0.732480	0.457710	0.132470
H3631	H363	0.722500	0.489700	0.134600
C4681	C468	0.719430	0.430110	0.162560
H3641	H364	0.700600	0.443200	0.184300
Cd271	Cd27	0.211360	0.741870	0.302280
O531	O53	0.119900	0.684420	0.270550
O541	O54	0.258770	0.683820	0.259950
C4691	C469	0.183140	0.670370	0.252990
C4701	C470	0.168390	0.636760	0.222070
C4711	C471	0.232000	0.633300	0.199270
H3651	H365	0.227100	0.613700	0.179200
H3661	H366	0.282600	0.650400	0.203000
N791	N79	0.074960	0.760660	0.327740
C4721	C472	0.070550	0.774360	0.362310
H3671	H367	0.121900	0.782500	0.373900
C4731	C473	0.994990	0.777170	0.381720
H3681	H368	0.995900	0.786400	0.405900
C4741	C474	0.916710	0.766060	0.364860
C4751	C475	0.920800	0.753420	0.328700
H3691	H369	0.870300	0.747000	0.315900
C4761	C476	0.000490	0.750370	0.311770
H3701	H370	0.001900	0.740500	0.287700
N801	N80	0.209160	0.791210	0.251200
N811	N81	0.258440	0.941480	0.100540
C4771	C477	0.283980	0.814980	0.197870
H3711	H371	0.329900	0.810300	0.181900
C4781	C478	0.273530	0.786200	0.227240
H3721	H372	0.313100	0.762000	0.230700
C4791	C479	0.154020	0.826430	0.245740
H3731	H373	0.109100	0.830500	0.262300
C4801	C480	0.159780	0.857090	0.216990
H3741	H374	0.120000	0.881300	0.214400
C4811	C481	0.225860	0.851210	0.191970
C4821	C482	0.234860	0.882330	0.159940
C4831	C483	0.259800	0.865150	0.126490
H3751	H375	0.269000	0.833200	0.123400
C4841	C484	0.271070	0.895610	0.097680
H3761	H376	0.288200	0.883500	0.075400
C4851	C485	0.232480	0.957710	0.132470
H3771	H377	0.222500	0.989700	0.134600
C4861	C486	0.219430	0.930110	0.162560
H3781	H378	0.200600	0.943200	0.184300
Cd281	Cd28	0.211360	0.241870	0.802280
O551	O55	0.119900	0.184420	0.770550
O561	O56	0.258770	0.183820	0.759950
C4871	C487	0.183140	0.170370	0.752990
C4881	C488	0.168390	0.136760	0.722070
C4891	C489	0.232000	0.133300	0.699270
H3791	H379	0.227100	0.113700	0.679200
H3801	H380	0.282600	0.150400	0.703000
N821	N82	0.074960	0.260660	0.827740
C4901	C490	0.070550	0.274360	0.862310
H3811	H381	0.121900	0.282500	0.873900
C4911	C491	0.994990	0.277170	0.881720
H3821	H382	0.995900	0.286400	0.905900
C4921	C492	0.916710	0.266060	0.864860
C4931	C493	0.920800	0.253420	0.828700
H3831	H383	0.870300	0.247000	0.815900
C4941	C494	0.000490	0.250370	0.811770
H3841	H384	0.001900	0.240500	0.787700
N831	N83	0.209160	0.291210	0.751200
N841	N84	0.258440	0.441480	0.600540
C4951	C495	0.283980	0.314980	0.697870
H3851	H385	0.329900	0.310300	0.681900
C4961	C496	0.273530	0.286200	0.727240
H3861	H386	0.313100	0.262000	0.730700
C4971	C497	0.154020	0.326430	0.745740
H3871	H387	0.109100	0.330500	0.762300
C4981	C498	0.159780	0.357090	0.716990
H3881	H388	0.120000	0.381300	0.714400
C4991	C499	0.225860	0.351210	0.691970
C5001	C500	0.234860	0.382330	0.659940
C5011	C501	0.259800	0.365150	0.626490
H3891	H389	0.269000	0.333200	0.623400
C5021	C502	0.271070	0.395610	0.597680
H3901	H390	0.288200	0.383500	0.575400
C5031	C503	0.232480	0.457710	0.632470
H3911	H391	0.222500	0.489700	0.634600
C5041	C504	0.219430	0.430110	0.662560
H3921	H392	0.200600	0.443200	0.684300
Cd291	Cd29	0.538640	0.508130	0.802280
O571	O57	0.630100	0.565580	0.770550
O581	O58	0.491230	0.566180	0.759950
C5051	C505	0.566860	0.579630	0.752990
C5061	C506	0.581610	0.613240	0.722070
C5071	C507	0.518000	0.616700	0.699270
H3931	H393	0.522900	0.636300	0.679200
H3941	H394	0.467400	0.599600	0.703000
N851	N85	0.675040	0.489340	0.827740
C5081	C508	0.679450	0.475640	0.862310
H3951	H395	0.628100	0.467500	0.873900
C5091	C509	0.755010	0.472830	0.881720
H3961	H396	0.754100	0.463600	0.905900
C5101	C510	0.833290	0.483940	0.864860
C5111	C511	0.829200	0.496580	0.828700
H3971	H397	0.879700	0.503000	0.815900
C5121	C512	0.749510	0.499630	0.811770
H3981	H398	0.748100	0.509500	0.787700
N861	N86	0.540840	0.458790	0.751200
N871	N87	0.491560	0.308520	0.600540
C5131	C513	0.466020	0.435020	0.697870
H3991	H399	0.420100	0.439700	0.681900
C5141	C514	0.476470	0.463800	0.727240
H4001	H400	0.436900	0.488000	0.730700
C5151	C515	0.595980	0.423570	0.745740
H4011	H401	0.640900	0.419500	0.762300
C5161	C516	0.590220	0.392910	0.716990
H4021	H402	0.630000	0.368700	0.714400
C5171	C517	0.524140	0.398790	0.691970
C5181	C518	0.515140	0.367670	0.659940
C5191	C519	0.490200	0.384850	0.626490
H4031	H403	0.481000	0.416800	0.623400
C5201	C520	0.478930	0.354390	0.597680
H4041	H404	0.461800	0.366500	0.575400
C5211	C521	0.517520	0.292290	0.632470
H4051	H405	0.527500	0.260300	0.634600
C5221	C522	0.530570	0.319890	0.662560
H4061	H406	0.549400	0.306800	0.684300
Cd301	Cd30	0.538640	0.008130	0.302280
O591	O59	0.630100	0.065580	0.270550
O601	O60	0.491230	0.066180	0.259950
C5231	C523	0.566860	0.079630	0.252990
C5241	C524	0.581610	0.113240	0.222070
C5251	C525	0.518000	0.116700	0.199270
H4071	H407	0.522900	0.136300	0.179200
H4081	H408	0.467400	0.099600	0.203000
N881	N88	0.675040	0.989340	0.327740
C5261	C526	0.679450	0.975640	0.362310
H4091	H409	0.628100	0.967500	0.373900
C5271	C527	0.755010	0.972830	0.381720
H4101	H410	0.754100	0.963600	0.405900
C5281	C528	0.833290	0.983940	0.364860
C5291	C529	0.829200	0.996580	0.328700
H4111	H411	0.879700	0.003000	0.315900
C5301	C530	0.749510	0.999630	0.311770
H4121	H412	0.748100	0.009500	0.287700
N891	N89	0.540840	0.958790	0.251200
N901	N90	0.491560	0.808520	0.100540
C5311	C531	0.466020	0.935020	0.197870
H4131	H413	0.420100	0.939700	0.181900
C5321	C532	0.476470	0.963800	0.227240
H4141	H414	0.436900	0.988000	0.230700
C5331	C533	0.595980	0.923570	0.245740
H4151	H415	0.640900	0.919500	0.262300
C5341	C534	0.590220	0.892910	0.216990
H4161	H416	0.630000	0.868700	0.214400
C5351	C535	0.524140	0.898790	0.191970
C5361	C536	0.515140	0.867670	0.159940
C5371	C537	0.490200	0.884850	0.126490
H4171	H417	0.481000	0.916800	0.123400
C5381	C538	0.478930	0.854390	0.097680
H4181	H418	0.461800	0.866500	0.075400
C5391	C539	0.517520	0.792290	0.132470
H4191	H419	0.527500	0.760300	0.134600
C5401	C540	0.530570	0.819890	0.162560
H4201	H420	0.549400	0.806800	0.184300
Cd311	Cd31	0.038640	0.508130	0.302280
O611	O61	0.130100	0.565580	0.270550
O621	O62	0.991230	0.566180	0.259950
C5411	C541	0.066860	0.579630	0.252990
C5421	C542	0.081610	0.613240	0.222070
C5431	C543	0.018000	0.616700	0.199270
H4211	H421	0.022900	0.636300	0.179200
H4221	H422	0.967400	0.599600	0.203000
N911	N91	0.175040	0.489340	0.327740
C5441	C544	0.179450	0.475640	0.362310
H4231	H423	0.128100	0.467500	0.373900
C5451	C545	0.255010	0.472830	0.381720
H4241	H424	0.254100	0.463600	0.405900
C5461	C546	0.333290	0.483940	0.364860
C5471	C547	0.329200	0.496580	0.328700
H4251	H425	0.379700	0.503000	0.315900
C5481	C548	0.249510	0.499630	0.311770
H4261	H426	0.248100	0.509500	0.287700
N921	N92	0.040840	0.458790	0.251200
N931	N93	0.991560	0.308520	0.100540
C5491	C549	0.966020	0.435020	0.197870
H4271	H427	0.920100	0.439700	0.181900
C5501	C550	0.976470	0.463800	0.227240
H4281	H428	0.936900	0.488000	0.230700
C5511	C551	0.095980	0.423570	0.245740
H4291	H429	0.140900	0.419500	0.262300
C5521	C552	0.090220	0.392910	0.216990
H4301	H430	0.130000	0.368700	0.214400
C5531	C553	0.024140	0.398790	0.191970
C5541	C554	0.015140	0.367670	0.159940
C5551	C555	0.990200	0.384850	0.126490
H4311	H431	0.981000	0.416800	0.123400
C5561	C556	0.978930	0.354390	0.097680
H4321	H432	0.961800	0.366500	0.075400
C5571	C557	0.017520	0.292290	0.132470
H4331	H433	0.027500	0.260300	0.134600
C5581	C558	0.030570	0.319890	0.162560
H4341	H434	0.049400	0.306800	0.184300
Cd321	Cd32	0.038640	0.008130	0.802280
O631	O63	0.130100	0.065580	0.770550
O641	O64	0.991230	0.066180	0.759950
C5591	C559	0.066860	0.079630	0.752990
C5601	C560	0.081610	0.113240	0.722070
C5611	C561	0.018000	0.116700	0.699270
H4351	H435	0.022900	0.136300	0.679200
H4361	H436	0.967400	0.099600	0.703000
N941	N94	0.175040	0.989340	0.827740
C5621	C562	0.179450	0.975640	0.862310
H4371	H437	0.128100	0.967500	0.873900
C5631	C563	0.255010	0.972830	0.881720
H4381	H438	0.254100	0.963600	0.905900
C5641	C564	0.333290	0.983940	0.864860
C5651	C565	0.329200	0.996580	0.828700
H4391	H439	0.379700	0.003000	0.815900
C5661	C566	0.249510	0.999630	0.811770
H4401	H440	0.248100	0.009500	0.787700
N951	N95	0.040840	0.958790	0.751200
N961	N96	0.991560	0.808520	0.600540
C5671	C567	0.966020	0.935020	0.697870
H4411	H441	0.920100	0.939700	0.681900
C5681	C568	0.976470	0.963800	0.727240
H4421	H442	0.936900	0.988000	0.730700
C5691	C569	0.095980	0.923570	0.745740
H4431	H443	0.140900	0.919500	0.762300
C5701	C570	0.090220	0.892910	0.716990
H4441	H444	0.130000	0.868700	0.714400
C5711	C571	0.024140	0.898790	0.691970
C5721	C572	0.015140	0.867670	0.659940
C5731	C573	0.990200	0.884850	0.626490
H4451	H445	0.981000	0.916800	0.623400
C5741	C574	0.978930	0.854390	0.597680
H4461	H446	0.961800	0.866500	0.575400
C5751	C575	0.017520	0.792290	0.632470
H4471	H447	0.027500	0.760300	0.634600
C5761	C576	0.030570	0.819890	0.662560
H4481	H448	0.049400	0.806800	0.684300
