data_KOCWEF_clean_PM
_symmetry_space_group_name_H-M	'P1'
_cell_length_a	12.626100
_cell_length_b	12.626100
_cell_length_c	42.559000
_cell_angle_alpha	90.000000
_cell_angle_beta	90.000000
_cell_angle_gamma	90.000000
_symmetry_Int_Tables_number 1

loop_
_symmetry_equiv_pos_as_xyz
'x,y,z'

loop_
_atom_site_label
_atom_site_type_symbol
_atom_site_fract_x
_atom_site_fract_y
_atom_site_fract_z
Mn11	Mn1	0.252530	0.709210	0.888900
Mn21	Mn2	0.152220	0.920060	0.831090
Mn31	Mn3	0.347810	0.420130	0.918960
Mn41	Mn4	0.247560	0.209320	0.861010
Mn51	Mn5	0.747470	0.290790	0.388900
Mn61	Mn6	0.847780	0.079940	0.331090
Mn71	Mn7	0.652190	0.579870	0.418960
Mn81	Mn8	0.752440	0.790680	0.361010
Mn91	Mn9	0.709210	0.252530	0.611100
Mn101	Mn10	0.920060	0.152220	0.668910
Mn111	Mn11	0.420130	0.347810	0.581040
Mn121	Mn12	0.209320	0.247560	0.638990
Mn131	Mn13	0.290790	0.747470	0.111100
Mn141	Mn14	0.079940	0.847780	0.168910
Mn151	Mn15	0.579870	0.652190	0.081040
Mn161	Mn16	0.790680	0.752440	0.138990
H11	H1	0.570400	0.803000	0.881100
H21	H2	0.927700	0.305100	0.866400
H31	H3	0.828000	0.547800	0.892900
H41	H4	0.744000	0.841200	0.870000
H51	H5	0.655200	0.508000	0.905400
H61	H6	0.015400	0.246400	0.760900
H71	H7	0.435900	0.808300	0.940800
H81	H8	0.266600	0.926400	0.029700
H91	H9	0.846200	0.006200	0.845800
H101	H10	0.227200	0.999200	0.980700
H111	H11	0.671000	0.048000	0.855500
H121	H12	0.063300	0.309700	0.808700
H131	H13	0.481100	0.743900	0.989900
H141	H14	0.278000	0.495600	0.768800
H151	H15	0.236900	0.423900	0.721500
H161	H16	0.756400	0.343000	0.879300
H171	H17	0.037700	0.877100	0.781000
H181	H18	0.428800	0.482000	0.984000
H191	H19	0.411500	0.191300	0.946900
H201	H20	0.449300	0.116700	0.995100
H211	H21	0.467700	0.411900	0.032700
H221	H22	0.480700	0.221900	0.042300
H231	H23	0.429600	0.197000	0.381100
H241	H24	0.072300	0.694900	0.366400
H251	H25	0.172000	0.452200	0.392900
H261	H26	0.256000	0.158800	0.370000
H271	H27	0.344800	0.492000	0.405400
H281	H28	0.984600	0.753600	0.260900
H291	H29	0.564100	0.191700	0.440800
H301	H30	0.733400	0.073600	0.529700
H311	H31	0.153800	0.993800	0.345800
H321	H32	0.772800	0.000800	0.480700
H331	H33	0.329000	0.952000	0.355500
H341	H34	0.936700	0.690300	0.308700
H351	H35	0.518900	0.256100	0.489900
H361	H36	0.722000	0.504400	0.268800
H371	H37	0.763100	0.576100	0.221500
H381	H38	0.243600	0.657000	0.379300
H391	H39	0.962300	0.122900	0.281000
H401	H40	0.571200	0.518000	0.484000
H411	H41	0.588500	0.808700	0.446900
H421	H42	0.550700	0.883300	0.495100
H431	H43	0.532300	0.588100	0.532700
H441	H44	0.519300	0.778100	0.542300
H451	H45	0.803000	0.570400	0.618900
H461	H46	0.305100	0.927700	0.633600
H471	H47	0.547800	0.828000	0.607100
H481	H48	0.841200	0.744000	0.630000
H491	H49	0.508000	0.655200	0.594600
H501	H50	0.246400	0.015400	0.739100
H511	H51	0.808300	0.435900	0.559200
H521	H52	0.926400	0.266600	0.470300
H531	H53	0.006200	0.846200	0.654200
H541	H54	0.999200	0.227200	0.519300
H551	H55	0.048000	0.671000	0.644500
H561	H56	0.309700	0.063300	0.691300
H571	H57	0.743900	0.481100	0.510100
H581	H58	0.495600	0.278000	0.731200
H591	H59	0.423900	0.236900	0.778500
H601	H60	0.343000	0.756400	0.620700
H611	H61	0.877100	0.037700	0.719000
H621	H62	0.482000	0.428800	0.516000
H631	H63	0.191300	0.411500	0.553100
H641	H64	0.116700	0.449300	0.504900
H651	H65	0.411900	0.467700	0.467300
H661	H66	0.221900	0.480700	0.457700
H671	H67	0.197000	0.429600	0.118900
H681	H68	0.694900	0.072300	0.133600
H691	H69	0.452200	0.172000	0.107100
H701	H70	0.158800	0.256000	0.130000
H711	H71	0.492000	0.344800	0.094600
H721	H72	0.753600	0.984600	0.239100
H731	H73	0.191700	0.564100	0.059200
H741	H74	0.073600	0.733400	0.970300
H751	H75	0.993800	0.153800	0.154200
H761	H76	0.000800	0.772800	0.019300
H771	H77	0.952000	0.329000	0.144500
H781	H78	0.690300	0.936700	0.191300
H791	H79	0.256100	0.518900	0.010100
H801	H80	0.504400	0.722000	0.231200
H811	H81	0.576100	0.763100	0.278500
H821	H82	0.657000	0.243600	0.120700
H831	H83	0.122900	0.962300	0.219000
H841	H84	0.518000	0.571200	0.016000
H851	H85	0.808700	0.588500	0.053100
H861	H86	0.883300	0.550700	0.004900
H871	H87	0.588100	0.532300	0.967300
H881	H88	0.778100	0.519300	0.957700
C11	C1	0.018100	0.125100	0.849500
C21	C2	0.480300	0.625300	0.900290
C31	C3	0.622500	0.751700	0.883800
C41	C4	0.905700	0.149700	0.855400
C51	C5	0.595500	0.650100	0.894600
C61	C6	0.876400	0.252600	0.864900
C71	C7	0.776500	0.600100	0.891100
C81	C8	0.726400	0.774200	0.877400
C91	C9	0.672600	0.575400	0.898200
C101	C10	0.089800	0.287800	0.703450
C111	C11	0.207600	0.446600	0.825640
C121	C12	0.120800	0.329800	0.735800
C131	C13	0.292300	0.946100	0.924480
C141	C14	0.069900	0.295700	0.762500
C151	C15	0.915200	0.727200	0.875200
C161	C16	0.380300	0.831300	0.014170
C171	C17	0.322800	0.905200	0.955360
C181	C18	0.585000	0.228800	0.873400
C191	C19	0.177600	0.404400	0.793980
C201	C20	0.693100	0.198900	0.868000
C211	C21	0.400600	0.833000	0.958500
C221	C22	0.806000	0.699800	0.881600
C231	C23	0.302600	0.903600	0.011900
C241	C24	0.828200	0.074400	0.852100
C251	C25	0.276500	0.944700	0.982300
C261	C26	0.722600	0.099600	0.858200
C271	C27	0.098700	0.333300	0.790900
C281	C28	0.428400	0.795000	0.988150
C291	C29	0.410500	0.788700	0.046170
C301	C30	0.227000	0.442600	0.767300
C311	C31	0.200000	0.402000	0.739300
C321	C32	0.773800	0.276000	0.871900
C331	C33	0.433200	0.409000	0.986500
C341	C34	0.422600	0.234400	0.964300
C351	C35	0.445900	0.190100	0.993700
C361	C36	0.456700	0.365300	0.016100
C371	C37	0.465300	0.251100	0.022700
C381	C38	0.981900	0.874900	0.349500
C391	C39	0.519700	0.374700	0.400290
C401	C40	0.377500	0.248300	0.383800
C411	C41	0.094300	0.850300	0.355400
C421	C42	0.404500	0.349900	0.394600
C431	C43	0.123600	0.747400	0.364900
C441	C44	0.223500	0.399900	0.391100
C451	C45	0.273600	0.225800	0.377400
C461	C46	0.327400	0.424600	0.398200
C471	C47	0.910200	0.712200	0.203450
C481	C48	0.792400	0.553400	0.325640
C491	C49	0.879200	0.670200	0.235800
C501	C50	0.707700	0.053900	0.424480
C511	C51	0.930100	0.704300	0.262500
C521	C52	0.084800	0.272800	0.375200
C531	C53	0.619700	0.168700	0.514170
C541	C54	0.677200	0.094800	0.455360
C551	C55	0.415000	0.771200	0.373400
C561	C56	0.822400	0.595600	0.293980
C571	C57	0.306900	0.801100	0.368000
C581	C58	0.599400	0.167000	0.458500
C591	C59	0.194000	0.300200	0.381600
C601	C60	0.697400	0.096400	0.511900
C611	C61	0.171800	0.925600	0.352100
C621	C62	0.723500	0.055300	0.482300
C631	C63	0.277400	0.900400	0.358200
C641	C64	0.901300	0.666700	0.290900
C651	C65	0.571600	0.205000	0.488150
C661	C66	0.589500	0.211300	0.546170
C671	C67	0.773000	0.557400	0.267300
C681	C68	0.800000	0.598000	0.239300
C691	C69	0.226200	0.724000	0.371900
C701	C70	0.566800	0.591000	0.486500
C711	C71	0.577400	0.765600	0.464300
C721	C72	0.554100	0.809900	0.493700
C731	C73	0.543300	0.634700	0.516100
C741	C74	0.534700	0.748900	0.522700
C751	C75	0.125100	0.018100	0.650500
C761	C76	0.625300	0.480300	0.599710
C771	C77	0.751700	0.622500	0.616200
C781	C78	0.149700	0.905700	0.644600
C791	C79	0.650100	0.595500	0.605400
C801	C80	0.252600	0.876400	0.635100
C811	C81	0.600100	0.776500	0.608900
C821	C82	0.774200	0.726400	0.622600
C831	C83	0.575400	0.672600	0.601800
C841	C84	0.287800	0.089800	0.796550
C851	C85	0.446600	0.207600	0.674360
C861	C86	0.329800	0.120800	0.764200
C871	C87	0.946100	0.292300	0.575520
C881	C88	0.295700	0.069900	0.737500
C891	C89	0.727200	0.915200	0.624800
C901	C90	0.831300	0.380300	0.485830
C911	C91	0.905200	0.322800	0.544640
C921	C92	0.228800	0.585000	0.626600
C931	C93	0.404400	0.177600	0.706020
C941	C94	0.198900	0.693100	0.632000
C951	C95	0.833000	0.400600	0.541500
C961	C96	0.699800	0.806000	0.618400
C971	C97	0.903600	0.302600	0.488100
C981	C98	0.074400	0.828200	0.647900
C991	C99	0.944700	0.276500	0.517700
C1001	C100	0.099600	0.722600	0.641800
C1011	C101	0.333300	0.098700	0.709100
C1021	C102	0.795000	0.428400	0.511850
C1031	C103	0.788700	0.410500	0.453830
C1041	C104	0.442600	0.227000	0.732700
C1051	C105	0.402000	0.200000	0.760700
C1061	C106	0.276000	0.773800	0.628100
C1071	C107	0.409000	0.433200	0.513500
C1081	C108	0.234400	0.422600	0.535700
C1091	C109	0.190100	0.445900	0.506300
C1101	C110	0.365300	0.456700	0.483900
C1111	C111	0.251100	0.465300	0.477300
C1121	C112	0.874900	0.981900	0.150500
C1131	C113	0.374700	0.519700	0.099710
C1141	C114	0.248300	0.377500	0.116200
C1151	C115	0.850300	0.094300	0.144600
C1161	C116	0.349900	0.404500	0.105400
C1171	C117	0.747400	0.123600	0.135100
C1181	C118	0.399900	0.223500	0.108900
C1191	C119	0.225800	0.273600	0.122600
C1201	C120	0.424600	0.327400	0.101800
C1211	C121	0.712200	0.910200	0.296550
C1221	C122	0.553400	0.792400	0.174360
C1231	C123	0.670200	0.879200	0.264200
C1241	C124	0.053900	0.707700	0.075520
C1251	C125	0.704300	0.930100	0.237500
C1261	C126	0.272800	0.084800	0.124800
C1271	C127	0.168700	0.619700	0.985830
C1281	C128	0.094800	0.677200	0.044640
C1291	C129	0.771200	0.415000	0.126600
C1301	C130	0.595600	0.822400	0.206020
C1311	C131	0.801100	0.306900	0.132000
C1321	C132	0.167000	0.599400	0.041500
C1331	C133	0.300200	0.194000	0.118400
C1341	C134	0.096400	0.697400	0.988100
C1351	C135	0.925600	0.171800	0.147900
C1361	C136	0.055300	0.723500	0.017700
C1371	C137	0.900400	0.277400	0.141800
C1381	C138	0.666700	0.901300	0.209100
C1391	C139	0.205000	0.571600	0.011850
C1401	C140	0.211300	0.589500	0.953830
C1411	C141	0.557400	0.773000	0.232700
C1421	C142	0.598000	0.800000	0.260700
C1431	C143	0.724000	0.226200	0.128100
C1441	C144	0.591000	0.566800	0.013500
C1451	C145	0.765600	0.577400	0.035700
C1461	C146	0.809900	0.554100	0.006300
C1471	C147	0.634700	0.543300	0.983900
C1481	C148	0.748900	0.534700	0.977300
N11	N1	0.265000	0.887400	0.899860
N21	N2	0.416700	0.231300	0.873770
N31	N3	0.082300	0.731500	0.876020
N41	N4	0.240400	0.957400	0.877080
N51	N5	0.451500	0.311500	0.891170
N61	N6	0.254800	0.053600	0.887580
N71	N7	0.049500	0.810100	0.859000
N81	N8	0.234400	0.388400	0.850070
N91	N9	0.259300	0.457100	0.873090
N101	N10	0.285600	0.050000	0.917690
N111	N11	0.214900	0.550300	0.832370
N121	N12	0.000000	0.677600	0.887100
N131	N13	0.943500	0.809900	0.858100
N141	N14	0.245400	0.553000	0.861570
N151	N15	0.500300	0.176900	0.862900
N161	N16	0.556000	0.310200	0.892000
N171	N17	0.416700	0.342500	0.961600
N181	N18	0.735000	0.112600	0.399860
N191	N19	0.583300	0.768700	0.373770
N201	N20	0.917700	0.268500	0.376020
N211	N21	0.759600	0.042600	0.377080
N221	N22	0.548500	0.688500	0.391170
N231	N23	0.745200	0.946400	0.387580
N241	N24	0.950500	0.189900	0.359000
N251	N25	0.765600	0.611600	0.350070
N261	N26	0.740700	0.542900	0.373090
N271	N27	0.714400	0.950000	0.417690
N281	N28	0.785100	0.449700	0.332370
N291	N29	0.000000	0.322400	0.387100
N301	N30	0.056500	0.190100	0.358100
N311	N31	0.754600	0.447000	0.361570
N321	N32	0.499700	0.823100	0.362900
N331	N33	0.444000	0.689800	0.392000
N341	N34	0.583300	0.657500	0.461600
N351	N35	0.887400	0.265000	0.600140
N361	N36	0.231300	0.416700	0.626230
N371	N37	0.731500	0.082300	0.623980
N381	N38	0.957400	0.240400	0.622920
N391	N39	0.311500	0.451500	0.608830
N401	N40	0.053600	0.254800	0.612420
N411	N41	0.810100	0.049500	0.641000
N421	N42	0.388400	0.234400	0.649930
N431	N43	0.457100	0.259300	0.626910
N441	N44	0.050000	0.285600	0.582310
N451	N45	0.550300	0.214900	0.667630
N461	N46	0.677600	0.000000	0.612900
N471	N47	0.809900	0.943500	0.641900
N481	N48	0.553000	0.245400	0.638430
N491	N49	0.176900	0.500300	0.637100
N501	N50	0.310200	0.556000	0.608000
N511	N51	0.342500	0.416700	0.538400
N521	N52	0.112600	0.735000	0.100140
N531	N53	0.768700	0.583300	0.126230
N541	N54	0.268500	0.917700	0.123980
N551	N55	0.042600	0.759600	0.122920
N561	N56	0.688500	0.548500	0.108830
N571	N57	0.946400	0.745200	0.112420
N581	N58	0.189900	0.950500	0.141000
N591	N59	0.611600	0.765600	0.149930
N601	N60	0.542900	0.740700	0.126910
N611	N61	0.950000	0.714400	0.082310
N621	N62	0.449700	0.785100	0.167630
N631	N63	0.322400	0.000000	0.112900
N641	N64	0.190100	0.056500	0.141900
N651	N65	0.447000	0.754600	0.138430
N661	N66	0.823100	0.499700	0.137100
N671	N67	0.689800	0.444000	0.108000
N681	N68	0.657500	0.583300	0.038400
O11	O1	0.415400	0.694000	0.891410
O21	O2	0.085700	0.192900	0.858380
O31	O3	0.040200	0.041200	0.836750
O41	O4	0.459500	0.540300	0.913350
O51	O5	0.158400	0.294600	0.682880
O61	O6	0.998700	0.251300	0.700280
O71	O7	0.341000	0.794800	0.067210
O81	O8	0.501200	0.750600	0.049240
O91	O9	0.086000	0.841000	0.788180
O101	O10	0.584600	0.306000	0.391410
O111	O11	0.914300	0.807100	0.358380
O121	O12	0.959800	0.958800	0.336750
O131	O13	0.540500	0.459700	0.413350
O141	O14	0.841600	0.705400	0.182880
O151	O15	0.001300	0.748700	0.200280
O161	O16	0.659000	0.205200	0.567210
O171	O17	0.498800	0.249400	0.549240
O181	O18	0.914000	0.159000	0.288180
O191	O19	0.694000	0.415400	0.608590
O201	O20	0.192900	0.085700	0.641620
O211	O21	0.041200	0.040200	0.663250
O221	O22	0.540300	0.459500	0.586650
O231	O23	0.294600	0.158400	0.817120
O241	O24	0.251300	0.998700	0.799720
O251	O25	0.794800	0.341000	0.432790
O261	O26	0.750600	0.501200	0.450760
O271	O27	0.841000	0.086000	0.711820
O281	O28	0.306000	0.584600	0.108590
O291	O29	0.807100	0.914300	0.141620
O301	O30	0.958800	0.959800	0.163250
O311	O31	0.459700	0.540500	0.086650
O321	O32	0.705400	0.841600	0.317120
O331	O33	0.748700	0.001300	0.299720
O341	O34	0.205200	0.659000	0.932790
O351	O35	0.249400	0.498800	0.950760
O361	O36	0.159000	0.914000	0.211820
