data_KOFVOS_clean_PM
_symmetry_space_group_name_H-M	'P1'
_cell_length_a	13.854000
_cell_length_b	11.411000
_cell_length_c	17.710000
_cell_angle_alpha	90.000000
_cell_angle_beta	128.109000
_cell_angle_gamma	90.000000
_symmetry_Int_Tables_number 1

loop_
_symmetry_equiv_pos_as_xyz
'x,y,z'

loop_
_atom_site_label
_atom_site_type_symbol
_atom_site_fract_x
_atom_site_fract_y
_atom_site_fract_z
Ni11	Ni1	0.878580	0.275980	0.698590
O11	O1	0.925300	0.138500	0.118000
O21	O2	0.088100	0.084800	0.128600
O31	O3	0.916900	0.306000	0.325100
O41	O4	0.075600	0.384800	0.463700
O51	O5	0.852900	0.118700	0.627500
O61	O6	0.708100	0.001900	0.511000
O71	O7	0.821000	0.431600	0.725600
O81	O8	0.652700	0.530700	0.678300
N11	N1	0.060800	0.225000	0.289000
N21	N2	0.698500	0.266000	0.606000
C11	C1	0.039700	0.128800	0.161700
C21	C2	0.028700	0.327300	0.388600
C31	C3	0.742500	0.088900	0.562700
C41	C4	0.705400	0.444900	0.673500
C51	C5	0.121700	0.179700	0.260500
C61	C6	0.250200	0.185000	0.320900
H11	H1	0.294800	0.153700	0.301100
C71	C7	0.311700	0.237900	0.411700
C81	C8	0.242100	0.292200	0.435100
H21	H2	0.281200	0.334800	0.493300
C91	C9	0.115100	0.282500	0.371500
C101	C10	0.647300	0.172300	0.547200
C111	C11	0.522100	0.162400	0.482600
H31	H3	0.486400	0.096300	0.441200
C121	C12	0.447000	0.248700	0.477300
C131	C13	0.503300	0.346600	0.538500
H41	H4	0.454900	0.408300	0.535500
C141	C14	0.630700	0.351500	0.603400
Ni21	Ni2	0.121420	0.775980	0.801410
O91	O9	0.074700	0.638500	0.382000
O101	O10	0.911900	0.584800	0.371400
O111	O11	0.083100	0.806000	0.174900
O121	O12	0.924400	0.884800	0.036300
O131	O13	0.147100	0.618700	0.872500
O141	O14	0.291900	0.501900	0.989000
O151	O15	0.179000	0.931600	0.774400
O161	O16	0.347300	0.030700	0.821700
N31	N3	0.939200	0.725000	0.211000
N41	N4	0.301500	0.766000	0.894000
C151	C15	0.960300	0.628800	0.338300
C161	C16	0.971300	0.827300	0.111400
C171	C17	0.257500	0.588900	0.937300
C181	C18	0.294600	0.944900	0.826500
C191	C19	0.878300	0.679700	0.239500
C201	C20	0.749800	0.685000	0.179100
H51	H5	0.705200	0.653700	0.198900
C211	C21	0.688300	0.737900	0.088300
C221	C22	0.757900	0.792200	0.064900
H61	H6	0.718800	0.834800	0.006700
C231	C23	0.884900	0.782500	0.128500
C241	C24	0.352700	0.672300	0.952800
C251	C25	0.477900	0.662400	0.017400
H71	H7	0.513600	0.596300	0.058800
C261	C26	0.553000	0.748700	0.022700
C271	C27	0.496700	0.846600	0.961500
H81	H8	0.545100	0.908300	0.964500
C281	C28	0.369300	0.851500	0.896600
Ni31	Ni3	0.121420	0.724020	0.301410
O171	O17	0.074700	0.861500	0.882000
O181	O18	0.911900	0.915200	0.871400
O191	O19	0.083100	0.694000	0.674900
O201	O20	0.924400	0.615200	0.536300
O211	O21	0.147100	0.881300	0.372500
O221	O22	0.291900	0.998100	0.489000
O231	O23	0.179000	0.568400	0.274400
O241	O24	0.347300	0.469300	0.321700
N51	N5	0.939200	0.775000	0.711000
N61	N6	0.301500	0.734000	0.394000
C291	C29	0.960300	0.871200	0.838300
C301	C30	0.971300	0.672700	0.611400
C311	C31	0.257500	0.911100	0.437300
C321	C32	0.294600	0.555100	0.326500
C331	C33	0.878300	0.820300	0.739500
C341	C34	0.749800	0.815000	0.679100
H91	H9	0.705200	0.846300	0.698900
C351	C35	0.688300	0.762100	0.588300
C361	C36	0.757900	0.707800	0.564900
H101	H10	0.718800	0.665200	0.506700
C371	C37	0.884900	0.717500	0.628500
C381	C38	0.352700	0.827700	0.452800
C391	C39	0.477900	0.837600	0.517400
H111	H11	0.513600	0.903700	0.558800
C401	C40	0.553000	0.751300	0.522700
C411	C41	0.496700	0.653400	0.461500
H121	H12	0.545100	0.591700	0.464500
C421	C42	0.369300	0.648500	0.396600
Ni41	Ni4	0.878580	0.224020	0.198590
O251	O25	0.925300	0.361500	0.618000
O261	O26	0.088100	0.415200	0.628600
O271	O27	0.916900	0.194000	0.825100
O281	O28	0.075600	0.115200	0.963700
O291	O29	0.852900	0.381300	0.127500
O301	O30	0.708100	0.498100	0.011000
O311	O31	0.821000	0.068400	0.225600
O321	O32	0.652700	0.969300	0.178300
N71	N7	0.060800	0.275000	0.789000
N81	N8	0.698500	0.234000	0.106000
C431	C43	0.039700	0.371200	0.661700
C441	C44	0.028700	0.172700	0.888600
C451	C45	0.742500	0.411100	0.062700
C461	C46	0.705400	0.055100	0.173500
C471	C47	0.121700	0.320300	0.760500
C481	C48	0.250200	0.315000	0.820900
H131	H13	0.294800	0.346300	0.801100
C491	C49	0.311700	0.262100	0.911700
C501	C50	0.242100	0.207800	0.935100
H141	H14	0.281200	0.165200	0.993300
C511	C51	0.115100	0.217500	0.871500
C521	C52	0.647300	0.327700	0.047200
C531	C53	0.522100	0.337600	0.982600
H151	H15	0.486400	0.403700	0.941200
C541	C54	0.447000	0.251300	0.977300
C551	C55	0.503300	0.153400	0.038500
H161	H16	0.454900	0.091700	0.035500
C561	C56	0.630700	0.148500	0.103400
Ni51	Ni5	0.000000	0.000000	0.000000
Ni61	Ni6	0.000000	0.500000	0.500000
