data_KOGJOG_clean_PM
_symmetry_space_group_name_H-M	'P1'
_cell_length_a	8.683900
_cell_length_b	9.292200
_cell_length_c	31.729000
_cell_angle_alpha	90.000000
_cell_angle_beta	90.000000
_cell_angle_gamma	98.514000
_symmetry_Int_Tables_number 1

loop_
_symmetry_equiv_pos_as_xyz
'x,y,z'

loop_
_atom_site_label
_atom_site_type_symbol
_atom_site_fract_x
_atom_site_fract_y
_atom_site_fract_z
Gd11	Gd1	0.561980	0.200440	0.783100
Gd21	Gd2	0.245320	0.686620	0.029800
Gd31	Gd3	0.938020	0.299560	0.283100
Gd41	Gd4	0.254680	0.813380	0.529800
Gd51	Gd5	0.438020	0.799560	0.216900
Gd61	Gd6	0.754680	0.313380	0.970200
Gd71	Gd7	0.061980	0.700440	0.716900
Gd81	Gd8	0.745320	0.186620	0.470200
P11	P1	0.246000	0.435400	0.774530
P21	P2	0.076300	0.562800	0.924890
P31	P3	0.254000	0.064600	0.274530
P41	P4	0.423700	0.937200	0.424890
P51	P5	0.754000	0.564600	0.225470
P61	P6	0.923700	0.437200	0.075110
P71	P7	0.746000	0.935400	0.725470
P81	P8	0.576300	0.062800	0.575110
H11	H1	0.132200	0.739500	0.889700
H21	H2	0.291000	0.353200	0.856900
H31	H3	0.345400	0.582200	0.830200
H41	H4	0.165700	0.585400	0.825900
H51	H5	0.326200	0.536000	0.905300
H61	H6	0.239800	0.388700	0.922400
H71	H7	0.978500	0.364600	0.851500
H81	H8	0.046200	0.241200	0.876100
H91	H9	0.161100	0.172500	0.813300
H101	H10	0.979500	0.156000	0.808800
H111	H11	0.367800	0.760500	0.389700
H121	H12	0.209000	0.146800	0.356900
H131	H13	0.154600	0.917800	0.330200
H141	H14	0.334300	0.914600	0.325900
H151	H15	0.173800	0.964000	0.405300
H161	H16	0.260200	0.111300	0.422400
H171	H17	0.521500	0.135400	0.351500
H181	H18	0.453800	0.258800	0.376100
H191	H19	0.338900	0.327500	0.313300
H201	H20	0.520500	0.344000	0.308800
H211	H21	0.867800	0.260500	0.110300
H221	H22	0.709000	0.646800	0.143100
H231	H23	0.654600	0.417800	0.169800
H241	H24	0.834300	0.414600	0.174100
H251	H25	0.673800	0.464000	0.094700
H261	H26	0.760200	0.611300	0.077600
H271	H27	0.021500	0.635400	0.148500
H281	H28	0.953800	0.758800	0.123900
H291	H29	0.838900	0.827500	0.186700
H301	H30	0.020500	0.844000	0.191200
H311	H31	0.632200	0.239500	0.610300
H321	H32	0.791000	0.853200	0.643100
H331	H33	0.845400	0.082200	0.669800
H341	H34	0.665700	0.085400	0.674100
H351	H35	0.826200	0.036000	0.594700
H361	H36	0.739800	0.888700	0.577600
H371	H37	0.478500	0.864600	0.648500
H381	H38	0.546200	0.741200	0.623900
H391	H39	0.661100	0.672500	0.686700
H401	H40	0.479500	0.656000	0.691200
C11	C1	0.245400	0.522500	0.825300
C21	C2	0.229300	0.469200	0.903700
C31	C3	0.064500	0.309000	0.852800
C41	C4	0.073400	0.226000	0.812000
C51	C5	0.788400	0.429900	0.727100
C61	C6	0.820600	0.483900	0.772800
C71	C7	0.556500	0.261200	0.884300
C81	C8	0.687800	0.169800	0.877800
C91	C9	0.452500	0.430600	0.009800
C101	C10	0.254600	0.977500	0.325300
C111	C11	0.270700	0.030800	0.403700
C121	C12	0.435500	0.191000	0.352800
C131	C13	0.426600	0.274000	0.312000
C141	C14	0.711600	0.070100	0.227100
C151	C15	0.679400	0.016100	0.272800
C161	C16	0.943500	0.238800	0.384300
C171	C17	0.812200	0.330200	0.377800
C181	C18	0.047500	0.069400	0.509800
C191	C19	0.754600	0.477500	0.174700
C201	C20	0.770700	0.530800	0.096300
C211	C21	0.935500	0.691000	0.147200
C221	C22	0.926600	0.774000	0.188000
C231	C23	0.211600	0.570100	0.272900
C241	C24	0.179400	0.516100	0.227200
C251	C25	0.443500	0.738800	0.115700
C261	C26	0.312200	0.830200	0.122200
C271	C27	0.547500	0.569400	0.990200
C281	C28	0.745400	0.022500	0.674700
C291	C29	0.729300	0.969200	0.596300
C301	C30	0.564500	0.809000	0.647200
C311	C31	0.573400	0.726000	0.688000
C321	C32	0.288400	0.929900	0.772900
C331	C33	0.320600	0.983900	0.727200
C341	C34	0.056500	0.761200	0.615700
C351	C35	0.187800	0.669800	0.622200
C361	C36	0.952500	0.930600	0.490200
N11	N1	0.214500	0.409800	0.859600
N21	N2	0.285500	0.090200	0.359600
N31	N3	0.785500	0.590200	0.140400
N41	N4	0.714500	0.909800	0.640400
O11	O1	0.383900	0.358900	0.772200
O21	O2	0.090900	0.321500	0.775200
O31	O3	0.227500	0.542100	0.740500
O41	O4	0.144200	0.629300	0.964400
O51	O5	0.051900	0.681300	0.891900
O61	O6	0.925800	0.462700	0.928000
O71	O7	0.684600	0.322900	0.722200
O81	O8	0.869600	0.500300	0.699100
O91	O9	0.746700	0.410000	0.801600
O101	O10	0.917800	0.597000	0.777900
O111	O11	0.542900	0.315900	0.919200
O121	O12	0.466800	0.267900	0.853200
O131	O13	0.773200	0.158600	0.909000
O141	O14	0.700800	0.115800	0.842200
O151	O15	0.322200	0.443800	0.025600
O161	O16	0.514900	0.315900	0.009200
O171	O17	0.116100	0.141100	0.272200
O181	O18	0.409100	0.178500	0.275200
O191	O19	0.272500	0.957900	0.240500
O201	O20	0.355800	0.870700	0.464400
O211	O21	0.448100	0.818700	0.391900
O221	O22	0.574200	0.037300	0.428000
O231	O23	0.815400	0.177100	0.222200
O241	O24	0.630400	0.999700	0.199100
O251	O25	0.753300	0.090000	0.301600
O261	O26	0.582200	0.903000	0.277900
O271	O27	0.957100	0.184100	0.419200
O281	O28	0.033200	0.232100	0.353200
O291	O29	0.726800	0.341400	0.409000
O301	O30	0.799200	0.384200	0.342200
O311	O31	0.177800	0.056200	0.525600
O321	O32	0.985100	0.184100	0.509200
O331	O33	0.616100	0.641100	0.227800
O341	O34	0.909100	0.678500	0.224800
O351	O35	0.772500	0.457900	0.259500
O361	O36	0.855800	0.370700	0.035600
O371	O37	0.948100	0.318700	0.108100
O381	O38	0.074200	0.537300	0.072000
O391	O39	0.315400	0.677100	0.277800
O401	O40	0.130400	0.499700	0.300900
O411	O41	0.253300	0.590000	0.198400
O421	O42	0.082200	0.403000	0.222100
O431	O43	0.457100	0.684100	0.080800
O441	O44	0.533200	0.732100	0.146800
O451	O45	0.226800	0.841400	0.091000
O461	O46	0.299200	0.884200	0.157800
O471	O47	0.677800	0.556200	0.974400
O481	O48	0.485100	0.684100	0.990800
O491	O49	0.883900	0.858900	0.727800
O501	O50	0.590900	0.821500	0.724800
O511	O51	0.727500	0.042100	0.759500
O521	O52	0.644200	0.129300	0.535600
O531	O53	0.551900	0.181300	0.608100
O541	O54	0.425800	0.962700	0.572000
O551	O55	0.184600	0.822900	0.777800
O561	O56	0.369600	0.000300	0.800900
O571	O57	0.246700	0.910000	0.698400
O581	O58	0.417800	0.097000	0.722100
O591	O59	0.042900	0.815900	0.580800
O601	O60	0.966800	0.767900	0.646800
O611	O61	0.273200	0.658600	0.591000
O621	O62	0.200800	0.615800	0.657800
O631	O63	0.822200	0.943800	0.474400
O641	O64	0.014900	0.815900	0.490800
