data_KOHKIC_clean_PM
_symmetry_space_group_name_H-M	'P1'
_cell_length_a	32.472900
_cell_length_b	32.472900
_cell_length_c	33.094000
_cell_angle_alpha	60.618900
_cell_angle_beta	60.618900
_cell_angle_gamma	90.000000
_symmetry_Int_Tables_number 1

loop_
_symmetry_equiv_pos_as_xyz
'x,y,z'

loop_
_atom_site_label
_atom_site_type_symbol
_atom_site_fract_x
_atom_site_fract_y
_atom_site_fract_z
Na11	Na1	0.875000	0.115560	0.750000
Na21	Na2	0.375000	0.134440	0.750000
Na31	Na3	0.865560	0.625000	0.250000
Na41	Na4	0.884440	0.125000	0.250000
Zn11	Zn1	0.986050	0.117100	0.795280
Zn21	Zn2	0.916450	0.998410	0.869240
Zn31	Zn3	0.874840	0.073310	0.909300
Zn41	Zn4	0.438060	0.544790	0.089740
Zn51	Zn5	0.218670	0.087620	0.795280
Zn61	Zn6	0.214310	0.132350	0.869240
Zn71	Zn7	0.215860	0.017390	0.909300
Zn81	Zn8	0.472190	0.365470	0.089750
Zn91	Zn9	0.867100	0.468670	0.295280
Zn101	Zn10	0.748410	0.464310	0.369240
Zn111	Zn11	0.823310	0.465860	0.409300
Zn121	Zn12	0.294790	0.722200	0.589740
Zn131	Zn13	0.837620	0.236050	0.295280
Zn141	Zn14	0.882350	0.166450	0.369240
Zn151	Zn15	0.767390	0.124840	0.409300
Zn161	Zn16	0.115470	0.688050	0.589750
Zn171	Zn17	0.531330	0.132900	0.704720
Zn181	Zn18	0.535690	0.251590	0.630760
Zn191	Zn19	0.534140	0.176690	0.590700
Zn201	Zn20	0.277800	0.705210	0.410260
Zn211	Zn21	0.763950	0.162380	0.704720
Zn221	Zn22	0.833550	0.117650	0.630760
Zn231	Zn23	0.875160	0.232610	0.590700
Zn241	Zn24	0.311950	0.884530	0.410250
Zn251	Zn25	0.912380	0.781330	0.204720
Zn261	Zn26	0.867650	0.785690	0.130760
Zn271	Zn27	0.982610	0.784140	0.090700
Zn281	Zn28	0.634530	0.527810	0.910250
Zn291	Zn29	0.882900	0.013950	0.204720
Zn301	Zn30	0.001590	0.083550	0.130760
Zn311	Zn31	0.926690	0.125160	0.090700
Zn321	Zn32	0.455210	0.561940	0.910260
Zn331	Zn33	0.434680	0.434680	0.130640
Zn341	Zn34	0.184680	0.684680	0.630640
Zn351	Zn35	0.315320	0.815320	0.369360
Zn361	Zn36	0.565320	0.565320	0.869360
Zn371	Zn37	0.500000	0.500000	0.000000
Zn381	Zn38	0.250000	0.750000	0.500000
H11	H1	0.501500	0.594200	0.991200
H21	H2	0.906800	0.075900	0.828200
H31	H3	0.520100	0.439800	0.064600
H41	H4	0.972800	0.166500	0.631200
H51	H5	0.005300	0.222400	0.539800
H61	H6	0.112100	0.300100	0.527800
H71	H7	0.079600	0.241000	0.618800
H81	H8	0.006300	0.312400	0.487200
H91	H9	0.113200	0.413800	0.324200
H101	H10	0.150000	0.322500	0.427200
H111	H11	0.193700	0.469400	0.287600
H121	H12	0.275400	0.505900	0.217200
H131	H13	0.296900	0.374000	0.266200
H141	H14	0.213000	0.335600	0.331000
H151	H15	0.967700	0.366900	0.468800
H161	H16	0.904800	0.389200	0.457800
H171	H17	0.985700	0.423200	0.303200
H181	H18	0.046800	0.396100	0.316200
H191	H19	0.854900	0.899200	0.845000
H201	H20	0.815600	0.863400	0.822000
H211	H21	0.761500	0.977700	0.778800
H221	H22	0.800900	0.013500	0.801800
H231	H23	0.740000	0.826900	0.831800
H241	H24	0.731200	0.864600	0.702400
H251	H25	0.787600	0.968400	0.706400
H261	H26	0.711700	0.933200	0.648800
H271	H27	0.723900	0.997300	0.568600
H281	H28	0.852000	0.069800	0.528000
H291	H29	0.834200	0.004600	0.615200
H301	H30	0.754700	0.754800	0.816000
H311	H31	0.716800	0.672800	0.855600
H321	H32	0.616500	0.709400	0.824200
H331	H33	0.652500	0.790900	0.782600
H341	H34	0.832000	0.194500	0.772600
H351	H35	0.776400	0.238500	0.767600
H361	H36	0.713700	0.199200	0.923400
H371	H37	0.764800	0.153200	0.932600
H381	H38	0.693800	0.222600	0.795200
H391	H39	0.595200	0.292600	0.835000
H401	H40	0.689600	0.273400	0.884000
H411	H41	0.631000	0.378600	0.831400
H421	H42	0.587900	0.407100	0.886200
H431	H43	0.546600	0.281000	0.025400
H441	H44	0.585600	0.246600	0.975200
H451	H45	0.637900	0.180000	0.801600
H461	H46	0.607300	0.161800	0.758800
H471	H47	0.576600	0.291100	0.707800
H481	H48	0.607600	0.307100	0.752400
H491	H49	0.507300	0.414600	0.991200
H501	H50	0.265000	0.095900	0.828200
H511	H51	0.415300	0.495600	0.064600
H521	H52	0.396000	0.202300	0.631200
H531	H53	0.454900	0.237800	0.539800
H541	H54	0.360100	0.172100	0.527800
H551	H55	0.301600	0.140200	0.618800
H561	H56	0.506500	0.200400	0.487200
H571	H57	0.562600	0.262000	0.324200
H581	H58	0.422800	0.250300	0.427200
H591	H59	0.518700	0.243000	0.287600
H601	H60	0.507400	0.276900	0.217200
H611	H61	0.436900	0.359800	0.266200
H621	H62	0.456000	0.333400	0.331000
H631	H63	0.563500	0.164300	0.468800
H641	H64	0.637400	0.153000	0.457800
H651	H65	0.711100	0.273600	0.303200
H661	H66	0.637000	0.287700	0.316200
H671	H67	0.300100	0.255800	0.845000
H681	H68	0.362400	0.314600	0.822000
H691	H69	0.459700	0.243500	0.778800
H701	H70	0.397300	0.184700	0.801800
H711	H71	0.428200	0.341300	0.831800
H721	H72	0.566400	0.433000	0.702400
H731	H73	0.506000	0.325200	0.706400
H741	H74	0.639500	0.418000	0.648800
H751	H75	0.707500	0.434100	0.568600
H761	H76	0.620000	0.402200	0.528000
H771	H77	0.550600	0.380200	0.615200
H781	H78	0.429300	0.429200	0.816000
H791	H79	0.427600	0.471600	0.855600
H801	H80	0.559300	0.466400	0.824200
H811	H81	0.564900	0.426500	0.782600
H821	H82	0.395400	0.032900	0.772600
H831	H83	0.456000	0.993900	0.767600
H841	H84	0.362900	0.877400	0.923400
H851	H85	0.302600	0.914200	0.932600
H861	H86	0.511000	0.982200	0.795200
H871	H87	0.569800	0.872400	0.835000
H881	H88	0.426400	0.842600	0.884000
H891	H89	0.537600	0.790000	0.831400
H901	H90	0.525900	0.706700	0.886200
H911	H91	0.428000	0.693600	0.025400
H921	H92	0.439200	0.778200	0.975200
H931	H93	0.560500	0.018400	0.801600
H941	H94	0.633900	0.079400	0.758800
H951	H95	0.715600	0.001100	0.707800
H961	H96	0.640000	0.940500	0.752400
H971	H97	0.344200	0.757300	0.491200
H981	H98	0.825900	0.515000	0.328200
H991	H99	0.189800	0.665300	0.564600
H1001	H100	0.916500	0.646000	0.131200
H1011	H101	0.972400	0.704900	0.039800
H1021	H102	0.050100	0.610100	0.027800
H1031	H103	0.991000	0.551600	0.118800
H1041	H104	0.062400	0.756500	0.987200
H1051	H105	0.163800	0.812600	0.824200
H1061	H106	0.072500	0.672800	0.927200
H1071	H107	0.219400	0.768700	0.787600
H1081	H108	0.255900	0.757400	0.717200
H1091	H109	0.124000	0.686900	0.766200
H1101	H110	0.085600	0.706000	0.831000
H1111	H111	0.116900	0.813500	0.968800
H1121	H112	0.139200	0.887400	0.957800
H1131	H113	0.173200	0.961100	0.803200
H1141	H114	0.146100	0.887000	0.816200
H1151	H115	0.649200	0.550100	0.345000
H1161	H116	0.613400	0.612400	0.322000
H1171	H117	0.727700	0.709700	0.278800
H1181	H118	0.763500	0.647300	0.301800
H1191	H119	0.576900	0.678200	0.331800
H1201	H120	0.614600	0.816400	0.202400
H1211	H121	0.718400	0.756000	0.206400
H1221	H122	0.683200	0.889500	0.148800
H1231	H123	0.747300	0.957500	0.068600
H1241	H124	0.819800	0.870000	0.028000
H1251	H125	0.754600	0.800600	0.115200
H1261	H126	0.504800	0.679300	0.316000
H1271	H127	0.422800	0.677600	0.355600
H1281	H128	0.459400	0.809300	0.324200
H1291	H129	0.540900	0.814900	0.282600
H1301	H130	0.944500	0.645400	0.272600
H1311	H131	0.988500	0.706000	0.267600
H1321	H132	0.949200	0.612900	0.423400
H1331	H133	0.903200	0.552600	0.432600
H1341	H134	0.972600	0.761000	0.295200
H1351	H135	0.042600	0.819800	0.335000
H1361	H136	0.023400	0.676400	0.384000
H1371	H137	0.128600	0.787600	0.331400
H1381	H138	0.157100	0.775900	0.386200
H1391	H139	0.031000	0.678000	0.525400
H1401	H140	0.996600	0.689200	0.475200
H1411	H141	0.930000	0.810500	0.301600
H1421	H142	0.911800	0.883900	0.258800
H1431	H143	0.041100	0.965600	0.207800
H1441	H144	0.057100	0.890000	0.252400
H1451	H145	0.164600	0.751500	0.491200
H1461	H146	0.845900	0.156800	0.328200
H1471	H147	0.245600	0.770100	0.564600
H1481	H148	0.952300	0.222800	0.131200
H1491	H149	0.987800	0.255300	0.039800
H1501	H150	0.922100	0.362100	0.027800
H1511	H151	0.890200	0.329600	0.118800
H1521	H152	0.950400	0.256300	0.987200
H1531	H153	0.012000	0.363200	0.824200
H1541	H154	0.000300	0.400000	0.927200
H1551	H155	0.993000	0.443700	0.787600
H1561	H156	0.026900	0.525400	0.717200
H1571	H157	0.109800	0.546900	0.766200
H1581	H158	0.083400	0.463000	0.831000
H1591	H159	0.914300	0.217700	0.968800
H1601	H160	0.903000	0.154800	0.957800
H1611	H161	0.023600	0.235700	0.803200
H1621	H162	0.037700	0.296800	0.816200
H1631	H163	0.005800	0.104900	0.345000
H1641	H164	0.064600	0.065600	0.322000
H1651	H165	0.993500	0.011500	0.278800
H1661	H166	0.934700	0.050900	0.301800
H1671	H167	0.091300	0.990000	0.331800
H1681	H168	0.183000	0.981200	0.202400
H1691	H169	0.075200	0.037600	0.206400
H1701	H170	0.168000	0.961700	0.148800
H1711	H171	0.184100	0.973900	0.068600
H1721	H172	0.152200	0.102000	0.028000
H1731	H173	0.130200	0.084200	0.115200
H1741	H174	0.179200	0.004700	0.316000
H1751	H175	0.221600	0.966800	0.355600
H1761	H176	0.216400	0.866500	0.324200
H1771	H177	0.176500	0.902500	0.282600
H1781	H178	0.782900	0.082000	0.272600
H1791	H179	0.743900	0.026400	0.267600
H1801	H180	0.627400	0.963700	0.423400
H1811	H181	0.664200	0.014800	0.432600
H1821	H182	0.732200	0.943800	0.295200
H1831	H183	0.622400	0.845200	0.335000
H1841	H184	0.592600	0.939600	0.384000
H1851	H185	0.540000	0.881000	0.331400
H1861	H186	0.456700	0.837900	0.386200
H1871	H187	0.443600	0.796600	0.525400
H1881	H188	0.528200	0.835600	0.475200
H1891	H189	0.768400	0.887900	0.301600
H1901	H190	0.829400	0.857300	0.258800
H1911	H191	0.751100	0.826600	0.207800
H1921	H192	0.690500	0.857600	0.252400
H1931	H193	0.242700	0.655800	0.508800
H1941	H194	0.485000	0.174100	0.671800
H1951	H195	0.334700	0.810200	0.435400
H1961	H196	0.354000	0.083500	0.868800
H1971	H197	0.295100	0.027600	0.960200
H1981	H198	0.389900	0.949900	0.972200
H1991	H199	0.448400	0.009000	0.881200
H2001	H200	0.243500	0.937600	0.012800
H2011	H201	0.187400	0.836200	0.175800
H2021	H202	0.327200	0.927500	0.072800
H2031	H203	0.231300	0.780600	0.212400
H2041	H204	0.242600	0.744100	0.282800
H2051	H205	0.313100	0.876000	0.233800
H2061	H206	0.294000	0.914400	0.169000
H2071	H207	0.186500	0.883100	0.031200
H2081	H208	0.112600	0.860800	0.042200
H2091	H209	0.038900	0.826800	0.196800
H2101	H210	0.113000	0.853900	0.183800
H2111	H211	0.449900	0.350800	0.655000
H2121	H212	0.387600	0.386600	0.678000
H2131	H213	0.290300	0.272300	0.721200
H2141	H214	0.352700	0.236500	0.698200
H2151	H215	0.321800	0.423100	0.668200
H2161	H216	0.183600	0.385400	0.797600
H2171	H217	0.244000	0.281600	0.793600
H2181	H218	0.110500	0.316800	0.851200
H2191	H219	0.042500	0.252700	0.931400
H2201	H220	0.130000	0.180200	0.972000
H2211	H221	0.199400	0.245400	0.884800
H2221	H222	0.320700	0.495200	0.684000
H2231	H223	0.322400	0.577200	0.644400
H2241	H224	0.190700	0.540600	0.675800
H2251	H225	0.185100	0.459100	0.717400
H2261	H226	0.354600	0.055500	0.727400
H2271	H227	0.294000	0.011500	0.732400
H2281	H228	0.387100	0.050800	0.576600
H2291	H229	0.447400	0.096800	0.567400
H2301	H230	0.239000	0.027400	0.704800
H2311	H231	0.180200	0.957400	0.665000
H2321	H232	0.323600	0.976600	0.616000
H2331	H233	0.212400	0.871400	0.668600
H2341	H234	0.224100	0.842900	0.613800
H2351	H235	0.322000	0.969000	0.474600
H2361	H236	0.310800	0.003400	0.524800
H2371	H237	0.189500	0.070000	0.698400
H2381	H238	0.116100	0.088200	0.741200
H2391	H239	0.034400	0.958900	0.792200
H2401	H240	0.110000	0.942900	0.747600
H2411	H241	0.248500	0.835400	0.508800
H2421	H242	0.843200	0.154100	0.671800
H2431	H243	0.229900	0.754400	0.435400
H2441	H244	0.777200	0.047700	0.868800
H2451	H245	0.744700	0.012200	0.960200
H2461	H246	0.637900	0.077900	0.972200
H2471	H247	0.670400	0.109800	0.881200
H2481	H248	0.743700	0.049600	0.012800
H2491	H249	0.636800	0.988000	0.175800
H2501	H250	0.600000	0.999700	0.072800
H2511	H251	0.556300	0.007000	0.212400
H2521	H252	0.474600	0.973100	0.282800
H2531	H253	0.453100	0.890200	0.233800
H2541	H254	0.537000	0.916600	0.169000
H2551	H255	0.782300	0.085700	0.031200
H2561	H256	0.845200	0.097000	0.042200
H2571	H257	0.764300	0.976400	0.196800
H2581	H258	0.703200	0.962300	0.183800
H2591	H259	0.895100	0.994200	0.655000
H2601	H260	0.934400	0.935400	0.678000
H2611	H261	0.988500	0.006500	0.721200
H2621	H262	0.949100	0.065300	0.698200
H2631	H263	0.010000	0.908700	0.668200
H2641	H264	0.018800	0.817000	0.797600
H2651	H265	0.962400	0.924800	0.793600
H2661	H266	0.038300	0.832000	0.851200
H2671	H267	0.026100	0.815900	0.931400
H2681	H268	0.898000	0.847800	0.972000
H2691	H269	0.915800	0.869800	0.884800
H2701	H270	0.995300	0.820800	0.684000
H2711	H271	0.033200	0.778400	0.644400
H2721	H272	0.133500	0.783600	0.675800
H2731	H273	0.097500	0.823500	0.717400
H2741	H274	0.918000	0.217100	0.727400
H2751	H275	0.973600	0.256100	0.732400
H2761	H276	0.036300	0.372600	0.576600
H2771	H277	0.985200	0.335800	0.567400
H2781	H278	0.056200	0.267800	0.704800
H2791	H279	0.154800	0.377600	0.665000
H2801	H280	0.060400	0.407400	0.616000
H2811	H281	0.119000	0.460000	0.668600
H2821	H282	0.162100	0.543300	0.613800
H2831	H283	0.203400	0.556400	0.474600
H2841	H284	0.164400	0.471800	0.524800
H2851	H285	0.112100	0.231600	0.698400
H2861	H286	0.142700	0.170600	0.741200
H2871	H287	0.173400	0.248900	0.792200
H2881	H288	0.142400	0.309500	0.747600
H2891	H289	0.585400	0.492700	0.008800
H2901	H290	0.904100	0.735000	0.171800
H2911	H291	0.504400	0.584700	0.935400
H2921	H292	0.797700	0.604000	0.368800
H2931	H293	0.762200	0.545100	0.460200
H2941	H294	0.827900	0.639900	0.472200
H2951	H295	0.859800	0.698400	0.381200
H2961	H296	0.799600	0.493500	0.512800
H2971	H297	0.738000	0.437400	0.675800
H2981	H298	0.749700	0.577200	0.572800
H2991	H299	0.757000	0.481300	0.712400
H3001	H300	0.723100	0.492600	0.782800
H3011	H301	0.640200	0.563100	0.733800
H3021	H302	0.666600	0.544000	0.669000
H3031	H303	0.835700	0.436500	0.531200
H3041	H304	0.847000	0.362600	0.542200
H3051	H305	0.726400	0.288900	0.696800
H3061	H306	0.712300	0.363000	0.683800
H3071	H307	0.744200	0.699900	0.155000
H3081	H308	0.685400	0.637600	0.178000
H3091	H309	0.756500	0.540300	0.221200
H3101	H310	0.815300	0.602700	0.198200
H3111	H311	0.658700	0.571800	0.168200
H3121	H312	0.567000	0.433600	0.297600
H3131	H313	0.674800	0.494000	0.293600
H3141	H314	0.582000	0.360500	0.351200
H3151	H315	0.565900	0.292500	0.431400
H3161	H316	0.597800	0.380000	0.472000
H3171	H317	0.619800	0.449400	0.384800
H3181	H318	0.570800	0.570700	0.184000
H3191	H319	0.528400	0.572400	0.144400
H3201	H320	0.533600	0.440700	0.175800
H3211	H321	0.573500	0.435100	0.217400
H3221	H322	0.967100	0.604600	0.227400
H3231	H323	0.006100	0.544000	0.232400
H3241	H324	0.122600	0.637100	0.076600
H3251	H325	0.085800	0.697400	0.067400
H3261	H326	0.017800	0.489000	0.204800
H3271	H327	0.127600	0.430200	0.165000
H3281	H328	0.157400	0.573600	0.116000
H3291	H329	0.210000	0.462400	0.168600
H3301	H330	0.293300	0.474100	0.113800
H3311	H331	0.306400	0.572000	0.974600
H3321	H332	0.221800	0.560800	0.024800
H3331	H333	0.981600	0.439500	0.198400
H3341	H334	0.920600	0.366100	0.241200
H3351	H335	0.998900	0.284400	0.292200
H3361	H336	0.059500	0.360000	0.247600
H3371	H337	0.405800	0.498500	0.008800
H3381	H338	0.924100	0.093200	0.171800
H3391	H339	0.560200	0.479900	0.935400
H3401	H340	0.833500	0.027200	0.368800
H3411	H341	0.777600	0.994700	0.460200
H3421	H342	0.699900	0.887900	0.472200
H3431	H343	0.759000	0.920400	0.381200
H3441	H344	0.687600	0.993700	0.512800
H3451	H345	0.586200	0.886800	0.675800
H3461	H346	0.677500	0.850000	0.572800
H3471	H347	0.530600	0.806300	0.712400
H3481	H348	0.494100	0.724600	0.782800
H3491	H349	0.626000	0.703100	0.733800
H3501	H350	0.664400	0.787000	0.669000
H3511	H351	0.633100	0.032300	0.531200
H3521	H352	0.610800	0.095200	0.542200
H3531	H353	0.576800	0.014300	0.696800
H3541	H354	0.603900	0.953200	0.683800
H3551	H355	0.100800	0.145100	0.155000
H3561	H356	0.136600	0.184400	0.178000
H3571	H357	0.022300	0.238500	0.221200
H3581	H358	0.986500	0.199100	0.198200
H3591	H359	0.173100	0.260000	0.168200
H3601	H360	0.135400	0.268800	0.297600
H3611	H361	0.031600	0.212400	0.293600
H3621	H362	0.066800	0.288300	0.351200
H3631	H363	0.002700	0.276100	0.431400
H3641	H364	0.930200	0.148000	0.472000
H3651	H365	0.995400	0.165800	0.384800
H3661	H366	0.245200	0.245300	0.184000
H3671	H367	0.327200	0.283200	0.144400
H3681	H368	0.290600	0.383500	0.175800
H3691	H369	0.209100	0.347500	0.217400
H3701	H370	0.805500	0.168000	0.227400
H3711	H371	0.761500	0.223600	0.232400
H3721	H372	0.800800	0.286300	0.076600
H3731	H373	0.846800	0.235200	0.067400
H3741	H374	0.777400	0.306200	0.204800
H3751	H375	0.707400	0.404800	0.165000
H3761	H376	0.726600	0.310400	0.116000
H3771	H377	0.621400	0.369000	0.168600
H3781	H378	0.592900	0.412100	0.113800
H3791	H379	0.719000	0.453400	0.974600
H3801	H380	0.753400	0.414400	0.024800
H3811	H381	0.820000	0.362100	0.198400
H3821	H382	0.838200	0.392700	0.241200
H3831	H383	0.708900	0.423400	0.292200
H3841	H384	0.692900	0.392400	0.247600
C11	C1	0.999790	0.159490	0.696820
C21	C2	0.023000	0.196800	0.634260
C31	C3	0.001280	0.193210	0.609980
C41	C4	0.019900	0.227470	0.555860
C51	C5	0.060210	0.270140	0.522520
C61	C6	0.083850	0.273550	0.548300
C71	C7	0.064620	0.238020	0.602160
C81	C8	0.076770	0.312590	0.464660
C91	C9	0.039620	0.327320	0.456960
C101	C10	0.052790	0.364320	0.403760
C111	C11	0.104330	0.387430	0.359340
C121	C12	0.141550	0.372550	0.366300
C131	C13	0.126200	0.333620	0.420560
C141	C14	0.195460	0.399160	0.318680
C151	C15	0.213880	0.449580	0.283240
C161	C16	0.263390	0.471490	0.242020
C171	C17	0.296400	0.443200	0.234600
C181	C18	0.275920	0.393320	0.269360
C191	C19	0.226290	0.370090	0.309620
C201	C20	0.351160	0.468560	0.189680
C211	C21	0.015660	0.379660	0.393880
C221	C22	0.971760	0.377960	0.434880
C231	C23	0.933070	0.390570	0.428860
C241	C24	0.936670	0.408270	0.379260
C251	C25	0.981300	0.410400	0.337600
C261	C26	0.018580	0.395280	0.345040
C271	C27	0.956160	0.148560	0.870480
C281	C28	0.860830	0.985830	0.835140
C291	C29	0.831760	0.959880	0.825740
C301	C30	0.836190	0.914940	0.831780
C311	C31	0.812660	0.893510	0.817960
C321	C32	0.784690	0.917010	0.798120
C331	C33	0.780260	0.961950	0.792080
C341	C34	0.803790	0.983380	0.805900
C351	C35	0.766510	0.899430	0.773120
C361	C36	0.745560	0.850780	0.797240
C371	C37	0.731020	0.835820	0.771560
C381	C38	0.740670	0.873870	0.719860
C391	C39	0.762230	0.923610	0.693580
C401	C40	0.774600	0.934990	0.721420
C411	C41	0.769940	0.961550	0.641720
C421	C42	0.739540	0.961140	0.625520
C431	C43	0.747560	0.999160	0.576280
C441	C44	0.790310	0.041010	0.537180
C451	C45	0.823140	0.042840	0.552120
C461	C46	0.812020	0.003320	0.605360
C471	C47	0.707670	0.782470	0.796860
C481	C48	0.725880	0.746480	0.818240
C491	C49	0.703760	0.696860	0.840680
C501	C50	0.663850	0.681800	0.843160
C511	C51	0.645220	0.719070	0.821520
C521	C52	0.666020	0.767620	0.797960
C531	C53	0.495690	0.508790	0.133420
C541	C54	0.837580	0.137210	0.858980
C551	C55	0.803710	0.168860	0.852740
C561	C56	0.807580	0.194210	0.803400
C571	C57	0.773770	0.220290	0.801460
C581	C58	0.735840	0.220690	0.846920
C591	C59	0.735470	0.196570	0.893860
C601	C60	0.767340	0.170640	0.898920
C611	C61	0.697190	0.242590	0.842020
C621	C62	0.678800	0.237300	0.814600
C631	C63	0.640830	0.253630	0.813940
C641	C64	0.619470	0.279070	0.838460
C651	C65	0.636350	0.284350	0.866900
C661	C66	0.676700	0.267510	0.867000
C671	C67	0.612790	0.309030	0.898220
C681	C68	0.614980	0.358350	0.870040
C691	C69	0.586180	0.373780	0.904440
C701	C70	0.559600	0.347890	0.962000
C711	C71	0.562360	0.300310	0.986680
C721	C72	0.586430	0.279630	0.956340
C731	C73	0.475440	0.638940	0.993320
C741	C74	0.622250	0.242650	0.786100
C751	C75	0.624590	0.201890	0.784220
C761	C76	0.606350	0.190950	0.757700
C771	C77	0.588380	0.224980	0.730040
C781	C78	0.588690	0.268290	0.726220
C791	C79	0.606350	0.277150	0.755300
C801	C80	0.024800	0.037900	0.794000
C811	C81	0.799540	0.081840	0.483920
C821	C82	0.303390	0.143690	0.696820
C831	C83	0.342740	0.168940	0.634260
C841	C84	0.388740	0.196810	0.609980
C851	C85	0.424240	0.216670	0.555860
C861	C86	0.417270	0.207340	0.522520
C871	C87	0.367850	0.178150	0.548300
C881	C88	0.333220	0.159820	0.602160
C891	C89	0.458570	0.222750	0.464660
C901	C90	0.503420	0.215720	0.456960
C911	C91	0.543450	0.231920	0.403760
C921	C92	0.536330	0.253230	0.359340
C931	C93	0.492150	0.261150	0.366300
C941	C94	0.453240	0.245820	0.420560
C951	C95	0.485860	0.282160	0.318680
C961	C96	0.502880	0.267180	0.283240
C971	C97	0.494590	0.286490	0.242020
C981	C98	0.469000	0.322200	0.234600
C991	C99	0.454720	0.337320	0.269360
C1001	C100	0.464090	0.320290	0.309620
C1011	C101	0.459160	0.341760	0.189680
C1021	C102	0.590460	0.226460	0.393880
C1031	C103	0.593360	0.187160	0.434880
C1041	C104	0.638070	0.180570	0.428860
C1051	C105	0.684070	0.212470	0.379260
C1061	C106	0.681100	0.252000	0.337600
C1071	C107	0.636380	0.259680	0.345040
C1081	C108	0.173360	0.980960	0.870480
C1091	C109	0.304030	0.179030	0.835140
C1101	C110	0.342500	0.214380	0.825740
C1111	C111	0.332030	0.253280	0.831780
C1121	C112	0.369380	0.288530	0.817960
C1131	C113	0.417190	0.284870	0.798120
C1141	C114	0.427660	0.245970	0.792080
C1151	C115	0.390310	0.210720	0.805900
C1161	C116	0.460370	0.327450	0.773120
C1171	C117	0.457200	0.351980	0.797240
C1181	C118	0.497420	0.392620	0.771560
C1191	C119	0.539470	0.406270	0.719860
C1201	C120	0.544190	0.382810	0.693580
C1211	C121	0.503980	0.343590	0.721420
C1221	C122	0.588340	0.396730	0.641720
C1231	C123	0.634940	0.413340	0.625520
C1241	C124	0.676160	0.424560	0.576280
C1251	C125	0.672510	0.421810	0.537180
C1261	C126	0.624740	0.405040	0.552120
C1271	C127	0.582620	0.391320	0.605360
C1281	C128	0.495470	0.420670	0.796860
C1291	C129	0.455880	0.435280	0.818240
C1301	C130	0.455560	0.462460	0.840680
C1311	C131	0.492990	0.475040	0.843160
C1321	C132	0.533260	0.459410	0.821520
C1331	C133	0.536020	0.434420	0.797960
C1341	C134	0.370890	0.357790	0.133420
C1351	C135	0.303440	0.003810	0.858980
C1361	C136	0.343550	0.978400	0.852740
C1371	C137	0.389020	0.002390	0.803400
C1381	C138	0.424770	0.978250	0.801460
C1391	C139	0.417240	0.932390	0.846920
C1401	C140	0.370670	0.909570	0.893860
C1411	C141	0.333740	0.930440	0.898920
C1421	C142	0.460790	0.915390	0.842020
C1431	C143	0.506600	0.948100	0.814600
C1441	C144	0.545230	0.932430	0.813940
C1451	C145	0.542070	0.882470	0.838460
C1461	C146	0.496750	0.848750	0.866900
C1471	C147	0.456300	0.865490	0.867000
C1481	C148	0.488990	0.792750	0.898220
C1491	C149	0.514980	0.771610	0.870040
C1501	C150	0.509380	0.721780	0.904440
C1511	C151	0.478400	0.690110	0.962000
C1521	C152	0.450960	0.713010	0.986680
C1531	C153	0.457230	0.764030	0.956340
C1541	C154	0.531240	0.367740	0.993320
C1551	C155	0.591650	0.971250	0.786100
C1561	C156	0.591190	0.013890	0.784220
C1571	C157	0.635950	0.051350	0.757700
C1581	C158	0.681580	0.044980	0.730040
C1591	C159	0.685090	0.005490	0.726220
C1601	C160	0.638350	0.967550	0.755300
C1611	C161	0.181200	0.168100	0.794000
C1621	C162	0.716540	0.434240	0.483920
C1631	C163	0.909490	0.553390	0.196820
C1641	C164	0.946800	0.592740	0.134260
C1651	C165	0.943210	0.638740	0.109980
C1661	C166	0.977470	0.674240	0.055860
C1671	C167	0.020140	0.667270	0.022520
C1681	C168	0.023550	0.617850	0.048300
C1691	C169	0.988020	0.583220	0.102160
C1701	C170	0.062590	0.708570	0.964660
C1711	C171	0.077320	0.753420	0.956960
C1721	C172	0.114320	0.793450	0.903760
C1731	C173	0.137430	0.786330	0.859340
C1741	C174	0.122550	0.742150	0.866300
C1751	C175	0.083620	0.703240	0.920560
C1761	C176	0.149160	0.735860	0.818680
C1771	C177	0.199580	0.752880	0.783240
C1781	C178	0.221490	0.744590	0.742020
C1791	C179	0.193200	0.719000	0.734600
C1801	C180	0.143320	0.704720	0.769360
C1811	C181	0.120090	0.714090	0.809620
C1821	C182	0.218560	0.709160	0.689680
C1831	C183	0.129660	0.840460	0.893880
C1841	C184	0.127960	0.843360	0.934880
C1851	C185	0.140570	0.888070	0.928860
C1861	C186	0.158270	0.934070	0.879260
C1871	C187	0.160400	0.931100	0.837600
C1881	C188	0.145280	0.886380	0.845040
C1891	C189	0.898560	0.423360	0.370480
C1901	C190	0.735830	0.554030	0.335140
C1911	C191	0.709880	0.592500	0.325740
C1921	C192	0.664940	0.582030	0.331780
C1931	C193	0.643510	0.619380	0.317960
C1941	C194	0.667010	0.667190	0.298120
C1951	C195	0.711950	0.677660	0.292080
C1961	C196	0.733380	0.640310	0.305900
C1971	C197	0.649430	0.710370	0.273120
C1981	C198	0.600780	0.707200	0.297240
C1991	C199	0.585820	0.747420	0.271560
C2001	C200	0.623870	0.789470	0.219860
C2011	C201	0.673610	0.794190	0.193580
C2021	C202	0.684990	0.753980	0.221420
C2031	C203	0.711550	0.838340	0.141720
C2041	C204	0.711140	0.884940	0.125520
C2051	C205	0.749160	0.926160	0.076280
C2061	C206	0.791010	0.922510	0.037180
C2071	C207	0.792840	0.874740	0.052120
C2081	C208	0.753320	0.832620	0.105360
C2091	C209	0.532470	0.745470	0.296860
C2101	C210	0.496480	0.705880	0.318240
C2111	C211	0.446860	0.705560	0.340680
C2121	C212	0.431800	0.742990	0.343160
C2131	C213	0.469070	0.783260	0.321520
C2141	C214	0.517620	0.786020	0.297960
C2151	C215	0.258790	0.620890	0.633420
C2161	C216	0.887210	0.553440	0.358980
C2171	C217	0.918860	0.593550	0.352740
C2181	C218	0.944210	0.639020	0.303400
C2191	C219	0.970290	0.674770	0.301460
C2201	C220	0.970690	0.667240	0.346920
C2211	C221	0.946570	0.620670	0.393860
C2221	C222	0.920640	0.583740	0.398920
C2231	C223	0.992590	0.710790	0.342020
C2241	C224	0.987300	0.756600	0.314600
C2251	C225	0.003630	0.795230	0.313940
C2261	C226	0.029070	0.792070	0.338460
C2271	C227	0.034350	0.746750	0.366900
C2281	C228	0.017510	0.706300	0.367000
C2291	C229	0.059030	0.738990	0.398220
C2301	C230	0.108350	0.764980	0.370040
C2311	C231	0.123780	0.759380	0.404440
C2321	C232	0.097890	0.728400	0.462000
C2331	C233	0.050310	0.700960	0.486680
C2341	C234	0.029630	0.707230	0.456340
C2351	C235	0.388940	0.781240	0.493320
C2361	C236	0.992650	0.841650	0.286100
C2371	C237	0.951890	0.841190	0.284220
C2381	C238	0.940950	0.885950	0.257700
C2391	C239	0.974980	0.931580	0.230040
C2401	C240	0.018290	0.935090	0.226220
C2411	C241	0.027150	0.888350	0.255300
C2421	C242	0.787900	0.431200	0.294000
C2431	C243	0.831840	0.966540	0.983920
C2441	C244	0.893690	0.249790	0.196820
C2451	C245	0.918940	0.273000	0.134260
C2461	C246	0.946810	0.251280	0.109980
C2471	C247	0.966670	0.269900	0.055860
C2481	C248	0.957340	0.310210	0.022520
C2491	C249	0.928150	0.333850	0.048300
C2501	C250	0.909820	0.314620	0.102160
C2511	C251	0.972750	0.326770	0.964660
C2521	C252	0.965720	0.289620	0.956960
C2531	C253	0.981920	0.302790	0.903760
C2541	C254	0.003230	0.354330	0.859340
C2551	C255	0.011150	0.391550	0.866300
C2561	C256	0.995820	0.376200	0.920560
C2571	C257	0.032160	0.445460	0.818680
C2581	C258	0.017180	0.463880	0.783240
C2591	C259	0.036490	0.513390	0.742020
C2601	C260	0.072200	0.546400	0.734600
C2611	C261	0.087320	0.525920	0.769360
C2621	C262	0.070290	0.476290	0.809620
C2631	C263	0.091760	0.601160	0.689680
C2641	C264	0.976460	0.265660	0.893880
C2651	C265	0.937160	0.221760	0.934880
C2661	C266	0.930570	0.183070	0.928860
C2671	C267	0.962470	0.186670	0.879260
C2681	C268	0.002000	0.231300	0.837600
C2691	C269	0.009680	0.268580	0.845040
C2701	C270	0.730960	0.206160	0.370480
C2711	C271	0.929030	0.110830	0.335140
C2721	C272	0.964380	0.081760	0.325740
C2731	C273	0.003280	0.086190	0.331780
C2741	C274	0.038530	0.062660	0.317960
C2751	C275	0.034870	0.034690	0.298120
C2761	C276	0.995970	0.030260	0.292080
C2771	C277	0.960720	0.053790	0.305900
C2781	C278	0.077450	0.016510	0.273120
C2791	C279	0.101980	0.995560	0.297240
C2801	C280	0.142620	0.981020	0.271560
C2811	C281	0.156270	0.990670	0.219860
C2821	C282	0.132810	0.012230	0.193580
C2831	C283	0.093590	0.024600	0.221420
C2841	C284	0.146730	0.019940	0.141720
C2851	C285	0.163340	0.989540	0.125520
C2861	C286	0.174560	0.997560	0.076280
C2871	C287	0.171810	0.040310	0.037180
C2881	C288	0.155040	0.073140	0.052120
C2891	C289	0.141320	0.062020	0.105360
C2901	C290	0.170670	0.957670	0.296860
C2911	C291	0.185280	0.975880	0.318240
C2921	C292	0.212460	0.953760	0.340680
C2931	C293	0.225040	0.913850	0.343160
C2941	C294	0.209410	0.895220	0.321520
C2951	C295	0.184420	0.916020	0.297960
C2961	C296	0.107790	0.745690	0.633420
C2971	C297	0.753810	0.087580	0.358980
C2981	C298	0.728400	0.053710	0.352740
C2991	C299	0.752390	0.057580	0.303400
C3001	C300	0.728250	0.023770	0.301460
C3011	C301	0.682390	0.985840	0.346920
C3021	C302	0.659570	0.985470	0.393860
C3031	C303	0.680440	0.017340	0.398920
C3041	C304	0.665390	0.947190	0.342020
C3051	C305	0.698100	0.928800	0.314600
C3061	C306	0.682430	0.890830	0.313940
C3071	C307	0.632470	0.869470	0.338460
C3081	C308	0.598750	0.886350	0.366900
C3091	C309	0.615490	0.926700	0.367000
C3101	C310	0.542750	0.862790	0.398220
C3111	C311	0.521610	0.864980	0.370040
C3121	C312	0.471780	0.836180	0.404440
C3131	C313	0.440110	0.809600	0.462000
C3141	C314	0.463010	0.812360	0.486680
C3151	C315	0.514030	0.836430	0.456340
C3161	C316	0.117740	0.725440	0.493320
C3171	C317	0.721250	0.872250	0.286100
C3181	C318	0.763890	0.874590	0.284220
C3191	C319	0.801350	0.856350	0.257700
C3201	C320	0.794980	0.838380	0.230040
C3211	C321	0.755490	0.838690	0.226220
C3221	C322	0.717550	0.856350	0.255300
C3231	C323	0.918100	0.274800	0.294000
C3241	C324	0.184240	0.049540	0.983920
C3251	C325	0.446610	0.090510	0.803180
C3261	C326	0.407260	0.053200	0.865740
C3271	C327	0.361260	0.056790	0.890020
C3281	C328	0.325760	0.022530	0.944140
C3291	C329	0.332730	0.979860	0.977480
C3301	C330	0.382150	0.976450	0.951700
C3311	C331	0.416780	0.011980	0.897840
C3321	C332	0.291430	0.937410	0.035340
C3331	C333	0.246580	0.922680	0.043040
C3341	C334	0.206550	0.885680	0.096240
C3351	C335	0.213670	0.862570	0.140660
C3361	C336	0.257850	0.877450	0.133700
C3371	C337	0.296760	0.916380	0.079440
C3381	C338	0.264140	0.850840	0.181320
C3391	C339	0.247120	0.800420	0.216760
C3401	C340	0.255410	0.778510	0.257980
C3411	C341	0.281000	0.806800	0.265400
C3421	C342	0.295280	0.856680	0.230640
C3431	C343	0.285910	0.879910	0.190380
C3441	C344	0.290840	0.781440	0.310320
C3451	C345	0.159540	0.870340	0.106120
C3461	C346	0.156640	0.872040	0.065120
C3471	C347	0.111930	0.859430	0.071140
C3481	C348	0.065930	0.841730	0.120740
C3491	C349	0.068900	0.839600	0.162400
C3501	C350	0.113620	0.854720	0.154960
C3511	C351	0.576640	0.101440	0.629520
C3521	C352	0.445970	0.264170	0.664860
C3531	C353	0.407500	0.290120	0.674260
C3541	C354	0.417970	0.335060	0.668220
C3551	C355	0.380620	0.356490	0.682040
C3561	C356	0.332810	0.332990	0.701880
C3571	C357	0.322340	0.288050	0.707920
C3581	C358	0.359690	0.266620	0.694100
C3591	C359	0.289630	0.350570	0.726880
C3601	C360	0.292800	0.399220	0.702760
C3611	C361	0.252580	0.414180	0.728440
C3621	C362	0.210530	0.376130	0.780140
C3631	C363	0.205810	0.326390	0.806420
C3641	C364	0.246020	0.315010	0.778580
C3651	C365	0.161660	0.288450	0.858280
C3661	C366	0.115060	0.288860	0.874480
C3671	C367	0.073840	0.250840	0.923720
C3681	C368	0.077490	0.208990	0.962820
C3691	C369	0.125260	0.207160	0.947880
C3701	C370	0.167380	0.246680	0.894640
C3711	C371	0.254530	0.467530	0.703140
C3721	C372	0.294120	0.503520	0.681760
C3731	C373	0.294440	0.553140	0.659320
C3741	C374	0.257010	0.568200	0.656840
C3751	C375	0.216740	0.530930	0.678480
C3761	C376	0.213980	0.482380	0.702040
C3771	C377	0.379110	0.741210	0.366580
C3781	C378	0.446560	0.112790	0.641020
C3791	C379	0.406450	0.081140	0.647260
C3801	C380	0.360980	0.055790	0.696600
C3811	C381	0.325230	0.029710	0.698540
C3821	C382	0.332760	0.029310	0.653080
C3831	C383	0.379330	0.053430	0.606140
C3841	C384	0.416260	0.079360	0.601080
C3851	C385	0.289210	0.007410	0.657980
C3861	C386	0.243400	0.012700	0.685400
C3871	C387	0.204770	0.996370	0.686060
C3881	C388	0.207930	0.970930	0.661540
C3891	C389	0.253250	0.965650	0.633100
C3901	C390	0.293700	0.982490	0.633000
C3911	C391	0.261010	0.940970	0.601780
C3921	C392	0.235020	0.891650	0.629960
C3931	C393	0.240620	0.876220	0.595560
C3941	C394	0.271600	0.902110	0.538000
C3951	C395	0.299040	0.949690	0.513320
C3961	C396	0.292770	0.970370	0.543660
C3971	C397	0.218760	0.611060	0.506680
C3981	C398	0.158350	0.007350	0.713900
C3991	C399	0.158810	0.048110	0.715780
C4001	C400	0.114050	0.059050	0.742300
C4011	C401	0.068420	0.025020	0.769960
C4021	C402	0.064910	0.981710	0.773780
C4031	C403	0.111650	0.972850	0.744700
C4041	C404	0.568800	0.212100	0.706000
C4051	C405	0.033460	0.168160	0.016080
C4061	C406	0.750210	0.106310	0.803180
C4071	C407	0.727000	0.081060	0.865740
C4081	C408	0.748720	0.053190	0.890020
C4091	C409	0.730100	0.033330	0.944140
C4101	C410	0.689790	0.042660	0.977480
C4111	C411	0.666150	0.071850	0.951700
C4121	C412	0.685380	0.090180	0.897840
C4131	C413	0.673230	0.027250	0.035340
C4141	C414	0.710380	0.034280	0.043040
C4151	C415	0.697210	0.018080	0.096240
C4161	C416	0.645670	0.996770	0.140660
C4171	C417	0.608450	0.988850	0.133700
C4181	C418	0.623800	0.004180	0.079440
C4191	C419	0.554540	0.967840	0.181320
C4201	C420	0.536120	0.982820	0.216760
C4211	C421	0.486610	0.963510	0.257980
C4221	C422	0.453600	0.927800	0.265400
C4231	C423	0.474080	0.912680	0.230640
C4241	C424	0.523710	0.929710	0.190380
C4251	C425	0.398840	0.908240	0.310320
C4261	C426	0.734340	0.023540	0.106120
C4271	C427	0.778240	0.062840	0.065120
C4281	C428	0.816930	0.069430	0.071140
C4291	C429	0.813330	0.037530	0.120740
C4301	C430	0.768700	0.998000	0.162400
C4311	C431	0.731420	0.990320	0.154960
C4321	C432	0.793840	0.269040	0.629520
C4331	C433	0.889170	0.070970	0.664860
C4341	C434	0.918240	0.035620	0.674260
C4351	C435	0.913810	0.996720	0.668220
C4361	C436	0.937340	0.961470	0.682040
C4371	C437	0.965310	0.965130	0.701880
C4381	C438	0.969740	0.004030	0.707920
C4391	C439	0.946210	0.039280	0.694100
C4401	C440	0.983490	0.922550	0.726880
C4411	C441	0.004440	0.898020	0.702760
C4421	C442	0.018980	0.857380	0.728440
C4431	C443	0.009330	0.843730	0.780140
C4441	C444	0.987770	0.867190	0.806420
C4451	C445	0.975400	0.906410	0.778580
C4461	C446	0.980060	0.853270	0.858280
C4471	C447	0.010460	0.836660	0.874480
C4481	C448	0.002440	0.825440	0.923720
C4491	C449	0.959690	0.828190	0.962820
C4501	C450	0.926860	0.844960	0.947880
C4511	C451	0.937980	0.858680	0.894640
C4521	C452	0.042330	0.829330	0.703140
C4531	C453	0.024120	0.814720	0.681760
C4541	C454	0.046240	0.787540	0.659320
C4551	C455	0.086150	0.774960	0.656840
C4561	C456	0.104780	0.790590	0.678480
C4571	C457	0.083980	0.815580	0.702040
C4581	C458	0.254310	0.892210	0.366580
C4591	C459	0.912420	0.246190	0.641020
C4601	C460	0.946290	0.271600	0.647260
C4611	C461	0.942420	0.247610	0.696600
C4621	C462	0.976230	0.271750	0.698540
C4631	C463	0.014160	0.317610	0.653080
C4641	C464	0.014530	0.340430	0.606140
C4651	C465	0.982660	0.319560	0.601080
C4661	C466	0.052810	0.334610	0.657980
C4671	C467	0.071200	0.301900	0.685400
C4681	C468	0.109170	0.317570	0.686060
C4691	C469	0.130530	0.367530	0.661540
C4701	C470	0.113650	0.401250	0.633100
C4711	C471	0.073300	0.384510	0.633000
C4721	C472	0.137210	0.457250	0.601780
C4731	C473	0.135020	0.478390	0.629960
C4741	C474	0.163820	0.528220	0.595560
C4751	C475	0.190400	0.559890	0.538000
C4761	C476	0.187640	0.536990	0.513320
C4771	C477	0.163570	0.485970	0.543660
C4781	C478	0.274560	0.882260	0.506680
C4791	C479	0.127750	0.278750	0.713900
C4801	C480	0.125410	0.236110	0.715780
C4811	C481	0.143650	0.198650	0.742300
C4821	C482	0.161620	0.205020	0.769960
C4831	C483	0.161310	0.244510	0.773780
C4841	C484	0.143650	0.282450	0.744700
C4851	C485	0.725200	0.081900	0.706000
C4861	C486	0.950460	0.815760	0.016080
C4871	C487	0.856310	0.696610	0.303180
C4881	C488	0.831060	0.657260	0.365740
C4891	C489	0.803190	0.611260	0.390020
C4901	C490	0.783330	0.575760	0.444140
C4911	C491	0.792660	0.582730	0.477480
C4921	C492	0.821850	0.632150	0.451700
C4931	C493	0.840180	0.666780	0.397840
C4941	C494	0.777250	0.541430	0.535340
C4951	C495	0.784280	0.496580	0.543040
C4961	C496	0.768080	0.456550	0.596240
C4971	C497	0.746770	0.463670	0.640660
C4981	C498	0.738850	0.507850	0.633700
C4991	C499	0.754180	0.546760	0.579440
C5001	C500	0.717840	0.514140	0.681320
C5011	C501	0.732820	0.497120	0.716760
C5021	C502	0.713510	0.505410	0.757980
C5031	C503	0.677800	0.531000	0.765400
C5041	C504	0.662680	0.545280	0.730640
C5051	C505	0.679710	0.535910	0.690380
C5061	C506	0.658240	0.540840	0.810320
C5071	C507	0.773540	0.409540	0.606120
C5081	C508	0.812840	0.406640	0.565120
C5091	C509	0.819430	0.361930	0.571140
C5101	C510	0.787530	0.315930	0.620740
C5111	C511	0.748000	0.318900	0.662400
C5121	C512	0.740320	0.363620	0.654960
C5131	C513	0.019040	0.826640	0.129520
C5141	C514	0.820970	0.695970	0.164860
C5151	C515	0.785620	0.657500	0.174260
C5161	C516	0.746720	0.667970	0.168220
C5171	C517	0.711470	0.630620	0.182040
C5181	C518	0.715130	0.582810	0.201880
C5191	C519	0.754030	0.572340	0.207920
C5201	C520	0.789280	0.609690	0.194100
C5211	C521	0.672550	0.539630	0.226880
C5221	C522	0.648020	0.542800	0.202760
C5231	C523	0.607380	0.502580	0.228440
C5241	C524	0.593730	0.460530	0.280140
C5251	C525	0.617190	0.455810	0.306420
C5261	C526	0.656410	0.496020	0.278580
C5271	C527	0.603270	0.411660	0.358280
C5281	C528	0.586660	0.365060	0.374480
C5291	C529	0.575440	0.323840	0.423720
C5301	C530	0.578190	0.327490	0.462820
C5311	C531	0.594960	0.375260	0.447880
C5321	C532	0.608680	0.417380	0.394640
C5331	C533	0.579330	0.504530	0.203140
C5341	C534	0.564720	0.544120	0.181760
C5351	C535	0.537540	0.544440	0.159320
C5361	C536	0.524960	0.507010	0.156840
C5371	C537	0.540590	0.466740	0.178480
C5381	C538	0.565580	0.463980	0.202040
C5391	C539	0.642210	0.629110	0.866580
C5401	C540	0.996190	0.696560	0.141020
C5411	C541	0.021600	0.656450	0.147260
C5421	C542	0.997610	0.610980	0.196600
C5431	C543	0.021750	0.575230	0.198540
C5441	C544	0.067610	0.582760	0.153080
C5451	C545	0.090430	0.629330	0.106140
C5461	C546	0.069560	0.666260	0.101080
C5471	C547	0.084610	0.539210	0.157980
C5481	C548	0.051900	0.493400	0.185400
C5491	C549	0.067570	0.454770	0.186060
C5501	C550	0.117530	0.457930	0.161540
C5511	C551	0.151250	0.503250	0.133100
C5521	C552	0.134510	0.543700	0.133000
C5531	C553	0.207250	0.511010	0.101780
C5541	C554	0.228390	0.485020	0.129960
C5551	C555	0.278220	0.490620	0.095560
C5561	C556	0.309890	0.521600	0.038000
C5571	C557	0.286990	0.549040	0.013320
C5581	C558	0.235970	0.542770	0.043660
C5591	C559	0.632260	0.468760	0.006680
C5601	C560	0.028750	0.408350	0.213900
C5611	C561	0.986110	0.408810	0.215780
C5621	C562	0.948650	0.364050	0.242300
C5631	C563	0.955020	0.318420	0.269960
C5641	C564	0.994510	0.314910	0.273780
C5651	C565	0.032450	0.361650	0.244700
C5661	C566	0.831900	0.818800	0.206000
C5671	C567	0.565760	0.283460	0.516080
C5681	C568	0.840510	0.000210	0.303180
C5691	C569	0.803200	0.977000	0.365740
C5701	C570	0.806790	0.998720	0.390020
C5711	C571	0.772530	0.980100	0.444140
C5721	C572	0.729860	0.939790	0.477480
C5731	C573	0.726450	0.916150	0.451700
C5741	C574	0.761980	0.935380	0.397840
C5751	C575	0.687410	0.923230	0.535340
C5761	C576	0.672680	0.960380	0.543040
C5771	C577	0.635680	0.947210	0.596240
C5781	C578	0.612570	0.895670	0.640660
C5791	C579	0.627450	0.858450	0.633700
C5801	C580	0.666380	0.873800	0.579440
C5811	C581	0.600840	0.804540	0.681320
C5821	C582	0.550420	0.786120	0.716760
C5831	C583	0.528510	0.736610	0.757980
C5841	C584	0.556800	0.703600	0.765400
C5851	C585	0.606680	0.724080	0.730640
C5861	C586	0.629910	0.773710	0.690380
C5871	C587	0.531440	0.648840	0.810320
C5881	C588	0.620340	0.984340	0.606120
C5891	C589	0.622040	0.028240	0.565120
C5901	C590	0.609430	0.066930	0.571140
C5911	C591	0.591730	0.063330	0.620740
C5921	C592	0.589600	0.018700	0.662400
C5931	C593	0.604720	0.981420	0.654960
C5941	C594	0.851440	0.043840	0.129520
C5951	C595	0.014170	0.139170	0.164860
C5961	C596	0.040120	0.168240	0.174260
C5971	C597	0.085060	0.163810	0.168220
C5981	C598	0.106490	0.187340	0.182040
C5991	C599	0.082990	0.215310	0.201880
C6001	C600	0.038050	0.219740	0.207920
C6011	C601	0.016620	0.196210	0.194100
C6021	C602	0.100570	0.233490	0.226880
C6031	C603	0.149220	0.254440	0.202760
C6041	C604	0.164180	0.268980	0.228440
C6051	C605	0.126130	0.259330	0.280140
C6061	C606	0.076390	0.237770	0.306420
C6071	C607	0.065010	0.225400	0.278580
C6081	C608	0.038450	0.230060	0.358280
C6091	C609	0.038860	0.260460	0.374480
C6101	C610	0.000840	0.252440	0.423720
C6111	C611	0.958990	0.209690	0.462820
C6121	C612	0.957160	0.176860	0.447880
C6131	C613	0.996680	0.187980	0.394640
C6141	C614	0.217530	0.292330	0.203140
C6151	C615	0.253520	0.274120	0.181760
C6161	C616	0.303140	0.296240	0.159320
C6171	C617	0.318200	0.336150	0.156840
C6181	C618	0.280930	0.354780	0.178480
C6191	C619	0.232380	0.333980	0.202040
C6201	C620	0.491210	0.504310	0.866580
C6211	C621	0.862790	0.162420	0.141020
C6221	C622	0.831140	0.196290	0.147260
C6231	C623	0.805790	0.192420	0.196600
C6241	C624	0.779710	0.226230	0.198540
C6251	C625	0.779310	0.264160	0.153080
C6261	C626	0.803430	0.264530	0.106140
C6271	C627	0.829360	0.232660	0.101080
C6281	C628	0.757410	0.302810	0.157980
C6291	C629	0.762700	0.321200	0.185400
C6301	C630	0.746370	0.359170	0.186060
C6311	C631	0.720930	0.380530	0.161540
C6321	C632	0.715650	0.363650	0.133100
C6331	C633	0.732490	0.323300	0.133000
C6341	C634	0.690970	0.387210	0.101780
C6351	C635	0.641650	0.385020	0.129960
C6361	C636	0.626220	0.413820	0.095560
C6371	C637	0.652110	0.440400	0.038000
C6381	C638	0.699690	0.437640	0.013320
C6391	C639	0.720370	0.413570	0.043660
C6401	C640	0.361060	0.524560	0.006680
C6411	C641	0.757350	0.377750	0.213900
C6421	C642	0.798110	0.375410	0.215780
C6431	C643	0.809050	0.393650	0.242300
C6441	C644	0.775020	0.411620	0.269960
C6451	C645	0.731710	0.411310	0.273780
C6461	C646	0.722850	0.393650	0.244700
C6471	C647	0.962100	0.975200	0.206000
C6481	C648	0.918160	0.200460	0.516080
O11	O1	0.024180	0.168410	0.715560
O21	O2	0.960310	0.129300	0.725320
O31	O3	0.377450	0.440570	0.191040
O41	O4	0.366780	0.515230	0.154240
O51	O5	0.920800	0.108520	0.912960
O61	O6	0.984510	0.158670	0.821820
O71	O7	0.884430	0.962770	0.854280
O81	O8	0.860750	0.028790	0.823720
O91	O9	0.480210	0.543870	0.117660
O101	O10	0.486220	0.469590	0.133980
O111	O11	0.831740	0.114710	0.905420
O121	O12	0.885170	0.201520	0.680920
O131	O13	0.443270	0.613990	0.046720
O141	O14	0.506860	0.624910	0.968560
O151	O15	0.984680	0.004590	0.820620
O161	O16	0.028210	0.074330	0.797440
O171	O17	0.919290	0.066970	0.847360
O181	O18	0.494340	0.435130	0.064640
O191	O19	0.829230	0.007050	0.975620
O201	O20	0.868180	0.959170	0.951000
O211	O21	0.260260	0.116030	0.715560
O221	O22	0.314370	0.145380	0.725320
O231	O23	0.431510	0.368390	0.191040
O241	O24	0.478980	0.330530	0.154240
O251	O25	0.166240	0.978520	0.912960
O261	O26	0.193670	0.019510	0.821820
O271	O27	0.261290	0.182950	0.854280
O281	O28	0.315530	0.147490	0.823720
O291	O29	0.402130	0.338470	0.117660
O301	O30	0.379800	0.396430	0.133980
O311	O31	0.262840	0.979870	0.905420
O321	O32	0.433910	0.117560	0.680920
O331	O33	0.510010	0.339290	0.046720
O341	O34	0.524580	0.406530	0.968560
O351	O35	0.194700	0.174790	0.820620
O361	O36	0.174350	0.128230	0.797440
O371	O37	0.233350	0.085670	0.847360
O381	O38	0.441020	0.500230	0.064640
O391	O39	0.195150	0.017330	0.975620
O401	O40	0.180820	0.089830	0.951000
O411	O41	0.918410	0.510260	0.215560
O421	O42	0.879300	0.564370	0.225320
O431	O43	0.190570	0.681510	0.691040
O441	O44	0.265230	0.728980	0.654240
O451	O45	0.858520	0.416240	0.412960
O461	O46	0.908670	0.443670	0.321820
O471	O47	0.712770	0.511290	0.354280
O481	O48	0.778790	0.565530	0.323720
O491	O49	0.293870	0.652130	0.617660
O501	O50	0.219590	0.629800	0.633980
O511	O51	0.864710	0.512840	0.405420
O521	O52	0.951520	0.683910	0.180920
O531	O53	0.363990	0.760010	0.546720
O541	O54	0.374910	0.774580	0.468560
O551	O55	0.754590	0.444700	0.320620
O561	O56	0.824330	0.424350	0.297440
O571	O57	0.816970	0.483350	0.347360
O581	O58	0.185130	0.691020	0.564640
O591	O59	0.757050	0.445150	0.475620
O601	O60	0.709170	0.430820	0.451000
O611	O61	0.866030	0.274180	0.215560
O621	O62	0.895380	0.210310	0.225320
O631	O63	0.118390	0.627450	0.691040
O641	O64	0.080530	0.616780	0.654240
O651	O65	0.728520	0.170800	0.412960
O661	O66	0.769510	0.234510	0.321820
O671	O67	0.932950	0.134430	0.354280
O681	O68	0.897490	0.110750	0.323720
O691	O69	0.088470	0.730210	0.617660
O701	O70	0.146430	0.736220	0.633980
O711	O71	0.729870	0.081740	0.405420
O721	O72	0.867560	0.135170	0.180920
O731	O73	0.089290	0.693270	0.546720
O741	O74	0.156530	0.756860	0.468560
O751	O75	0.924790	0.234680	0.320620
O761	O76	0.878230	0.278210	0.297440
O771	O77	0.835670	0.169290	0.347360
O781	O78	0.250230	0.744340	0.564640
O791	O79	0.767330	0.079230	0.475620
O801	O80	0.839830	0.118180	0.451000
O811	O81	0.489740	0.081590	0.784440
O821	O82	0.435630	0.120700	0.774680
O831	O83	0.318490	0.809430	0.308960
O841	O84	0.271020	0.734770	0.345760
O851	O85	0.583760	0.141480	0.587040
O861	O86	0.556330	0.091330	0.678180
O871	O87	0.488710	0.287230	0.645720
O881	O88	0.434470	0.221210	0.676280
O891	O89	0.347870	0.706130	0.382340
O901	O90	0.370200	0.780410	0.366020
O911	O91	0.487160	0.135290	0.594580
O921	O92	0.316090	0.048480	0.819080
O931	O93	0.239990	0.636010	0.453280
O941	O94	0.225420	0.625090	0.531440
O951	O95	0.555300	0.245410	0.679380
O961	O96	0.575650	0.175670	0.702560
O971	O97	0.516650	0.183030	0.652640
O981	O98	0.308980	0.814870	0.435360
O991	O99	0.554850	0.242950	0.524380
O1001	O100	0.569180	0.290830	0.549000
O1011	O101	0.725820	0.133970	0.784440
O1021	O102	0.789690	0.104620	0.774680
O1031	O103	0.372550	0.881610	0.308960
O1041	O104	0.383220	0.919470	0.345760
O1051	O105	0.829200	0.271480	0.587040
O1061	O106	0.765490	0.230490	0.678180
O1071	O107	0.865570	0.067050	0.645720
O1081	O108	0.889250	0.102510	0.676280
O1091	O109	0.269790	0.911530	0.382340
O1101	O110	0.263780	0.853570	0.366020
O1111	O111	0.918260	0.270130	0.594580
O1121	O112	0.864830	0.132440	0.819080
O1131	O113	0.306730	0.910710	0.453280
O1141	O114	0.243140	0.843470	0.531440
O1151	O115	0.765320	0.075210	0.679380
O1161	O116	0.721790	0.121770	0.702560
O1171	O117	0.830710	0.164330	0.652640
O1181	O118	0.255660	0.749770	0.435360
O1191	O119	0.920770	0.232670	0.524380
O1201	O120	0.881820	0.160170	0.549000
O1211	O121	0.883970	0.739740	0.284440
O1221	O122	0.854620	0.685630	0.274680
O1231	O123	0.631610	0.568490	0.808960
O1241	O124	0.669470	0.521020	0.845760
O1251	O125	0.021480	0.833760	0.087040
O1261	O126	0.980490	0.806330	0.178180
O1271	O127	0.817050	0.738710	0.145720
O1281	O128	0.852510	0.684470	0.176280
O1291	O129	0.661530	0.597870	0.882340
O1301	O130	0.603570	0.620200	0.866020
O1311	O131	0.020130	0.737160	0.094580
O1321	O132	0.882440	0.566090	0.319080
O1331	O133	0.660710	0.489990	0.953280
O1341	O134	0.593470	0.475420	0.031440
O1351	O135	0.825210	0.805300	0.179380
O1361	O136	0.871770	0.825650	0.202560
O1371	O137	0.914330	0.766650	0.152640
O1381	O138	0.499770	0.558980	0.935360
O1391	O139	0.982670	0.804850	0.024380
O1401	O140	0.910170	0.819180	0.049000
O1411	O141	0.831590	0.975820	0.284440
O1421	O142	0.870700	0.039690	0.274680
O1431	O143	0.559430	0.622550	0.808960
O1441	O144	0.484770	0.633220	0.845760
O1451	O145	0.891480	0.079200	0.087040
O1461	O146	0.841330	0.015490	0.178180
O1471	O147	0.037230	0.115570	0.145720
O1481	O148	0.971210	0.139250	0.176280
O1491	O149	0.456130	0.519790	0.882340
O1501	O150	0.530410	0.513780	0.866020
O1511	O151	0.885290	0.168260	0.094580
O1521	O152	0.798480	0.114830	0.319080
O1531	O153	0.386010	0.556730	0.953280
O1541	O154	0.375090	0.493140	0.031440
O1551	O155	0.995410	0.015320	0.179380
O1561	O156	0.925670	0.971790	0.202560
O1571	O157	0.933030	0.080710	0.152640
O1581	O158	0.564870	0.505660	0.935360
O1591	O159	0.992950	0.170770	0.024380
O1601	O160	0.040830	0.131820	0.049000
