data_KOHKOI_clean_PM
_symmetry_space_group_name_H-M	'P1'
_cell_length_a	32.441000
_cell_length_b	32.441000
_cell_length_c	33.132400
_cell_angle_alpha	60.687900
_cell_angle_beta	60.687900
_cell_angle_gamma	90.000000
_symmetry_Int_Tables_number 1

loop_
_symmetry_equiv_pos_as_xyz
'x,y,z'

loop_
_atom_site_label
_atom_site_type_symbol
_atom_site_fract_x
_atom_site_fract_y
_atom_site_fract_z
K11	K1	0.875000	0.633620	0.750000
K21	K2	0.375000	0.616380	0.750000
K31	K3	0.383620	0.625000	0.250000
K41	K4	0.366380	0.125000	0.250000
Zn11	Zn1	0.030310	0.631960	0.704920
Zn21	Zn2	0.035600	0.751360	0.630300
Zn31	Zn3	0.035560	0.676520	0.588860
Zn41	Zn4	0.777840	0.205510	0.410140
Zn51	Zn5	0.264770	0.663120	0.704920
Zn61	Zn6	0.334100	0.618340	0.630300
Zn71	Zn7	0.375580	0.734620	0.588860
Zn81	Zn8	0.812020	0.384350	0.410140
Zn91	Zn9	0.381960	0.514770	0.204920
Zn101	Zn10	0.501360	0.584100	0.130300
Zn111	Zn11	0.426520	0.625580	0.088860
Zn121	Zn12	0.955510	0.062020	0.910140
Zn131	Zn13	0.413120	0.280310	0.204920
Zn141	Zn14	0.368340	0.285600	0.130300
Zn151	Zn15	0.484620	0.285560	0.088860
Zn161	Zn16	0.134350	0.027840	0.910140
Zn171	Zn17	0.485230	0.618040	0.795080
Zn181	Zn18	0.415900	0.498640	0.869700
Zn191	Zn19	0.374420	0.573480	0.911140
Zn201	Zn20	0.937980	0.044490	0.089860
Zn211	Zn21	0.719690	0.586880	0.795080
Zn221	Zn22	0.714400	0.631660	0.869700
Zn231	Zn23	0.714440	0.515380	0.911140
Zn241	Zn24	0.972160	0.865650	0.089860
Zn251	Zn25	0.336880	0.735230	0.295080
Zn261	Zn26	0.381660	0.665900	0.369700
Zn271	Zn27	0.265380	0.624420	0.411140
Zn281	Zn28	0.615650	0.187980	0.589860
Zn291	Zn29	0.368040	0.969690	0.295080
Zn301	Zn30	0.248640	0.964400	0.369700
Zn311	Zn31	0.323480	0.964440	0.411140
Zn321	Zn32	0.794490	0.222160	0.589860
Zn331	Zn33	0.815460	0.315460	0.369080
Zn341	Zn34	0.065460	0.065460	0.869080
Zn351	Zn35	0.934540	0.934540	0.130920
Zn361	Zn36	0.684540	0.184540	0.630920
Zn371	Zn37	0.750000	0.250000	0.500000
Zn381	Zn38	0.000000	0.000000	0.000000
H11	H1	0.747200	0.156100	0.505800
H21	H2	0.985800	0.673200	0.669800
H31	H3	0.729400	0.253800	0.435400
H41	H4	0.954000	0.506800	0.883000
H51	H5	0.888900	0.446300	0.974400
H61	H6	0.798200	0.525900	0.956400
H71	H7	0.860200	0.583000	0.867000
H81	H8	0.828200	0.427600	0.073600
H91	H9	0.686500	0.336300	0.175800
H101	H10	0.743500	0.438600	0.015400
H111	H11	0.808500	0.413500	0.158600
H121	H12	0.821400	0.377100	0.227800
H131	H13	0.737900	0.245500	0.286600
H141	H14	0.729200	0.279900	0.215000
H151	H15	0.616300	0.350400	0.184400
H161	H16	0.540000	0.325900	0.197400
H171	H17	0.614400	0.360600	0.041600
H181	H18	0.687900	0.384400	0.030000
H191	H19	0.951100	0.854300	0.652400
H201	H20	0.888400	0.887300	0.675600
H211	H21	0.792700	0.770900	0.725000
H221	H22	0.855500	0.739900	0.694600
H231	H23	0.821200	0.923000	0.671000
H241	H24	0.680800	0.885600	0.796400
H251	H25	0.746300	0.782000	0.793600
H261	H26	0.822400	0.996500	0.678600
H271	H27	0.824300	0.077700	0.638600
H281	H28	0.685000	0.039400	0.686400
H291	H29	0.681200	0.958200	0.724400
H301	H30	0.608600	0.816600	0.853600
H311	H31	0.540900	0.752100	0.933600
H321	H32	0.627700	0.677000	0.971200
H331	H33	0.697900	0.744200	0.886600
H341	H34	0.798900	0.410000	0.936600
H351	H35	0.861700	0.374500	0.927600
H361	H36	0.954500	0.492200	0.770200
H371	H37	0.890100	0.526500	0.777000
H381	H38	0.925300	0.340100	0.889600
H391	H39	0.068400	0.372200	0.836400
H401	H40	0.007400	0.480400	0.798800
H411	H41	0.929000	0.274700	0.975200
H421	H42	0.921500	0.191000	0.025400
H431	H43	0.042300	0.211500	0.887600
H441	H44	0.049800	0.295200	0.837400
H451	H45	0.140900	0.438200	0.755400
H461	H46	0.214300	0.500500	0.712000
H471	H47	0.135300	0.581600	0.755800
H481	H48	0.061600	0.521800	0.797800
H491	H49	0.747000	0.338100	0.505800
H501	H50	0.344400	0.657000	0.669800
H511	H51	0.835200	0.310800	0.435400
H521	H52	0.163000	0.610200	0.883000
H531	H53	0.136700	0.579300	0.974400
H541	H54	0.245400	0.517700	0.956400
H551	H55	0.272800	0.550000	0.867000
H561	H56	0.098200	0.498800	0.073600
H571	H57	0.137700	0.487900	0.175800
H581	H58	0.241100	0.546000	0.015400
H591	H59	0.032900	0.427900	0.158600
H601	H60	0.950800	0.395100	0.227800
H611	H61	0.975500	0.467900	0.286600
H621	H62	0.055800	0.505100	0.215000
H631	H63	0.199300	0.465200	0.184400
H641	H64	0.262600	0.476700	0.197400
H651	H65	0.344000	0.597800	0.041600
H661	H66	0.282100	0.585600	0.030000
H671	H67	0.396500	0.493300	0.652400
H681	H68	0.436000	0.437100	0.675600
H691	H69	0.482300	0.504100	0.725000
H701	H70	0.449900	0.565500	0.694600
H711	H71	0.507800	0.406000	0.671000
H721	H72	0.522800	0.318000	0.796400
H731	H73	0.460100	0.424400	0.793600
H741	H74	0.499000	0.324900	0.678600
H751	H75	0.537100	0.283700	0.638600
H761	H76	0.628600	0.274200	0.686400
H771	H77	0.594400	0.317400	0.724400
H781	H78	0.537800	0.329800	0.853600
H791	H79	0.525500	0.314300	0.933600
H801	H80	0.401100	0.351800	0.971200
H811	H81	0.415500	0.369200	0.886600
H821	H82	0.264500	0.653400	0.936600
H831	H83	0.210700	0.697900	0.927600
H841	H84	0.275300	0.737600	0.770200
H851	H85	0.332900	0.696500	0.777000
H861	H86	0.185100	0.770300	0.889600
H871	H87	0.095200	0.791400	0.836400
H881	H88	0.193800	0.720800	0.798800
H891	H89	0.095800	0.750100	0.975200
H901	H90	0.053100	0.783600	0.025400
H911	H91	0.070100	0.900900	0.887600
H921	H92	0.112800	0.867400	0.837400
H931	H93	0.103700	0.806400	0.755400
H941	H94	0.073700	0.787500	0.712000
H951	H95	0.108900	0.662600	0.755800
H961	H96	0.140600	0.680400	0.797800
H971	H97	0.906100	0.997000	0.005800
H981	H98	0.423200	0.594400	0.169800
H991	H99	0.003800	0.085200	0.935400
H1001	H100	0.256800	0.413000	0.383000
H1011	H101	0.196300	0.386700	0.474400
H1021	H102	0.275900	0.495400	0.456400
H1031	H103	0.333000	0.522800	0.367000
H1041	H104	0.177600	0.348200	0.573600
H1051	H105	0.086300	0.387700	0.675800
H1061	H106	0.188600	0.491100	0.515400
H1071	H107	0.163500	0.282900	0.658600
H1081	H108	0.127100	0.200800	0.727800
H1091	H109	0.995500	0.225500	0.786600
H1101	H110	0.029900	0.305800	0.715000
H1111	H111	0.100400	0.449300	0.684400
H1121	H112	0.075900	0.512600	0.697400
H1131	H113	0.110600	0.594000	0.541600
H1141	H114	0.134400	0.532100	0.530000
H1151	H115	0.604300	0.646500	0.152400
H1161	H116	0.637300	0.686000	0.175600
H1171	H117	0.520900	0.732300	0.225000
H1181	H118	0.489900	0.699900	0.194600
H1191	H119	0.673000	0.757800	0.171000
H1201	H120	0.635600	0.772800	0.296400
H1211	H121	0.532000	0.710100	0.293600
H1221	H122	0.746500	0.749000	0.178600
H1231	H123	0.827700	0.787100	0.138600
H1241	H124	0.789400	0.878600	0.186400
H1251	H125	0.708200	0.844400	0.224400
H1261	H126	0.566600	0.787800	0.353600
H1271	H127	0.502100	0.775500	0.433600
H1281	H128	0.427000	0.651100	0.471200
H1291	H129	0.494200	0.665500	0.386600
H1301	H130	0.160000	0.514500	0.436600
H1311	H131	0.124500	0.460700	0.427600
H1321	H132	0.242200	0.525300	0.270200
H1331	H133	0.276500	0.582900	0.277000
H1341	H134	0.090100	0.435100	0.389600
H1351	H135	0.122200	0.345200	0.336400
H1361	H136	0.230400	0.443800	0.298800
H1371	H137	0.024700	0.345800	0.475200
H1381	H138	0.941000	0.303100	0.525400
H1391	H139	0.961500	0.320100	0.387600
H1401	H140	0.045200	0.362800	0.337400
H1411	H141	0.188200	0.353700	0.255400
H1421	H142	0.250500	0.323700	0.212000
H1431	H143	0.331600	0.358900	0.255800
H1441	H144	0.271800	0.390600	0.297800
H1451	H145	0.088100	0.997200	0.005800
H1461	H146	0.407000	0.235800	0.169800
H1471	H147	0.060800	0.979400	0.935400
H1481	H148	0.360200	0.204000	0.383000
H1491	H149	0.329300	0.138900	0.474400
H1501	H150	0.267700	0.048200	0.456400
H1511	H151	0.300000	0.110200	0.367000
H1521	H152	0.248800	0.078200	0.573600
H1531	H153	0.237900	0.936500	0.675800
H1541	H154	0.296000	0.993500	0.515400
H1551	H155	0.177900	0.058500	0.658600
H1561	H156	0.145100	0.071400	0.727800
H1571	H157	0.217900	0.987900	0.786600
H1581	H158	0.255100	0.979200	0.715000
H1591	H159	0.215200	0.866300	0.684400
H1601	H160	0.226700	0.790000	0.697400
H1611	H161	0.347800	0.864400	0.541600
H1621	H162	0.335600	0.937900	0.530000
H1631	H163	0.243300	0.201100	0.152400
H1641	H164	0.187100	0.138400	0.175600
H1651	H165	0.254100	0.042700	0.225000
H1661	H166	0.315500	0.105500	0.194600
H1671	H167	0.156000	0.071200	0.171000
H1681	H168	0.068000	0.930800	0.296400
H1691	H169	0.174400	0.996300	0.293600
H1701	H170	0.074900	0.072400	0.178600
H1711	H171	0.033700	0.074300	0.138600
H1721	H172	0.024200	0.935000	0.186400
H1731	H173	0.067400	0.931200	0.224400
H1741	H174	0.079800	0.858600	0.353600
H1751	H175	0.064300	0.790900	0.433600
H1761	H176	0.101800	0.877700	0.471200
H1771	H177	0.119200	0.947900	0.386600
H1781	H178	0.403400	0.048900	0.436600
H1791	H179	0.447900	0.111700	0.427600
H1801	H180	0.487600	0.204500	0.270200
H1811	H181	0.446500	0.140100	0.277000
H1821	H182	0.520300	0.175300	0.389600
H1831	H183	0.541400	0.318400	0.336400
H1841	H184	0.470800	0.257400	0.298800
H1851	H185	0.500100	0.179000	0.475200
H1861	H186	0.533600	0.171500	0.525400
H1871	H187	0.650900	0.292300	0.387600
H1881	H188	0.617400	0.299800	0.337400
H1891	H189	0.556400	0.390900	0.255400
H1901	H190	0.537500	0.464300	0.212000
H1911	H191	0.412600	0.385300	0.255800
H1921	H192	0.430400	0.311600	0.297800
H1931	H193	0.003000	0.093900	0.994200
H1941	H194	0.405600	0.576800	0.830200
H1951	H195	0.914800	0.996200	0.064600
H1961	H196	0.587000	0.743200	0.617000
H1971	H197	0.613300	0.803700	0.525600
H1981	H198	0.504600	0.724100	0.543600
H1991	H199	0.477200	0.667000	0.633000
H2001	H200	0.651800	0.822400	0.426400
H2011	H201	0.612300	0.913700	0.324200
H2021	H202	0.508900	0.811400	0.484600
H2031	H203	0.717100	0.836500	0.341400
H2041	H204	0.799200	0.872900	0.272200
H2051	H205	0.774500	0.004500	0.213400
H2061	H206	0.694200	0.970100	0.285000
H2071	H207	0.550700	0.899600	0.315600
H2081	H208	0.487400	0.924100	0.302600
H2091	H209	0.406000	0.889400	0.458400
H2101	H210	0.467900	0.865600	0.470000
H2111	H211	0.353500	0.395700	0.847600
H2121	H212	0.314000	0.362700	0.824400
H2131	H213	0.267700	0.479100	0.775000
H2141	H214	0.300100	0.510100	0.805400
H2151	H215	0.242200	0.327000	0.829000
H2161	H216	0.227200	0.364400	0.703600
H2171	H217	0.289900	0.468000	0.706400
H2181	H218	0.251000	0.253500	0.821400
H2191	H219	0.212900	0.172300	0.861400
H2201	H220	0.121400	0.210600	0.813600
H2211	H221	0.155600	0.291800	0.775600
H2221	H222	0.212200	0.433400	0.646400
H2231	H223	0.224500	0.497900	0.566400
H2241	H224	0.348900	0.573000	0.528800
H2251	H225	0.334500	0.505800	0.613400
H2261	H226	0.485500	0.840000	0.563400
H2271	H227	0.539300	0.875500	0.572400
H2281	H228	0.474700	0.757800	0.729800
H2291	H229	0.417100	0.723500	0.723000
H2301	H230	0.564900	0.909900	0.610400
H2311	H231	0.654800	0.877800	0.663600
H2321	H232	0.556200	0.769600	0.701200
H2331	H233	0.654200	0.975300	0.524800
H2341	H234	0.696900	0.059000	0.474600
H2351	H235	0.679900	0.038500	0.612400
H2361	H236	0.637200	0.954800	0.662600
H2371	H237	0.646300	0.811800	0.744600
H2381	H238	0.676300	0.749500	0.788000
H2391	H239	0.641100	0.668400	0.744200
H2401	H240	0.609400	0.728200	0.702200
H2411	H241	0.002800	0.911900	0.994200
H2421	H242	0.764200	0.593000	0.830200
H2431	H243	0.020600	0.939200	0.064600
H2441	H244	0.796000	0.639800	0.617000
H2451	H245	0.861100	0.670700	0.525600
H2461	H246	0.951800	0.732300	0.543600
H2471	H247	0.889800	0.700000	0.633000
H2481	H248	0.921800	0.751200	0.426400
H2491	H249	0.063500	0.762100	0.324200
H2501	H250	0.006500	0.704000	0.484600
H2511	H251	0.941500	0.822100	0.341400
H2521	H252	0.928600	0.854900	0.272200
H2531	H253	0.012100	0.782100	0.213400
H2541	H254	0.020800	0.744900	0.285000
H2551	H255	0.133700	0.784800	0.315600
H2561	H256	0.210000	0.773300	0.302600
H2571	H257	0.135600	0.652200	0.458400
H2581	H258	0.062100	0.664400	0.470000
H2591	H259	0.798900	0.756700	0.847600
H2601	H260	0.861600	0.812900	0.824400
H2611	H261	0.957300	0.745900	0.775000
H2621	H262	0.894500	0.684500	0.805400
H2631	H263	0.928800	0.844000	0.829000
H2641	H264	0.069200	0.932000	0.703600
H2651	H265	0.003700	0.825600	0.706400
H2661	H266	0.927600	0.925100	0.821400
H2671	H267	0.925700	0.966300	0.861400
H2681	H268	0.065000	0.975800	0.813600
H2691	H269	0.068800	0.932600	0.775600
H2701	H270	0.141400	0.920200	0.646400
H2711	H271	0.209100	0.935700	0.566400
H2721	H272	0.122300	0.898200	0.528800
H2731	H273	0.052100	0.880800	0.613400
H2741	H274	0.951100	0.596600	0.563400
H2751	H275	0.888300	0.552100	0.572400
H2761	H276	0.795500	0.512400	0.729800
H2771	H277	0.859900	0.553500	0.723000
H2781	H278	0.824700	0.479700	0.610400
H2791	H279	0.681600	0.458600	0.663600
H2801	H280	0.742600	0.529200	0.701200
H2811	H281	0.821000	0.499900	0.524800
H2821	H282	0.828500	0.466400	0.474600
H2831	H283	0.707700	0.349100	0.612400
H2841	H284	0.700200	0.382600	0.662600
H2851	H285	0.609100	0.443600	0.744600
H2861	H286	0.535700	0.462500	0.788000
H2871	H287	0.614700	0.587400	0.744200
H2881	H288	0.688400	0.569600	0.702200
H2891	H289	0.661900	0.253000	0.494200
H2901	H290	0.343000	0.655600	0.330200
H2911	H291	0.689200	0.164800	0.564600
H2921	H292	0.389800	0.837000	0.117000
H2931	H293	0.420700	0.863300	0.025600
H2941	H294	0.482300	0.754600	0.043600
H2951	H295	0.450000	0.727200	0.133000
H2961	H296	0.501200	0.901800	0.926400
H2971	H297	0.512100	0.862300	0.824200
H2981	H298	0.454000	0.758900	0.984600
H2991	H299	0.572100	0.967100	0.841400
H3001	H300	0.604900	0.049200	0.772200
H3011	H301	0.532100	0.024500	0.713400
H3021	H302	0.494900	0.944200	0.785000
H3031	H303	0.534800	0.800700	0.815600
H3041	H304	0.523300	0.737400	0.802600
H3051	H305	0.402200	0.656000	0.958400
H3061	H306	0.414400	0.717900	0.970000
H3071	H307	0.506700	0.603500	0.347600
H3081	H308	0.562900	0.564000	0.324400
H3091	H309	0.495900	0.517700	0.275000
H3101	H310	0.434500	0.550100	0.305400
H3111	H311	0.594000	0.492200	0.329000
H3121	H312	0.682000	0.477200	0.203600
H3131	H313	0.575600	0.539900	0.206400
H3141	H314	0.675100	0.501000	0.321400
H3151	H315	0.716300	0.462900	0.361400
H3161	H316	0.725800	0.371400	0.313600
H3171	H317	0.682600	0.405600	0.275600
H3181	H318	0.670200	0.462200	0.146400
H3191	H319	0.685700	0.474500	0.066400
H3201	H320	0.648200	0.598900	0.028800
H3211	H321	0.630800	0.584500	0.113400
H3221	H322	0.346600	0.735500	0.063400
H3231	H323	0.302100	0.789300	0.072400
H3241	H324	0.262400	0.724700	0.229800
H3251	H325	0.303500	0.667100	0.223000
H3261	H326	0.229700	0.814900	0.110400
H3271	H327	0.208600	0.904800	0.163600
H3281	H328	0.279200	0.806200	0.201200
H3291	H329	0.249900	0.904200	0.024800
H3301	H330	0.216400	0.946900	0.974600
H3311	H331	0.099100	0.929900	0.112400
H3321	H332	0.132600	0.887200	0.162600
H3331	H333	0.193600	0.896300	0.244600
H3341	H334	0.212500	0.926300	0.288000
H3351	H335	0.337400	0.891100	0.244200
H3361	H336	0.319600	0.859400	0.202200
H3371	H337	0.843900	0.252800	0.494200
H3381	H338	0.326800	0.014200	0.330200
H3391	H339	0.746200	0.270600	0.564600
H3401	H340	0.493200	0.046000	0.117000
H3411	H341	0.553700	0.111100	0.025600
H3421	H342	0.474100	0.201800	0.043600
H3431	H343	0.417000	0.139800	0.133000
H3441	H344	0.572400	0.171800	0.926400
H3451	H345	0.663700	0.313500	0.824200
H3461	H346	0.561400	0.256500	0.984600
H3471	H347	0.586500	0.191500	0.841400
H3481	H348	0.622900	0.178600	0.772200
H3491	H349	0.754500	0.262100	0.713400
H3501	H350	0.720100	0.270800	0.785000
H3511	H351	0.649600	0.383700	0.815600
H3521	H352	0.674100	0.460000	0.802600
H3531	H353	0.639400	0.385600	0.958400
H3541	H354	0.615600	0.312100	0.970000
H3551	H355	0.145700	0.048900	0.347600
H3561	H356	0.112700	0.111600	0.324400
H3571	H357	0.229100	0.207300	0.275000
H3581	H358	0.260100	0.144500	0.305400
H3591	H359	0.077000	0.178800	0.329000
H3601	H360	0.114400	0.319200	0.203600
H3611	H361	0.218000	0.253700	0.206400
H3621	H362	0.003500	0.177600	0.321400
H3631	H363	0.922300	0.175700	0.361400
H3641	H364	0.960600	0.315000	0.313600
H3651	H365	0.041800	0.318800	0.275600
H3661	H366	0.183400	0.391400	0.146400
H3671	H367	0.247900	0.459100	0.066400
H3681	H368	0.323000	0.372300	0.028800
H3691	H369	0.255800	0.302100	0.113400
H3701	H370	0.590000	0.201100	0.063400
H3711	H371	0.625500	0.138300	0.072400
H3721	H372	0.507800	0.045500	0.229800
H3731	H373	0.473500	0.109900	0.223000
H3741	H374	0.659900	0.074700	0.110400
H3751	H375	0.627800	0.931600	0.163600
H3761	H376	0.519600	0.992600	0.201200
H3771	H377	0.725300	0.071000	0.024800
H3781	H378	0.809000	0.078500	0.974600
H3791	H379	0.788500	0.957700	0.112400
H3801	H380	0.704800	0.950200	0.162600
H3811	H381	0.561800	0.859100	0.244600
H3821	H382	0.499500	0.785700	0.288000
H3831	H383	0.418400	0.864700	0.244200
H3841	H384	0.478200	0.938400	0.202200
C11	C1	0.952690	0.586290	0.803820
C21	C2	0.912910	0.551610	0.863980
C31	C3	0.922330	0.510130	0.897540
C41	C4	0.882980	0.474280	0.953040
C51	C5	0.836150	0.478750	0.977100
C61	C6	0.829270	0.521270	0.942060
C71	C7	0.866600	0.555500	0.888400
C81	C8	0.793030	0.438130	0.034140
C91	C9	0.798360	0.416460	0.079080
C101	C10	0.757950	0.377850	0.132500
C111	C11	0.713160	0.362160	0.140680
C121	C12	0.708560	0.385360	0.096480
C131	C13	0.747830	0.422920	0.044560
C141	C14	0.766470	0.350870	0.179260
C151	C15	0.794760	0.379160	0.184480
C161	C16	0.802390	0.357790	0.225620
C171	C17	0.781620	0.306620	0.264760
C181	C18	0.753120	0.279520	0.259560
C191	C19	0.746700	0.299800	0.218000
C201	C20	0.791550	0.281850	0.309700
C211	C21	0.660220	0.369720	0.105560
C221	C22	0.616090	0.352590	0.155420
C231	C23	0.569770	0.337970	0.163260
C241	C24	0.569410	0.341710	0.120180
C251	C25	0.613850	0.358550	0.070900
C261	C26	0.658200	0.372500	0.064200
C271	C27	0.075700	0.599800	0.629600
C281	C28	0.950540	0.769740	0.660520
C291	C29	0.909490	0.793190	0.672620
C301	C30	0.919200	0.837500	0.666400
C311	C31	0.881420	0.856520	0.680960
C321	C32	0.833340	0.832840	0.703120
C331	C33	0.825010	0.788510	0.708980
C341	C34	0.861940	0.769040	0.692520
C351	C35	0.790060	0.850880	0.727680
C361	C36	0.792110	0.898910	0.704580
C371	C37	0.752330	0.913830	0.728940
C381	C38	0.708570	0.876770	0.779660
C391	C39	0.706440	0.826160	0.805420
C401	C40	0.747390	0.815190	0.777820
C411	C41	0.754520	0.967720	0.703160
C421	C42	0.794560	0.004360	0.679480
C431	C43	0.795170	0.053270	0.656460
C441	C44	0.755500	0.067130	0.658600
C451	C45	0.712910	0.030510	0.684380
C461	C46	0.710510	0.982210	0.706780
C471	C47	0.879150	0.243750	0.365500
C481	C48	0.660880	0.787350	0.859840
C491	C49	0.613100	0.788500	0.876600
C501	C50	0.572570	0.750470	0.924860
C511	C51	0.577590	0.709790	0.960820
C521	C52	0.623970	0.705370	0.947460
C531	C53	0.666060	0.745760	0.896080
C541	C54	0.065910	0.781810	0.516380
C551	C55	0.800430	0.497630	0.865140
C561	C56	0.839700	0.473030	0.857680
C571	C57	0.830270	0.426570	0.903260
C581	C58	0.868160	0.405760	0.897880
C591	C59	0.916760	0.430960	0.848280
C601	C60	0.923390	0.475530	0.804020
C611	C61	0.884730	0.496800	0.807940
C621	C62	0.960120	0.413320	0.844760
C631	C63	0.955640	0.363640	0.870520
C641	C64	0.996200	0.348500	0.868200
C651	C65	0.040870	0.382370	0.839260
C661	C66	0.044670	0.433070	0.813660
C671	C67	0.004340	0.446740	0.816720
C681	C68	0.990170	0.293290	0.901300
C691	C69	0.951730	0.262090	0.957600
C701	C70	0.947230	0.211930	0.987660
C711	C71	0.981170	0.192970	0.961420
C721	C72	0.019600	0.224170	0.905140
C731	C73	0.024100	0.274330	0.875080
C741	C74	0.721900	0.110200	0.506000
C751	C75	0.092660	0.472360	0.784280
C761	C76	0.138990	0.466290	0.756420
C771	C77	0.183310	0.504510	0.729580
C781	C78	0.180710	0.546310	0.729580
C791	C79	0.136520	0.553220	0.755360
C801	C80	0.092030	0.516430	0.781740
C811	C81	0.070740	0.711540	0.703520
C821	C82	0.243490	0.609890	0.803820
C831	C83	0.223110	0.584410	0.863980
C841	C84	0.180130	0.592330	0.897540
C851	C85	0.163980	0.572680	0.953040
C861	C86	0.186750	0.544150	0.977100
C871	C87	0.228670	0.536670	0.942060
C881	C88	0.245000	0.556100	0.888400
C891	C89	0.172830	0.527730	0.034140
C901	C90	0.122560	0.504460	0.079080
C911	C91	0.109550	0.489650	0.132500
C921	C92	0.146160	0.497160	0.140680
C931	C93	0.194960	0.518160	0.096480
C941	C94	0.207610	0.532520	0.044560
C951	C95	0.054270	0.469870	0.179260
C961	C96	0.020760	0.436360	0.184480
C971	C97	0.971990	0.416590	0.225620
C981	C98	0.953620	0.428620	0.264760
C991	C99	0.987320	0.460920	0.259560
C1001	C100	0.035300	0.482200	0.218000
C1011	C101	0.898750	0.408450	0.309700
C1021	C102	0.234220	0.524720	0.105560
C1031	C103	0.228490	0.491990	0.155420
C1041	C104	0.266970	0.498770	0.163260
C1051	C105	0.310410	0.538110	0.120180
C1061	C106	0.315250	0.570550	0.070900
C1071	C107	0.277600	0.563300	0.064200
C1081	C108	0.294700	0.770600	0.629600
C1091	C109	0.388940	0.569740	0.660520
C1101	C110	0.417890	0.534190	0.672620
C1111	C111	0.414400	0.496100	0.666400
C1121	C112	0.437620	0.462520	0.680960
C1131	C113	0.463540	0.464040	0.703120
C1141	C114	0.466010	0.502510	0.708980
C1151	C115	0.445540	0.538440	0.692520
C1161	C116	0.482260	0.421440	0.727680
C1171	C117	0.503310	0.396510	0.704580
C1181	C118	0.518730	0.357230	0.728940
C1191	C119	0.511770	0.343570	0.779660
C1201	C120	0.488140	0.368420	0.805420
C1211	C121	0.474790	0.406990	0.777820
C1221	C122	0.542320	0.329120	0.703160
C1231	C123	0.525960	0.316160	0.679480
C1241	C124	0.548370	0.290270	0.656460
C1251	C125	0.585900	0.274270	0.658600
C1261	C126	0.602710	0.285110	0.684380
C1271	C127	0.582710	0.311010	0.706780
C1281	C128	0.755350	0.390750	0.365500
C1291	C129	0.479280	0.352810	0.859840
C1301	C130	0.510300	0.334900	0.876600
C1311	C131	0.502570	0.324670	0.924860
C1321	C132	0.461590	0.329390	0.960820
C1331	C133	0.428570	0.347170	0.947460
C1341	C134	0.437860	0.358160	0.896080
C1351	C135	0.417710	0.701810	0.516380
C1361	C136	0.334430	0.637230	0.865140
C1371	C137	0.302620	0.669290	0.857680
C1381	C138	0.266470	0.670170	0.903260
C1391	C139	0.233960	0.696360	0.897880
C1401	C140	0.234960	0.720760	0.848280
C1411	C141	0.272590	0.720450	0.804020
C1421	C142	0.307330	0.695260	0.807940
C1431	C143	0.195120	0.741920	0.844760
C1441	C144	0.173840	0.765840	0.870520
C1451	C145	0.135600	0.783300	0.868200
C1461	C146	0.119870	0.778370	0.839260
C1471	C147	0.141670	0.753270	0.813660
C1481	C148	0.178940	0.736540	0.816720
C1491	C149	0.108530	0.805410	0.901300
C1501	C150	0.090670	0.780310	0.957600
C1511	C151	0.065110	0.800410	0.987660
C1521	C152	0.057410	0.845610	0.961420
C1531	C153	0.075260	0.870690	0.905140
C1541	C154	0.100820	0.850590	0.875080
C1551	C155	0.772100	0.383800	0.506000
C1561	C156	0.123060	0.743360	0.784280
C1571	C157	0.104590	0.777290	0.756420
C1581	C158	0.087110	0.765910	0.729580
C1591	C159	0.089710	0.724110	0.729580
C1601	C160	0.108120	0.691420	0.755360
C1611	C161	0.126230	0.701830	0.781740
C1621	C162	0.225740	0.584940	0.703520
C1631	C163	0.336290	0.493490	0.303820
C1641	C164	0.301610	0.473110	0.363980
C1651	C165	0.260130	0.430130	0.397540
C1661	C166	0.224280	0.413980	0.453040
C1671	C167	0.228750	0.436750	0.477100
C1681	C168	0.271270	0.478670	0.442060
C1691	C169	0.305500	0.495000	0.388400
C1701	C170	0.188130	0.422830	0.534140
C1711	C171	0.166460	0.372560	0.579080
C1721	C172	0.127850	0.359550	0.632500
C1731	C173	0.112160	0.396160	0.640680
C1741	C174	0.135360	0.444960	0.596480
C1751	C175	0.172920	0.457610	0.544560
C1761	C176	0.100870	0.304270	0.679260
C1771	C177	0.129160	0.270760	0.684480
C1781	C178	0.107790	0.221990	0.725620
C1791	C179	0.056620	0.203620	0.764760
C1801	C180	0.029520	0.237320	0.759560
C1811	C181	0.049800	0.285300	0.718000
C1821	C182	0.031850	0.148750	0.809700
C1831	C183	0.119720	0.484220	0.605560
C1841	C184	0.102590	0.478490	0.655420
C1851	C185	0.087970	0.516970	0.663260
C1861	C186	0.091710	0.560410	0.620180
C1871	C187	0.108550	0.565250	0.570900
C1881	C188	0.122500	0.527600	0.564200
C1891	C189	0.349800	0.544700	0.129600
C1901	C190	0.519740	0.638940	0.160520
C1911	C191	0.543190	0.667890	0.172620
C1921	C192	0.587500	0.664400	0.166400
C1931	C193	0.606520	0.687620	0.180960
C1941	C194	0.582840	0.713540	0.203120
C1951	C195	0.538510	0.716010	0.208980
C1961	C196	0.519040	0.695540	0.192520
C1971	C197	0.600880	0.732260	0.227680
C1981	C198	0.648910	0.753310	0.204580
C1991	C199	0.663830	0.768730	0.228940
C2001	C200	0.626770	0.761770	0.279660
C2011	C201	0.576160	0.738140	0.305420
C2021	C202	0.565190	0.724790	0.277820
C2031	C203	0.717720	0.792320	0.203160
C2041	C204	0.754360	0.775960	0.179480
C2051	C205	0.803270	0.798370	0.156460
C2061	C206	0.817130	0.835900	0.158600
C2071	C207	0.780510	0.852710	0.184380
C2081	C208	0.732210	0.832710	0.206780
C2091	C209	0.993750	0.005350	0.865500
C2101	C210	0.537350	0.729280	0.359840
C2111	C211	0.538500	0.760300	0.376600
C2121	C212	0.500470	0.752570	0.424860
C2131	C213	0.459790	0.711590	0.460820
C2141	C214	0.455370	0.678570	0.447460
C2151	C215	0.495760	0.687860	0.396080
C2161	C216	0.531810	0.667710	0.016380
C2171	C217	0.247630	0.584430	0.365140
C2181	C218	0.223030	0.552620	0.357680
C2191	C219	0.176570	0.516470	0.403260
C2201	C220	0.155760	0.483960	0.397880
C2211	C221	0.180960	0.484960	0.348280
C2221	C222	0.225530	0.522590	0.304020
C2231	C223	0.246800	0.557330	0.307940
C2241	C224	0.163320	0.445120	0.344760
C2251	C225	0.113640	0.423840	0.370520
C2261	C226	0.098500	0.385600	0.368200
C2271	C227	0.132370	0.369870	0.339260
C2281	C228	0.183070	0.391670	0.313660
C2291	C229	0.196740	0.428940	0.316720
C2301	C230	0.043290	0.358530	0.401300
C2311	C231	0.012090	0.340670	0.457600
C2321	C232	0.961930	0.315110	0.487660
C2331	C233	0.942970	0.307410	0.461420
C2341	C234	0.974170	0.325260	0.405140
C2351	C235	0.024330	0.350820	0.375080
C2361	C236	0.860200	0.022100	0.006000
C2371	C237	0.222360	0.373060	0.284280
C2381	C238	0.216290	0.354590	0.256420
C2391	C239	0.254510	0.337110	0.229580
C2401	C240	0.296310	0.339710	0.229580
C2411	C241	0.303220	0.358120	0.255360
C2421	C242	0.266430	0.376230	0.281740
C2431	C243	0.461540	0.475740	0.203520
C2441	C244	0.359890	0.202690	0.303820
C2451	C245	0.334410	0.162910	0.363980
C2461	C246	0.342330	0.172330	0.397540
C2471	C247	0.322680	0.132980	0.453040
C2481	C248	0.294150	0.086150	0.477100
C2491	C249	0.286670	0.079270	0.442060
C2501	C250	0.306100	0.116600	0.388400
C2511	C251	0.277730	0.043030	0.534140
C2521	C252	0.254460	0.048360	0.579080
C2531	C253	0.239650	0.007950	0.632500
C2541	C254	0.247160	0.963160	0.640680
C2551	C255	0.268160	0.958560	0.596480
C2561	C256	0.282520	0.997830	0.544560
C2571	C257	0.219870	0.016470	0.679260
C2581	C258	0.186360	0.044760	0.684480
C2591	C259	0.166590	0.052390	0.725620
C2601	C260	0.178620	0.031620	0.764760
C2611	C261	0.210920	0.003120	0.759560
C2621	C262	0.232200	0.996700	0.718000
C2631	C263	0.158450	0.041550	0.809700
C2641	C264	0.274720	0.910220	0.605560
C2651	C265	0.241990	0.866090	0.655420
C2661	C266	0.248770	0.819770	0.663260
C2671	C267	0.288110	0.819410	0.620180
C2681	C268	0.320550	0.863850	0.570900
C2691	C269	0.313300	0.908200	0.564200
C2701	C270	0.520600	0.325700	0.129600
C2711	C271	0.319740	0.200540	0.160520
C2721	C272	0.284190	0.159490	0.172620
C2731	C273	0.246100	0.169200	0.166400
C2741	C274	0.212520	0.131420	0.180960
C2751	C275	0.214040	0.083340	0.203120
C2761	C276	0.252510	0.075010	0.208980
C2771	C277	0.288440	0.111940	0.192520
C2781	C278	0.171440	0.040060	0.227680
C2791	C279	0.146510	0.042110	0.204580
C2801	C280	0.107230	0.002330	0.228940
C2811	C281	0.093570	0.958570	0.279660
C2821	C282	0.118420	0.956440	0.305420
C2831	C283	0.156990	0.997390	0.277820
C2841	C284	0.079120	0.004520	0.203160
C2851	C285	0.066160	0.044560	0.179480
C2861	C286	0.040270	0.045170	0.156460
C2871	C287	0.024270	0.005500	0.158600
C2881	C288	0.035110	0.962910	0.184380
C2891	C289	0.061010	0.960510	0.206780
C2901	C290	0.140750	0.129150	0.865500
C2911	C291	0.102810	0.910880	0.359840
C2921	C292	0.084900	0.863100	0.376600
C2931	C293	0.074670	0.822570	0.424860
C2941	C294	0.079390	0.827590	0.460820
C2951	C295	0.097170	0.873970	0.447460
C2961	C296	0.108160	0.916060	0.396080
C2971	C297	0.451810	0.315910	0.016380
C2981	C298	0.387230	0.050430	0.365140
C2991	C299	0.419290	0.089700	0.357680
C3001	C300	0.420170	0.080270	0.403260
C3011	C301	0.446360	0.118160	0.397880
C3021	C302	0.470760	0.166760	0.348280
C3031	C303	0.470450	0.173390	0.304020
C3041	C304	0.445260	0.134730	0.307940
C3051	C305	0.491920	0.210120	0.344760
C3061	C306	0.515840	0.205640	0.370520
C3071	C307	0.533300	0.246200	0.368200
C3081	C308	0.528370	0.290870	0.339260
C3091	C309	0.503270	0.294670	0.313660
C3101	C310	0.486540	0.254340	0.316720
C3111	C311	0.555410	0.240170	0.401300
C3121	C312	0.530310	0.201730	0.457600
C3131	C313	0.550410	0.197230	0.487660
C3141	C314	0.595610	0.231170	0.461420
C3151	C315	0.620690	0.269600	0.405140
C3161	C316	0.600590	0.274100	0.375080
C3171	C317	0.133800	0.971900	0.006000
C3181	C318	0.493360	0.342660	0.284280
C3191	C319	0.527290	0.388990	0.256420
C3201	C320	0.515910	0.433310	0.229580
C3211	C321	0.474110	0.430710	0.229580
C3221	C322	0.441420	0.386520	0.255360
C3231	C323	0.451830	0.342030	0.281740
C3241	C324	0.334940	0.320740	0.203520
C3251	C325	0.506510	0.663710	0.696180
C3261	C326	0.526890	0.698390	0.636020
C3271	C327	0.569870	0.739870	0.602460
C3281	C328	0.586020	0.775720	0.546960
C3291	C329	0.563250	0.771250	0.522900
C3301	C330	0.521330	0.728730	0.557940
C3311	C331	0.505000	0.694500	0.611600
C3321	C332	0.577170	0.811870	0.465860
C3331	C333	0.627440	0.833540	0.420920
C3341	C334	0.640450	0.872150	0.367500
C3351	C335	0.603840	0.887840	0.359320
C3361	C336	0.555040	0.864640	0.403520
C3371	C337	0.542390	0.827080	0.455440
C3381	C338	0.695730	0.899130	0.320740
C3391	C339	0.729240	0.870840	0.315520
C3401	C340	0.778010	0.892210	0.274380
C3411	C341	0.796380	0.943380	0.235240
C3421	C342	0.762680	0.970480	0.240440
C3431	C343	0.714700	0.950200	0.282000
C3441	C344	0.851250	0.968150	0.190300
C3451	C345	0.515780	0.880280	0.394440
C3461	C346	0.521510	0.897410	0.344580
C3471	C347	0.483030	0.912030	0.336740
C3481	C348	0.439590	0.908290	0.379820
C3491	C349	0.434750	0.891450	0.429100
C3501	C350	0.472400	0.877500	0.435800
C3511	C351	0.455300	0.650200	0.870400
C3521	C352	0.361060	0.480260	0.839480
C3531	C353	0.332110	0.456810	0.827380
C3541	C354	0.335600	0.412500	0.833600
C3551	C355	0.312380	0.393480	0.819040
C3561	C356	0.286460	0.417160	0.796880
C3571	C357	0.283990	0.461490	0.791020
C3581	C358	0.304460	0.480960	0.807480
C3591	C359	0.267740	0.399120	0.772320
C3601	C360	0.246690	0.351090	0.795420
C3611	C361	0.231270	0.336170	0.771060
C3621	C362	0.238230	0.373230	0.720340
C3631	C363	0.261860	0.423840	0.694580
C3641	C364	0.275210	0.434810	0.722180
C3651	C365	0.207680	0.282280	0.796840
C3661	C366	0.224040	0.245640	0.820520
C3671	C367	0.201630	0.196730	0.843540
C3681	C368	0.164100	0.182870	0.841400
C3691	C369	0.147290	0.219490	0.815620
C3701	C370	0.167290	0.267790	0.793220
C3711	C371	0.994650	0.006250	0.134500
C3721	C372	0.270720	0.462650	0.640160
C3731	C373	0.239700	0.461500	0.623400
C3741	C374	0.247430	0.499530	0.575140
C3751	C375	0.288410	0.540210	0.539180
C3761	C376	0.321430	0.544630	0.552540
C3771	C377	0.312140	0.504240	0.603920
C3781	C378	0.332290	0.468190	0.983620
C3791	C379	0.415570	0.752370	0.634860
C3801	C380	0.447380	0.776970	0.642320
C3811	C381	0.483530	0.823430	0.596740
C3821	C382	0.516040	0.844240	0.602120
C3831	C383	0.515040	0.819040	0.651720
C3841	C384	0.477410	0.774470	0.695980
C3851	C385	0.442670	0.753200	0.692060
C3861	C386	0.554880	0.836680	0.655240
C3871	C387	0.576160	0.886360	0.629480
C3881	C388	0.614400	0.901500	0.631800
C3891	C389	0.630130	0.867630	0.660740
C3901	C390	0.608330	0.816930	0.686340
C3911	C391	0.571060	0.803260	0.683280
C3921	C392	0.641470	0.956710	0.598700
C3931	C393	0.659330	0.987910	0.542400
C3941	C394	0.684890	0.038070	0.512340
C3951	C395	0.692590	0.057030	0.538580
C3961	C396	0.674740	0.025830	0.594860
C3971	C397	0.649180	0.975670	0.624920
C3981	C398	0.977900	0.139800	0.994000
C3991	C399	0.626940	0.777640	0.715720
C4001	C400	0.645410	0.783710	0.743580
C4011	C401	0.662890	0.745490	0.770420
C4021	C402	0.660290	0.703690	0.770420
C4031	C403	0.641880	0.696780	0.744640
C4041	C404	0.623770	0.733570	0.718260
C4051	C405	0.524260	0.538460	0.796480
C4061	C406	0.797310	0.640110	0.696180
C4071	C407	0.837090	0.665590	0.636020
C4081	C408	0.827670	0.657670	0.602460
C4091	C409	0.867020	0.677320	0.546960
C4101	C410	0.913850	0.705850	0.522900
C4111	C411	0.920730	0.713330	0.557940
C4121	C412	0.883400	0.693900	0.611600
C4131	C413	0.956970	0.722270	0.465860
C4141	C414	0.951640	0.745540	0.420920
C4151	C415	0.992050	0.760350	0.367500
C4161	C416	0.036840	0.752840	0.359320
C4171	C417	0.041440	0.731840	0.403520
C4181	C418	0.002170	0.717480	0.455440
C4191	C419	0.983530	0.780130	0.320740
C4201	C420	0.955240	0.813640	0.315520
C4211	C421	0.947610	0.833410	0.274380
C4221	C422	0.968380	0.821380	0.235240
C4231	C423	0.996880	0.789080	0.240440
C4241	C424	0.003300	0.767800	0.282000
C4251	C425	0.958450	0.841550	0.190300
C4261	C426	0.089780	0.725280	0.394440
C4271	C427	0.133910	0.758010	0.344580
C4281	C428	0.180230	0.751230	0.336740
C4291	C429	0.180590	0.711890	0.379820
C4301	C430	0.136150	0.679450	0.429100
C4311	C431	0.091800	0.686700	0.435800
C4321	C432	0.674300	0.479400	0.870400
C4331	C433	0.799460	0.680260	0.839480
C4341	C434	0.840510	0.715810	0.827380
C4351	C435	0.830800	0.753900	0.833600
C4361	C436	0.868580	0.787480	0.819040
C4371	C437	0.916660	0.785960	0.796880
C4381	C438	0.924990	0.747490	0.791020
C4391	C439	0.888060	0.711560	0.807480
C4401	C440	0.959940	0.828560	0.772320
C4411	C441	0.957890	0.853490	0.795420
C4421	C442	0.997670	0.892770	0.771060
C4431	C443	0.041430	0.906430	0.720340
C4441	C444	0.043560	0.881580	0.694580
C4451	C445	0.002610	0.843010	0.722180
C4461	C446	0.995480	0.920880	0.796840
C4471	C447	0.955440	0.933840	0.820520
C4481	C448	0.954830	0.959730	0.843540
C4491	C449	0.994500	0.975730	0.841400
C4501	C450	0.037090	0.964890	0.815620
C4511	C451	0.039490	0.938990	0.793220
C4521	C452	0.870850	0.859250	0.134500
C4531	C453	0.089120	0.897190	0.640160
C4541	C454	0.136900	0.915100	0.623400
C4551	C455	0.177430	0.925330	0.575140
C4561	C456	0.172410	0.920610	0.539180
C4571	C457	0.126030	0.902830	0.552540
C4581	C458	0.083940	0.891840	0.603920
C4591	C459	0.684090	0.548190	0.983620
C4601	C460	0.949570	0.612770	0.634860
C4611	C461	0.910300	0.580710	0.642320
C4621	C462	0.919730	0.579830	0.596740
C4631	C463	0.881840	0.553640	0.602120
C4641	C464	0.833240	0.529240	0.651720
C4651	C465	0.826610	0.529550	0.695980
C4661	C466	0.865270	0.554740	0.692060
C4671	C467	0.789880	0.508080	0.655240
C4681	C468	0.794360	0.484160	0.629480
C4691	C469	0.753800	0.466700	0.631800
C4701	C470	0.709130	0.471630	0.660740
C4711	C471	0.705330	0.496730	0.686340
C4721	C472	0.745660	0.513460	0.683280
C4731	C473	0.759830	0.444590	0.598700
C4741	C474	0.798270	0.469690	0.542400
C4751	C475	0.802770	0.449590	0.512340
C4761	C476	0.768830	0.404390	0.538580
C4771	C477	0.730400	0.379310	0.594860
C4781	C478	0.725900	0.399410	0.624920
C4791	C479	0.028100	0.866200	0.994000
C4801	C480	0.657340	0.506640	0.715720
C4811	C481	0.611010	0.472710	0.743580
C4821	C482	0.566690	0.484090	0.770420
C4831	C483	0.569290	0.525890	0.770420
C4841	C484	0.613480	0.558580	0.744640
C4851	C485	0.657970	0.548170	0.718260
C4861	C486	0.679260	0.665060	0.796480
C4871	C487	0.390110	0.756510	0.196180
C4881	C488	0.415590	0.776890	0.136020
C4891	C489	0.407670	0.819870	0.102460
C4901	C490	0.427320	0.836020	0.046960
C4911	C491	0.455850	0.813250	0.022900
C4921	C492	0.463330	0.771330	0.057940
C4931	C493	0.443900	0.755000	0.111600
C4941	C494	0.472270	0.827170	0.965860
C4951	C495	0.495540	0.877440	0.920920
C4961	C496	0.510350	0.890450	0.867500
C4971	C497	0.502840	0.853840	0.859320
C4981	C498	0.481840	0.805040	0.903520
C4991	C499	0.467480	0.792390	0.955440
C5001	C500	0.530130	0.945730	0.820740
C5011	C501	0.563640	0.979240	0.815520
C5021	C502	0.583410	0.028010	0.774380
C5031	C503	0.571380	0.046380	0.735240
C5041	C504	0.539080	0.012680	0.740440
C5051	C505	0.517800	0.964700	0.782000
C5061	C506	0.591550	0.101250	0.690300
C5071	C507	0.475280	0.765780	0.894440
C5081	C508	0.508010	0.771510	0.844580
C5091	C509	0.501230	0.733030	0.836740
C5101	C510	0.461890	0.689590	0.879820
C5111	C511	0.429450	0.684750	0.929100
C5121	C512	0.436700	0.722400	0.935800
C5131	C513	0.229400	0.705300	0.370400
C5141	C514	0.430260	0.611060	0.339480
C5151	C515	0.465810	0.582110	0.327380
C5161	C516	0.503900	0.585600	0.333600
C5171	C517	0.537480	0.562380	0.319040
C5181	C518	0.535960	0.536460	0.296880
C5191	C519	0.497490	0.533990	0.291020
C5201	C520	0.461560	0.554460	0.307480
C5211	C521	0.578560	0.517740	0.272320
C5221	C522	0.603490	0.496690	0.295420
C5231	C523	0.642770	0.481270	0.271060
C5241	C524	0.656430	0.488230	0.220340
C5251	C525	0.631580	0.511860	0.194580
C5261	C526	0.593010	0.525210	0.222180
C5271	C527	0.670880	0.457680	0.296840
C5281	C528	0.683840	0.474040	0.320520
C5291	C529	0.709730	0.451630	0.343540
C5301	C530	0.725730	0.414100	0.341400
C5311	C531	0.714890	0.397290	0.315620
C5321	C532	0.688990	0.417290	0.293220
C5331	C533	0.609250	0.244650	0.634500
C5341	C534	0.647190	0.520720	0.140160
C5351	C535	0.665100	0.489700	0.123400
C5361	C536	0.675330	0.497430	0.075140
C5371	C537	0.670610	0.538410	0.039180
C5381	C538	0.652830	0.571430	0.052540
C5391	C539	0.641840	0.562140	0.103920
C5401	C540	0.298190	0.582290	0.483620
C5411	C541	0.362770	0.665570	0.134860
C5421	C542	0.330710	0.697380	0.142320
C5431	C543	0.329830	0.733530	0.096740
C5441	C544	0.303640	0.766040	0.102120
C5451	C545	0.279240	0.765040	0.151720
C5461	C546	0.279550	0.727410	0.195980
C5471	C547	0.304740	0.692670	0.192060
C5481	C548	0.258080	0.804880	0.155240
C5491	C549	0.234160	0.826160	0.129480
C5501	C550	0.216700	0.864400	0.131800
C5511	C551	0.221630	0.880130	0.160740
C5521	C552	0.246730	0.858330	0.186340
C5531	C553	0.263460	0.821060	0.183280
C5541	C554	0.194590	0.891470	0.098700
C5551	C555	0.219690	0.909330	0.042400
C5561	C556	0.199590	0.934890	0.012340
C5571	C557	0.154390	0.942590	0.038580
C5581	C558	0.129310	0.924740	0.094860
C5591	C559	0.149410	0.899180	0.124920
C5601	C560	0.616200	0.227900	0.494000
C5611	C561	0.256640	0.876940	0.215720
C5621	C562	0.222710	0.895410	0.243580
C5631	C563	0.234090	0.912890	0.270420
C5641	C564	0.275890	0.910290	0.270420
C5651	C565	0.308580	0.891880	0.244640
C5661	C566	0.298170	0.873770	0.218260
C5671	C567	0.415060	0.774260	0.296480
C5681	C568	0.413710	0.047310	0.196180
C5691	C569	0.448390	0.087090	0.136020
C5701	C570	0.489870	0.077670	0.102460
C5711	C571	0.525720	0.117020	0.046960
C5721	C572	0.521250	0.163850	0.022900
C5731	C573	0.478730	0.170730	0.057940
C5741	C574	0.444500	0.133400	0.111600
C5751	C575	0.561870	0.206970	0.965860
C5761	C576	0.583540	0.201640	0.920920
C5771	C577	0.622150	0.242050	0.867500
C5781	C578	0.637840	0.286840	0.859320
C5791	C579	0.614640	0.291440	0.903520
C5801	C580	0.577080	0.252170	0.955440
C5811	C581	0.649130	0.233530	0.820740
C5821	C582	0.620840	0.205240	0.815520
C5831	C583	0.642210	0.197610	0.774380
C5841	C584	0.693380	0.218380	0.735240
C5851	C585	0.720480	0.246880	0.740440
C5861	C586	0.700200	0.253300	0.782000
C5871	C587	0.718150	0.208450	0.690300
C5881	C588	0.630280	0.339780	0.894440
C5891	C589	0.647410	0.383910	0.844580
C5901	C590	0.662030	0.430230	0.836740
C5911	C591	0.658290	0.430590	0.879820
C5921	C592	0.641450	0.386150	0.929100
C5931	C593	0.627500	0.341800	0.935800
C5941	C594	0.400200	0.924300	0.370400
C5951	C595	0.230260	0.049460	0.339480
C5961	C596	0.206810	0.090510	0.327380
C5971	C597	0.162500	0.080800	0.333600
C5981	C598	0.143480	0.118580	0.319040
C5991	C599	0.167160	0.166660	0.296880
C6001	C600	0.211490	0.174990	0.291020
C6011	C601	0.230960	0.138060	0.307480
C6021	C602	0.149120	0.209940	0.272320
C6031	C603	0.101090	0.207890	0.295420
C6041	C604	0.086170	0.247670	0.271060
C6051	C605	0.123230	0.291430	0.220340
C6061	C606	0.173840	0.293560	0.194580
C6071	C607	0.184810	0.252610	0.222180
C6081	C608	0.032280	0.245480	0.296840
C6091	C609	0.995640	0.205440	0.320520
C6101	C610	0.946730	0.204830	0.343540
C6111	C611	0.932870	0.244500	0.341400
C6121	C612	0.969490	0.287090	0.315620
C6131	C613	0.017790	0.289490	0.293220
C6141	C614	0.756250	0.120850	0.634500
C6151	C615	0.212650	0.339120	0.140160
C6161	C616	0.211500	0.386900	0.123400
C6171	C617	0.249530	0.427430	0.075140
C6181	C618	0.290210	0.422410	0.039180
C6191	C619	0.294630	0.376030	0.052540
C6201	C620	0.254240	0.333940	0.103920
C6211	C621	0.218190	0.934090	0.483620
C6221	C622	0.502370	0.199570	0.134860
C6231	C623	0.526970	0.160300	0.142320
C6241	C624	0.573430	0.169730	0.096740
C6251	C625	0.594240	0.131840	0.102120
C6261	C626	0.569040	0.083240	0.151720
C6271	C627	0.524470	0.076610	0.195980
C6281	C628	0.503200	0.115270	0.192060
C6291	C629	0.586680	0.039880	0.155240
C6301	C630	0.636360	0.044360	0.129480
C6311	C631	0.651500	0.003800	0.131800
C6321	C632	0.617630	0.959130	0.160740
C6331	C633	0.566930	0.955330	0.186340
C6341	C634	0.553260	0.995660	0.183280
C6351	C635	0.706710	0.009830	0.098700
C6361	C636	0.737910	0.048270	0.042400
C6371	C637	0.788070	0.052770	0.012340
C6381	C638	0.807030	0.018830	0.038580
C6391	C639	0.775830	0.980400	0.094860
C6401	C640	0.725670	0.975900	0.124920
C6411	C641	0.889800	0.278100	0.494000
C6421	C642	0.527640	0.907340	0.215720
C6431	C643	0.533710	0.861010	0.243580
C6441	C644	0.495490	0.816690	0.270420
C6451	C645	0.453690	0.819290	0.270420
C6461	C646	0.446780	0.863480	0.244640
C6471	C647	0.483570	0.907970	0.218260
C6481	C648	0.288460	0.929260	0.296480
O11	O1	0.943840	0.620250	0.774660
O21	O2	0.993640	0.577400	0.785740
O31	O3	0.819240	0.309080	0.308140
O41	O4	0.770380	0.235560	0.345440
O51	O5	0.055570	0.589980	0.677860
O61	O6	0.083600	0.640630	0.587780
O71	O7	0.940500	0.728400	0.667760
O81	O8	0.992940	0.792410	0.641560
O91	O9	0.847390	0.206910	0.382820
O101	O10	0.871210	0.281450	0.364620
O111	O11	0.053130	0.741080	0.525480
O121	O12	0.070210	0.789500	0.548640
O131	O13	0.810040	0.539990	0.824460
O141	O14	0.990640	0.635870	0.588860
O151	O15	0.738730	0.135990	0.454080
O161	O16	0.730390	0.125330	0.529020
O171	O17	0.053430	0.742980	0.680700
O181	O18	0.076020	0.674050	0.702860
O191	O19	0.017450	0.682080	0.651200
O201	O20	0.755230	0.249280	0.435380
O211	O21	0.281500	0.605090	0.774660
O221	O22	0.220620	0.636860	0.785740
O231	O23	0.872620	0.382780	0.308140
O241	O24	0.884180	0.419000	0.345440
O251	O25	0.266570	0.732160	0.677860
O261	O26	0.328620	0.771590	0.587780
O271	O27	0.391740	0.603840	0.667760
O281	O28	0.365500	0.566030	0.641560
O291	O29	0.769790	0.410270	0.382820
O301	O30	0.764170	0.353930	0.364620
O311	O31	0.421390	0.733440	0.525480
O321	O32	0.381150	0.661860	0.548640
O331	O33	0.365500	0.635550	0.824460
O341	O34	0.420500	0.775270	0.588860
O351	O35	0.807190	0.409930	0.454080
O361	O36	0.740590	0.345650	0.529020
O371	O37	0.265870	0.576320	0.680700
O381	O38	0.221120	0.623090	0.702860
O391	O39	0.331350	0.666720	0.651200
O401	O40	0.809390	0.315340	0.435380
O411	O41	0.370250	0.531500	0.274660
O421	O42	0.327400	0.470620	0.285740
O431	O43	0.059080	0.122620	0.808140
O441	O44	0.985560	0.134180	0.845440
O451	O45	0.339980	0.516570	0.177860
O461	O46	0.390630	0.578620	0.087780
O471	O47	0.478400	0.641740	0.167760
O481	O48	0.542410	0.615500	0.141560
O491	O49	0.956910	0.019790	0.882820
O501	O50	0.031450	0.014170	0.864620
O511	O51	0.491080	0.671390	0.025480
O521	O52	0.539500	0.631150	0.048640
O531	O53	0.289990	0.615500	0.324460
O541	O54	0.385870	0.670500	0.088860
O551	O55	0.885990	0.057190	0.954080
O561	O56	0.875330	0.990590	0.029020
O571	O57	0.492980	0.515870	0.180700
O581	O58	0.424050	0.471120	0.202860
O591	O59	0.432080	0.581350	0.151200
O601	O60	0.999280	0.059390	0.935380
O611	O61	0.355090	0.193840	0.274660
O621	O62	0.386860	0.243640	0.285740
O631	O63	0.132780	0.069240	0.808140
O641	O64	0.169000	0.020380	0.845440
O651	O65	0.482160	0.305570	0.177860
O661	O66	0.521590	0.333600	0.087780
O671	O67	0.353840	0.190500	0.167760
O681	O68	0.316030	0.242940	0.141560
O691	O69	0.160270	0.097390	0.882820
O701	O70	0.103930	0.121210	0.864620
O711	O71	0.483440	0.303130	0.025480
O721	O72	0.411860	0.320210	0.048640
O731	O73	0.385550	0.060040	0.324460
O741	O74	0.525270	0.240640	0.088860
O751	O75	0.159930	0.988730	0.954080
O761	O76	0.095650	0.980390	0.029020
O771	O77	0.326320	0.303430	0.180700
O781	O78	0.373090	0.326020	0.202860
O791	O79	0.416720	0.267450	0.151200
O801	O80	0.065340	0.005230	0.935380
O811	O81	0.468500	0.629750	0.725340
O821	O82	0.529380	0.672600	0.714260
O831	O83	0.877380	0.940920	0.191860
O841	O84	0.865820	0.014440	0.154560
O851	O85	0.483430	0.660020	0.822140
O861	O86	0.421380	0.609370	0.912220
O871	O87	0.358260	0.521600	0.832240
O881	O88	0.384500	0.457590	0.858440
O891	O89	0.980210	0.043090	0.117180
O901	O90	0.985830	0.968550	0.135380
O911	O91	0.328610	0.508920	0.974520
O921	O92	0.368850	0.460500	0.951360
O931	O93	0.384500	0.710010	0.675540
O941	O94	0.329500	0.614130	0.911140
O951	O95	0.942810	0.114010	0.045920
O961	O96	0.009410	0.124670	0.970980
O971	O97	0.484130	0.507020	0.819300
O981	O98	0.528880	0.575950	0.797140
O991	O99	0.418650	0.567920	0.848800
O1001	O100	0.940610	0.000720	0.064620
O1011	O101	0.806160	0.644910	0.725340
O1021	O102	0.756360	0.613140	0.714260
O1031	O103	0.930760	0.867220	0.191860
O1041	O104	0.979620	0.831000	0.154560
O1051	O105	0.694430	0.517840	0.822140
O1061	O106	0.666400	0.478410	0.912220
O1071	O107	0.809500	0.646160	0.832240
O1081	O108	0.757060	0.683970	0.858440
O1091	O109	0.902610	0.839730	0.117180
O1101	O110	0.878790	0.896070	0.135380
O1111	O111	0.696870	0.516560	0.974520
O1121	O112	0.679790	0.588140	0.951360
O1131	O113	0.939960	0.614450	0.675540
O1141	O114	0.759360	0.474730	0.911140
O1151	O115	0.011270	0.840070	0.045920
O1161	O116	0.019610	0.904350	0.970980
O1171	O117	0.696570	0.673680	0.819300
O1181	O118	0.673980	0.626910	0.797140
O1191	O119	0.732550	0.583280	0.848800
O1201	O120	0.994770	0.934660	0.064620
O1211	O121	0.394910	0.718500	0.225340
O1221	O122	0.363140	0.779380	0.214260
O1231	O123	0.617220	0.127380	0.691860
O1241	O124	0.581000	0.115820	0.654560
O1251	O125	0.267840	0.733430	0.322140
O1261	O126	0.228410	0.671380	0.412220
O1271	O127	0.396160	0.608260	0.332240
O1281	O128	0.433970	0.634500	0.358440
O1291	O129	0.589730	0.230210	0.617180
O1301	O130	0.646070	0.235830	0.635380
O1311	O131	0.266560	0.578610	0.474520
O1321	O132	0.338140	0.618850	0.451360
O1331	O133	0.364450	0.634500	0.175540
O1341	O134	0.224730	0.579500	0.411140
O1351	O135	0.590070	0.192810	0.545920
O1361	O136	0.654350	0.259410	0.470980
O1371	O137	0.423680	0.734130	0.319300
O1381	O138	0.376910	0.778880	0.297140
O1391	O139	0.333280	0.668650	0.348800
O1401	O140	0.684660	0.190610	0.564620
O1411	O141	0.379750	0.056160	0.225340
O1421	O142	0.422600	0.006360	0.214260
O1431	O143	0.690920	0.180760	0.691860
O1441	O144	0.764440	0.229620	0.654560
O1451	O145	0.410020	0.944430	0.322140
O1461	O146	0.359370	0.916400	0.412220
O1471	O147	0.271600	0.059500	0.332240
O1481	O148	0.207590	0.007060	0.358440
O1491	O149	0.793090	0.152610	0.617180
O1501	O150	0.718550	0.128790	0.635380
O1511	O151	0.258920	0.946870	0.474520
O1521	O152	0.210500	0.929790	0.451360
O1531	O153	0.460010	0.189960	0.175540
O1541	O154	0.364130	0.009360	0.411140
O1551	O155	0.864010	0.261270	0.545920
O1561	O156	0.874670	0.269610	0.470980
O1571	O157	0.257020	0.946570	0.319300
O1581	O158	0.325950	0.923980	0.297140
O1591	O159	0.317920	0.982550	0.348800
O1601	O160	0.750720	0.244770	0.564620
