data_KOJTOU_clean_PM
_symmetry_space_group_name_H-M	'P1'
_cell_length_a	12.853900
_cell_length_b	14.457800
_cell_length_c	30.453000
_cell_angle_alpha	90.000000
_cell_angle_beta	96.497000
_cell_angle_gamma	90.000000
_symmetry_Int_Tables_number 1

loop_
_symmetry_equiv_pos_as_xyz
'x,y,z'

loop_
_atom_site_label
_atom_site_type_symbol
_atom_site_fract_x
_atom_site_fract_y
_atom_site_fract_z
Ni11	Ni1	0.872760	0.782380	0.066410
Ni21	Ni2	0.196720	0.907050	0.111830
Ni31	Ni3	0.129260	0.706160	0.119070
Ni41	Ni4	0.973330	0.809900	0.161130
O11	O1	0.146770	0.796370	0.066520
O21	O2	0.075420	0.102100	0.892230
O31	O3	0.970090	0.714440	0.111290
H11	H1	0.938700	0.656300	0.119800
O41	O4	0.288790	0.698120	0.130180
O51	O5	0.007660	0.710960	0.208890
O61	O6	0.119990	0.625700	0.173970
O71	O7	0.127340	0.828230	0.153730
H21	H2	0.170700	0.823500	0.182200
O81	O8	0.936060	0.019600	0.908280
O91	O9	0.167400	0.334570	0.971290
O101	O10	0.987630	0.803130	0.026890
O111	O11	0.819300	0.786060	0.168340
O121	O12	0.744570	0.758900	0.098890
O131	O13	0.339180	0.847260	0.130710
N11	N1	0.031300	0.414440	0.293020
N21	N2	0.261900	0.874400	0.944410
C11	C1	0.647900	0.728100	0.158890
N31	N3	0.141700	0.586500	0.082770
C21	C2	0.196100	0.515000	0.102620
H31	H3	0.222800	0.520900	0.132200
N41	N4	0.565800	0.638100	0.211660
O141	O14	0.216700	0.264600	0.036230
C31	C3	0.102900	0.960300	0.931900
C41	C4	0.124600	0.498200	0.015920
H41	H4	0.101000	0.495200	0.985900
C51	C5	0.461100	0.732000	0.158890
C61	C6	0.066200	0.915300	0.966610
H51	H5	0.998000	0.925900	0.972700
C71	C7	0.983900	0.495800	0.297670
H61	H6	0.942300	0.502000	0.320600
C81	C8	0.033000	0.032900	0.908520
C91	C9	0.084600	0.813900	0.031970
C101	C10	0.353300	0.761700	0.138280
C111	C11	0.061300	0.638800	0.203680
C121	C12	0.993100	0.569800	0.270800
H71	H7	0.959700	0.625300	0.275800
C131	C13	0.229400	0.834700	0.980830
C141	C14	0.744900	0.760100	0.140610
C151	C15	0.129100	0.854300	0.992760
C161	C16	0.177000	0.423700	0.036820
C171	C17	0.053000	0.561500	0.235660
C181	C18	0.107700	0.577400	0.040030
H81	H8	0.071000	0.626200	0.025700
C191	C19	0.652100	0.666000	0.194230
C201	C20	0.202700	0.938000	0.921000
C211	C21	0.549900	0.760900	0.141540
H91	H9	0.544400	0.802400	0.118100
C221	C22	0.089600	0.405700	0.259310
H101	H10	0.123000	0.349700	0.255400
C231	C23	0.101700	0.477000	0.230280
H111	H11	0.142200	0.468700	0.207200
C241	C24	0.188500	0.333400	0.012600
C251	C25	0.249600	0.978500	0.882350
H121	H12	0.317400	0.951900	0.880600
H131	H13	0.256400	0.044300	0.886100
H141	H14	0.205000	0.965400	0.855600
C261	C26	0.304100	0.769700	0.005830
H151	H15	0.368600	0.768800	0.992700
H161	H16	0.274400	0.708700	0.004900
H171	H17	0.317400	0.789700	0.036000
C271	C27	0.753700	0.623800	0.215070
H181	H18	0.739800	0.583800	0.238900
H191	H19	0.800700	0.672100	0.226300
H201	H20	0.785100	0.588700	0.193300
C281	C28	0.213600	0.433800	0.080980
H211	H21	0.250100	0.385800	0.096100
C291	C29	0.471000	0.670300	0.194270
C301	C30	0.379600	0.639600	0.217530
H221	H22	0.403600	0.597800	0.241000
H231	H23	0.329100	0.608900	0.196900
H241	H24	0.347700	0.692600	0.229500
Ni51	Ni5	0.127240	0.282380	0.433590
Ni61	Ni6	0.803280	0.407050	0.388170
Ni71	Ni7	0.870740	0.206160	0.380930
Ni81	Ni8	0.026670	0.309900	0.338870
O151	O15	0.853230	0.296370	0.433480
O161	O16	0.924580	0.602100	0.607770
O171	O17	0.029910	0.214440	0.388710
H251	H25	0.061300	0.156300	0.380200
O181	O18	0.711210	0.198120	0.369820
O191	O19	0.992340	0.210960	0.291110
O201	O20	0.880010	0.125700	0.326030
O211	O21	0.872660	0.328230	0.346270
H261	H26	0.829300	0.323500	0.317800
O221	O22	0.063940	0.519600	0.591720
O231	O23	0.832600	0.834570	0.528710
O241	O24	0.012370	0.303130	0.473110
O251	O25	0.180700	0.286060	0.331660
O261	O26	0.255430	0.258900	0.401110
O271	O27	0.660820	0.347260	0.369290
N51	N5	0.968700	0.914440	0.206980
N61	N6	0.738100	0.374400	0.555590
C311	C31	0.352100	0.228100	0.341110
N71	N7	0.858300	0.086500	0.417230
C321	C32	0.803900	0.015000	0.397380
H271	H27	0.777200	0.020900	0.367800
N81	N8	0.434200	0.138100	0.288340
O281	O28	0.783300	0.764600	0.463770
C331	C33	0.897100	0.460300	0.568100
C341	C34	0.875400	0.998200	0.484080
H281	H28	0.899000	0.995200	0.514100
C351	C35	0.538900	0.232000	0.341110
C361	C36	0.933800	0.415300	0.533390
H291	H29	0.002000	0.425900	0.527300
C371	C37	0.016100	0.995800	0.202330
H301	H30	0.057700	0.002000	0.179400
C381	C38	0.967000	0.532900	0.591480
C391	C39	0.915400	0.313900	0.468030
C401	C40	0.646700	0.261700	0.361720
C411	C41	0.938700	0.138800	0.296320
C421	C42	0.006900	0.069800	0.229200
H311	H31	0.040300	0.125300	0.224200
C431	C43	0.770600	0.334700	0.519170
C441	C44	0.255100	0.260100	0.359390
C451	C45	0.870900	0.354300	0.507240
C461	C46	0.823000	0.923700	0.463180
C471	C47	0.947000	0.061500	0.264340
C481	C48	0.892300	0.077400	0.459970
H321	H32	0.929000	0.126200	0.474300
C491	C49	0.347900	0.166000	0.305770
C501	C50	0.797300	0.438000	0.579000
C511	C51	0.450100	0.260900	0.358460
H331	H33	0.455600	0.302400	0.381900
C521	C52	0.910400	0.905700	0.240690
H341	H34	0.877000	0.849700	0.244600
C531	C53	0.898300	0.977000	0.269720
H351	H35	0.857800	0.968700	0.292800
C541	C54	0.811500	0.833400	0.487400
C551	C55	0.750400	0.478500	0.617650
H361	H36	0.682600	0.451900	0.619400
H371	H37	0.743600	0.544300	0.613900
H381	H38	0.795000	0.465400	0.644400
C561	C56	0.695900	0.269700	0.494170
H391	H39	0.631400	0.268800	0.507300
H401	H40	0.725600	0.208700	0.495100
H411	H41	0.682600	0.289700	0.464000
C571	C57	0.246300	0.123800	0.284930
H421	H42	0.260200	0.083800	0.261100
H431	H43	0.199300	0.172100	0.273700
H441	H44	0.214900	0.088700	0.306700
C581	C58	0.786400	0.933800	0.419020
H451	H45	0.749900	0.885800	0.403900
C591	C59	0.529000	0.170300	0.305730
C601	C60	0.620400	0.139600	0.282470
H461	H46	0.596400	0.097800	0.259000
H471	H47	0.670900	0.108900	0.303100
H481	H48	0.652300	0.192600	0.270500
Ni91	Ni9	0.127240	0.217620	0.933590
Ni101	Ni10	0.803280	0.092950	0.888170
Ni111	Ni11	0.870740	0.293840	0.880930
Ni121	Ni12	0.026670	0.190100	0.838870
O291	O29	0.853230	0.203630	0.933480
O301	O30	0.924580	0.897900	0.107770
O311	O31	0.029910	0.285560	0.888710
H491	H49	0.061300	0.343700	0.880200
O321	O32	0.711210	0.301880	0.869820
O331	O33	0.992340	0.289040	0.791110
O341	O34	0.880010	0.374300	0.826030
O351	O35	0.872660	0.171770	0.846270
H501	H50	0.829300	0.176500	0.817800
O361	O36	0.063940	0.980400	0.091720
O371	O37	0.832600	0.665430	0.028710
O381	O38	0.012370	0.196870	0.973110
O391	O39	0.180700	0.213940	0.831660
O401	O40	0.255430	0.241100	0.901110
O411	O41	0.660820	0.152740	0.869290
N91	N9	0.968700	0.585560	0.706980
N101	N10	0.738100	0.125600	0.055590
C611	C61	0.352100	0.271900	0.841110
N111	N11	0.858300	0.413500	0.917230
C621	C62	0.803900	0.485000	0.897380
H511	H51	0.777200	0.479100	0.867800
N121	N12	0.434200	0.361900	0.788340
O421	O42	0.783300	0.735400	0.963770
C631	C63	0.897100	0.039700	0.068100
C641	C64	0.875400	0.501800	0.984080
H521	H52	0.899000	0.504800	0.014100
C651	C65	0.538900	0.268000	0.841110
C661	C66	0.933800	0.084700	0.033390
H531	H53	0.002000	0.074100	0.027300
C671	C67	0.016100	0.504200	0.702330
H541	H54	0.057700	0.498000	0.679400
C681	C68	0.967000	0.967100	0.091480
C691	C69	0.915400	0.186100	0.968030
C701	C70	0.646700	0.238300	0.861720
C711	C71	0.938700	0.361200	0.796320
C721	C72	0.006900	0.430200	0.729200
H551	H55	0.040300	0.374700	0.724200
C731	C73	0.770600	0.165300	0.019170
C741	C74	0.255100	0.239900	0.859390
C751	C75	0.870900	0.145700	0.007240
C761	C76	0.823000	0.576300	0.963180
C771	C77	0.947000	0.438500	0.764340
C781	C78	0.892300	0.422600	0.959970
H561	H56	0.929000	0.373800	0.974300
C791	C79	0.347900	0.334000	0.805770
C801	C80	0.797300	0.062000	0.079000
C811	C81	0.450100	0.239100	0.858460
H571	H57	0.455600	0.197600	0.881900
C821	C82	0.910400	0.594300	0.740690
H581	H58	0.877000	0.650300	0.744600
C831	C83	0.898300	0.523000	0.769720
H591	H59	0.857800	0.531300	0.792800
C841	C84	0.811500	0.666600	0.987400
C851	C85	0.750400	0.021500	0.117650
H601	H60	0.682600	0.048100	0.119400
H611	H61	0.743600	0.955700	0.113900
H621	H62	0.795000	0.034600	0.144400
C861	C86	0.695900	0.230300	0.994170
H631	H63	0.631400	0.231200	0.007300
H641	H64	0.725600	0.291300	0.995100
H651	H65	0.682600	0.210300	0.964000
C871	C87	0.246300	0.376200	0.784930
H661	H66	0.260200	0.416200	0.761100
H671	H67	0.199300	0.327900	0.773700
H681	H68	0.214900	0.411300	0.806700
C881	C88	0.786400	0.566200	0.919020
H691	H69	0.749900	0.614200	0.903900
C891	C89	0.529000	0.329700	0.805730
C901	C90	0.620400	0.360400	0.782470
H701	H70	0.596400	0.402200	0.759000
H711	H71	0.670900	0.391100	0.803100
H721	H72	0.652300	0.307400	0.770500
Ni131	Ni13	0.872760	0.717620	0.566410
Ni141	Ni14	0.196720	0.592950	0.611830
Ni151	Ni15	0.129260	0.793840	0.619070
Ni161	Ni16	0.973330	0.690100	0.661130
O431	O43	0.146770	0.703630	0.566520
O441	O44	0.075420	0.397900	0.392230
O451	O45	0.970090	0.785560	0.611290
H731	H73	0.938700	0.843700	0.619800
O461	O46	0.288790	0.801880	0.630180
O471	O47	0.007660	0.789040	0.708890
O481	O48	0.119990	0.874300	0.673970
O491	O49	0.127340	0.671770	0.653730
H741	H74	0.170700	0.676500	0.682200
O501	O50	0.936060	0.480400	0.408280
O511	O51	0.167400	0.165430	0.471290
O521	O52	0.987630	0.696870	0.526890
O531	O53	0.819300	0.713940	0.668340
O541	O54	0.744570	0.741100	0.598890
O551	O55	0.339180	0.652740	0.630710
N131	N13	0.031300	0.085560	0.793020
N141	N14	0.261900	0.625600	0.444410
C911	C91	0.647900	0.771900	0.658890
N151	N15	0.141700	0.913500	0.582770
C921	C92	0.196100	0.985000	0.602620
H751	H75	0.222800	0.979100	0.632200
N161	N16	0.565800	0.861900	0.711660
O561	O56	0.216700	0.235400	0.536230
C931	C93	0.102900	0.539700	0.431900
C941	C94	0.124600	0.001800	0.515920
H761	H76	0.101000	0.004800	0.485900
C951	C95	0.461100	0.768000	0.658890
C961	C96	0.066200	0.584700	0.466610
H771	H77	0.998000	0.574100	0.472700
C971	C97	0.983900	0.004200	0.797670
H781	H78	0.942300	0.998000	0.820600
C981	C98	0.033000	0.467100	0.408520
C991	C99	0.084600	0.686100	0.531970
C1001	C100	0.353300	0.738300	0.638280
C1011	C101	0.061300	0.861200	0.703680
C1021	C102	0.993100	0.930200	0.770800
H791	H79	0.959700	0.874700	0.775800
C1031	C103	0.229400	0.665300	0.480830
C1041	C104	0.744900	0.739900	0.640610
C1051	C105	0.129100	0.645700	0.492760
C1061	C106	0.177000	0.076300	0.536820
C1071	C107	0.053000	0.938500	0.735660
C1081	C108	0.107700	0.922600	0.540030
H801	H80	0.071000	0.873800	0.525700
C1091	C109	0.652100	0.834000	0.694230
C1101	C110	0.202700	0.562000	0.421000
C1111	C111	0.549900	0.739100	0.641540
H811	H81	0.544400	0.697600	0.618100
C1121	C112	0.089600	0.094300	0.759310
H821	H82	0.123000	0.150300	0.755400
C1131	C113	0.101700	0.023000	0.730280
H831	H83	0.142200	0.031300	0.707200
C1141	C114	0.188500	0.166600	0.512600
C1151	C115	0.249600	0.521500	0.382350
H841	H84	0.317400	0.548100	0.380600
H851	H85	0.256400	0.455700	0.386100
H861	H86	0.205000	0.534600	0.355600
C1161	C116	0.304100	0.730300	0.505830
H871	H87	0.368600	0.731200	0.492700
H881	H88	0.274400	0.791300	0.504900
H891	H89	0.317400	0.710300	0.536000
C1171	C117	0.753700	0.876200	0.715070
H901	H90	0.739800	0.916200	0.738900
H911	H91	0.800700	0.827900	0.726300
H921	H92	0.785100	0.911300	0.693300
C1181	C118	0.213600	0.066200	0.580980
H931	H93	0.250100	0.114200	0.596100
C1191	C119	0.471000	0.829700	0.694270
C1201	C120	0.379600	0.860400	0.717530
H941	H94	0.403600	0.902200	0.741000
H951	H95	0.329100	0.891100	0.696900
H961	H96	0.347700	0.807400	0.729500
