data_KOJZIT_clean_PM
_symmetry_space_group_name_H-M	'P1'
_cell_length_a	10.469300
_cell_length_b	26.978300
_cell_length_c	26.978300
_cell_angle_alpha	61.647100
_cell_angle_beta	82.567700
_cell_angle_gamma	97.432300
_symmetry_Int_Tables_number 1

loop_
_symmetry_equiv_pos_as_xyz
'x,y,z'

loop_
_atom_site_label
_atom_site_type_symbol
_atom_site_fract_x
_atom_site_fract_y
_atom_site_fract_z
Cu11	Cu1	0.420730	0.000000	0.465710
Cu21	Cu2	0.886440	0.465710	0.534290
Cu31	Cu3	0.420730	0.534290	0.000000
Cu41	Cu4	0.113560	0.534290	0.465710
Cu51	Cu5	0.579270	0.000000	0.534290
Cu61	Cu6	0.579270	0.465710	0.000000
H11	H1	0.447500	0.125900	0.573100
H21	H2	0.257100	0.143200	0.450000
H31	H3	0.340300	0.235500	0.593900
H41	H4	0.470200	0.212400	0.593600
H51	H5	0.337200	0.170000	0.634900
H61	H6	0.020600	0.573100	0.301000
H71	H7	0.707100	0.450000	0.406800
H81	H8	0.934200	0.593900	0.170600
H91	H9	0.063800	0.593600	0.194000
H101	H10	0.972100	0.634900	0.195100
H111	H11	0.321600	0.301000	0.125900
H121	H12	0.113900	0.406800	0.143200
H131	H13	0.104800	0.170600	0.235500
H141	H14	0.257800	0.194000	0.212400
H151	H15	0.167200	0.195100	0.170000
H161	H16	0.979400	0.301000	0.573100
H171	H17	0.292900	0.406800	0.450000
H181	H18	0.065800	0.170600	0.593900
H191	H19	0.936200	0.194000	0.593600
H201	H20	0.027900	0.195100	0.634900
H211	H21	0.678400	0.125900	0.301000
H221	H22	0.886100	0.143200	0.406800
H231	H23	0.895200	0.235500	0.170600
H241	H24	0.742200	0.212400	0.194000
H251	H25	0.832800	0.170000	0.195100
H261	H26	0.552500	0.573100	0.125900
H271	H27	0.742900	0.450000	0.143200
H281	H28	0.659700	0.593900	0.235500
H291	H29	0.529800	0.593600	0.212400
H301	H30	0.662800	0.634900	0.170000
H311	H31	0.552500	0.874100	0.426900
H321	H32	0.742900	0.856800	0.550000
H331	H33	0.659700	0.764500	0.406100
H341	H34	0.529800	0.787600	0.406400
H351	H35	0.662800	0.830000	0.365100
H361	H36	0.979400	0.426900	0.699000
H371	H37	0.292900	0.550000	0.593200
H381	H38	0.065800	0.406100	0.829400
H391	H39	0.936200	0.406400	0.806000
H401	H40	0.027900	0.365100	0.804900
H411	H41	0.678400	0.699000	0.874100
H421	H42	0.886100	0.593200	0.856800
H431	H43	0.895200	0.829400	0.764500
H441	H44	0.742200	0.806000	0.787600
H451	H45	0.832800	0.804900	0.830000
H461	H46	0.020600	0.699000	0.426900
H471	H47	0.707100	0.593200	0.550000
H481	H48	0.934200	0.829400	0.406100
H491	H49	0.063800	0.806000	0.406400
H501	H50	0.972100	0.804900	0.365100
H511	H51	0.321600	0.874100	0.699000
H521	H52	0.113900	0.856800	0.593200
H531	H53	0.104800	0.764500	0.829400
H541	H54	0.257800	0.787600	0.806000
H551	H55	0.167200	0.830000	0.804900
H561	H56	0.447500	0.426900	0.874100
H571	H57	0.257100	0.550000	0.856800
H581	H58	0.340300	0.406100	0.764500
H591	H59	0.470200	0.406400	0.787600
H601	H60	0.337200	0.365100	0.830000
C11	C1	0.358430	0.126380	0.511690
C21	C2	0.392850	0.144410	0.548860
C31	C3	0.347340	0.190320	0.551300
C41	C4	0.266910	0.217410	0.514880
C51	C5	0.229520	0.199100	0.477640
C61	C6	0.278830	0.154430	0.476140
C71	C7	0.410200	0.077860	0.509460
C81	C8	0.376410	0.203230	0.597600
C91	C9	0.870120	0.511690	0.361930
C101	C10	0.941710	0.548860	0.306730
C111	C11	0.898640	0.551300	0.258380
C121	C12	0.781790	0.514880	0.267710
C131	C13	0.707160	0.477640	0.323260
C141	C14	0.754970	0.476140	0.369430
C151	C15	0.919660	0.509460	0.412680
C161	C16	0.974010	0.597600	0.199170
C171	C17	0.232050	0.361930	0.126380
C181	C18	0.248440	0.306730	0.144410
C191	C19	0.157020	0.258380	0.190320
C201	C20	0.049500	0.267710	0.217410
C211	C21	0.030420	0.323260	0.199100
C221	C22	0.124400	0.369430	0.154430
C231	C23	0.332340	0.412680	0.077860
C241	C24	0.173180	0.199170	0.203230
C251	C25	0.129880	0.361930	0.511690
C261	C26	0.058290	0.306730	0.548860
C271	C27	0.101360	0.258380	0.551300
C281	C28	0.218210	0.267710	0.514880
C291	C29	0.292840	0.323260	0.477640
C301	C30	0.245030	0.369430	0.476140
C311	C31	0.080340	0.412680	0.509460
C321	C32	0.025990	0.199170	0.597600
C331	C33	0.767950	0.126380	0.361930
C341	C34	0.751560	0.144410	0.306730
C351	C35	0.842980	0.190320	0.258380
C361	C36	0.950500	0.217410	0.267710
C371	C37	0.969580	0.199100	0.323260
C381	C38	0.875600	0.154430	0.369430
C391	C39	0.667660	0.077860	0.412680
C401	C40	0.826820	0.203230	0.199170
C411	C41	0.641570	0.511690	0.126380
C421	C42	0.607150	0.548860	0.144410
C431	C43	0.652660	0.551300	0.190320
C441	C44	0.733090	0.514880	0.217410
C451	C45	0.770480	0.477640	0.199100
C461	C46	0.721170	0.476140	0.154430
C471	C47	0.589800	0.509460	0.077860
C481	C48	0.623590	0.597600	0.203230
C491	C49	0.641570	0.873620	0.488310
C501	C50	0.607150	0.855590	0.451140
C511	C51	0.652660	0.809680	0.448700
C521	C52	0.733090	0.782590	0.485120
C531	C53	0.770480	0.800900	0.522360
C541	C54	0.721170	0.845570	0.523860
C551	C55	0.589800	0.922140	0.490540
C561	C56	0.623590	0.796770	0.402400
C571	C57	0.129880	0.488310	0.638070
C581	C58	0.058290	0.451140	0.693270
C591	C59	0.101360	0.448700	0.741620
C601	C60	0.218210	0.485120	0.732290
C611	C61	0.292840	0.522360	0.676740
C621	C62	0.245030	0.523860	0.630570
C631	C63	0.080340	0.490540	0.587320
C641	C64	0.025990	0.402400	0.800830
C651	C65	0.767950	0.638070	0.873620
C661	C66	0.751560	0.693270	0.855590
C671	C67	0.842980	0.741620	0.809680
C681	C68	0.950500	0.732290	0.782590
C691	C69	0.969580	0.676740	0.800900
C701	C70	0.875600	0.630570	0.845570
C711	C71	0.667660	0.587320	0.922140
C721	C72	0.826820	0.800830	0.796770
C731	C73	0.870120	0.638070	0.488310
C741	C74	0.941710	0.693270	0.451140
C751	C75	0.898640	0.741620	0.448700
C761	C76	0.781790	0.732290	0.485120
C771	C77	0.707160	0.676740	0.522360
C781	C78	0.754970	0.630570	0.523860
C791	C79	0.919660	0.587320	0.490540
C801	C80	0.974010	0.800830	0.402400
C811	C81	0.232050	0.873620	0.638070
C821	C82	0.248440	0.855590	0.693270
C831	C83	0.157020	0.809680	0.741620
C841	C84	0.049500	0.782590	0.732290
C851	C85	0.030420	0.800900	0.676740
C861	C86	0.124400	0.845570	0.630570
C871	C87	0.332340	0.922140	0.587320
C881	C88	0.173180	0.796770	0.800830
C891	C89	0.358430	0.488310	0.873620
C901	C90	0.392850	0.451140	0.855590
C911	C91	0.347340	0.448700	0.809680
C921	C92	0.266910	0.485120	0.782590
C931	C93	0.229520	0.522360	0.800900
C941	C94	0.278830	0.523860	0.845570
C951	C95	0.410200	0.490540	0.922140
C961	C96	0.376410	0.402400	0.796770
O11	O1	0.362970	0.060010	0.478800
O21	O2	0.496710	0.059360	0.537700
O31	O3	0.841770	0.478800	0.461190
O41	O4	0.034410	0.537700	0.402940
O51	O5	0.302960	0.461190	0.060010
O61	O6	0.437350	0.402940	0.059360
O71	O7	0.158230	0.461190	0.478800
O81	O8	0.965590	0.402940	0.537700
O91	O9	0.697040	0.060010	0.461190
O101	O10	0.562650	0.059360	0.402940
O111	O11	0.637030	0.478800	0.060010
O121	O12	0.503290	0.537700	0.059360
O131	O13	0.637030	0.939990	0.521200
O141	O14	0.503290	0.940640	0.462300
O151	O15	0.158230	0.521200	0.538810
O161	O16	0.965590	0.462300	0.597060
O171	O17	0.697040	0.538810	0.939990
O181	O18	0.562650	0.597060	0.940640
O191	O19	0.841770	0.538810	0.521200
O201	O20	0.034410	0.597060	0.462300
O211	O21	0.302960	0.939990	0.538810
O221	O22	0.437350	0.940640	0.597060
O231	O23	0.362970	0.521200	0.939990
O241	O24	0.496710	0.462300	0.940640
