data_KOJZUF_clean_PM
_symmetry_space_group_name_H-M	'P1'
_cell_length_a	24.163600
_cell_length_b	17.671000
_cell_length_c	10.106500
_cell_angle_alpha	90.000000
_cell_angle_beta	113.969000
_cell_angle_gamma	90.000000
_symmetry_Int_Tables_number 1

loop_
_symmetry_equiv_pos_as_xyz
'x,y,z'

loop_
_atom_site_label
_atom_site_type_symbol
_atom_site_fract_x
_atom_site_fract_y
_atom_site_fract_z
Cu11	Cu1	0.276460	0.192980	0.965430
O11	O1	0.219800	0.129000	0.002600
O21	O2	0.175100	0.225900	0.063000
O31	O3	0.213000	0.209500	0.769800
O41	O4	0.169200	0.306800	0.830100
C11	C1	0.179800	0.156500	0.034300
C21	C2	0.129000	0.108100	0.034900
C31	C3	0.137200	0.036700	0.097800
C41	C4	0.087300	0.993800	0.086500
H11	H1	0.092800	0.945500	0.129100
C51	C5	0.029100	0.022300	0.012400
C61	C6	0.020900	0.093700	0.949500
H21	H2	0.981600	0.112900	0.899300
C71	C7	0.070900	0.136600	0.960800
H31	H3	0.065300	0.184900	0.918200
C81	C8	0.201600	0.005300	0.182000
H41	H4	0.230100	0.046900	0.215900
H51	H5	0.212600	0.972900	0.119100
H61	H6	0.202600	0.976200	0.264500
C91	C9	0.172700	0.257900	0.743300
C101	C10	0.121400	0.257700	0.595100
C111	C11	0.065000	0.284400	0.579600
C121	C12	0.017100	0.285500	0.443800
H71	H7	0.979000	0.303500	0.433400
C131	C13	0.025700	0.259800	0.323400
C141	C14	0.082100	0.233100	0.338900
H81	H8	0.087900	0.215800	0.257500
C151	C15	0.129900	0.232000	0.474700
C161	C16	0.042700	0.309400	0.697000
H91	H9	0.000800	0.325900	0.651100
H101	H10	0.067600	0.350900	0.753200
H111	H11	0.045700	0.267200	0.761200
C171	C17	0.189100	0.200000	0.471000
H121	H12	0.191000	0.213300	0.380200
H131	H13	0.189500	0.145400	0.480900
H141	H14	0.223700	0.221300	0.550800
Cu21	Cu2	0.776460	0.692980	0.965430
O51	O5	0.719800	0.629000	0.002600
O61	O6	0.675100	0.725900	0.063000
O71	O7	0.713000	0.709500	0.769800
O81	O8	0.669200	0.806800	0.830100
C181	C18	0.679800	0.656500	0.034300
C191	C19	0.629000	0.608100	0.034900
C201	C20	0.637200	0.536700	0.097800
C211	C21	0.587300	0.493800	0.086500
H151	H15	0.592800	0.445500	0.129100
C221	C22	0.529100	0.522300	0.012400
C231	C23	0.520900	0.593700	0.949500
H161	H16	0.481600	0.612900	0.899300
C241	C24	0.570900	0.636600	0.960800
H171	H17	0.565300	0.684900	0.918200
C251	C25	0.701600	0.505300	0.182000
H181	H18	0.730100	0.546900	0.215900
H191	H19	0.712600	0.472900	0.119100
H201	H20	0.702600	0.476200	0.264500
C261	C26	0.672700	0.757900	0.743300
C271	C27	0.621400	0.757700	0.595100
C281	C28	0.565000	0.784400	0.579600
C291	C29	0.517100	0.785500	0.443800
H211	H21	0.479000	0.803500	0.433400
C301	C30	0.525700	0.759800	0.323400
C311	C31	0.582100	0.733100	0.338900
H221	H22	0.587900	0.715800	0.257500
C321	C32	0.629900	0.732000	0.474700
C331	C33	0.542700	0.809400	0.697000
H231	H23	0.500800	0.825900	0.651100
H241	H24	0.567600	0.850900	0.753200
H251	H25	0.545700	0.767200	0.761200
C341	C34	0.689100	0.700000	0.471000
H261	H26	0.691000	0.713300	0.380200
H271	H27	0.689500	0.645400	0.480900
H281	H28	0.723700	0.721300	0.550800
Cu31	Cu3	0.723540	0.192980	0.534570
O91	O9	0.780200	0.129000	0.497400
O101	O10	0.824900	0.225900	0.437000
O111	O11	0.787000	0.209500	0.730200
O121	O12	0.830800	0.306800	0.669900
C351	C35	0.820200	0.156500	0.465700
C361	C36	0.871000	0.108100	0.465100
C371	C37	0.862800	0.036700	0.402200
C381	C38	0.912700	0.993800	0.413500
H291	H29	0.907200	0.945500	0.370900
C391	C39	0.970900	0.022300	0.487600
C401	C40	0.979100	0.093700	0.550500
H301	H30	0.018400	0.112900	0.600700
C411	C41	0.929100	0.136600	0.539200
H311	H31	0.934700	0.184900	0.581800
C421	C42	0.798400	0.005300	0.318000
H321	H32	0.769900	0.046900	0.284100
H331	H33	0.787400	0.972900	0.380900
H341	H34	0.797400	0.976200	0.235500
C431	C43	0.827300	0.257900	0.756700
C441	C44	0.878600	0.257700	0.904900
C451	C45	0.935000	0.284400	0.920400
C461	C46	0.982900	0.285500	0.056200
H351	H35	0.021000	0.303500	0.066600
C471	C47	0.974300	0.259800	0.176600
C481	C48	0.917900	0.233100	0.161100
H361	H36	0.912100	0.215800	0.242500
C491	C49	0.870100	0.232000	0.025300
C501	C50	0.957300	0.309400	0.803000
H371	H37	0.999200	0.325900	0.848900
H381	H38	0.932400	0.350900	0.746800
H391	H39	0.954300	0.267200	0.738800
C511	C51	0.810900	0.200000	0.029000
H401	H40	0.809000	0.213300	0.119800
H411	H41	0.810500	0.145400	0.019100
H421	H42	0.776300	0.221300	0.949200
Cu41	Cu4	0.223540	0.692980	0.534570
O131	O13	0.280200	0.629000	0.497400
O141	O14	0.324900	0.725900	0.437000
O151	O15	0.287000	0.709500	0.730200
O161	O16	0.330800	0.806800	0.669900
C521	C52	0.320200	0.656500	0.465700
C531	C53	0.371000	0.608100	0.465100
C541	C54	0.362800	0.536700	0.402200
C551	C55	0.412700	0.493800	0.413500
H431	H43	0.407200	0.445500	0.370900
C561	C56	0.470900	0.522300	0.487600
C571	C57	0.479100	0.593700	0.550500
H441	H44	0.518400	0.612900	0.600700
C581	C58	0.429100	0.636600	0.539200
H451	H45	0.434700	0.684900	0.581800
C591	C59	0.298400	0.505300	0.318000
H461	H46	0.269900	0.546900	0.284100
H471	H47	0.287400	0.472900	0.380900
H481	H48	0.297400	0.476200	0.235500
C601	C60	0.327300	0.757900	0.756700
C611	C61	0.378600	0.757700	0.904900
C621	C62	0.435000	0.784400	0.920400
C631	C63	0.482900	0.785500	0.056200
H491	H49	0.521000	0.803500	0.066600
C641	C64	0.474300	0.759800	0.176600
C651	C65	0.417900	0.733100	0.161100
H501	H50	0.412100	0.715800	0.242500
C661	C66	0.370100	0.732000	0.025300
C671	C67	0.457300	0.809400	0.803000
H511	H51	0.499200	0.825900	0.848900
H521	H52	0.432400	0.850900	0.746800
H531	H53	0.454300	0.767200	0.738800
C681	C68	0.310900	0.700000	0.029000
H541	H54	0.309000	0.713300	0.119800
H551	H55	0.310500	0.645400	0.019100
H561	H56	0.276300	0.721300	0.949200
Cu51	Cu5	0.723540	0.807020	0.034570
O171	O17	0.780200	0.871000	0.997400
O181	O18	0.824900	0.774100	0.937000
O191	O19	0.787000	0.790500	0.230200
O201	O20	0.830800	0.693200	0.169900
C691	C69	0.820200	0.843500	0.965700
C701	C70	0.871000	0.891900	0.965100
C711	C71	0.862800	0.963300	0.902200
C721	C72	0.912700	0.006200	0.913500
H571	H57	0.907200	0.054500	0.870900
C731	C73	0.970900	0.977700	0.987600
C741	C74	0.979100	0.906300	0.050500
H581	H58	0.018400	0.887100	0.100700
C751	C75	0.929100	0.863400	0.039200
H591	H59	0.934700	0.815100	0.081800
C761	C76	0.798400	0.994700	0.818000
H601	H60	0.769900	0.953100	0.784100
H611	H61	0.787400	0.027100	0.880900
H621	H62	0.797400	0.023800	0.735500
C771	C77	0.827300	0.742100	0.256700
C781	C78	0.878600	0.742300	0.404900
C791	C79	0.935000	0.715600	0.420400
C801	C80	0.982900	0.714500	0.556200
H631	H63	0.021000	0.696500	0.566600
C811	C81	0.974300	0.740200	0.676600
C821	C82	0.917900	0.766900	0.661100
H641	H64	0.912100	0.784200	0.742500
C831	C83	0.870100	0.768000	0.525300
C841	C84	0.957300	0.690600	0.303000
H651	H65	0.999200	0.674100	0.348900
H661	H66	0.932400	0.649100	0.246800
H671	H67	0.954300	0.732800	0.238800
C851	C85	0.810900	0.800000	0.529000
H681	H68	0.809000	0.786700	0.619800
H691	H69	0.810500	0.854600	0.519100
H701	H70	0.776300	0.778700	0.449200
Cu61	Cu6	0.223540	0.307020	0.034570
O211	O21	0.280200	0.371000	0.997400
O221	O22	0.324900	0.274100	0.937000
O231	O23	0.287000	0.290500	0.230200
O241	O24	0.330800	0.193200	0.169900
C861	C86	0.320200	0.343500	0.965700
C871	C87	0.371000	0.391900	0.965100
C881	C88	0.362800	0.463300	0.902200
C891	C89	0.412700	0.506200	0.913500
H711	H71	0.407200	0.554500	0.870900
C901	C90	0.470900	0.477700	0.987600
C911	C91	0.479100	0.406300	0.050500
H721	H72	0.518400	0.387100	0.100700
C921	C92	0.429100	0.363400	0.039200
H731	H73	0.434700	0.315100	0.081800
C931	C93	0.298400	0.494700	0.818000
H741	H74	0.269900	0.453100	0.784100
H751	H75	0.287400	0.527100	0.880900
H761	H76	0.297400	0.523800	0.735500
C941	C94	0.327300	0.242100	0.256700
C951	C95	0.378600	0.242300	0.404900
C961	C96	0.435000	0.215600	0.420400
C971	C97	0.482900	0.214500	0.556200
H771	H77	0.521000	0.196500	0.566600
C981	C98	0.474300	0.240200	0.676600
C991	C99	0.417900	0.266900	0.661100
H781	H78	0.412100	0.284200	0.742500
C1001	C100	0.370100	0.268000	0.525300
C1011	C101	0.457300	0.190600	0.303000
H791	H79	0.499200	0.174100	0.348900
H801	H80	0.432400	0.149100	0.246800
H811	H81	0.454300	0.232800	0.238800
C1021	C102	0.310900	0.300000	0.529000
H821	H82	0.309000	0.286700	0.619800
H831	H83	0.310500	0.354600	0.519100
H841	H84	0.276300	0.278700	0.449200
Cu71	Cu7	0.276460	0.807020	0.465430
O251	O25	0.219800	0.871000	0.502600
O261	O26	0.175100	0.774100	0.563000
O271	O27	0.213000	0.790500	0.269800
O281	O28	0.169200	0.693200	0.330100
C1031	C103	0.179800	0.843500	0.534300
C1041	C104	0.129000	0.891900	0.534900
C1051	C105	0.137200	0.963300	0.597800
C1061	C106	0.087300	0.006200	0.586500
H851	H85	0.092800	0.054500	0.629100
C1071	C107	0.029100	0.977700	0.512400
C1081	C108	0.020900	0.906300	0.449500
H861	H86	0.981600	0.887100	0.399300
C1091	C109	0.070900	0.863400	0.460800
H871	H87	0.065300	0.815100	0.418200
C1101	C110	0.201600	0.994700	0.682000
H881	H88	0.230100	0.953100	0.715900
H891	H89	0.212600	0.027100	0.619100
H901	H90	0.202600	0.023800	0.764500
C1111	C111	0.172700	0.742100	0.243300
C1121	C112	0.121400	0.742300	0.095100
C1131	C113	0.065000	0.715600	0.079600
C1141	C114	0.017100	0.714500	0.943800
H911	H91	0.979000	0.696500	0.933400
C1151	C115	0.025700	0.740200	0.823400
C1161	C116	0.082100	0.766900	0.838900
H921	H92	0.087900	0.784200	0.757500
C1171	C117	0.129900	0.768000	0.974700
C1181	C118	0.042700	0.690600	0.197000
H931	H93	0.000800	0.674100	0.151100
H941	H94	0.067600	0.649100	0.253200
H951	H95	0.045700	0.732800	0.261200
C1191	C119	0.189100	0.800000	0.971000
H961	H96	0.191000	0.786700	0.880200
H971	H97	0.189500	0.854600	0.980900
H981	H98	0.223700	0.778700	0.050800
Cu81	Cu8	0.776460	0.307020	0.465430
O291	O29	0.719800	0.371000	0.502600
O301	O30	0.675100	0.274100	0.563000
O311	O31	0.713000	0.290500	0.269800
O321	O32	0.669200	0.193200	0.330100
C1201	C120	0.679800	0.343500	0.534300
C1211	C121	0.629000	0.391900	0.534900
C1221	C122	0.637200	0.463300	0.597800
C1231	C123	0.587300	0.506200	0.586500
H991	H99	0.592800	0.554500	0.629100
C1241	C124	0.529100	0.477700	0.512400
C1251	C125	0.520900	0.406300	0.449500
H1001	H100	0.481600	0.387100	0.399300
C1261	C126	0.570900	0.363400	0.460800
H1011	H101	0.565300	0.315100	0.418200
C1271	C127	0.701600	0.494700	0.682000
H1021	H102	0.730100	0.453100	0.715900
H1031	H103	0.712600	0.527100	0.619100
H1041	H104	0.702600	0.523800	0.764500
C1281	C128	0.672700	0.242100	0.243300
C1291	C129	0.621400	0.242300	0.095100
C1301	C130	0.565000	0.215600	0.079600
C1311	C131	0.517100	0.214500	0.943800
H1051	H105	0.479000	0.196500	0.933400
C1321	C132	0.525700	0.240200	0.823400
C1331	C133	0.582100	0.266900	0.838900
H1061	H106	0.587900	0.284200	0.757500
C1341	C134	0.629900	0.268000	0.974700
C1351	C135	0.542700	0.190600	0.197000
H1071	H107	0.500800	0.174100	0.151100
H1081	H108	0.567600	0.149100	0.253200
H1091	H109	0.545700	0.232800	0.261200
C1361	C136	0.689100	0.300000	0.971000
H1101	H110	0.691000	0.286700	0.880200
H1111	H111	0.689500	0.354600	0.980900
H1121	H112	0.723700	0.278700	0.050800
