data_KOKDEU_clean_PM
_symmetry_space_group_name_H-M	'P1'
_cell_length_a	15.580400
_cell_length_b	25.572100
_cell_length_c	40.857000
_cell_angle_alpha	90.000000
_cell_angle_beta	96.397000
_cell_angle_gamma	90.000000
_symmetry_Int_Tables_number 1

loop_
_symmetry_equiv_pos_as_xyz
'x,y,z'

loop_
_atom_site_label
_atom_site_type_symbol
_atom_site_fract_x
_atom_site_fract_y
_atom_site_fract_z
Cu11	Cu1	0.245770	0.118130	0.171090
Cu21	Cu2	0.563960	0.635940	0.089110
Cu31	Cu3	0.062490	0.094740	0.156680
Cu41	Cu4	0.175420	0.214280	0.130840
Cu51	Cu5	0.251510	0.088210	0.096730
Cu61	Cu6	0.706870	0.988310	0.169480
Cu71	Cu7	0.376830	0.877710	0.993950
Cu81	Cu8	0.665800	0.528510	0.931310
N11	N1	0.395800	0.303300	0.237350
N21	N2	0.170300	0.161800	0.194730
N31	N3	0.085700	0.146900	0.188320
N41	N4	0.760300	0.184300	0.185200
N51	N5	0.604700	0.043900	0.164160
N61	N6	0.331500	0.160300	0.146050
N71	N7	0.294600	0.205900	0.133640
N81	N8	0.325500	0.388900	0.081800
N91	N9	0.264900	0.986200	0.280730
N101	N10	0.259700	0.044800	0.159880
N111	N11	0.274500	0.035000	0.128030
N121	N12	0.350000	0.913100	0.035680
N131	N13	0.634300	0.524900	0.975720
N141	N14	0.557200	0.560400	0.093220
N151	N15	0.545700	0.543400	0.124190
N161	N16	0.521500	0.398500	0.210630
N171	N17	0.217000	0.645100	0.040620
N181	N18	0.503900	0.693500	0.108670
N191	N19	0.558200	0.729900	0.124840
N201	N20	0.634400	0.917600	0.159890
N211	N21	0.456300	0.809800	0.006340
N221	N22	0.654100	0.665600	0.060720
N231	N23	0.727600	0.636000	0.062350
N241	N24	0.011700	0.579700	0.020300
C11	C1	0.332800	0.222200	0.217100
H11	H1	0.341600	0.188800	0.209100
C21	C2	0.402300	0.255200	0.224900
H21	H2	0.456900	0.243300	0.221400
C31	C3	0.316100	0.317800	0.242200
H31	H3	0.309100	0.350500	0.251500
C41	C4	0.243200	0.287600	0.234500
H41	H4	0.189200	0.300200	0.238300
C51	C5	0.251200	0.238600	0.221040
C61	C6	0.172000	0.207900	0.211200
C71	C7	0.087700	0.222600	0.215100
H51	H5	0.070300	0.252300	0.225700
C81	C8	0.035100	0.184000	0.199940
C91	C9	0.941000	0.182100	0.195000
C101	C10	0.894400	0.228100	0.195800
H61	H6	0.923800	0.259400	0.200300
C111	C11	0.807000	0.228700	0.190300
H71	H7	0.778300	0.260600	0.190000
C121	C12	0.804100	0.141300	0.183600
H81	H8	0.774000	0.110300	0.179000
C131	C13	0.895600	0.139400	0.188300
H91	H9	0.923700	0.107600	0.186600
C141	C14	0.468400	0.081300	0.172900
H101	H10	0.418600	0.078800	0.183400
C151	C15	0.533700	0.043900	0.178600
H111	H11	0.526400	0.017400	0.193700
C161	C16	0.614900	0.082700	0.142900
H121	H12	0.664000	0.082900	0.131900
C171	C17	0.554800	0.122600	0.136700
H131	H13	0.565600	0.149900	0.122700
C181	C18	0.478700	0.121900	0.151300
C191	C19	0.416900	0.163900	0.143400
C201	C20	0.434600	0.211300	0.130000
H141	H14	0.488300	0.223900	0.125800
C211	C21	0.356700	0.236500	0.124100
C221	C22	0.341400	0.289000	0.109700
C231	C23	0.401200	0.325200	0.114800
H151	H15	0.451400	0.318700	0.128700
C241	C24	0.388600	0.373700	0.099000
H161	H16	0.434400	0.397200	0.102300
C251	C25	0.265200	0.355500	0.078500
H171	H17	0.213400	0.365500	0.066700
C261	C26	0.270200	0.303000	0.091700
H181	H18	0.224300	0.279800	0.087500
C271	C27	0.215300	0.026700	0.229300
H191	H19	0.179300	0.051500	0.218300
C281	C28	0.217800	0.021500	0.262800
H201	H20	0.184300	0.044200	0.273800
C291	C29	0.310300	0.953400	0.263500
H211	H21	0.342700	0.927200	0.274800
C301	C30	0.311000	0.956500	0.230300
H221	H22	0.342500	0.932200	0.219600
C311	C31	0.265700	0.995400	0.212010
C321	C32	0.271400	0.999800	0.176890
C331	C33	0.293700	0.960700	0.156090
H231	H23	0.305300	0.925800	0.161400
C341	C34	0.295100	0.984400	0.125580
C351	C35	0.314000	0.960100	0.094120
C361	C36	0.292000	0.909200	0.087350
H241	H24	0.265000	0.889500	0.102400
C371	C37	0.310500	0.887100	0.057700
H251	H25	0.294400	0.852600	0.053300
C381	C38	0.372200	0.963000	0.042500
H261	H26	0.400300	0.981900	0.027400
C391	C39	0.354600	0.987100	0.071300
H271	H27	0.370400	0.021800	0.075300
C401	C40	0.566500	0.563100	0.020460
H281	H28	0.535600	0.590900	0.028000
C411	C41	0.590300	0.563300	0.988600
H291	H29	0.574500	0.592100	0.975400
C421	C42	0.652700	0.484500	0.995300
H301	H30	0.681300	0.456500	0.986900
C431	C43	0.633500	0.480500	0.026600
H311	H31	0.649400	0.450700	0.038800
C441	C44	0.589800	0.520700	0.040740
C451	C45	0.570400	0.517600	0.075080
C461	C46	0.570100	0.472900	0.094570
H321	H32	0.579400	0.438600	0.088300
C471	C47	0.553200	0.490400	0.125250
C481	C48	0.542100	0.460200	0.155190
C491	C49	0.580900	0.410900	0.159780
H331	H33	0.614900	0.397600	0.144400
C501	C50	0.567800	0.382300	0.187500
H341	H34	0.593400	0.349500	0.190000
C511	C51	0.482400	0.445200	0.205500
H351	H35	0.446600	0.456800	0.220700
C521	C52	0.492800	0.476600	0.178800
H361	H36	0.466100	0.509100	0.176900
C531	C53	0.331200	0.637500	0.084300
H371	H37	0.362100	0.615700	0.099600
C541	C54	0.261700	0.617700	0.063500
H381	H38	0.246300	0.582900	0.066100
C551	C55	0.237400	0.695000	0.039300
H391	H39	0.204500	0.716000	0.024100
C561	C56	0.303700	0.718000	0.058800
H401	H40	0.315400	0.753400	0.056300
C571	C57	0.354000	0.688600	0.082500
C581	C58	0.425300	0.715200	0.102560
C591	C59	0.426900	0.766000	0.114500
H411	H41	0.381200	0.789600	0.113500
C601	C60	0.511400	0.774300	0.128450
C611	C61	0.552400	0.823000	0.140720
C621	C62	0.514400	0.870600	0.134700
H421	H42	0.459100	0.872200	0.123500
C631	C63	0.555000	0.915400	0.144700
H431	H43	0.525300	0.946700	0.140500
C641	C64	0.672300	0.872200	0.165300
H441	H44	0.728900	0.871800	0.175400
C651	C65	0.633800	0.825500	0.157100
H451	H45	0.663500	0.794700	0.162700
C661	C66	0.551400	0.764500	0.046300
H461	H46	0.573900	0.761300	0.068200
C671	C67	0.490300	0.801800	0.037500
H471	H47	0.471500	0.822700	0.053900
C681	C68	0.482100	0.778000	0.984000
H481	H48	0.457600	0.781400	0.962300
C691	C69	0.545000	0.739300	0.991600
H491	H49	0.563000	0.718700	0.974800
C701	C70	0.579900	0.731700	0.023320
C711	C71	0.649200	0.692700	0.032100
C721	C72	0.718900	0.679900	0.015250
H501	H50	0.730700	0.692500	0.994900
C731	C73	0.766700	0.644700	0.035200
C741	C74	0.850600	0.621100	0.030740
C751	C75	0.864600	0.597400	0.000900
H511	H51	0.819700	0.594400	0.984000
C761	C76	0.945200	0.578500	0.996700
H521	H52	0.953900	0.564200	0.976500
C771	C77	0.995900	0.597700	0.048900
H531	H53	0.040400	0.596400	0.066100
C781	C78	0.917900	0.618600	0.055700
H541	H54	0.910900	0.630700	0.076700
N251	N25	0.304200	0.498100	0.109100
C791	C79	0.277500	0.499100	0.134000
N261	N26	0.722500	0.500900	0.866000
C801	C80	0.695800	0.501900	0.890900
Cu91	Cu9	0.745770	0.618130	0.171090
Cu101	Cu10	0.063960	0.135940	0.089110
Cu111	Cu11	0.562490	0.594740	0.156680
Cu121	Cu12	0.675420	0.714280	0.130840
Cu131	Cu13	0.751510	0.588210	0.096730
Cu141	Cu14	0.206870	0.488310	0.169480
Cu151	Cu15	0.876830	0.377710	0.993950
Cu161	Cu16	0.165800	0.028510	0.931310
N271	N27	0.895800	0.803300	0.237350
N281	N28	0.670300	0.661800	0.194730
N291	N29	0.585700	0.646900	0.188320
N301	N30	0.260300	0.684300	0.185200
N311	N31	0.104700	0.543900	0.164160
N321	N32	0.831500	0.660300	0.146050
N331	N33	0.794600	0.705900	0.133640
N341	N34	0.825500	0.888900	0.081800
N351	N35	0.764900	0.486200	0.280730
N361	N36	0.759700	0.544800	0.159880
N371	N37	0.774500	0.535000	0.128030
N381	N38	0.850000	0.413100	0.035680
N391	N39	0.134300	0.024900	0.975720
N401	N40	0.057200	0.060400	0.093220
N411	N41	0.045700	0.043400	0.124190
N421	N42	0.021500	0.898500	0.210630
N431	N43	0.717000	0.145100	0.040620
N441	N44	0.003900	0.193500	0.108670
N451	N45	0.058200	0.229900	0.124840
N461	N46	0.134400	0.417600	0.159890
N471	N47	0.956300	0.309800	0.006340
N481	N48	0.154100	0.165600	0.060720
N491	N49	0.227600	0.136000	0.062350
N501	N50	0.511700	0.079700	0.020300
C811	C81	0.832800	0.722200	0.217100
H551	H55	0.841600	0.688800	0.209100
C821	C82	0.902300	0.755200	0.224900
H561	H56	0.956900	0.743300	0.221400
C831	C83	0.816100	0.817800	0.242200
H571	H57	0.809100	0.850500	0.251500
C841	C84	0.743200	0.787600	0.234500
H581	H58	0.689200	0.800200	0.238300
C851	C85	0.751200	0.738600	0.221040
C861	C86	0.672000	0.707900	0.211200
C871	C87	0.587700	0.722600	0.215100
H591	H59	0.570300	0.752300	0.225700
C881	C88	0.535100	0.684000	0.199940
C891	C89	0.441000	0.682100	0.195000
C901	C90	0.394400	0.728100	0.195800
H601	H60	0.423800	0.759400	0.200300
C911	C91	0.307000	0.728700	0.190300
H611	H61	0.278300	0.760600	0.190000
C921	C92	0.304100	0.641300	0.183600
H621	H62	0.274000	0.610300	0.179000
C931	C93	0.395600	0.639400	0.188300
H631	H63	0.423700	0.607600	0.186600
C941	C94	0.968400	0.581300	0.172900
H641	H64	0.918600	0.578800	0.183400
C951	C95	0.033700	0.543900	0.178600
H651	H65	0.026400	0.517400	0.193700
C961	C96	0.114900	0.582700	0.142900
H661	H66	0.164000	0.582900	0.131900
C971	C97	0.054800	0.622600	0.136700
H671	H67	0.065600	0.649900	0.122700
C981	C98	0.978700	0.621900	0.151300
C991	C99	0.916900	0.663900	0.143400
C1001	C100	0.934600	0.711300	0.130000
H681	H68	0.988300	0.723900	0.125800
C1011	C101	0.856700	0.736500	0.124100
C1021	C102	0.841400	0.789000	0.109700
C1031	C103	0.901200	0.825200	0.114800
H691	H69	0.951400	0.818700	0.128700
C1041	C104	0.888600	0.873700	0.099000
H701	H70	0.934400	0.897200	0.102300
C1051	C105	0.765200	0.855500	0.078500
H711	H71	0.713400	0.865500	0.066700
C1061	C106	0.770200	0.803000	0.091700
H721	H72	0.724300	0.779800	0.087500
C1071	C107	0.715300	0.526700	0.229300
H731	H73	0.679300	0.551500	0.218300
C1081	C108	0.717800	0.521500	0.262800
H741	H74	0.684300	0.544200	0.273800
C1091	C109	0.810300	0.453400	0.263500
H751	H75	0.842700	0.427200	0.274800
C1101	C110	0.811000	0.456500	0.230300
H761	H76	0.842500	0.432200	0.219600
C1111	C111	0.765700	0.495400	0.212010
C1121	C112	0.771400	0.499800	0.176890
C1131	C113	0.793700	0.460700	0.156090
H771	H77	0.805300	0.425800	0.161400
C1141	C114	0.795100	0.484400	0.125580
C1151	C115	0.814000	0.460100	0.094120
C1161	C116	0.792000	0.409200	0.087350
H781	H78	0.765000	0.389500	0.102400
C1171	C117	0.810500	0.387100	0.057700
H791	H79	0.794400	0.352600	0.053300
C1181	C118	0.872200	0.463000	0.042500
H801	H80	0.900300	0.481900	0.027400
C1191	C119	0.854600	0.487100	0.071300
H811	H81	0.870400	0.521800	0.075300
C1201	C120	0.066500	0.063100	0.020460
H821	H82	0.035600	0.090900	0.028000
C1211	C121	0.090300	0.063300	0.988600
H831	H83	0.074500	0.092100	0.975400
C1221	C122	0.152700	0.984500	0.995300
H841	H84	0.181300	0.956500	0.986900
C1231	C123	0.133500	0.980500	0.026600
H851	H85	0.149400	0.950700	0.038800
C1241	C124	0.089800	0.020700	0.040740
C1251	C125	0.070400	0.017600	0.075080
C1261	C126	0.070100	0.972900	0.094570
H861	H86	0.079400	0.938600	0.088300
C1271	C127	0.053200	0.990400	0.125250
C1281	C128	0.042100	0.960200	0.155190
C1291	C129	0.080900	0.910900	0.159780
H871	H87	0.114900	0.897600	0.144400
C1301	C130	0.067800	0.882300	0.187500
H881	H88	0.093400	0.849500	0.190000
C1311	C131	0.982400	0.945200	0.205500
H891	H89	0.946600	0.956800	0.220700
C1321	C132	0.992800	0.976600	0.178800
H901	H90	0.966100	0.009100	0.176900
C1331	C133	0.831200	0.137500	0.084300
H911	H91	0.862100	0.115700	0.099600
C1341	C134	0.761700	0.117700	0.063500
H921	H92	0.746300	0.082900	0.066100
C1351	C135	0.737400	0.195000	0.039300
H931	H93	0.704500	0.216000	0.024100
C1361	C136	0.803700	0.218000	0.058800
H941	H94	0.815400	0.253400	0.056300
C1371	C137	0.854000	0.188600	0.082500
C1381	C138	0.925300	0.215200	0.102560
C1391	C139	0.926900	0.266000	0.114500
H951	H95	0.881200	0.289600	0.113500
C1401	C140	0.011400	0.274300	0.128450
C1411	C141	0.052400	0.323000	0.140720
C1421	C142	0.014400	0.370600	0.134700
H961	H96	0.959100	0.372200	0.123500
C1431	C143	0.055000	0.415400	0.144700
H971	H97	0.025300	0.446700	0.140500
C1441	C144	0.172300	0.372200	0.165300
H981	H98	0.228900	0.371800	0.175400
C1451	C145	0.133800	0.325500	0.157100
H991	H99	0.163500	0.294700	0.162700
C1461	C146	0.051400	0.264500	0.046300
H1001	H100	0.073900	0.261300	0.068200
C1471	C147	0.990300	0.301800	0.037500
H1011	H101	0.971500	0.322700	0.053900
C1481	C148	0.982100	0.278000	0.984000
H1021	H102	0.957600	0.281400	0.962300
C1491	C149	0.045000	0.239300	0.991600
H1031	H103	0.063000	0.218700	0.974800
C1501	C150	0.079900	0.231700	0.023320
C1511	C151	0.149200	0.192700	0.032100
C1521	C152	0.218900	0.179900	0.015250
H1041	H104	0.230700	0.192500	0.994900
C1531	C153	0.266700	0.144700	0.035200
C1541	C154	0.350600	0.121100	0.030740
C1551	C155	0.364600	0.097400	0.000900
H1051	H105	0.319700	0.094400	0.984000
C1561	C156	0.445200	0.078500	0.996700
H1061	H106	0.453900	0.064200	0.976500
C1571	C157	0.495900	0.097700	0.048900
H1071	H107	0.540400	0.096400	0.066100
C1581	C158	0.417900	0.118600	0.055700
H1081	H108	0.410900	0.130700	0.076700
N511	N51	0.804200	0.998100	0.109100
C1591	C159	0.777500	0.999100	0.134000
N521	N52	0.222500	0.000900	0.866000
C1601	C160	0.195800	0.001900	0.890900
Cu171	Cu17	0.754230	0.118130	0.328910
Cu181	Cu18	0.436040	0.635940	0.410890
Cu191	Cu19	0.937510	0.094740	0.343320
Cu201	Cu20	0.824580	0.214280	0.369160
Cu211	Cu21	0.748490	0.088210	0.403270
Cu221	Cu22	0.293130	0.988310	0.330520
Cu231	Cu23	0.623170	0.877710	0.506050
Cu241	Cu24	0.334200	0.528510	0.568690
N531	N53	0.604200	0.303300	0.262650
N541	N54	0.829700	0.161800	0.305270
N551	N55	0.914300	0.146900	0.311680
N561	N56	0.239700	0.184300	0.314800
N571	N57	0.395300	0.043900	0.335840
N581	N58	0.668500	0.160300	0.353950
N591	N59	0.705400	0.205900	0.366360
N601	N60	0.674500	0.388900	0.418200
N611	N61	0.735100	0.986200	0.219270
N621	N62	0.740300	0.044800	0.340120
N631	N63	0.725500	0.035000	0.371970
N641	N64	0.650000	0.913100	0.464320
N651	N65	0.365700	0.524900	0.524280
N661	N66	0.442800	0.560400	0.406780
N671	N67	0.454300	0.543400	0.375810
N681	N68	0.478500	0.398500	0.289370
N691	N69	0.783000	0.645100	0.459380
N701	N70	0.496100	0.693500	0.391330
N711	N71	0.441800	0.729900	0.375160
N721	N72	0.365600	0.917600	0.340110
N731	N73	0.543700	0.809800	0.493660
N741	N74	0.345900	0.665600	0.439280
N751	N75	0.272400	0.636000	0.437650
N761	N76	0.988300	0.579700	0.479700
C1611	C161	0.667200	0.222200	0.282900
H1091	H109	0.658400	0.188800	0.290900
C1621	C162	0.597700	0.255200	0.275100
H1101	H110	0.543100	0.243300	0.278600
C1631	C163	0.683900	0.317800	0.257800
H1111	H111	0.690900	0.350500	0.248500
C1641	C164	0.756800	0.287600	0.265500
H1121	H112	0.810800	0.300200	0.261700
C1651	C165	0.748800	0.238600	0.278960
C1661	C166	0.828000	0.207900	0.288800
C1671	C167	0.912300	0.222600	0.284900
H1131	H113	0.929700	0.252300	0.274300
C1681	C168	0.964900	0.184000	0.300060
C1691	C169	0.059000	0.182100	0.305000
C1701	C170	0.105600	0.228100	0.304200
H1141	H114	0.076200	0.259400	0.299700
C1711	C171	0.193000	0.228700	0.309700
H1151	H115	0.221700	0.260600	0.310000
C1721	C172	0.195900	0.141300	0.316400
H1161	H116	0.226000	0.110300	0.321000
C1731	C173	0.104400	0.139400	0.311700
H1171	H117	0.076300	0.107600	0.313400
C1741	C174	0.531600	0.081300	0.327100
H1181	H118	0.581400	0.078800	0.316600
C1751	C175	0.466300	0.043900	0.321400
H1191	H119	0.473600	0.017400	0.306300
C1761	C176	0.385100	0.082700	0.357100
H1201	H120	0.336000	0.082900	0.368100
C1771	C177	0.445200	0.122600	0.363300
H1211	H121	0.434400	0.149900	0.377300
C1781	C178	0.521300	0.121900	0.348700
C1791	C179	0.583100	0.163900	0.356600
C1801	C180	0.565400	0.211300	0.370000
H1221	H122	0.511700	0.223900	0.374200
C1811	C181	0.643300	0.236500	0.375900
C1821	C182	0.658600	0.289000	0.390300
C1831	C183	0.598800	0.325200	0.385200
H1231	H123	0.548600	0.318700	0.371300
C1841	C184	0.611400	0.373700	0.401000
H1241	H124	0.565600	0.397200	0.397700
C1851	C185	0.734800	0.355500	0.421500
H1251	H125	0.786600	0.365500	0.433300
C1861	C186	0.729800	0.303000	0.408300
H1261	H126	0.775700	0.279800	0.412500
C1871	C187	0.784700	0.026700	0.270700
H1271	H127	0.820700	0.051500	0.281700
C1881	C188	0.782200	0.021500	0.237200
H1281	H128	0.815700	0.044200	0.226200
C1891	C189	0.689700	0.953400	0.236500
H1291	H129	0.657300	0.927200	0.225200
C1901	C190	0.689000	0.956500	0.269700
H1301	H130	0.657500	0.932200	0.280400
C1911	C191	0.734300	0.995400	0.287990
C1921	C192	0.728600	0.999800	0.323110
C1931	C193	0.706300	0.960700	0.343910
H1311	H131	0.694700	0.925800	0.338600
C1941	C194	0.704900	0.984400	0.374420
C1951	C195	0.686000	0.960100	0.405880
C1961	C196	0.708000	0.909200	0.412650
H1321	H132	0.735000	0.889500	0.397600
C1971	C197	0.689500	0.887100	0.442300
H1331	H133	0.705600	0.852600	0.446700
C1981	C198	0.627800	0.963000	0.457500
H1341	H134	0.599700	0.981900	0.472600
C1991	C199	0.645400	0.987100	0.428700
H1351	H135	0.629600	0.021800	0.424700
C2001	C200	0.433500	0.563100	0.479540
H1361	H136	0.464400	0.590900	0.472000
C2011	C201	0.409700	0.563300	0.511400
H1371	H137	0.425500	0.592100	0.524600
C2021	C202	0.347300	0.484500	0.504700
H1381	H138	0.318700	0.456500	0.513100
C2031	C203	0.366500	0.480500	0.473400
H1391	H139	0.350600	0.450700	0.461200
C2041	C204	0.410200	0.520700	0.459260
C2051	C205	0.429600	0.517600	0.424920
C2061	C206	0.429900	0.472900	0.405430
H1401	H140	0.420600	0.438600	0.411700
C2071	C207	0.446800	0.490400	0.374750
C2081	C208	0.457900	0.460200	0.344810
C2091	C209	0.419100	0.410900	0.340220
H1411	H141	0.385100	0.397600	0.355600
C2101	C210	0.432200	0.382300	0.312500
H1421	H142	0.406600	0.349500	0.310000
C2111	C211	0.517600	0.445200	0.294500
H1431	H143	0.553400	0.456800	0.279300
C2121	C212	0.507200	0.476600	0.321200
H1441	H144	0.533900	0.509100	0.323100
C2131	C213	0.668800	0.637500	0.415700
H1451	H145	0.637900	0.615700	0.400400
C2141	C214	0.738300	0.617700	0.436500
H1461	H146	0.753700	0.582900	0.433900
C2151	C215	0.762600	0.695000	0.460700
H1471	H147	0.795500	0.716000	0.475900
C2161	C216	0.696300	0.718000	0.441200
H1481	H148	0.684600	0.753400	0.443700
C2171	C217	0.646000	0.688600	0.417500
C2181	C218	0.574700	0.715200	0.397440
C2191	C219	0.573100	0.766000	0.385500
H1491	H149	0.618800	0.789600	0.386500
C2201	C220	0.488600	0.774300	0.371550
C2211	C221	0.447600	0.823000	0.359280
C2221	C222	0.485600	0.870600	0.365300
H1501	H150	0.540900	0.872200	0.376500
C2231	C223	0.445000	0.915400	0.355300
H1511	H151	0.474700	0.946700	0.359500
C2241	C224	0.327700	0.872200	0.334700
H1521	H152	0.271100	0.871800	0.324600
C2251	C225	0.366200	0.825500	0.342900
H1531	H153	0.336500	0.794700	0.337300
C2261	C226	0.448600	0.764500	0.453700
H1541	H154	0.426100	0.761300	0.431800
C2271	C227	0.509700	0.801800	0.462500
H1551	H155	0.528500	0.822700	0.446100
C2281	C228	0.517900	0.778000	0.516000
H1561	H156	0.542400	0.781400	0.537700
C2291	C229	0.455000	0.739300	0.508400
H1571	H157	0.437000	0.718700	0.525200
C2301	C230	0.420100	0.731700	0.476680
C2311	C231	0.350800	0.692700	0.467900
C2321	C232	0.281100	0.679900	0.484750
H1581	H158	0.269300	0.692500	0.505100
C2331	C233	0.233300	0.644700	0.464800
C2341	C234	0.149400	0.621100	0.469260
C2351	C235	0.135400	0.597400	0.499100
H1591	H159	0.180300	0.594400	0.516000
C2361	C236	0.054800	0.578500	0.503300
H1601	H160	0.046100	0.564200	0.523500
C2371	C237	0.004100	0.597700	0.451100
H1611	H161	0.959600	0.596400	0.433900
C2381	C238	0.082100	0.618600	0.444300
H1621	H162	0.089100	0.630700	0.423300
N771	N77	0.695800	0.498100	0.390900
C2391	C239	0.722500	0.499100	0.366000
N781	N78	0.277500	0.500900	0.634000
C2401	C240	0.304200	0.501900	0.609100
Cu251	Cu25	0.254230	0.618130	0.328910
Cu261	Cu26	0.936040	0.135940	0.410890
Cu271	Cu27	0.437510	0.594740	0.343320
Cu281	Cu28	0.324580	0.714280	0.369160
Cu291	Cu29	0.248490	0.588210	0.403270
Cu301	Cu30	0.793130	0.488310	0.330520
Cu311	Cu31	0.123170	0.377710	0.506050
Cu321	Cu32	0.834200	0.028510	0.568690
N791	N79	0.104200	0.803300	0.262650
N801	N80	0.329700	0.661800	0.305270
N811	N81	0.414300	0.646900	0.311680
N821	N82	0.739700	0.684300	0.314800
N831	N83	0.895300	0.543900	0.335840
N841	N84	0.168500	0.660300	0.353950
N851	N85	0.205400	0.705900	0.366360
N861	N86	0.174500	0.888900	0.418200
N871	N87	0.235100	0.486200	0.219270
N881	N88	0.240300	0.544800	0.340120
N891	N89	0.225500	0.535000	0.371970
N901	N90	0.150000	0.413100	0.464320
N911	N91	0.865700	0.024900	0.524280
N921	N92	0.942800	0.060400	0.406780
N931	N93	0.954300	0.043400	0.375810
N941	N94	0.978500	0.898500	0.289370
N951	N95	0.283000	0.145100	0.459380
N961	N96	0.996100	0.193500	0.391330
N971	N97	0.941800	0.229900	0.375160
N981	N98	0.865600	0.417600	0.340110
N991	N99	0.043700	0.309800	0.493660
N1001	N100	0.845900	0.165600	0.439280
N1011	N101	0.772400	0.136000	0.437650
N1021	N102	0.488300	0.079700	0.479700
C2411	C241	0.167200	0.722200	0.282900
H1631	H163	0.158400	0.688800	0.290900
C2421	C242	0.097700	0.755200	0.275100
H1641	H164	0.043100	0.743300	0.278600
C2431	C243	0.183900	0.817800	0.257800
H1651	H165	0.190900	0.850500	0.248500
C2441	C244	0.256800	0.787600	0.265500
H1661	H166	0.310800	0.800200	0.261700
C2451	C245	0.248800	0.738600	0.278960
C2461	C246	0.328000	0.707900	0.288800
C2471	C247	0.412300	0.722600	0.284900
H1671	H167	0.429700	0.752300	0.274300
C2481	C248	0.464900	0.684000	0.300060
C2491	C249	0.559000	0.682100	0.305000
C2501	C250	0.605600	0.728100	0.304200
H1681	H168	0.576200	0.759400	0.299700
C2511	C251	0.693000	0.728700	0.309700
H1691	H169	0.721700	0.760600	0.310000
C2521	C252	0.695900	0.641300	0.316400
H1701	H170	0.726000	0.610300	0.321000
C2531	C253	0.604400	0.639400	0.311700
H1711	H171	0.576300	0.607600	0.313400
C2541	C254	0.031600	0.581300	0.327100
H1721	H172	0.081400	0.578800	0.316600
C2551	C255	0.966300	0.543900	0.321400
H1731	H173	0.973600	0.517400	0.306300
C2561	C256	0.885100	0.582700	0.357100
H1741	H174	0.836000	0.582900	0.368100
C2571	C257	0.945200	0.622600	0.363300
H1751	H175	0.934400	0.649900	0.377300
C2581	C258	0.021300	0.621900	0.348700
C2591	C259	0.083100	0.663900	0.356600
C2601	C260	0.065400	0.711300	0.370000
H1761	H176	0.011700	0.723900	0.374200
C2611	C261	0.143300	0.736500	0.375900
C2621	C262	0.158600	0.789000	0.390300
C2631	C263	0.098800	0.825200	0.385200
H1771	H177	0.048600	0.818700	0.371300
C2641	C264	0.111400	0.873700	0.401000
H1781	H178	0.065600	0.897200	0.397700
C2651	C265	0.234800	0.855500	0.421500
H1791	H179	0.286600	0.865500	0.433300
C2661	C266	0.229800	0.803000	0.408300
H1801	H180	0.275700	0.779800	0.412500
C2671	C267	0.284700	0.526700	0.270700
H1811	H181	0.320700	0.551500	0.281700
C2681	C268	0.282200	0.521500	0.237200
H1821	H182	0.315700	0.544200	0.226200
C2691	C269	0.189700	0.453400	0.236500
H1831	H183	0.157300	0.427200	0.225200
C2701	C270	0.189000	0.456500	0.269700
H1841	H184	0.157500	0.432200	0.280400
C2711	C271	0.234300	0.495400	0.287990
C2721	C272	0.228600	0.499800	0.323110
C2731	C273	0.206300	0.460700	0.343910
H1851	H185	0.194700	0.425800	0.338600
C2741	C274	0.204900	0.484400	0.374420
C2751	C275	0.186000	0.460100	0.405880
C2761	C276	0.208000	0.409200	0.412650
H1861	H186	0.235000	0.389500	0.397600
C2771	C277	0.189500	0.387100	0.442300
H1871	H187	0.205600	0.352600	0.446700
C2781	C278	0.127800	0.463000	0.457500
H1881	H188	0.099700	0.481900	0.472600
C2791	C279	0.145400	0.487100	0.428700
H1891	H189	0.129600	0.521800	0.424700
C2801	C280	0.933500	0.063100	0.479540
H1901	H190	0.964400	0.090900	0.472000
C2811	C281	0.909700	0.063300	0.511400
H1911	H191	0.925500	0.092100	0.524600
C2821	C282	0.847300	0.984500	0.504700
H1921	H192	0.818700	0.956500	0.513100
C2831	C283	0.866500	0.980500	0.473400
H1931	H193	0.850600	0.950700	0.461200
C2841	C284	0.910200	0.020700	0.459260
C2851	C285	0.929600	0.017600	0.424920
C2861	C286	0.929900	0.972900	0.405430
H1941	H194	0.920600	0.938600	0.411700
C2871	C287	0.946800	0.990400	0.374750
C2881	C288	0.957900	0.960200	0.344810
C2891	C289	0.919100	0.910900	0.340220
H1951	H195	0.885100	0.897600	0.355600
C2901	C290	0.932200	0.882300	0.312500
H1961	H196	0.906600	0.849500	0.310000
C2911	C291	0.017600	0.945200	0.294500
H1971	H197	0.053400	0.956800	0.279300
C2921	C292	0.007200	0.976600	0.321200
H1981	H198	0.033900	0.009100	0.323100
C2931	C293	0.168800	0.137500	0.415700
H1991	H199	0.137900	0.115700	0.400400
C2941	C294	0.238300	0.117700	0.436500
H2001	H200	0.253700	0.082900	0.433900
C2951	C295	0.262600	0.195000	0.460700
H2011	H201	0.295500	0.216000	0.475900
C2961	C296	0.196300	0.218000	0.441200
H2021	H202	0.184600	0.253400	0.443700
C2971	C297	0.146000	0.188600	0.417500
C2981	C298	0.074700	0.215200	0.397440
C2991	C299	0.073100	0.266000	0.385500
H2031	H203	0.118800	0.289600	0.386500
C3001	C300	0.988600	0.274300	0.371550
C3011	C301	0.947600	0.323000	0.359280
C3021	C302	0.985600	0.370600	0.365300
H2041	H204	0.040900	0.372200	0.376500
C3031	C303	0.945000	0.415400	0.355300
H2051	H205	0.974700	0.446700	0.359500
C3041	C304	0.827700	0.372200	0.334700
H2061	H206	0.771100	0.371800	0.324600
C3051	C305	0.866200	0.325500	0.342900
H2071	H207	0.836500	0.294700	0.337300
C3061	C306	0.948600	0.264500	0.453700
H2081	H208	0.926100	0.261300	0.431800
C3071	C307	0.009700	0.301800	0.462500
H2091	H209	0.028500	0.322700	0.446100
C3081	C308	0.017900	0.278000	0.516000
H2101	H210	0.042400	0.281400	0.537700
C3091	C309	0.955000	0.239300	0.508400
H2111	H211	0.937000	0.218700	0.525200
C3101	C310	0.920100	0.231700	0.476680
C3111	C311	0.850800	0.192700	0.467900
C3121	C312	0.781100	0.179900	0.484750
H2121	H212	0.769300	0.192500	0.505100
C3131	C313	0.733300	0.144700	0.464800
C3141	C314	0.649400	0.121100	0.469260
C3151	C315	0.635400	0.097400	0.499100
H2131	H213	0.680300	0.094400	0.516000
C3161	C316	0.554800	0.078500	0.503300
H2141	H214	0.546100	0.064200	0.523500
C3171	C317	0.504100	0.097700	0.451100
H2151	H215	0.459600	0.096400	0.433900
C3181	C318	0.582100	0.118600	0.444300
H2161	H216	0.589100	0.130700	0.423300
N1031	N103	0.195800	0.998100	0.390900
C3191	C319	0.222500	0.999100	0.366000
N1041	N104	0.777500	0.000900	0.634000
C3201	C320	0.804200	0.001900	0.609100
Cu331	Cu33	0.754230	0.881870	0.828910
Cu341	Cu34	0.436040	0.364060	0.910890
Cu351	Cu35	0.937510	0.905260	0.843320
Cu361	Cu36	0.824580	0.785720	0.869160
Cu371	Cu37	0.748490	0.911790	0.903270
Cu381	Cu38	0.293130	0.011690	0.830520
Cu391	Cu39	0.623170	0.122290	0.006050
Cu401	Cu40	0.334200	0.471490	0.068690
N1051	N105	0.604200	0.696700	0.762650
N1061	N106	0.829700	0.838200	0.805270
N1071	N107	0.914300	0.853100	0.811680
N1081	N108	0.239700	0.815700	0.814800
N1091	N109	0.395300	0.956100	0.835840
N1101	N110	0.668500	0.839700	0.853950
N1111	N111	0.705400	0.794100	0.866360
N1121	N112	0.674500	0.611100	0.918200
N1131	N113	0.735100	0.013800	0.719270
N1141	N114	0.740300	0.955200	0.840120
N1151	N115	0.725500	0.965000	0.871970
N1161	N116	0.650000	0.086900	0.964320
N1171	N117	0.365700	0.475100	0.024280
N1181	N118	0.442800	0.439600	0.906780
N1191	N119	0.454300	0.456600	0.875810
N1201	N120	0.478500	0.601500	0.789370
N1211	N121	0.783000	0.354900	0.959380
N1221	N122	0.496100	0.306500	0.891330
N1231	N123	0.441800	0.270100	0.875160
N1241	N124	0.365600	0.082400	0.840110
N1251	N125	0.543700	0.190200	0.993660
N1261	N126	0.345900	0.334400	0.939280
N1271	N127	0.272400	0.364000	0.937650
N1281	N128	0.988300	0.420300	0.979700
C3211	C321	0.667200	0.777800	0.782900
H2171	H217	0.658400	0.811200	0.790900
C3221	C322	0.597700	0.744800	0.775100
H2181	H218	0.543100	0.756700	0.778600
C3231	C323	0.683900	0.682200	0.757800
H2191	H219	0.690900	0.649500	0.748500
C3241	C324	0.756800	0.712400	0.765500
H2201	H220	0.810800	0.699800	0.761700
C3251	C325	0.748800	0.761400	0.778960
C3261	C326	0.828000	0.792100	0.788800
C3271	C327	0.912300	0.777400	0.784900
H2211	H221	0.929700	0.747700	0.774300
C3281	C328	0.964900	0.816000	0.800060
C3291	C329	0.059000	0.817900	0.805000
C3301	C330	0.105600	0.771900	0.804200
H2221	H222	0.076200	0.740600	0.799700
C3311	C331	0.193000	0.771300	0.809700
H2231	H223	0.221700	0.739400	0.810000
C3321	C332	0.195900	0.858700	0.816400
H2241	H224	0.226000	0.889700	0.821000
C3331	C333	0.104400	0.860600	0.811700
H2251	H225	0.076300	0.892400	0.813400
C3341	C334	0.531600	0.918700	0.827100
H2261	H226	0.581400	0.921200	0.816600
C3351	C335	0.466300	0.956100	0.821400
H2271	H227	0.473600	0.982600	0.806300
C3361	C336	0.385100	0.917300	0.857100
H2281	H228	0.336000	0.917100	0.868100
C3371	C337	0.445200	0.877400	0.863300
H2291	H229	0.434400	0.850100	0.877300
C3381	C338	0.521300	0.878100	0.848700
C3391	C339	0.583100	0.836100	0.856600
C3401	C340	0.565400	0.788700	0.870000
H2301	H230	0.511700	0.776100	0.874200
C3411	C341	0.643300	0.763500	0.875900
C3421	C342	0.658600	0.711000	0.890300
C3431	C343	0.598800	0.674800	0.885200
H2311	H231	0.548600	0.681300	0.871300
C3441	C344	0.611400	0.626300	0.901000
H2321	H232	0.565600	0.602800	0.897700
C3451	C345	0.734800	0.644500	0.921500
H2331	H233	0.786600	0.634500	0.933300
C3461	C346	0.729800	0.697000	0.908300
H2341	H234	0.775700	0.720200	0.912500
C3471	C347	0.784700	0.973300	0.770700
H2351	H235	0.820700	0.948500	0.781700
C3481	C348	0.782200	0.978500	0.737200
H2361	H236	0.815700	0.955800	0.726200
C3491	C349	0.689700	0.046600	0.736500
H2371	H237	0.657300	0.072800	0.725200
C3501	C350	0.689000	0.043500	0.769700
H2381	H238	0.657500	0.067800	0.780400
C3511	C351	0.734300	0.004600	0.787990
C3521	C352	0.728600	0.000200	0.823110
C3531	C353	0.706300	0.039300	0.843910
H2391	H239	0.694700	0.074200	0.838600
C3541	C354	0.704900	0.015600	0.874420
C3551	C355	0.686000	0.039900	0.905880
C3561	C356	0.708000	0.090800	0.912650
H2401	H240	0.735000	0.110500	0.897600
C3571	C357	0.689500	0.112900	0.942300
H2411	H241	0.705600	0.147400	0.946700
C3581	C358	0.627800	0.037000	0.957500
H2421	H242	0.599700	0.018100	0.972600
C3591	C359	0.645400	0.012900	0.928700
H2431	H243	0.629600	0.978200	0.924700
C3601	C360	0.433500	0.436900	0.979540
H2441	H244	0.464400	0.409100	0.972000
C3611	C361	0.409700	0.436700	0.011400
H2451	H245	0.425500	0.407900	0.024600
C3621	C362	0.347300	0.515500	0.004700
H2461	H246	0.318700	0.543500	0.013100
C3631	C363	0.366500	0.519500	0.973400
H2471	H247	0.350600	0.549300	0.961200
C3641	C364	0.410200	0.479300	0.959260
C3651	C365	0.429600	0.482400	0.924920
C3661	C366	0.429900	0.527100	0.905430
H2481	H248	0.420600	0.561400	0.911700
C3671	C367	0.446800	0.509600	0.874750
C3681	C368	0.457900	0.539800	0.844810
C3691	C369	0.419100	0.589100	0.840220
H2491	H249	0.385100	0.602400	0.855600
C3701	C370	0.432200	0.617700	0.812500
H2501	H250	0.406600	0.650500	0.810000
C3711	C371	0.517600	0.554800	0.794500
H2511	H251	0.553400	0.543200	0.779300
C3721	C372	0.507200	0.523400	0.821200
H2521	H252	0.533900	0.490900	0.823100
C3731	C373	0.668800	0.362500	0.915700
H2531	H253	0.637900	0.384300	0.900400
C3741	C374	0.738300	0.382300	0.936500
H2541	H254	0.753700	0.417100	0.933900
C3751	C375	0.762600	0.305000	0.960700
H2551	H255	0.795500	0.284000	0.975900
C3761	C376	0.696300	0.282000	0.941200
H2561	H256	0.684600	0.246600	0.943700
C3771	C377	0.646000	0.311400	0.917500
C3781	C378	0.574700	0.284800	0.897440
C3791	C379	0.573100	0.234000	0.885500
H2571	H257	0.618800	0.210400	0.886500
C3801	C380	0.488600	0.225700	0.871550
C3811	C381	0.447600	0.177000	0.859280
C3821	C382	0.485600	0.129400	0.865300
H2581	H258	0.540900	0.127800	0.876500
C3831	C383	0.445000	0.084600	0.855300
H2591	H259	0.474700	0.053300	0.859500
C3841	C384	0.327700	0.127800	0.834700
H2601	H260	0.271100	0.128200	0.824600
C3851	C385	0.366200	0.174500	0.842900
H2611	H261	0.336500	0.205300	0.837300
C3861	C386	0.448600	0.235500	0.953700
H2621	H262	0.426100	0.238700	0.931800
C3871	C387	0.509700	0.198200	0.962500
H2631	H263	0.528500	0.177300	0.946100
C3881	C388	0.517900	0.222000	0.016000
H2641	H264	0.542400	0.218600	0.037700
C3891	C389	0.455000	0.260700	0.008400
H2651	H265	0.437000	0.281300	0.025200
C3901	C390	0.420100	0.268300	0.976680
C3911	C391	0.350800	0.307300	0.967900
C3921	C392	0.281100	0.320100	0.984750
H2661	H266	0.269300	0.307500	0.005100
C3931	C393	0.233300	0.355300	0.964800
C3941	C394	0.149400	0.378900	0.969260
C3951	C395	0.135400	0.402600	0.999100
H2671	H267	0.180300	0.405600	0.016000
C3961	C396	0.054800	0.421500	0.003300
H2681	H268	0.046100	0.435800	0.023500
C3971	C397	0.004100	0.402300	0.951100
H2691	H269	0.959600	0.403600	0.933900
C3981	C398	0.082100	0.381400	0.944300
H2701	H270	0.089100	0.369300	0.923300
Cu411	Cu41	0.254230	0.381870	0.828910
Cu421	Cu42	0.936040	0.864060	0.910890
Cu431	Cu43	0.437510	0.405260	0.843320
Cu441	Cu44	0.324580	0.285720	0.869160
Cu451	Cu45	0.248490	0.411790	0.903270
Cu461	Cu46	0.793130	0.511690	0.830520
Cu471	Cu47	0.123170	0.622290	0.006050
Cu481	Cu48	0.834200	0.971490	0.068690
N1291	N129	0.104200	0.196700	0.762650
N1301	N130	0.329700	0.338200	0.805270
N1311	N131	0.414300	0.353100	0.811680
N1321	N132	0.739700	0.315700	0.814800
N1331	N133	0.895300	0.456100	0.835840
N1341	N134	0.168500	0.339700	0.853950
N1351	N135	0.205400	0.294100	0.866360
N1361	N136	0.174500	0.111100	0.918200
N1371	N137	0.235100	0.513800	0.719270
N1381	N138	0.240300	0.455200	0.840120
N1391	N139	0.225500	0.465000	0.871970
N1401	N140	0.150000	0.586900	0.964320
N1411	N141	0.865700	0.975100	0.024280
N1421	N142	0.942800	0.939600	0.906780
N1431	N143	0.954300	0.956600	0.875810
N1441	N144	0.978500	0.101500	0.789370
N1451	N145	0.283000	0.854900	0.959380
N1461	N146	0.996100	0.806500	0.891330
N1471	N147	0.941800	0.770100	0.875160
N1481	N148	0.865600	0.582400	0.840110
N1491	N149	0.043700	0.690200	0.993660
N1501	N150	0.845900	0.834400	0.939280
N1511	N151	0.772400	0.864000	0.937650
N1521	N152	0.488300	0.920300	0.979700
C3991	C399	0.167200	0.277800	0.782900
H2711	H271	0.158400	0.311200	0.790900
C4001	C400	0.097700	0.244800	0.775100
H2721	H272	0.043100	0.256700	0.778600
C4011	C401	0.183900	0.182200	0.757800
H2731	H273	0.190900	0.149500	0.748500
C4021	C402	0.256800	0.212400	0.765500
H2741	H274	0.310800	0.199800	0.761700
C4031	C403	0.248800	0.261400	0.778960
C4041	C404	0.328000	0.292100	0.788800
C4051	C405	0.412300	0.277400	0.784900
H2751	H275	0.429700	0.247700	0.774300
C4061	C406	0.464900	0.316000	0.800060
C4071	C407	0.559000	0.317900	0.805000
C4081	C408	0.605600	0.271900	0.804200
H2761	H276	0.576200	0.240600	0.799700
C4091	C409	0.693000	0.271300	0.809700
H2771	H277	0.721700	0.239400	0.810000
C4101	C410	0.695900	0.358700	0.816400
H2781	H278	0.726000	0.389700	0.821000
C4111	C411	0.604400	0.360600	0.811700
H2791	H279	0.576300	0.392400	0.813400
C4121	C412	0.031600	0.418700	0.827100
H2801	H280	0.081400	0.421200	0.816600
C4131	C413	0.966300	0.456100	0.821400
H2811	H281	0.973600	0.482600	0.806300
C4141	C414	0.885100	0.417300	0.857100
H2821	H282	0.836000	0.417100	0.868100
C4151	C415	0.945200	0.377400	0.863300
H2831	H283	0.934400	0.350100	0.877300
C4161	C416	0.021300	0.378100	0.848700
C4171	C417	0.083100	0.336100	0.856600
C4181	C418	0.065400	0.288700	0.870000
H2841	H284	0.011700	0.276100	0.874200
C4191	C419	0.143300	0.263500	0.875900
C4201	C420	0.158600	0.211000	0.890300
C4211	C421	0.098800	0.174800	0.885200
H2851	H285	0.048600	0.181300	0.871300
C4221	C422	0.111400	0.126300	0.901000
H2861	H286	0.065600	0.102800	0.897700
C4231	C423	0.234800	0.144500	0.921500
H2871	H287	0.286600	0.134500	0.933300
C4241	C424	0.229800	0.197000	0.908300
H2881	H288	0.275700	0.220200	0.912500
C4251	C425	0.284700	0.473300	0.770700
H2891	H289	0.320700	0.448500	0.781700
C4261	C426	0.282200	0.478500	0.737200
H2901	H290	0.315700	0.455800	0.726200
C4271	C427	0.189700	0.546600	0.736500
H2911	H291	0.157300	0.572800	0.725200
C4281	C428	0.189000	0.543500	0.769700
H2921	H292	0.157500	0.567800	0.780400
C4291	C429	0.234300	0.504600	0.787990
C4301	C430	0.228600	0.500200	0.823110
C4311	C431	0.206300	0.539300	0.843910
H2931	H293	0.194700	0.574200	0.838600
C4321	C432	0.204900	0.515600	0.874420
C4331	C433	0.186000	0.539900	0.905880
C4341	C434	0.208000	0.590800	0.912650
H2941	H294	0.235000	0.610500	0.897600
C4351	C435	0.189500	0.612900	0.942300
H2951	H295	0.205600	0.647400	0.946700
C4361	C436	0.127800	0.537000	0.957500
H2961	H296	0.099700	0.518100	0.972600
C4371	C437	0.145400	0.512900	0.928700
H2971	H297	0.129600	0.478200	0.924700
C4381	C438	0.933500	0.936900	0.979540
H2981	H298	0.964400	0.909100	0.972000
C4391	C439	0.909700	0.936700	0.011400
H2991	H299	0.925500	0.907900	0.024600
C4401	C440	0.847300	0.015500	0.004700
H3001	H300	0.818700	0.043500	0.013100
C4411	C441	0.866500	0.019500	0.973400
H3011	H301	0.850600	0.049300	0.961200
C4421	C442	0.910200	0.979300	0.959260
C4431	C443	0.929600	0.982400	0.924920
C4441	C444	0.929900	0.027100	0.905430
H3021	H302	0.920600	0.061400	0.911700
C4451	C445	0.946800	0.009600	0.874750
C4461	C446	0.957900	0.039800	0.844810
C4471	C447	0.919100	0.089100	0.840220
H3031	H303	0.885100	0.102400	0.855600
C4481	C448	0.932200	0.117700	0.812500
H3041	H304	0.906600	0.150500	0.810000
C4491	C449	0.017600	0.054800	0.794500
H3051	H305	0.053400	0.043200	0.779300
C4501	C450	0.007200	0.023400	0.821200
H3061	H306	0.033900	0.990900	0.823100
C4511	C451	0.168800	0.862500	0.915700
H3071	H307	0.137900	0.884300	0.900400
C4521	C452	0.238300	0.882300	0.936500
H3081	H308	0.253700	0.917100	0.933900
C4531	C453	0.262600	0.805000	0.960700
H3091	H309	0.295500	0.784000	0.975900
C4541	C454	0.196300	0.782000	0.941200
H3101	H310	0.184600	0.746600	0.943700
C4551	C455	0.146000	0.811400	0.917500
C4561	C456	0.074700	0.784800	0.897440
C4571	C457	0.073100	0.734000	0.885500
H3111	H311	0.118800	0.710400	0.886500
C4581	C458	0.988600	0.725700	0.871550
C4591	C459	0.947600	0.677000	0.859280
C4601	C460	0.985600	0.629400	0.865300
H3121	H312	0.040900	0.627800	0.876500
C4611	C461	0.945000	0.584600	0.855300
H3131	H313	0.974700	0.553300	0.859500
C4621	C462	0.827700	0.627800	0.834700
H3141	H314	0.771100	0.628200	0.824600
C4631	C463	0.866200	0.674500	0.842900
H3151	H315	0.836500	0.705300	0.837300
C4641	C464	0.948600	0.735500	0.953700
H3161	H316	0.926100	0.738700	0.931800
C4651	C465	0.009700	0.698200	0.962500
H3171	H317	0.028500	0.677300	0.946100
C4661	C466	0.017900	0.722000	0.016000
H3181	H318	0.042400	0.718600	0.037700
C4671	C467	0.955000	0.760700	0.008400
H3191	H319	0.937000	0.781300	0.025200
C4681	C468	0.920100	0.768300	0.976680
C4691	C469	0.850800	0.807300	0.967900
C4701	C470	0.781100	0.820100	0.984750
H3201	H320	0.769300	0.807500	0.005100
C4711	C471	0.733300	0.855300	0.964800
C4721	C472	0.649400	0.878900	0.969260
C4731	C473	0.635400	0.902600	0.999100
H3211	H321	0.680300	0.905600	0.016000
C4741	C474	0.554800	0.921500	0.003300
H3221	H322	0.546100	0.935800	0.023500
C4751	C475	0.504100	0.902300	0.951100
H3231	H323	0.459600	0.903600	0.933900
C4761	C476	0.582100	0.881400	0.944300
H3241	H324	0.589100	0.869300	0.923300
Cu491	Cu49	0.245770	0.881870	0.671090
Cu501	Cu50	0.563960	0.364060	0.589110
Cu511	Cu51	0.062490	0.905260	0.656680
Cu521	Cu52	0.175420	0.785720	0.630840
Cu531	Cu53	0.251510	0.911790	0.596730
Cu541	Cu54	0.706870	0.011690	0.669480
Cu551	Cu55	0.376830	0.122290	0.493950
Cu561	Cu56	0.665800	0.471490	0.431310
N1531	N153	0.395800	0.696700	0.737350
N1541	N154	0.170300	0.838200	0.694730
N1551	N155	0.085700	0.853100	0.688320
N1561	N156	0.760300	0.815700	0.685200
N1571	N157	0.604700	0.956100	0.664160
N1581	N158	0.331500	0.839700	0.646050
N1591	N159	0.294600	0.794100	0.633640
N1601	N160	0.325500	0.611100	0.581800
N1611	N161	0.264900	0.013800	0.780730
N1621	N162	0.259700	0.955200	0.659880
N1631	N163	0.274500	0.965000	0.628030
N1641	N164	0.350000	0.086900	0.535680
N1651	N165	0.634300	0.475100	0.475720
N1661	N166	0.557200	0.439600	0.593220
N1671	N167	0.545700	0.456600	0.624190
N1681	N168	0.521500	0.601500	0.710630
N1691	N169	0.217000	0.354900	0.540620
N1701	N170	0.503900	0.306500	0.608670
N1711	N171	0.558200	0.270100	0.624840
N1721	N172	0.634400	0.082400	0.659890
N1731	N173	0.456300	0.190200	0.506340
N1741	N174	0.654100	0.334400	0.560720
N1751	N175	0.727600	0.364000	0.562350
N1761	N176	0.011700	0.420300	0.520300
C4771	C477	0.332800	0.777800	0.717100
H3251	H325	0.341600	0.811200	0.709100
C4781	C478	0.402300	0.744800	0.724900
H3261	H326	0.456900	0.756700	0.721400
C4791	C479	0.316100	0.682200	0.742200
H3271	H327	0.309100	0.649500	0.751500
C4801	C480	0.243200	0.712400	0.734500
H3281	H328	0.189200	0.699800	0.738300
C4811	C481	0.251200	0.761400	0.721040
C4821	C482	0.172000	0.792100	0.711200
C4831	C483	0.087700	0.777400	0.715100
H3291	H329	0.070300	0.747700	0.725700
C4841	C484	0.035100	0.816000	0.699940
C4851	C485	0.941000	0.817900	0.695000
C4861	C486	0.894400	0.771900	0.695800
H3301	H330	0.923800	0.740600	0.700300
C4871	C487	0.807000	0.771300	0.690300
H3311	H331	0.778300	0.739400	0.690000
C4881	C488	0.804100	0.858700	0.683600
H3321	H332	0.774000	0.889700	0.679000
C4891	C489	0.895600	0.860600	0.688300
H3331	H333	0.923700	0.892400	0.686600
C4901	C490	0.468400	0.918700	0.672900
H3341	H334	0.418600	0.921200	0.683400
C4911	C491	0.533700	0.956100	0.678600
H3351	H335	0.526400	0.982600	0.693700
C4921	C492	0.614900	0.917300	0.642900
H3361	H336	0.664000	0.917100	0.631900
C4931	C493	0.554800	0.877400	0.636700
H3371	H337	0.565600	0.850100	0.622700
C4941	C494	0.478700	0.878100	0.651300
C4951	C495	0.416900	0.836100	0.643400
C4961	C496	0.434600	0.788700	0.630000
H3381	H338	0.488300	0.776100	0.625800
C4971	C497	0.356700	0.763500	0.624100
C4981	C498	0.341400	0.711000	0.609700
C4991	C499	0.401200	0.674800	0.614800
H3391	H339	0.451400	0.681300	0.628700
C5001	C500	0.388600	0.626300	0.599000
H3401	H340	0.434400	0.602800	0.602300
C5011	C501	0.265200	0.644500	0.578500
H3411	H341	0.213400	0.634500	0.566700
C5021	C502	0.270200	0.697000	0.591700
H3421	H342	0.224300	0.720200	0.587500
C5031	C503	0.215300	0.973300	0.729300
H3431	H343	0.179300	0.948500	0.718300
C5041	C504	0.217800	0.978500	0.762800
H3441	H344	0.184300	0.955800	0.773800
C5051	C505	0.310300	0.046600	0.763500
H3451	H345	0.342700	0.072800	0.774800
C5061	C506	0.311000	0.043500	0.730300
H3461	H346	0.342500	0.067800	0.719600
C5071	C507	0.265700	0.004600	0.712010
C5081	C508	0.271400	0.000200	0.676890
C5091	C509	0.293700	0.039300	0.656090
H3471	H347	0.305300	0.074200	0.661400
C5101	C510	0.295100	0.015600	0.625580
C5111	C511	0.314000	0.039900	0.594120
C5121	C512	0.292000	0.090800	0.587350
H3481	H348	0.265000	0.110500	0.602400
C5131	C513	0.310500	0.112900	0.557700
H3491	H349	0.294400	0.147400	0.553300
C5141	C514	0.372200	0.037000	0.542500
H3501	H350	0.400300	0.018100	0.527400
C5151	C515	0.354600	0.012900	0.571300
H3511	H351	0.370400	0.978200	0.575300
C5161	C516	0.566500	0.436900	0.520460
H3521	H352	0.535600	0.409100	0.528000
C5171	C517	0.590300	0.436700	0.488600
H3531	H353	0.574500	0.407900	0.475400
C5181	C518	0.652700	0.515500	0.495300
H3541	H354	0.681300	0.543500	0.486900
C5191	C519	0.633500	0.519500	0.526600
H3551	H355	0.649400	0.549300	0.538800
C5201	C520	0.589800	0.479300	0.540740
C5211	C521	0.570400	0.482400	0.575080
C5221	C522	0.570100	0.527100	0.594570
H3561	H356	0.579400	0.561400	0.588300
C5231	C523	0.553200	0.509600	0.625250
C5241	C524	0.542100	0.539800	0.655190
C5251	C525	0.580900	0.589100	0.659780
H3571	H357	0.614900	0.602400	0.644400
C5261	C526	0.567800	0.617700	0.687500
H3581	H358	0.593400	0.650500	0.690000
C5271	C527	0.482400	0.554800	0.705500
H3591	H359	0.446600	0.543200	0.720700
C5281	C528	0.492800	0.523400	0.678800
H3601	H360	0.466100	0.490900	0.676900
C5291	C529	0.331200	0.362500	0.584300
H3611	H361	0.362100	0.384300	0.599600
C5301	C530	0.261700	0.382300	0.563500
H3621	H362	0.246300	0.417100	0.566100
C5311	C531	0.237400	0.305000	0.539300
H3631	H363	0.204500	0.284000	0.524100
C5321	C532	0.303700	0.282000	0.558800
H3641	H364	0.315400	0.246600	0.556300
C5331	C533	0.354000	0.311400	0.582500
C5341	C534	0.425300	0.284800	0.602560
C5351	C535	0.426900	0.234000	0.614500
H3651	H365	0.381200	0.210400	0.613500
C5361	C536	0.511400	0.225700	0.628450
C5371	C537	0.552400	0.177000	0.640720
C5381	C538	0.514400	0.129400	0.634700
H3661	H366	0.459100	0.127800	0.623500
C5391	C539	0.555000	0.084600	0.644700
H3671	H367	0.525300	0.053300	0.640500
C5401	C540	0.672300	0.127800	0.665300
H3681	H368	0.728900	0.128200	0.675400
C5411	C541	0.633800	0.174500	0.657100
H3691	H369	0.663500	0.205300	0.662700
C5421	C542	0.551400	0.235500	0.546300
H3701	H370	0.573900	0.238700	0.568200
C5431	C543	0.490300	0.198200	0.537500
H3711	H371	0.471500	0.177300	0.553900
C5441	C544	0.482100	0.222000	0.484000
H3721	H372	0.457600	0.218600	0.462300
C5451	C545	0.545000	0.260700	0.491600
H3731	H373	0.563000	0.281300	0.474800
C5461	C546	0.579900	0.268300	0.523320
C5471	C547	0.649200	0.307300	0.532100
C5481	C548	0.718900	0.320100	0.515250
H3741	H374	0.730700	0.307500	0.494900
C5491	C549	0.766700	0.355300	0.535200
C5501	C550	0.850600	0.378900	0.530740
C5511	C551	0.864600	0.402600	0.500900
H3751	H375	0.819700	0.405600	0.484000
C5521	C552	0.945200	0.421500	0.496700
H3761	H376	0.953900	0.435800	0.476500
C5531	C553	0.995900	0.402300	0.548900
H3771	H377	0.040400	0.403600	0.566100
C5541	C554	0.917900	0.381400	0.555700
H3781	H378	0.910900	0.369300	0.576700
Cu571	Cu57	0.745770	0.381870	0.671090
Cu581	Cu58	0.063960	0.864060	0.589110
Cu591	Cu59	0.562490	0.405260	0.656680
Cu601	Cu60	0.675420	0.285720	0.630840
Cu611	Cu61	0.751510	0.411790	0.596730
Cu621	Cu62	0.206870	0.511690	0.669480
Cu631	Cu63	0.876830	0.622290	0.493950
Cu641	Cu64	0.165800	0.971490	0.431310
N1771	N177	0.895800	0.196700	0.737350
N1781	N178	0.670300	0.338200	0.694730
N1791	N179	0.585700	0.353100	0.688320
N1801	N180	0.260300	0.315700	0.685200
N1811	N181	0.104700	0.456100	0.664160
N1821	N182	0.831500	0.339700	0.646050
N1831	N183	0.794600	0.294100	0.633640
N1841	N184	0.825500	0.111100	0.581800
N1851	N185	0.764900	0.513800	0.780730
N1861	N186	0.759700	0.455200	0.659880
N1871	N187	0.774500	0.465000	0.628030
N1881	N188	0.850000	0.586900	0.535680
N1891	N189	0.134300	0.975100	0.475720
N1901	N190	0.057200	0.939600	0.593220
N1911	N191	0.045700	0.956600	0.624190
N1921	N192	0.021500	0.101500	0.710630
N1931	N193	0.717000	0.854900	0.540620
N1941	N194	0.003900	0.806500	0.608670
N1951	N195	0.058200	0.770100	0.624840
N1961	N196	0.134400	0.582400	0.659890
N1971	N197	0.956300	0.690200	0.506340
N1981	N198	0.154100	0.834400	0.560720
N1991	N199	0.227600	0.864000	0.562350
N2001	N200	0.511700	0.920300	0.520300
C5551	C555	0.832800	0.277800	0.717100
H3791	H379	0.841600	0.311200	0.709100
C5561	C556	0.902300	0.244800	0.724900
H3801	H380	0.956900	0.256700	0.721400
C5571	C557	0.816100	0.182200	0.742200
H3811	H381	0.809100	0.149500	0.751500
C5581	C558	0.743200	0.212400	0.734500
H3821	H382	0.689200	0.199800	0.738300
C5591	C559	0.751200	0.261400	0.721040
C5601	C560	0.672000	0.292100	0.711200
C5611	C561	0.587700	0.277400	0.715100
H3831	H383	0.570300	0.247700	0.725700
C5621	C562	0.535100	0.316000	0.699940
C5631	C563	0.441000	0.317900	0.695000
C5641	C564	0.394400	0.271900	0.695800
H3841	H384	0.423800	0.240600	0.700300
C5651	C565	0.307000	0.271300	0.690300
H3851	H385	0.278300	0.239400	0.690000
C5661	C566	0.304100	0.358700	0.683600
H3861	H386	0.274000	0.389700	0.679000
C5671	C567	0.395600	0.360600	0.688300
H3871	H387	0.423700	0.392400	0.686600
C5681	C568	0.968400	0.418700	0.672900
H3881	H388	0.918600	0.421200	0.683400
C5691	C569	0.033700	0.456100	0.678600
H3891	H389	0.026400	0.482600	0.693700
C5701	C570	0.114900	0.417300	0.642900
H3901	H390	0.164000	0.417100	0.631900
C5711	C571	0.054800	0.377400	0.636700
H3911	H391	0.065600	0.350100	0.622700
C5721	C572	0.978700	0.378100	0.651300
C5731	C573	0.916900	0.336100	0.643400
C5741	C574	0.934600	0.288700	0.630000
H3921	H392	0.988300	0.276100	0.625800
C5751	C575	0.856700	0.263500	0.624100
C5761	C576	0.841400	0.211000	0.609700
C5771	C577	0.901200	0.174800	0.614800
H3931	H393	0.951400	0.181300	0.628700
C5781	C578	0.888600	0.126300	0.599000
H3941	H394	0.934400	0.102800	0.602300
C5791	C579	0.765200	0.144500	0.578500
H3951	H395	0.713400	0.134500	0.566700
C5801	C580	0.770200	0.197000	0.591700
H3961	H396	0.724300	0.220200	0.587500
C5811	C581	0.715300	0.473300	0.729300
H3971	H397	0.679300	0.448500	0.718300
C5821	C582	0.717800	0.478500	0.762800
H3981	H398	0.684300	0.455800	0.773800
C5831	C583	0.810300	0.546600	0.763500
H3991	H399	0.842700	0.572800	0.774800
C5841	C584	0.811000	0.543500	0.730300
H4001	H400	0.842500	0.567800	0.719600
C5851	C585	0.765700	0.504600	0.712010
C5861	C586	0.771400	0.500200	0.676890
C5871	C587	0.793700	0.539300	0.656090
H4011	H401	0.805300	0.574200	0.661400
C5881	C588	0.795100	0.515600	0.625580
C5891	C589	0.814000	0.539900	0.594120
C5901	C590	0.792000	0.590800	0.587350
H4021	H402	0.765000	0.610500	0.602400
C5911	C591	0.810500	0.612900	0.557700
H4031	H403	0.794400	0.647400	0.553300
C5921	C592	0.872200	0.537000	0.542500
H4041	H404	0.900300	0.518100	0.527400
C5931	C593	0.854600	0.512900	0.571300
H4051	H405	0.870400	0.478200	0.575300
C5941	C594	0.066500	0.936900	0.520460
H4061	H406	0.035600	0.909100	0.528000
C5951	C595	0.090300	0.936700	0.488600
H4071	H407	0.074500	0.907900	0.475400
C5961	C596	0.152700	0.015500	0.495300
H4081	H408	0.181300	0.043500	0.486900
C5971	C597	0.133500	0.019500	0.526600
H4091	H409	0.149400	0.049300	0.538800
C5981	C598	0.089800	0.979300	0.540740
C5991	C599	0.070400	0.982400	0.575080
C6001	C600	0.070100	0.027100	0.594570
H4101	H410	0.079400	0.061400	0.588300
C6011	C601	0.053200	0.009600	0.625250
C6021	C602	0.042100	0.039800	0.655190
C6031	C603	0.080900	0.089100	0.659780
H4111	H411	0.114900	0.102400	0.644400
C6041	C604	0.067800	0.117700	0.687500
H4121	H412	0.093400	0.150500	0.690000
C6051	C605	0.982400	0.054800	0.705500
H4131	H413	0.946600	0.043200	0.720700
C6061	C606	0.992800	0.023400	0.678800
H4141	H414	0.966100	0.990900	0.676900
C6071	C607	0.831200	0.862500	0.584300
H4151	H415	0.862100	0.884300	0.599600
C6081	C608	0.761700	0.882300	0.563500
H4161	H416	0.746300	0.917100	0.566100
C6091	C609	0.737400	0.805000	0.539300
H4171	H417	0.704500	0.784000	0.524100
C6101	C610	0.803700	0.782000	0.558800
H4181	H418	0.815400	0.746600	0.556300
C6111	C611	0.854000	0.811400	0.582500
C6121	C612	0.925300	0.784800	0.602560
C6131	C613	0.926900	0.734000	0.614500
H4191	H419	0.881200	0.710400	0.613500
C6141	C614	0.011400	0.725700	0.628450
C6151	C615	0.052400	0.677000	0.640720
C6161	C616	0.014400	0.629400	0.634700
H4201	H420	0.959100	0.627800	0.623500
C6171	C617	0.055000	0.584600	0.644700
H4211	H421	0.025300	0.553300	0.640500
C6181	C618	0.172300	0.627800	0.665300
H4221	H422	0.228900	0.628200	0.675400
C6191	C619	0.133800	0.674500	0.657100
H4231	H423	0.163500	0.705300	0.662700
C6201	C620	0.051400	0.735500	0.546300
H4241	H424	0.073900	0.738700	0.568200
C6211	C621	0.990300	0.698200	0.537500
H4251	H425	0.971500	0.677300	0.553900
C6221	C622	0.982100	0.722000	0.484000
H4261	H426	0.957600	0.718600	0.462300
C6231	C623	0.045000	0.760700	0.491600
H4271	H427	0.063000	0.781300	0.474800
C6241	C624	0.079900	0.768300	0.523320
C6251	C625	0.149200	0.807300	0.532100
C6261	C626	0.218900	0.820100	0.515250
H4281	H428	0.230700	0.807500	0.494900
C6271	C627	0.266700	0.855300	0.535200
C6281	C628	0.350600	0.878900	0.530740
C6291	C629	0.364600	0.902600	0.500900
H4291	H429	0.319700	0.905600	0.484000
C6301	C630	0.445200	0.921500	0.496700
H4301	H430	0.453900	0.935800	0.476500
C6311	C631	0.495900	0.902300	0.548900
H4311	H431	0.540400	0.903600	0.566100
C6321	C632	0.417900	0.881400	0.555700
H4321	H432	0.410900	0.869300	0.576700
Cu651	Cu65	0.500000	0.351060	0.250000
Cu661	Cu66	0.000000	0.851060	0.250000
Cu671	Cu67	0.500000	0.648940	0.750000
Cu681	Cu68	0.000000	0.148940	0.750000
