data_KOLTUC_clean_PM
_symmetry_space_group_name_H-M	'P1'
_cell_length_a	26.124000
_cell_length_b	26.124000
_cell_length_c	26.124000
_cell_angle_alpha	90.000000
_cell_angle_beta	90.000000
_cell_angle_gamma	90.000000
_symmetry_Int_Tables_number 1

loop_
_symmetry_equiv_pos_as_xyz
'x,y,z'

loop_
_atom_site_label
_atom_site_type_symbol
_atom_site_fract_x
_atom_site_fract_y
_atom_site_fract_z
C11	C1	0.003300	0.367500	0.053600
H11	H1	0.032300	0.382600	0.071200
H21	H2	0.972500	0.384900	0.064800
C21	C2	0.009600	0.373300	0.997300
O11	O1	0.014400	0.417300	0.976900
O21	O2	0.008900	0.333800	0.969900
C31	C3	0.003300	0.867500	0.553600
H31	H3	0.032300	0.882600	0.571200
H41	H4	0.972500	0.884900	0.564800
C41	C4	0.009600	0.873300	0.497300
O31	O3	0.014400	0.917300	0.476900
O41	O4	0.008900	0.833800	0.469900
C51	C5	0.503300	0.367500	0.553600
H51	H5	0.532300	0.382600	0.571200
H61	H6	0.472500	0.384900	0.564800
C61	C6	0.509600	0.373300	0.497300
O51	O5	0.514400	0.417300	0.476900
O61	O6	0.508900	0.333800	0.469900
C71	C7	0.503300	0.867500	0.053600
H71	H7	0.532300	0.882600	0.071200
H81	H8	0.472500	0.884900	0.064800
C81	C8	0.509600	0.873300	0.997300
O71	O7	0.514400	0.917300	0.976900
O81	O8	0.508900	0.833800	0.969900
C91	C9	0.246700	0.382500	0.553600
H91	H9	0.217700	0.367400	0.571200
H101	H10	0.277500	0.365100	0.564800
C101	C10	0.240400	0.376700	0.497300
O91	O9	0.235600	0.332700	0.476900
O101	O10	0.241100	0.416200	0.469900
C111	C11	0.246700	0.882500	0.053600
H111	H11	0.217700	0.867400	0.071200
H121	H12	0.277500	0.865100	0.064800
C121	C12	0.240400	0.876700	0.997300
O111	O11	0.235600	0.832700	0.976900
O121	O12	0.241100	0.916200	0.969900
C131	C13	0.746700	0.382500	0.053600
H131	H13	0.717700	0.367400	0.071200
H141	H14	0.777500	0.365100	0.064800
C141	C14	0.740400	0.376700	0.997300
O131	O13	0.735600	0.332700	0.976900
O141	O14	0.741100	0.416200	0.969900
C151	C15	0.746700	0.882500	0.553600
H151	H15	0.717700	0.867400	0.571200
H161	H16	0.777500	0.865100	0.564800
C161	C16	0.740400	0.876700	0.497300
O151	O15	0.735600	0.832700	0.476900
O161	O16	0.741100	0.916200	0.469900
C171	C17	0.746700	0.867500	0.196400
H171	H17	0.717700	0.882600	0.178800
H181	H18	0.777500	0.884900	0.185200
C181	C18	0.740400	0.873300	0.252700
O171	O17	0.735600	0.917300	0.273100
O181	O18	0.741100	0.833800	0.280100
C191	C19	0.746700	0.367500	0.696400
H191	H19	0.717700	0.382600	0.678800
H201	H20	0.777500	0.384900	0.685200
C201	C20	0.740400	0.373300	0.752700
O191	O19	0.735600	0.417300	0.773100
O201	O20	0.741100	0.333800	0.780100
C211	C21	0.246700	0.867500	0.696400
H211	H21	0.217700	0.882600	0.678800
H221	H22	0.277500	0.884900	0.685200
C221	C22	0.240400	0.873300	0.752700
O211	O21	0.235600	0.917300	0.773100
O221	O22	0.241100	0.833800	0.780100
C231	C23	0.246700	0.367500	0.196400
H231	H23	0.217700	0.382600	0.178800
H241	H24	0.277500	0.384900	0.185200
C241	C24	0.240400	0.373300	0.252700
O231	O23	0.235600	0.417300	0.273100
O241	O24	0.241100	0.333800	0.280100
C251	C25	0.503300	0.882500	0.696400
H251	H25	0.532300	0.867400	0.678800
H261	H26	0.472500	0.865100	0.685200
C261	C26	0.509600	0.876700	0.752700
O251	O25	0.514400	0.832700	0.773100
O261	O26	0.508900	0.916200	0.780100
C271	C27	0.503300	0.382500	0.196400
H271	H27	0.532300	0.367400	0.178800
H281	H28	0.472500	0.365100	0.185200
C281	C28	0.509600	0.376700	0.252700
O271	O27	0.514400	0.332700	0.273100
O281	O28	0.508900	0.416200	0.280100
C291	C29	0.003300	0.882500	0.196400
H291	H29	0.032300	0.867400	0.178800
H301	H30	0.972500	0.865100	0.185200
C301	C30	0.009600	0.876700	0.252700
O291	O29	0.014400	0.832700	0.273100
O301	O30	0.008900	0.916200	0.280100
C311	C31	0.003300	0.382500	0.696400
H311	H31	0.032300	0.367400	0.678800
H321	H32	0.972500	0.365100	0.685200
C321	C32	0.009600	0.376700	0.752700
O311	O31	0.014400	0.332700	0.773100
O321	O32	0.008900	0.416200	0.780100
C331	C33	0.053600	0.003300	0.367500
H331	H33	0.071200	0.032300	0.382600
H341	H34	0.064800	0.972500	0.384900
C341	C34	0.997300	0.009600	0.373300
O331	O33	0.976900	0.014400	0.417300
O341	O34	0.969900	0.008900	0.333800
C351	C35	0.053600	0.503300	0.867500
H351	H35	0.071200	0.532300	0.882600
H361	H36	0.064800	0.472500	0.884900
C361	C36	0.997300	0.509600	0.873300
O351	O35	0.976900	0.514400	0.917300
O361	O36	0.969900	0.508900	0.833800
C371	C37	0.553600	0.003300	0.867500
H371	H37	0.571200	0.032300	0.882600
H381	H38	0.564800	0.972500	0.884900
C381	C38	0.497300	0.009600	0.873300
O371	O37	0.476900	0.014400	0.917300
O381	O38	0.469900	0.008900	0.833800
C391	C39	0.553600	0.503300	0.367500
H391	H39	0.571200	0.532300	0.382600
H401	H40	0.564800	0.472500	0.384900
C401	C40	0.497300	0.509600	0.373300
O391	O39	0.476900	0.514400	0.417300
O401	O40	0.469900	0.508900	0.333800
C411	C41	0.553600	0.246700	0.382500
H411	H41	0.571200	0.217700	0.367400
H421	H42	0.564800	0.277500	0.365100
C421	C42	0.497300	0.240400	0.376700
O411	O41	0.476900	0.235600	0.332700
O421	O42	0.469900	0.241100	0.416200
C431	C43	0.553600	0.746700	0.882500
H431	H43	0.571200	0.717700	0.867400
H441	H44	0.564800	0.777500	0.865100
C441	C44	0.497300	0.740400	0.876700
O431	O43	0.476900	0.735600	0.832700
O441	O44	0.469900	0.741100	0.916200
C451	C45	0.053600	0.246700	0.882500
H451	H45	0.071200	0.217700	0.867400
H461	H46	0.064800	0.277500	0.865100
C461	C46	0.997300	0.240400	0.876700
O451	O45	0.976900	0.235600	0.832700
O461	O46	0.969900	0.241100	0.916200
C471	C47	0.053600	0.746700	0.382500
H471	H47	0.071200	0.717700	0.367400
H481	H48	0.064800	0.777500	0.365100
C481	C48	0.997300	0.740400	0.376700
O471	O47	0.976900	0.735600	0.332700
O481	O48	0.969900	0.741100	0.416200
C491	C49	0.196400	0.746700	0.867500
H491	H49	0.178800	0.717700	0.882600
H501	H50	0.185200	0.777500	0.884900
C501	C50	0.252700	0.740400	0.873300
O491	O49	0.273100	0.735600	0.917300
O501	O50	0.280100	0.741100	0.833800
C511	C51	0.196400	0.246700	0.367500
H511	H51	0.178800	0.217700	0.382600
H521	H52	0.185200	0.277500	0.384900
C521	C52	0.252700	0.240400	0.373300
O511	O51	0.273100	0.235600	0.417300
O521	O52	0.280100	0.241100	0.333800
C531	C53	0.696400	0.746700	0.367500
H531	H53	0.678800	0.717700	0.382600
H541	H54	0.685200	0.777500	0.384900
C541	C54	0.752700	0.740400	0.373300
O531	O53	0.773100	0.735600	0.417300
O541	O54	0.780100	0.741100	0.333800
C551	C55	0.696400	0.246700	0.867500
H551	H55	0.678800	0.217700	0.882600
H561	H56	0.685200	0.277500	0.884900
C561	C56	0.752700	0.240400	0.873300
O551	O55	0.773100	0.235600	0.917300
O561	O56	0.780100	0.241100	0.833800
C571	C57	0.696400	0.503300	0.882500
H571	H57	0.678800	0.532300	0.867400
H581	H58	0.685200	0.472500	0.865100
C581	C58	0.752700	0.509600	0.876700
O571	O57	0.773100	0.514400	0.832700
O581	O58	0.780100	0.508900	0.916200
C591	C59	0.696400	0.003300	0.382500
H591	H59	0.678800	0.032300	0.367400
H601	H60	0.685200	0.972500	0.365100
C601	C60	0.752700	0.009600	0.376700
O591	O59	0.773100	0.014400	0.332700
O601	O60	0.780100	0.008900	0.416200
C611	C61	0.196400	0.503300	0.382500
H611	H61	0.178800	0.532300	0.367400
H621	H62	0.185200	0.472500	0.365100
C621	C62	0.252700	0.509600	0.376700
O611	O61	0.273100	0.514400	0.332700
O621	O62	0.280100	0.508900	0.416200
C631	C63	0.196400	0.003300	0.882500
H631	H63	0.178800	0.032300	0.867400
H641	H64	0.185200	0.972500	0.865100
C641	C64	0.252700	0.009600	0.876700
O631	O63	0.273100	0.014400	0.832700
O641	O64	0.280100	0.008900	0.916200
C651	C65	0.367500	0.053600	0.003300
H651	H65	0.382600	0.071200	0.032300
H661	H66	0.384900	0.064800	0.972500
C661	C66	0.373300	0.997300	0.009600
O651	O65	0.417300	0.976900	0.014400
O661	O66	0.333800	0.969900	0.008900
C671	C67	0.367500	0.553600	0.503300
H671	H67	0.382600	0.571200	0.532300
H681	H68	0.384900	0.564800	0.472500
C681	C68	0.373300	0.497300	0.509600
O671	O67	0.417300	0.476900	0.514400
O681	O68	0.333800	0.469900	0.508900
C691	C69	0.867500	0.053600	0.503300
H691	H69	0.882600	0.071200	0.532300
H701	H70	0.884900	0.064800	0.472500
C701	C70	0.873300	0.997300	0.509600
O691	O69	0.917300	0.976900	0.514400
O701	O70	0.833800	0.969900	0.508900
C711	C71	0.867500	0.553600	0.003300
H711	H71	0.882600	0.571200	0.032300
H721	H72	0.884900	0.564800	0.972500
C721	C72	0.873300	0.497300	0.009600
O711	O71	0.917300	0.476900	0.014400
O721	O72	0.833800	0.469900	0.008900
C731	C73	0.382500	0.553600	0.246700
H731	H73	0.367400	0.571200	0.217700
H741	H74	0.365100	0.564800	0.277500
C741	C74	0.376700	0.497300	0.240400
O731	O73	0.332700	0.476900	0.235600
O741	O74	0.416200	0.469900	0.241100
C751	C75	0.382500	0.053600	0.746700
H751	H75	0.367400	0.071200	0.717700
H761	H76	0.365100	0.064800	0.777500
C761	C76	0.376700	0.997300	0.740400
O751	O75	0.332700	0.976900	0.735600
O761	O76	0.416200	0.969900	0.741100
C771	C77	0.882500	0.553600	0.746700
H771	H77	0.867400	0.571200	0.717700
H781	H78	0.865100	0.564800	0.777500
C781	C78	0.876700	0.497300	0.740400
O771	O77	0.832700	0.476900	0.735600
O781	O78	0.916200	0.469900	0.741100
C791	C79	0.882500	0.053600	0.246700
H791	H79	0.867400	0.071200	0.217700
H801	H80	0.865100	0.064800	0.277500
C801	C80	0.876700	0.997300	0.240400
O791	O79	0.832700	0.976900	0.235600
O801	O80	0.916200	0.969900	0.241100
C811	C81	0.867500	0.196400	0.746700
H811	H81	0.882600	0.178800	0.717700
H821	H82	0.884900	0.185200	0.777500
C821	C82	0.873300	0.252700	0.740400
O811	O81	0.917300	0.273100	0.735600
O821	O82	0.833800	0.280100	0.741100
C831	C83	0.867500	0.696400	0.246700
H831	H83	0.882600	0.678800	0.217700
H841	H84	0.884900	0.685200	0.277500
C841	C84	0.873300	0.752700	0.240400
O831	O83	0.917300	0.773100	0.235600
O841	O84	0.833800	0.780100	0.241100
C851	C85	0.367500	0.196400	0.246700
H851	H85	0.382600	0.178800	0.217700
H861	H86	0.384900	0.185200	0.277500
C861	C86	0.373300	0.252700	0.240400
O851	O85	0.417300	0.273100	0.235600
O861	O86	0.333800	0.280100	0.241100
C871	C87	0.367500	0.696400	0.746700
H871	H87	0.382600	0.678800	0.717700
H881	H88	0.384900	0.685200	0.777500
C881	C88	0.373300	0.752700	0.740400
O871	O87	0.417300	0.773100	0.735600
O881	O88	0.333800	0.780100	0.741100
C891	C89	0.882500	0.696400	0.503300
H891	H89	0.867400	0.678800	0.532300
H901	H90	0.865100	0.685200	0.472500
C901	C90	0.876700	0.752700	0.509600
O891	O89	0.832700	0.773100	0.514400
O901	O90	0.916200	0.780100	0.508900
C911	C91	0.882500	0.196400	0.003300
H911	H91	0.867400	0.178800	0.032300
H921	H92	0.865100	0.185200	0.972500
C921	C92	0.876700	0.252700	0.009600
O911	O91	0.832700	0.273100	0.014400
O921	O92	0.916200	0.280100	0.008900
C931	C93	0.382500	0.696400	0.003300
H931	H93	0.367400	0.678800	0.032300
H941	H94	0.365100	0.685200	0.972500
C941	C94	0.376700	0.752700	0.009600
O931	O93	0.332700	0.773100	0.014400
O941	O94	0.416200	0.780100	0.008900
C951	C95	0.382500	0.196400	0.503300
H951	H95	0.367400	0.178800	0.532300
H961	H96	0.365100	0.185200	0.472500
C961	C96	0.376700	0.252700	0.509600
O951	O95	0.332700	0.273100	0.514400
O961	O96	0.416200	0.280100	0.508900
C971	C97	0.117500	0.253300	0.946400
H971	H97	0.132600	0.282300	0.928800
H981	H98	0.134900	0.222500	0.935200
C981	C98	0.123300	0.259600	0.002700
O971	O97	0.167300	0.264400	0.023100
O981	O98	0.083800	0.258900	0.030100
C991	C99	0.117500	0.753300	0.446400
H991	H99	0.132600	0.782300	0.428800
H1001	H100	0.134900	0.722500	0.435200
C1001	C100	0.123300	0.759600	0.502700
O991	O99	0.167300	0.764400	0.523100
O1001	O100	0.083800	0.758900	0.530100
C1011	C101	0.617500	0.253300	0.446400
H1011	H101	0.632600	0.282300	0.428800
H1021	H102	0.634900	0.222500	0.435200
C1021	C102	0.623300	0.259600	0.502700
O1011	O101	0.667300	0.264400	0.523100
O1021	O102	0.583800	0.258900	0.530100
C1031	C103	0.617500	0.753300	0.946400
H1031	H103	0.632600	0.782300	0.928800
H1041	H104	0.634900	0.722500	0.935200
C1041	C104	0.623300	0.759600	0.002700
O1031	O103	0.667300	0.764400	0.023100
O1041	O104	0.583800	0.758900	0.030100
C1051	C105	0.132500	0.496700	0.446400
H1051	H105	0.117400	0.467700	0.428800
H1061	H106	0.115100	0.527500	0.435200
C1061	C106	0.126700	0.490400	0.502700
O1051	O105	0.082700	0.485600	0.523100
O1061	O106	0.166200	0.491100	0.530100
C1071	C107	0.132500	0.996700	0.946400
H1071	H107	0.117400	0.967700	0.928800
H1081	H108	0.115100	0.027500	0.935200
C1081	C108	0.126700	0.990400	0.002700
O1071	O107	0.082700	0.985600	0.023100
O1081	O108	0.166200	0.991100	0.030100
C1091	C109	0.632500	0.496700	0.946400
H1091	H109	0.617400	0.467700	0.928800
H1101	H110	0.615100	0.527500	0.935200
C1101	C110	0.626700	0.490400	0.002700
O1091	O109	0.582700	0.485600	0.023100
O1101	O110	0.666200	0.491100	0.030100
C1111	C111	0.632500	0.996700	0.446400
H1111	H111	0.617400	0.967700	0.428800
H1121	H112	0.615100	0.027500	0.435200
C1121	C112	0.626700	0.990400	0.502700
O1111	O111	0.582700	0.985600	0.523100
O1121	O112	0.666200	0.991100	0.530100
C1131	C113	0.617500	0.996700	0.803600
H1131	H113	0.632600	0.967700	0.821200
H1141	H114	0.634900	0.027500	0.814800
C1141	C114	0.623300	0.990400	0.747300
O1131	O113	0.667300	0.985600	0.726900
O1141	O114	0.583800	0.991100	0.719900
C1151	C115	0.617500	0.496700	0.303600
H1151	H115	0.632600	0.467700	0.321200
H1161	H116	0.634900	0.527500	0.314800
C1161	C116	0.623300	0.490400	0.247300
O1151	O115	0.667300	0.485600	0.226900
O1161	O116	0.583800	0.491100	0.219900
C1171	C117	0.117500	0.996700	0.303600
H1171	H117	0.132600	0.967700	0.321200
H1181	H118	0.134900	0.027500	0.314800
C1181	C118	0.123300	0.990400	0.247300
O1171	O117	0.167300	0.985600	0.226900
O1181	O118	0.083800	0.991100	0.219900
C1191	C119	0.117500	0.496700	0.803600
H1191	H119	0.132600	0.467700	0.821200
H1201	H120	0.134900	0.527500	0.814800
C1201	C120	0.123300	0.490400	0.747300
O1191	O119	0.167300	0.485600	0.726900
O1201	O120	0.083800	0.491100	0.719900
C1211	C121	0.632500	0.753300	0.303600
H1211	H121	0.617400	0.782300	0.321200
H1221	H122	0.615100	0.722500	0.314800
C1221	C122	0.626700	0.759600	0.247300
O1211	O121	0.582700	0.764400	0.226900
O1221	O122	0.666200	0.758900	0.219900
C1231	C123	0.632500	0.253300	0.803600
H1231	H123	0.617400	0.282300	0.821200
H1241	H124	0.615100	0.222500	0.814800
C1241	C124	0.626700	0.259600	0.747300
O1231	O123	0.582700	0.264400	0.726900
O1241	O124	0.666200	0.258900	0.719900
C1251	C125	0.132500	0.753300	0.803600
H1251	H125	0.117400	0.782300	0.821200
H1261	H126	0.115100	0.722500	0.814800
C1261	C126	0.126700	0.759600	0.747300
O1251	O125	0.082700	0.764400	0.726900
O1261	O126	0.166200	0.758900	0.719900
C1271	C127	0.132500	0.253300	0.303600
H1271	H127	0.117400	0.282300	0.321200
H1281	H128	0.115100	0.222500	0.314800
C1281	C128	0.126700	0.259600	0.247300
O1271	O127	0.082700	0.264400	0.226900
O1281	O128	0.166200	0.258900	0.219900
C1291	C129	0.753300	0.303600	0.632500
H1291	H129	0.782300	0.321200	0.617400
H1301	H130	0.722500	0.314800	0.615100
C1301	C130	0.759600	0.247300	0.626700
O1291	O129	0.764400	0.226900	0.582700
O1301	O130	0.758900	0.219900	0.666200
C1311	C131	0.753300	0.803600	0.132500
H1311	H131	0.782300	0.821200	0.117400
H1321	H132	0.722500	0.814800	0.115100
C1321	C132	0.759600	0.747300	0.126700
O1311	O131	0.764400	0.726900	0.082700
O1321	O132	0.758900	0.719900	0.166200
C1331	C133	0.253300	0.303600	0.132500
H1331	H133	0.282300	0.321200	0.117400
H1341	H134	0.222500	0.314800	0.115100
C1341	C134	0.259600	0.247300	0.126700
O1331	O133	0.264400	0.226900	0.082700
O1341	O134	0.258900	0.219900	0.166200
C1351	C135	0.253300	0.803600	0.632500
H1351	H135	0.282300	0.821200	0.617400
H1361	H136	0.222500	0.814800	0.615100
C1361	C136	0.259600	0.747300	0.626700
O1351	O135	0.264400	0.726900	0.582700
O1361	O136	0.258900	0.719900	0.666200
C1371	C137	0.996700	0.803600	0.617500
H1371	H137	0.967700	0.821200	0.632600
H1381	H138	0.027500	0.814800	0.634900
C1381	C138	0.990400	0.747300	0.623300
O1371	O137	0.985600	0.726900	0.667300
O1381	O138	0.991100	0.719900	0.583800
C1391	C139	0.996700	0.303600	0.117500
H1391	H139	0.967700	0.321200	0.132600
H1401	H140	0.027500	0.314800	0.134900
C1401	C140	0.990400	0.247300	0.123300
O1391	O139	0.985600	0.226900	0.167300
O1401	O140	0.991100	0.219900	0.083800
C1411	C141	0.496700	0.803600	0.117500
H1411	H141	0.467700	0.821200	0.132600
H1421	H142	0.527500	0.814800	0.134900
C1421	C142	0.490400	0.747300	0.123300
O1411	O141	0.485600	0.726900	0.167300
O1421	O142	0.491100	0.719900	0.083800
C1431	C143	0.496700	0.303600	0.617500
H1431	H143	0.467700	0.321200	0.632600
H1441	H144	0.527500	0.314800	0.634900
C1441	C144	0.490400	0.247300	0.623300
O1431	O143	0.485600	0.226900	0.667300
O1441	O144	0.491100	0.219900	0.583800
C1451	C145	0.496700	0.446400	0.132500
H1451	H145	0.467700	0.428800	0.117400
H1461	H146	0.527500	0.435200	0.115100
C1461	C146	0.490400	0.502700	0.126700
O1451	O145	0.485600	0.523100	0.082700
O1461	O146	0.491100	0.530100	0.166200
C1471	C147	0.496700	0.946400	0.632500
H1471	H147	0.467700	0.928800	0.617400
H1481	H148	0.527500	0.935200	0.615100
C1481	C148	0.490400	0.002700	0.626700
O1471	O147	0.485600	0.023100	0.582700
O1481	O148	0.491100	0.030100	0.666200
C1491	C149	0.996700	0.446400	0.632500
H1491	H149	0.967700	0.428800	0.617400
H1501	H150	0.027500	0.435200	0.615100
C1501	C150	0.990400	0.502700	0.626700
O1491	O149	0.985600	0.523100	0.582700
O1501	O150	0.991100	0.530100	0.666200
C1511	C151	0.996700	0.946400	0.132500
H1511	H151	0.967700	0.928800	0.117400
H1521	H152	0.027500	0.935200	0.115100
C1521	C152	0.990400	0.002700	0.126700
O1511	O151	0.985600	0.023100	0.082700
O1521	O152	0.991100	0.030100	0.166200
C1531	C153	0.253300	0.946400	0.117500
H1531	H153	0.282300	0.928800	0.132600
H1541	H154	0.222500	0.935200	0.134900
C1541	C154	0.259600	0.002700	0.123300
O1531	O153	0.264400	0.023100	0.167300
O1541	O154	0.258900	0.030100	0.083800
C1551	C155	0.253300	0.446400	0.617500
H1551	H155	0.282300	0.428800	0.632600
H1561	H156	0.222500	0.435200	0.634900
C1561	C156	0.259600	0.502700	0.623300
O1551	O155	0.264400	0.523100	0.667300
O1561	O156	0.258900	0.530100	0.583800
C1571	C157	0.753300	0.946400	0.617500
H1571	H157	0.782300	0.928800	0.632600
H1581	H158	0.722500	0.935200	0.634900
C1581	C158	0.759600	0.002700	0.623300
O1571	O157	0.764400	0.023100	0.667300
O1581	O158	0.758900	0.030100	0.583800
C1591	C159	0.753300	0.446400	0.117500
H1591	H159	0.782300	0.428800	0.132600
H1601	H160	0.722500	0.435200	0.134900
C1601	C160	0.759600	0.502700	0.123300
O1591	O159	0.764400	0.523100	0.167300
O1601	O160	0.758900	0.530100	0.083800
C1611	C161	0.803600	0.617500	0.996700
H1611	H161	0.821200	0.632600	0.967700
H1621	H162	0.814800	0.634900	0.027500
C1621	C162	0.747300	0.623300	0.990400
O1611	O161	0.726900	0.667300	0.985600
O1621	O162	0.719900	0.583800	0.991100
C1631	C163	0.803600	0.117500	0.496700
H1631	H163	0.821200	0.132600	0.467700
H1641	H164	0.814800	0.134900	0.527500
C1641	C164	0.747300	0.123300	0.490400
O1631	O163	0.726900	0.167300	0.485600
O1641	O164	0.719900	0.083800	0.491100
C1651	C165	0.303600	0.617500	0.496700
H1651	H165	0.321200	0.632600	0.467700
H1661	H166	0.314800	0.634900	0.527500
C1661	C166	0.247300	0.623300	0.490400
O1651	O165	0.226900	0.667300	0.485600
O1661	O166	0.219900	0.583800	0.491100
C1671	C167	0.303600	0.117500	0.996700
H1671	H167	0.321200	0.132600	0.967700
H1681	H168	0.314800	0.134900	0.027500
C1681	C168	0.247300	0.123300	0.990400
O1671	O167	0.226900	0.167300	0.985600
O1681	O168	0.219900	0.083800	0.991100
C1691	C169	0.303600	0.632500	0.753300
H1691	H169	0.321200	0.617400	0.782300
H1701	H170	0.314800	0.615100	0.722500
C1701	C170	0.247300	0.626700	0.759600
O1691	O169	0.226900	0.582700	0.764400
O1701	O170	0.219900	0.666200	0.758900
C1711	C171	0.303600	0.132500	0.253300
H1711	H171	0.321200	0.117400	0.282300
H1721	H172	0.314800	0.115100	0.222500
C1721	C172	0.247300	0.126700	0.259600
O1711	O171	0.226900	0.082700	0.264400
O1721	O172	0.219900	0.166200	0.258900
C1731	C173	0.803600	0.632500	0.253300
H1731	H173	0.821200	0.617400	0.282300
H1741	H174	0.814800	0.615100	0.222500
C1741	C174	0.747300	0.626700	0.259600
O1731	O173	0.726900	0.582700	0.264400
O1741	O174	0.719900	0.666200	0.258900
C1751	C175	0.803600	0.132500	0.753300
H1751	H175	0.821200	0.117400	0.782300
H1761	H176	0.814800	0.115100	0.722500
C1761	C176	0.747300	0.126700	0.759600
O1751	O175	0.726900	0.082700	0.764400
O1761	O176	0.719900	0.166200	0.758900
C1771	C177	0.946400	0.117500	0.253300
H1771	H177	0.928800	0.132600	0.282300
H1781	H178	0.935200	0.134900	0.222500
C1781	C178	0.002700	0.123300	0.259600
O1771	O177	0.023100	0.167300	0.264400
O1781	O178	0.030100	0.083800	0.258900
C1791	C179	0.946400	0.617500	0.753300
H1791	H179	0.928800	0.632600	0.782300
H1801	H180	0.935200	0.634900	0.722500
C1801	C180	0.002700	0.623300	0.759600
O1791	O179	0.023100	0.667300	0.764400
O1801	O180	0.030100	0.583800	0.758900
C1811	C181	0.446400	0.117500	0.753300
H1811	H181	0.428800	0.132600	0.782300
H1821	H182	0.435200	0.134900	0.722500
C1821	C182	0.502700	0.123300	0.759600
O1811	O181	0.523100	0.167300	0.764400
O1821	O182	0.530100	0.083800	0.758900
C1831	C183	0.446400	0.617500	0.253300
H1831	H183	0.428800	0.632600	0.282300
H1841	H184	0.435200	0.634900	0.222500
C1841	C184	0.502700	0.623300	0.259600
O1831	O183	0.523100	0.667300	0.264400
O1841	O184	0.530100	0.583800	0.258900
C1851	C185	0.446400	0.132500	0.496700
H1851	H185	0.428800	0.117400	0.467700
H1861	H186	0.435200	0.115100	0.527500
C1861	C186	0.502700	0.126700	0.490400
O1851	O185	0.523100	0.082700	0.485600
O1861	O186	0.530100	0.166200	0.491100
C1871	C187	0.446400	0.632500	0.996700
H1871	H187	0.428800	0.617400	0.967700
H1881	H188	0.435200	0.615100	0.027500
C1881	C188	0.502700	0.626700	0.990400
O1871	O187	0.523100	0.582700	0.985600
O1881	O188	0.530100	0.666200	0.991100
C1891	C189	0.946400	0.132500	0.996700
H1891	H189	0.928800	0.117400	0.967700
H1901	H190	0.935200	0.115100	0.027500
C1901	C190	0.002700	0.126700	0.990400
O1891	O189	0.023100	0.082700	0.985600
O1901	O190	0.030100	0.166200	0.991100
C1911	C191	0.946400	0.632500	0.496700
H1911	H191	0.928800	0.617400	0.467700
H1921	H192	0.935200	0.615100	0.527500
C1921	C192	0.002700	0.626700	0.490400
O1911	O191	0.023100	0.582700	0.485600
O1921	O192	0.030100	0.666200	0.491100
C1931	C193	0.996700	0.632500	0.946400
H1931	H193	0.967700	0.617400	0.928800
H1941	H194	0.027500	0.615100	0.935200
C1941	C194	0.990400	0.626700	0.002700
O1931	O193	0.985600	0.582700	0.023100
O1941	O194	0.991100	0.666200	0.030100
C1951	C195	0.996700	0.132500	0.446400
H1951	H195	0.967700	0.117400	0.428800
H1961	H196	0.027500	0.115100	0.435200
C1961	C196	0.990400	0.126700	0.502700
O1951	O195	0.985600	0.082700	0.523100
O1961	O196	0.991100	0.166200	0.530100
C1971	C197	0.496700	0.632500	0.446400
H1971	H197	0.467700	0.617400	0.428800
H1981	H198	0.527500	0.615100	0.435200
C1981	C198	0.490400	0.626700	0.502700
O1971	O197	0.485600	0.582700	0.523100
O1981	O198	0.491100	0.666200	0.530100
C1991	C199	0.496700	0.132500	0.946400
H1991	H199	0.467700	0.117400	0.928800
H2001	H200	0.527500	0.115100	0.935200
C2001	C200	0.490400	0.126700	0.002700
O1991	O199	0.485600	0.082700	0.023100
O2001	O200	0.491100	0.166200	0.030100
C2011	C201	0.753300	0.617500	0.446400
H2011	H201	0.782300	0.632600	0.428800
H2021	H202	0.722500	0.634900	0.435200
C2021	C202	0.759600	0.623300	0.502700
O2011	O201	0.764400	0.667300	0.523100
O2021	O202	0.758900	0.583800	0.530100
C2031	C203	0.753300	0.117500	0.946400
H2031	H203	0.782300	0.132600	0.928800
H2041	H204	0.722500	0.134900	0.935200
C2041	C204	0.759600	0.123300	0.002700
O2031	O203	0.764400	0.167300	0.023100
O2041	O204	0.758900	0.083800	0.030100
C2051	C205	0.253300	0.617500	0.946400
H2051	H205	0.282300	0.632600	0.928800
H2061	H206	0.222500	0.634900	0.935200
C2061	C206	0.259600	0.623300	0.002700
O2051	O205	0.264400	0.667300	0.023100
O2061	O206	0.258900	0.583800	0.030100
C2071	C207	0.253300	0.117500	0.446400
H2071	H207	0.282300	0.132600	0.428800
H2081	H208	0.222500	0.134900	0.435200
C2081	C208	0.259600	0.123300	0.502700
O2071	O207	0.264400	0.167300	0.523100
O2081	O208	0.258900	0.083800	0.530100
C2091	C209	0.253300	0.132500	0.803600
H2091	H209	0.282300	0.117400	0.821200
H2101	H210	0.222500	0.115100	0.814800
C2101	C210	0.259600	0.126700	0.747300
O2091	O209	0.264400	0.082700	0.726900
O2101	O210	0.258900	0.166200	0.719900
C2111	C211	0.253300	0.632500	0.303600
H2111	H211	0.282300	0.617400	0.321200
H2121	H212	0.222500	0.615100	0.314800
C2121	C212	0.259600	0.626700	0.247300
O2111	O211	0.264400	0.582700	0.226900
O2121	O212	0.258900	0.666200	0.219900
C2131	C213	0.753300	0.132500	0.303600
H2131	H213	0.782300	0.117400	0.321200
H2141	H214	0.722500	0.115100	0.314800
C2141	C214	0.759600	0.126700	0.247300
O2131	O213	0.764400	0.082700	0.226900
O2141	O214	0.758900	0.166200	0.219900
C2151	C215	0.753300	0.632500	0.803600
H2151	H215	0.782300	0.617400	0.821200
H2161	H216	0.722500	0.615100	0.814800
C2161	C216	0.759600	0.626700	0.747300
O2151	O215	0.764400	0.582700	0.726900
O2161	O216	0.758900	0.666200	0.719900
C2171	C217	0.496700	0.117500	0.303600
H2171	H217	0.467700	0.132600	0.321200
H2181	H218	0.527500	0.134900	0.314800
C2181	C218	0.490400	0.123300	0.247300
O2171	O217	0.485600	0.167300	0.226900
O2181	O218	0.491100	0.083800	0.219900
C2191	C219	0.496700	0.617500	0.803600
H2191	H219	0.467700	0.632600	0.821200
H2201	H220	0.527500	0.634900	0.814800
C2201	C220	0.490400	0.623300	0.747300
O2191	O219	0.485600	0.667300	0.726900
O2201	O220	0.491100	0.583800	0.719900
C2211	C221	0.996700	0.117500	0.803600
H2211	H221	0.967700	0.132600	0.821200
H2221	H222	0.027500	0.134900	0.814800
C2221	C222	0.990400	0.123300	0.747300
O2211	O221	0.985600	0.167300	0.726900
O2221	O222	0.991100	0.083800	0.719900
C2231	C223	0.996700	0.617500	0.303600
H2231	H223	0.967700	0.632600	0.321200
H2241	H224	0.027500	0.634900	0.314800
C2241	C224	0.990400	0.623300	0.247300
O2231	O223	0.985600	0.667300	0.226900
O2241	O224	0.991100	0.583800	0.219900
C2251	C225	0.946400	0.996700	0.632500
H2251	H225	0.928800	0.967700	0.617400
H2261	H226	0.935200	0.027500	0.615100
C2261	C226	0.002700	0.990400	0.626700
O2251	O225	0.023100	0.985600	0.582700
O2261	O226	0.030100	0.991100	0.666200
C2271	C227	0.946400	0.496700	0.132500
H2271	H227	0.928800	0.467700	0.117400
H2281	H228	0.935200	0.527500	0.115100
C2281	C228	0.002700	0.490400	0.126700
O2271	O227	0.023100	0.485600	0.082700
O2281	O228	0.030100	0.491100	0.166200
C2291	C229	0.446400	0.996700	0.132500
H2291	H229	0.428800	0.967700	0.117400
H2301	H230	0.435200	0.027500	0.115100
C2301	C230	0.502700	0.990400	0.126700
O2291	O229	0.523100	0.985600	0.082700
O2301	O230	0.530100	0.991100	0.166200
C2311	C231	0.446400	0.496700	0.632500
H2311	H231	0.428800	0.467700	0.617400
H2321	H232	0.435200	0.527500	0.615100
C2321	C232	0.502700	0.490400	0.626700
O2311	O231	0.523100	0.485600	0.582700
O2321	O232	0.530100	0.491100	0.666200
C2331	C233	0.446400	0.753300	0.617500
H2331	H233	0.428800	0.782300	0.632600
H2341	H234	0.435200	0.722500	0.634900
C2341	C234	0.502700	0.759600	0.623300
O2331	O233	0.523100	0.764400	0.667300
O2341	O234	0.530100	0.758900	0.583800
C2351	C235	0.446400	0.253300	0.117500
H2351	H235	0.428800	0.282300	0.132600
H2361	H236	0.435200	0.222500	0.134900
C2361	C236	0.502700	0.259600	0.123300
O2351	O235	0.523100	0.264400	0.167300
O2361	O236	0.530100	0.258900	0.083800
C2371	C237	0.946400	0.753300	0.117500
H2371	H237	0.928800	0.782300	0.132600
H2381	H238	0.935200	0.722500	0.134900
C2381	C238	0.002700	0.759600	0.123300
O2371	O237	0.023100	0.764400	0.167300
O2381	O238	0.030100	0.758900	0.083800
C2391	C239	0.946400	0.253300	0.617500
H2391	H239	0.928800	0.282300	0.632600
H2401	H240	0.935200	0.222500	0.634900
C2401	C240	0.002700	0.259600	0.623300
O2391	O239	0.023100	0.264400	0.667300
O2401	O240	0.030100	0.258900	0.583800
C2411	C241	0.803600	0.253300	0.132500
H2411	H241	0.821200	0.282300	0.117400
H2421	H242	0.814800	0.222500	0.115100
C2421	C242	0.747300	0.259600	0.126700
O2411	O241	0.726900	0.264400	0.082700
O2421	O242	0.719900	0.258900	0.166200
C2431	C243	0.803600	0.753300	0.632500
H2431	H243	0.821200	0.782300	0.617400
H2441	H244	0.814800	0.722500	0.615100
C2441	C244	0.747300	0.759600	0.626700
O2431	O243	0.726900	0.764400	0.582700
O2441	O244	0.719900	0.758900	0.666200
C2451	C245	0.303600	0.253300	0.632500
H2451	H245	0.321200	0.282300	0.617400
H2461	H246	0.314800	0.222500	0.615100
C2461	C246	0.247300	0.259600	0.626700
O2451	O245	0.226900	0.264400	0.582700
O2461	O246	0.219900	0.258900	0.666200
C2471	C247	0.303600	0.753300	0.132500
H2471	H247	0.321200	0.782300	0.117400
H2481	H248	0.314800	0.722500	0.115100
C2481	C248	0.247300	0.759600	0.126700
O2471	O247	0.226900	0.764400	0.082700
O2481	O248	0.219900	0.758900	0.166200
C2491	C249	0.303600	0.496700	0.117500
H2491	H249	0.321200	0.467700	0.132600
H2501	H250	0.314800	0.527500	0.134900
C2501	C250	0.247300	0.490400	0.123300
O2491	O249	0.226900	0.485600	0.167300
O2501	O250	0.219900	0.491100	0.083800
C2511	C251	0.303600	0.996700	0.617500
H2511	H251	0.321200	0.967700	0.632600
H2521	H252	0.314800	0.027500	0.634900
C2521	C252	0.247300	0.990400	0.623300
O2511	O251	0.226900	0.985600	0.667300
O2521	O252	0.219900	0.991100	0.583800
C2531	C253	0.803600	0.496700	0.617500
H2531	H253	0.821200	0.467700	0.632600
H2541	H254	0.814800	0.527500	0.634900
C2541	C254	0.747300	0.490400	0.623300
O2531	O253	0.726900	0.485600	0.667300
O2541	O254	0.719900	0.491100	0.583800
C2551	C255	0.803600	0.996700	0.117500
H2551	H255	0.821200	0.967700	0.132600
H2561	H256	0.814800	0.027500	0.134900
C2561	C256	0.747300	0.990400	0.123300
O2551	O255	0.726900	0.985600	0.167300
O2561	O256	0.719900	0.991100	0.083800
C2571	C257	0.632500	0.946400	0.996700
H2571	H257	0.617400	0.928800	0.967700
H2581	H258	0.615100	0.935200	0.027500
C2581	C258	0.626700	0.002700	0.990400
O2571	O257	0.582700	0.023100	0.985600
O2581	O258	0.666200	0.030100	0.991100
C2591	C259	0.632500	0.446400	0.496700
H2591	H259	0.617400	0.428800	0.467700
H2601	H260	0.615100	0.435200	0.527500
C2601	C260	0.626700	0.502700	0.490400
O2591	O259	0.582700	0.523100	0.485600
O2601	O260	0.666200	0.530100	0.491100
C2611	C261	0.132500	0.946400	0.496700
H2611	H261	0.117400	0.928800	0.467700
H2621	H262	0.115100	0.935200	0.527500
C2621	C262	0.126700	0.002700	0.490400
O2611	O261	0.082700	0.023100	0.485600
O2621	O262	0.166200	0.030100	0.491100
C2631	C263	0.132500	0.446400	0.996700
H2631	H263	0.117400	0.428800	0.967700
H2641	H264	0.115100	0.435200	0.027500
C2641	C264	0.126700	0.502700	0.990400
O2631	O263	0.082700	0.523100	0.985600
O2641	O264	0.166200	0.530100	0.991100
C2651	C265	0.617500	0.446400	0.753300
H2651	H265	0.632600	0.428800	0.782300
H2661	H266	0.634900	0.435200	0.722500
C2661	C266	0.623300	0.502700	0.759600
O2651	O265	0.667300	0.523100	0.764400
O2661	O266	0.583800	0.530100	0.758900
C2671	C267	0.617500	0.946400	0.253300
H2671	H267	0.632600	0.928800	0.282300
H2681	H268	0.634900	0.935200	0.222500
C2681	C268	0.623300	0.002700	0.259600
O2671	O267	0.667300	0.023100	0.264400
O2681	O268	0.583800	0.030100	0.258900
C2691	C269	0.117500	0.446400	0.253300
H2691	H269	0.132600	0.428800	0.282300
H2701	H270	0.134900	0.435200	0.222500
C2701	C270	0.123300	0.502700	0.259600
O2691	O269	0.167300	0.523100	0.264400
O2701	O270	0.083800	0.530100	0.258900
C2711	C271	0.117500	0.946400	0.753300
H2711	H271	0.132600	0.928800	0.782300
H2721	H272	0.134900	0.935200	0.722500
C2721	C272	0.123300	0.002700	0.759600
O2711	O271	0.167300	0.023100	0.764400
O2721	O272	0.083800	0.030100	0.758900
C2731	C273	0.132500	0.803600	0.253300
H2731	H273	0.117400	0.821200	0.282300
H2741	H274	0.115100	0.814800	0.222500
C2741	C274	0.126700	0.747300	0.259600
O2731	O273	0.082700	0.726900	0.264400
O2741	O274	0.166200	0.719900	0.258900
C2751	C275	0.132500	0.303600	0.753300
H2751	H275	0.117400	0.321200	0.782300
H2761	H276	0.115100	0.314800	0.722500
C2761	C276	0.126700	0.247300	0.759600
O2751	O275	0.082700	0.226900	0.764400
O2761	O276	0.166200	0.219900	0.758900
C2771	C277	0.632500	0.803600	0.753300
H2771	H277	0.617400	0.821200	0.782300
H2781	H278	0.615100	0.814800	0.722500
C2781	C278	0.626700	0.747300	0.759600
O2771	O277	0.582700	0.726900	0.764400
O2781	O278	0.666200	0.719900	0.758900
C2791	C279	0.632500	0.303600	0.253300
H2791	H279	0.617400	0.321200	0.282300
H2801	H280	0.615100	0.314800	0.222500
C2801	C280	0.626700	0.247300	0.259600
O2791	O279	0.582700	0.226900	0.264400
O2801	O280	0.666200	0.219900	0.258900
C2811	C281	0.117500	0.303600	0.496700
H2811	H281	0.132600	0.321200	0.467700
H2821	H282	0.134900	0.314800	0.527500
C2821	C282	0.123300	0.247300	0.490400
O2811	O281	0.167300	0.226900	0.485600
O2821	O282	0.083800	0.219900	0.491100
C2831	C283	0.117500	0.803600	0.996700
H2831	H283	0.132600	0.821200	0.967700
H2841	H284	0.134900	0.814800	0.027500
C2841	C284	0.123300	0.747300	0.990400
O2831	O283	0.167300	0.726900	0.985600
O2841	O284	0.083800	0.719900	0.991100
C2851	C285	0.617500	0.303600	0.996700
H2851	H285	0.632600	0.321200	0.967700
H2861	H286	0.634900	0.314800	0.027500
C2861	C286	0.623300	0.247300	0.990400
O2851	O285	0.667300	0.226900	0.985600
O2861	O286	0.583800	0.219900	0.991100
C2871	C287	0.617500	0.803600	0.496700
H2871	H287	0.632600	0.821200	0.467700
H2881	H288	0.634900	0.814800	0.527500
C2881	C288	0.623300	0.747300	0.490400
O2871	O287	0.667300	0.726900	0.485600
O2881	O288	0.583800	0.719900	0.491100
C2891	C289	0.882500	0.746700	0.053600
H2891	H289	0.867400	0.717700	0.071200
H2901	H290	0.865100	0.777500	0.064800
C2901	C290	0.876700	0.740400	0.997300
O2891	O289	0.832700	0.735600	0.976900
O2901	O290	0.916200	0.741100	0.969900
C2911	C291	0.882500	0.246700	0.553600
H2911	H291	0.867400	0.217700	0.571200
H2921	H292	0.865100	0.277500	0.564800
C2921	C292	0.876700	0.240400	0.497300
O2911	O291	0.832700	0.235600	0.476900
O2921	O292	0.916200	0.241100	0.469900
C2931	C293	0.382500	0.746700	0.553600
H2931	H293	0.367400	0.717700	0.571200
H2941	H294	0.365100	0.777500	0.564800
C2941	C294	0.376700	0.740400	0.497300
O2931	O293	0.332700	0.735600	0.476900
O2941	O294	0.416200	0.741100	0.469900
C2951	C295	0.382500	0.246700	0.053600
H2951	H295	0.367400	0.217700	0.071200
H2961	H296	0.365100	0.277500	0.064800
C2961	C296	0.376700	0.240400	0.997300
O2951	O295	0.332700	0.235600	0.976900
O2961	O296	0.416200	0.241100	0.969900
C2971	C297	0.867500	0.503300	0.553600
H2971	H297	0.882600	0.532300	0.571200
H2981	H298	0.884900	0.472500	0.564800
C2981	C298	0.873300	0.509600	0.497300
O2971	O297	0.917300	0.514400	0.476900
O2981	O298	0.833800	0.508900	0.469900
C2991	C299	0.867500	0.003300	0.053600
H2991	H299	0.882600	0.032300	0.071200
H3001	H300	0.884900	0.972500	0.064800
C3001	C300	0.873300	0.009600	0.997300
O2991	O299	0.917300	0.014400	0.976900
O3001	O300	0.833800	0.008900	0.969900
C3011	C301	0.367500	0.503300	0.053600
H3011	H301	0.382600	0.532300	0.071200
H3021	H302	0.384900	0.472500	0.064800
C3021	C302	0.373300	0.509600	0.997300
O3011	O301	0.417300	0.514400	0.976900
O3021	O302	0.333800	0.508900	0.969900
C3031	C303	0.367500	0.003300	0.553600
H3031	H303	0.382600	0.032300	0.571200
H3041	H304	0.384900	0.972500	0.564800
C3041	C304	0.373300	0.009600	0.497300
O3031	O303	0.417300	0.014400	0.476900
O3041	O304	0.333800	0.008900	0.469900
C3051	C305	0.382500	0.003300	0.196400
H3051	H305	0.367400	0.032300	0.178800
H3061	H306	0.365100	0.972500	0.185200
C3061	C306	0.376700	0.009600	0.252700
O3051	O305	0.332700	0.014400	0.273100
O3061	O306	0.416200	0.008900	0.280100
C3071	C307	0.382500	0.503300	0.696400
H3071	H307	0.367400	0.532300	0.678800
H3081	H308	0.365100	0.472500	0.685200
C3081	C308	0.376700	0.509600	0.752700
O3071	O307	0.332700	0.514400	0.773100
O3081	O308	0.416200	0.508900	0.780100
C3091	C309	0.882500	0.003300	0.696400
H3091	H309	0.867400	0.032300	0.678800
H3101	H310	0.865100	0.972500	0.685200
C3101	C310	0.876700	0.009600	0.752700
O3091	O309	0.832700	0.014400	0.773100
O3101	O310	0.916200	0.008900	0.780100
C3111	C311	0.882500	0.503300	0.196400
H3111	H311	0.867400	0.532300	0.178800
H3121	H312	0.865100	0.472500	0.185200
C3121	C312	0.876700	0.509600	0.252700
O3111	O311	0.832700	0.514400	0.273100
O3121	O312	0.916200	0.508900	0.280100
C3131	C313	0.367500	0.246700	0.696400
H3131	H313	0.382600	0.217700	0.678800
H3141	H314	0.384900	0.277500	0.685200
C3141	C314	0.373300	0.240400	0.752700
O3131	O313	0.417300	0.235600	0.773100
O3141	O314	0.333800	0.241100	0.780100
C3151	C315	0.367500	0.746700	0.196400
H3151	H315	0.382600	0.717700	0.178800
H3161	H316	0.384900	0.777500	0.185200
C3161	C316	0.373300	0.740400	0.252700
O3151	O315	0.417300	0.735600	0.273100
O3161	O316	0.333800	0.741100	0.280100
C3171	C317	0.867500	0.246700	0.196400
H3171	H317	0.882600	0.217700	0.178800
H3181	H318	0.884900	0.277500	0.185200
C3181	C318	0.873300	0.240400	0.252700
O3171	O317	0.917300	0.235600	0.273100
O3181	O318	0.833800	0.241100	0.280100
C3191	C319	0.867500	0.746700	0.696400
H3191	H319	0.882600	0.717700	0.678800
H3201	H320	0.884900	0.777500	0.685200
C3201	C320	0.873300	0.740400	0.752700
O3191	O319	0.917300	0.735600	0.773100
O3201	O320	0.833800	0.741100	0.780100
C3211	C321	0.246700	0.696400	0.367500
H3211	H321	0.217700	0.678800	0.382600
H3221	H322	0.277500	0.685200	0.384900
C3221	C322	0.240400	0.752700	0.373300
O3211	O321	0.235600	0.773100	0.417300
O3221	O322	0.241100	0.780100	0.333800
C3231	C323	0.246700	0.196400	0.867500
H3231	H323	0.217700	0.178800	0.882600
H3241	H324	0.277500	0.185200	0.884900
C3241	C324	0.240400	0.252700	0.873300
O3231	O323	0.235600	0.273100	0.917300
O3241	O324	0.241100	0.280100	0.833800
C3251	C325	0.746700	0.696400	0.867500
H3251	H325	0.717700	0.678800	0.882600
H3261	H326	0.777500	0.685200	0.884900
C3261	C326	0.740400	0.752700	0.873300
O3251	O325	0.735600	0.773100	0.917300
O3261	O326	0.741100	0.780100	0.833800
C3271	C327	0.746700	0.196400	0.367500
H3271	H327	0.717700	0.178800	0.382600
H3281	H328	0.777500	0.185200	0.384900
C3281	C328	0.740400	0.252700	0.373300
O3271	O327	0.735600	0.273100	0.417300
O3281	O328	0.741100	0.280100	0.333800
C3291	C329	0.003300	0.196400	0.382500
H3291	H329	0.032300	0.178800	0.367400
H3301	H330	0.972500	0.185200	0.365100
C3301	C330	0.009600	0.252700	0.376700
O3291	O329	0.014400	0.273100	0.332700
O3301	O330	0.008900	0.280100	0.416200
C3311	C331	0.003300	0.696400	0.882500
H3311	H331	0.032300	0.678800	0.867400
H3321	H332	0.972500	0.685200	0.865100
C3321	C332	0.009600	0.752700	0.876700
O3311	O331	0.014400	0.773100	0.832700
O3321	O332	0.008900	0.780100	0.916200
C3331	C333	0.503300	0.196400	0.882500
H3331	H333	0.532300	0.178800	0.867400
H3341	H334	0.472500	0.185200	0.865100
C3341	C334	0.509600	0.252700	0.876700
O3331	O333	0.514400	0.273100	0.832700
O3341	O334	0.508900	0.280100	0.916200
C3351	C335	0.503300	0.696400	0.382500
H3351	H335	0.532300	0.678800	0.367400
H3361	H336	0.472500	0.685200	0.365100
C3361	C336	0.509600	0.752700	0.376700
O3351	O335	0.514400	0.773100	0.332700
O3361	O336	0.508900	0.780100	0.416200
C3371	C337	0.503300	0.553600	0.867500
H3371	H337	0.532300	0.571200	0.882600
H3381	H338	0.472500	0.564800	0.884900
C3381	C338	0.509600	0.497300	0.873300
O3371	O337	0.514400	0.476900	0.917300
O3381	O338	0.508900	0.469900	0.833800
C3391	C339	0.503300	0.053600	0.367500
H3391	H339	0.532300	0.071200	0.382600
H3401	H340	0.472500	0.064800	0.384900
C3401	C340	0.509600	0.997300	0.373300
O3391	O339	0.514400	0.976900	0.417300
O3401	O340	0.508900	0.969900	0.333800
C3411	C341	0.003300	0.553600	0.367500
H3411	H341	0.032300	0.571200	0.382600
H3421	H342	0.972500	0.564800	0.384900
C3421	C342	0.009600	0.497300	0.373300
O3411	O341	0.014400	0.476900	0.417300
O3421	O342	0.008900	0.469900	0.333800
C3431	C343	0.003300	0.053600	0.867500
H3431	H343	0.032300	0.071200	0.882600
H3441	H344	0.972500	0.064800	0.884900
C3441	C344	0.009600	0.997300	0.873300
O3431	O343	0.014400	0.976900	0.917300
O3441	O344	0.008900	0.969900	0.833800
C3451	C345	0.746700	0.053600	0.882500
H3451	H345	0.717700	0.071200	0.867400
H3461	H346	0.777500	0.064800	0.865100
C3461	C346	0.740400	0.997300	0.876700
O3451	O345	0.735600	0.976900	0.832700
O3461	O346	0.741100	0.969900	0.916200
C3471	C347	0.746700	0.553600	0.382500
H3471	H347	0.717700	0.571200	0.367400
H3481	H348	0.777500	0.564800	0.365100
C3481	C348	0.740400	0.497300	0.376700
O3471	O347	0.735600	0.476900	0.332700
O3481	O348	0.741100	0.469900	0.416200
C3491	C349	0.246700	0.053600	0.382500
H3491	H349	0.217700	0.071200	0.367400
H3501	H350	0.277500	0.064800	0.365100
C3501	C350	0.240400	0.997300	0.376700
O3491	O349	0.235600	0.976900	0.332700
O3501	O350	0.241100	0.969900	0.416200
C3511	C351	0.246700	0.553600	0.882500
H3511	H351	0.217700	0.571200	0.867400
H3521	H352	0.277500	0.564800	0.865100
C3521	C352	0.240400	0.497300	0.876700
O3511	O351	0.235600	0.476900	0.832700
O3521	O352	0.241100	0.469900	0.916200
C3531	C353	0.196400	0.382500	0.003300
H3531	H353	0.178800	0.367400	0.032300
H3541	H354	0.185200	0.365100	0.972500
C3541	C354	0.252700	0.376700	0.009600
O3531	O353	0.273100	0.332700	0.014400
O3541	O354	0.280100	0.416200	0.008900
C3551	C355	0.196400	0.882500	0.503300
H3551	H355	0.178800	0.867400	0.532300
H3561	H356	0.185200	0.865100	0.472500
C3561	C356	0.252700	0.876700	0.509600
O3551	O355	0.273100	0.832700	0.514400
O3561	O356	0.280100	0.916200	0.508900
C3571	C357	0.696400	0.382500	0.503300
H3571	H357	0.678800	0.367400	0.532300
H3581	H358	0.685200	0.365100	0.472500
C3581	C358	0.752700	0.376700	0.509600
O3571	O357	0.773100	0.332700	0.514400
O3581	O358	0.780100	0.416200	0.508900
C3591	C359	0.696400	0.882500	0.003300
H3591	H359	0.678800	0.867400	0.032300
H3601	H360	0.685200	0.865100	0.972500
C3601	C360	0.752700	0.876700	0.009600
O3591	O359	0.773100	0.832700	0.014400
O3601	O360	0.780100	0.916200	0.008900
C3611	C361	0.696400	0.367500	0.246700
H3611	H361	0.678800	0.382600	0.217700
H3621	H362	0.685200	0.384900	0.277500
C3621	C362	0.752700	0.373300	0.240400
O3611	O361	0.773100	0.417300	0.235600
O3621	O362	0.780100	0.333800	0.241100
C3631	C363	0.696400	0.867500	0.746700
H3631	H363	0.678800	0.882600	0.717700
H3641	H364	0.685200	0.884900	0.777500
C3641	C364	0.752700	0.873300	0.740400
O3631	O363	0.773100	0.917300	0.735600
O3641	O364	0.780100	0.833800	0.741100
C3651	C365	0.196400	0.367500	0.746700
H3651	H365	0.178800	0.382600	0.717700
H3661	H366	0.185200	0.384900	0.777500
C3661	C366	0.252700	0.373300	0.740400
O3651	O365	0.273100	0.417300	0.735600
O3661	O366	0.280100	0.333800	0.741100
C3671	C367	0.196400	0.867500	0.246700
H3671	H367	0.178800	0.882600	0.217700
H3681	H368	0.185200	0.884900	0.277500
C3681	C368	0.252700	0.873300	0.240400
O3671	O367	0.273100	0.917300	0.235600
O3681	O368	0.280100	0.833800	0.241100
C3691	C369	0.053600	0.882500	0.746700
H3691	H369	0.071200	0.867400	0.717700
H3701	H370	0.064800	0.865100	0.777500
C3701	C370	0.997300	0.876700	0.740400
O3691	O369	0.976900	0.832700	0.735600
O3701	O370	0.969900	0.916200	0.741100
C3711	C371	0.053600	0.382500	0.246700
H3711	H371	0.071200	0.367400	0.217700
H3721	H372	0.064800	0.365100	0.277500
C3721	C372	0.997300	0.376700	0.240400
O3711	O371	0.976900	0.332700	0.235600
O3721	O372	0.969900	0.416200	0.241100
C3731	C373	0.553600	0.882500	0.246700
H3731	H373	0.571200	0.867400	0.217700
H3741	H374	0.564800	0.865100	0.277500
C3741	C374	0.497300	0.876700	0.240400
O3731	O373	0.476900	0.832700	0.235600
O3741	O374	0.469900	0.916200	0.241100
C3751	C375	0.553600	0.382500	0.746700
H3751	H375	0.571200	0.367400	0.717700
H3761	H376	0.564800	0.365100	0.777500
C3761	C376	0.497300	0.376700	0.740400
O3751	O375	0.476900	0.332700	0.735600
O3761	O376	0.469900	0.416200	0.741100
C3771	C377	0.553600	0.867500	0.503300
H3771	H377	0.571200	0.882600	0.532300
H3781	H378	0.564800	0.884900	0.472500
C3781	C378	0.497300	0.873300	0.509600
O3771	O377	0.476900	0.917300	0.514400
O3781	O378	0.469900	0.833800	0.508900
C3791	C379	0.553600	0.367500	0.003300
H3791	H379	0.571200	0.382600	0.032300
H3801	H380	0.564800	0.384900	0.972500
C3801	C380	0.497300	0.373300	0.009600
O3791	O379	0.476900	0.417300	0.014400
O3801	O380	0.469900	0.333800	0.008900
C3811	C381	0.053600	0.867500	0.003300
H3811	H381	0.071200	0.882600	0.032300
H3821	H382	0.064800	0.884900	0.972500
C3821	C382	0.997300	0.873300	0.009600
O3811	O381	0.976900	0.917300	0.014400
O3821	O382	0.969900	0.833800	0.008900
C3831	C383	0.053600	0.367500	0.503300
H3831	H383	0.071200	0.382600	0.532300
H3841	H384	0.064800	0.384900	0.472500
C3841	C384	0.997300	0.373300	0.509600
O3831	O383	0.976900	0.417300	0.514400
O3841	O384	0.969900	0.333800	0.508900
Tm11	Tm1	0.000000	0.250000	0.000000
Tm21	Tm2	0.250000	0.500000	0.500000
Tm31	Tm3	0.750000	0.750000	0.250000
Tm41	Tm4	0.500000	0.000000	0.750000
Tm51	Tm5	0.000000	0.000000	0.250000
Tm61	Tm6	0.000000	0.500000	0.750000
Tm71	Tm7	0.500000	0.250000	0.500000
Tm81	Tm8	0.500000	0.750000	0.000000
Tm91	Tm9	0.250000	0.750000	0.750000
Tm101	Tm10	0.250000	0.250000	0.250000
Tm111	Tm11	0.750000	0.500000	0.000000
Tm121	Tm12	0.750000	0.000000	0.500000
Tm131	Tm13	0.250000	0.000000	0.000000
Tm141	Tm14	0.500000	0.500000	0.250000
Tm151	Tm15	0.750000	0.250000	0.750000
Tm161	Tm16	0.000000	0.750000	0.500000
Tm171	Tm17	0.000000	0.750000	0.000000
Tm181	Tm18	0.750000	0.500000	0.500000
Tm191	Tm19	0.250000	0.250000	0.750000
Tm201	Tm20	0.500000	0.000000	0.250000
Tm211	Tm21	0.000000	0.000000	0.750000
Tm221	Tm22	0.000000	0.500000	0.250000
Tm231	Tm23	0.500000	0.750000	0.500000
Tm241	Tm24	0.500000	0.250000	0.000000
Tm251	Tm25	0.750000	0.250000	0.250000
Tm261	Tm26	0.750000	0.750000	0.750000
Tm271	Tm27	0.250000	0.500000	0.000000
Tm281	Tm28	0.250000	0.000000	0.500000
Tm291	Tm29	0.750000	0.000000	0.000000
Tm301	Tm30	0.500000	0.500000	0.750000
Tm311	Tm31	0.250000	0.750000	0.250000
Tm321	Tm32	0.000000	0.250000	0.500000
Cd11	Cd1	0.000000	0.500000	0.000000
Cd21	Cd2	0.250000	0.250000	0.500000
Cd31	Cd3	0.750000	0.000000	0.250000
Cd41	Cd4	0.500000	0.750000	0.750000
Cd51	Cd5	0.000000	0.000000	0.500000
Cd61	Cd6	0.500000	0.250000	0.250000
Cd71	Cd7	0.250000	0.750000	0.000000
Cd81	Cd8	0.750000	0.500000	0.750000
Cd91	Cd9	0.500000	0.000000	0.000000
Cd101	Cd10	0.500000	0.500000	0.500000
Cd111	Cd11	0.250000	0.500000	0.250000
Cd121	Cd12	0.000000	0.250000	0.750000
Cd131	Cd13	0.750000	0.750000	0.500000
Cd141	Cd14	0.250000	0.250000	0.000000
Cd151	Cd15	0.000000	0.500000	0.500000
Cd161	Cd16	0.000000	0.000000	0.000000
Cd171	Cd17	0.750000	0.000000	0.750000
Cd181	Cd18	0.500000	0.750000	0.250000
Cd191	Cd19	0.750000	0.250000	0.500000
Cd201	Cd20	0.000000	0.750000	0.750000
Cd211	Cd21	0.500000	0.500000	0.000000
Cd221	Cd22	0.250000	0.000000	0.250000
Cd231	Cd23	0.750000	0.750000	0.000000
Cd241	Cd24	0.250000	0.500000	0.750000
Cd251	Cd25	0.000000	0.250000	0.250000
Cd261	Cd26	0.500000	0.000000	0.500000
Cd271	Cd27	0.250000	0.000000	0.750000
Cd281	Cd28	0.750000	0.250000	0.000000
Cd291	Cd29	0.000000	0.750000	0.250000
Cd301	Cd30	0.500000	0.250000	0.750000
Cd311	Cd31	0.250000	0.750000	0.500000
Cd321	Cd32	0.750000	0.500000	0.250000
O3851	O385	0.000000	0.315400	0.065400
O3861	O386	0.500000	0.315400	0.565400
O3871	O387	0.250000	0.434600	0.565400
O3881	O388	0.750000	0.434600	0.065400
O3891	O389	0.750000	0.815400	0.184600
O3901	O390	0.750000	0.315400	0.684600
O3911	O391	0.250000	0.815400	0.684600
O3921	O392	0.500000	0.934600	0.684600
O3931	O393	0.000000	0.934600	0.184600
O3941	O394	0.065400	0.000000	0.315400
O3951	O395	0.065400	0.500000	0.815400
O3961	O396	0.565400	0.250000	0.434600
O3971	O397	0.565400	0.750000	0.934600
O3981	O398	0.184600	0.750000	0.815400
O3991	O399	0.184600	0.250000	0.315400
O4001	O400	0.684600	0.750000	0.315400
O4011	O401	0.684600	0.500000	0.934600
O4021	O402	0.684600	0.000000	0.434600
O4031	O403	0.184600	0.000000	0.934600
O4041	O404	0.315400	0.065400	0.000000
O4051	O405	0.315400	0.565400	0.500000
O4061	O406	0.434600	0.565400	0.250000
O4071	O407	0.434600	0.065400	0.750000
O4081	O408	0.815400	0.184600	0.750000
O4091	O409	0.815400	0.684600	0.250000
O4101	O410	0.315400	0.684600	0.750000
O4111	O411	0.934600	0.684600	0.500000
O4121	O412	0.934600	0.184600	0.000000
O4131	O413	0.065400	0.250000	0.934600
O4141	O414	0.065400	0.750000	0.434600
O4151	O415	0.184600	0.500000	0.434600
O4161	O416	0.565400	0.000000	0.815400
O4171	O417	0.565400	0.500000	0.315400
O4181	O418	0.684600	0.250000	0.815400
O4191	O419	0.250000	0.315400	0.184600
O4201	O420	0.000000	0.815400	0.565400
O4211	O421	0.500000	0.815400	0.065400
O4221	O422	0.500000	0.434600	0.184600
O4231	O423	0.000000	0.434600	0.684600
O4241	O424	0.250000	0.934600	0.065400
O4251	O425	0.750000	0.934600	0.565400
O4261	O426	0.815400	0.565400	0.000000
O4271	O427	0.815400	0.065400	0.500000
O4281	O428	0.315400	0.184600	0.250000
O4291	O429	0.934600	0.065400	0.250000
O4301	O430	0.934600	0.565400	0.750000
O4311	O431	0.434600	0.184600	0.500000
O4321	O432	0.434600	0.684600	0.000000
O4331	O433	0.000000	0.684600	0.934600
O4341	O434	0.500000	0.684600	0.434600
O4351	O435	0.750000	0.565400	0.434600
O4361	O436	0.750000	0.065400	0.934600
O4371	O437	0.250000	0.565400	0.934600
O4381	O438	0.250000	0.184600	0.815400
O4391	O439	0.750000	0.184600	0.315400
O4401	O440	0.500000	0.065400	0.315400
O4411	O441	0.000000	0.065400	0.815400
O4421	O442	0.000000	0.565400	0.315400
O4431	O443	0.934600	0.000000	0.684600
O4441	O444	0.934600	0.500000	0.184600
O4451	O445	0.434600	0.750000	0.565400
O4461	O446	0.434600	0.250000	0.065400
O4471	O447	0.934600	0.750000	0.065400
O4481	O448	0.815400	0.250000	0.184600
O4491	O449	0.815400	0.750000	0.684600
O4501	O450	0.315400	0.500000	0.065400
O4511	O451	0.315400	0.000000	0.565400
O4521	O452	0.684600	0.934600	0.000000
O4531	O453	0.684600	0.434600	0.500000
O4541	O454	0.565400	0.434600	0.750000
O4551	O455	0.565400	0.934600	0.250000
O4561	O456	0.065400	0.934600	0.750000
O4571	O457	0.184600	0.815400	0.250000
O4581	O458	0.184600	0.315400	0.750000
O4591	O459	0.065400	0.315400	0.500000
O4601	O460	0.065400	0.815400	0.000000
O4611	O461	0.565400	0.315400	0.000000
O4621	O462	0.934600	0.250000	0.565400
O4631	O463	0.815400	0.500000	0.565400
O4641	O464	0.815400	0.000000	0.065400
O4651	O465	0.434600	0.000000	0.184600
O4661	O466	0.434600	0.500000	0.684600
O4671	O467	0.315400	0.250000	0.684600
O4681	O468	0.315400	0.750000	0.184600
O4691	O469	0.250000	0.684600	0.315400
O4701	O470	0.750000	0.684600	0.815400
O4711	O471	0.000000	0.184600	0.434600
O4721	O472	0.500000	0.184600	0.934600
O4731	O473	0.500000	0.565400	0.815400
O4741	O474	0.250000	0.065400	0.434600
O4751	O475	0.184600	0.434600	0.000000
O4761	O476	0.184600	0.934600	0.500000
O4771	O477	0.684600	0.315400	0.250000
O4781	O478	0.684600	0.815400	0.750000
O4791	O479	0.065400	0.434600	0.250000
O4801	O480	0.565400	0.815400	0.500000
