data_KOLYUH_clean_PM
_symmetry_space_group_name_H-M	'P1'
_cell_length_a	14.329000
_cell_length_b	14.329000
_cell_length_c	44.554000
_cell_angle_alpha	90.000000
_cell_angle_beta	90.000000
_cell_angle_gamma	90.000000
_symmetry_Int_Tables_number 1

loop_
_symmetry_equiv_pos_as_xyz
'x,y,z'

loop_
_atom_site_label
_atom_site_type_symbol
_atom_site_fract_x
_atom_site_fract_y
_atom_site_fract_z
N11	N1	0.430930	0.320870	0.550790
N21	N2	0.386030	0.444260	0.523700
N31	N3	0.354630	0.363490	0.510980
N41	N4	0.140680	0.371390	0.404820
N51	N5	0.113800	0.451790	0.391130
N61	N6	0.064730	0.327180	0.365280
C11	C1	0.430700	0.414890	0.547560
H11	H1	0.460300	0.455900	0.561400
C21	C2	0.381880	0.291070	0.527310
H21	H2	0.368400	0.227600	0.522900
C31	C3	0.299870	0.365500	0.483770
C41	C4	0.347150	0.367390	0.456460
C51	C5	0.445950	0.365140	0.453840
H31	H3	0.483200	0.361000	0.471400
C61	C6	0.488050	0.368860	0.426350
H41	H4	0.554100	0.365600	0.424900
C71	C7	0.433700	0.377530	0.400090
H51	H5	0.463900	0.383000	0.381200
C81	C8	0.339470	0.378150	0.401270
H61	H6	0.304500	0.382700	0.383200
C91	C9	0.291650	0.372090	0.429490
C101	C10	0.194940	0.371600	0.432120
C111	C11	0.148020	0.370830	0.459510
C121	C12	0.048600	0.375000	0.461970
H71	H7	0.011300	0.375900	0.444300
C131	C13	0.007400	0.377400	0.489250
H81	H8	0.941300	0.380000	0.490600
C141	C14	0.061600	0.376300	0.515900
H91	H9	0.031200	0.379000	0.534800
C151	C15	0.155900	0.371400	0.514850
H101	H10	0.190900	0.369900	0.532900
C161	C16	0.203020	0.368560	0.486470
C171	C17	0.110750	0.298210	0.389250
H111	H11	0.120900	0.234800	0.394500
C181	C18	0.068900	0.421440	0.367400
H121	H12	0.041600	0.462000	0.353000
N71	N7	0.930930	0.820870	0.050790
N81	N8	0.886030	0.944260	0.023700
N91	N9	0.854630	0.863490	0.010980
N101	N10	0.640680	0.871390	0.904820
N111	N11	0.613800	0.951790	0.891130
N121	N12	0.564730	0.827180	0.865280
C191	C19	0.930700	0.914890	0.047560
H131	H13	0.960300	0.955900	0.061400
C201	C20	0.881880	0.791070	0.027310
H141	H14	0.868400	0.727600	0.022900
C211	C21	0.799870	0.865500	0.983770
C221	C22	0.847150	0.867390	0.956460
C231	C23	0.945950	0.865140	0.953840
H151	H15	0.983200	0.861000	0.971400
C241	C24	0.988050	0.868860	0.926350
H161	H16	0.054100	0.865600	0.924900
C251	C25	0.933700	0.877530	0.900090
H171	H17	0.963900	0.883000	0.881200
C261	C26	0.839470	0.878150	0.901270
H181	H18	0.804500	0.882700	0.883200
C271	C27	0.791650	0.872090	0.929490
C281	C28	0.694940	0.871600	0.932120
C291	C29	0.648020	0.870830	0.959510
C301	C30	0.548600	0.875000	0.961970
H191	H19	0.511300	0.875900	0.944300
C311	C31	0.507400	0.877400	0.989250
H201	H20	0.441300	0.880000	0.990600
C321	C32	0.561600	0.876300	0.015900
H211	H21	0.531200	0.879000	0.034800
C331	C33	0.655900	0.871400	0.014850
H221	H22	0.690900	0.869900	0.032900
C341	C34	0.703020	0.868560	0.986470
C351	C35	0.610750	0.798210	0.889250
H231	H23	0.620900	0.734800	0.894500
C361	C36	0.568900	0.921440	0.867400
H241	H24	0.541600	0.962000	0.853000
N131	N13	0.069070	0.679130	0.050790
N141	N14	0.113970	0.555740	0.023700
N151	N15	0.145370	0.636510	0.010980
N161	N16	0.359320	0.628610	0.904820
N171	N17	0.386200	0.548210	0.891130
N181	N18	0.435270	0.672820	0.865280
C371	C37	0.069300	0.585110	0.047560
H251	H25	0.039700	0.544100	0.061400
C381	C38	0.118120	0.708930	0.027310
H261	H26	0.131600	0.772400	0.022900
C391	C39	0.200130	0.634500	0.983770
C401	C40	0.152850	0.632610	0.956460
C411	C41	0.054050	0.634860	0.953840
H271	H27	0.016800	0.639000	0.971400
C421	C42	0.011950	0.631140	0.926350
H281	H28	0.945900	0.634400	0.924900
C431	C43	0.066300	0.622470	0.900090
H291	H29	0.036100	0.617000	0.881200
C441	C44	0.160530	0.621850	0.901270
H301	H30	0.195500	0.617300	0.883200
C451	C45	0.208350	0.627910	0.929490
C461	C46	0.305060	0.628400	0.932120
C471	C47	0.351980	0.629170	0.959510
C481	C48	0.451400	0.625000	0.961970
H311	H31	0.488700	0.624100	0.944300
C491	C49	0.492600	0.622600	0.989250
H321	H32	0.558700	0.620000	0.990600
C501	C50	0.438400	0.623700	0.015900
H331	H33	0.468800	0.621000	0.034800
C511	C51	0.344100	0.628600	0.014850
H341	H34	0.309100	0.630100	0.032900
C521	C52	0.296980	0.631440	0.986470
C531	C53	0.389250	0.701790	0.889250
H351	H35	0.379100	0.765200	0.894500
C541	C54	0.431100	0.578560	0.867400
H361	H36	0.458400	0.538000	0.853000
N191	N19	0.569070	0.179130	0.550790
N201	N20	0.613970	0.055740	0.523700
N211	N21	0.645370	0.136510	0.510980
N221	N22	0.859320	0.128610	0.404820
N231	N23	0.886200	0.048210	0.391130
N241	N24	0.935270	0.172820	0.365280
C551	C55	0.569300	0.085110	0.547560
H371	H37	0.539700	0.044100	0.561400
C561	C56	0.618120	0.208930	0.527310
H381	H38	0.631600	0.272400	0.522900
C571	C57	0.700130	0.134500	0.483770
C581	C58	0.652850	0.132610	0.456460
C591	C59	0.554050	0.134860	0.453840
H391	H39	0.516800	0.139000	0.471400
C601	C60	0.511950	0.131140	0.426350
H401	H40	0.445900	0.134400	0.424900
C611	C61	0.566300	0.122470	0.400090
H411	H41	0.536100	0.117000	0.381200
C621	C62	0.660530	0.121850	0.401270
H421	H42	0.695500	0.117300	0.383200
C631	C63	0.708350	0.127910	0.429490
C641	C64	0.805060	0.128400	0.432120
C651	C65	0.851980	0.129170	0.459510
C661	C66	0.951400	0.125000	0.461970
H431	H43	0.988700	0.124100	0.444300
C671	C67	0.992600	0.122600	0.489250
H441	H44	0.058700	0.120000	0.490600
C681	C68	0.938400	0.123700	0.515900
H451	H45	0.968800	0.121000	0.534800
C691	C69	0.844100	0.128600	0.514850
H461	H46	0.809100	0.130100	0.532900
C701	C70	0.796980	0.131440	0.486470
C711	C71	0.889250	0.201790	0.389250
H471	H47	0.879100	0.265200	0.394500
C721	C72	0.931100	0.078560	0.367400
H481	H48	0.958400	0.038000	0.353000
N251	N25	0.429130	0.680930	0.800790
N261	N26	0.305740	0.636030	0.773700
N271	N27	0.386510	0.604630	0.760980
N281	N28	0.378610	0.390680	0.654820
N291	N29	0.298210	0.363800	0.641130
N301	N30	0.422820	0.314730	0.615280
C731	C73	0.335110	0.680700	0.797560
H491	H49	0.294100	0.710300	0.811400
C741	C74	0.458930	0.631880	0.777310
H501	H50	0.522400	0.618400	0.772900
C751	C75	0.384500	0.549870	0.733770
C761	C76	0.382610	0.597150	0.706460
C771	C77	0.384860	0.695950	0.703840
H511	H51	0.389000	0.733200	0.721400
C781	C78	0.381140	0.738050	0.676350
H521	H52	0.384400	0.804100	0.674900
C791	C79	0.372470	0.683700	0.650090
H531	H53	0.367000	0.713900	0.631200
C801	C80	0.371850	0.589470	0.651270
H541	H54	0.367300	0.554500	0.633200
C811	C81	0.377910	0.541650	0.679490
C821	C82	0.378400	0.444940	0.682120
C831	C83	0.379170	0.398020	0.709510
C841	C84	0.375000	0.298600	0.711970
H551	H55	0.374100	0.261300	0.694300
C851	C85	0.372600	0.257400	0.739250
H561	H56	0.370000	0.191300	0.740600
C861	C86	0.373700	0.311600	0.765900
H571	H57	0.371000	0.281200	0.784800
C871	C87	0.378600	0.405900	0.764850
H581	H58	0.380100	0.440900	0.782900
C881	C88	0.381440	0.453020	0.736470
C891	C89	0.451790	0.360750	0.639250
H591	H59	0.515200	0.370900	0.644500
C901	C90	0.328560	0.318900	0.617400
H601	H60	0.288000	0.291600	0.603000
N311	N31	0.929130	0.180930	0.300790
N321	N32	0.805740	0.136030	0.273700
N331	N33	0.886510	0.104630	0.260980
N341	N34	0.878610	0.890680	0.154820
N351	N35	0.798210	0.863800	0.141130
N361	N36	0.922820	0.814730	0.115280
C911	C91	0.835110	0.180700	0.297560
H611	H61	0.794100	0.210300	0.311400
C921	C92	0.958930	0.131880	0.277310
H621	H62	0.022400	0.118400	0.272900
C931	C93	0.884500	0.049870	0.233770
C941	C94	0.882610	0.097150	0.206460
C951	C95	0.884860	0.195950	0.203840
H631	H63	0.889000	0.233200	0.221400
C961	C96	0.881140	0.238050	0.176350
H641	H64	0.884400	0.304100	0.174900
C971	C97	0.872470	0.183700	0.150090
H651	H65	0.867000	0.213900	0.131200
C981	C98	0.871850	0.089470	0.151270
H661	H66	0.867300	0.054500	0.133200
C991	C99	0.877910	0.041650	0.179490
C1001	C100	0.878400	0.944940	0.182120
C1011	C101	0.879170	0.898020	0.209510
C1021	C102	0.875000	0.798600	0.211970
H671	H67	0.874100	0.761300	0.194300
C1031	C103	0.872600	0.757400	0.239250
H681	H68	0.870000	0.691300	0.240600
C1041	C104	0.873700	0.811600	0.265900
H691	H69	0.871000	0.781200	0.284800
C1051	C105	0.878600	0.905900	0.264850
H701	H70	0.880100	0.940900	0.282900
C1061	C106	0.881440	0.953020	0.236470
C1071	C107	0.951790	0.860750	0.139250
H711	H71	0.015200	0.870900	0.144500
C1081	C108	0.828560	0.818900	0.117400
H721	H72	0.788000	0.791600	0.103000
N371	N37	0.070870	0.319070	0.300790
N381	N38	0.194260	0.363970	0.273700
N391	N39	0.113490	0.395370	0.260980
N401	N40	0.121390	0.609320	0.154820
N411	N41	0.201790	0.636200	0.141130
N421	N42	0.077180	0.685270	0.115280
C1091	C109	0.164890	0.319300	0.297560
H731	H73	0.205900	0.289700	0.311400
C1101	C110	0.041070	0.368120	0.277310
H741	H74	0.977600	0.381600	0.272900
C1111	C111	0.115500	0.450130	0.233770
C1121	C112	0.117390	0.402850	0.206460
C1131	C113	0.115140	0.304050	0.203840
H751	H75	0.111000	0.266800	0.221400
C1141	C114	0.118860	0.261950	0.176350
H761	H76	0.115600	0.195900	0.174900
C1151	C115	0.127530	0.316300	0.150090
H771	H77	0.133000	0.286100	0.131200
C1161	C116	0.128150	0.410530	0.151270
H781	H78	0.132700	0.445500	0.133200
C1171	C117	0.122090	0.458350	0.179490
C1181	C118	0.121600	0.555060	0.182120
C1191	C119	0.120830	0.601980	0.209510
C1201	C120	0.125000	0.701400	0.211970
H791	H79	0.125900	0.738700	0.194300
C1211	C121	0.127400	0.742600	0.239250
H801	H80	0.130000	0.808700	0.240600
C1221	C122	0.126300	0.688400	0.265900
H811	H81	0.129000	0.718800	0.284800
C1231	C123	0.121400	0.594100	0.264850
H821	H82	0.119900	0.559100	0.282900
C1241	C124	0.118560	0.546980	0.236470
C1251	C125	0.048210	0.639250	0.139250
H831	H83	0.984800	0.629100	0.144500
C1261	C126	0.171440	0.681100	0.117400
H841	H84	0.212000	0.708400	0.103000
N431	N43	0.570870	0.819070	0.800790
N441	N44	0.694260	0.863970	0.773700
N451	N45	0.613490	0.895370	0.760980
N461	N46	0.621390	0.109320	0.654820
N471	N47	0.701790	0.136200	0.641130
N481	N48	0.577180	0.185270	0.615280
C1271	C127	0.664890	0.819300	0.797560
H851	H85	0.705900	0.789700	0.811400
C1281	C128	0.541070	0.868120	0.777310
H861	H86	0.477600	0.881600	0.772900
C1291	C129	0.615500	0.950130	0.733770
C1301	C130	0.617390	0.902850	0.706460
C1311	C131	0.615140	0.804050	0.703840
H871	H87	0.611000	0.766800	0.721400
C1321	C132	0.618860	0.761950	0.676350
H881	H88	0.615600	0.695900	0.674900
C1331	C133	0.627530	0.816300	0.650090
H891	H89	0.633000	0.786100	0.631200
C1341	C134	0.628150	0.910530	0.651270
H901	H90	0.632700	0.945500	0.633200
C1351	C135	0.622090	0.958350	0.679490
C1361	C136	0.621600	0.055060	0.682120
C1371	C137	0.620830	0.101980	0.709510
C1381	C138	0.625000	0.201400	0.711970
H911	H91	0.625900	0.238700	0.694300
C1391	C139	0.627400	0.242600	0.739250
H921	H92	0.630000	0.308700	0.740600
C1401	C140	0.626300	0.188400	0.765900
H931	H93	0.629000	0.218800	0.784800
C1411	C141	0.621400	0.094100	0.764850
H941	H94	0.619900	0.059100	0.782900
C1421	C142	0.618560	0.046980	0.736470
C1431	C143	0.548210	0.139250	0.639250
H951	H95	0.484800	0.129100	0.644500
C1441	C144	0.671440	0.181100	0.617400
H961	H96	0.712000	0.208400	0.603000
Cu11	Cu1	0.500000	0.250000	0.583290
Cu21	Cu2	0.000000	0.750000	0.083290
Cu31	Cu3	0.500000	0.750000	0.833290
Cu41	Cu4	0.000000	0.250000	0.333290
N491	N49	0.569070	0.679130	0.449210
N501	N50	0.613970	0.555740	0.476300
N511	N51	0.645370	0.636510	0.489020
N521	N52	0.859320	0.628610	0.595180
N531	N53	0.886200	0.548210	0.608870
N541	N54	0.935270	0.672820	0.634720
C1451	C145	0.569300	0.585110	0.452440
H971	H97	0.539700	0.544100	0.438600
C1461	C146	0.618120	0.708930	0.472690
H981	H98	0.631600	0.772400	0.477100
C1471	C147	0.700130	0.634500	0.516230
C1481	C148	0.652850	0.632610	0.543540
C1491	C149	0.554050	0.634860	0.546160
H991	H99	0.516800	0.639000	0.528600
C1501	C150	0.511950	0.631140	0.573650
H1001	H100	0.445900	0.634400	0.575100
C1511	C151	0.566300	0.622470	0.599910
H1011	H101	0.536100	0.617000	0.618800
C1521	C152	0.660530	0.621850	0.598730
H1021	H102	0.695500	0.617300	0.616800
C1531	C153	0.708350	0.627910	0.570510
C1541	C154	0.805060	0.628400	0.567880
C1551	C155	0.851980	0.629170	0.540490
C1561	C156	0.951400	0.625000	0.538030
H1031	H103	0.988700	0.624100	0.555700
C1571	C157	0.992600	0.622600	0.510750
H1041	H104	0.058700	0.620000	0.509400
C1581	C158	0.938400	0.623700	0.484100
H1051	H105	0.968800	0.621000	0.465200
C1591	C159	0.844100	0.628600	0.485150
H1061	H106	0.809100	0.630100	0.467100
C1601	C160	0.796980	0.631440	0.513530
C1611	C161	0.889250	0.701790	0.610750
H1071	H107	0.879100	0.765200	0.605500
C1621	C162	0.931100	0.578560	0.632600
H1081	H108	0.958400	0.538000	0.647000
N551	N55	0.069070	0.179130	0.949210
N561	N56	0.113970	0.055740	0.976300
N571	N57	0.145370	0.136510	0.989020
N581	N58	0.359320	0.128610	0.095180
N591	N59	0.386200	0.048210	0.108870
N601	N60	0.435270	0.172820	0.134720
C1631	C163	0.069300	0.085110	0.952440
H1091	H109	0.039700	0.044100	0.938600
C1641	C164	0.118120	0.208930	0.972690
H1101	H110	0.131600	0.272400	0.977100
C1651	C165	0.200130	0.134500	0.016230
C1661	C166	0.152850	0.132610	0.043540
C1671	C167	0.054050	0.134860	0.046160
H1111	H111	0.016800	0.139000	0.028600
C1681	C168	0.011950	0.131140	0.073650
H1121	H112	0.945900	0.134400	0.075100
C1691	C169	0.066300	0.122470	0.099910
H1131	H113	0.036100	0.117000	0.118800
C1701	C170	0.160530	0.121850	0.098730
H1141	H114	0.195500	0.117300	0.116800
C1711	C171	0.208350	0.127910	0.070510
C1721	C172	0.305060	0.128400	0.067880
C1731	C173	0.351980	0.129170	0.040490
C1741	C174	0.451400	0.125000	0.038030
H1151	H115	0.488700	0.124100	0.055700
C1751	C175	0.492600	0.122600	0.010750
H1161	H116	0.558700	0.120000	0.009400
C1761	C176	0.438400	0.123700	0.984100
H1171	H117	0.468800	0.121000	0.965200
C1771	C177	0.344100	0.128600	0.985150
H1181	H118	0.309100	0.130100	0.967100
C1781	C178	0.296980	0.131440	0.013530
C1791	C179	0.389250	0.201790	0.110750
H1191	H119	0.379100	0.265200	0.105500
C1801	C180	0.431100	0.078560	0.132600
H1201	H120	0.458400	0.038000	0.147000
N611	N61	0.930930	0.320870	0.949210
N621	N62	0.886030	0.444260	0.976300
N631	N63	0.854630	0.363490	0.989020
N641	N64	0.640680	0.371390	0.095180
N651	N65	0.613800	0.451790	0.108870
N661	N66	0.564730	0.327180	0.134720
C1811	C181	0.930700	0.414890	0.952440
H1211	H121	0.960300	0.455900	0.938600
C1821	C182	0.881880	0.291070	0.972690
H1221	H122	0.868400	0.227600	0.977100
C1831	C183	0.799870	0.365500	0.016230
C1841	C184	0.847150	0.367390	0.043540
C1851	C185	0.945950	0.365140	0.046160
H1231	H123	0.983200	0.361000	0.028600
C1861	C186	0.988050	0.368860	0.073650
H1241	H124	0.054100	0.365600	0.075100
C1871	C187	0.933700	0.377530	0.099910
H1251	H125	0.963900	0.383000	0.118800
C1881	C188	0.839470	0.378150	0.098730
H1261	H126	0.804500	0.382700	0.116800
C1891	C189	0.791650	0.372090	0.070510
C1901	C190	0.694940	0.371600	0.067880
C1911	C191	0.648020	0.370830	0.040490
C1921	C192	0.548600	0.375000	0.038030
H1271	H127	0.511300	0.375900	0.055700
C1931	C193	0.507400	0.377400	0.010750
H1281	H128	0.441300	0.380000	0.009400
C1941	C194	0.561600	0.376300	0.984100
H1291	H129	0.531200	0.379000	0.965200
C1951	C195	0.655900	0.371400	0.985150
H1301	H130	0.690900	0.369900	0.967100
C1961	C196	0.703020	0.368560	0.013530
C1971	C197	0.610750	0.298210	0.110750
H1311	H131	0.620900	0.234800	0.105500
C1981	C198	0.568900	0.421440	0.132600
H1321	H132	0.541600	0.462000	0.147000
N671	N67	0.430930	0.820870	0.449210
N681	N68	0.386030	0.944260	0.476300
N691	N69	0.354630	0.863490	0.489020
N701	N70	0.140680	0.871390	0.595180
N711	N71	0.113800	0.951790	0.608870
N721	N72	0.064730	0.827180	0.634720
C1991	C199	0.430700	0.914890	0.452440
H1331	H133	0.460300	0.955900	0.438600
C2001	C200	0.381880	0.791070	0.472690
H1341	H134	0.368400	0.727600	0.477100
C2011	C201	0.299870	0.865500	0.516230
C2021	C202	0.347150	0.867390	0.543540
C2031	C203	0.445950	0.865140	0.546160
H1351	H135	0.483200	0.861000	0.528600
C2041	C204	0.488050	0.868860	0.573650
H1361	H136	0.554100	0.865600	0.575100
C2051	C205	0.433700	0.877530	0.599910
H1371	H137	0.463900	0.883000	0.618800
C2061	C206	0.339470	0.878150	0.598730
H1381	H138	0.304500	0.882700	0.616800
C2071	C207	0.291650	0.872090	0.570510
C2081	C208	0.194940	0.871600	0.567880
C2091	C209	0.148020	0.870830	0.540490
C2101	C210	0.048600	0.875000	0.538030
H1391	H139	0.011300	0.875900	0.555700
C2111	C211	0.007400	0.877400	0.510750
H1401	H140	0.941300	0.880000	0.509400
C2121	C212	0.061600	0.876300	0.484100
H1411	H141	0.031200	0.879000	0.465200
C2131	C213	0.155900	0.871400	0.485150
H1421	H142	0.190900	0.869900	0.467100
C2141	C214	0.203020	0.868560	0.513530
C2151	C215	0.110750	0.798210	0.610750
H1431	H143	0.120900	0.734800	0.605500
C2161	C216	0.068900	0.921440	0.632600
H1441	H144	0.041600	0.962000	0.647000
N731	N73	0.570870	0.319070	0.199210
N741	N74	0.694260	0.363970	0.226300
N751	N75	0.613490	0.395370	0.239020
N761	N76	0.621390	0.609320	0.345180
N771	N77	0.701790	0.636200	0.358870
N781	N78	0.577180	0.685270	0.384720
C2171	C217	0.664890	0.319300	0.202440
H1451	H145	0.705900	0.289700	0.188600
C2181	C218	0.541070	0.368120	0.222690
H1461	H146	0.477600	0.381600	0.227100
C2191	C219	0.615500	0.450130	0.266230
C2201	C220	0.617390	0.402850	0.293540
C2211	C221	0.615140	0.304050	0.296160
H1471	H147	0.611000	0.266800	0.278600
C2221	C222	0.618860	0.261950	0.323650
H1481	H148	0.615600	0.195900	0.325100
C2231	C223	0.627530	0.316300	0.349910
H1491	H149	0.633000	0.286100	0.368800
C2241	C224	0.628150	0.410530	0.348730
H1501	H150	0.632700	0.445500	0.366800
C2251	C225	0.622090	0.458350	0.320510
C2261	C226	0.621600	0.555060	0.317880
C2271	C227	0.620830	0.601980	0.290490
C2281	C228	0.625000	0.701400	0.288030
H1511	H151	0.625900	0.738700	0.305700
C2291	C229	0.627400	0.742600	0.260750
H1521	H152	0.630000	0.808700	0.259400
C2301	C230	0.626300	0.688400	0.234100
H1531	H153	0.629000	0.718800	0.215200
C2311	C231	0.621400	0.594100	0.235150
H1541	H154	0.619900	0.559100	0.217100
C2321	C232	0.618560	0.546980	0.263530
C2331	C233	0.548210	0.639250	0.360750
H1551	H155	0.484800	0.629100	0.355500
C2341	C234	0.671440	0.681100	0.382600
H1561	H156	0.712000	0.708400	0.397000
N791	N79	0.070870	0.819070	0.699210
N801	N80	0.194260	0.863970	0.726300
N811	N81	0.113490	0.895370	0.739020
N821	N82	0.121390	0.109320	0.845180
N831	N83	0.201790	0.136200	0.858870
N841	N84	0.077180	0.185270	0.884720
C2351	C235	0.164890	0.819300	0.702440
H1571	H157	0.205900	0.789700	0.688600
C2361	C236	0.041070	0.868120	0.722690
H1581	H158	0.977600	0.881600	0.727100
C2371	C237	0.115500	0.950130	0.766230
C2381	C238	0.117390	0.902850	0.793540
C2391	C239	0.115140	0.804050	0.796160
H1591	H159	0.111000	0.766800	0.778600
C2401	C240	0.118860	0.761950	0.823650
H1601	H160	0.115600	0.695900	0.825100
C2411	C241	0.127530	0.816300	0.849910
H1611	H161	0.133000	0.786100	0.868800
C2421	C242	0.128150	0.910530	0.848730
H1621	H162	0.132700	0.945500	0.866800
C2431	C243	0.122090	0.958350	0.820510
C2441	C244	0.121600	0.055060	0.817880
C2451	C245	0.120830	0.101980	0.790490
C2461	C246	0.125000	0.201400	0.788030
H1631	H163	0.125900	0.238700	0.805700
C2471	C247	0.127400	0.242600	0.760750
H1641	H164	0.130000	0.308700	0.759400
C2481	C248	0.126300	0.188400	0.734100
H1651	H165	0.129000	0.218800	0.715200
C2491	C249	0.121400	0.094100	0.735150
H1661	H166	0.119900	0.059100	0.717100
C2501	C250	0.118560	0.046980	0.763530
C2511	C251	0.048210	0.139250	0.860750
H1671	H167	0.984800	0.129100	0.855500
C2521	C252	0.171440	0.181100	0.882600
H1681	H168	0.212000	0.208400	0.897000
N851	N85	0.929130	0.680930	0.699210
N861	N86	0.805740	0.636030	0.726300
N871	N87	0.886510	0.604630	0.739020
N881	N88	0.878610	0.390680	0.845180
N891	N89	0.798210	0.363800	0.858870
N901	N90	0.922820	0.314730	0.884720
C2531	C253	0.835110	0.680700	0.702440
H1691	H169	0.794100	0.710300	0.688600
C2541	C254	0.958930	0.631880	0.722690
H1701	H170	0.022400	0.618400	0.727100
C2551	C255	0.884500	0.549870	0.766230
C2561	C256	0.882610	0.597150	0.793540
C2571	C257	0.884860	0.695950	0.796160
H1711	H171	0.889000	0.733200	0.778600
C2581	C258	0.881140	0.738050	0.823650
H1721	H172	0.884400	0.804100	0.825100
C2591	C259	0.872470	0.683700	0.849910
H1731	H173	0.867000	0.713900	0.868800
C2601	C260	0.871850	0.589470	0.848730
H1741	H174	0.867300	0.554500	0.866800
C2611	C261	0.877910	0.541650	0.820510
C2621	C262	0.878400	0.444940	0.817880
C2631	C263	0.879170	0.398020	0.790490
C2641	C264	0.875000	0.298600	0.788030
H1751	H175	0.874100	0.261300	0.805700
C2651	C265	0.872600	0.257400	0.760750
H1761	H176	0.870000	0.191300	0.759400
C2661	C266	0.873700	0.311600	0.734100
H1771	H177	0.871000	0.281200	0.715200
C2671	C267	0.878600	0.405900	0.735150
H1781	H178	0.880100	0.440900	0.717100
C2681	C268	0.881440	0.453020	0.763530
C2691	C269	0.951790	0.360750	0.860750
H1791	H179	0.015200	0.370900	0.855500
C2701	C270	0.828560	0.318900	0.882600
H1801	H180	0.788000	0.291600	0.897000
N911	N91	0.429130	0.180930	0.199210
N921	N92	0.305740	0.136030	0.226300
N931	N93	0.386510	0.104630	0.239020
N941	N94	0.378610	0.890680	0.345180
N951	N95	0.298210	0.863800	0.358870
N961	N96	0.422820	0.814730	0.384720
C2711	C271	0.335110	0.180700	0.202440
H1811	H181	0.294100	0.210300	0.188600
C2721	C272	0.458930	0.131880	0.222690
H1821	H182	0.522400	0.118400	0.227100
C2731	C273	0.384500	0.049870	0.266230
C2741	C274	0.382610	0.097150	0.293540
C2751	C275	0.384860	0.195950	0.296160
H1831	H183	0.389000	0.233200	0.278600
C2761	C276	0.381140	0.238050	0.323650
H1841	H184	0.384400	0.304100	0.325100
C2771	C277	0.372470	0.183700	0.349910
H1851	H185	0.367000	0.213900	0.368800
C2781	C278	0.371850	0.089470	0.348730
H1861	H186	0.367300	0.054500	0.366800
C2791	C279	0.377910	0.041650	0.320510
C2801	C280	0.378400	0.944940	0.317880
C2811	C281	0.379170	0.898020	0.290490
C2821	C282	0.375000	0.798600	0.288030
H1871	H187	0.374100	0.761300	0.305700
C2831	C283	0.372600	0.757400	0.260750
H1881	H188	0.370000	0.691300	0.259400
C2841	C284	0.373700	0.811600	0.234100
H1891	H189	0.371000	0.781200	0.215200
C2851	C285	0.378600	0.905900	0.235150
H1901	H190	0.380100	0.940900	0.217100
C2861	C286	0.381440	0.953020	0.263530
C2871	C287	0.451790	0.860750	0.360750
H1911	H191	0.515200	0.870900	0.355500
C2881	C288	0.328560	0.818900	0.382600
H1921	H192	0.288000	0.791600	0.397000
Cu51	Cu5	0.500000	0.750000	0.416710
Cu61	Cu6	0.000000	0.250000	0.916710
Cu71	Cu7	0.500000	0.250000	0.166710
Cu81	Cu8	0.000000	0.750000	0.666710
