data_KOMCOG_clean_PM
_symmetry_space_group_name_H-M	'P1'
_cell_length_a	28.470000
_cell_length_b	27.784000
_cell_length_c	9.255000
_cell_angle_alpha	90.000000
_cell_angle_beta	90.000000
_cell_angle_gamma	90.000000
_symmetry_Int_Tables_number 1

loop_
_symmetry_equiv_pos_as_xyz
'x,y,z'

loop_
_atom_site_label
_atom_site_type_symbol
_atom_site_fract_x
_atom_site_fract_y
_atom_site_fract_z
Cl11	Cl1	0.316770	0.499240	0.892900
Zn11	Zn1	0.364970	0.492060	0.081320
C11	C1	0.455630	0.542150	0.137200
H11	H1	0.458700	0.528100	0.227900
C21	C2	0.430670	0.559700	0.928300
H21	H2	0.412900	0.560000	0.844000
C31	C3	0.468480	0.586500	0.952200
H31	H3	0.481600	0.609000	0.889900
C41	C4	0.523360	0.595720	0.163800
C51	C5	0.552380	0.567720	0.246000
H41	H4	0.548100	0.534500	0.248200
C61	C6	0.587570	0.588260	0.324900
H51	H5	0.606800	0.568800	0.381500
C71	C7	0.595180	0.637280	0.322200
C81	C8	0.566160	0.665020	0.235300
H61	H6	0.571200	0.698000	0.229200
C91	C9	0.530220	0.644520	0.158100
H71	H7	0.510600	0.663700	0.102100
C101	C10	0.796620	0.540900	0.726500
H81	H8	0.777100	0.547600	0.804600
C111	C11	0.853900	0.515800	0.599100
H91	H9	0.882200	0.501600	0.572200
C121	C12	0.824280	0.537900	0.510300
H101	H10	0.827800	0.541700	0.411000
C131	C13	0.748300	0.581090	0.541400
C141	C14	0.724860	0.611140	0.636800
H111	H11	0.735100	0.614200	0.731800
C151	C15	0.686420	0.636230	0.589300
H121	H12	0.670500	0.656200	0.653300
C161	C16	0.670930	0.632440	0.448500
C171	C17	0.694760	0.603450	0.357300
H131	H13	0.685100	0.601100	0.261600
C181	C18	0.733070	0.577200	0.403200
H141	H14	0.748500	0.556800	0.339200
C191	C19	0.631040	0.885730	0.565300
H151	H15	0.655200	0.885000	0.497500
C201	C20	0.580300	0.910250	0.718000
H161	H16	0.562700	0.930500	0.777000
C211	C21	0.575690	0.862600	0.709900
H171	H17	0.554300	0.843700	0.760500
C221	C22	0.614830	0.798520	0.564500
C231	C23	0.577330	0.767140	0.566500
H181	H18	0.548500	0.776900	0.603600
C241	C24	0.582760	0.721310	0.513400
H191	H19	0.557600	0.700000	0.515400
C251	C25	0.625210	0.706790	0.457500
C261	C26	0.662610	0.738370	0.455700
H201	H20	0.691300	0.728700	0.417600
C271	C27	0.657560	0.783920	0.509800
H211	H21	0.682900	0.805000	0.509600
N11	N1	0.421900	0.531830	0.045800
N21	N2	0.484200	0.574350	0.085700
N31	N3	0.615170	0.924630	0.625300
N41	N4	0.608460	0.846960	0.612800
N51	N5	0.787830	0.554140	0.591800
N61	N6	0.836190	0.517150	0.736100
N71	N7	0.630940	0.659280	0.402900
Cl21	Cl2	0.183230	0.999240	0.607100
Zn21	Zn2	0.135030	0.992060	0.418680
C281	C28	0.044370	0.042150	0.362800
H221	H22	0.041300	0.028100	0.272100
C291	C29	0.069330	0.059700	0.571700
H231	H23	0.087100	0.060000	0.656000
C301	C30	0.031520	0.086500	0.547800
H241	H24	0.018400	0.109000	0.610100
C311	C31	0.976640	0.095720	0.336200
C321	C32	0.947620	0.067720	0.254000
H251	H25	0.951900	0.034500	0.251800
C331	C33	0.912430	0.088260	0.175100
H261	H26	0.893200	0.068800	0.118500
C341	C34	0.904820	0.137280	0.177800
C351	C35	0.933840	0.165020	0.264700
H271	H27	0.928800	0.198000	0.270800
C361	C36	0.969780	0.144520	0.341900
H281	H28	0.989400	0.163700	0.397900
C371	C37	0.703380	0.040900	0.773500
H291	H29	0.722900	0.047600	0.695400
C381	C38	0.646100	0.015800	0.900900
H301	H30	0.617800	0.001600	0.927800
C391	C39	0.675720	0.037900	0.989700
H311	H31	0.672200	0.041700	0.089000
C401	C40	0.751700	0.081090	0.958600
C411	C41	0.775140	0.111140	0.863200
H321	H32	0.764900	0.114200	0.768200
C421	C42	0.813580	0.136230	0.910700
H331	H33	0.829500	0.156200	0.846700
C431	C43	0.829070	0.132440	0.051500
C441	C44	0.805240	0.103450	0.142700
H341	H34	0.814900	0.101100	0.238400
C451	C45	0.766930	0.077200	0.096800
H351	H35	0.751500	0.056800	0.160800
C461	C46	0.868960	0.385730	0.934700
H361	H36	0.844800	0.385000	0.002500
C471	C47	0.919700	0.410250	0.782000
H371	H37	0.937300	0.430500	0.723000
C481	C48	0.924310	0.362600	0.790100
H381	H38	0.945700	0.343700	0.739500
C491	C49	0.885170	0.298520	0.935500
C501	C50	0.922670	0.267140	0.933500
H391	H39	0.951500	0.276900	0.896400
C511	C51	0.917240	0.221310	0.986600
H401	H40	0.942400	0.200000	0.984600
C521	C52	0.874790	0.206790	0.042500
C531	C53	0.837390	0.238370	0.044300
H411	H41	0.808700	0.228700	0.082400
C541	C54	0.842440	0.283920	0.990200
H421	H42	0.817100	0.305000	0.990400
N81	N8	0.078100	0.031830	0.454200
N91	N9	0.015800	0.074350	0.414300
N101	N10	0.884830	0.424630	0.874700
N111	N11	0.891540	0.346960	0.887200
N121	N12	0.712170	0.054140	0.908200
N131	N13	0.663810	0.017150	0.763900
N141	N14	0.869060	0.159280	0.097100
Cl31	Cl3	0.816770	0.499240	0.107100
Zn31	Zn3	0.864970	0.492060	0.918680
C551	C55	0.955630	0.542150	0.862800
H431	H43	0.958700	0.528100	0.772100
C561	C56	0.930670	0.559700	0.071700
H441	H44	0.912900	0.560000	0.156000
C571	C57	0.968480	0.586500	0.047800
H451	H45	0.981600	0.609000	0.110100
C581	C58	0.023360	0.595720	0.836200
C591	C59	0.052380	0.567720	0.754000
H461	H46	0.048100	0.534500	0.751800
C601	C60	0.087570	0.588260	0.675100
H471	H47	0.106800	0.568800	0.618500
C611	C61	0.095180	0.637280	0.677800
C621	C62	0.066160	0.665020	0.764700
H481	H48	0.071200	0.698000	0.770800
C631	C63	0.030220	0.644520	0.841900
H491	H49	0.010600	0.663700	0.897900
C641	C64	0.296620	0.540900	0.273500
H501	H50	0.277100	0.547600	0.195400
C651	C65	0.353900	0.515800	0.400900
H511	H51	0.382200	0.501600	0.427800
C661	C66	0.324280	0.537900	0.489700
H521	H52	0.327800	0.541700	0.589000
C671	C67	0.248300	0.581090	0.458600
C681	C68	0.224860	0.611140	0.363200
H531	H53	0.235100	0.614200	0.268200
C691	C69	0.186420	0.636230	0.410700
H541	H54	0.170500	0.656200	0.346700
C701	C70	0.170930	0.632440	0.551500
C711	C71	0.194760	0.603450	0.642700
H551	H55	0.185100	0.601100	0.738400
C721	C72	0.233070	0.577200	0.596800
H561	H56	0.248500	0.556800	0.660800
C731	C73	0.131040	0.885730	0.434700
H571	H57	0.155200	0.885000	0.502500
C741	C74	0.080300	0.910250	0.282000
H581	H58	0.062700	0.930500	0.223000
C751	C75	0.075690	0.862600	0.290100
H591	H59	0.054300	0.843700	0.239500
C761	C76	0.114830	0.798520	0.435500
C771	C77	0.077330	0.767140	0.433500
H601	H60	0.048500	0.776900	0.396400
C781	C78	0.082760	0.721310	0.486600
H611	H61	0.057600	0.700000	0.484600
C791	C79	0.125210	0.706790	0.542500
C801	C80	0.162610	0.738370	0.544300
H621	H62	0.191300	0.728700	0.582400
C811	C81	0.157560	0.783920	0.490200
H631	H63	0.182900	0.805000	0.490400
N151	N15	0.921900	0.531830	0.954200
N161	N16	0.984200	0.574350	0.914300
N171	N17	0.115170	0.924630	0.374700
N181	N18	0.108460	0.846960	0.387200
N191	N19	0.287830	0.554140	0.408200
N201	N20	0.336190	0.517150	0.263900
N211	N21	0.130940	0.659280	0.597100
Cl41	Cl4	0.683230	0.999240	0.392900
Zn41	Zn4	0.635030	0.992060	0.581320
C821	C82	0.544370	0.042150	0.637200
H641	H64	0.541300	0.028100	0.727900
C831	C83	0.569330	0.059700	0.428300
H651	H65	0.587100	0.060000	0.344000
C841	C84	0.531520	0.086500	0.452200
H661	H66	0.518400	0.109000	0.389900
C851	C85	0.476640	0.095720	0.663800
C861	C86	0.447620	0.067720	0.746000
H671	H67	0.451900	0.034500	0.748200
C871	C87	0.412430	0.088260	0.824900
H681	H68	0.393200	0.068800	0.881500
C881	C88	0.404820	0.137280	0.822200
C891	C89	0.433840	0.165020	0.735300
H691	H69	0.428800	0.198000	0.729200
C901	C90	0.469780	0.144520	0.658100
H701	H70	0.489400	0.163700	0.602100
C911	C91	0.203380	0.040900	0.226500
H711	H71	0.222900	0.047600	0.304600
C921	C92	0.146100	0.015800	0.099100
H721	H72	0.117800	0.001600	0.072200
C931	C93	0.175720	0.037900	0.010300
H731	H73	0.172200	0.041700	0.911000
C941	C94	0.251700	0.081090	0.041400
C951	C95	0.275140	0.111140	0.136800
H741	H74	0.264900	0.114200	0.231800
C961	C96	0.313580	0.136230	0.089300
H751	H75	0.329500	0.156200	0.153300
C971	C97	0.329070	0.132440	0.948500
C981	C98	0.305240	0.103450	0.857300
H761	H76	0.314900	0.101100	0.761600
C991	C99	0.266930	0.077200	0.903200
H771	H77	0.251500	0.056800	0.839200
C1001	C100	0.368960	0.385730	0.065300
H781	H78	0.344800	0.385000	0.997500
C1011	C101	0.419700	0.410250	0.218000
H791	H79	0.437300	0.430500	0.277000
C1021	C102	0.424310	0.362600	0.209900
H801	H80	0.445700	0.343700	0.260500
C1031	C103	0.385170	0.298520	0.064500
C1041	C104	0.422670	0.267140	0.066500
H811	H81	0.451500	0.276900	0.103600
C1051	C105	0.417240	0.221310	0.013400
H821	H82	0.442400	0.200000	0.015400
C1061	C106	0.374790	0.206790	0.957500
C1071	C107	0.337390	0.238370	0.955700
H831	H83	0.308700	0.228700	0.917600
C1081	C108	0.342440	0.283920	0.009800
H841	H84	0.317100	0.305000	0.009600
N221	N22	0.578100	0.031830	0.545800
N231	N23	0.515800	0.074350	0.585700
N241	N24	0.384830	0.424630	0.125300
N251	N25	0.391540	0.346960	0.112800
N261	N26	0.212170	0.054140	0.091800
N271	N27	0.163810	0.017150	0.236100
N281	N28	0.369060	0.159280	0.902900
Cl51	Cl5	0.183230	0.500760	0.892900
Zn51	Zn5	0.135030	0.507940	0.081320
C1091	C109	0.044370	0.457850	0.137200
H851	H85	0.041300	0.471900	0.227900
C1101	C110	0.069330	0.440300	0.928300
H861	H86	0.087100	0.440000	0.844000
C1111	C111	0.031520	0.413500	0.952200
H871	H87	0.018400	0.391000	0.889900
C1121	C112	0.976640	0.404280	0.163800
C1131	C113	0.947620	0.432280	0.246000
H881	H88	0.951900	0.465500	0.248200
C1141	C114	0.912430	0.411740	0.324900
H891	H89	0.893200	0.431200	0.381500
C1151	C115	0.904820	0.362720	0.322200
C1161	C116	0.933840	0.334980	0.235300
H901	H90	0.928800	0.302000	0.229200
C1171	C117	0.969780	0.355480	0.158100
H911	H91	0.989400	0.336300	0.102100
C1181	C118	0.703380	0.459100	0.726500
H921	H92	0.722900	0.452400	0.804600
C1191	C119	0.646100	0.484200	0.599100
H931	H93	0.617800	0.498400	0.572200
C1201	C120	0.675720	0.462100	0.510300
H941	H94	0.672200	0.458300	0.411000
C1211	C121	0.751700	0.418910	0.541400
C1221	C122	0.775140	0.388860	0.636800
H951	H95	0.764900	0.385800	0.731800
C1231	C123	0.813580	0.363770	0.589300
H961	H96	0.829500	0.343800	0.653300
C1241	C124	0.829070	0.367560	0.448500
C1251	C125	0.805240	0.396550	0.357300
H971	H97	0.814900	0.398900	0.261600
C1261	C126	0.766930	0.422800	0.403200
H981	H98	0.751500	0.443200	0.339200
C1271	C127	0.868960	0.114270	0.565300
H991	H99	0.844800	0.115000	0.497500
C1281	C128	0.919700	0.089750	0.718000
H1001	H100	0.937300	0.069500	0.777000
C1291	C129	0.924310	0.137400	0.709900
H1011	H101	0.945700	0.156300	0.760500
C1301	C130	0.885170	0.201480	0.564500
C1311	C131	0.922670	0.232860	0.566500
H1021	H102	0.951500	0.223100	0.603600
C1321	C132	0.917240	0.278690	0.513400
H1031	H103	0.942400	0.300000	0.515400
C1331	C133	0.874790	0.293210	0.457500
C1341	C134	0.837390	0.261630	0.455700
H1041	H104	0.808700	0.271300	0.417600
C1351	C135	0.842440	0.216080	0.509800
H1051	H105	0.817100	0.195000	0.509600
N291	N29	0.078100	0.468170	0.045800
N301	N30	0.015800	0.425650	0.085700
N311	N31	0.884830	0.075370	0.625300
N321	N32	0.891540	0.153040	0.612800
N331	N33	0.712170	0.445860	0.591800
N341	N34	0.663810	0.482850	0.736100
N351	N35	0.869060	0.340720	0.402900
Cl61	Cl6	0.316770	0.000760	0.607100
Zn61	Zn6	0.364970	0.007940	0.418680
C1361	C136	0.455630	0.957850	0.362800
H1061	H106	0.458700	0.971900	0.272100
C1371	C137	0.430670	0.940300	0.571700
H1071	H107	0.412900	0.940000	0.656000
C1381	C138	0.468480	0.913500	0.547800
H1081	H108	0.481600	0.891000	0.610100
C1391	C139	0.523360	0.904280	0.336200
C1401	C140	0.552380	0.932280	0.254000
H1091	H109	0.548100	0.965500	0.251800
C1411	C141	0.587570	0.911740	0.175100
H1101	H110	0.606800	0.931200	0.118500
C1421	C142	0.595180	0.862720	0.177800
C1431	C143	0.566160	0.834980	0.264700
H1111	H111	0.571200	0.802000	0.270800
C1441	C144	0.530220	0.855480	0.341900
H1121	H112	0.510600	0.836300	0.397900
C1451	C145	0.796620	0.959100	0.773500
H1131	H113	0.777100	0.952400	0.695400
C1461	C146	0.853900	0.984200	0.900900
H1141	H114	0.882200	0.998400	0.927800
C1471	C147	0.824280	0.962100	0.989700
H1151	H115	0.827800	0.958300	0.089000
C1481	C148	0.748300	0.918910	0.958600
C1491	C149	0.724860	0.888860	0.863200
H1161	H116	0.735100	0.885800	0.768200
C1501	C150	0.686420	0.863770	0.910700
H1171	H117	0.670500	0.843800	0.846700
C1511	C151	0.670930	0.867560	0.051500
C1521	C152	0.694760	0.896550	0.142700
H1181	H118	0.685100	0.898900	0.238400
C1531	C153	0.733070	0.922800	0.096800
H1191	H119	0.748500	0.943200	0.160800
C1541	C154	0.631040	0.614270	0.934700
H1201	H120	0.655200	0.615000	0.002500
C1551	C155	0.580300	0.589750	0.782000
H1211	H121	0.562700	0.569500	0.723000
C1561	C156	0.575690	0.637400	0.790100
H1221	H122	0.554300	0.656300	0.739500
C1571	C157	0.614830	0.701480	0.935500
C1581	C158	0.577330	0.732860	0.933500
H1231	H123	0.548500	0.723100	0.896400
C1591	C159	0.582760	0.778690	0.986600
H1241	H124	0.557600	0.800000	0.984600
C1601	C160	0.625210	0.793210	0.042500
C1611	C161	0.662610	0.761630	0.044300
H1251	H125	0.691300	0.771300	0.082400
C1621	C162	0.657560	0.716080	0.990200
H1261	H126	0.682900	0.695000	0.990400
N361	N36	0.421900	0.968170	0.454200
N371	N37	0.484200	0.925650	0.414300
N381	N38	0.615170	0.575370	0.874700
N391	N39	0.608460	0.653040	0.887200
N401	N40	0.787830	0.945860	0.908200
N411	N41	0.836190	0.982850	0.763900
N421	N42	0.630940	0.840720	0.097100
Cl71	Cl7	0.683230	0.500760	0.107100
Zn71	Zn7	0.635030	0.507940	0.918680
C1631	C163	0.544370	0.457850	0.862800
H1271	H127	0.541300	0.471900	0.772100
C1641	C164	0.569330	0.440300	0.071700
H1281	H128	0.587100	0.440000	0.156000
C1651	C165	0.531520	0.413500	0.047800
H1291	H129	0.518400	0.391000	0.110100
C1661	C166	0.476640	0.404280	0.836200
C1671	C167	0.447620	0.432280	0.754000
H1301	H130	0.451900	0.465500	0.751800
C1681	C168	0.412430	0.411740	0.675100
H1311	H131	0.393200	0.431200	0.618500
C1691	C169	0.404820	0.362720	0.677800
C1701	C170	0.433840	0.334980	0.764700
H1321	H132	0.428800	0.302000	0.770800
C1711	C171	0.469780	0.355480	0.841900
H1331	H133	0.489400	0.336300	0.897900
C1721	C172	0.203380	0.459100	0.273500
H1341	H134	0.222900	0.452400	0.195400
C1731	C173	0.146100	0.484200	0.400900
H1351	H135	0.117800	0.498400	0.427800
C1741	C174	0.175720	0.462100	0.489700
H1361	H136	0.172200	0.458300	0.589000
C1751	C175	0.251700	0.418910	0.458600
C1761	C176	0.275140	0.388860	0.363200
H1371	H137	0.264900	0.385800	0.268200
C1771	C177	0.313580	0.363770	0.410700
H1381	H138	0.329500	0.343800	0.346700
C1781	C178	0.329070	0.367560	0.551500
C1791	C179	0.305240	0.396550	0.642700
H1391	H139	0.314900	0.398900	0.738400
C1801	C180	0.266930	0.422800	0.596800
H1401	H140	0.251500	0.443200	0.660800
C1811	C181	0.368960	0.114270	0.434700
H1411	H141	0.344800	0.115000	0.502500
C1821	C182	0.419700	0.089750	0.282000
H1421	H142	0.437300	0.069500	0.223000
C1831	C183	0.424310	0.137400	0.290100
H1431	H143	0.445700	0.156300	0.239500
C1841	C184	0.385170	0.201480	0.435500
C1851	C185	0.422670	0.232860	0.433500
H1441	H144	0.451500	0.223100	0.396400
C1861	C186	0.417240	0.278690	0.486600
H1451	H145	0.442400	0.300000	0.484600
C1871	C187	0.374790	0.293210	0.542500
C1881	C188	0.337390	0.261630	0.544300
H1461	H146	0.308700	0.271300	0.582400
C1891	C189	0.342440	0.216080	0.490200
H1471	H147	0.317100	0.195000	0.490400
N431	N43	0.578100	0.468170	0.954200
N441	N44	0.515800	0.425650	0.914300
N451	N45	0.384830	0.075370	0.374700
N461	N46	0.391540	0.153040	0.387200
N471	N47	0.212170	0.445860	0.408200
N481	N48	0.163810	0.482850	0.263900
N491	N49	0.369060	0.340720	0.597100
Cl81	Cl8	0.816770	0.000760	0.392900
Zn81	Zn8	0.864970	0.007940	0.581320
C1901	C190	0.955630	0.957850	0.637200
H1481	H148	0.958700	0.971900	0.727900
C1911	C191	0.930670	0.940300	0.428300
H1491	H149	0.912900	0.940000	0.344000
C1921	C192	0.968480	0.913500	0.452200
H1501	H150	0.981600	0.891000	0.389900
C1931	C193	0.023360	0.904280	0.663800
C1941	C194	0.052380	0.932280	0.746000
H1511	H151	0.048100	0.965500	0.748200
C1951	C195	0.087570	0.911740	0.824900
H1521	H152	0.106800	0.931200	0.881500
C1961	C196	0.095180	0.862720	0.822200
C1971	C197	0.066160	0.834980	0.735300
H1531	H153	0.071200	0.802000	0.729200
C1981	C198	0.030220	0.855480	0.658100
H1541	H154	0.010600	0.836300	0.602100
C1991	C199	0.296620	0.959100	0.226500
H1551	H155	0.277100	0.952400	0.304600
C2001	C200	0.353900	0.984200	0.099100
H1561	H156	0.382200	0.998400	0.072200
C2011	C201	0.324280	0.962100	0.010300
H1571	H157	0.327800	0.958300	0.911000
C2021	C202	0.248300	0.918910	0.041400
C2031	C203	0.224860	0.888860	0.136800
H1581	H158	0.235100	0.885800	0.231800
C2041	C204	0.186420	0.863770	0.089300
H1591	H159	0.170500	0.843800	0.153300
C2051	C205	0.170930	0.867560	0.948500
C2061	C206	0.194760	0.896550	0.857300
H1601	H160	0.185100	0.898900	0.761600
C2071	C207	0.233070	0.922800	0.903200
H1611	H161	0.248500	0.943200	0.839200
C2081	C208	0.131040	0.614270	0.065300
H1621	H162	0.155200	0.615000	0.997500
C2091	C209	0.080300	0.589750	0.218000
H1631	H163	0.062700	0.569500	0.277000
C2101	C210	0.075690	0.637400	0.209900
H1641	H164	0.054300	0.656300	0.260500
C2111	C211	0.114830	0.701480	0.064500
C2121	C212	0.077330	0.732860	0.066500
H1651	H165	0.048500	0.723100	0.103600
C2131	C213	0.082760	0.778690	0.013400
H1661	H166	0.057600	0.800000	0.015400
C2141	C214	0.125210	0.793210	0.957500
C2151	C215	0.162610	0.761630	0.955700
H1671	H167	0.191300	0.771300	0.917600
C2161	C216	0.157560	0.716080	0.009800
H1681	H168	0.182900	0.695000	0.009600
N501	N50	0.921900	0.968170	0.545800
N511	N51	0.984200	0.925650	0.585700
N521	N52	0.115170	0.575370	0.125300
N531	N53	0.108460	0.653040	0.112800
N541	N54	0.287830	0.945860	0.091800
N551	N55	0.336190	0.982850	0.236100
N561	N56	0.130940	0.840720	0.902900
