data_KOMFUO_clean_PM
_symmetry_space_group_name_H-M	'P1'
_cell_length_a	10.646600
_cell_length_b	12.050200
_cell_length_c	12.792600
_cell_angle_alpha	90.000000
_cell_angle_beta	92.320000
_cell_angle_gamma	90.000000
_symmetry_Int_Tables_number 1

loop_
_symmetry_equiv_pos_as_xyz
'x,y,z'

loop_
_atom_site_label
_atom_site_type_symbol
_atom_site_fract_x
_atom_site_fract_y
_atom_site_fract_z
Cu11	Cu1	0.122990	0.629730	0.495200
N11	N1	0.138000	0.780600	0.429820
N21	N2	0.068000	0.873100	0.454500
N31	N3	0.207400	0.919200	0.343460
N41	N4	0.283500	0.980100	0.280050
N51	N5	0.439000	0.080900	0.229010
N61	N6	0.353900	0.061400	0.145410
N71	N7	0.152000	0.481190	0.563600
N81	N8	0.091700	0.381980	0.536560
N91	N9	0.236800	0.351800	0.656790
N101	N10	0.313800	0.296100	0.728260
N111	N11	0.468700	0.199900	0.795200
N121	N12	0.372700	0.202900	0.864750
C11	C1	0.220500	0.810000	0.363900
H11	H1	0.279400	0.763300	0.335100
C21	C2	0.111800	0.955300	0.402000
H21	H2	0.082400	0.027900	0.404000
C31	C3	0.394700	0.030700	0.309100
H31	H3	0.432500	0.029200	0.376000
C41	C4	0.262100	0.001600	0.177500
H41	H4	0.193000	0.977600	0.136700
C51	C5	0.238700	0.461000	0.635500
H51	H5	0.292700	0.513000	0.666700
C61	C6	0.145600	0.305200	0.593800
H61	H6	0.125000	0.230200	0.591900
C71	C7	0.430000	0.255700	0.713700
H71	H7	0.475500	0.266300	0.654000
C81	C8	0.280500	0.260200	0.822700
H81	H8	0.204100	0.274200	0.852900
Cu21	Cu2	0.377010	0.129730	0.004800
N131	N13	0.362000	0.280600	0.070180
N141	N14	0.432000	0.373100	0.045500
N151	N15	0.292600	0.419200	0.156540
N161	N16	0.216500	0.480100	0.219950
N171	N17	0.061000	0.580900	0.270990
N181	N18	0.146100	0.561400	0.354590
N191	N19	0.348000	0.981190	0.936400
N201	N20	0.408300	0.881980	0.963440
N211	N21	0.263200	0.851800	0.843210
N221	N22	0.186200	0.796100	0.771740
N231	N23	0.031300	0.699900	0.704800
N241	N24	0.127300	0.702900	0.635250
C91	C9	0.279500	0.310000	0.136100
H91	H9	0.220600	0.263300	0.164900
C101	C10	0.388200	0.455300	0.098000
H101	H10	0.417600	0.527900	0.096000
C111	C11	0.105300	0.530700	0.190900
H111	H11	0.067500	0.529200	0.124000
C121	C12	0.237900	0.501600	0.322500
H121	H12	0.307000	0.477600	0.363300
C131	C13	0.261300	0.961000	0.864500
H131	H13	0.207300	0.013000	0.833300
C141	C14	0.354400	0.805200	0.906200
H141	H14	0.375000	0.730200	0.908100
C151	C15	0.070000	0.755700	0.786300
H151	H15	0.024500	0.766300	0.846000
C161	C16	0.219500	0.760200	0.677300
H161	H16	0.295900	0.774200	0.647100
Cu31	Cu3	0.877010	0.370270	0.504800
N251	N25	0.862000	0.219400	0.570180
N261	N26	0.932000	0.126900	0.545500
N271	N27	0.792600	0.080800	0.656540
N281	N28	0.716500	0.019900	0.719950
N291	N29	0.561000	0.919100	0.770990
N301	N30	0.646100	0.938600	0.854590
N311	N31	0.848000	0.518810	0.436400
N321	N32	0.908300	0.618020	0.463440
N331	N33	0.763200	0.648200	0.343210
N341	N34	0.686200	0.703900	0.271740
N351	N35	0.531300	0.800100	0.204800
N361	N36	0.627300	0.797100	0.135250
C171	C17	0.779500	0.190000	0.636100
H171	H17	0.720600	0.236700	0.664900
C181	C18	0.888200	0.044700	0.598000
H181	H18	0.917600	0.972100	0.596000
C191	C19	0.605300	0.969300	0.690900
H191	H19	0.567500	0.970800	0.624000
C201	C20	0.737900	0.998400	0.822500
H201	H20	0.807000	0.022400	0.863300
C211	C21	0.761300	0.539000	0.364500
H211	H21	0.707300	0.487000	0.333300
C221	C22	0.854400	0.694800	0.406200
H221	H22	0.875000	0.769800	0.408100
C231	C23	0.570000	0.744300	0.286300
H231	H23	0.524500	0.733700	0.346000
C241	C24	0.719500	0.739800	0.177300
H241	H24	0.795900	0.725800	0.147100
Cu41	Cu4	0.622990	0.870270	0.995200
N371	N37	0.638000	0.719400	0.929820
N381	N38	0.568000	0.626900	0.954500
N391	N39	0.707400	0.580800	0.843460
N401	N40	0.783500	0.519900	0.780050
N411	N41	0.939000	0.419100	0.729010
N421	N42	0.853900	0.438600	0.645410
N431	N43	0.652000	0.018810	0.063600
N441	N44	0.591700	0.118020	0.036560
N451	N45	0.736800	0.148200	0.156790
N461	N46	0.813800	0.203900	0.228260
N471	N47	0.968700	0.300100	0.295200
N481	N48	0.872700	0.297100	0.364750
C251	C25	0.720500	0.690000	0.863900
H251	H25	0.779400	0.736700	0.835100
C261	C26	0.611800	0.544700	0.902000
H261	H26	0.582400	0.472100	0.904000
C271	C27	0.894700	0.469300	0.809100
H271	H27	0.932500	0.470800	0.876000
C281	C28	0.762100	0.498400	0.677500
H281	H28	0.693000	0.522400	0.636700
C291	C29	0.738700	0.039000	0.135500
H291	H29	0.792700	0.987000	0.166700
C301	C30	0.645600	0.194800	0.093800
H301	H30	0.625000	0.269800	0.091900
C311	C31	0.930000	0.244300	0.213700
H311	H31	0.975500	0.233700	0.154000
C321	C32	0.780500	0.239800	0.322700
H321	H32	0.704100	0.225800	0.352900
