data_KOMJED_clean_PM
_symmetry_space_group_name_H-M	'P1'
_cell_length_a	26.252200
_cell_length_b	26.252200
_cell_length_c	26.252200
_cell_angle_alpha	90.000000
_cell_angle_beta	90.000000
_cell_angle_gamma	90.000000
_symmetry_Int_Tables_number 1

loop_
_symmetry_equiv_pos_as_xyz
'x,y,z'

loop_
_atom_site_label
_atom_site_type_symbol
_atom_site_fract_x
_atom_site_fract_y
_atom_site_fract_z
O11	O1	0.008900	0.970300	0.334900
O21	O2	0.014300	0.978600	0.417400
C11	C1	0.003500	0.054600	0.367200
H11	H1	0.972900	0.065900	0.384600
H21	H2	0.032400	0.072200	0.382000
C21	C2	0.009800	0.997800	0.373700
O31	O3	0.008900	0.470300	0.834900
O41	O4	0.014300	0.478600	0.917400
C31	C3	0.003500	0.554600	0.867200
H31	H3	0.972900	0.565900	0.884600
H41	H4	0.032400	0.572200	0.882000
C41	C4	0.009800	0.497800	0.873700
O51	O5	0.508900	0.970300	0.834900
O61	O6	0.514300	0.978600	0.917400
C51	C5	0.503500	0.054600	0.867200
H51	H5	0.472900	0.065900	0.884600
H61	H6	0.532400	0.072200	0.882000
C61	C6	0.509800	0.997800	0.873700
O71	O7	0.508900	0.470300	0.334900
O81	O8	0.514300	0.478600	0.417400
C71	C7	0.503500	0.554600	0.367200
H71	H7	0.472900	0.565900	0.384600
H81	H8	0.532400	0.572200	0.382000
C81	C8	0.509800	0.497800	0.373700
O91	O9	0.241100	0.779700	0.834900
O101	O10	0.235700	0.771400	0.917400
C91	C9	0.246500	0.695400	0.867200
H91	H9	0.277100	0.684100	0.884600
H101	H10	0.217600	0.677800	0.882000
C101	C10	0.240200	0.752200	0.873700
O111	O11	0.241100	0.279700	0.334900
O121	O12	0.235700	0.271400	0.417400
C111	C11	0.246500	0.195400	0.367200
H111	H11	0.277100	0.184100	0.384600
H121	H12	0.217600	0.177800	0.382000
C121	C12	0.240200	0.252200	0.373700
O131	O13	0.741100	0.779700	0.334900
O141	O14	0.735700	0.771400	0.417400
C131	C13	0.746500	0.695400	0.367200
H131	H13	0.777100	0.684100	0.384600
H141	H14	0.717600	0.677800	0.382000
C141	C14	0.740200	0.752200	0.373700
O151	O15	0.741100	0.279700	0.834900
O161	O16	0.735700	0.271400	0.917400
C151	C15	0.746500	0.195400	0.867200
H151	H15	0.777100	0.184100	0.884600
H161	H16	0.717600	0.177800	0.882000
C161	C16	0.740200	0.252200	0.873700
O171	O17	0.741100	0.470300	0.915100
O181	O18	0.735700	0.478600	0.832600
C171	C17	0.746500	0.554600	0.882800
H171	H17	0.777100	0.565900	0.865400
H181	H18	0.717600	0.572200	0.868000
C181	C18	0.740200	0.497800	0.876300
O191	O19	0.741100	0.970300	0.415100
O201	O20	0.735700	0.978600	0.332600
C191	C19	0.746500	0.054600	0.382800
H191	H19	0.777100	0.065900	0.365400
H201	H20	0.717600	0.072200	0.368000
C201	C20	0.740200	0.997800	0.376300
O211	O21	0.241100	0.470300	0.415100
O221	O22	0.235700	0.478600	0.332600
C211	C21	0.246500	0.554600	0.382800
H211	H21	0.277100	0.565900	0.365400
H221	H22	0.217600	0.572200	0.368000
C221	C22	0.240200	0.497800	0.376300
O231	O23	0.241100	0.970300	0.915100
O241	O24	0.235700	0.978600	0.832600
C231	C23	0.246500	0.054600	0.882800
H231	H23	0.277100	0.065900	0.865400
H241	H24	0.217600	0.072200	0.868000
C241	C24	0.240200	0.997800	0.876300
O251	O25	0.508900	0.279700	0.415100
O261	O26	0.514300	0.271400	0.332600
C251	C25	0.503500	0.195400	0.382800
H251	H25	0.472900	0.184100	0.365400
H261	H26	0.532400	0.177800	0.368000
C261	C26	0.509800	0.252200	0.376300
O271	O27	0.508900	0.779700	0.915100
O281	O28	0.514300	0.771400	0.832600
C271	C27	0.503500	0.695400	0.882800
H271	H27	0.472900	0.684100	0.865400
H281	H28	0.532400	0.677800	0.868000
C281	C28	0.509800	0.752200	0.876300
O291	O29	0.008900	0.279700	0.915100
O301	O30	0.014300	0.271400	0.832600
C291	C29	0.003500	0.195400	0.882800
H291	H29	0.972900	0.184100	0.865400
H301	H30	0.032400	0.177800	0.868000
C301	C30	0.009800	0.252200	0.876300
O311	O31	0.008900	0.779700	0.415100
O321	O32	0.014300	0.771400	0.332600
C311	C31	0.003500	0.695400	0.382800
H311	H31	0.972900	0.684100	0.365400
H321	H32	0.032400	0.677800	0.368000
C321	C32	0.009800	0.752200	0.376300
O331	O33	0.334900	0.008900	0.970300
O341	O34	0.417400	0.014300	0.978600
C331	C33	0.367200	0.003500	0.054600
H331	H33	0.384600	0.972900	0.065900
H341	H34	0.382000	0.032400	0.072200
C341	C34	0.373700	0.009800	0.997800
O351	O35	0.334900	0.508900	0.470300
O361	O36	0.417400	0.514300	0.478600
C351	C35	0.367200	0.503500	0.554600
H351	H35	0.384600	0.472900	0.565900
H361	H36	0.382000	0.532400	0.572200
C361	C36	0.373700	0.509800	0.497800
O371	O37	0.834900	0.008900	0.470300
O381	O38	0.917400	0.014300	0.478600
C371	C37	0.867200	0.003500	0.554600
H371	H37	0.884600	0.972900	0.565900
H381	H38	0.882000	0.032400	0.572200
C381	C38	0.873700	0.009800	0.497800
O391	O39	0.834900	0.508900	0.970300
O401	O40	0.917400	0.514300	0.978600
C391	C39	0.867200	0.503500	0.054600
H391	H39	0.884600	0.472900	0.065900
H401	H40	0.882000	0.532400	0.072200
C401	C40	0.873700	0.509800	0.997800
O411	O41	0.834900	0.241100	0.779700
O421	O42	0.917400	0.235700	0.771400
C411	C41	0.867200	0.246500	0.695400
H411	H41	0.884600	0.277100	0.684100
H421	H42	0.882000	0.217600	0.677800
C421	C42	0.873700	0.240200	0.752200
O431	O43	0.834900	0.741100	0.279700
O441	O44	0.917400	0.735700	0.271400
C431	C43	0.867200	0.746500	0.195400
H431	H43	0.884600	0.777100	0.184100
H441	H44	0.882000	0.717600	0.177800
C441	C44	0.873700	0.740200	0.252200
O451	O45	0.334900	0.241100	0.279700
O461	O46	0.417400	0.235700	0.271400
C451	C45	0.367200	0.246500	0.195400
H451	H45	0.384600	0.277100	0.184100
H461	H46	0.382000	0.217600	0.177800
C461	C46	0.373700	0.240200	0.252200
O471	O47	0.334900	0.741100	0.779700
O481	O48	0.417400	0.735700	0.771400
C471	C47	0.367200	0.746500	0.695400
H471	H47	0.384600	0.777100	0.684100
H481	H48	0.382000	0.717600	0.677800
C481	C48	0.373700	0.740200	0.752200
O491	O49	0.915100	0.741100	0.470300
O501	O50	0.832600	0.735700	0.478600
C491	C49	0.882800	0.746500	0.554600
H491	H49	0.865400	0.777100	0.565900
H501	H50	0.868000	0.717600	0.572200
C501	C50	0.876300	0.740200	0.497800
O511	O51	0.915100	0.241100	0.970300
O521	O52	0.832600	0.235700	0.978600
C511	C51	0.882800	0.246500	0.054600
H511	H51	0.865400	0.277100	0.065900
H521	H52	0.868000	0.217600	0.072200
C521	C52	0.876300	0.240200	0.997800
O531	O53	0.415100	0.741100	0.970300
O541	O54	0.332600	0.735700	0.978600
C531	C53	0.382800	0.746500	0.054600
H531	H53	0.365400	0.777100	0.065900
H541	H54	0.368000	0.717600	0.072200
C541	C54	0.376300	0.740200	0.997800
O551	O55	0.415100	0.241100	0.470300
O561	O56	0.332600	0.235700	0.478600
C551	C55	0.382800	0.246500	0.554600
H551	H55	0.365400	0.277100	0.565900
H561	H56	0.368000	0.217600	0.572200
C561	C56	0.376300	0.240200	0.497800
O571	O57	0.415100	0.508900	0.279700
O581	O58	0.332600	0.514300	0.271400
C571	C57	0.382800	0.503500	0.195400
H571	H57	0.365400	0.472900	0.184100
H581	H58	0.368000	0.532400	0.177800
C581	C58	0.376300	0.509800	0.252200
O591	O59	0.415100	0.008900	0.779700
O601	O60	0.332600	0.014300	0.771400
C591	C59	0.382800	0.003500	0.695400
H591	H59	0.365400	0.972900	0.684100
H601	H60	0.368000	0.032400	0.677800
C601	C60	0.376300	0.009800	0.752200
O611	O61	0.915100	0.508900	0.779700
O621	O62	0.832600	0.514300	0.771400
C611	C61	0.882800	0.503500	0.695400
H611	H61	0.865400	0.472900	0.684100
H621	H62	0.868000	0.532400	0.677800
C621	C62	0.876300	0.509800	0.752200
O631	O63	0.915100	0.008900	0.279700
O641	O64	0.832600	0.014300	0.271400
C631	C63	0.882800	0.003500	0.195400
H631	H63	0.865400	0.972900	0.184100
H641	H64	0.868000	0.032400	0.177800
C641	C64	0.876300	0.009800	0.252200
O651	O65	0.970300	0.334900	0.008900
O661	O66	0.978600	0.417400	0.014300
C651	C65	0.054600	0.367200	0.003500
H651	H65	0.065900	0.384600	0.972900
H661	H66	0.072200	0.382000	0.032400
C661	C66	0.997800	0.373700	0.009800
O671	O67	0.970300	0.834900	0.508900
O681	O68	0.978600	0.917400	0.514300
C671	C67	0.054600	0.867200	0.503500
H671	H67	0.065900	0.884600	0.472900
H681	H68	0.072200	0.882000	0.532400
C681	C68	0.997800	0.873700	0.509800
O691	O69	0.470300	0.334900	0.508900
O701	O70	0.478600	0.417400	0.514300
C691	C69	0.554600	0.367200	0.503500
H691	H69	0.565900	0.384600	0.472900
H701	H70	0.572200	0.382000	0.532400
C701	C70	0.497800	0.373700	0.509800
O711	O71	0.470300	0.834900	0.008900
O721	O72	0.478600	0.917400	0.014300
C711	C71	0.554600	0.867200	0.003500
H711	H71	0.565900	0.884600	0.972900
H721	H72	0.572200	0.882000	0.032400
C721	C72	0.497800	0.873700	0.009800
O731	O73	0.779700	0.834900	0.241100
O741	O74	0.771400	0.917400	0.235700
C731	C73	0.695400	0.867200	0.246500
H731	H73	0.684100	0.884600	0.277100
H741	H74	0.677800	0.882000	0.217600
C741	C74	0.752200	0.873700	0.240200
O751	O75	0.779700	0.334900	0.741100
O761	O76	0.771400	0.417400	0.735700
C751	C75	0.695400	0.367200	0.746500
H751	H75	0.684100	0.384600	0.777100
H761	H76	0.677800	0.382000	0.717600
C761	C76	0.752200	0.373700	0.740200
O771	O77	0.279700	0.834900	0.741100
O781	O78	0.271400	0.917400	0.735700
C771	C77	0.195400	0.867200	0.746500
H771	H77	0.184100	0.884600	0.777100
H781	H78	0.177800	0.882000	0.717600
C781	C78	0.252200	0.873700	0.740200
O791	O79	0.279700	0.334900	0.241100
O801	O80	0.271400	0.417400	0.235700
C791	C79	0.195400	0.367200	0.246500
H791	H79	0.184100	0.384600	0.277100
H801	H80	0.177800	0.382000	0.217600
C801	C80	0.252200	0.373700	0.240200
O811	O81	0.470300	0.915100	0.741100
O821	O82	0.478600	0.832600	0.735700
C811	C81	0.554600	0.882800	0.746500
H811	H81	0.565900	0.865400	0.777100
H821	H82	0.572200	0.868000	0.717600
C821	C82	0.497800	0.876300	0.740200
O831	O83	0.470300	0.415100	0.241100
O841	O84	0.478600	0.332600	0.235700
C831	C83	0.554600	0.382800	0.246500
H831	H83	0.565900	0.365400	0.277100
H841	H84	0.572200	0.368000	0.217600
C841	C84	0.497800	0.376300	0.240200
O851	O85	0.970300	0.915100	0.241100
O861	O86	0.978600	0.832600	0.235700
C851	C85	0.054600	0.882800	0.246500
H851	H85	0.065900	0.865400	0.277100
H861	H86	0.072200	0.868000	0.217600
C861	C86	0.997800	0.876300	0.240200
O871	O87	0.970300	0.415100	0.741100
O881	O88	0.978600	0.332600	0.735700
C871	C87	0.054600	0.382800	0.746500
H871	H87	0.065900	0.365400	0.777100
H881	H88	0.072200	0.368000	0.717600
C881	C88	0.997800	0.376300	0.740200
O891	O89	0.279700	0.415100	0.508900
O901	O90	0.271400	0.332600	0.514300
C891	C89	0.195400	0.382800	0.503500
H891	H89	0.184100	0.365400	0.472900
H901	H90	0.177800	0.368000	0.532400
C901	C90	0.252200	0.376300	0.509800
O911	O91	0.279700	0.915100	0.008900
O921	O92	0.271400	0.832600	0.014300
C911	C91	0.195400	0.882800	0.003500
H911	H91	0.184100	0.865400	0.972900
H921	H92	0.177800	0.868000	0.032400
C921	C92	0.252200	0.876300	0.009800
O931	O93	0.779700	0.415100	0.008900
O941	O94	0.771400	0.332600	0.014300
C931	C93	0.695400	0.382800	0.003500
H931	H93	0.684100	0.365400	0.972900
H941	H94	0.677800	0.368000	0.032400
C941	C94	0.752200	0.376300	0.009800
O951	O95	0.779700	0.915100	0.508900
O961	O96	0.771400	0.832600	0.514300
C951	C95	0.695400	0.882800	0.503500
H951	H95	0.684100	0.865400	0.472900
H961	H96	0.677800	0.868000	0.532400
C961	C96	0.752200	0.876300	0.509800
O971	O97	0.720300	0.258900	0.665100
O981	O98	0.728600	0.264300	0.582600
C971	C97	0.804600	0.253500	0.632800
H971	H97	0.815900	0.222900	0.615400
H981	H98	0.822200	0.282400	0.618000
C981	C98	0.747800	0.259800	0.626300
O991	O99	0.720300	0.758900	0.165100
O1001	O100	0.728600	0.764300	0.082600
C991	C99	0.804600	0.753500	0.132800
H991	H99	0.815900	0.722900	0.115400
H1001	H100	0.822200	0.782400	0.118000
C1001	C100	0.747800	0.759800	0.126300
O1011	O101	0.220300	0.258900	0.165100
O1021	O102	0.228600	0.264300	0.082600
C1011	C101	0.304600	0.253500	0.132800
H1011	H101	0.315900	0.222900	0.115400
H1021	H102	0.322200	0.282400	0.118000
C1021	C102	0.247800	0.259800	0.126300
O1031	O103	0.220300	0.758900	0.665100
O1041	O104	0.228600	0.764300	0.582600
C1031	C103	0.304600	0.753500	0.632800
H1031	H103	0.315900	0.722900	0.615400
H1041	H104	0.322200	0.782400	0.618000
C1041	C104	0.247800	0.759800	0.626300
O1051	O105	0.529700	0.491100	0.165100
O1061	O106	0.521400	0.485700	0.082600
C1051	C105	0.445400	0.496500	0.132800
H1051	H105	0.434100	0.527100	0.115400
H1061	H106	0.427800	0.467600	0.118000
C1061	C106	0.502200	0.490200	0.126300
O1071	O107	0.529700	0.991100	0.665100
O1081	O108	0.521400	0.985700	0.582600
C1071	C107	0.445400	0.996500	0.632800
H1071	H107	0.434100	0.027100	0.615400
H1081	H108	0.427800	0.967600	0.618000
C1081	C108	0.502200	0.990200	0.626300
O1091	O109	0.029700	0.491100	0.665100
O1101	O110	0.021400	0.485700	0.582600
C1091	C109	0.945400	0.496500	0.632800
H1091	H109	0.934100	0.527100	0.615400
H1101	H110	0.927800	0.467600	0.618000
C1101	C110	0.002200	0.490200	0.626300
O1111	O111	0.029700	0.991100	0.165100
O1121	O112	0.021400	0.985700	0.082600
C1111	C111	0.945400	0.996500	0.132800
H1111	H111	0.934100	0.027100	0.115400
H1121	H112	0.927800	0.967600	0.118000
C1121	C112	0.002200	0.990200	0.126300
O1131	O113	0.220300	0.991100	0.084900
O1141	O114	0.228600	0.985700	0.167400
C1131	C113	0.304600	0.996500	0.117200
H1131	H113	0.315900	0.027100	0.134600
H1141	H114	0.322200	0.967600	0.132000
C1141	C114	0.247800	0.990200	0.123700
O1151	O115	0.220300	0.491100	0.584900
O1161	O116	0.228600	0.485700	0.667400
C1151	C115	0.304600	0.496500	0.617200
H1151	H115	0.315900	0.527100	0.634600
H1161	H116	0.322200	0.467600	0.632000
C1161	C116	0.247800	0.490200	0.623700
O1171	O117	0.720300	0.991100	0.584900
O1181	O118	0.728600	0.985700	0.667400
C1171	C117	0.804600	0.996500	0.617200
H1171	H117	0.815900	0.027100	0.634600
H1181	H118	0.822200	0.967600	0.632000
C1181	C118	0.747800	0.990200	0.623700
O1191	O119	0.720300	0.491100	0.084900
O1201	O120	0.728600	0.485700	0.167400
C1191	C119	0.804600	0.496500	0.117200
H1191	H119	0.815900	0.527100	0.134600
H1201	H120	0.822200	0.467600	0.132000
C1201	C120	0.747800	0.490200	0.123700
O1211	O121	0.029700	0.758900	0.584900
O1221	O122	0.021400	0.764300	0.667400
C1211	C121	0.945400	0.753500	0.617200
H1211	H121	0.934100	0.722900	0.634600
H1221	H122	0.927800	0.782400	0.632000
C1221	C122	0.002200	0.759800	0.623700
O1231	O123	0.029700	0.258900	0.084900
O1241	O124	0.021400	0.264300	0.167400
C1231	C123	0.945400	0.253500	0.117200
H1231	H123	0.934100	0.222900	0.134600
H1241	H124	0.927800	0.282400	0.132000
C1241	C124	0.002200	0.259800	0.123700
O1251	O125	0.529700	0.758900	0.084900
O1261	O126	0.521400	0.764300	0.167400
C1251	C125	0.445400	0.753500	0.117200
H1251	H125	0.434100	0.722900	0.134600
H1261	H126	0.427800	0.782400	0.132000
C1261	C126	0.502200	0.759800	0.123700
O1271	O127	0.529700	0.258900	0.584900
O1281	O128	0.521400	0.264300	0.667400
C1271	C127	0.445400	0.253500	0.617200
H1271	H127	0.434100	0.222900	0.634600
H1281	H128	0.427800	0.282400	0.632000
C1281	C128	0.502200	0.259800	0.623700
O1291	O129	0.758900	0.584900	0.029700
O1301	O130	0.764300	0.667400	0.021400
C1291	C129	0.753500	0.617200	0.945400
H1291	H129	0.722900	0.634600	0.934100
H1301	H130	0.782400	0.632000	0.927800
C1301	C130	0.759800	0.623700	0.002200
O1311	O131	0.758900	0.084900	0.529700
O1321	O132	0.764300	0.167400	0.521400
C1311	C131	0.753500	0.117200	0.445400
H1311	H131	0.722900	0.134600	0.434100
H1321	H132	0.782400	0.132000	0.427800
C1321	C132	0.759800	0.123700	0.502200
O1331	O133	0.258900	0.584900	0.529700
O1341	O134	0.264300	0.667400	0.521400
C1331	C133	0.253500	0.617200	0.445400
H1331	H133	0.222900	0.634600	0.434100
H1341	H134	0.282400	0.632000	0.427800
C1341	C134	0.259800	0.623700	0.502200
O1351	O135	0.258900	0.084900	0.029700
O1361	O136	0.264300	0.167400	0.021400
C1351	C135	0.253500	0.117200	0.945400
H1351	H135	0.222900	0.134600	0.934100
H1361	H136	0.282400	0.132000	0.927800
C1361	C136	0.259800	0.123700	0.002200
O1371	O137	0.991100	0.084900	0.220300
O1381	O138	0.985700	0.167400	0.228600
C1371	C137	0.996500	0.117200	0.304600
H1371	H137	0.027100	0.134600	0.315900
H1381	H138	0.967600	0.132000	0.322200
C1381	C138	0.990200	0.123700	0.247800
O1391	O139	0.991100	0.584900	0.720300
O1401	O140	0.985700	0.667400	0.728600
C1391	C139	0.996500	0.617200	0.804600
H1391	H139	0.027100	0.634600	0.815900
H1401	H140	0.967600	0.632000	0.822200
C1401	C140	0.990200	0.623700	0.747800
O1411	O141	0.491100	0.084900	0.720300
O1421	O142	0.485700	0.167400	0.728600
C1411	C141	0.496500	0.117200	0.804600
H1411	H141	0.527100	0.134600	0.815900
H1421	H142	0.467600	0.132000	0.822200
C1421	C142	0.490200	0.123700	0.747800
O1431	O143	0.491100	0.584900	0.220300
O1441	O144	0.485700	0.667400	0.228600
C1431	C143	0.496500	0.617200	0.304600
H1431	H143	0.527100	0.634600	0.315900
H1441	H144	0.467600	0.632000	0.322200
C1441	C144	0.490200	0.623700	0.247800
O1451	O145	0.491100	0.165100	0.529700
O1461	O146	0.485700	0.082600	0.521400
C1451	C145	0.496500	0.132800	0.445400
H1451	H145	0.527100	0.115400	0.434100
H1461	H146	0.467600	0.118000	0.427800
C1461	C146	0.490200	0.126300	0.502200
O1471	O147	0.491100	0.665100	0.029700
O1481	O148	0.485700	0.582600	0.021400
C1471	C147	0.496500	0.632800	0.945400
H1471	H147	0.527100	0.615400	0.934100
H1481	H148	0.467600	0.618000	0.927800
C1481	C148	0.490200	0.626300	0.002200
O1491	O149	0.991100	0.165100	0.029700
O1501	O150	0.985700	0.082600	0.021400
C1491	C149	0.996500	0.132800	0.945400
H1491	H149	0.027100	0.115400	0.934100
H1501	H150	0.967600	0.118000	0.927800
C1501	C150	0.990200	0.126300	0.002200
O1511	O151	0.991100	0.665100	0.529700
O1521	O152	0.985700	0.582600	0.521400
C1511	C151	0.996500	0.632800	0.445400
H1511	H151	0.027100	0.615400	0.434100
H1521	H152	0.967600	0.618000	0.427800
C1521	C152	0.990200	0.626300	0.502200
O1531	O153	0.258900	0.665100	0.720300
O1541	O154	0.264300	0.582600	0.728600
C1531	C153	0.253500	0.632800	0.804600
H1531	H153	0.222900	0.615400	0.815900
H1541	H154	0.282400	0.618000	0.822200
C1541	C154	0.259800	0.626300	0.747800
O1551	O155	0.258900	0.165100	0.220300
O1561	O156	0.264300	0.082600	0.228600
C1551	C155	0.253500	0.132800	0.304600
H1551	H155	0.222900	0.115400	0.315900
H1561	H156	0.282400	0.118000	0.322200
C1561	C156	0.259800	0.126300	0.247800
O1571	O157	0.758900	0.665100	0.220300
O1581	O158	0.764300	0.582600	0.228600
C1571	C157	0.753500	0.632800	0.304600
H1571	H157	0.722900	0.615400	0.315900
H1581	H158	0.782400	0.618000	0.322200
C1581	C158	0.759800	0.626300	0.247800
O1591	O159	0.758900	0.165100	0.720300
O1601	O160	0.764300	0.082600	0.728600
C1591	C159	0.753500	0.132800	0.804600
H1591	H159	0.722900	0.115400	0.815900
H1601	H160	0.782400	0.118000	0.822200
C1601	C160	0.759800	0.126300	0.747800
O1611	O161	0.084900	0.220300	0.991100
O1621	O162	0.167400	0.228600	0.985700
C1611	C161	0.117200	0.304600	0.996500
H1611	H161	0.134600	0.315900	0.027100
H1621	H162	0.132000	0.322200	0.967600
C1621	C162	0.123700	0.247800	0.990200
O1631	O163	0.084900	0.720300	0.491100
O1641	O164	0.167400	0.728600	0.485700
C1631	C163	0.117200	0.804600	0.496500
H1631	H163	0.134600	0.815900	0.527100
H1641	H164	0.132000	0.822200	0.467600
C1641	C164	0.123700	0.747800	0.490200
O1651	O165	0.584900	0.220300	0.491100
O1661	O166	0.667400	0.228600	0.485700
C1651	C165	0.617200	0.304600	0.496500
H1651	H165	0.634600	0.315900	0.527100
H1661	H166	0.632000	0.322200	0.467600
C1661	C166	0.623700	0.247800	0.490200
O1671	O167	0.584900	0.720300	0.991100
O1681	O168	0.667400	0.728600	0.985700
C1671	C167	0.617200	0.804600	0.996500
H1671	H167	0.634600	0.815900	0.027100
H1681	H168	0.632000	0.822200	0.967600
C1681	C168	0.623700	0.747800	0.990200
O1691	O169	0.584900	0.029700	0.758900
O1701	O170	0.667400	0.021400	0.764300
C1691	C169	0.617200	0.945400	0.753500
H1691	H169	0.634600	0.934100	0.722900
H1701	H170	0.632000	0.927800	0.782400
C1701	C170	0.623700	0.002200	0.759800
O1711	O171	0.584900	0.529700	0.258900
O1721	O172	0.667400	0.521400	0.264300
C1711	C171	0.617200	0.445400	0.253500
H1711	H171	0.634600	0.434100	0.222900
H1721	H172	0.632000	0.427800	0.282400
C1721	C172	0.623700	0.502200	0.259800
O1731	O173	0.084900	0.029700	0.258900
O1741	O174	0.167400	0.021400	0.264300
C1731	C173	0.117200	0.945400	0.253500
H1731	H173	0.134600	0.934100	0.222900
H1741	H174	0.132000	0.927800	0.282400
C1741	C174	0.123700	0.002200	0.259800
O1751	O175	0.084900	0.529700	0.758900
O1761	O176	0.167400	0.521400	0.764300
C1751	C175	0.117200	0.445400	0.753500
H1751	H175	0.134600	0.434100	0.722900
H1761	H176	0.132000	0.427800	0.782400
C1761	C176	0.123700	0.502200	0.759800
O1771	O177	0.665100	0.720300	0.258900
O1781	O178	0.582600	0.728600	0.264300
C1771	C177	0.632800	0.804600	0.253500
H1771	H177	0.615400	0.815900	0.222900
H1781	H178	0.618000	0.822200	0.282400
C1781	C178	0.626300	0.747800	0.259800
O1791	O179	0.665100	0.220300	0.758900
O1801	O180	0.582600	0.228600	0.764300
C1791	C179	0.632800	0.304600	0.753500
H1791	H179	0.615400	0.315900	0.722900
H1801	H180	0.618000	0.322200	0.782400
C1801	C180	0.626300	0.247800	0.759800
O1811	O181	0.165100	0.720300	0.758900
O1821	O182	0.082600	0.728600	0.764300
C1811	C181	0.132800	0.804600	0.753500
H1811	H181	0.115400	0.815900	0.722900
H1821	H182	0.118000	0.822200	0.782400
C1821	C182	0.126300	0.747800	0.759800
O1831	O183	0.165100	0.220300	0.258900
O1841	O184	0.082600	0.228600	0.264300
C1831	C183	0.132800	0.304600	0.253500
H1831	H183	0.115400	0.315900	0.222900
H1841	H184	0.118000	0.322200	0.282400
C1841	C184	0.126300	0.247800	0.259800
O1851	O185	0.165100	0.529700	0.491100
O1861	O186	0.082600	0.521400	0.485700
C1851	C185	0.132800	0.445400	0.496500
H1851	H185	0.115400	0.434100	0.527100
H1861	H186	0.118000	0.427800	0.467600
C1861	C186	0.126300	0.502200	0.490200
O1871	O187	0.165100	0.029700	0.991100
O1881	O188	0.082600	0.021400	0.985700
C1871	C187	0.132800	0.945400	0.996500
H1871	H187	0.115400	0.934100	0.027100
H1881	H188	0.118000	0.927800	0.967600
C1881	C188	0.126300	0.002200	0.990200
O1891	O189	0.665100	0.529700	0.991100
O1901	O190	0.582600	0.521400	0.985700
C1891	C189	0.632800	0.445400	0.996500
H1891	H189	0.615400	0.434100	0.027100
H1901	H190	0.618000	0.427800	0.967600
C1901	C190	0.626300	0.502200	0.990200
O1911	O191	0.665100	0.029700	0.491100
O1921	O192	0.582600	0.021400	0.485700
C1911	C191	0.632800	0.945400	0.496500
H1911	H191	0.615400	0.934100	0.527100
H1921	H192	0.618000	0.927800	0.467600
C1921	C192	0.626300	0.002200	0.490200
O1931	O193	0.991100	0.029700	0.665100
O1941	O194	0.985700	0.021400	0.582600
C1931	C193	0.996500	0.945400	0.632800
H1931	H193	0.027100	0.934100	0.615400
H1941	H194	0.967600	0.927800	0.618000
C1941	C194	0.990200	0.002200	0.626300
O1951	O195	0.991100	0.529700	0.165100
O1961	O196	0.985700	0.521400	0.082600
C1951	C195	0.996500	0.445400	0.132800
H1951	H195	0.027100	0.434100	0.115400
H1961	H196	0.967600	0.427800	0.118000
C1961	C196	0.990200	0.502200	0.126300
O1971	O197	0.491100	0.029700	0.165100
O1981	O198	0.485700	0.021400	0.082600
C1971	C197	0.496500	0.945400	0.132800
H1971	H197	0.527100	0.934100	0.115400
H1981	H198	0.467600	0.927800	0.118000
C1981	C198	0.490200	0.002200	0.126300
O1991	O199	0.491100	0.529700	0.665100
O2001	O200	0.485700	0.521400	0.582600
C1991	C199	0.496500	0.445400	0.632800
H1991	H199	0.527100	0.434100	0.615400
H2001	H200	0.467600	0.427800	0.618000
C2001	C200	0.490200	0.502200	0.626300
O2011	O201	0.758900	0.220300	0.165100
O2021	O202	0.764300	0.228600	0.082600
C2011	C201	0.753500	0.304600	0.132800
H2011	H201	0.722900	0.315900	0.115400
H2021	H202	0.782400	0.322200	0.118000
C2021	C202	0.759800	0.247800	0.126300
O2031	O203	0.758900	0.720300	0.665100
O2041	O204	0.764300	0.728600	0.582600
C2031	C203	0.753500	0.804600	0.632800
H2031	H203	0.722900	0.815900	0.615400
H2041	H204	0.782400	0.822200	0.618000
C2041	C204	0.759800	0.747800	0.626300
O2051	O205	0.258900	0.220300	0.665100
O2061	O206	0.264300	0.228600	0.582600
C2051	C205	0.253500	0.304600	0.632800
H2051	H205	0.222900	0.315900	0.615400
H2061	H206	0.282400	0.322200	0.618000
C2061	C206	0.259800	0.247800	0.626300
O2071	O207	0.258900	0.720300	0.165100
O2081	O208	0.264300	0.728600	0.082600
C2071	C207	0.253500	0.804600	0.132800
H2071	H207	0.222900	0.815900	0.115400
H2081	H208	0.282400	0.822200	0.118000
C2081	C208	0.259800	0.747800	0.126300
O2091	O209	0.258900	0.529700	0.084900
O2101	O210	0.264300	0.521400	0.167400
C2091	C209	0.253500	0.445400	0.117200
H2091	H209	0.222900	0.434100	0.134600
H2101	H210	0.282400	0.427800	0.132000
C2101	C210	0.259800	0.502200	0.123700
O2111	O211	0.258900	0.029700	0.584900
O2121	O212	0.264300	0.021400	0.667400
C2111	C211	0.253500	0.945400	0.617200
H2111	H211	0.222900	0.934100	0.634600
H2121	H212	0.282400	0.927800	0.632000
C2121	C212	0.259800	0.002200	0.623700
O2131	O213	0.758900	0.529700	0.584900
O2141	O214	0.764300	0.521400	0.667400
C2131	C213	0.753500	0.445400	0.617200
H2131	H213	0.722900	0.434100	0.634600
H2141	H214	0.782400	0.427800	0.632000
C2141	C214	0.759800	0.502200	0.623700
O2151	O215	0.758900	0.029700	0.084900
O2161	O216	0.764300	0.021400	0.167400
C2151	C215	0.753500	0.945400	0.117200
H2151	H215	0.722900	0.934100	0.134600
H2161	H216	0.782400	0.927800	0.132000
C2161	C216	0.759800	0.002200	0.123700
O2171	O217	0.491100	0.720300	0.584900
O2181	O218	0.485700	0.728600	0.667400
C2171	C217	0.496500	0.804600	0.617200
H2171	H217	0.527100	0.815900	0.634600
H2181	H218	0.467600	0.822200	0.632000
C2181	C218	0.490200	0.747800	0.623700
O2191	O219	0.491100	0.220300	0.084900
O2201	O220	0.485700	0.228600	0.167400
C2191	C219	0.496500	0.304600	0.117200
H2191	H219	0.527100	0.315900	0.134600
H2201	H220	0.467600	0.322200	0.132000
C2201	C220	0.490200	0.247800	0.123700
O2211	O221	0.991100	0.720300	0.084900
O2221	O222	0.985700	0.728600	0.167400
C2211	C221	0.996500	0.804600	0.117200
H2211	H221	0.027100	0.815900	0.134600
H2221	H222	0.967600	0.822200	0.132000
C2221	C222	0.990200	0.747800	0.123700
O2231	O223	0.991100	0.220300	0.584900
O2241	O224	0.985700	0.228600	0.667400
C2231	C223	0.996500	0.304600	0.617200
H2231	H223	0.027100	0.315900	0.634600
H2241	H224	0.967600	0.322200	0.632000
C2241	C224	0.990200	0.247800	0.623700
O2251	O225	0.665100	0.991100	0.029700
O2261	O226	0.582600	0.985700	0.021400
C2251	C225	0.632800	0.996500	0.945400
H2251	H225	0.615400	0.027100	0.934100
H2261	H226	0.618000	0.967600	0.927800
C2261	C226	0.626300	0.990200	0.002200
O2271	O227	0.665100	0.491100	0.529700
O2281	O228	0.582600	0.485700	0.521400
C2271	C227	0.632800	0.496500	0.445400
H2271	H227	0.615400	0.527100	0.434100
H2281	H228	0.618000	0.467600	0.427800
C2281	C228	0.626300	0.490200	0.502200
O2291	O229	0.165100	0.991100	0.529700
O2301	O230	0.082600	0.985700	0.521400
C2291	C229	0.132800	0.996500	0.445400
H2291	H229	0.115400	0.027100	0.434100
H2301	H230	0.118000	0.967600	0.427800
C2301	C230	0.126300	0.990200	0.502200
O2311	O231	0.165100	0.491100	0.029700
O2321	O232	0.082600	0.485700	0.021400
C2311	C231	0.132800	0.496500	0.945400
H2311	H231	0.115400	0.527100	0.934100
H2321	H232	0.118000	0.467600	0.927800
C2321	C232	0.126300	0.490200	0.002200
O2331	O233	0.165100	0.758900	0.220300
O2341	O234	0.082600	0.764300	0.228600
C2331	C233	0.132800	0.753500	0.304600
H2331	H233	0.115400	0.722900	0.315900
H2341	H234	0.118000	0.782400	0.322200
C2341	C234	0.126300	0.759800	0.247800
O2351	O235	0.165100	0.258900	0.720300
O2361	O236	0.082600	0.264300	0.728600
C2351	C235	0.132800	0.253500	0.804600
H2351	H235	0.115400	0.222900	0.815900
H2361	H236	0.118000	0.282400	0.822200
C2361	C236	0.126300	0.259800	0.747800
O2371	O237	0.665100	0.758900	0.720300
O2381	O238	0.582600	0.764300	0.728600
C2371	C237	0.632800	0.753500	0.804600
H2371	H237	0.615400	0.722900	0.815900
H2381	H238	0.618000	0.782400	0.822200
C2381	C238	0.626300	0.759800	0.747800
O2391	O239	0.665100	0.258900	0.220300
O2401	O240	0.582600	0.264300	0.228600
C2391	C239	0.632800	0.253500	0.304600
H2391	H239	0.615400	0.222900	0.315900
H2401	H240	0.618000	0.282400	0.322200
C2401	C240	0.626300	0.259800	0.247800
O2411	O241	0.084900	0.258900	0.529700
O2421	O242	0.167400	0.264300	0.521400
C2411	C241	0.117200	0.253500	0.445400
H2411	H241	0.134600	0.222900	0.434100
H2421	H242	0.132000	0.282400	0.427800
C2421	C242	0.123700	0.259800	0.502200
O2431	O243	0.084900	0.758900	0.029700
O2441	O244	0.167400	0.764300	0.021400
C2431	C243	0.117200	0.753500	0.945400
H2431	H243	0.134600	0.722900	0.934100
H2441	H244	0.132000	0.782400	0.927800
C2441	C244	0.123700	0.759800	0.002200
O2451	O245	0.584900	0.258900	0.029700
O2461	O246	0.667400	0.264300	0.021400
C2451	C245	0.617200	0.253500	0.945400
H2451	H245	0.634600	0.222900	0.934100
H2461	H246	0.632000	0.282400	0.927800
C2461	C246	0.623700	0.259800	0.002200
O2471	O247	0.584900	0.758900	0.529700
O2481	O248	0.667400	0.764300	0.521400
C2471	C247	0.617200	0.753500	0.445400
H2471	H247	0.634600	0.722900	0.434100
H2481	H248	0.632000	0.782400	0.427800
C2481	C248	0.623700	0.759800	0.502200
O2491	O249	0.584900	0.491100	0.720300
O2501	O250	0.667400	0.485700	0.728600
C2491	C249	0.617200	0.496500	0.804600
H2491	H249	0.634600	0.527100	0.815900
H2501	H250	0.632000	0.467600	0.822200
C2501	C250	0.623700	0.490200	0.747800
O2511	O251	0.584900	0.991100	0.220300
O2521	O252	0.667400	0.985700	0.228600
C2511	C251	0.617200	0.996500	0.304600
H2511	H251	0.634600	0.027100	0.315900
H2521	H252	0.632000	0.967600	0.322200
C2521	C252	0.623700	0.990200	0.247800
O2531	O253	0.084900	0.491100	0.220300
O2541	O254	0.167400	0.485700	0.228600
C2531	C253	0.117200	0.496500	0.304600
H2531	H253	0.134600	0.527100	0.315900
H2541	H254	0.132000	0.467600	0.322200
C2541	C254	0.123700	0.490200	0.247800
O2551	O255	0.084900	0.991100	0.720300
O2561	O256	0.167400	0.985700	0.728600
C2551	C255	0.117200	0.996500	0.804600
H2551	H255	0.134600	0.027100	0.815900
H2561	H256	0.132000	0.967600	0.822200
C2561	C256	0.123700	0.990200	0.747800
O2571	O257	0.029700	0.665100	0.991100
O2581	O258	0.021400	0.582600	0.985700
C2571	C257	0.945400	0.632800	0.996500
H2571	H257	0.934100	0.615400	0.027100
H2581	H258	0.927800	0.618000	0.967600
C2581	C258	0.002200	0.626300	0.990200
O2591	O259	0.029700	0.165100	0.491100
O2601	O260	0.021400	0.082600	0.485700
C2591	C259	0.945400	0.132800	0.496500
H2591	H259	0.934100	0.115400	0.527100
H2601	H260	0.927800	0.118000	0.467600
C2601	C260	0.002200	0.126300	0.490200
O2611	O261	0.529700	0.665100	0.491100
O2621	O262	0.521400	0.582600	0.485700
C2611	C261	0.445400	0.632800	0.496500
H2611	H261	0.434100	0.615400	0.527100
H2621	H262	0.427800	0.618000	0.467600
C2621	C262	0.502200	0.626300	0.490200
O2631	O263	0.529700	0.165100	0.991100
O2641	O264	0.521400	0.082600	0.985700
C2631	C263	0.445400	0.132800	0.996500
H2631	H263	0.434100	0.115400	0.027100
H2641	H264	0.427800	0.118000	0.967600
C2641	C264	0.502200	0.126300	0.990200
O2651	O265	0.220300	0.165100	0.758900
O2661	O266	0.228600	0.082600	0.764300
C2651	C265	0.304600	0.132800	0.753500
H2651	H265	0.315900	0.115400	0.722900
H2661	H266	0.322200	0.118000	0.782400
C2661	C266	0.247800	0.126300	0.759800
O2671	O267	0.220300	0.665100	0.258900
O2681	O268	0.228600	0.582600	0.264300
C2671	C267	0.304600	0.632800	0.253500
H2671	H267	0.315900	0.615400	0.222900
H2681	H268	0.322200	0.618000	0.282400
C2681	C268	0.247800	0.626300	0.259800
O2691	O269	0.720300	0.165100	0.258900
O2701	O270	0.728600	0.082600	0.264300
C2691	C269	0.804600	0.132800	0.253500
H2691	H269	0.815900	0.115400	0.222900
H2701	H270	0.822200	0.118000	0.282400
C2701	C270	0.747800	0.126300	0.259800
O2711	O271	0.720300	0.665100	0.758900
O2721	O272	0.728600	0.582600	0.764300
C2711	C271	0.804600	0.632800	0.753500
H2711	H271	0.815900	0.615400	0.722900
H2721	H272	0.822200	0.618000	0.782400
C2721	C272	0.747800	0.626300	0.759800
O2731	O273	0.529700	0.084900	0.258900
O2741	O274	0.521400	0.167400	0.264300
C2731	C273	0.445400	0.117200	0.253500
H2731	H273	0.434100	0.134600	0.222900
H2741	H274	0.427800	0.132000	0.282400
C2741	C274	0.502200	0.123700	0.259800
O2751	O275	0.529700	0.584900	0.758900
O2761	O276	0.521400	0.667400	0.764300
C2751	C275	0.445400	0.617200	0.753500
H2751	H275	0.434100	0.634600	0.722900
H2761	H276	0.427800	0.632000	0.782400
C2761	C276	0.502200	0.623700	0.759800
O2771	O277	0.029700	0.084900	0.758900
O2781	O278	0.021400	0.167400	0.764300
C2771	C277	0.945400	0.117200	0.753500
H2771	H277	0.934100	0.134600	0.722900
H2781	H278	0.927800	0.132000	0.782400
C2781	C278	0.002200	0.123700	0.759800
O2791	O279	0.029700	0.584900	0.258900
O2801	O280	0.021400	0.667400	0.264300
C2791	C279	0.945400	0.617200	0.253500
H2791	H279	0.934100	0.634600	0.222900
H2801	H280	0.927800	0.632000	0.282400
C2801	C280	0.002200	0.623700	0.259800
O2811	O281	0.720300	0.584900	0.491100
O2821	O282	0.728600	0.667400	0.485700
C2811	C281	0.804600	0.617200	0.496500
H2811	H281	0.815900	0.634600	0.527100
H2821	H282	0.822200	0.632000	0.467600
C2821	C282	0.747800	0.623700	0.490200
O2831	O283	0.720300	0.084900	0.991100
O2841	O284	0.728600	0.167400	0.985700
C2831	C283	0.804600	0.117200	0.996500
H2831	H283	0.815900	0.134600	0.027100
H2841	H284	0.822200	0.132000	0.967600
C2841	C284	0.747800	0.123700	0.990200
O2851	O285	0.220300	0.584900	0.991100
O2861	O286	0.228600	0.667400	0.985700
C2851	C285	0.304600	0.617200	0.996500
H2851	H285	0.315900	0.634600	0.027100
H2861	H286	0.322200	0.632000	0.967600
C2861	C286	0.247800	0.623700	0.990200
O2871	O287	0.220300	0.084900	0.491100
O2881	O288	0.228600	0.167400	0.485700
C2871	C287	0.304600	0.117200	0.496500
H2871	H287	0.315900	0.134600	0.527100
H2881	H288	0.322200	0.132000	0.467600
C2881	C288	0.247800	0.123700	0.490200
O2891	O289	0.279700	0.741100	0.334900
O2901	O290	0.271400	0.735700	0.417400
C2891	C289	0.195400	0.746500	0.367200
H2891	H289	0.184100	0.777100	0.384600
H2901	H290	0.177800	0.717600	0.382000
C2901	C290	0.252200	0.740200	0.373700
O2911	O291	0.279700	0.241100	0.834900
O2921	O292	0.271400	0.235700	0.917400
C2911	C291	0.195400	0.246500	0.867200
H2911	H291	0.184100	0.277100	0.884600
H2921	H292	0.177800	0.217600	0.882000
C2921	C292	0.252200	0.240200	0.873700
O2931	O293	0.779700	0.741100	0.834900
O2941	O294	0.771400	0.735700	0.917400
C2931	C293	0.695400	0.746500	0.867200
H2931	H293	0.684100	0.777100	0.884600
H2941	H294	0.677800	0.717600	0.882000
C2941	C294	0.752200	0.740200	0.873700
O2951	O295	0.779700	0.241100	0.334900
O2961	O296	0.771400	0.235700	0.417400
C2951	C295	0.695400	0.246500	0.367200
H2951	H295	0.684100	0.277100	0.384600
H2961	H296	0.677800	0.217600	0.382000
C2961	C296	0.752200	0.240200	0.373700
O2971	O297	0.470300	0.508900	0.834900
O2981	O298	0.478600	0.514300	0.917400
C2971	C297	0.554600	0.503500	0.867200
H2971	H297	0.565900	0.472900	0.884600
H2981	H298	0.572200	0.532400	0.882000
C2981	C298	0.497800	0.509800	0.873700
O2991	O299	0.470300	0.008900	0.334900
O3001	O300	0.478600	0.014300	0.417400
C2991	C299	0.554600	0.003500	0.367200
H2991	H299	0.565900	0.972900	0.384600
H3001	H300	0.572200	0.032400	0.382000
C3001	C300	0.497800	0.009800	0.373700
O3011	O301	0.970300	0.508900	0.334900
O3021	O302	0.978600	0.514300	0.417400
C3011	C301	0.054600	0.503500	0.367200
H3011	H301	0.065900	0.472900	0.384600
H3021	H302	0.072200	0.532400	0.382000
C3021	C302	0.997800	0.509800	0.373700
O3031	O303	0.970300	0.008900	0.834900
O3041	O304	0.978600	0.014300	0.917400
C3031	C303	0.054600	0.003500	0.867200
H3031	H303	0.065900	0.972900	0.884600
H3041	H304	0.072200	0.032400	0.882000
C3041	C304	0.997800	0.009800	0.873700
O3051	O305	0.779700	0.008900	0.915100
O3061	O306	0.771400	0.014300	0.832600
C3051	C305	0.695400	0.003500	0.882800
H3051	H305	0.684100	0.972900	0.865400
H3061	H306	0.677800	0.032400	0.868000
C3061	C306	0.752200	0.009800	0.876300
O3071	O307	0.779700	0.508900	0.415100
O3081	O308	0.771400	0.514300	0.332600
C3071	C307	0.695400	0.503500	0.382800
H3071	H307	0.684100	0.472900	0.365400
H3081	H308	0.677800	0.532400	0.368000
C3081	C308	0.752200	0.509800	0.376300
O3091	O309	0.279700	0.008900	0.415100
O3101	O310	0.271400	0.014300	0.332600
C3091	C309	0.195400	0.003500	0.382800
H3091	H309	0.184100	0.972900	0.365400
H3101	H310	0.177800	0.032400	0.368000
C3101	C310	0.252200	0.009800	0.376300
O3111	O311	0.279700	0.508900	0.915100
O3121	O312	0.271400	0.514300	0.832600
C3111	C311	0.195400	0.503500	0.882800
H3111	H311	0.184100	0.472900	0.865400
H3121	H312	0.177800	0.532400	0.868000
C3121	C312	0.252200	0.509800	0.876300
O3131	O313	0.970300	0.241100	0.415100
O3141	O314	0.978600	0.235700	0.332600
C3131	C313	0.054600	0.246500	0.382800
H3131	H313	0.065900	0.277100	0.365400
H3141	H314	0.072200	0.217600	0.368000
C3141	C314	0.997800	0.240200	0.376300
O3151	O315	0.970300	0.741100	0.915100
O3161	O316	0.978600	0.735700	0.832600
C3151	C315	0.054600	0.746500	0.882800
H3151	H315	0.065900	0.777100	0.865400
H3161	H316	0.072200	0.717600	0.868000
C3161	C316	0.997800	0.740200	0.876300
O3171	O317	0.470300	0.241100	0.915100
O3181	O318	0.478600	0.235700	0.832600
C3171	C317	0.554600	0.246500	0.882800
H3171	H317	0.565900	0.277100	0.865400
H3181	H318	0.572200	0.217600	0.868000
C3181	C318	0.497800	0.240200	0.876300
O3191	O319	0.470300	0.741100	0.415100
O3201	O320	0.478600	0.735700	0.332600
C3191	C319	0.554600	0.746500	0.382800
H3191	H319	0.565900	0.777100	0.365400
H3201	H320	0.572200	0.717600	0.368000
C3201	C320	0.497800	0.740200	0.376300
O3211	O321	0.241100	0.415100	0.970300
O3221	O322	0.235700	0.332600	0.978600
C3211	C321	0.246500	0.382800	0.054600
H3211	H321	0.277100	0.365400	0.065900
H3221	H322	0.217600	0.368000	0.072200
C3221	C322	0.240200	0.376300	0.997800
O3231	O323	0.241100	0.915100	0.470300
O3241	O324	0.235700	0.832600	0.478600
C3231	C323	0.246500	0.882800	0.554600
H3231	H323	0.277100	0.865400	0.565900
H3241	H324	0.217600	0.868000	0.572200
C3241	C324	0.240200	0.876300	0.497800
O3251	O325	0.741100	0.415100	0.470300
O3261	O326	0.735700	0.332600	0.478600
C3251	C325	0.746500	0.382800	0.554600
H3251	H325	0.777100	0.365400	0.565900
H3261	H326	0.717600	0.368000	0.572200
C3261	C326	0.740200	0.376300	0.497800
O3271	O327	0.741100	0.915100	0.970300
O3281	O328	0.735700	0.832600	0.978600
C3271	C327	0.746500	0.882800	0.054600
H3271	H327	0.777100	0.865400	0.065900
H3281	H328	0.717600	0.868000	0.072200
C3281	C328	0.740200	0.876300	0.997800
O3291	O329	0.008900	0.915100	0.779700
O3301	O330	0.014300	0.832600	0.771400
C3291	C329	0.003500	0.882800	0.695400
H3291	H329	0.972900	0.865400	0.684100
H3301	H330	0.032400	0.868000	0.677800
C3301	C330	0.009800	0.876300	0.752200
O3311	O331	0.008900	0.415100	0.279700
O3321	O332	0.014300	0.332600	0.271400
C3311	C331	0.003500	0.382800	0.195400
H3311	H331	0.972900	0.365400	0.184100
H3321	H332	0.032400	0.368000	0.177800
C3321	C332	0.009800	0.376300	0.252200
O3331	O333	0.508900	0.915100	0.279700
O3341	O334	0.514300	0.832600	0.271400
C3331	C333	0.503500	0.882800	0.195400
H3331	H333	0.472900	0.865400	0.184100
H3341	H334	0.532400	0.868000	0.177800
C3341	C334	0.509800	0.876300	0.252200
O3351	O335	0.508900	0.415100	0.779700
O3361	O336	0.514300	0.332600	0.771400
C3351	C335	0.503500	0.382800	0.695400
H3351	H335	0.472900	0.365400	0.684100
H3361	H336	0.532400	0.368000	0.677800
C3361	C336	0.509800	0.376300	0.752200
O3371	O337	0.508900	0.834900	0.470300
O3381	O338	0.514300	0.917400	0.478600
C3371	C337	0.503500	0.867200	0.554600
H3371	H337	0.472900	0.884600	0.565900
H3381	H338	0.532400	0.882000	0.572200
C3381	C338	0.509800	0.873700	0.497800
O3391	O339	0.508900	0.334900	0.970300
O3401	O340	0.514300	0.417400	0.978600
C3391	C339	0.503500	0.367200	0.054600
H3391	H339	0.472900	0.384600	0.065900
H3401	H340	0.532400	0.382000	0.072200
C3401	C340	0.509800	0.373700	0.997800
O3411	O341	0.008900	0.834900	0.970300
O3421	O342	0.014300	0.917400	0.978600
C3411	C341	0.003500	0.867200	0.054600
H3411	H341	0.972900	0.884600	0.065900
H3421	H342	0.032400	0.882000	0.072200
C3421	C342	0.009800	0.873700	0.997800
O3431	O343	0.008900	0.334900	0.470300
O3441	O344	0.014300	0.417400	0.478600
C3431	C343	0.003500	0.367200	0.554600
H3431	H343	0.972900	0.384600	0.565900
H3441	H344	0.032400	0.382000	0.572200
C3441	C344	0.009800	0.373700	0.497800
O3451	O345	0.741100	0.334900	0.279700
O3461	O346	0.735700	0.417400	0.271400
C3451	C345	0.746500	0.367200	0.195400
H3451	H345	0.777100	0.384600	0.184100
H3461	H346	0.717600	0.382000	0.177800
C3461	C346	0.740200	0.373700	0.252200
O3471	O347	0.741100	0.834900	0.779700
O3481	O348	0.735700	0.917400	0.771400
C3471	C347	0.746500	0.867200	0.695400
H3471	H347	0.777100	0.884600	0.684100
H3481	H348	0.717600	0.882000	0.677800
C3481	C348	0.740200	0.873700	0.752200
O3491	O349	0.241100	0.334900	0.779700
O3501	O350	0.235700	0.417400	0.771400
C3491	C349	0.246500	0.367200	0.695400
H3491	H349	0.277100	0.384600	0.684100
H3501	H350	0.217600	0.382000	0.677800
C3501	C350	0.240200	0.373700	0.752200
O3511	O351	0.241100	0.834900	0.279700
O3521	O352	0.235700	0.917400	0.271400
C3511	C351	0.246500	0.867200	0.195400
H3511	H351	0.277100	0.884600	0.184100
H3521	H352	0.217600	0.882000	0.177800
C3521	C352	0.240200	0.873700	0.252200
O3531	O353	0.915100	0.779700	0.008900
O3541	O354	0.832600	0.771400	0.014300
C3531	C353	0.882800	0.695400	0.003500
H3531	H353	0.865400	0.684100	0.972900
H3541	H354	0.868000	0.677800	0.032400
C3541	C354	0.876300	0.752200	0.009800
O3551	O355	0.915100	0.279700	0.508900
O3561	O356	0.832600	0.271400	0.514300
C3551	C355	0.882800	0.195400	0.503500
H3551	H355	0.865400	0.184100	0.472900
H3561	H356	0.868000	0.177800	0.532400
C3561	C356	0.876300	0.252200	0.509800
O3571	O357	0.415100	0.779700	0.508900
O3581	O358	0.332600	0.771400	0.514300
C3571	C357	0.382800	0.695400	0.503500
H3571	H357	0.365400	0.684100	0.472900
H3581	H358	0.368000	0.677800	0.532400
C3581	C358	0.376300	0.752200	0.509800
O3591	O359	0.415100	0.279700	0.008900
O3601	O360	0.332600	0.271400	0.014300
C3591	C359	0.382800	0.195400	0.003500
H3591	H359	0.365400	0.184100	0.972900
H3601	H360	0.368000	0.177800	0.032400
C3601	C360	0.376300	0.252200	0.009800
O3611	O361	0.415100	0.970300	0.241100
O3621	O362	0.332600	0.978600	0.235700
C3611	C361	0.382800	0.054600	0.246500
H3611	H361	0.365400	0.065900	0.277100
H3621	H362	0.368000	0.072200	0.217600
C3621	C362	0.376300	0.997800	0.240200
O3631	O363	0.415100	0.470300	0.741100
O3641	O364	0.332600	0.478600	0.735700
C3631	C363	0.382800	0.554600	0.746500
H3631	H363	0.365400	0.565900	0.777100
H3641	H364	0.368000	0.572200	0.717600
C3641	C364	0.376300	0.497800	0.740200
O3651	O365	0.915100	0.970300	0.741100
O3661	O366	0.832600	0.978600	0.735700
C3651	C365	0.882800	0.054600	0.746500
H3651	H365	0.865400	0.065900	0.777100
H3661	H366	0.868000	0.072200	0.717600
C3661	C366	0.876300	0.997800	0.740200
O3671	O367	0.915100	0.470300	0.241100
O3681	O368	0.832600	0.478600	0.235700
C3671	C367	0.882800	0.554600	0.246500
H3671	H367	0.865400	0.565900	0.277100
H3681	H368	0.868000	0.572200	0.217600
C3681	C368	0.876300	0.497800	0.240200
O3691	O369	0.334900	0.279700	0.741100
O3701	O370	0.417400	0.271400	0.735700
C3691	C369	0.367200	0.195400	0.746500
H3691	H369	0.384600	0.184100	0.777100
H3701	H370	0.382000	0.177800	0.717600
C3701	C370	0.373700	0.252200	0.740200
O3711	O371	0.334900	0.779700	0.241100
O3721	O372	0.417400	0.771400	0.235700
C3711	C371	0.367200	0.695400	0.246500
H3711	H371	0.384600	0.684100	0.277100
H3721	H372	0.382000	0.677800	0.217600
C3721	C372	0.373700	0.752200	0.240200
O3731	O373	0.834900	0.279700	0.241100
O3741	O374	0.917400	0.271400	0.235700
C3731	C373	0.867200	0.195400	0.246500
H3731	H373	0.884600	0.184100	0.277100
H3741	H374	0.882000	0.177800	0.217600
C3741	C374	0.873700	0.252200	0.240200
O3751	O375	0.834900	0.779700	0.741100
O3761	O376	0.917400	0.771400	0.735700
C3751	C375	0.867200	0.695400	0.746500
H3751	H375	0.884600	0.684100	0.777100
H3761	H376	0.882000	0.677800	0.717600
C3761	C376	0.873700	0.752200	0.740200
O3771	O377	0.834900	0.470300	0.508900
O3781	O378	0.917400	0.478600	0.514300
C3771	C377	0.867200	0.554600	0.503500
H3771	H377	0.884600	0.565900	0.472900
H3781	H378	0.882000	0.572200	0.532400
C3781	C378	0.873700	0.497800	0.509800
O3791	O379	0.834900	0.970300	0.008900
O3801	O380	0.917400	0.978600	0.014300
C3791	C379	0.867200	0.054600	0.003500
H3791	H379	0.884600	0.065900	0.972900
H3801	H380	0.882000	0.072200	0.032400
C3801	C380	0.873700	0.997800	0.009800
O3811	O381	0.334900	0.470300	0.008900
O3821	O382	0.417400	0.478600	0.014300
C3811	C381	0.367200	0.554600	0.003500
H3811	H381	0.384600	0.565900	0.972900
H3821	H382	0.382000	0.572200	0.032400
C3821	C382	0.373700	0.497800	0.009800
O3831	O383	0.334900	0.970300	0.508900
O3841	O384	0.417400	0.978600	0.514300
C3831	C383	0.367200	0.054600	0.503500
H3831	H383	0.384600	0.065900	0.472900
H3841	H384	0.382000	0.072200	0.532400
C3841	C384	0.373700	0.997800	0.509800
Dy11	Dy1	0.000000	0.000000	0.250000
Dy21	Dy2	0.000000	0.500000	0.750000
Dy31	Dy3	0.500000	0.000000	0.750000
Dy41	Dy4	0.500000	0.500000	0.250000
Dy51	Dy5	0.250000	0.750000	0.750000
Dy61	Dy6	0.250000	0.250000	0.250000
Dy71	Dy7	0.750000	0.500000	0.000000
Dy81	Dy8	0.750000	0.000000	0.500000
Dy91	Dy9	0.500000	0.250000	0.500000
Dy101	Dy10	0.500000	0.750000	0.000000
Dy111	Dy11	0.250000	0.000000	0.000000
Dy121	Dy12	0.250000	0.500000	0.500000
Dy131	Dy13	0.750000	0.250000	0.750000
Dy141	Dy14	0.000000	0.750000	0.500000
Dy151	Dy15	0.000000	0.250000	0.000000
Dy161	Dy16	0.750000	0.750000	0.250000
Dy171	Dy17	0.000000	0.000000	0.750000
Dy181	Dy18	0.000000	0.500000	0.250000
Dy191	Dy19	0.750000	0.250000	0.250000
Dy201	Dy20	0.750000	0.750000	0.750000
Dy211	Dy21	0.250000	0.500000	0.000000
Dy221	Dy22	0.250000	0.000000	0.500000
Dy231	Dy23	0.500000	0.750000	0.500000
Dy241	Dy24	0.500000	0.250000	0.000000
Dy251	Dy25	0.750000	0.000000	0.000000
Dy261	Dy26	0.250000	0.750000	0.250000
Dy271	Dy27	0.000000	0.250000	0.500000
Dy281	Dy28	0.500000	0.500000	0.750000
Dy291	Dy29	0.000000	0.750000	0.000000
Dy301	Dy30	0.250000	0.250000	0.750000
Dy311	Dy31	0.500000	0.000000	0.250000
Dy321	Dy32	0.750000	0.500000	0.500000
Cd11	Cd1	0.000000	0.000000	0.500000
Cd21	Cd2	0.500000	0.500000	0.500000
Cd31	Cd3	0.250000	0.750000	0.000000
Cd41	Cd4	0.750000	0.500000	0.750000
Cd51	Cd5	0.750000	0.000000	0.250000
Cd61	Cd6	0.500000	0.250000	0.250000
Cd71	Cd7	0.000000	0.250000	0.750000
Cd81	Cd8	0.500000	0.000000	0.000000
Cd91	Cd9	0.750000	0.750000	0.500000
Cd101	Cd10	0.250000	0.500000	0.250000
Cd111	Cd11	0.000000	0.500000	0.000000
Cd121	Cd12	0.500000	0.750000	0.750000
Cd131	Cd13	0.250000	0.250000	0.500000
Cd141	Cd14	0.750000	0.250000	0.500000
Cd151	Cd15	0.750000	0.750000	0.000000
Cd161	Cd16	0.250000	0.250000	0.000000
Cd171	Cd17	0.500000	0.500000	0.000000
Cd181	Cd18	0.250000	0.000000	0.250000
Cd191	Cd19	0.000000	0.750000	0.750000
Cd201	Cd20	0.000000	0.250000	0.250000
Cd211	Cd21	0.500000	0.000000	0.500000
Cd221	Cd22	0.250000	0.500000	0.750000
Cd231	Cd23	0.750000	0.000000	0.750000
Cd241	Cd24	0.500000	0.750000	0.250000
Cd251	Cd25	0.000000	0.500000	0.500000
Cd261	Cd26	0.000000	0.000000	0.000000
Cd271	Cd27	0.750000	0.250000	0.000000
Cd281	Cd28	0.000000	0.750000	0.250000
Cd291	Cd29	0.250000	0.000000	0.750000
Cd301	Cd30	0.250000	0.750000	0.500000
Cd311	Cd31	0.750000	0.500000	0.250000
Cd321	Cd32	0.500000	0.250000	0.750000
O3851	O385	0.000000	0.065800	0.315800
O3861	O386	0.000000	0.565800	0.815800
O3871	O387	0.500000	0.065800	0.815800
O3881	O388	0.500000	0.565800	0.315800
O3891	O389	0.250000	0.684200	0.815800
O3901	O390	0.250000	0.184200	0.315800
O3911	O391	0.750000	0.684200	0.315800
O3921	O392	0.750000	0.184200	0.815800
O3931	O393	0.750000	0.565800	0.934200
O3941	O394	0.750000	0.065800	0.434200
O3951	O395	0.250000	0.565800	0.434200
O3961	O396	0.250000	0.065800	0.934200
O3971	O397	0.500000	0.184200	0.434200
O3981	O398	0.500000	0.684200	0.934200
O3991	O399	0.000000	0.184200	0.934200
O4001	O400	0.000000	0.684200	0.434200
O4011	O401	0.315800	0.000000	0.065800
O4021	O402	0.315800	0.500000	0.565800
O4031	O403	0.815800	0.000000	0.565800
O4041	O404	0.815800	0.500000	0.065800
O4051	O405	0.815800	0.250000	0.684200
O4061	O406	0.815800	0.750000	0.184200
O4071	O407	0.315800	0.250000	0.184200
O4081	O408	0.315800	0.750000	0.684200
O4091	O409	0.934200	0.750000	0.565800
O4101	O410	0.934200	0.250000	0.065800
O4111	O411	0.434200	0.750000	0.065800
O4121	O412	0.434200	0.250000	0.565800
O4131	O413	0.434200	0.500000	0.184200
O4141	O414	0.434200	0.000000	0.684200
O4151	O415	0.934200	0.500000	0.684200
O4161	O416	0.934200	0.000000	0.184200
O4171	O417	0.065800	0.315800	0.000000
O4181	O418	0.065800	0.815800	0.500000
O4191	O419	0.565800	0.315800	0.500000
O4201	O420	0.565800	0.815800	0.000000
O4211	O421	0.684200	0.815800	0.250000
O4221	O422	0.684200	0.315800	0.750000
O4231	O423	0.184200	0.815800	0.750000
O4241	O424	0.184200	0.315800	0.250000
O4251	O425	0.565800	0.934200	0.750000
O4261	O426	0.565800	0.434200	0.250000
O4271	O427	0.065800	0.934200	0.250000
O4281	O428	0.065800	0.434200	0.750000
O4291	O429	0.184200	0.434200	0.500000
O4301	O430	0.184200	0.934200	0.000000
O4311	O431	0.684200	0.434200	0.000000
O4321	O432	0.684200	0.934200	0.500000
O4331	O433	0.000000	0.934200	0.684200
O4341	O434	0.000000	0.434200	0.184200
O4351	O435	0.500000	0.934200	0.184200
O4361	O436	0.500000	0.434200	0.684200
O4371	O437	0.750000	0.315800	0.184200
O4381	O438	0.750000	0.815800	0.684200
O4391	O439	0.250000	0.315800	0.684200
O4401	O440	0.250000	0.815800	0.184200
O4411	O441	0.250000	0.434200	0.065800
O4421	O442	0.250000	0.934200	0.565800
O4431	O443	0.750000	0.434200	0.565800
O4441	O444	0.750000	0.934200	0.065800
O4451	O445	0.500000	0.815800	0.565800
O4461	O446	0.500000	0.315800	0.065800
O4471	O447	0.000000	0.815800	0.065800
O4481	O448	0.000000	0.315800	0.565800
O4491	O449	0.684200	0.000000	0.934200
O4501	O450	0.684200	0.500000	0.434200
O4511	O451	0.184200	0.000000	0.434200
O4521	O452	0.184200	0.500000	0.934200
O4531	O453	0.184200	0.750000	0.315800
O4541	O454	0.184200	0.250000	0.815800
O4551	O455	0.684200	0.750000	0.815800
O4561	O456	0.684200	0.250000	0.315800
O4571	O457	0.065800	0.250000	0.434200
O4581	O458	0.065800	0.750000	0.934200
O4591	O459	0.565800	0.250000	0.934200
O4601	O460	0.565800	0.750000	0.434200
O4611	O461	0.565800	0.500000	0.815800
O4621	O462	0.565800	0.000000	0.315800
O4631	O463	0.065800	0.500000	0.315800
O4641	O464	0.065800	0.000000	0.815800
O4651	O465	0.934200	0.684200	0.000000
O4661	O466	0.934200	0.184200	0.500000
O4671	O467	0.434200	0.684200	0.500000
O4681	O468	0.434200	0.184200	0.000000
O4691	O469	0.315800	0.184200	0.750000
O4701	O470	0.315800	0.684200	0.250000
O4711	O471	0.815800	0.184200	0.250000
O4721	O472	0.815800	0.684200	0.750000
O4731	O473	0.434200	0.065800	0.250000
O4741	O474	0.434200	0.565800	0.750000
O4751	O475	0.934200	0.065800	0.750000
O4761	O476	0.934200	0.565800	0.250000
O4771	O477	0.815800	0.565800	0.500000
O4781	O478	0.815800	0.065800	0.000000
O4791	O479	0.315800	0.565800	0.000000
O4801	O480	0.315800	0.065800	0.500000
