data_KOSJAF_clean_PM
_symmetry_space_group_name_H-M	'P1'
_cell_length_a	6.781000
_cell_length_b	15.090100
_cell_length_c	15.090100
_cell_angle_alpha	62.202700
_cell_angle_beta	81.385300
_cell_angle_gamma	98.614700
_symmetry_Int_Tables_number 1

loop_
_symmetry_equiv_pos_as_xyz
'x,y,z'

loop_
_atom_site_label
_atom_site_type_symbol
_atom_site_fract_x
_atom_site_fract_y
_atom_site_fract_z
Co11	Co1	0.394400	0.282900	0.422700
Co21	Co2	0.111500	0.294400	0.282900
Co31	Co3	0.817100	0.705600	0.577300
Co41	Co4	0.111500	0.717100	0.705600
Co51	Co5	0.394400	0.577300	0.717100
Co61	Co6	0.817100	0.422700	0.294400
H11	H1	0.522950	0.423850	0.000000
H21	H2	0.099100	0.576150	0.423850
H31	H3	0.251800	0.516400	0.000000
H41	H4	0.522950	0.000000	0.576150
H51	H5	0.735400	0.483600	0.516400
H61	H6	0.251800	0.000000	0.483600
C11	C1	0.314800	0.493200	0.412900
C21	C2	0.085250	0.000000	0.503250
C31	C3	0.038300	0.533600	0.904700
C41	C4	0.821600	0.093900	0.493200
C51	C5	0.689250	0.000000	0.557250
C61	C6	0.821600	0.506800	0.906100
C71	C7	0.246500	0.557250	0.442750
C81	C8	0.943000	0.438300	0.095300
C91	C9	0.588500	0.503250	0.496750
C101	C10	0.943000	0.904700	0.561700
C111	C11	0.504700	0.466400	0.438300
C121	C12	0.689250	0.442750	0.000000
C131	C13	0.744900	0.541000	0.814300
C141	C14	0.727700	0.906100	0.587100
C151	C15	0.744900	0.185700	0.459000
C161	C16	0.203900	0.459000	0.355300
C171	C17	0.559200	0.814300	0.644700
C181	C18	0.727700	0.412900	0.093900
C191	C19	0.203900	0.644700	0.541000
C201	C20	0.038300	0.095300	0.466400
C211	C21	0.504700	0.561700	0.533600
C221	C22	0.085250	0.496750	0.000000
C231	C23	0.559200	0.355300	0.185700
C241	C24	0.314800	0.587100	0.506800
O11	O1	0.582400	0.404500	0.414500
O21	O2	0.872000	0.611400	0.726300
O31	O3	0.061300	0.501300	0.326500
O41	O4	0.996900	0.414500	0.181000
O51	O5	0.387800	0.326500	0.172200
O61	O6	0.177900	0.181000	0.404500
O71	O7	0.260600	0.662300	0.611400
O81	O8	0.582400	0.585500	0.595500
O91	O9	0.387800	0.827800	0.673500
O101	O10	0.177900	0.595500	0.819000
O111	O11	0.560000	0.172200	0.501300
O121	O12	0.598300	0.337700	0.273700
O131	O13	0.260600	0.388600	0.337700
O141	O14	0.560000	0.498700	0.827800
O151	O15	0.996900	0.819000	0.585500
O161	O16	0.598300	0.726300	0.662300
O171	O17	0.061300	0.673500	0.498700
O181	O18	0.872000	0.273700	0.388600
