data_KOSJUZ_clean_PM
_symmetry_space_group_name_H-M	'P1'
_cell_length_a	6.803900
_cell_length_b	15.113300
_cell_length_c	15.113300
_cell_angle_alpha	62.210700
_cell_angle_beta	81.369400
_cell_angle_gamma	98.630600
_symmetry_Int_Tables_number 1

loop_
_symmetry_equiv_pos_as_xyz
'x,y,z'

loop_
_atom_site_label
_atom_site_type_symbol
_atom_site_fract_x
_atom_site_fract_y
_atom_site_fract_z
Co11	Co1	0.116600	0.302500	0.278700
Co21	Co2	0.395300	0.278700	0.418800
Co31	Co3	0.116600	0.721300	0.697500
Co41	Co4	0.395300	0.581200	0.721300
Co51	Co5	0.814100	0.697500	0.581200
Co61	Co6	0.814100	0.418800	0.302500
H11	H1	0.237050	0.517150	0.000000
H21	H2	0.719900	0.482850	0.517150
H31	H3	0.528050	0.000000	0.575850
H41	H4	0.103900	0.575850	0.424150
H51	H5	0.528050	0.424150	0.000000
H61	H6	0.237050	0.000000	0.482850
C11	C1	0.507800	0.467800	0.439400
C21	C2	0.683150	0.442450	0.000000
C31	C3	0.204100	0.456400	0.357800
C41	C4	0.747700	0.543600	0.814200
C51	C5	0.728900	0.905200	0.585300
C61	C6	0.040000	0.092800	0.467800
C71	C7	0.561900	0.814200	0.642200
C81	C8	0.314200	0.490500	0.414700
C91	C9	0.823700	0.094800	0.490500
C101	C10	0.947200	0.439400	0.092800
C111	C11	0.040000	0.532200	0.907200
C121	C12	0.747700	0.185800	0.456400
C131	C13	0.314200	0.585300	0.509500
C141	C14	0.585400	0.501600	0.498400
C151	C15	0.240700	0.557550	0.442450
C161	C16	0.507800	0.560600	0.532200
C171	C17	0.823700	0.509500	0.905200
C181	C18	0.728900	0.414700	0.094800
C191	C19	0.204100	0.642200	0.543600
C201	C20	0.561900	0.357800	0.185800
C211	C21	0.947200	0.907200	0.560600
C221	C22	0.083800	0.498400	0.000000
C231	C23	0.083800	0.000000	0.501600
C241	C24	0.683150	0.000000	0.557550
O11	O1	0.577200	0.401500	0.416900
O21	O2	0.058100	0.672500	0.504600
O31	O3	0.175700	0.598500	0.818400
O41	O4	0.255200	0.384200	0.341100
O51	O5	0.255200	0.658900	0.615800
O61	O6	0.871000	0.615800	0.725300
O71	O7	0.871000	0.274700	0.384200
O81	O8	0.596300	0.725300	0.658900
O91	O9	0.994100	0.818400	0.583100
O101	O10	0.596300	0.341100	0.274700
O111	O11	0.385600	0.822900	0.672500
O121	O12	0.175700	0.181600	0.401500
O131	O13	0.562700	0.177100	0.495400
O141	O14	0.577200	0.583100	0.598500
O151	O15	0.994100	0.416900	0.181600
O161	O16	0.385600	0.327500	0.177100
O171	O17	0.058100	0.495400	0.327500
O181	O18	0.562700	0.504600	0.822900
