data_KOSKIO_clean_PM
_symmetry_space_group_name_H-M	'P1'
_cell_length_a	6.767700
_cell_length_b	15.107400
_cell_length_c	15.107400
_cell_angle_alpha	62.189200
_cell_angle_beta	81.412200
_cell_angle_gamma	98.587800
_symmetry_Int_Tables_number 1

loop_
_symmetry_equiv_pos_as_xyz
'x,y,z'

loop_
_atom_site_label
_atom_site_type_symbol
_atom_site_fract_x
_atom_site_fract_y
_atom_site_fract_z
Co11	Co1	0.115800	0.296200	0.280800
Co21	Co2	0.115800	0.719200	0.703800
Co31	Co3	0.396600	0.577000	0.719200
Co41	Co4	0.819600	0.423000	0.296200
Co51	Co5	0.819600	0.703800	0.577000
Co61	Co6	0.396600	0.280800	0.423000
H11	H1	0.251800	0.000000	0.480600
H21	H2	0.732400	0.480600	0.519400
H31	H3	0.526650	0.000000	0.574050
H41	H4	0.251800	0.519400	0.000000
H51	H5	0.526650	0.425950	0.000000
H61	H6	0.100700	0.574050	0.425950
C11	C1	0.745600	0.541000	0.814600
C21	C2	0.204600	0.644400	0.541000
C31	C3	0.733000	0.906900	0.587900
C41	C4	0.560200	0.814600	0.644400
C51	C5	0.320900	0.587900	0.505200
C61	C6	0.088650	0.497950	0.000000
C71	C7	0.826100	0.505200	0.906900
C81	C8	0.826100	0.093100	0.494800
C91	C9	0.246900	0.557850	0.442150
C101	C10	0.942400	0.901100	0.562900
C111	C11	0.560200	0.355600	0.185400
C121	C12	0.689050	0.442150	0.000000
C131	C13	0.041300	0.098900	0.464000
C141	C14	0.745600	0.185400	0.459000
C151	C15	0.942400	0.437100	0.098900
C161	C16	0.505300	0.464000	0.437100
C171	C17	0.204600	0.459000	0.355600
C181	C18	0.590700	0.502050	0.497950
C191	C19	0.041300	0.536000	0.901100
C201	C20	0.088650	0.000000	0.502050
C211	C21	0.505300	0.562900	0.536000
C221	C22	0.733000	0.412100	0.093100
C231	C23	0.689050	0.000000	0.557850
C241	C24	0.320900	0.494800	0.412100
O11	O1	0.593800	0.728300	0.658600
O21	O2	0.178300	0.182700	0.403800
O31	O3	0.865500	0.271700	0.386900
O41	O4	0.995600	0.817300	0.586500
O51	O5	0.995600	0.413500	0.182700
O61	O6	0.252400	0.386900	0.341400
O71	O7	0.056200	0.671600	0.501000
O81	O8	0.252400	0.658600	0.613100
O91	O9	0.557200	0.172600	0.499000
O101	O10	0.582100	0.403800	0.413500
O111	O11	0.865500	0.613100	0.728300
O121	O12	0.557200	0.501000	0.827400
O131	O13	0.582100	0.586500	0.596200
O141	O14	0.384600	0.328400	0.172600
O151	O15	0.056200	0.499000	0.328400
O161	O16	0.384600	0.827400	0.671600
O171	O17	0.178300	0.596200	0.817300
O181	O18	0.593800	0.341400	0.271700
