data_KOSLIP_clean_PM
_symmetry_space_group_name_H-M	'P1'
_cell_length_a	6.754500
_cell_length_b	15.051100
_cell_length_c	15.051100
_cell_angle_alpha	62.196900
_cell_angle_beta	81.396900
_cell_angle_gamma	98.603100
_symmetry_Int_Tables_number 1

loop_
_symmetry_equiv_pos_as_xyz
'x,y,z'

loop_
_atom_site_label
_atom_site_type_symbol
_atom_site_fract_x
_atom_site_fract_y
_atom_site_fract_z
Ni11	Ni1	0.812800	0.695100	0.586000
Ni21	Ni2	0.398800	0.281100	0.414000
Ni31	Ni3	0.117700	0.718900	0.695100
Ni41	Ni4	0.117700	0.304900	0.281100
Ni51	Ni5	0.812800	0.414000	0.304900
Ni61	Ni6	0.398800	0.586000	0.718900
H11	H1	0.117000	0.565500	0.434500
H21	H2	0.741000	0.490500	0.509500
H31	H3	0.250500	0.000000	0.490500
H41	H4	0.551500	0.434500	0.000000
H51	H5	0.551500	0.000000	0.565500
H61	H6	0.250500	0.509500	0.000000
C11	C1	0.675450	0.000000	0.559650
C21	C2	0.818300	0.090700	0.482800
C31	C3	0.675450	0.440350	0.000000
C41	C4	0.095850	0.507550	0.000000
C51	C5	0.747400	0.541400	0.813200
C61	C6	0.044700	0.536300	0.906200
C71	C7	0.206000	0.645400	0.541400
C81	C8	0.950900	0.442500	0.093800
C91	C9	0.588300	0.492450	0.507550
C101	C10	0.560600	0.813200	0.645400
C111	C11	0.044700	0.093800	0.463700
C121	C12	0.727600	0.909300	0.573500
C131	C13	0.747400	0.186800	0.458600
C141	C14	0.818300	0.517200	0.909300
C151	C15	0.950900	0.906200	0.557500
C161	C16	0.095850	0.000000	0.492450
C171	C17	0.301100	0.573500	0.517200
C181	C18	0.727600	0.426500	0.090700
C191	C19	0.560600	0.354600	0.186800
C201	C20	0.235100	0.559650	0.440350
C211	C21	0.206000	0.458600	0.354600
C221	C22	0.508400	0.463700	0.442500
C231	C23	0.508400	0.557500	0.536300
C241	C24	0.301100	0.482800	0.426500
O11	O1	0.034200	0.664400	0.508800
O21	O2	0.594600	0.347200	0.272400
O31	O3	0.164000	0.181900	0.397900
O41	O4	0.543000	0.173200	0.491200
O51	O5	0.594600	0.727600	0.652800
O61	O6	0.561900	0.397900	0.420200
O71	O7	0.867000	0.619600	0.727600
O81	O8	0.369800	0.335600	0.173200
O91	O9	0.247400	0.652800	0.619600
O101	O10	0.543000	0.508800	0.826800
O111	O11	0.867000	0.272400	0.380400
O121	O12	0.982100	0.818100	0.579800
O131	O13	0.369800	0.826800	0.664400
O141	O14	0.247400	0.380400	0.347200
O151	O15	0.561900	0.579800	0.602100
O161	O16	0.982100	0.420200	0.181900
O171	O17	0.034200	0.491200	0.335600
O181	O18	0.164000	0.602100	0.818100
