data_KOSLAH_clean_PM
_symmetry_space_group_name_H-M	'P1'
_cell_length_a	6.882000
_cell_length_b	15.115800
_cell_length_c	15.115800
_cell_angle_alpha	62.260500
_cell_angle_beta	81.270900
_cell_angle_gamma	98.729100
_symmetry_Int_Tables_number 1

loop_
_symmetry_equiv_pos_as_xyz
'x,y,z'

loop_
_atom_site_label
_atom_site_type_symbol
_atom_site_fract_x
_atom_site_fract_y
_atom_site_fract_z
Co11	Co1	0.486600	0.587700	0.731900
Co21	Co2	0.513400	0.412300	0.268100
Co31	Co3	0.101100	0.319600	0.412300
Co41	Co4	0.218500	0.731900	0.680400
Co51	Co5	0.781500	0.268100	0.319600
Co61	Co6	0.898900	0.680400	0.587700
H11	H1	0.639500	0.442200	0.025700
H21	H2	0.665200	0.025700	0.532100
H31	H3	0.802700	0.467900	0.557800
H41	H4	0.360500	0.557800	0.974300
H51	H5	0.334800	0.974300	0.467900
H61	H6	0.197300	0.532100	0.442200
C11	C1	0.967000	0.103900	0.467500
C21	C2	0.259300	0.616400	0.559300
C31	C3	0.434500	0.467500	0.428600
C41	C4	0.136900	0.571400	0.896100
C51	C5	0.198200	0.987900	0.480900
C61	C6	0.166000	0.087800	0.450500
C71	C7	0.565500	0.532500	0.571400
C81	C8	0.616500	0.450500	0.461700
C91	C9	0.818600	0.559300	0.824300
C101	C10	0.801800	0.012100	0.519100
C111	C11	0.642900	0.824300	0.616400
C121	C12	0.740700	0.383600	0.440700
C131	C13	0.033000	0.896100	0.532500
C141	C14	0.679100	0.480900	0.531200
C151	C15	0.357100	0.175700	0.383600
C161	C16	0.789700	0.468800	0.012100
C171	C17	0.210300	0.531200	0.987900
C181	C18	0.181400	0.440700	0.175700
C191	C19	0.320900	0.519100	0.468800
C201	C20	0.383500	0.549500	0.538300
C211	C21	0.863100	0.428600	0.103900
C221	C22	0.921800	0.538300	0.912200
C231	C23	0.078200	0.461700	0.087800
C241	C24	0.834000	0.912200	0.549500
O11	O1	0.666000	0.736600	0.644800
O21	O2	0.914700	0.192000	0.439500
O31	O3	0.354200	0.439500	0.368500
O41	O4	0.334000	0.263400	0.355200
O51	O5	0.526100	0.155600	0.373100
O61	O6	0.473900	0.844400	0.626900
O71	O7	0.629500	0.528700	0.844400
O81	O8	0.929400	0.618600	0.736600
O91	O9	0.370500	0.471300	0.155600
O101	O10	0.277300	0.631500	0.808000
O111	O11	0.085300	0.808000	0.560500
O121	O12	0.100800	0.626900	0.528700
O131	O13	0.645800	0.560500	0.631500
O141	O14	0.689200	0.355200	0.381400
O151	O15	0.070600	0.381400	0.263400
O161	O16	0.899200	0.373100	0.471300
O171	O17	0.310800	0.644800	0.618600
O181	O18	0.722700	0.368500	0.192000
