data_KOVJAI_clean_PM
_symmetry_space_group_name_H-M	'P1'
_cell_length_a	9.791800
_cell_length_b	9.945400
_cell_length_c	12.736100
_cell_angle_alpha	84.216000
_cell_angle_beta	76.642000
_cell_angle_gamma	64.070000
_symmetry_Int_Tables_number 1

loop_
_symmetry_equiv_pos_as_xyz
'x,y,z'

loop_
_atom_site_label
_atom_site_type_symbol
_atom_site_fract_x
_atom_site_fract_y
_atom_site_fract_z
U11	U1	0.559480	0.991670	0.274890
Cl11	Cl1	0.816300	0.925000	0.352290
O11	O1	0.643000	0.185800	0.188000
O21	O2	0.460300	0.167200	0.128300
O31	O3	0.477200	0.178600	0.405300
O41	O4	0.733500	0.722100	0.236300
O51	O5	0.749600	0.880100	0.106800
O61	O6	0.502900	0.136000	0.576000
C11	C1	0.495500	0.363500	0.496800
C21	C2	0.492200	0.215300	0.492300
C31	C3	0.518700	0.440000	0.401900
H11	H1	0.531700	0.398900	0.335800
C41	C4	0.477400	0.424000	0.595100
H21	H2	0.462600	0.372800	0.658800
C51	C5	0.788500	0.751900	0.140300
C61	C6	0.901200	0.622100	0.067600
C71	C7	0.942800	0.644300	0.959300
H31	H3	0.905400	0.740500	0.931000
C81	C8	0.959100	0.477100	0.108700
H41	H4	0.931900	0.461200	0.182200
C91	C9	0.521900	0.371000	0.061700
C101	C10	0.540400	0.232700	0.129900
C111	C11	0.416100	0.420200	0.994900
H51	H5	0.359800	0.366600	0.991100
C121	C12	0.606800	0.450300	0.066900
H61	H6	0.678600	0.417500	0.111200
U21	U2	0.440520	0.008330	0.725110
Cl21	Cl2	0.183700	0.075000	0.647710
O71	O7	0.357000	0.814200	0.812000
O81	O8	0.539700	0.832800	0.871700
O91	O9	0.522800	0.821400	0.594700
O101	O10	0.266500	0.277900	0.763700
O111	O11	0.250400	0.119900	0.893200
O121	O12	0.497100	0.864000	0.424000
C131	C13	0.504500	0.636500	0.503200
C141	C14	0.507800	0.784700	0.507700
C151	C15	0.481300	0.560000	0.598100
H71	H7	0.468300	0.601100	0.664200
C161	C16	0.522600	0.576000	0.404900
H81	H8	0.537400	0.627200	0.341200
C171	C17	0.211500	0.248100	0.859700
C181	C18	0.098800	0.377900	0.932400
C191	C19	0.057200	0.355700	0.040700
H91	H9	0.094600	0.259500	0.069000
C201	C20	0.040900	0.522900	0.891300
H101	H10	0.068100	0.538800	0.817800
C211	C21	0.478100	0.629000	0.938300
C221	C22	0.459600	0.767300	0.870100
C231	C23	0.583900	0.579800	0.005100
H111	H11	0.640200	0.633400	0.008900
C241	C24	0.393200	0.549700	0.933100
H121	H12	0.321400	0.582500	0.888800
