data_KOXGAH_clean_PM
_symmetry_space_group_name_H-M	'P1'
_cell_length_a	12.716000
_cell_length_b	12.716000
_cell_length_c	62.078000
_cell_angle_alpha	90.000000
_cell_angle_beta	90.000000
_cell_angle_gamma	90.000000
_symmetry_Int_Tables_number 1

loop_
_symmetry_equiv_pos_as_xyz
'x,y,z'

loop_
_atom_site_label
_atom_site_type_symbol
_atom_site_fract_x
_atom_site_fract_y
_atom_site_fract_z
I11	I1	0.801800	0.943620	0.900870
I21	I2	0.162200	0.954070	0.909790
Cu11	Cu1	0.970110	0.949230	0.925310
Cu21	Cu2	0.995240	0.944770	0.884660
O11	O1	0.757900	0.468900	0.041540
O21	O2	0.131100	0.444600	0.042150
O31	O3	0.950200	0.263100	0.019230
O41	O4	0.941000	0.640200	0.016890
N11	N1	0.572900	0.502400	0.114340
N21	N2	0.316900	0.486100	0.115050
N31	N3	0.951600	0.074900	0.946070
N41	N4	0.960200	0.818000	0.944080
C11	C1	0.945500	0.456800	0.042270
C21	C2	0.850600	0.469000	0.053720
C31	C3	0.851400	0.477300	0.075680
C41	C4	0.944300	0.477700	0.086050
H11	H1	0.943600	0.485700	0.101300
C51	C5	0.041400	0.467000	0.075920
C61	C6	0.037000	0.453400	0.053590
C71	C7	0.751600	0.485800	0.088700
C81	C8	0.740500	0.565600	0.104220
H21	H2	0.794200	0.616700	0.106100
C91	C9	0.652100	0.568900	0.116420
H31	H3	0.646800	0.622200	0.127100
C101	C10	0.582100	0.426900	0.099260
H41	H4	0.526400	0.377800	0.097700
C111	C11	0.667200	0.417400	0.086160
H51	H5	0.669000	0.364600	0.075400
C121	C12	0.138300	0.471400	0.088560
C131	C13	0.151600	0.410700	0.107030
H61	H6	0.099500	0.360500	0.110800
C141	C14	0.238900	0.422400	0.119910
H71	H7	0.243100	0.382800	0.132900
C151	C15	0.307900	0.543500	0.096860
H81	H8	0.362000	0.591900	0.093300
C161	C16	0.222800	0.533900	0.083350
H91	H9	0.222400	0.571300	0.070100
C171	C17	0.707700	0.568900	0.039440
H101	H10	0.677300	0.589400	0.053300
H111	H11	0.651800	0.564300	0.028600
H121	H12	0.759500	0.621500	0.035000
C181	C18	0.177000	0.339900	0.043780
H131	H13	0.183300	0.320200	0.059000
H141	H14	0.246900	0.339900	0.037100
H151	H15	0.131800	0.289100	0.036300
C191	C19	0.944800	0.451400	0.018060
C201	C20	0.944000	0.356400	0.007460
C211	C21	0.939900	0.351700	0.984770
C221	C22	0.942200	0.443700	0.973590
H161	H16	0.942500	0.440700	0.958300
C231	C23	0.944000	0.542400	0.983490
C241	C24	0.942000	0.544600	0.005940
C251	C25	0.942200	0.251300	0.972730
C261	C26	0.014800	0.173300	0.976570
H171	H17	0.062000	0.177700	0.988400
C271	C27	0.017000	0.086200	0.962380
H181	H18	0.068300	0.033200	0.964700
C281	C28	0.879800	0.148500	0.942620
H191	H19	0.832400	0.140500	0.930900
C291	C29	0.872000	0.236500	0.955560
H201	H20	0.818900	0.287300	0.952800
C301	C30	0.948000	0.640500	0.970420
C311	C31	0.016700	0.643900	0.953090
H211	H21	0.059900	0.585100	0.949800
C321	C32	0.021400	0.733600	0.940750
H221	H22	0.070600	0.735900	0.929300
C331	C33	0.891800	0.811900	0.960570
H231	H23	0.846000	0.869700	0.963000
C341	C34	0.884700	0.727300	0.973980
H241	H24	0.836600	0.727900	0.985700
C351	C35	0.848600	0.221700	0.025500
H251	H25	0.810700	0.274600	0.034000
H261	H26	0.858500	0.158100	0.034200
H271	H27	0.807800	0.204400	0.012600
C361	C36	0.041700	0.682300	0.021350
H281	H28	0.086900	0.627000	0.027300
H291	H29	0.035000	0.739500	0.031800
H301	H30	0.072800	0.709500	0.008000
I31	I3	0.198200	0.056380	0.400870
I41	I4	0.837800	0.045930	0.409790
Cu31	Cu3	0.029890	0.050770	0.425310
Cu41	Cu4	0.004760	0.055230	0.384660
O51	O5	0.242100	0.531100	0.541540
O61	O6	0.868900	0.555400	0.542150
O71	O7	0.049800	0.736900	0.519230
O81	O8	0.059000	0.359800	0.516890
N51	N5	0.427100	0.497600	0.614340
N61	N6	0.683100	0.513900	0.615050
N71	N7	0.048400	0.925100	0.446070
N81	N8	0.039800	0.182000	0.444080
C371	C37	0.054500	0.543200	0.542270
C381	C38	0.149400	0.531000	0.553720
C391	C39	0.148600	0.522700	0.575680
C401	C40	0.055700	0.522300	0.586050
H311	H31	0.056400	0.514300	0.601300
C411	C41	0.958600	0.533000	0.575920
C421	C42	0.963000	0.546600	0.553590
C431	C43	0.248400	0.514200	0.588700
C441	C44	0.259500	0.434400	0.604220
H321	H32	0.205800	0.383300	0.606100
C451	C45	0.347900	0.431100	0.616420
H331	H33	0.353200	0.377800	0.627100
C461	C46	0.417900	0.573100	0.599260
H341	H34	0.473600	0.622200	0.597700
C471	C47	0.332800	0.582600	0.586160
H351	H35	0.331000	0.635400	0.575400
C481	C48	0.861700	0.528600	0.588560
C491	C49	0.848400	0.589300	0.607030
H361	H36	0.900500	0.639500	0.610800
C501	C50	0.761100	0.577600	0.619910
H371	H37	0.756900	0.617200	0.632900
C511	C51	0.692100	0.456500	0.596860
H381	H38	0.638000	0.408100	0.593300
C521	C52	0.777200	0.466100	0.583350
H391	H39	0.777600	0.428700	0.570100
C531	C53	0.292300	0.431100	0.539440
H401	H40	0.322700	0.410600	0.553300
H411	H41	0.348200	0.435700	0.528600
H421	H42	0.240500	0.378500	0.535000
C541	C54	0.823000	0.660100	0.543780
H431	H43	0.816700	0.679800	0.559000
H441	H44	0.753100	0.660100	0.537100
H451	H45	0.868200	0.710900	0.536300
C551	C55	0.055200	0.548600	0.518060
C561	C56	0.056000	0.643600	0.507460
C571	C57	0.060100	0.648300	0.484770
C581	C58	0.057800	0.556300	0.473590
H461	H46	0.057500	0.559300	0.458300
C591	C59	0.056000	0.457600	0.483490
C601	C60	0.058000	0.455400	0.505940
C611	C61	0.057800	0.748700	0.472730
C621	C62	0.985200	0.826700	0.476570
H471	H47	0.938000	0.822300	0.488400
C631	C63	0.983000	0.913800	0.462380
H481	H48	0.931700	0.966800	0.464700
C641	C64	0.120200	0.851500	0.442620
H491	H49	0.167600	0.859500	0.430900
C651	C65	0.128000	0.763500	0.455560
H501	H50	0.181100	0.712700	0.452800
C661	C66	0.052000	0.359500	0.470420
C671	C67	0.983300	0.356100	0.453090
H511	H51	0.940100	0.414900	0.449800
C681	C68	0.978600	0.266400	0.440750
H521	H52	0.929400	0.264100	0.429300
C691	C69	0.108200	0.188100	0.460570
H531	H53	0.154000	0.130300	0.463000
C701	C70	0.115300	0.272700	0.473980
H541	H54	0.163400	0.272100	0.485700
C711	C71	0.151400	0.778300	0.525500
H551	H55	0.189300	0.725400	0.534000
H561	H56	0.141500	0.841900	0.534200
H571	H57	0.192200	0.795600	0.512600
C721	C72	0.958300	0.317700	0.521350
H581	H58	0.913100	0.373000	0.527300
H591	H59	0.965000	0.260500	0.531800
H601	H60	0.927200	0.290500	0.508000
I51	I5	0.556380	0.301800	0.650870
I61	I6	0.545930	0.662200	0.659790
Cu51	Cu5	0.550770	0.470110	0.675310
Cu61	Cu6	0.555230	0.495240	0.634660
O91	O9	0.031100	0.257900	0.791540
O101	O10	0.055400	0.631100	0.792150
O111	O11	0.236900	0.450200	0.769230
O121	O12	0.859800	0.441000	0.766890
N91	N9	0.997600	0.072900	0.864340
N101	N10	0.013900	0.816900	0.865050
N111	N11	0.425100	0.451600	0.696070
N121	N12	0.682000	0.460200	0.694080
C731	C73	0.043200	0.445500	0.792270
C741	C74	0.031000	0.350600	0.803720
C751	C75	0.022700	0.351400	0.825680
C761	C76	0.022300	0.444300	0.836050
H611	H61	0.014300	0.443600	0.851300
C771	C77	0.033000	0.541400	0.825920
C781	C78	0.046600	0.537000	0.803590
C791	C79	0.014200	0.251600	0.838700
C801	C80	0.934400	0.240500	0.854220
H621	H62	0.883300	0.294200	0.856100
C811	C81	0.931100	0.152100	0.866420
H631	H63	0.877800	0.146800	0.877100
C821	C82	0.073100	0.082100	0.849260
H641	H64	0.122200	0.026400	0.847700
C831	C83	0.082600	0.167200	0.836160
H651	H65	0.135400	0.169000	0.825400
C841	C84	0.028600	0.638300	0.838560
C851	C85	0.089300	0.651600	0.857030
H661	H66	0.139500	0.599500	0.860800
C861	C86	0.077600	0.738900	0.869910
H671	H67	0.117200	0.743100	0.882900
C871	C87	0.956500	0.807900	0.846860
H681	H68	0.908100	0.862000	0.843300
C881	C88	0.966100	0.722800	0.833350
H691	H69	0.928700	0.722400	0.820100
C891	C89	0.931100	0.207700	0.789440
H701	H70	0.910600	0.177300	0.803300
H711	H71	0.935700	0.151800	0.778600
H721	H72	0.878500	0.259500	0.785000
C901	C90	0.160100	0.677000	0.793780
H731	H73	0.179800	0.683300	0.809000
H741	H74	0.160100	0.746900	0.787100
H751	H75	0.210900	0.631800	0.786300
C911	C91	0.048600	0.444800	0.768060
C921	C92	0.143600	0.444000	0.757460
C931	C93	0.148300	0.439900	0.734770
C941	C94	0.056300	0.442200	0.723590
H761	H76	0.059300	0.442500	0.708300
C951	C95	0.957600	0.444000	0.733490
C961	C96	0.955400	0.442000	0.755940
C971	C97	0.248700	0.442200	0.722730
C981	C98	0.326700	0.514800	0.726570
H771	H77	0.322300	0.562000	0.738400
C991	C99	0.413800	0.517000	0.712380
H781	H78	0.466800	0.568300	0.714700
C1001	C100	0.351500	0.379800	0.692620
H791	H79	0.359500	0.332400	0.680900
C1011	C101	0.263500	0.372000	0.705560
H801	H80	0.212700	0.318900	0.702800
C1021	C102	0.859500	0.448000	0.720420
C1031	C103	0.856100	0.516700	0.703090
H811	H81	0.914900	0.559900	0.699800
C1041	C104	0.766400	0.521400	0.690750
H821	H82	0.764100	0.570600	0.679300
C1051	C105	0.688100	0.391800	0.710570
H831	H83	0.630300	0.346000	0.713000
C1061	C106	0.772700	0.384700	0.723980
H841	H84	0.772100	0.336600	0.735700
C1071	C107	0.278300	0.348600	0.775500
H851	H85	0.225400	0.310700	0.784000
H861	H86	0.341900	0.358500	0.784200
H871	H87	0.295600	0.307800	0.762600
C1081	C108	0.817700	0.541700	0.771350
H881	H88	0.873000	0.586900	0.777300
H891	H89	0.760500	0.535000	0.781800
H901	H90	0.790500	0.572800	0.758000
I71	I7	0.443620	0.698200	0.150870
I81	I8	0.454070	0.337800	0.159790
Cu71	Cu7	0.449230	0.529890	0.175310
Cu81	Cu8	0.444770	0.504760	0.134660
O131	O13	0.968900	0.742100	0.291540
O141	O14	0.944600	0.368900	0.292150
O151	O15	0.763100	0.549800	0.269230
O161	O16	0.140200	0.559000	0.266890
N131	N13	0.002400	0.927100	0.364340
N141	N14	0.986100	0.183100	0.365050
N151	N15	0.574900	0.548400	0.196070
N161	N16	0.318000	0.539800	0.194080
C1091	C109	0.956800	0.554500	0.292270
C1101	C110	0.969000	0.649400	0.303720
C1111	C111	0.977300	0.648600	0.325680
C1121	C112	0.977700	0.555700	0.336050
H911	H91	0.985700	0.556400	0.351300
C1131	C113	0.967000	0.458600	0.325920
C1141	C114	0.953400	0.463000	0.303590
C1151	C115	0.985800	0.748400	0.338700
C1161	C116	0.065600	0.759500	0.354220
H921	H92	0.116700	0.705800	0.356100
C1171	C117	0.068900	0.847900	0.366420
H931	H93	0.122200	0.853200	0.377100
C1181	C118	0.926900	0.917900	0.349260
H941	H94	0.877800	0.973600	0.347700
C1191	C119	0.917400	0.832800	0.336160
H951	H95	0.864600	0.831000	0.325400
C1201	C120	0.971400	0.361700	0.338560
C1211	C121	0.910700	0.348400	0.357030
H961	H96	0.860500	0.400500	0.360800
C1221	C122	0.922400	0.261100	0.369910
H971	H97	0.882800	0.256900	0.382900
C1231	C123	0.043500	0.192100	0.346860
H981	H98	0.091900	0.138000	0.343300
C1241	C124	0.033900	0.277200	0.333350
H991	H99	0.071300	0.277600	0.320100
C1251	C125	0.068900	0.792300	0.289440
H1001	H100	0.089400	0.822700	0.303300
H1011	H101	0.064300	0.848200	0.278600
H1021	H102	0.121500	0.740500	0.285000
C1261	C126	0.839900	0.323000	0.293780
H1031	H103	0.820200	0.316700	0.309000
H1041	H104	0.839900	0.253100	0.287100
H1051	H105	0.789100	0.368200	0.286300
C1271	C127	0.951400	0.555200	0.268060
C1281	C128	0.856400	0.556000	0.257460
C1291	C129	0.851700	0.560100	0.234770
C1301	C130	0.943700	0.557800	0.223590
H1061	H106	0.940700	0.557500	0.208300
C1311	C131	0.042400	0.556000	0.233490
C1321	C132	0.044600	0.558000	0.255940
C1331	C133	0.751300	0.557800	0.222730
C1341	C134	0.673300	0.485200	0.226570
H1071	H107	0.677700	0.438000	0.238400
C1351	C135	0.586200	0.483000	0.212380
H1081	H108	0.533200	0.431700	0.214700
C1361	C136	0.648500	0.620200	0.192620
H1091	H109	0.640500	0.667600	0.180900
C1371	C137	0.736500	0.628000	0.205560
H1101	H110	0.787300	0.681100	0.202800
C1381	C138	0.140500	0.552000	0.220420
C1391	C139	0.143900	0.483300	0.203090
H1111	H111	0.085100	0.440100	0.199800
C1401	C140	0.233600	0.478600	0.190750
H1121	H112	0.235900	0.429400	0.179300
C1411	C141	0.311900	0.608200	0.210570
H1131	H113	0.369700	0.654000	0.213000
C1421	C142	0.227300	0.615300	0.223980
H1141	H114	0.227900	0.663400	0.235700
C1431	C143	0.721700	0.651400	0.275500
H1151	H115	0.774600	0.689300	0.284000
H1161	H116	0.658100	0.641500	0.284200
H1171	H117	0.704400	0.692200	0.262600
C1441	C144	0.182300	0.458300	0.271350
H1181	H118	0.127000	0.413100	0.277300
H1191	H119	0.239500	0.465000	0.281800
H1201	H120	0.209500	0.427200	0.258000
I91	I9	0.698200	0.443620	0.849130
I101	I10	0.337800	0.454070	0.840210
Cu91	Cu9	0.529890	0.449230	0.824700
Cu101	Cu10	0.504760	0.444770	0.865340
O171	O17	0.742100	0.968900	0.708460
O181	O18	0.368900	0.944600	0.707850
O191	O19	0.549800	0.763100	0.730770
O201	O20	0.559000	0.140200	0.733110
N171	N17	0.927100	0.002400	0.635660
N181	N18	0.183100	0.986100	0.634950
N191	N19	0.548400	0.574900	0.803930
N201	N20	0.539800	0.318000	0.805920
C1451	C145	0.554500	0.956800	0.707730
C1461	C146	0.649400	0.969000	0.696280
C1471	C147	0.648600	0.977300	0.674320
C1481	C148	0.555700	0.977700	0.663950
H1211	H121	0.556400	0.985700	0.648700
C1491	C149	0.458600	0.967000	0.674080
C1501	C150	0.463000	0.953400	0.696410
C1511	C151	0.748400	0.985800	0.661300
C1521	C152	0.759500	0.065600	0.645780
H1221	H122	0.705800	0.116700	0.643900
C1531	C153	0.847900	0.068900	0.633580
H1231	H123	0.853200	0.122200	0.622900
C1541	C154	0.917900	0.926900	0.650740
H1241	H124	0.973600	0.877800	0.652300
C1551	C155	0.832800	0.917400	0.663840
H1251	H125	0.831000	0.864600	0.674600
C1561	C156	0.361700	0.971400	0.661440
C1571	C157	0.348400	0.910700	0.642970
H1261	H126	0.400500	0.860500	0.639200
C1581	C158	0.261100	0.922400	0.630090
H1271	H127	0.256900	0.882800	0.617100
C1591	C159	0.192100	0.043500	0.653140
H1281	H128	0.138000	0.091900	0.656700
C1601	C160	0.277200	0.033900	0.666650
H1291	H129	0.277600	0.071300	0.679900
C1611	C161	0.792300	0.068900	0.710560
H1301	H130	0.822700	0.089400	0.696700
H1311	H131	0.848200	0.064300	0.721400
H1321	H132	0.740500	0.121500	0.715000
C1621	C162	0.323000	0.839900	0.706220
H1331	H133	0.316700	0.820200	0.691000
H1341	H134	0.253100	0.839900	0.712900
H1351	H135	0.368200	0.789100	0.713700
C1631	C163	0.555200	0.951400	0.731940
C1641	C164	0.556000	0.856400	0.742540
C1651	C165	0.560100	0.851700	0.765230
C1661	C166	0.557800	0.943700	0.776410
H1361	H136	0.557500	0.940700	0.791700
C1671	C167	0.556000	0.042400	0.766510
C1681	C168	0.558000	0.044600	0.744060
C1691	C169	0.557800	0.751300	0.777270
C1701	C170	0.485200	0.673300	0.773430
H1371	H137	0.438000	0.677700	0.761600
C1711	C171	0.483000	0.586200	0.787620
H1381	H138	0.431700	0.533200	0.785300
C1721	C172	0.620200	0.648500	0.807380
H1391	H139	0.667600	0.640500	0.819100
C1731	C173	0.628000	0.736500	0.794440
H1401	H140	0.681100	0.787300	0.797200
C1741	C174	0.552000	0.140500	0.779580
C1751	C175	0.483300	0.143900	0.796910
H1411	H141	0.440100	0.085100	0.800200
C1761	C176	0.478600	0.233600	0.809250
H1421	H142	0.429400	0.235900	0.820700
C1771	C177	0.608200	0.311900	0.789430
H1431	H143	0.654000	0.369700	0.787000
C1781	C178	0.615300	0.227300	0.776020
H1441	H144	0.663400	0.227900	0.764300
C1791	C179	0.651400	0.721700	0.724500
H1451	H145	0.689300	0.774600	0.716000
H1461	H146	0.641500	0.658100	0.715800
H1471	H147	0.692200	0.704400	0.737400
C1801	C180	0.458300	0.182300	0.728650
H1481	H148	0.413100	0.127000	0.722700
H1491	H149	0.465000	0.239500	0.718200
H1501	H150	0.427200	0.209500	0.742000
I111	I11	0.301800	0.556380	0.349130
I121	I12	0.662200	0.545930	0.340210
Cu111	Cu11	0.470110	0.550770	0.324700
Cu121	Cu12	0.495240	0.555230	0.365340
O211	O21	0.257900	0.031100	0.208460
O221	O22	0.631100	0.055400	0.207850
O231	O23	0.450200	0.236900	0.230770
O241	O24	0.441000	0.859800	0.233110
N211	N21	0.072900	0.997600	0.135660
N221	N22	0.816900	0.013900	0.134950
N231	N23	0.451600	0.425100	0.303930
N241	N24	0.460200	0.682000	0.305920
C1811	C181	0.445500	0.043200	0.207730
C1821	C182	0.350600	0.031000	0.196280
C1831	C183	0.351400	0.022700	0.174320
C1841	C184	0.444300	0.022300	0.163950
H1511	H151	0.443600	0.014300	0.148700
C1851	C185	0.541400	0.033000	0.174080
C1861	C186	0.537000	0.046600	0.196410
C1871	C187	0.251600	0.014200	0.161300
C1881	C188	0.240500	0.934400	0.145780
H1521	H152	0.294200	0.883300	0.143900
C1891	C189	0.152100	0.931100	0.133580
H1531	H153	0.146800	0.877800	0.122900
C1901	C190	0.082100	0.073100	0.150740
H1541	H154	0.026400	0.122200	0.152300
C1911	C191	0.167200	0.082600	0.163840
H1551	H155	0.169000	0.135400	0.174600
C1921	C192	0.638300	0.028600	0.161440
C1931	C193	0.651600	0.089300	0.142970
H1561	H156	0.599500	0.139500	0.139200
C1941	C194	0.738900	0.077600	0.130090
H1571	H157	0.743100	0.117200	0.117100
C1951	C195	0.807900	0.956500	0.153140
H1581	H158	0.862000	0.908100	0.156700
C1961	C196	0.722800	0.966100	0.166650
H1591	H159	0.722400	0.928700	0.179900
C1971	C197	0.207700	0.931100	0.210560
H1601	H160	0.177300	0.910600	0.196700
H1611	H161	0.151800	0.935700	0.221400
H1621	H162	0.259500	0.878500	0.215000
C1981	C198	0.677000	0.160100	0.206220
H1631	H163	0.683300	0.179800	0.191000
H1641	H164	0.746900	0.160100	0.212900
H1651	H165	0.631800	0.210900	0.213700
C1991	C199	0.444800	0.048600	0.231940
C2001	C200	0.444000	0.143600	0.242540
C2011	C201	0.439900	0.148300	0.265230
C2021	C202	0.442200	0.056300	0.276410
H1661	H166	0.442500	0.059300	0.291700
C2031	C203	0.444000	0.957600	0.266510
C2041	C204	0.442000	0.955400	0.244060
C2051	C205	0.442200	0.248700	0.277270
C2061	C206	0.514800	0.326700	0.273430
H1671	H167	0.562000	0.322300	0.261600
C2071	C207	0.517000	0.413800	0.287620
H1681	H168	0.568300	0.466800	0.285300
C2081	C208	0.379800	0.351500	0.307380
H1691	H169	0.332400	0.359500	0.319100
C2091	C209	0.372000	0.263500	0.294440
H1701	H170	0.318900	0.212700	0.297200
C2101	C210	0.448000	0.859500	0.279580
C2111	C211	0.516700	0.856100	0.296910
H1711	H171	0.559900	0.914900	0.300200
C2121	C212	0.521400	0.766400	0.309250
H1721	H172	0.570600	0.764100	0.320700
C2131	C213	0.391800	0.688100	0.289430
H1731	H173	0.346000	0.630300	0.287000
C2141	C214	0.384700	0.772700	0.276020
H1741	H174	0.336600	0.772100	0.264300
C2151	C215	0.348600	0.278300	0.224500
H1751	H175	0.310700	0.225400	0.216000
H1761	H176	0.358500	0.341900	0.215800
H1771	H177	0.307800	0.295600	0.237400
C2161	C216	0.541700	0.817700	0.228650
H1781	H178	0.586900	0.873000	0.222700
H1791	H179	0.535000	0.760500	0.218200
H1801	H180	0.572800	0.790500	0.242000
I131	I13	0.943620	0.801800	0.099130
I141	I14	0.954070	0.162200	0.090210
Cu131	Cu13	0.949230	0.970110	0.074700
Cu141	Cu14	0.944770	0.995240	0.115340
O251	O25	0.468900	0.757900	0.958460
O261	O26	0.444600	0.131100	0.957850
O271	O27	0.263100	0.950200	0.980770
O281	O28	0.640200	0.941000	0.983110
N251	N25	0.502400	0.572900	0.885660
N261	N26	0.486100	0.316900	0.884950
N271	N27	0.074900	0.951600	0.053930
N281	N28	0.818000	0.960200	0.055920
C2171	C217	0.456800	0.945500	0.957730
C2181	C218	0.469000	0.850600	0.946280
C2191	C219	0.477300	0.851400	0.924320
C2201	C220	0.477700	0.944300	0.913950
H1811	H181	0.485700	0.943600	0.898700
C2211	C221	0.467000	0.041400	0.924080
C2221	C222	0.453400	0.037000	0.946410
C2231	C223	0.485800	0.751600	0.911300
C2241	C224	0.565600	0.740500	0.895780
H1821	H182	0.616700	0.794200	0.893900
C2251	C225	0.568900	0.652100	0.883580
H1831	H183	0.622200	0.646800	0.872900
C2261	C226	0.426900	0.582100	0.900740
H1841	H184	0.377800	0.526400	0.902300
C2271	C227	0.417400	0.667200	0.913840
H1851	H185	0.364600	0.669000	0.924600
C2281	C228	0.471400	0.138300	0.911440
C2291	C229	0.410700	0.151600	0.892970
H1861	H186	0.360500	0.099500	0.889200
C2301	C230	0.422400	0.238900	0.880090
H1871	H187	0.382800	0.243100	0.867100
C2311	C231	0.543500	0.307900	0.903140
H1881	H188	0.591900	0.362000	0.906700
C2321	C232	0.533900	0.222800	0.916650
H1891	H189	0.571300	0.222400	0.929900
C2331	C233	0.568900	0.707700	0.960560
H1901	H190	0.589400	0.677300	0.946700
H1911	H191	0.564300	0.651800	0.971400
H1921	H192	0.621500	0.759500	0.965000
C2341	C234	0.339900	0.177000	0.956220
H1931	H193	0.320200	0.183300	0.941000
H1941	H194	0.339900	0.246900	0.962900
H1951	H195	0.289100	0.131800	0.963700
C2351	C235	0.451400	0.944800	0.981940
C2361	C236	0.356400	0.944000	0.992540
C2371	C237	0.351700	0.939900	0.015230
C2381	C238	0.443700	0.942200	0.026410
H1961	H196	0.440700	0.942500	0.041700
C2391	C239	0.542400	0.944000	0.016510
C2401	C240	0.544600	0.942000	0.994060
C2411	C241	0.251300	0.942200	0.027270
C2421	C242	0.173300	0.014800	0.023430
H1971	H197	0.177700	0.062000	0.011600
C2431	C243	0.086200	0.017000	0.037620
H1981	H198	0.033200	0.068300	0.035300
C2441	C244	0.148500	0.879800	0.057380
H1991	H199	0.140500	0.832400	0.069100
C2451	C245	0.236500	0.872000	0.044440
H2001	H200	0.287300	0.818900	0.047200
C2461	C246	0.640500	0.948000	0.029580
C2471	C247	0.643900	0.016700	0.046910
H2011	H201	0.585100	0.059900	0.050200
C2481	C248	0.733600	0.021400	0.059250
H2021	H202	0.735900	0.070600	0.070700
C2491	C249	0.811900	0.891800	0.039430
H2031	H203	0.869700	0.846000	0.037000
C2501	C250	0.727300	0.884700	0.026020
H2041	H204	0.727900	0.836600	0.014300
C2511	C251	0.221700	0.848600	0.974500
H2051	H205	0.274600	0.810700	0.966000
H2061	H206	0.158100	0.858500	0.965800
H2071	H207	0.204400	0.807800	0.987400
C2521	C252	0.682300	0.041700	0.978650
H2081	H208	0.627000	0.086900	0.972700
H2091	H209	0.739500	0.035000	0.968200
H2101	H210	0.709500	0.072800	0.992000
I151	I15	0.056380	0.198200	0.599130
I161	I16	0.045930	0.837800	0.590210
Cu151	Cu15	0.050770	0.029890	0.574700
Cu161	Cu16	0.055230	0.004760	0.615340
O291	O29	0.531100	0.242100	0.458460
O301	O30	0.555400	0.868900	0.457850
O311	O31	0.736900	0.049800	0.480770
O321	O32	0.359800	0.059000	0.483110
N291	N29	0.497600	0.427100	0.385660
N301	N30	0.513900	0.683100	0.384950
N311	N31	0.925100	0.048400	0.553930
N321	N32	0.182000	0.039800	0.555920
C2531	C253	0.543200	0.054500	0.457730
C2541	C254	0.531000	0.149400	0.446280
C2551	C255	0.522700	0.148600	0.424320
C2561	C256	0.522300	0.055700	0.413950
H2111	H211	0.514300	0.056400	0.398700
C2571	C257	0.533000	0.958600	0.424080
C2581	C258	0.546600	0.963000	0.446410
C2591	C259	0.514200	0.248400	0.411300
C2601	C260	0.434400	0.259500	0.395780
H2121	H212	0.383300	0.205800	0.393900
C2611	C261	0.431100	0.347900	0.383580
H2131	H213	0.377800	0.353200	0.372900
C2621	C262	0.573100	0.417900	0.400740
H2141	H214	0.622200	0.473600	0.402300
C2631	C263	0.582600	0.332800	0.413840
H2151	H215	0.635400	0.331000	0.424600
C2641	C264	0.528600	0.861700	0.411440
C2651	C265	0.589300	0.848400	0.392970
H2161	H216	0.639500	0.900500	0.389200
C2661	C266	0.577600	0.761100	0.380090
H2171	H217	0.617200	0.756900	0.367100
C2671	C267	0.456500	0.692100	0.403140
H2181	H218	0.408100	0.638000	0.406700
C2681	C268	0.466100	0.777200	0.416650
H2191	H219	0.428700	0.777600	0.429900
C2691	C269	0.431100	0.292300	0.460560
H2201	H220	0.410600	0.322700	0.446700
H2211	H221	0.435700	0.348200	0.471400
H2221	H222	0.378500	0.240500	0.465000
C2701	C270	0.660100	0.823000	0.456220
H2231	H223	0.679800	0.816700	0.441000
H2241	H224	0.660100	0.753100	0.462900
H2251	H225	0.710900	0.868200	0.463700
C2711	C271	0.548600	0.055200	0.481940
C2721	C272	0.643600	0.056000	0.492540
C2731	C273	0.648300	0.060100	0.515230
C2741	C274	0.556300	0.057800	0.526410
H2261	H226	0.559300	0.057500	0.541700
C2751	C275	0.457600	0.056000	0.516510
C2761	C276	0.455400	0.058000	0.494060
C2771	C277	0.748700	0.057800	0.527270
C2781	C278	0.826700	0.985200	0.523430
H2271	H227	0.822300	0.938000	0.511600
C2791	C279	0.913800	0.983000	0.537620
H2281	H228	0.966800	0.931700	0.535300
C2801	C280	0.851500	0.120200	0.557380
H2291	H229	0.859500	0.167600	0.569100
C2811	C281	0.763500	0.128000	0.544440
H2301	H230	0.712700	0.181100	0.547200
C2821	C282	0.359500	0.052000	0.529580
C2831	C283	0.356100	0.983300	0.546910
H2311	H231	0.414900	0.940100	0.550200
C2841	C284	0.266400	0.978600	0.559250
H2321	H232	0.264100	0.929400	0.570700
C2851	C285	0.188100	0.108200	0.539430
H2331	H233	0.130300	0.154000	0.537000
C2861	C286	0.272700	0.115300	0.526020
H2341	H234	0.272100	0.163400	0.514300
C2871	C287	0.778300	0.151400	0.474500
H2351	H235	0.725400	0.189300	0.466000
H2361	H236	0.841900	0.141500	0.465800
H2371	H237	0.795600	0.192200	0.487400
C2881	C288	0.317700	0.958300	0.478650
H2381	H238	0.373000	0.913100	0.472700
H2391	H239	0.260500	0.965000	0.468200
H2401	H240	0.290500	0.927200	0.492000
