data_KOYRAT_charged_PM
_symmetry_space_group_name_H-M	'P1'
_cell_length_a	14.514000
_cell_length_b	24.572000
_cell_length_c	22.314000
_cell_angle_alpha	90.000000
_cell_angle_beta	90.000000
_cell_angle_gamma	90.000000
_symmetry_Int_Tables_number 1

loop_
_symmetry_equiv_pos_as_xyz
'x,y,z'

loop_
_atom_site_label
_atom_site_type_symbol
_atom_site_fract_x
_atom_site_fract_y
_atom_site_fract_z
Zn11	Zn1	0.457730	0.844320	0.147910
Zn21	Zn2	0.042270	0.344320	0.147910
Zn31	Zn3	0.537570	0.841870	0.826220
Zn41	Zn4	0.962430	0.341870	0.826220
H11	H1	0.515100	0.374300	0.889400
H21	H2	0.546300	0.916500	0.513300
H31	H3	0.235600	0.131600	0.980700
H41	H4	0.834800	0.874300	0.851200
H51	H5	0.248200	0.319500	0.963900
H61	H6	0.594400	0.994700	0.171700
H71	H7	0.905600	0.494700	0.171700
H81	H8	0.148200	0.211600	0.983400
H91	H9	0.965400	0.269500	0.646400
H101	H10	0.112100	0.249000	0.359500
H111	H11	0.915500	0.189000	0.163500
H121	H12	0.509800	0.755400	0.544000
H131	H13	0.102900	0.828600	0.925000
H141	H14	0.683900	0.073900	0.171200
H151	H15	0.674700	0.610100	0.160900
H161	H16	0.397100	0.328600	0.925000
H171	H17	0.484300	0.390400	0.083600
H181	H18	0.284000	0.062300	0.803800
H191	H19	0.164600	0.881200	0.122500
H201	H20	0.733400	0.856700	0.019300
H211	H21	0.927000	0.393600	0.423900
H221	H22	0.351800	0.711600	0.983400
H231	H23	0.139400	0.099600	0.813900
H241	H24	0.387900	0.749000	0.359500
H251	H25	0.125300	0.483700	0.800000
H261	H26	0.534600	0.769500	0.646400
H271	H27	0.825300	0.110100	0.160900
H281	H28	0.665200	0.374300	0.851200
H291	H29	0.886300	0.486100	0.990700
H301	H30	0.573000	0.893600	0.423900
H311	H31	0.075600	0.258100	0.461100
H321	H32	0.015700	0.890400	0.083600
H331	H33	0.170500	0.458400	0.977100
H341	H34	0.424400	0.758100	0.461100
H351	H35	0.261300	0.537100	0.980900
H361	H36	0.616500	0.356700	0.057600
H371	H37	0.613700	0.986100	0.990700
H381	H38	0.788000	0.659600	0.004100
H391	H39	0.883500	0.856700	0.057600
H401	H40	0.374700	0.983700	0.800000
H411	H41	0.335400	0.381200	0.122500
H421	H42	0.584500	0.689000	0.163500
H431	H43	0.928800	0.430700	0.615700
H441	H44	0.697800	0.738500	0.006700
H451	H45	0.802200	0.238500	0.006700
H461	H46	0.984900	0.874300	0.889400
H471	H47	0.953700	0.416500	0.513300
H481	H48	0.963500	0.384500	0.322200
H491	H49	0.052000	0.179600	0.816600
H501	H50	0.703300	0.065300	0.990200
H511	H51	0.571200	0.930700	0.615700
H521	H52	0.238700	0.037100	0.980900
H531	H53	0.264400	0.631600	0.980700
H541	H54	0.990200	0.255400	0.544000
H551	H55	0.766600	0.356700	0.019300
H561	H56	0.329500	0.958400	0.977100
H571	H57	0.796700	0.565300	0.990200
H581	H58	0.360600	0.599600	0.813900
H591	H59	0.448000	0.679600	0.816600
H601	H60	0.712000	0.159600	0.004100
H611	H61	0.536500	0.884500	0.322200
H621	H62	0.816100	0.573900	0.171200
H631	H63	0.251800	0.819500	0.963900
H641	H64	0.216000	0.562300	0.803800
Ru11	Ru1	0.496340	0.845160	0.990400
Ru21	Ru2	0.003660	0.345160	0.990400
C11	C1	0.595600	0.983000	0.081200
C21	C2	0.360600	0.963640	0.888200
C31	C3	0.195700	0.108100	0.897000
C41	C4	0.693100	0.712400	0.038000
C51	C5	0.293200	0.041210	0.839000
C61	C6	0.063500	0.310800	0.269500
C71	C7	0.347100	0.994490	0.836700
C81	C8	0.535500	0.864300	0.410800
C91	C9	0.543900	0.886700	0.540300
C101	C10	0.320200	0.979500	0.941900
C111	C11	0.089300	0.169860	0.849900
C121	C12	0.183300	0.343100	0.068200
C131	C13	0.963000	0.299380	0.619400
C141	C14	0.655300	0.370720	0.893100
C151	C15	0.513800	0.858900	0.350400
C161	C16	0.874200	0.183000	0.131100
C171	C17	0.702000	0.077100	0.080600
C181	C18	0.669600	0.056100	0.134500
C191	C19	0.502200	0.826700	0.452100
C201	C20	0.844700	0.870720	0.893100
C211	C21	0.673000	0.862100	0.904300
C221	C22	0.681200	0.051000	0.027100
C231	C23	0.818800	0.551000	0.027100
C241	C24	0.233700	0.526210	0.944200
C251	C25	0.566200	0.370700	0.915800
C261	C26	0.139400	0.463640	0.888200
C271	C27	0.715500	0.360240	0.992900
C281	C28	0.948300	0.865500	0.977100
C291	C29	0.074500	0.278400	0.372500
C301	C30	0.679400	0.636100	0.129600
C311	C31	0.904400	0.483000	0.081200
C321	C32	0.316700	0.843100	0.068200
C331	C33	0.454700	0.360400	0.000600
C341	C34	0.537000	0.799380	0.619400
C351	C35	0.540700	0.930200	0.083300
C361	C36	0.933800	0.870700	0.915800
C371	C37	0.830400	0.556100	0.134500
C381	C38	0.353600	0.688870	0.949000
C391	C39	0.628000	0.003900	0.027400
C401	C40	0.266300	0.026210	0.944200
C411	C41	0.152100	0.870600	0.082400
C421	C42	0.413300	0.911400	0.888000
C431	C43	0.384600	0.339300	0.965100
C441	C44	0.806900	0.212400	0.038000
C451	C45	0.925600	0.272800	0.089000
C461	C46	0.115400	0.839300	0.965100
C471	C47	0.827000	0.362100	0.904300
C481	C48	0.974300	0.334600	0.519000
C491	C49	0.770000	0.865480	0.931600
C501	C50	0.632700	0.721140	0.085300
C511	C51	0.203800	0.833900	0.988200
C521	C52	0.522200	0.791000	0.558500
C531	C53	0.551700	0.365500	0.977100
C541	C54	0.820600	0.136100	0.129600
C551	C55	0.574400	0.772800	0.089000
C561	C56	0.977800	0.291000	0.558500
C571	C57	0.425500	0.778400	0.372500
C581	C58	0.152900	0.494490	0.836700
C591	C59	0.063600	0.876000	0.059300
C601	C60	0.141200	0.122350	0.848300
C611	C61	0.558700	0.895100	0.601200
C621	C62	0.625800	0.683000	0.131100
C631	C63	0.872000	0.503900	0.027400
C641	C64	0.939800	0.362700	0.705700
C651	C65	0.277800	0.349500	0.046900
C661	C66	0.730000	0.365480	0.931600
C671	C67	0.206800	0.541210	0.839000
C681	C68	0.560200	0.862700	0.705700
C691	C69	0.052800	0.283800	0.432900
C701	C70	0.458800	0.815900	0.331300
C711	C71	0.045300	0.860400	0.000600
C721	C72	0.410700	0.669860	0.849900
C731	C73	0.146400	0.188870	0.949000
C741	C74	0.944800	0.351430	0.640700
C751	C75	0.964500	0.364300	0.410800
C761	C76	0.626400	0.360200	0.015700
C771	C77	0.347900	0.370600	0.082400
C781	C78	0.086700	0.411400	0.888000
C791	C79	0.032300	0.255200	0.901800
C801	C80	0.959300	0.430200	0.083300
C811	C81	0.956100	0.386700	0.540300
C821	C82	0.616500	0.009000	0.134800
C831	C83	0.746700	0.665600	0.036400
C841	C84	0.739800	0.627400	0.082200
C851	C85	0.304300	0.608100	0.897000
C861	C86	0.467700	0.755200	0.901800
C871	C87	0.301700	0.641360	0.947400
C881	C88	0.986200	0.358900	0.350400
C891	C89	0.252800	0.057070	0.892700
C901	C90	0.296200	0.333900	0.988200
C911	C91	0.091900	0.203130	0.900300
C921	C92	0.760200	0.127400	0.082200
C931	C93	0.447200	0.783800	0.432900
C941	C94	0.753300	0.165600	0.036400
C951	C95	0.222200	0.849500	0.046900
C961	C96	0.041200	0.315900	0.331300
C971	C97	0.784500	0.860240	0.992900
C981	C98	0.436400	0.376000	0.059300
C991	C99	0.525700	0.834600	0.519000
C1001	C100	0.798000	0.577100	0.080600
C1011	C101	0.555200	0.851430	0.640700
C1021	C102	0.883500	0.509000	0.134800
C1031	C103	0.436500	0.810800	0.269500
C1041	C104	0.873600	0.860200	0.015700
C1051	C105	0.941300	0.395100	0.601200
C1061	C106	0.358800	0.622350	0.848300
C1071	C107	0.997800	0.326700	0.452100
C1081	C108	0.247200	0.557070	0.892700
C1091	C109	0.408100	0.703130	0.900300
C1101	C110	0.179800	0.479500	0.941900
C1111	C111	0.198300	0.141360	0.947400
C1121	C112	0.867300	0.221140	0.085300
O11	O1	0.998300	0.419100	0.033800
O21	O2	0.330400	0.856300	0.123700
O31	O3	0.490500	0.770300	0.950600
O41	O4	0.541700	0.824500	0.740900
O51	O5	0.906900	0.407400	0.721800
O61	O6	0.587300	0.809000	0.050400
O71	O7	0.092800	0.378100	0.926800
O81	O8	0.889400	0.371100	0.941000
O91	O9	0.462800	0.850500	0.233600
O101	O10	0.971200	0.409000	0.131000
O111	O11	0.038300	0.405500	0.837400
O121	O12	0.123800	0.321200	0.036600
O131	O13	0.104300	0.268600	0.248900
O141	O14	0.912700	0.309000	0.050400
O151	O15	0.376200	0.821200	0.036600
O161	O16	0.958300	0.324500	0.740900
O171	O17	0.407200	0.878100	0.926800
O181	O18	0.665700	0.851700	0.852800
O191	O19	0.982600	0.275100	0.130500
O201	O20	0.610600	0.871100	0.941000
O211	O21	0.395700	0.768600	0.248900
O221	O22	0.461700	0.905500	0.837400
O231	O23	0.480800	0.775100	0.850300
O241	O24	0.009500	0.270300	0.950600
O251	O25	0.834300	0.351700	0.852800
O261	O26	0.037200	0.350500	0.233600
O271	O27	0.517400	0.775100	0.130500
O281	O28	0.019200	0.275100	0.850300
O291	O29	0.528800	0.909000	0.131000
O301	O30	0.169600	0.356300	0.123700
O311	O31	0.501700	0.919100	0.033800
O321	O32	0.593100	0.907400	0.721800
Zn51	Zn5	0.957730	0.655680	0.647910
Zn61	Zn6	0.037570	0.658130	0.326220
Zn71	Zn7	0.542270	0.155680	0.647910
Zn81	Zn8	0.462430	0.158130	0.326220
H651	H65	0.465400	0.230500	0.146400
H661	H66	0.183900	0.426100	0.671200
H671	H67	0.071200	0.569300	0.115700
H681	H68	0.829500	0.541600	0.477100
H691	H69	0.924400	0.741900	0.961100
H701	H70	0.325300	0.389900	0.660900
H711	H71	0.233400	0.643300	0.519300
H721	H72	0.735600	0.368400	0.480700
H731	H73	0.887900	0.751000	0.859500
H741	H74	0.174700	0.889900	0.660900
H751	H75	0.784000	0.437700	0.303800
H761	H76	0.116500	0.143300	0.557600
H771	H77	0.625300	0.016300	0.300000
H781	H78	0.383500	0.643300	0.557600
H791	H79	0.515700	0.609600	0.583600
H801	H80	0.738700	0.462900	0.480900
H811	H81	0.316100	0.926100	0.671200
H821	H82	0.386300	0.013900	0.490700
H831	H83	0.860600	0.900400	0.313900
H841	H84	0.874700	0.516300	0.300000
H851	H85	0.761300	0.962900	0.480900
H861	H86	0.073000	0.606400	0.923900
H871	H87	0.670500	0.041600	0.477100
H881	H88	0.716000	0.937700	0.303800
H891	H89	0.302200	0.261500	0.506700
H901	H90	0.094400	0.505300	0.671700
H911	H91	0.084500	0.811000	0.663500
H921	H92	0.034600	0.730500	0.146400
H931	H93	0.334800	0.625700	0.351200
H941	H94	0.212000	0.340400	0.504100
H951	H95	0.552000	0.320400	0.316600
H961	H96	0.015100	0.125700	0.389400
H971	H97	0.113700	0.513900	0.490700
H981	H98	0.897100	0.171400	0.425000
H991	H99	0.835400	0.118800	0.622500
H1001	H100	0.751800	0.680500	0.463900
H1011	H101	0.484900	0.625700	0.389400
H1021	H102	0.036500	0.615500	0.822200
H1031	H103	0.288000	0.840400	0.504100
H1041	H104	0.296700	0.934700	0.490200
H1051	H105	0.664600	0.618800	0.622500
H1061	H106	0.405600	0.005300	0.671700
H1071	H107	0.463500	0.115500	0.822200
H1081	H108	0.648200	0.288400	0.483400
H1091	H109	0.984300	0.109600	0.583600
H1101	H110	0.612100	0.251000	0.859500
H1111	H111	0.046300	0.583500	0.013300
H1121	H112	0.197800	0.761500	0.506700
H1131	H113	0.415500	0.311000	0.663500
H1141	H114	0.851800	0.788400	0.483400
H1151	H115	0.748200	0.180500	0.463900
H1161	H116	0.165200	0.125700	0.351200
H1171	H117	0.428800	0.069300	0.115700
H1181	H118	0.602900	0.671400	0.425000
H1191	H119	0.453700	0.083500	0.013300
H1201	H120	0.490200	0.244600	0.044000
H1211	H121	0.427000	0.106400	0.923900
H1221	H122	0.639400	0.400400	0.313900
H1231	H123	0.203300	0.434700	0.490200
H1241	H124	0.266600	0.143300	0.519300
H1251	H125	0.575600	0.241900	0.961100
H1261	H126	0.948000	0.820400	0.316600
H1271	H127	0.009800	0.744600	0.044000
H1281	H128	0.764400	0.868400	0.480700
Ru31	Ru3	0.996340	0.654840	0.490400
Ru41	Ru4	0.503660	0.154840	0.490400
C1131	C113	0.967700	0.744800	0.401800
C1141	C114	0.910700	0.830140	0.349900
C1151	C115	0.116500	0.491000	0.634800
C1161	C116	0.066200	0.129300	0.415800
C1171	C117	0.327000	0.137900	0.404300
C1181	C118	0.703800	0.666100	0.488200
C1191	C119	0.860600	0.536360	0.388200
C1201	C120	0.095600	0.517000	0.581200
C1211	C121	0.947200	0.716200	0.932900
C1221	C122	0.051700	0.134500	0.477100
C1231	C123	0.847900	0.129400	0.582400
C1241	C124	0.652900	0.005510	0.336700
C1251	C125	0.239800	0.872600	0.582200
C1261	C126	0.035500	0.635700	0.910800
C1271	C127	0.058700	0.604900	0.101200
C1281	C128	0.448300	0.634500	0.477100
C1291	C129	0.173000	0.637900	0.404300
C1301	C130	0.541200	0.184100	0.831300
C1311	C131	0.373600	0.639800	0.515700
C1321	C132	0.155300	0.129280	0.393100
C1331	C133	0.074400	0.727200	0.589000
C1341	C134	0.954700	0.139600	0.500600
C1351	C135	0.820200	0.520500	0.441900
C1361	C136	0.055200	0.648570	0.140700
C1371	C137	0.652100	0.629400	0.582400
C1381	C138	0.439800	0.137300	0.205700
C1391	C139	0.425600	0.227200	0.589000
C1401	C140	0.464500	0.135700	0.910800
C1411	C141	0.766300	0.473790	0.444200
C1421	C142	0.298000	0.922900	0.580600
C1431	C143	0.925500	0.721600	0.872500
C1441	C144	0.722200	0.650500	0.546900
C1451	C145	0.793200	0.458790	0.339000
C1461	C146	0.433800	0.629300	0.415800
C1471	C147	0.545300	0.639600	0.500600
C1481	C148	0.246700	0.834400	0.536400
C1491	C149	0.936400	0.124000	0.559300
C1501	C150	0.022200	0.709000	0.058500
C1511	C151	0.270000	0.634520	0.431600
C1521	C152	0.330400	0.943900	0.634500
C1531	C153	0.615400	0.660700	0.465100
C1541	C154	0.456100	0.113300	0.040300
C1551	C155	0.477800	0.209000	0.058500
C1561	C156	0.320600	0.363900	0.629600
C1571	C157	0.253300	0.334400	0.536400
C1581	C158	0.367300	0.278860	0.585300
C1591	C159	0.025700	0.665400	0.019000
C1601	C160	0.284500	0.639760	0.492900
C1611	C161	0.497800	0.173300	0.952100
C1621	C162	0.591900	0.296870	0.400300
C1631	C163	0.002200	0.673300	0.952100
C1641	C164	0.552800	0.216200	0.932900
C1651	C165	0.908100	0.796870	0.400300
C1661	C166	0.441300	0.104900	0.101200
C1671	C167	0.574500	0.221600	0.872500
C1681	C168	0.853600	0.811130	0.449000
C1691	C169	0.563600	0.624000	0.559300
C1701	C170	0.230000	0.134520	0.431600
C1711	C171	0.679800	0.020500	0.441900
C1721	C172	0.958800	0.684100	0.831300
C1731	C173	0.913300	0.588600	0.388000
C1741	C174	0.306900	0.287600	0.538000
C1751	C175	0.733700	0.973790	0.444200
C1761	C176	0.459300	0.069800	0.583300
C1771	C177	0.706800	0.958790	0.339000
C1781	C178	0.683300	0.156900	0.568200
C1791	C179	0.169600	0.443900	0.634500
C1801	C180	0.796200	0.166100	0.488200
C1811	C181	0.193100	0.787600	0.538000
C1821	C182	0.847100	0.505510	0.336700
C1831	C183	0.318800	0.949000	0.527100
C1841	C184	0.563500	0.189200	0.769500
C1851	C185	0.586700	0.088600	0.388000
C1861	C186	0.641200	0.377650	0.348300
C1871	C187	0.040700	0.569800	0.583300
C1881	C188	0.126400	0.139800	0.515700
C1891	C189	0.128000	0.496100	0.527400
C1901	C190	0.777800	0.150500	0.546900
C1911	C191	0.372000	0.996100	0.527400
C1921	C192	0.474300	0.165400	0.019000
C1931	C193	0.013800	0.641100	0.850400
C1941	C194	0.747200	0.942930	0.392700
C1951	C195	0.486200	0.141100	0.850400
C1961	C196	0.202000	0.422900	0.580600
C1971	C197	0.884600	0.160700	0.465100
C1981	C198	0.132700	0.778860	0.585300
C1991	C199	0.752800	0.442930	0.392700
C2001	C200	0.695700	0.391900	0.397000
C2011	C201	0.532300	0.244800	0.401800
C2021	C202	0.936500	0.689200	0.769500
C2031	C203	0.646400	0.311130	0.449000
C2041	C204	0.383500	0.991000	0.634800
C2051	C205	0.639400	0.036360	0.388200
C2061	C206	0.404400	0.017000	0.581200
C2071	C207	0.444800	0.148570	0.140700
C2081	C208	0.804300	0.891900	0.397000
C2091	C209	0.125800	0.817000	0.631100
C2101	C210	0.179400	0.863900	0.629600
C2111	C211	0.181200	0.449000	0.527100
C2121	C212	0.374200	0.317000	0.631100
C2131	C213	0.816700	0.656900	0.568200
C2141	C214	0.043900	0.613300	0.040300
C2151	C215	0.589300	0.330140	0.349900
C2161	C216	0.037000	0.700620	0.119400
C2171	C217	0.215500	0.139760	0.492900
C2181	C218	0.344700	0.629280	0.393100
C2191	C219	0.801700	0.858640	0.447400
C2201	C220	0.698300	0.358640	0.447400
C2211	C221	0.463000	0.200620	0.119400
C2221	C222	0.060200	0.637300	0.205700
C2231	C223	0.858800	0.877650	0.348300
C2241	C224	0.260200	0.372600	0.582200
O331	O33	0.604300	0.231400	0.748900
O341	O34	0.876200	0.678800	0.536600
O351	O35	0.623800	0.178800	0.536600
O361	O36	0.001700	0.580900	0.533800
O371	O37	0.962800	0.649500	0.733600
O381	O38	0.907200	0.621900	0.426800
O391	O39	0.980800	0.724900	0.350300
O401	O40	0.498300	0.080900	0.533800
O411	O41	0.509500	0.229700	0.450600
O421	O42	0.961700	0.594500	0.337400
O431	O43	0.412700	0.191000	0.550400
O441	O44	0.990500	0.729700	0.450600
O451	O45	0.017400	0.724900	0.630500
O461	O46	0.538300	0.094500	0.337400
O471	O47	0.165700	0.648300	0.352800
O481	O48	0.458300	0.175500	0.240900
O491	O49	0.592800	0.121900	0.426800
O501	O50	0.087300	0.691000	0.550400
O511	O51	0.471200	0.091000	0.631000
O521	O52	0.110600	0.628900	0.441000
O531	O53	0.519200	0.224900	0.350300
O541	O54	0.895700	0.731400	0.748900
O551	O55	0.334300	0.148300	0.352800
O561	O56	0.389400	0.128900	0.441000
O571	O57	0.830400	0.643700	0.623700
O581	O58	0.406900	0.092600	0.221800
O591	O59	0.041700	0.675500	0.240900
O601	O60	0.482600	0.224900	0.630500
O611	O61	0.028800	0.591000	0.631000
O621	O62	0.093100	0.592600	0.221800
O631	O63	0.669600	0.143700	0.623700
O641	O64	0.537200	0.149500	0.733600
H1291	H129	0.253500	0.731400	0.150600
H1301	H130	0.379900	0.636300	0.236800
H1311	H131	0.396300	0.712800	0.184300
H1321	H132	0.262600	0.680300	0.106500
H1331	H133	0.404700	0.666000	0.143800
H1341	H134	0.327600	0.732300	0.097500
H1351	H135	0.295600	0.619800	0.194300
H1361	H136	0.286500	0.670900	0.238400
C2251	C225	0.296600	0.709300	0.127100
C2261	C226	0.329000	0.650300	0.212700
N11	N1	0.364200	0.685500	0.166500
H1371	H137	0.155600	0.437300	0.264000
H1381	H138	0.142200	0.530200	0.385000
H1391	H139	0.129800	0.482500	0.215100
H1401	H140	0.199500	0.520800	0.293100
H1411	H141	0.104900	0.541300	0.289100
H1421	H142	0.060100	0.489900	0.367100
H1431	H143	0.163400	0.467500	0.371500
H1441	H144	0.052300	0.459700	0.259500
C2271	C227	0.118000	0.469400	0.255800
C2281	C228	0.125000	0.498800	0.360400
N21	N2	0.139300	0.511400	0.298200
H1451	H145	0.870200	0.517500	0.715100
H1461	H146	0.947700	0.540300	0.759500
H1471	H147	0.857800	0.469800	0.885000
H1481	H148	0.844400	0.562700	0.764000
H1491	H149	0.800500	0.479200	0.793100
H1501	H150	0.836600	0.532500	0.871500
H1511	H151	0.939900	0.510100	0.867100
H1521	H152	0.895100	0.458700	0.789100
C2291	C229	0.882000	0.530600	0.755800
C2301	C230	0.875000	0.501200	0.860400
N31	N3	0.860700	0.488600	0.798200
H1531	H153	0.246500	0.231400	0.150600
H1541	H154	0.103700	0.212800	0.184300
H1551	H155	0.213500	0.170900	0.238400
H1561	H156	0.237400	0.180300	0.106500
H1571	H157	0.172400	0.232300	0.097500
H1581	H158	0.120100	0.136300	0.236800
H1591	H159	0.204400	0.119800	0.194300
H1601	H160	0.095300	0.166000	0.143800
C2311	C231	0.203400	0.209300	0.127100
C2321	C232	0.171000	0.150300	0.212700
N41	N4	0.135800	0.185500	0.166500
H1611	H161	0.370200	0.982500	0.215100
H1621	H162	0.357800	0.030200	0.385000
H1631	H163	0.336600	0.967500	0.371500
H1641	H164	0.447700	0.959700	0.259500
H1651	H165	0.395100	0.041300	0.289100
H1661	H166	0.300500	0.020800	0.293100
H1671	H167	0.439900	0.989900	0.367100
H1681	H168	0.344400	0.937300	0.264000
C2331	C233	0.375000	0.998800	0.360400
C2341	C234	0.382000	0.969400	0.255800
N51	N5	0.360700	0.011400	0.298200
H1691	H169	0.879900	0.863700	0.736800
H1701	H170	0.786500	0.829100	0.738400
H1711	H171	0.762600	0.819700	0.606500
H1721	H172	0.753500	0.768600	0.650600
H1731	H173	0.896300	0.787200	0.684300
H1741	H174	0.795600	0.880200	0.694300
H1751	H175	0.904700	0.834000	0.643800
H1761	H176	0.827600	0.767700	0.597500
C2351	C235	0.829000	0.849700	0.712700
C2361	C236	0.796600	0.790700	0.627100
N61	N6	0.864200	0.814500	0.666500
H1771	H177	0.704400	0.380200	0.694300
H1781	H178	0.746500	0.268600	0.650600
H1791	H179	0.620100	0.363700	0.736800
H1801	H180	0.595300	0.334000	0.643800
H1811	H181	0.713500	0.329100	0.738400
H1821	H182	0.603700	0.287200	0.684300
H1831	H183	0.737400	0.319700	0.606500
H1841	H184	0.672400	0.267700	0.597500
C2371	C237	0.703400	0.290700	0.627100
C2381	C238	0.671000	0.349700	0.712700
N71	N7	0.635800	0.314500	0.666500
H1851	H185	0.699500	0.979200	0.793100
H1861	H186	0.552300	0.040300	0.759500
H1871	H187	0.663400	0.032500	0.871500
H1881	H188	0.560100	0.010100	0.867100
H1891	H189	0.604900	0.958700	0.789100
H1901	H190	0.629800	0.017500	0.715100
H1911	H191	0.642200	0.969800	0.885000
H1921	H192	0.655600	0.062700	0.764000
C2391	C239	0.618000	0.030600	0.755800
C2401	C240	0.625000	0.001200	0.860400
N81	N8	0.639300	0.988600	0.798200
