data_KPACCE10_clean_PM
_symmetry_space_group_name_H-M	'P1'
_cell_length_a	20.550000
_cell_length_b	14.190000
_cell_length_c	6.710000
_cell_angle_alpha	90.000000
_cell_angle_beta	101.350000
_cell_angle_gamma	90.000000
_symmetry_Int_Tables_number 1

loop_
_symmetry_equiv_pos_as_xyz
'x,y,z'

loop_
_atom_site_label
_atom_site_type_symbol
_atom_site_fract_x
_atom_site_fract_y
_atom_site_fract_z
Ce11	Ce1	0.284600	0.599100	0.521000
C11	C1	0.378000	0.441000	0.582000
C21	C2	0.435000	0.370000	0.616000
C31	C3	0.192000	0.452000	0.543000
C41	C4	0.386000	0.734000	0.489000
C51	C5	0.441000	0.814000	0.468000
C61	C6	0.272000	0.659000	0.002000
C71	C7	0.136000	0.729000	0.448000
C81	C8	0.084000	0.653000	0.486000
O11	O1	0.348000	0.468000	0.414000
O21	O2	0.360000	0.477000	0.720000
O31	O3	0.208000	0.493000	0.713000
O41	O4	0.203000	0.477000	0.385000
O51	O5	0.406000	0.650000	0.522000
O61	O6	0.331000	0.762000	0.462000
O71	O7	0.277000	0.603000	0.161000
O81	O8	0.298000	0.647000	0.843000
O91	O9	0.119000	0.816000	0.413000
O101	O10	0.195000	0.699000	0.488000
K11	K1	0.237800	0.901600	0.446900
K21	K2	0.411200	0.537000	0.100200
O111	O11	0.495000	0.611000	0.841000
Ce21	Ce2	0.215400	0.099100	0.979000
C91	C9	0.122000	0.941000	0.918000
C101	C10	0.065000	0.870000	0.884000
C111	C11	0.308000	0.952000	0.957000
C121	C12	0.114000	0.234000	0.011000
C131	C13	0.059000	0.314000	0.032000
C141	C14	0.228000	0.159000	0.498000
C151	C15	0.364000	0.229000	0.052000
C161	C16	0.416000	0.153000	0.014000
O121	O12	0.152000	0.968000	0.086000
O131	O13	0.140000	0.977000	0.780000
O141	O14	0.292000	0.993000	0.787000
O151	O15	0.297000	0.977000	0.115000
O161	O16	0.094000	0.150000	0.978000
O171	O17	0.169000	0.262000	0.038000
O181	O18	0.223000	0.103000	0.339000
O191	O19	0.202000	0.147000	0.657000
O201	O20	0.381000	0.316000	0.087000
O211	O21	0.305000	0.199000	0.012000
K31	K3	0.262200	0.401600	0.053100
K41	K4	0.088800	0.037000	0.399800
O221	O22	0.005000	0.111000	0.659000
Ce31	Ce3	0.715400	0.400900	0.479000
C171	C17	0.622000	0.559000	0.418000
C181	C18	0.565000	0.630000	0.384000
C191	C19	0.808000	0.548000	0.457000
C201	C20	0.614000	0.266000	0.511000
C211	C21	0.559000	0.186000	0.532000
C221	C22	0.728000	0.341000	0.998000
C231	C23	0.864000	0.271000	0.552000
C241	C24	0.916000	0.347000	0.514000
O231	O23	0.652000	0.532000	0.586000
O241	O24	0.640000	0.523000	0.280000
O251	O25	0.792000	0.507000	0.287000
O261	O26	0.797000	0.523000	0.615000
O271	O27	0.594000	0.350000	0.478000
O281	O28	0.669000	0.238000	0.538000
O291	O29	0.723000	0.397000	0.839000
O301	O30	0.702000	0.353000	0.157000
O311	O31	0.881000	0.184000	0.587000
O321	O32	0.805000	0.301000	0.512000
K51	K5	0.762200	0.098400	0.553100
K61	K6	0.588800	0.463000	0.899800
O331	O33	0.505000	0.389000	0.159000
Ce41	Ce4	0.784600	0.900900	0.021000
C251	C25	0.878000	0.059000	0.082000
C261	C26	0.935000	0.130000	0.116000
C271	C27	0.692000	0.048000	0.043000
C281	C28	0.886000	0.766000	0.989000
C291	C29	0.941000	0.686000	0.968000
C301	C30	0.772000	0.841000	0.502000
C311	C31	0.636000	0.771000	0.948000
C321	C32	0.584000	0.847000	0.986000
O341	O34	0.848000	0.032000	0.914000
O351	O35	0.860000	0.023000	0.220000
O361	O36	0.708000	0.007000	0.213000
O371	O37	0.703000	0.023000	0.885000
O381	O38	0.906000	0.850000	0.022000
O391	O39	0.831000	0.738000	0.962000
O401	O40	0.777000	0.897000	0.661000
O411	O41	0.798000	0.853000	0.343000
O421	O42	0.619000	0.684000	0.913000
O431	O43	0.695000	0.801000	0.988000
K71	K7	0.737800	0.598400	0.946900
K81	K8	0.911200	0.963000	0.600200
O441	O44	0.995000	0.889000	0.341000
