data_KUCDIW_clean_PM
_symmetry_space_group_name_H-M	'P1'
_cell_length_a	26.815200
_cell_length_b	26.815200
_cell_length_c	26.815200
_cell_angle_alpha	90.000000
_cell_angle_beta	90.000000
_cell_angle_gamma	90.000000
_symmetry_Int_Tables_number 1

loop_
_symmetry_equiv_pos_as_xyz
'x,y,z'

loop_
_atom_site_label
_atom_site_type_symbol
_atom_site_fract_x
_atom_site_fract_y
_atom_site_fract_z
Cu11	Cu1	0.753280	0.610490	0.891580
Cu21	Cu2	0.246720	0.389510	0.891580
Cu31	Cu3	0.246720	0.610490	0.108420
Cu41	Cu4	0.753280	0.389510	0.108420
Cu51	Cu5	0.891580	0.753280	0.610490
Cu61	Cu6	0.891580	0.246720	0.389510
Cu71	Cu7	0.108420	0.246720	0.610490
Cu81	Cu8	0.108420	0.753280	0.389510
Cu91	Cu9	0.610490	0.891580	0.753280
Cu101	Cu10	0.389510	0.891580	0.246720
Cu111	Cu11	0.610490	0.108420	0.246720
Cu121	Cu12	0.389510	0.108420	0.753280
Cu131	Cu13	0.610490	0.753280	0.108420
Cu141	Cu14	0.389510	0.246720	0.108420
Cu151	Cu15	0.610490	0.246720	0.891580
Cu161	Cu16	0.389510	0.753280	0.891580
Cu171	Cu17	0.753280	0.891580	0.389510
Cu181	Cu18	0.246720	0.891580	0.610490
Cu191	Cu19	0.246720	0.108420	0.389510
Cu201	Cu20	0.753280	0.108420	0.610490
Cu211	Cu21	0.891580	0.610490	0.246720
Cu221	Cu22	0.891580	0.389510	0.753280
Cu231	Cu23	0.108420	0.610490	0.753280
Cu241	Cu24	0.108420	0.389510	0.246720
B11	B1	0.901100	0.598860	0.750920
B21	B2	0.098900	0.401140	0.750920
B31	B3	0.098900	0.598860	0.249080
B41	B4	0.901100	0.401140	0.249080
B51	B5	0.750920	0.901100	0.598860
B61	B6	0.750920	0.098900	0.401140
B71	B7	0.249080	0.098900	0.598860
B81	B8	0.249080	0.901100	0.401140
B91	B9	0.598860	0.750920	0.901100
B101	B10	0.401140	0.750920	0.098900
B111	B11	0.598860	0.249080	0.098900
B121	B12	0.401140	0.249080	0.901100
B131	B13	0.598860	0.901100	0.249080
B141	B14	0.401140	0.098900	0.249080
B151	B15	0.598860	0.098900	0.750920
B161	B16	0.401140	0.901100	0.750920
B171	B17	0.901100	0.750920	0.401140
B181	B18	0.098900	0.750920	0.598860
B191	B19	0.098900	0.249080	0.401140
B201	B20	0.901100	0.249080	0.598860
B211	B21	0.750920	0.598860	0.098900
B221	B22	0.750920	0.401140	0.901100
B231	B23	0.249080	0.598860	0.901100
B241	B24	0.249080	0.401140	0.098900
H11	H1	0.813900	0.573200	0.804100
H21	H2	0.896900	0.695900	0.801800
H31	H3	0.837800	0.752700	0.861700
H41	H4	0.785100	0.728000	0.874900
H51	H5	0.832700	0.717000	0.909300
H61	H6	0.929200	0.499000	0.775600
H71	H7	0.816200	0.557300	0.699300
H81	H8	0.766900	0.474000	0.680200
H91	H9	0.806300	0.429800	0.672100
H101	H10	0.775900	0.433700	0.723300
H111	H11	0.877900	0.697100	0.712200
H121	H12	0.931300	0.572900	0.651400
H131	H13	0.946800	0.604200	0.560700
H141	H14	0.902000	0.640800	0.545900
H151	H15	0.956000	0.663100	0.558200
H161	H16	0.999300	0.620300	0.717200
H171	H17	0.945400	0.574300	0.847000
H181	H18	0.071200	0.606200	0.876100
H191	H19	0.030500	0.568500	0.897800
H201	H20	0.072800	0.548600	0.860800
H211	H21	0.186100	0.426800	0.804100
H221	H22	0.103100	0.304100	0.801800
H231	H23	0.162200	0.247300	0.861700
H241	H24	0.214900	0.272000	0.874900
H251	H25	0.167300	0.283000	0.909300
H261	H26	0.070800	0.501000	0.775600
H271	H27	0.183800	0.442700	0.699300
H281	H28	0.233100	0.526000	0.680200
H291	H29	0.193700	0.570200	0.672100
H301	H30	0.224100	0.566300	0.723300
H311	H31	0.122100	0.302900	0.712200
H321	H32	0.068700	0.427100	0.651400
H331	H33	0.053200	0.395800	0.560700
H341	H34	0.098000	0.359200	0.545900
H351	H35	0.044000	0.336900	0.558200
H361	H36	0.000700	0.379700	0.717200
H371	H37	0.054600	0.425700	0.847000
H381	H38	0.928800	0.393800	0.876100
H391	H39	0.969500	0.431500	0.897800
H401	H40	0.927200	0.451400	0.860800
H411	H41	0.186100	0.573200	0.195900
H421	H42	0.103100	0.695900	0.198200
H431	H43	0.162200	0.752700	0.138300
H441	H44	0.214900	0.728000	0.125100
H451	H45	0.167300	0.717000	0.090700
H461	H46	0.070800	0.499000	0.224400
H471	H47	0.183800	0.557300	0.300700
H481	H48	0.233100	0.474000	0.319800
H491	H49	0.193700	0.429800	0.327900
H501	H50	0.224100	0.433700	0.276700
H511	H51	0.122100	0.697100	0.287800
H521	H52	0.068700	0.572900	0.348600
H531	H53	0.053200	0.604200	0.439300
H541	H54	0.098000	0.640800	0.454100
H551	H55	0.044000	0.663100	0.441800
H561	H56	0.000700	0.620300	0.282800
H571	H57	0.054600	0.574300	0.153000
H581	H58	0.928800	0.606200	0.123900
H591	H59	0.969500	0.568500	0.102200
H601	H60	0.927200	0.548600	0.139200
H611	H61	0.813900	0.426800	0.195900
H621	H62	0.896900	0.304100	0.198200
H631	H63	0.837800	0.247300	0.138300
H641	H64	0.785100	0.272000	0.125100
H651	H65	0.832700	0.283000	0.090700
H661	H66	0.929200	0.501000	0.224400
H671	H67	0.816200	0.442700	0.300700
H681	H68	0.766900	0.526000	0.319800
H691	H69	0.806300	0.570200	0.327900
H701	H70	0.775900	0.566300	0.276700
H711	H71	0.877900	0.302900	0.287800
H721	H72	0.931300	0.427100	0.348600
H731	H73	0.946800	0.395800	0.439300
H741	H74	0.902000	0.359200	0.454100
H751	H75	0.956000	0.336900	0.441800
H761	H76	0.999300	0.379700	0.282800
H771	H77	0.945400	0.425700	0.153000
H781	H78	0.071200	0.393800	0.123900
H791	H79	0.030500	0.431500	0.102200
H801	H80	0.072800	0.451400	0.139200
H811	H81	0.804100	0.813900	0.573200
H821	H82	0.801800	0.896900	0.695900
H831	H83	0.861700	0.837800	0.752700
H841	H84	0.874900	0.785100	0.728000
H851	H85	0.909300	0.832700	0.717000
H861	H86	0.775600	0.929200	0.499000
H871	H87	0.699300	0.816200	0.557300
H881	H88	0.680200	0.766900	0.474000
H891	H89	0.672100	0.806300	0.429800
H901	H90	0.723300	0.775900	0.433700
H911	H91	0.712200	0.877900	0.697100
H921	H92	0.651400	0.931300	0.572900
H931	H93	0.560700	0.946800	0.604200
H941	H94	0.545900	0.902000	0.640800
H951	H95	0.558200	0.956000	0.663100
H961	H96	0.717200	0.999300	0.620300
H971	H97	0.847000	0.945400	0.574300
H981	H98	0.876100	0.071200	0.606200
H991	H99	0.897800	0.030500	0.568500
H1001	H100	0.860800	0.072800	0.548600
H1011	H101	0.804100	0.186100	0.426800
H1021	H102	0.801800	0.103100	0.304100
H1031	H103	0.861700	0.162200	0.247300
H1041	H104	0.874900	0.214900	0.272000
H1051	H105	0.909300	0.167300	0.283000
H1061	H106	0.775600	0.070800	0.501000
H1071	H107	0.699300	0.183800	0.442700
H1081	H108	0.680200	0.233100	0.526000
H1091	H109	0.672100	0.193700	0.570200
H1101	H110	0.723300	0.224100	0.566300
H1111	H111	0.712200	0.122100	0.302900
H1121	H112	0.651400	0.068700	0.427100
H1131	H113	0.560700	0.053200	0.395800
H1141	H114	0.545900	0.098000	0.359200
H1151	H115	0.558200	0.044000	0.336900
H1161	H116	0.717200	0.000700	0.379700
H1171	H117	0.847000	0.054600	0.425700
H1181	H118	0.876100	0.928800	0.393800
H1191	H119	0.897800	0.969500	0.431500
H1201	H120	0.860800	0.927200	0.451400
H1211	H121	0.195900	0.186100	0.573200
H1221	H122	0.198200	0.103100	0.695900
H1231	H123	0.138300	0.162200	0.752700
H1241	H124	0.125100	0.214900	0.728000
H1251	H125	0.090700	0.167300	0.717000
H1261	H126	0.224400	0.070800	0.499000
H1271	H127	0.300700	0.183800	0.557300
H1281	H128	0.319800	0.233100	0.474000
H1291	H129	0.327900	0.193700	0.429800
H1301	H130	0.276700	0.224100	0.433700
H1311	H131	0.287800	0.122100	0.697100
H1321	H132	0.348600	0.068700	0.572900
H1331	H133	0.439300	0.053200	0.604200
H1341	H134	0.454100	0.098000	0.640800
H1351	H135	0.441800	0.044000	0.663100
H1361	H136	0.282800	0.000700	0.620300
H1371	H137	0.153000	0.054600	0.574300
H1381	H138	0.123900	0.928800	0.606200
H1391	H139	0.102200	0.969500	0.568500
H1401	H140	0.139200	0.927200	0.548600
H1411	H141	0.195900	0.813900	0.426800
H1421	H142	0.198200	0.896900	0.304100
H1431	H143	0.138300	0.837800	0.247300
H1441	H144	0.125100	0.785100	0.272000
H1451	H145	0.090700	0.832700	0.283000
H1461	H146	0.224400	0.929200	0.501000
H1471	H147	0.300700	0.816200	0.442700
H1481	H148	0.319800	0.766900	0.526000
H1491	H149	0.327900	0.806300	0.570200
H1501	H150	0.276700	0.775900	0.566300
H1511	H151	0.287800	0.877900	0.302900
H1521	H152	0.348600	0.931300	0.427100
H1531	H153	0.439300	0.946800	0.395800
H1541	H154	0.454100	0.902000	0.359200
H1551	H155	0.441800	0.956000	0.336900
H1561	H156	0.282800	0.999300	0.379700
H1571	H157	0.153000	0.945400	0.425700
H1581	H158	0.123900	0.071200	0.393800
H1591	H159	0.102200	0.030500	0.431500
H1601	H160	0.139200	0.072800	0.451400
H1611	H161	0.573200	0.804100	0.813900
H1621	H162	0.695900	0.801800	0.896900
H1631	H163	0.752700	0.861700	0.837800
H1641	H164	0.728000	0.874900	0.785100
H1651	H165	0.717000	0.909300	0.832700
H1661	H166	0.499000	0.775600	0.929200
H1671	H167	0.557300	0.699300	0.816200
H1681	H168	0.474000	0.680200	0.766900
H1691	H169	0.429800	0.672100	0.806300
H1701	H170	0.433700	0.723300	0.775900
H1711	H171	0.697100	0.712200	0.877900
H1721	H172	0.572900	0.651400	0.931300
H1731	H173	0.604200	0.560700	0.946800
H1741	H174	0.640800	0.545900	0.902000
H1751	H175	0.663100	0.558200	0.956000
H1761	H176	0.620300	0.717200	0.999300
H1771	H177	0.574300	0.847000	0.945400
H1781	H178	0.606200	0.876100	0.071200
H1791	H179	0.568500	0.897800	0.030500
H1801	H180	0.548600	0.860800	0.072800
H1811	H181	0.426800	0.804100	0.186100
H1821	H182	0.304100	0.801800	0.103100
H1831	H183	0.247300	0.861700	0.162200
H1841	H184	0.272000	0.874900	0.214900
H1851	H185	0.283000	0.909300	0.167300
H1861	H186	0.501000	0.775600	0.070800
H1871	H187	0.442700	0.699300	0.183800
H1881	H188	0.526000	0.680200	0.233100
H1891	H189	0.570200	0.672100	0.193700
H1901	H190	0.566300	0.723300	0.224100
H1911	H191	0.302900	0.712200	0.122100
H1921	H192	0.427100	0.651400	0.068700
H1931	H193	0.395800	0.560700	0.053200
H1941	H194	0.359200	0.545900	0.098000
H1951	H195	0.336900	0.558200	0.044000
H1961	H196	0.379700	0.717200	0.000700
H1971	H197	0.425700	0.847000	0.054600
H1981	H198	0.393800	0.876100	0.928800
H1991	H199	0.431500	0.897800	0.969500
H2001	H200	0.451400	0.860800	0.927200
H2011	H201	0.573200	0.195900	0.186100
H2021	H202	0.695900	0.198200	0.103100
H2031	H203	0.752700	0.138300	0.162200
H2041	H204	0.728000	0.125100	0.214900
H2051	H205	0.717000	0.090700	0.167300
H2061	H206	0.499000	0.224400	0.070800
H2071	H207	0.557300	0.300700	0.183800
H2081	H208	0.474000	0.319800	0.233100
H2091	H209	0.429800	0.327900	0.193700
H2101	H210	0.433700	0.276700	0.224100
H2111	H211	0.697100	0.287800	0.122100
H2121	H212	0.572900	0.348600	0.068700
H2131	H213	0.604200	0.439300	0.053200
H2141	H214	0.640800	0.454100	0.098000
H2151	H215	0.663100	0.441800	0.044000
H2161	H216	0.620300	0.282800	0.000700
H2171	H217	0.574300	0.153000	0.054600
H2181	H218	0.606200	0.123900	0.928800
H2191	H219	0.568500	0.102200	0.969500
H2201	H220	0.548600	0.139200	0.927200
H2211	H221	0.426800	0.195900	0.813900
H2221	H222	0.304100	0.198200	0.896900
H2231	H223	0.247300	0.138300	0.837800
H2241	H224	0.272000	0.125100	0.785100
H2251	H225	0.283000	0.090700	0.832700
H2261	H226	0.501000	0.224400	0.929200
H2271	H227	0.442700	0.300700	0.816200
H2281	H228	0.526000	0.319800	0.766900
H2291	H229	0.570200	0.327900	0.806300
H2301	H230	0.566300	0.276700	0.775900
H2311	H231	0.302900	0.287800	0.877900
H2321	H232	0.427100	0.348600	0.931300
H2331	H233	0.395800	0.439300	0.946800
H2341	H234	0.359200	0.454100	0.902000
H2351	H235	0.336900	0.441800	0.956000
H2361	H236	0.379700	0.282800	0.999300
H2371	H237	0.425700	0.153000	0.945400
H2381	H238	0.393800	0.123900	0.071200
H2391	H239	0.431500	0.102200	0.030500
H2401	H240	0.451400	0.139200	0.072800
H2411	H241	0.573200	0.813900	0.195900
H2421	H242	0.695900	0.896900	0.198200
H2431	H243	0.752700	0.837800	0.138300
H2441	H244	0.728000	0.785100	0.125100
H2451	H245	0.717000	0.832700	0.090700
H2461	H246	0.499000	0.929200	0.224400
H2471	H247	0.557300	0.816200	0.300700
H2481	H248	0.474000	0.766900	0.319800
H2491	H249	0.429800	0.806300	0.327900
H2501	H250	0.433700	0.775900	0.276700
H2511	H251	0.697100	0.877900	0.287800
H2521	H252	0.572900	0.931300	0.348600
H2531	H253	0.604200	0.946800	0.439300
H2541	H254	0.640800	0.902000	0.454100
H2551	H255	0.663100	0.956000	0.441800
H2561	H256	0.620300	0.999300	0.282800
H2571	H257	0.574300	0.945400	0.153000
H2581	H258	0.606200	0.071200	0.123900
H2591	H259	0.568500	0.030500	0.102200
H2601	H260	0.548600	0.072800	0.139200
H2611	H261	0.426800	0.186100	0.195900
H2621	H262	0.304100	0.103100	0.198200
H2631	H263	0.247300	0.162200	0.138300
H2641	H264	0.272000	0.214900	0.125100
H2651	H265	0.283000	0.167300	0.090700
H2661	H266	0.501000	0.070800	0.224400
H2671	H267	0.442700	0.183800	0.300700
H2681	H268	0.526000	0.233100	0.319800
H2691	H269	0.570200	0.193700	0.327900
H2701	H270	0.566300	0.224100	0.276700
H2711	H271	0.302900	0.122100	0.287800
H2721	H272	0.427100	0.068700	0.348600
H2731	H273	0.395800	0.053200	0.439300
H2741	H274	0.359200	0.098000	0.454100
H2751	H275	0.336900	0.044000	0.441800
H2761	H276	0.379700	0.000700	0.282800
H2771	H277	0.425700	0.054600	0.153000
H2781	H278	0.393800	0.928800	0.123900
H2791	H279	0.431500	0.969500	0.102200
H2801	H280	0.451400	0.927200	0.139200
H2811	H281	0.573200	0.186100	0.804100
H2821	H282	0.695900	0.103100	0.801800
H2831	H283	0.752700	0.162200	0.861700
H2841	H284	0.728000	0.214900	0.874900
H2851	H285	0.717000	0.167300	0.909300
H2861	H286	0.499000	0.070800	0.775600
H2871	H287	0.557300	0.183800	0.699300
H2881	H288	0.474000	0.233100	0.680200
H2891	H289	0.429800	0.193700	0.672100
H2901	H290	0.433700	0.224100	0.723300
H2911	H291	0.697100	0.122100	0.712200
H2921	H292	0.572900	0.068700	0.651400
H2931	H293	0.604200	0.053200	0.560700
H2941	H294	0.640800	0.098000	0.545900
H2951	H295	0.663100	0.044000	0.558200
H2961	H296	0.620300	0.000700	0.717200
H2971	H297	0.574300	0.054600	0.847000
H2981	H298	0.606200	0.928800	0.876100
H2991	H299	0.568500	0.969500	0.897800
H3001	H300	0.548600	0.927200	0.860800
H3011	H301	0.426800	0.813900	0.804100
H3021	H302	0.304100	0.896900	0.801800
H3031	H303	0.247300	0.837800	0.861700
H3041	H304	0.272000	0.785100	0.874900
H3051	H305	0.283000	0.832700	0.909300
H3061	H306	0.501000	0.929200	0.775600
H3071	H307	0.442700	0.816200	0.699300
H3081	H308	0.526000	0.766900	0.680200
H3091	H309	0.570200	0.806300	0.672100
H3101	H310	0.566300	0.775900	0.723300
H3111	H311	0.302900	0.877900	0.712200
H3121	H312	0.427100	0.931300	0.651400
H3131	H313	0.395800	0.946800	0.560700
H3141	H314	0.359200	0.902000	0.545900
H3151	H315	0.336900	0.956000	0.558200
H3161	H316	0.379700	0.999300	0.717200
H3171	H317	0.425700	0.945400	0.847000
H3181	H318	0.393800	0.071200	0.876100
H3191	H319	0.431500	0.030500	0.897800
H3201	H320	0.451400	0.072800	0.860800
H3211	H321	0.813900	0.804100	0.426800
H3221	H322	0.896900	0.801800	0.304100
H3231	H323	0.837800	0.861700	0.247300
H3241	H324	0.785100	0.874900	0.272000
H3251	H325	0.832700	0.909300	0.283000
H3261	H326	0.929200	0.775600	0.501000
H3271	H327	0.816200	0.699300	0.442700
H3281	H328	0.766900	0.680200	0.526000
H3291	H329	0.806300	0.672100	0.570200
H3301	H330	0.775900	0.723300	0.566300
H3311	H331	0.877900	0.712200	0.302900
H3321	H332	0.931300	0.651400	0.427100
H3331	H333	0.946800	0.560700	0.395800
H3341	H334	0.902000	0.545900	0.359200
H3351	H335	0.956000	0.558200	0.336900
H3361	H336	0.999300	0.717200	0.379700
H3371	H337	0.945400	0.847000	0.425700
H3381	H338	0.071200	0.876100	0.393800
H3391	H339	0.030500	0.897800	0.431500
H3401	H340	0.072800	0.860800	0.451400
H3411	H341	0.186100	0.804100	0.573200
H3421	H342	0.103100	0.801800	0.695900
H3431	H343	0.162200	0.861700	0.752700
H3441	H344	0.214900	0.874900	0.728000
H3451	H345	0.167300	0.909300	0.717000
H3461	H346	0.070800	0.775600	0.499000
H3471	H347	0.183800	0.699300	0.557300
H3481	H348	0.233100	0.680200	0.474000
H3491	H349	0.193700	0.672100	0.429800
H3501	H350	0.224100	0.723300	0.433700
H3511	H351	0.122100	0.712200	0.697100
H3521	H352	0.068700	0.651400	0.572900
H3531	H353	0.053200	0.560700	0.604200
H3541	H354	0.098000	0.545900	0.640800
H3551	H355	0.044000	0.558200	0.663100
H3561	H356	0.000700	0.717200	0.620300
H3571	H357	0.054600	0.847000	0.574300
H3581	H358	0.928800	0.876100	0.606200
H3591	H359	0.969500	0.897800	0.568500
H3601	H360	0.927200	0.860800	0.548600
H3611	H361	0.186100	0.195900	0.426800
H3621	H362	0.103100	0.198200	0.304100
H3631	H363	0.162200	0.138300	0.247300
H3641	H364	0.214900	0.125100	0.272000
H3651	H365	0.167300	0.090700	0.283000
H3661	H366	0.070800	0.224400	0.501000
H3671	H367	0.183800	0.300700	0.442700
H3681	H368	0.233100	0.319800	0.526000
H3691	H369	0.193700	0.327900	0.570200
H3701	H370	0.224100	0.276700	0.566300
H3711	H371	0.122100	0.287800	0.302900
H3721	H372	0.068700	0.348600	0.427100
H3731	H373	0.053200	0.439300	0.395800
H3741	H374	0.098000	0.454100	0.359200
H3751	H375	0.044000	0.441800	0.336900
H3761	H376	0.000700	0.282800	0.379700
H3771	H377	0.054600	0.153000	0.425700
H3781	H378	0.928800	0.123900	0.393800
H3791	H379	0.969500	0.102200	0.431500
H3801	H380	0.927200	0.139200	0.451400
H3811	H381	0.813900	0.195900	0.573200
H3821	H382	0.896900	0.198200	0.695900
H3831	H383	0.837800	0.138300	0.752700
H3841	H384	0.785100	0.125100	0.728000
H3851	H385	0.832700	0.090700	0.717000
H3861	H386	0.929200	0.224400	0.499000
H3871	H387	0.816200	0.300700	0.557300
H3881	H388	0.766900	0.319800	0.474000
H3891	H389	0.806300	0.327900	0.429800
H3901	H390	0.775900	0.276700	0.433700
H3911	H391	0.877900	0.287800	0.697100
H3921	H392	0.931300	0.348600	0.572900
H3931	H393	0.946800	0.439300	0.604200
H3941	H394	0.902000	0.454100	0.640800
H3951	H395	0.956000	0.441800	0.663100
H3961	H396	0.999300	0.282800	0.620300
H3971	H397	0.945400	0.153000	0.574300
H3981	H398	0.071200	0.123900	0.606200
H3991	H399	0.030500	0.102200	0.568500
H4001	H400	0.072800	0.139200	0.548600
H4011	H401	0.804100	0.573200	0.186100
H4021	H402	0.801800	0.695900	0.103100
H4031	H403	0.861700	0.752700	0.162200
H4041	H404	0.874900	0.728000	0.214900
H4051	H405	0.909300	0.717000	0.167300
H4061	H406	0.775600	0.499000	0.070800
H4071	H407	0.699300	0.557300	0.183800
H4081	H408	0.680200	0.474000	0.233100
H4091	H409	0.672100	0.429800	0.193700
H4101	H410	0.723300	0.433700	0.224100
H4111	H411	0.712200	0.697100	0.122100
H4121	H412	0.651400	0.572900	0.068700
H4131	H413	0.560700	0.604200	0.053200
H4141	H414	0.545900	0.640800	0.098000
H4151	H415	0.558200	0.663100	0.044000
H4161	H416	0.717200	0.620300	0.000700
H4171	H417	0.847000	0.574300	0.054600
H4181	H418	0.876100	0.606200	0.928800
H4191	H419	0.897800	0.568500	0.969500
H4201	H420	0.860800	0.548600	0.927200
H4211	H421	0.804100	0.426800	0.813900
H4221	H422	0.801800	0.304100	0.896900
H4231	H423	0.861700	0.247300	0.837800
H4241	H424	0.874900	0.272000	0.785100
H4251	H425	0.909300	0.283000	0.832700
H4261	H426	0.775600	0.501000	0.929200
H4271	H427	0.699300	0.442700	0.816200
H4281	H428	0.680200	0.526000	0.766900
H4291	H429	0.672100	0.570200	0.806300
H4301	H430	0.723300	0.566300	0.775900
H4311	H431	0.712200	0.302900	0.877900
H4321	H432	0.651400	0.427100	0.931300
H4331	H433	0.560700	0.395800	0.946800
H4341	H434	0.545900	0.359200	0.902000
H4351	H435	0.558200	0.336900	0.956000
H4361	H436	0.717200	0.379700	0.999300
H4371	H437	0.847000	0.425700	0.945400
H4381	H438	0.876100	0.393800	0.071200
H4391	H439	0.897800	0.431500	0.030500
H4401	H440	0.860800	0.451400	0.072800
H4411	H441	0.195900	0.573200	0.813900
H4421	H442	0.198200	0.695900	0.896900
H4431	H443	0.138300	0.752700	0.837800
H4441	H444	0.125100	0.728000	0.785100
H4451	H445	0.090700	0.717000	0.832700
H4461	H446	0.224400	0.499000	0.929200
H4471	H447	0.300700	0.557300	0.816200
H4481	H448	0.319800	0.474000	0.766900
H4491	H449	0.327900	0.429800	0.806300
H4501	H450	0.276700	0.433700	0.775900
H4511	H451	0.287800	0.697100	0.877900
H4521	H452	0.348600	0.572900	0.931300
H4531	H453	0.439300	0.604200	0.946800
H4541	H454	0.454100	0.640800	0.902000
H4551	H455	0.441800	0.663100	0.956000
H4561	H456	0.282800	0.620300	0.999300
H4571	H457	0.153000	0.574300	0.945400
H4581	H458	0.123900	0.606200	0.071200
H4591	H459	0.102200	0.568500	0.030500
H4601	H460	0.139200	0.548600	0.072800
H4611	H461	0.195900	0.426800	0.186100
H4621	H462	0.198200	0.304100	0.103100
H4631	H463	0.138300	0.247300	0.162200
H4641	H464	0.125100	0.272000	0.214900
H4651	H465	0.090700	0.283000	0.167300
H4661	H466	0.224400	0.501000	0.070800
H4671	H467	0.300700	0.442700	0.183800
H4681	H468	0.319800	0.526000	0.233100
H4691	H469	0.327900	0.570200	0.193700
H4701	H470	0.276700	0.566300	0.224100
H4711	H471	0.287800	0.302900	0.122100
H4721	H472	0.348600	0.427100	0.068700
H4731	H473	0.439300	0.395800	0.053200
H4741	H474	0.454100	0.359200	0.098000
H4751	H475	0.441800	0.336900	0.044000
H4761	H476	0.282800	0.379700	0.000700
H4771	H477	0.153000	0.425700	0.054600
H4781	H478	0.123900	0.393800	0.928800
H4791	H479	0.102200	0.431500	0.969500
H4801	H480	0.139200	0.451400	0.927200
C11	C1	0.826230	0.605620	0.811310
C21	C2	0.834140	0.678550	0.843190
C31	C3	0.871630	0.672290	0.809440
C41	C4	0.821300	0.722900	0.875100
C51	C5	0.899120	0.502250	0.757060
C61	C6	0.831970	0.484710	0.718010
C71	C7	0.837790	0.534420	0.715600
C81	C8	0.791800	0.452800	0.696600
C91	C9	0.890820	0.674020	0.688640
C101	C10	0.917680	0.641640	0.620790
C111	C11	0.919850	0.606150	0.656000
C121	C12	0.931900	0.637000	0.566680
C131	C13	0.997130	0.609120	0.750790
C141	C14	0.017410	0.587530	0.824600
C151	C15	0.967510	0.584160	0.821140
C161	C16	0.050900	0.576800	0.868700
C171	C17	0.173770	0.394380	0.811310
C181	C18	0.165860	0.321450	0.843190
C191	C19	0.128370	0.327710	0.809440
C201	C20	0.178700	0.277100	0.875100
C211	C21	0.100880	0.497750	0.757060
C221	C22	0.168030	0.515290	0.718010
C231	C23	0.162210	0.465580	0.715600
C241	C24	0.208200	0.547200	0.696600
C251	C25	0.109180	0.325980	0.688640
C261	C26	0.082320	0.358360	0.620790
C271	C27	0.080150	0.393850	0.656000
C281	C28	0.068100	0.363000	0.566680
C291	C29	0.002870	0.390880	0.750790
C301	C30	0.982590	0.412470	0.824600
C311	C31	0.032490	0.415840	0.821140
C321	C32	0.949100	0.423200	0.868700
C331	C33	0.173770	0.605620	0.188690
C341	C34	0.165860	0.678550	0.156810
C351	C35	0.128370	0.672290	0.190560
C361	C36	0.178700	0.722900	0.124900
C371	C37	0.100880	0.502250	0.242940
C381	C38	0.168030	0.484710	0.281990
C391	C39	0.162210	0.534420	0.284400
C401	C40	0.208200	0.452800	0.303400
C411	C41	0.109180	0.674020	0.311360
C421	C42	0.082320	0.641640	0.379210
C431	C43	0.080150	0.606150	0.344000
C441	C44	0.068100	0.637000	0.433320
C451	C45	0.002870	0.609120	0.249210
C461	C46	0.982590	0.587530	0.175400
C471	C47	0.032490	0.584160	0.178860
C481	C48	0.949100	0.576800	0.131300
C491	C49	0.826230	0.394380	0.188690
C501	C50	0.834140	0.321450	0.156810
C511	C51	0.871630	0.327710	0.190560
C521	C52	0.821300	0.277100	0.124900
C531	C53	0.899120	0.497750	0.242940
C541	C54	0.831970	0.515290	0.281990
C551	C55	0.837790	0.465580	0.284400
C561	C56	0.791800	0.547200	0.303400
C571	C57	0.890820	0.325980	0.311360
C581	C58	0.917680	0.358360	0.379210
C591	C59	0.919850	0.393850	0.344000
C601	C60	0.931900	0.363000	0.433320
C611	C61	0.997130	0.390880	0.249210
C621	C62	0.017410	0.412470	0.175400
C631	C63	0.967510	0.415840	0.178860
C641	C64	0.050900	0.423200	0.131300
C651	C65	0.811310	0.826230	0.605620
C661	C66	0.843190	0.834140	0.678550
C671	C67	0.809440	0.871630	0.672290
C681	C68	0.875100	0.821300	0.722900
C691	C69	0.757060	0.899120	0.502250
C701	C70	0.718010	0.831970	0.484710
C711	C71	0.715600	0.837790	0.534420
C721	C72	0.696600	0.791800	0.452800
C731	C73	0.688640	0.890820	0.674020
C741	C74	0.620790	0.917680	0.641640
C751	C75	0.656000	0.919850	0.606150
C761	C76	0.566680	0.931900	0.637000
C771	C77	0.750790	0.997130	0.609120
C781	C78	0.824600	0.017410	0.587530
C791	C79	0.821140	0.967510	0.584160
C801	C80	0.868700	0.050900	0.576800
C811	C81	0.811310	0.173770	0.394380
C821	C82	0.843190	0.165860	0.321450
C831	C83	0.809440	0.128370	0.327710
C841	C84	0.875100	0.178700	0.277100
C851	C85	0.757060	0.100880	0.497750
C861	C86	0.718010	0.168030	0.515290
C871	C87	0.715600	0.162210	0.465580
C881	C88	0.696600	0.208200	0.547200
C891	C89	0.688640	0.109180	0.325980
C901	C90	0.620790	0.082320	0.358360
C911	C91	0.656000	0.080150	0.393850
C921	C92	0.566680	0.068100	0.363000
C931	C93	0.750790	0.002870	0.390880
C941	C94	0.824600	0.982590	0.412470
C951	C95	0.821140	0.032490	0.415840
C961	C96	0.868700	0.949100	0.423200
C971	C97	0.188690	0.173770	0.605620
C981	C98	0.156810	0.165860	0.678550
C991	C99	0.190560	0.128370	0.672290
C1001	C100	0.124900	0.178700	0.722900
C1011	C101	0.242940	0.100880	0.502250
C1021	C102	0.281990	0.168030	0.484710
C1031	C103	0.284400	0.162210	0.534420
C1041	C104	0.303400	0.208200	0.452800
C1051	C105	0.311360	0.109180	0.674020
C1061	C106	0.379210	0.082320	0.641640
C1071	C107	0.344000	0.080150	0.606150
C1081	C108	0.433320	0.068100	0.637000
C1091	C109	0.249210	0.002870	0.609120
C1101	C110	0.175400	0.982590	0.587530
C1111	C111	0.178860	0.032490	0.584160
C1121	C112	0.131300	0.949100	0.576800
C1131	C113	0.188690	0.826230	0.394380
C1141	C114	0.156810	0.834140	0.321450
C1151	C115	0.190560	0.871630	0.327710
C1161	C116	0.124900	0.821300	0.277100
C1171	C117	0.242940	0.899120	0.497750
C1181	C118	0.281990	0.831970	0.515290
C1191	C119	0.284400	0.837790	0.465580
C1201	C120	0.303400	0.791800	0.547200
C1211	C121	0.311360	0.890820	0.325980
C1221	C122	0.379210	0.917680	0.358360
C1231	C123	0.344000	0.919850	0.393850
C1241	C124	0.433320	0.931900	0.363000
C1251	C125	0.249210	0.997130	0.390880
C1261	C126	0.175400	0.017410	0.412470
C1271	C127	0.178860	0.967510	0.415840
C1281	C128	0.131300	0.050900	0.423200
C1291	C129	0.605620	0.811310	0.826230
C1301	C130	0.678550	0.843190	0.834140
C1311	C131	0.672290	0.809440	0.871630
C1321	C132	0.722900	0.875100	0.821300
C1331	C133	0.502250	0.757060	0.899120
C1341	C134	0.484710	0.718010	0.831970
C1351	C135	0.534420	0.715600	0.837790
C1361	C136	0.452800	0.696600	0.791800
C1371	C137	0.674020	0.688640	0.890820
C1381	C138	0.641640	0.620790	0.917680
C1391	C139	0.606150	0.656000	0.919850
C1401	C140	0.637000	0.566680	0.931900
C1411	C141	0.609120	0.750790	0.997130
C1421	C142	0.587530	0.824600	0.017410
C1431	C143	0.584160	0.821140	0.967510
C1441	C144	0.576800	0.868700	0.050900
C1451	C145	0.394380	0.811310	0.173770
C1461	C146	0.321450	0.843190	0.165860
C1471	C147	0.327710	0.809440	0.128370
C1481	C148	0.277100	0.875100	0.178700
C1491	C149	0.497750	0.757060	0.100880
C1501	C150	0.515290	0.718010	0.168030
C1511	C151	0.465580	0.715600	0.162210
C1521	C152	0.547200	0.696600	0.208200
C1531	C153	0.325980	0.688640	0.109180
C1541	C154	0.358360	0.620790	0.082320
C1551	C155	0.393850	0.656000	0.080150
C1561	C156	0.363000	0.566680	0.068100
C1571	C157	0.390880	0.750790	0.002870
C1581	C158	0.412470	0.824600	0.982590
C1591	C159	0.415840	0.821140	0.032490
C1601	C160	0.423200	0.868700	0.949100
C1611	C161	0.605620	0.188690	0.173770
C1621	C162	0.678550	0.156810	0.165860
C1631	C163	0.672290	0.190560	0.128370
C1641	C164	0.722900	0.124900	0.178700
C1651	C165	0.502250	0.242940	0.100880
C1661	C166	0.484710	0.281990	0.168030
C1671	C167	0.534420	0.284400	0.162210
C1681	C168	0.452800	0.303400	0.208200
C1691	C169	0.674020	0.311360	0.109180
C1701	C170	0.641640	0.379210	0.082320
C1711	C171	0.606150	0.344000	0.080150
C1721	C172	0.637000	0.433320	0.068100
C1731	C173	0.609120	0.249210	0.002870
C1741	C174	0.587530	0.175400	0.982590
C1751	C175	0.584160	0.178860	0.032490
C1761	C176	0.576800	0.131300	0.949100
C1771	C177	0.394380	0.188690	0.826230
C1781	C178	0.321450	0.156810	0.834140
C1791	C179	0.327710	0.190560	0.871630
C1801	C180	0.277100	0.124900	0.821300
C1811	C181	0.497750	0.242940	0.899120
C1821	C182	0.515290	0.281990	0.831970
C1831	C183	0.465580	0.284400	0.837790
C1841	C184	0.547200	0.303400	0.791800
C1851	C185	0.325980	0.311360	0.890820
C1861	C186	0.358360	0.379210	0.917680
C1871	C187	0.393850	0.344000	0.919850
C1881	C188	0.363000	0.433320	0.931900
C1891	C189	0.390880	0.249210	0.997130
C1901	C190	0.412470	0.175400	0.017410
C1911	C191	0.415840	0.178860	0.967510
C1921	C192	0.423200	0.131300	0.050900
C1931	C193	0.605620	0.826230	0.188690
C1941	C194	0.678550	0.834140	0.156810
C1951	C195	0.672290	0.871630	0.190560
C1961	C196	0.722900	0.821300	0.124900
C1971	C197	0.502250	0.899120	0.242940
C1981	C198	0.484710	0.831970	0.281990
C1991	C199	0.534420	0.837790	0.284400
C2001	C200	0.452800	0.791800	0.303400
C2011	C201	0.674020	0.890820	0.311360
C2021	C202	0.641640	0.917680	0.379210
C2031	C203	0.606150	0.919850	0.344000
C2041	C204	0.637000	0.931900	0.433320
C2051	C205	0.609120	0.997130	0.249210
C2061	C206	0.587530	0.017410	0.175400
C2071	C207	0.584160	0.967510	0.178860
C2081	C208	0.576800	0.050900	0.131300
C2091	C209	0.394380	0.173770	0.188690
C2101	C210	0.321450	0.165860	0.156810
C2111	C211	0.327710	0.128370	0.190560
C2121	C212	0.277100	0.178700	0.124900
C2131	C213	0.497750	0.100880	0.242940
C2141	C214	0.515290	0.168030	0.281990
C2151	C215	0.465580	0.162210	0.284400
C2161	C216	0.547200	0.208200	0.303400
C2171	C217	0.325980	0.109180	0.311360
C2181	C218	0.358360	0.082320	0.379210
C2191	C219	0.393850	0.080150	0.344000
C2201	C220	0.363000	0.068100	0.433320
C2211	C221	0.390880	0.002870	0.249210
C2221	C222	0.412470	0.982590	0.175400
C2231	C223	0.415840	0.032490	0.178860
C2241	C224	0.423200	0.949100	0.131300
C2251	C225	0.605620	0.173770	0.811310
C2261	C226	0.678550	0.165860	0.843190
C2271	C227	0.672290	0.128370	0.809440
C2281	C228	0.722900	0.178700	0.875100
C2291	C229	0.502250	0.100880	0.757060
C2301	C230	0.484710	0.168030	0.718010
C2311	C231	0.534420	0.162210	0.715600
C2321	C232	0.452800	0.208200	0.696600
C2331	C233	0.674020	0.109180	0.688640
C2341	C234	0.641640	0.082320	0.620790
C2351	C235	0.606150	0.080150	0.656000
C2361	C236	0.637000	0.068100	0.566680
C2371	C237	0.609120	0.002870	0.750790
C2381	C238	0.587530	0.982590	0.824600
C2391	C239	0.584160	0.032490	0.821140
C2401	C240	0.576800	0.949100	0.868700
C2411	C241	0.394380	0.826230	0.811310
C2421	C242	0.321450	0.834140	0.843190
C2431	C243	0.327710	0.871630	0.809440
C2441	C244	0.277100	0.821300	0.875100
C2451	C245	0.497750	0.899120	0.757060
C2461	C246	0.515290	0.831970	0.718010
C2471	C247	0.465580	0.837790	0.715600
C2481	C248	0.547200	0.791800	0.696600
C2491	C249	0.325980	0.890820	0.688640
C2501	C250	0.358360	0.917680	0.620790
C2511	C251	0.393850	0.919850	0.656000
C2521	C252	0.363000	0.931900	0.566680
C2531	C253	0.390880	0.997130	0.750790
C2541	C254	0.412470	0.017410	0.824600
C2551	C255	0.415840	0.967510	0.821140
C2561	C256	0.423200	0.050900	0.868700
C2571	C257	0.826230	0.811310	0.394380
C2581	C258	0.834140	0.843190	0.321450
C2591	C259	0.871630	0.809440	0.327710
C2601	C260	0.821300	0.875100	0.277100
C2611	C261	0.899120	0.757060	0.497750
C2621	C262	0.831970	0.718010	0.515290
C2631	C263	0.837790	0.715600	0.465580
C2641	C264	0.791800	0.696600	0.547200
C2651	C265	0.890820	0.688640	0.325980
C2661	C266	0.917680	0.620790	0.358360
C2671	C267	0.919850	0.656000	0.393850
C2681	C268	0.931900	0.566680	0.363000
C2691	C269	0.997130	0.750790	0.390880
C2701	C270	0.017410	0.824600	0.412470
C2711	C271	0.967510	0.821140	0.415840
C2721	C272	0.050900	0.868700	0.423200
C2731	C273	0.173770	0.811310	0.605620
C2741	C274	0.165860	0.843190	0.678550
C2751	C275	0.128370	0.809440	0.672290
C2761	C276	0.178700	0.875100	0.722900
C2771	C277	0.100880	0.757060	0.502250
C2781	C278	0.168030	0.718010	0.484710
C2791	C279	0.162210	0.715600	0.534420
C2801	C280	0.208200	0.696600	0.452800
C2811	C281	0.109180	0.688640	0.674020
C2821	C282	0.082320	0.620790	0.641640
C2831	C283	0.080150	0.656000	0.606150
C2841	C284	0.068100	0.566680	0.637000
C2851	C285	0.002870	0.750790	0.609120
C2861	C286	0.982590	0.824600	0.587530
C2871	C287	0.032490	0.821140	0.584160
C2881	C288	0.949100	0.868700	0.576800
C2891	C289	0.173770	0.188690	0.394380
C2901	C290	0.165860	0.156810	0.321450
C2911	C291	0.128370	0.190560	0.327710
C2921	C292	0.178700	0.124900	0.277100
C2931	C293	0.100880	0.242940	0.497750
C2941	C294	0.168030	0.281990	0.515290
C2951	C295	0.162210	0.284400	0.465580
C2961	C296	0.208200	0.303400	0.547200
C2971	C297	0.109180	0.311360	0.325980
C2981	C298	0.082320	0.379210	0.358360
C2991	C299	0.080150	0.344000	0.393850
C3001	C300	0.068100	0.433320	0.363000
C3011	C301	0.002870	0.249210	0.390880
C3021	C302	0.982590	0.175400	0.412470
C3031	C303	0.032490	0.178860	0.415840
C3041	C304	0.949100	0.131300	0.423200
C3051	C305	0.826230	0.188690	0.605620
C3061	C306	0.834140	0.156810	0.678550
C3071	C307	0.871630	0.190560	0.672290
C3081	C308	0.821300	0.124900	0.722900
C3091	C309	0.899120	0.242940	0.502250
C3101	C310	0.831970	0.281990	0.484710
C3111	C311	0.837790	0.284400	0.534420
C3121	C312	0.791800	0.303400	0.452800
C3131	C313	0.890820	0.311360	0.674020
C3141	C314	0.917680	0.379210	0.641640
C3151	C315	0.919850	0.344000	0.606150
C3161	C316	0.931900	0.433320	0.637000
C3171	C317	0.997130	0.249210	0.609120
C3181	C318	0.017410	0.175400	0.587530
C3191	C319	0.967510	0.178860	0.584160
C3201	C320	0.050900	0.131300	0.576800
C3211	C321	0.811310	0.605620	0.173770
C3221	C322	0.843190	0.678550	0.165860
C3231	C323	0.809440	0.672290	0.128370
C3241	C324	0.875100	0.722900	0.178700
C3251	C325	0.757060	0.502250	0.100880
C3261	C326	0.718010	0.484710	0.168030
C3271	C327	0.715600	0.534420	0.162210
C3281	C328	0.696600	0.452800	0.208200
C3291	C329	0.688640	0.674020	0.109180
C3301	C330	0.620790	0.641640	0.082320
C3311	C331	0.656000	0.606150	0.080150
C3321	C332	0.566680	0.637000	0.068100
C3331	C333	0.750790	0.609120	0.002870
C3341	C334	0.824600	0.587530	0.982590
C3351	C335	0.821140	0.584160	0.032490
C3361	C336	0.868700	0.576800	0.949100
C3371	C337	0.811310	0.394380	0.826230
C3381	C338	0.843190	0.321450	0.834140
C3391	C339	0.809440	0.327710	0.871630
C3401	C340	0.875100	0.277100	0.821300
C3411	C341	0.757060	0.497750	0.899120
C3421	C342	0.718010	0.515290	0.831970
C3431	C343	0.715600	0.465580	0.837790
C3441	C344	0.696600	0.547200	0.791800
C3451	C345	0.688640	0.325980	0.890820
C3461	C346	0.620790	0.358360	0.917680
C3471	C347	0.656000	0.393850	0.919850
C3481	C348	0.566680	0.363000	0.931900
C3491	C349	0.750790	0.390880	0.997130
C3501	C350	0.824600	0.412470	0.017410
C3511	C351	0.821140	0.415840	0.967510
C3521	C352	0.868700	0.423200	0.050900
C3531	C353	0.188690	0.605620	0.826230
C3541	C354	0.156810	0.678550	0.834140
C3551	C355	0.190560	0.672290	0.871630
C3561	C356	0.124900	0.722900	0.821300
C3571	C357	0.242940	0.502250	0.899120
C3581	C358	0.281990	0.484710	0.831970
C3591	C359	0.284400	0.534420	0.837790
C3601	C360	0.303400	0.452800	0.791800
C3611	C361	0.311360	0.674020	0.890820
C3621	C362	0.379210	0.641640	0.917680
C3631	C363	0.344000	0.606150	0.919850
C3641	C364	0.433320	0.637000	0.931900
C3651	C365	0.249210	0.609120	0.997130
C3661	C366	0.175400	0.587530	0.017410
C3671	C367	0.178860	0.584160	0.967510
C3681	C368	0.131300	0.576800	0.050900
C3691	C369	0.188690	0.394380	0.173770
C3701	C370	0.156810	0.321450	0.165860
C3711	C371	0.190560	0.327710	0.128370
C3721	C372	0.124900	0.277100	0.178700
C3731	C373	0.242940	0.497750	0.100880
C3741	C374	0.281990	0.515290	0.168030
C3751	C375	0.284400	0.465580	0.162210
C3761	C376	0.303400	0.547200	0.208200
C3771	C377	0.311360	0.325980	0.109180
C3781	C378	0.379210	0.358360	0.082320
C3791	C379	0.344000	0.393850	0.080150
C3801	C380	0.433320	0.363000	0.068100
C3811	C381	0.249210	0.390880	0.002870
C3821	C382	0.175400	0.412470	0.982590
C3831	C383	0.178860	0.415840	0.032490
C3841	C384	0.131300	0.423200	0.949100
N11	N1	0.866470	0.625860	0.788430
N21	N2	0.805890	0.635750	0.844770
N31	N3	0.881110	0.546250	0.741210
N41	N4	0.871110	0.464220	0.744470
N51	N5	0.902420	0.626370	0.700060
N61	N6	0.899130	0.685130	0.641790
N71	N7	0.954060	0.597700	0.773130
N81	N8	0.036090	0.603400	0.779820
N91	N9	0.133530	0.374140	0.788430
N101	N10	0.194110	0.364250	0.844770
N111	N11	0.118890	0.453750	0.741210
N121	N12	0.128890	0.535780	0.744470
N131	N13	0.097580	0.373630	0.700060
N141	N14	0.100870	0.314870	0.641790
N151	N15	0.045940	0.402300	0.773130
N161	N16	0.963910	0.396600	0.779820
N171	N17	0.133530	0.625860	0.211570
N181	N18	0.194110	0.635750	0.155230
N191	N19	0.118890	0.546250	0.258790
N201	N20	0.128890	0.464220	0.255530
N211	N21	0.097580	0.626370	0.299940
N221	N22	0.100870	0.685130	0.358210
N231	N23	0.045940	0.597700	0.226870
N241	N24	0.963910	0.603400	0.220180
N251	N25	0.866470	0.374140	0.211570
N261	N26	0.805890	0.364250	0.155230
N271	N27	0.881110	0.453750	0.258790
N281	N28	0.871110	0.535780	0.255530
N291	N29	0.902420	0.373630	0.299940
N301	N30	0.899130	0.314870	0.358210
N311	N31	0.954060	0.402300	0.226870
N321	N32	0.036090	0.396600	0.220180
N331	N33	0.788430	0.866470	0.625860
N341	N34	0.844770	0.805890	0.635750
N351	N35	0.741210	0.881110	0.546250
N361	N36	0.744470	0.871110	0.464220
N371	N37	0.700060	0.902420	0.626370
N381	N38	0.641790	0.899130	0.685130
N391	N39	0.773130	0.954060	0.597700
N401	N40	0.779820	0.036090	0.603400
N411	N41	0.788430	0.133530	0.374140
N421	N42	0.844770	0.194110	0.364250
N431	N43	0.741210	0.118890	0.453750
N441	N44	0.744470	0.128890	0.535780
N451	N45	0.700060	0.097580	0.373630
N461	N46	0.641790	0.100870	0.314870
N471	N47	0.773130	0.045940	0.402300
N481	N48	0.779820	0.963910	0.396600
N491	N49	0.211570	0.133530	0.625860
N501	N50	0.155230	0.194110	0.635750
N511	N51	0.258790	0.118890	0.546250
N521	N52	0.255530	0.128890	0.464220
N531	N53	0.299940	0.097580	0.626370
N541	N54	0.358210	0.100870	0.685130
N551	N55	0.226870	0.045940	0.597700
N561	N56	0.220180	0.963910	0.603400
N571	N57	0.211570	0.866470	0.374140
N581	N58	0.155230	0.805890	0.364250
N591	N59	0.258790	0.881110	0.453750
N601	N60	0.255530	0.871110	0.535780
N611	N61	0.299940	0.902420	0.373630
N621	N62	0.358210	0.899130	0.314870
N631	N63	0.226870	0.954060	0.402300
N641	N64	0.220180	0.036090	0.396600
N651	N65	0.625860	0.788430	0.866470
N661	N66	0.635750	0.844770	0.805890
N671	N67	0.546250	0.741210	0.881110
N681	N68	0.464220	0.744470	0.871110
N691	N69	0.626370	0.700060	0.902420
N701	N70	0.685130	0.641790	0.899130
N711	N71	0.597700	0.773130	0.954060
N721	N72	0.603400	0.779820	0.036090
N731	N73	0.374140	0.788430	0.133530
N741	N74	0.364250	0.844770	0.194110
N751	N75	0.453750	0.741210	0.118890
N761	N76	0.535780	0.744470	0.128890
N771	N77	0.373630	0.700060	0.097580
N781	N78	0.314870	0.641790	0.100870
N791	N79	0.402300	0.773130	0.045940
N801	N80	0.396600	0.779820	0.963910
N811	N81	0.625860	0.211570	0.133530
N821	N82	0.635750	0.155230	0.194110
N831	N83	0.546250	0.258790	0.118890
N841	N84	0.464220	0.255530	0.128890
N851	N85	0.626370	0.299940	0.097580
N861	N86	0.685130	0.358210	0.100870
N871	N87	0.597700	0.226870	0.045940
N881	N88	0.603400	0.220180	0.963910
N891	N89	0.374140	0.211570	0.866470
N901	N90	0.364250	0.155230	0.805890
N911	N91	0.453750	0.258790	0.881110
N921	N92	0.535780	0.255530	0.871110
N931	N93	0.373630	0.299940	0.902420
N941	N94	0.314870	0.358210	0.899130
N951	N95	0.402300	0.226870	0.954060
N961	N96	0.396600	0.220180	0.036090
N971	N97	0.625860	0.866470	0.211570
N981	N98	0.635750	0.805890	0.155230
N991	N99	0.546250	0.881110	0.258790
N1001	N100	0.464220	0.871110	0.255530
N1011	N101	0.626370	0.902420	0.299940
N1021	N102	0.685130	0.899130	0.358210
N1031	N103	0.597700	0.954060	0.226870
N1041	N104	0.603400	0.036090	0.220180
N1051	N105	0.374140	0.133530	0.211570
N1061	N106	0.364250	0.194110	0.155230
N1071	N107	0.453750	0.118890	0.258790
N1081	N108	0.535780	0.128890	0.255530
N1091	N109	0.373630	0.097580	0.299940
N1101	N110	0.314870	0.100870	0.358210
N1111	N111	0.402300	0.045940	0.226870
N1121	N112	0.396600	0.963910	0.220180
N1131	N113	0.625860	0.133530	0.788430
N1141	N114	0.635750	0.194110	0.844770
N1151	N115	0.546250	0.118890	0.741210
N1161	N116	0.464220	0.128890	0.744470
N1171	N117	0.626370	0.097580	0.700060
N1181	N118	0.685130	0.100870	0.641790
N1191	N119	0.597700	0.045940	0.773130
N1201	N120	0.603400	0.963910	0.779820
N1211	N121	0.374140	0.866470	0.788430
N1221	N122	0.364250	0.805890	0.844770
N1231	N123	0.453750	0.881110	0.741210
N1241	N124	0.535780	0.871110	0.744470
N1251	N125	0.373630	0.902420	0.700060
N1261	N126	0.314870	0.899130	0.641790
N1271	N127	0.402300	0.954060	0.773130
N1281	N128	0.396600	0.036090	0.779820
N1291	N129	0.866470	0.788430	0.374140
N1301	N130	0.805890	0.844770	0.364250
N1311	N131	0.881110	0.741210	0.453750
N1321	N132	0.871110	0.744470	0.535780
N1331	N133	0.902420	0.700060	0.373630
N1341	N134	0.899130	0.641790	0.314870
N1351	N135	0.954060	0.773130	0.402300
N1361	N136	0.036090	0.779820	0.396600
N1371	N137	0.133530	0.788430	0.625860
N1381	N138	0.194110	0.844770	0.635750
N1391	N139	0.118890	0.741210	0.546250
N1401	N140	0.128890	0.744470	0.464220
N1411	N141	0.097580	0.700060	0.626370
N1421	N142	0.100870	0.641790	0.685130
N1431	N143	0.045940	0.773130	0.597700
N1441	N144	0.963910	0.779820	0.603400
N1451	N145	0.133530	0.211570	0.374140
N1461	N146	0.194110	0.155230	0.364250
N1471	N147	0.118890	0.258790	0.453750
N1481	N148	0.128890	0.255530	0.535780
N1491	N149	0.097580	0.299940	0.373630
N1501	N150	0.100870	0.358210	0.314870
N1511	N151	0.045940	0.226870	0.402300
N1521	N152	0.963910	0.220180	0.396600
N1531	N153	0.866470	0.211570	0.625860
N1541	N154	0.805890	0.155230	0.635750
N1551	N155	0.881110	0.258790	0.546250
N1561	N156	0.871110	0.255530	0.464220
N1571	N157	0.902420	0.299940	0.626370
N1581	N158	0.899130	0.358210	0.685130
N1591	N159	0.954060	0.226870	0.597700
N1601	N160	0.036090	0.220180	0.603400
N1611	N161	0.788430	0.625860	0.133530
N1621	N162	0.844770	0.635750	0.194110
N1631	N163	0.741210	0.546250	0.118890
N1641	N164	0.744470	0.464220	0.128890
N1651	N165	0.700060	0.626370	0.097580
N1661	N166	0.641790	0.685130	0.100870
N1671	N167	0.773130	0.597700	0.045940
N1681	N168	0.779820	0.603400	0.963910
N1691	N169	0.788430	0.374140	0.866470
N1701	N170	0.844770	0.364250	0.805890
N1711	N171	0.741210	0.453750	0.881110
N1721	N172	0.744470	0.535780	0.871110
N1731	N173	0.700060	0.373630	0.902420
N1741	N174	0.641790	0.314870	0.899130
N1751	N175	0.773130	0.402300	0.954060
N1761	N176	0.779820	0.396600	0.036090
N1771	N177	0.211570	0.625860	0.866470
N1781	N178	0.155230	0.635750	0.805890
N1791	N179	0.258790	0.546250	0.881110
N1801	N180	0.255530	0.464220	0.871110
N1811	N181	0.299940	0.626370	0.902420
N1821	N182	0.358210	0.685130	0.899130
N1831	N183	0.226870	0.597700	0.954060
N1841	N184	0.220180	0.603400	0.036090
N1851	N185	0.211570	0.374140	0.133530
N1861	N186	0.155230	0.364250	0.194110
N1871	N187	0.258790	0.453750	0.118890
N1881	N188	0.255530	0.535780	0.128890
N1891	N189	0.299940	0.373630	0.097580
N1901	N190	0.358210	0.314870	0.100870
N1911	N191	0.226870	0.402300	0.045940
N1921	N192	0.220180	0.396600	0.963910
