data_KUCDES_clean_PM
_symmetry_space_group_name_H-M	'P1'
_cell_length_a	26.292000
_cell_length_b	26.292000
_cell_length_c	26.292000
_cell_angle_alpha	90.000000
_cell_angle_beta	90.000000
_cell_angle_gamma	90.000000
_symmetry_Int_Tables_number 1

loop_
_symmetry_equiv_pos_as_xyz
'x,y,z'

loop_
_atom_site_label
_atom_site_type_symbol
_atom_site_fract_x
_atom_site_fract_y
_atom_site_fract_z
Li11	Li1	0.744640	0.609600	0.891290
B11	B1	0.748940	0.599990	0.101980
N11	N1	0.757520	0.621820	0.048090
N21	N2	0.752760	0.633730	0.964300
C11	C1	0.738680	0.604700	0.003340
H11	H1	0.717800	0.575400	0.000200
C21	C2	0.782110	0.672090	0.985360
C31	C3	0.784590	0.665330	0.036310
H21	H2	0.801900	0.686700	0.059800
C41	C4	0.804160	0.713010	0.954100
H31	H3	0.777400	0.728500	0.933300
H41	H4	0.830500	0.698800	0.931900
H51	H5	0.819200	0.738900	0.976300
N31	N3	0.724680	0.546290	0.098240
N41	N4	0.715940	0.462140	0.103000
C51	C5	0.746460	0.501320	0.108590
H61	H6	0.780900	0.498100	0.119000
C61	C6	0.670140	0.483410	0.087950
C71	C7	0.675470	0.534560	0.085580
H71	H7	0.649600	0.558200	0.076700
C81	C8	0.624890	0.450260	0.077470
H81	H8	0.631800	0.428800	0.047800
H91	H9	0.595100	0.471600	0.070700
H101	H10	0.618200	0.428700	0.107100
N51	N5	0.800940	0.596500	0.127660
N61	N6	0.862930	0.601210	0.185380
C91	C9	0.814180	0.609410	0.174750
H111	H11	0.790900	0.623300	0.198600
C101	C10	0.883680	0.581420	0.141060
C111	C11	0.845300	0.577930	0.105420
H121	H12	0.848600	0.565200	0.071800
C121	C12	0.938190	0.566940	0.135290
H131	H13	0.958900	0.597700	0.131900
H141	H14	0.942300	0.545800	0.104900
H151	H15	0.949200	0.547800	0.165300
N71	N7	0.712220	0.634270	0.130780
N81	N8	0.657090	0.697250	0.145610
C131	C13	0.690290	0.677190	0.114150
H161	H16	0.698100	0.691900	0.082100
C141	C14	0.656610	0.664570	0.186760
C151	C15	0.689080	0.626110	0.178270
H171	H17	0.695300	0.598300	0.200500
C161	C16	0.624270	0.674110	0.230930
H181	H18	0.627700	0.646000	0.255100
H191	H19	0.588700	0.676800	0.220000
H201	H20	0.634700	0.705900	0.247300
Li21	Li2	0.255360	0.390400	0.891290
B21	B2	0.251060	0.400010	0.101980
N91	N9	0.242480	0.378180	0.048090
N101	N10	0.247240	0.366270	0.964300
C171	C17	0.261320	0.395300	0.003340
H211	H21	0.282200	0.424600	0.000200
C181	C18	0.217890	0.327910	0.985360
C191	C19	0.215410	0.334670	0.036310
H221	H22	0.198100	0.313300	0.059800
C201	C20	0.195840	0.286990	0.954100
H231	H23	0.222600	0.271500	0.933300
H241	H24	0.169500	0.301200	0.931900
H251	H25	0.180800	0.261100	0.976300
N111	N11	0.275320	0.453710	0.098240
N121	N12	0.284060	0.537860	0.103000
C211	C21	0.253540	0.498680	0.108590
H261	H26	0.219100	0.501900	0.119000
C221	C22	0.329860	0.516590	0.087950
C231	C23	0.324530	0.465440	0.085580
H271	H27	0.350400	0.441800	0.076700
C241	C24	0.375110	0.549740	0.077470
H281	H28	0.368200	0.571200	0.047800
H291	H29	0.404900	0.528400	0.070700
H301	H30	0.381800	0.571300	0.107100
N131	N13	0.199060	0.403500	0.127660
N141	N14	0.137070	0.398790	0.185380
C251	C25	0.185820	0.390590	0.174750
H311	H31	0.209100	0.376700	0.198600
C261	C26	0.116320	0.418580	0.141060
C271	C27	0.154700	0.422070	0.105420
H321	H32	0.151400	0.434800	0.071800
C281	C28	0.061810	0.433060	0.135290
H331	H33	0.041100	0.402300	0.131900
H341	H34	0.057700	0.454200	0.104900
H351	H35	0.050800	0.452200	0.165300
N151	N15	0.287780	0.365730	0.130780
N161	N16	0.342910	0.302750	0.145610
C291	C29	0.309710	0.322810	0.114150
H361	H36	0.301900	0.308100	0.082100
C301	C30	0.343390	0.335430	0.186760
C311	C31	0.310920	0.373890	0.178270
H371	H37	0.304700	0.401700	0.200500
C321	C32	0.375730	0.325890	0.230930
H381	H38	0.372300	0.354000	0.255100
H391	H39	0.411300	0.323200	0.220000
H401	H40	0.365300	0.294100	0.247300
Li31	Li3	0.255360	0.609600	0.108710
B31	B3	0.251060	0.599990	0.898020
N171	N17	0.242480	0.621820	0.951910
N181	N18	0.247240	0.633730	0.035700
C331	C33	0.261320	0.604700	0.996660
H411	H41	0.282200	0.575400	0.999800
C341	C34	0.217890	0.672090	0.014640
C351	C35	0.215410	0.665330	0.963690
H421	H42	0.198100	0.686700	0.940200
C361	C36	0.195840	0.713010	0.045900
H431	H43	0.222600	0.728500	0.066700
H441	H44	0.169500	0.698800	0.068100
H451	H45	0.180800	0.738900	0.023700
N191	N19	0.275320	0.546290	0.901760
N201	N20	0.284060	0.462140	0.897000
C371	C37	0.253540	0.501320	0.891410
H461	H46	0.219100	0.498100	0.881000
C381	C38	0.329860	0.483410	0.912050
C391	C39	0.324530	0.534560	0.914420
H471	H47	0.350400	0.558200	0.923300
C401	C40	0.375110	0.450260	0.922530
H481	H48	0.368200	0.428800	0.952200
H491	H49	0.404900	0.471600	0.929300
H501	H50	0.381800	0.428700	0.892900
N211	N21	0.199060	0.596500	0.872340
N221	N22	0.137070	0.601210	0.814620
C411	C41	0.185820	0.609410	0.825250
H511	H51	0.209100	0.623300	0.801400
C421	C42	0.116320	0.581420	0.858940
C431	C43	0.154700	0.577930	0.894580
H521	H52	0.151400	0.565200	0.928200
C441	C44	0.061810	0.566940	0.864710
H531	H53	0.041100	0.597700	0.868100
H541	H54	0.057700	0.545800	0.895100
H551	H55	0.050800	0.547800	0.834700
N231	N23	0.287780	0.634270	0.869220
N241	N24	0.342910	0.697250	0.854390
C451	C45	0.309710	0.677190	0.885850
H561	H56	0.301900	0.691900	0.917900
C461	C46	0.343390	0.664570	0.813240
C471	C47	0.310920	0.626110	0.821730
H571	H57	0.304700	0.598300	0.799500
C481	C48	0.375730	0.674110	0.769070
H581	H58	0.372300	0.646000	0.744900
H591	H59	0.411300	0.676800	0.780000
H601	H60	0.365300	0.705900	0.752700
Li41	Li4	0.744640	0.390400	0.108710
B41	B4	0.748940	0.400010	0.898020
N251	N25	0.757520	0.378180	0.951910
N261	N26	0.752760	0.366270	0.035700
C491	C49	0.738680	0.395300	0.996660
H611	H61	0.717800	0.424600	0.999800
C501	C50	0.782110	0.327910	0.014640
C511	C51	0.784590	0.334670	0.963690
H621	H62	0.801900	0.313300	0.940200
C521	C52	0.804160	0.286990	0.045900
H631	H63	0.777400	0.271500	0.066700
H641	H64	0.830500	0.301200	0.068100
H651	H65	0.819200	0.261100	0.023700
N271	N27	0.724680	0.453710	0.901760
N281	N28	0.715940	0.537860	0.897000
C531	C53	0.746460	0.498680	0.891410
H661	H66	0.780900	0.501900	0.881000
C541	C54	0.670140	0.516590	0.912050
C551	C55	0.675470	0.465440	0.914420
H671	H67	0.649600	0.441800	0.923300
C561	C56	0.624890	0.549740	0.922530
H681	H68	0.631800	0.571200	0.952200
H691	H69	0.595100	0.528400	0.929300
H701	H70	0.618200	0.571300	0.892900
N291	N29	0.800940	0.403500	0.872340
N301	N30	0.862930	0.398790	0.814620
C571	C57	0.814180	0.390590	0.825250
H711	H71	0.790900	0.376700	0.801400
C581	C58	0.883680	0.418580	0.858940
C591	C59	0.845300	0.422070	0.894580
H721	H72	0.848600	0.434800	0.928200
C601	C60	0.938190	0.433060	0.864710
H731	H73	0.958900	0.402300	0.868100
H741	H74	0.942300	0.454200	0.895100
H751	H75	0.949200	0.452200	0.834700
N311	N31	0.712220	0.365730	0.869220
N321	N32	0.657090	0.302750	0.854390
C611	C61	0.690290	0.322810	0.885850
H761	H76	0.698100	0.308100	0.917900
C621	C62	0.656610	0.335430	0.813240
C631	C63	0.689080	0.373890	0.821730
H771	H77	0.695300	0.401700	0.799500
C641	C64	0.624270	0.325890	0.769070
H781	H78	0.627700	0.354000	0.744900
H791	H79	0.588700	0.323200	0.780000
H801	H80	0.634700	0.294100	0.752700
Li51	Li5	0.891290	0.744640	0.609600
B51	B5	0.101980	0.748940	0.599990
N331	N33	0.048090	0.757520	0.621820
N341	N34	0.964300	0.752760	0.633730
C651	C65	0.003340	0.738680	0.604700
H811	H81	0.000200	0.717800	0.575400
C661	C66	0.985360	0.782110	0.672090
C671	C67	0.036310	0.784590	0.665330
H821	H82	0.059800	0.801900	0.686700
C681	C68	0.954100	0.804160	0.713010
H831	H83	0.933300	0.777400	0.728500
H841	H84	0.931900	0.830500	0.698800
H851	H85	0.976300	0.819200	0.738900
N351	N35	0.098240	0.724680	0.546290
N361	N36	0.103000	0.715940	0.462140
C691	C69	0.108590	0.746460	0.501320
H861	H86	0.119000	0.780900	0.498100
C701	C70	0.087950	0.670140	0.483410
C711	C71	0.085580	0.675470	0.534560
H871	H87	0.076700	0.649600	0.558200
C721	C72	0.077470	0.624890	0.450260
H881	H88	0.047800	0.631800	0.428800
H891	H89	0.070700	0.595100	0.471600
H901	H90	0.107100	0.618200	0.428700
N371	N37	0.127660	0.800940	0.596500
N381	N38	0.185380	0.862930	0.601210
C731	C73	0.174750	0.814180	0.609410
H911	H91	0.198600	0.790900	0.623300
C741	C74	0.141060	0.883680	0.581420
C751	C75	0.105420	0.845300	0.577930
H921	H92	0.071800	0.848600	0.565200
C761	C76	0.135290	0.938190	0.566940
H931	H93	0.131900	0.958900	0.597700
H941	H94	0.104900	0.942300	0.545800
H951	H95	0.165300	0.949200	0.547800
N391	N39	0.130780	0.712220	0.634270
N401	N40	0.145610	0.657090	0.697250
C771	C77	0.114150	0.690290	0.677190
H961	H96	0.082100	0.698100	0.691900
C781	C78	0.186760	0.656610	0.664570
C791	C79	0.178270	0.689080	0.626110
H971	H97	0.200500	0.695300	0.598300
C801	C80	0.230930	0.624270	0.674110
H981	H98	0.255100	0.627700	0.646000
H991	H99	0.220000	0.588700	0.676800
H1001	H100	0.247300	0.634700	0.705900
Li61	Li6	0.891290	0.255360	0.390400
B61	B6	0.101980	0.251060	0.400010
N411	N41	0.048090	0.242480	0.378180
N421	N42	0.964300	0.247240	0.366270
C811	C81	0.003340	0.261320	0.395300
H1011	H101	0.000200	0.282200	0.424600
C821	C82	0.985360	0.217890	0.327910
C831	C83	0.036310	0.215410	0.334670
H1021	H102	0.059800	0.198100	0.313300
C841	C84	0.954100	0.195840	0.286990
H1031	H103	0.933300	0.222600	0.271500
H1041	H104	0.931900	0.169500	0.301200
H1051	H105	0.976300	0.180800	0.261100
N431	N43	0.098240	0.275320	0.453710
N441	N44	0.103000	0.284060	0.537860
C851	C85	0.108590	0.253540	0.498680
H1061	H106	0.119000	0.219100	0.501900
C861	C86	0.087950	0.329860	0.516590
C871	C87	0.085580	0.324530	0.465440
H1071	H107	0.076700	0.350400	0.441800
C881	C88	0.077470	0.375110	0.549740
H1081	H108	0.047800	0.368200	0.571200
H1091	H109	0.070700	0.404900	0.528400
H1101	H110	0.107100	0.381800	0.571300
N451	N45	0.127660	0.199060	0.403500
N461	N46	0.185380	0.137070	0.398790
C891	C89	0.174750	0.185820	0.390590
H1111	H111	0.198600	0.209100	0.376700
C901	C90	0.141060	0.116320	0.418580
C911	C91	0.105420	0.154700	0.422070
H1121	H112	0.071800	0.151400	0.434800
C921	C92	0.135290	0.061810	0.433060
H1131	H113	0.131900	0.041100	0.402300
H1141	H114	0.104900	0.057700	0.454200
H1151	H115	0.165300	0.050800	0.452200
N471	N47	0.130780	0.287780	0.365730
N481	N48	0.145610	0.342910	0.302750
C931	C93	0.114150	0.309710	0.322810
H1161	H116	0.082100	0.301900	0.308100
C941	C94	0.186760	0.343390	0.335430
C951	C95	0.178270	0.310920	0.373890
H1171	H117	0.200500	0.304700	0.401700
C961	C96	0.230930	0.375730	0.325890
H1181	H118	0.255100	0.372300	0.354000
H1191	H119	0.220000	0.411300	0.323200
H1201	H120	0.247300	0.365300	0.294100
Li71	Li7	0.108710	0.255360	0.609600
B71	B7	0.898020	0.251060	0.599990
N491	N49	0.951910	0.242480	0.621820
N501	N50	0.035700	0.247240	0.633730
C971	C97	0.996660	0.261320	0.604700
H1211	H121	0.999800	0.282200	0.575400
C981	C98	0.014640	0.217890	0.672090
C991	C99	0.963690	0.215410	0.665330
H1221	H122	0.940200	0.198100	0.686700
C1001	C100	0.045900	0.195840	0.713010
H1231	H123	0.066700	0.222600	0.728500
H1241	H124	0.068100	0.169500	0.698800
H1251	H125	0.023700	0.180800	0.738900
N511	N51	0.901760	0.275320	0.546290
N521	N52	0.897000	0.284060	0.462140
C1011	C101	0.891410	0.253540	0.501320
H1261	H126	0.881000	0.219100	0.498100
C1021	C102	0.912050	0.329860	0.483410
C1031	C103	0.914420	0.324530	0.534560
H1271	H127	0.923300	0.350400	0.558200
C1041	C104	0.922530	0.375110	0.450260
H1281	H128	0.952200	0.368200	0.428800
H1291	H129	0.929300	0.404900	0.471600
H1301	H130	0.892900	0.381800	0.428700
N531	N53	0.872340	0.199060	0.596500
N541	N54	0.814620	0.137070	0.601210
C1051	C105	0.825250	0.185820	0.609410
H1311	H131	0.801400	0.209100	0.623300
C1061	C106	0.858940	0.116320	0.581420
C1071	C107	0.894580	0.154700	0.577930
H1321	H132	0.928200	0.151400	0.565200
C1081	C108	0.864710	0.061810	0.566940
H1331	H133	0.868100	0.041100	0.597700
H1341	H134	0.895100	0.057700	0.545800
H1351	H135	0.834700	0.050800	0.547800
N551	N55	0.869220	0.287780	0.634270
N561	N56	0.854390	0.342910	0.697250
C1091	C109	0.885850	0.309710	0.677190
H1361	H136	0.917900	0.301900	0.691900
C1101	C110	0.813240	0.343390	0.664570
C1111	C111	0.821730	0.310920	0.626110
H1371	H137	0.799500	0.304700	0.598300
C1121	C112	0.769070	0.375730	0.674110
H1381	H138	0.744900	0.372300	0.646000
H1391	H139	0.780000	0.411300	0.676800
H1401	H140	0.752700	0.365300	0.705900
Li81	Li8	0.108710	0.744640	0.390400
B81	B8	0.898020	0.748940	0.400010
N571	N57	0.951910	0.757520	0.378180
N581	N58	0.035700	0.752760	0.366270
C1131	C113	0.996660	0.738680	0.395300
H1411	H141	0.999800	0.717800	0.424600
C1141	C114	0.014640	0.782110	0.327910
C1151	C115	0.963690	0.784590	0.334670
H1421	H142	0.940200	0.801900	0.313300
C1161	C116	0.045900	0.804160	0.286990
H1431	H143	0.066700	0.777400	0.271500
H1441	H144	0.068100	0.830500	0.301200
H1451	H145	0.023700	0.819200	0.261100
N591	N59	0.901760	0.724680	0.453710
N601	N60	0.897000	0.715940	0.537860
C1171	C117	0.891410	0.746460	0.498680
H1461	H146	0.881000	0.780900	0.501900
C1181	C118	0.912050	0.670140	0.516590
C1191	C119	0.914420	0.675470	0.465440
H1471	H147	0.923300	0.649600	0.441800
C1201	C120	0.922530	0.624890	0.549740
H1481	H148	0.952200	0.631800	0.571200
H1491	H149	0.929300	0.595100	0.528400
H1501	H150	0.892900	0.618200	0.571300
N611	N61	0.872340	0.800940	0.403500
N621	N62	0.814620	0.862930	0.398790
C1211	C121	0.825250	0.814180	0.390590
H1511	H151	0.801400	0.790900	0.376700
C1221	C122	0.858940	0.883680	0.418580
C1231	C123	0.894580	0.845300	0.422070
H1521	H152	0.928200	0.848600	0.434800
C1241	C124	0.864710	0.938190	0.433060
H1531	H153	0.868100	0.958900	0.402300
H1541	H154	0.895100	0.942300	0.454200
H1551	H155	0.834700	0.949200	0.452200
N631	N63	0.869220	0.712220	0.365730
N641	N64	0.854390	0.657090	0.302750
C1251	C125	0.885850	0.690290	0.322810
H1561	H156	0.917900	0.698100	0.308100
C1261	C126	0.813240	0.656610	0.335430
C1271	C127	0.821730	0.689080	0.373890
H1571	H157	0.799500	0.695300	0.401700
C1281	C128	0.769070	0.624270	0.325890
H1581	H158	0.744900	0.627700	0.354000
H1591	H159	0.780000	0.588700	0.323200
H1601	H160	0.752700	0.634700	0.294100
Li91	Li9	0.609600	0.891290	0.744640
B91	B9	0.599990	0.101980	0.748940
N651	N65	0.621820	0.048090	0.757520
N661	N66	0.633730	0.964300	0.752760
C1291	C129	0.604700	0.003340	0.738680
H1611	H161	0.575400	0.000200	0.717800
C1301	C130	0.672090	0.985360	0.782110
C1311	C131	0.665330	0.036310	0.784590
H1621	H162	0.686700	0.059800	0.801900
C1321	C132	0.713010	0.954100	0.804160
H1631	H163	0.728500	0.933300	0.777400
H1641	H164	0.698800	0.931900	0.830500
H1651	H165	0.738900	0.976300	0.819200
N671	N67	0.546290	0.098240	0.724680
N681	N68	0.462140	0.103000	0.715940
C1331	C133	0.501320	0.108590	0.746460
H1661	H166	0.498100	0.119000	0.780900
C1341	C134	0.483410	0.087950	0.670140
C1351	C135	0.534560	0.085580	0.675470
H1671	H167	0.558200	0.076700	0.649600
C1361	C136	0.450260	0.077470	0.624890
H1681	H168	0.428800	0.047800	0.631800
H1691	H169	0.471600	0.070700	0.595100
H1701	H170	0.428700	0.107100	0.618200
N691	N69	0.596500	0.127660	0.800940
N701	N70	0.601210	0.185380	0.862930
C1371	C137	0.609410	0.174750	0.814180
H1711	H171	0.623300	0.198600	0.790900
C1381	C138	0.581420	0.141060	0.883680
C1391	C139	0.577930	0.105420	0.845300
H1721	H172	0.565200	0.071800	0.848600
C1401	C140	0.566940	0.135290	0.938190
H1731	H173	0.597700	0.131900	0.958900
H1741	H174	0.545800	0.104900	0.942300
H1751	H175	0.547800	0.165300	0.949200
N711	N71	0.634270	0.130780	0.712220
N721	N72	0.697250	0.145610	0.657090
C1411	C141	0.677190	0.114150	0.690290
H1761	H176	0.691900	0.082100	0.698100
C1421	C142	0.664570	0.186760	0.656610
C1431	C143	0.626110	0.178270	0.689080
H1771	H177	0.598300	0.200500	0.695300
C1441	C144	0.674110	0.230930	0.624270
H1781	H178	0.646000	0.255100	0.627700
H1791	H179	0.676800	0.220000	0.588700
H1801	H180	0.705900	0.247300	0.634700
Li101	Li10	0.390400	0.891290	0.255360
B101	B10	0.400010	0.101980	0.251060
N731	N73	0.378180	0.048090	0.242480
N741	N74	0.366270	0.964300	0.247240
C1451	C145	0.395300	0.003340	0.261320
H1811	H181	0.424600	0.000200	0.282200
C1461	C146	0.327910	0.985360	0.217890
C1471	C147	0.334670	0.036310	0.215410
H1821	H182	0.313300	0.059800	0.198100
C1481	C148	0.286990	0.954100	0.195840
H1831	H183	0.271500	0.933300	0.222600
H1841	H184	0.301200	0.931900	0.169500
H1851	H185	0.261100	0.976300	0.180800
N751	N75	0.453710	0.098240	0.275320
N761	N76	0.537860	0.103000	0.284060
C1491	C149	0.498680	0.108590	0.253540
H1861	H186	0.501900	0.119000	0.219100
C1501	C150	0.516590	0.087950	0.329860
C1511	C151	0.465440	0.085580	0.324530
H1871	H187	0.441800	0.076700	0.350400
C1521	C152	0.549740	0.077470	0.375110
H1881	H188	0.571200	0.047800	0.368200
H1891	H189	0.528400	0.070700	0.404900
H1901	H190	0.571300	0.107100	0.381800
N771	N77	0.403500	0.127660	0.199060
N781	N78	0.398790	0.185380	0.137070
C1531	C153	0.390590	0.174750	0.185820
H1911	H191	0.376700	0.198600	0.209100
C1541	C154	0.418580	0.141060	0.116320
C1551	C155	0.422070	0.105420	0.154700
H1921	H192	0.434800	0.071800	0.151400
C1561	C156	0.433060	0.135290	0.061810
H1931	H193	0.402300	0.131900	0.041100
H1941	H194	0.454200	0.104900	0.057700
H1951	H195	0.452200	0.165300	0.050800
N791	N79	0.365730	0.130780	0.287780
N801	N80	0.302750	0.145610	0.342910
C1571	C157	0.322810	0.114150	0.309710
H1961	H196	0.308100	0.082100	0.301900
C1581	C158	0.335430	0.186760	0.343390
C1591	C159	0.373890	0.178270	0.310920
H1971	H197	0.401700	0.200500	0.304700
C1601	C160	0.325890	0.230930	0.375730
H1981	H198	0.354000	0.255100	0.372300
H1991	H199	0.323200	0.220000	0.411300
H2001	H200	0.294100	0.247300	0.365300
Li111	Li11	0.609600	0.108710	0.255360
B111	B11	0.599990	0.898020	0.251060
N811	N81	0.621820	0.951910	0.242480
N821	N82	0.633730	0.035700	0.247240
C1611	C161	0.604700	0.996660	0.261320
H2011	H201	0.575400	0.999800	0.282200
C1621	C162	0.672090	0.014640	0.217890
C1631	C163	0.665330	0.963690	0.215410
H2021	H202	0.686700	0.940200	0.198100
C1641	C164	0.713010	0.045900	0.195840
H2031	H203	0.728500	0.066700	0.222600
H2041	H204	0.698800	0.068100	0.169500
H2051	H205	0.738900	0.023700	0.180800
N831	N83	0.546290	0.901760	0.275320
N841	N84	0.462140	0.897000	0.284060
C1651	C165	0.501320	0.891410	0.253540
H2061	H206	0.498100	0.881000	0.219100
C1661	C166	0.483410	0.912050	0.329860
C1671	C167	0.534560	0.914420	0.324530
H2071	H207	0.558200	0.923300	0.350400
C1681	C168	0.450260	0.922530	0.375110
H2081	H208	0.428800	0.952200	0.368200
H2091	H209	0.471600	0.929300	0.404900
H2101	H210	0.428700	0.892900	0.381800
N851	N85	0.596500	0.872340	0.199060
N861	N86	0.601210	0.814620	0.137070
C1691	C169	0.609410	0.825250	0.185820
H2111	H211	0.623300	0.801400	0.209100
C1701	C170	0.581420	0.858940	0.116320
C1711	C171	0.577930	0.894580	0.154700
H2121	H212	0.565200	0.928200	0.151400
C1721	C172	0.566940	0.864710	0.061810
H2131	H213	0.597700	0.868100	0.041100
H2141	H214	0.545800	0.895100	0.057700
H2151	H215	0.547800	0.834700	0.050800
N871	N87	0.634270	0.869220	0.287780
N881	N88	0.697250	0.854390	0.342910
C1731	C173	0.677190	0.885850	0.309710
H2161	H216	0.691900	0.917900	0.301900
C1741	C174	0.664570	0.813240	0.343390
C1751	C175	0.626110	0.821730	0.310920
H2171	H217	0.598300	0.799500	0.304700
C1761	C176	0.674110	0.769070	0.375730
H2181	H218	0.646000	0.744900	0.372300
H2191	H219	0.676800	0.780000	0.411300
H2201	H220	0.705900	0.752700	0.365300
Li121	Li12	0.390400	0.108710	0.744640
B121	B12	0.400010	0.898020	0.748940
N891	N89	0.378180	0.951910	0.757520
N901	N90	0.366270	0.035700	0.752760
C1771	C177	0.395300	0.996660	0.738680
H2211	H221	0.424600	0.999800	0.717800
C1781	C178	0.327910	0.014640	0.782110
C1791	C179	0.334670	0.963690	0.784590
H2221	H222	0.313300	0.940200	0.801900
C1801	C180	0.286990	0.045900	0.804160
H2231	H223	0.271500	0.066700	0.777400
H2241	H224	0.301200	0.068100	0.830500
H2251	H225	0.261100	0.023700	0.819200
N911	N91	0.453710	0.901760	0.724680
N921	N92	0.537860	0.897000	0.715940
C1811	C181	0.498680	0.891410	0.746460
H2261	H226	0.501900	0.881000	0.780900
C1821	C182	0.516590	0.912050	0.670140
C1831	C183	0.465440	0.914420	0.675470
H2271	H227	0.441800	0.923300	0.649600
C1841	C184	0.549740	0.922530	0.624890
H2281	H228	0.571200	0.952200	0.631800
H2291	H229	0.528400	0.929300	0.595100
H2301	H230	0.571300	0.892900	0.618200
N931	N93	0.403500	0.872340	0.800940
N941	N94	0.398790	0.814620	0.862930
C1851	C185	0.390590	0.825250	0.814180
H2311	H231	0.376700	0.801400	0.790900
C1861	C186	0.418580	0.858940	0.883680
C1871	C187	0.422070	0.894580	0.845300
H2321	H232	0.434800	0.928200	0.848600
C1881	C188	0.433060	0.864710	0.938190
H2331	H233	0.402300	0.868100	0.958900
H2341	H234	0.454200	0.895100	0.942300
H2351	H235	0.452200	0.834700	0.949200
N951	N95	0.365730	0.869220	0.712220
N961	N96	0.302750	0.854390	0.657090
C1891	C189	0.322810	0.885850	0.690290
H2361	H236	0.308100	0.917900	0.698100
C1901	C190	0.335430	0.813240	0.656610
C1911	C191	0.373890	0.821730	0.689080
H2371	H237	0.401700	0.799500	0.695300
C1921	C192	0.325890	0.769070	0.624270
H2381	H238	0.354000	0.744900	0.627700
H2391	H239	0.323200	0.780000	0.588700
H2401	H240	0.294100	0.752700	0.634700
Li131	Li13	0.609600	0.744640	0.108710
B131	B13	0.599990	0.748940	0.898020
N971	N97	0.621820	0.757520	0.951910
N981	N98	0.633730	0.752760	0.035700
C1931	C193	0.604700	0.738680	0.996660
H2411	H241	0.575400	0.717800	0.999800
C1941	C194	0.672090	0.782110	0.014640
C1951	C195	0.665330	0.784590	0.963690
H2421	H242	0.686700	0.801900	0.940200
C1961	C196	0.713010	0.804160	0.045900
H2431	H243	0.728500	0.777400	0.066700
H2441	H244	0.698800	0.830500	0.068100
H2451	H245	0.738900	0.819200	0.023700
N991	N99	0.546290	0.724680	0.901760
N1001	N100	0.462140	0.715940	0.897000
C1971	C197	0.501320	0.746460	0.891410
H2461	H246	0.498100	0.780900	0.881000
C1981	C198	0.483410	0.670140	0.912050
C1991	C199	0.534560	0.675470	0.914420
H2471	H247	0.558200	0.649600	0.923300
C2001	C200	0.450260	0.624890	0.922530
H2481	H248	0.428800	0.631800	0.952200
H2491	H249	0.471600	0.595100	0.929300
H2501	H250	0.428700	0.618200	0.892900
N1011	N101	0.596500	0.800940	0.872340
N1021	N102	0.601210	0.862930	0.814620
C2011	C201	0.609410	0.814180	0.825250
H2511	H251	0.623300	0.790900	0.801400
C2021	C202	0.581420	0.883680	0.858940
C2031	C203	0.577930	0.845300	0.894580
H2521	H252	0.565200	0.848600	0.928200
C2041	C204	0.566940	0.938190	0.864710
H2531	H253	0.597700	0.958900	0.868100
H2541	H254	0.545800	0.942300	0.895100
H2551	H255	0.547800	0.949200	0.834700
N1031	N103	0.634270	0.712220	0.869220
N1041	N104	0.697250	0.657090	0.854390
C2051	C205	0.677190	0.690290	0.885850
H2561	H256	0.691900	0.698100	0.917900
C2061	C206	0.664570	0.656610	0.813240
C2071	C207	0.626110	0.689080	0.821730
H2571	H257	0.598300	0.695300	0.799500
C2081	C208	0.674110	0.624270	0.769070
H2581	H258	0.646000	0.627700	0.744900
H2591	H259	0.676800	0.588700	0.780000
H2601	H260	0.705900	0.634700	0.752700
Li141	Li14	0.390400	0.255360	0.108710
B141	B14	0.400010	0.251060	0.898020
N1051	N105	0.378180	0.242480	0.951910
N1061	N106	0.366270	0.247240	0.035700
C2091	C209	0.395300	0.261320	0.996660
H2611	H261	0.424600	0.282200	0.999800
C2101	C210	0.327910	0.217890	0.014640
C2111	C211	0.334670	0.215410	0.963690
H2621	H262	0.313300	0.198100	0.940200
C2121	C212	0.286990	0.195840	0.045900
H2631	H263	0.271500	0.222600	0.066700
H2641	H264	0.301200	0.169500	0.068100
H2651	H265	0.261100	0.180800	0.023700
N1071	N107	0.453710	0.275320	0.901760
N1081	N108	0.537860	0.284060	0.897000
C2131	C213	0.498680	0.253540	0.891410
H2661	H266	0.501900	0.219100	0.881000
C2141	C214	0.516590	0.329860	0.912050
C2151	C215	0.465440	0.324530	0.914420
H2671	H267	0.441800	0.350400	0.923300
C2161	C216	0.549740	0.375110	0.922530
H2681	H268	0.571200	0.368200	0.952200
H2691	H269	0.528400	0.404900	0.929300
H2701	H270	0.571300	0.381800	0.892900
N1091	N109	0.403500	0.199060	0.872340
N1101	N110	0.398790	0.137070	0.814620
C2171	C217	0.390590	0.185820	0.825250
H2711	H271	0.376700	0.209100	0.801400
C2181	C218	0.418580	0.116320	0.858940
C2191	C219	0.422070	0.154700	0.894580
H2721	H272	0.434800	0.151400	0.928200
C2201	C220	0.433060	0.061810	0.864710
H2731	H273	0.402300	0.041100	0.868100
H2741	H274	0.454200	0.057700	0.895100
H2751	H275	0.452200	0.050800	0.834700
N1111	N111	0.365730	0.287780	0.869220
N1121	N112	0.302750	0.342910	0.854390
C2211	C221	0.322810	0.309710	0.885850
H2761	H276	0.308100	0.301900	0.917900
C2221	C222	0.335430	0.343390	0.813240
C2231	C223	0.373890	0.310920	0.821730
H2771	H277	0.401700	0.304700	0.799500
C2241	C224	0.325890	0.375730	0.769070
H2781	H278	0.354000	0.372300	0.744900
H2791	H279	0.323200	0.411300	0.780000
H2801	H280	0.294100	0.365300	0.752700
Li151	Li15	0.609600	0.255360	0.891290
B151	B15	0.599990	0.251060	0.101980
N1131	N113	0.621820	0.242480	0.048090
N1141	N114	0.633730	0.247240	0.964300
C2251	C225	0.604700	0.261320	0.003340
H2811	H281	0.575400	0.282200	0.000200
C2261	C226	0.672090	0.217890	0.985360
C2271	C227	0.665330	0.215410	0.036310
H2821	H282	0.686700	0.198100	0.059800
C2281	C228	0.713010	0.195840	0.954100
H2831	H283	0.728500	0.222600	0.933300
H2841	H284	0.698800	0.169500	0.931900
H2851	H285	0.738900	0.180800	0.976300
N1151	N115	0.546290	0.275320	0.098240
N1161	N116	0.462140	0.284060	0.103000
C2291	C229	0.501320	0.253540	0.108590
H2861	H286	0.498100	0.219100	0.119000
C2301	C230	0.483410	0.329860	0.087950
C2311	C231	0.534560	0.324530	0.085580
H2871	H287	0.558200	0.350400	0.076700
C2321	C232	0.450260	0.375110	0.077470
H2881	H288	0.428800	0.368200	0.047800
H2891	H289	0.471600	0.404900	0.070700
H2901	H290	0.428700	0.381800	0.107100
N1171	N117	0.596500	0.199060	0.127660
N1181	N118	0.601210	0.137070	0.185380
C2331	C233	0.609410	0.185820	0.174750
H2911	H291	0.623300	0.209100	0.198600
C2341	C234	0.581420	0.116320	0.141060
C2351	C235	0.577930	0.154700	0.105420
H2921	H292	0.565200	0.151400	0.071800
C2361	C236	0.566940	0.061810	0.135290
H2931	H293	0.597700	0.041100	0.131900
H2941	H294	0.545800	0.057700	0.104900
H2951	H295	0.547800	0.050800	0.165300
N1191	N119	0.634270	0.287780	0.130780
N1201	N120	0.697250	0.342910	0.145610
C2371	C237	0.677190	0.309710	0.114150
H2961	H296	0.691900	0.301900	0.082100
C2381	C238	0.664570	0.343390	0.186760
C2391	C239	0.626110	0.310920	0.178270
H2971	H297	0.598300	0.304700	0.200500
C2401	C240	0.674110	0.375730	0.230930
H2981	H298	0.646000	0.372300	0.255100
H2991	H299	0.676800	0.411300	0.220000
H3001	H300	0.705900	0.365300	0.247300
Li161	Li16	0.390400	0.744640	0.891290
B161	B16	0.400010	0.748940	0.101980
N1211	N121	0.378180	0.757520	0.048090
N1221	N122	0.366270	0.752760	0.964300
C2411	C241	0.395300	0.738680	0.003340
H3011	H301	0.424600	0.717800	0.000200
C2421	C242	0.327910	0.782110	0.985360
C2431	C243	0.334670	0.784590	0.036310
H3021	H302	0.313300	0.801900	0.059800
C2441	C244	0.286990	0.804160	0.954100
H3031	H303	0.271500	0.777400	0.933300
H3041	H304	0.301200	0.830500	0.931900
H3051	H305	0.261100	0.819200	0.976300
N1231	N123	0.453710	0.724680	0.098240
N1241	N124	0.537860	0.715940	0.103000
C2451	C245	0.498680	0.746460	0.108590
H3061	H306	0.501900	0.780900	0.119000
C2461	C246	0.516590	0.670140	0.087950
C2471	C247	0.465440	0.675470	0.085580
H3071	H307	0.441800	0.649600	0.076700
C2481	C248	0.549740	0.624890	0.077470
H3081	H308	0.571200	0.631800	0.047800
H3091	H309	0.528400	0.595100	0.070700
H3101	H310	0.571300	0.618200	0.107100
N1251	N125	0.403500	0.800940	0.127660
N1261	N126	0.398790	0.862930	0.185380
C2491	C249	0.390590	0.814180	0.174750
H3111	H311	0.376700	0.790900	0.198600
C2501	C250	0.418580	0.883680	0.141060
C2511	C251	0.422070	0.845300	0.105420
H3121	H312	0.434800	0.848600	0.071800
C2521	C252	0.433060	0.938190	0.135290
H3131	H313	0.402300	0.958900	0.131900
H3141	H314	0.454200	0.942300	0.104900
H3151	H315	0.452200	0.949200	0.165300
N1271	N127	0.365730	0.712220	0.130780
N1281	N128	0.302750	0.657090	0.145610
C2531	C253	0.322810	0.690290	0.114150
H3161	H316	0.308100	0.698100	0.082100
C2541	C254	0.335430	0.656610	0.186760
C2551	C255	0.373890	0.689080	0.178270
H3171	H317	0.401700	0.695300	0.200500
C2561	C256	0.325890	0.624270	0.230930
H3181	H318	0.354000	0.627700	0.255100
H3191	H319	0.323200	0.588700	0.220000
H3201	H320	0.294100	0.634700	0.247300
Li171	Li17	0.744640	0.891290	0.390400
B171	B17	0.748940	0.101980	0.400010
N1291	N129	0.757520	0.048090	0.378180
N1301	N130	0.752760	0.964300	0.366270
C2571	C257	0.738680	0.003340	0.395300
H3211	H321	0.717800	0.000200	0.424600
C2581	C258	0.782110	0.985360	0.327910
C2591	C259	0.784590	0.036310	0.334670
H3221	H322	0.801900	0.059800	0.313300
C2601	C260	0.804160	0.954100	0.286990
H3231	H323	0.777400	0.933300	0.271500
H3241	H324	0.830500	0.931900	0.301200
H3251	H325	0.819200	0.976300	0.261100
N1311	N131	0.724680	0.098240	0.453710
N1321	N132	0.715940	0.103000	0.537860
C2611	C261	0.746460	0.108590	0.498680
H3261	H326	0.780900	0.119000	0.501900
C2621	C262	0.670140	0.087950	0.516590
C2631	C263	0.675470	0.085580	0.465440
H3271	H327	0.649600	0.076700	0.441800
C2641	C264	0.624890	0.077470	0.549740
H3281	H328	0.631800	0.047800	0.571200
H3291	H329	0.595100	0.070700	0.528400
H3301	H330	0.618200	0.107100	0.571300
N1331	N133	0.800940	0.127660	0.403500
N1341	N134	0.862930	0.185380	0.398790
C2651	C265	0.814180	0.174750	0.390590
H3311	H331	0.790900	0.198600	0.376700
C2661	C266	0.883680	0.141060	0.418580
C2671	C267	0.845300	0.105420	0.422070
H3321	H332	0.848600	0.071800	0.434800
C2681	C268	0.938190	0.135290	0.433060
H3331	H333	0.958900	0.131900	0.402300
H3341	H334	0.942300	0.104900	0.454200
H3351	H335	0.949200	0.165300	0.452200
N1351	N135	0.712220	0.130780	0.365730
N1361	N136	0.657090	0.145610	0.302750
C2691	C269	0.690290	0.114150	0.322810
H3361	H336	0.698100	0.082100	0.308100
C2701	C270	0.656610	0.186760	0.335430
C2711	C271	0.689080	0.178270	0.373890
H3371	H337	0.695300	0.200500	0.401700
C2721	C272	0.624270	0.230930	0.325890
H3381	H338	0.627700	0.255100	0.354000
H3391	H339	0.588700	0.220000	0.323200
H3401	H340	0.634700	0.247300	0.294100
Li181	Li18	0.255360	0.891290	0.609600
B181	B18	0.251060	0.101980	0.599990
N1371	N137	0.242480	0.048090	0.621820
N1381	N138	0.247240	0.964300	0.633730
C2731	C273	0.261320	0.003340	0.604700
H3411	H341	0.282200	0.000200	0.575400
C2741	C274	0.217890	0.985360	0.672090
C2751	C275	0.215410	0.036310	0.665330
H3421	H342	0.198100	0.059800	0.686700
C2761	C276	0.195840	0.954100	0.713010
H3431	H343	0.222600	0.933300	0.728500
H3441	H344	0.169500	0.931900	0.698800
H3451	H345	0.180800	0.976300	0.738900
N1391	N139	0.275320	0.098240	0.546290
N1401	N140	0.284060	0.103000	0.462140
C2771	C277	0.253540	0.108590	0.501320
H3461	H346	0.219100	0.119000	0.498100
C2781	C278	0.329860	0.087950	0.483410
C2791	C279	0.324530	0.085580	0.534560
H3471	H347	0.350400	0.076700	0.558200
C2801	C280	0.375110	0.077470	0.450260
H3481	H348	0.368200	0.047800	0.428800
H3491	H349	0.404900	0.070700	0.471600
H3501	H350	0.381800	0.107100	0.428700
N1411	N141	0.199060	0.127660	0.596500
N1421	N142	0.137070	0.185380	0.601210
C2811	C281	0.185820	0.174750	0.609410
H3511	H351	0.209100	0.198600	0.623300
C2821	C282	0.116320	0.141060	0.581420
C2831	C283	0.154700	0.105420	0.577930
H3521	H352	0.151400	0.071800	0.565200
C2841	C284	0.061810	0.135290	0.566940
H3531	H353	0.041100	0.131900	0.597700
H3541	H354	0.057700	0.104900	0.545800
H3551	H355	0.050800	0.165300	0.547800
N1431	N143	0.287780	0.130780	0.634270
N1441	N144	0.342910	0.145610	0.697250
C2851	C285	0.309710	0.114150	0.677190
H3561	H356	0.301900	0.082100	0.691900
C2861	C286	0.343390	0.186760	0.664570
C2871	C287	0.310920	0.178270	0.626110
H3571	H357	0.304700	0.200500	0.598300
C2881	C288	0.375730	0.230930	0.674110
H3581	H358	0.372300	0.255100	0.646000
H3591	H359	0.411300	0.220000	0.676800
H3601	H360	0.365300	0.247300	0.705900
Li191	Li19	0.255360	0.108710	0.390400
B191	B19	0.251060	0.898020	0.400010
N1451	N145	0.242480	0.951910	0.378180
N1461	N146	0.247240	0.035700	0.366270
C2891	C289	0.261320	0.996660	0.395300
H3611	H361	0.282200	0.999800	0.424600
C2901	C290	0.217890	0.014640	0.327910
C2911	C291	0.215410	0.963690	0.334670
H3621	H362	0.198100	0.940200	0.313300
C2921	C292	0.195840	0.045900	0.286990
H3631	H363	0.222600	0.066700	0.271500
H3641	H364	0.169500	0.068100	0.301200
H3651	H365	0.180800	0.023700	0.261100
N1471	N147	0.275320	0.901760	0.453710
N1481	N148	0.284060	0.897000	0.537860
C2931	C293	0.253540	0.891410	0.498680
H3661	H366	0.219100	0.881000	0.501900
C2941	C294	0.329860	0.912050	0.516590
C2951	C295	0.324530	0.914420	0.465440
H3671	H367	0.350400	0.923300	0.441800
C2961	C296	0.375110	0.922530	0.549740
H3681	H368	0.368200	0.952200	0.571200
H3691	H369	0.404900	0.929300	0.528400
H3701	H370	0.381800	0.892900	0.571300
N1491	N149	0.199060	0.872340	0.403500
N1501	N150	0.137070	0.814620	0.398790
C2971	C297	0.185820	0.825250	0.390590
H3711	H371	0.209100	0.801400	0.376700
C2981	C298	0.116320	0.858940	0.418580
C2991	C299	0.154700	0.894580	0.422070
H3721	H372	0.151400	0.928200	0.434800
C3001	C300	0.061810	0.864710	0.433060
H3731	H373	0.041100	0.868100	0.402300
H3741	H374	0.057700	0.895100	0.454200
H3751	H375	0.050800	0.834700	0.452200
N1511	N151	0.287780	0.869220	0.365730
N1521	N152	0.342910	0.854390	0.302750
C3011	C301	0.309710	0.885850	0.322810
H3761	H376	0.301900	0.917900	0.308100
C3021	C302	0.343390	0.813240	0.335430
C3031	C303	0.310920	0.821730	0.373890
H3771	H377	0.304700	0.799500	0.401700
C3041	C304	0.375730	0.769070	0.325890
H3781	H378	0.372300	0.744900	0.354000
H3791	H379	0.411300	0.780000	0.323200
H3801	H380	0.365300	0.752700	0.294100
Li201	Li20	0.744640	0.108710	0.609600
B201	B20	0.748940	0.898020	0.599990
N1531	N153	0.757520	0.951910	0.621820
N1541	N154	0.752760	0.035700	0.633730
C3051	C305	0.738680	0.996660	0.604700
H3811	H381	0.717800	0.999800	0.575400
C3061	C306	0.782110	0.014640	0.672090
C3071	C307	0.784590	0.963690	0.665330
H3821	H382	0.801900	0.940200	0.686700
C3081	C308	0.804160	0.045900	0.713010
H3831	H383	0.777400	0.066700	0.728500
H3841	H384	0.830500	0.068100	0.698800
H3851	H385	0.819200	0.023700	0.738900
N1551	N155	0.724680	0.901760	0.546290
N1561	N156	0.715940	0.897000	0.462140
C3091	C309	0.746460	0.891410	0.501320
H3861	H386	0.780900	0.881000	0.498100
C3101	C310	0.670140	0.912050	0.483410
C3111	C311	0.675470	0.914420	0.534560
H3871	H387	0.649600	0.923300	0.558200
C3121	C312	0.624890	0.922530	0.450260
H3881	H388	0.631800	0.952200	0.428800
H3891	H389	0.595100	0.929300	0.471600
H3901	H390	0.618200	0.892900	0.428700
N1571	N157	0.800940	0.872340	0.596500
N1581	N158	0.862930	0.814620	0.601210
C3131	C313	0.814180	0.825250	0.609410
H3911	H391	0.790900	0.801400	0.623300
C3141	C314	0.883680	0.858940	0.581420
C3151	C315	0.845300	0.894580	0.577930
H3921	H392	0.848600	0.928200	0.565200
C3161	C316	0.938190	0.864710	0.566940
H3931	H393	0.958900	0.868100	0.597700
H3941	H394	0.942300	0.895100	0.545800
H3951	H395	0.949200	0.834700	0.547800
N1591	N159	0.712220	0.869220	0.634270
N1601	N160	0.657090	0.854390	0.697250
C3171	C317	0.690290	0.885850	0.677190
H3961	H396	0.698100	0.917900	0.691900
C3181	C318	0.656610	0.813240	0.664570
C3191	C319	0.689080	0.821730	0.626110
H3971	H397	0.695300	0.799500	0.598300
C3201	C320	0.624270	0.769070	0.674110
H3981	H398	0.627700	0.744900	0.646000
H3991	H399	0.588700	0.780000	0.676800
H4001	H400	0.634700	0.752700	0.705900
Li211	Li21	0.891290	0.609600	0.255360
B211	B21	0.101980	0.599990	0.251060
N1611	N161	0.048090	0.621820	0.242480
N1621	N162	0.964300	0.633730	0.247240
C3211	C321	0.003340	0.604700	0.261320
H4011	H401	0.000200	0.575400	0.282200
C3221	C322	0.985360	0.672090	0.217890
C3231	C323	0.036310	0.665330	0.215410
H4021	H402	0.059800	0.686700	0.198100
C3241	C324	0.954100	0.713010	0.195840
H4031	H403	0.933300	0.728500	0.222600
H4041	H404	0.931900	0.698800	0.169500
H4051	H405	0.976300	0.738900	0.180800
N1631	N163	0.098240	0.546290	0.275320
N1641	N164	0.103000	0.462140	0.284060
C3251	C325	0.108590	0.501320	0.253540
H4061	H406	0.119000	0.498100	0.219100
C3261	C326	0.087950	0.483410	0.329860
C3271	C327	0.085580	0.534560	0.324530
H4071	H407	0.076700	0.558200	0.350400
C3281	C328	0.077470	0.450260	0.375110
H4081	H408	0.047800	0.428800	0.368200
H4091	H409	0.070700	0.471600	0.404900
H4101	H410	0.107100	0.428700	0.381800
N1651	N165	0.127660	0.596500	0.199060
N1661	N166	0.185380	0.601210	0.137070
C3291	C329	0.174750	0.609410	0.185820
H4111	H411	0.198600	0.623300	0.209100
C3301	C330	0.141060	0.581420	0.116320
C3311	C331	0.105420	0.577930	0.154700
H4121	H412	0.071800	0.565200	0.151400
C3321	C332	0.135290	0.566940	0.061810
H4131	H413	0.131900	0.597700	0.041100
H4141	H414	0.104900	0.545800	0.057700
H4151	H415	0.165300	0.547800	0.050800
N1671	N167	0.130780	0.634270	0.287780
N1681	N168	0.145610	0.697250	0.342910
C3331	C333	0.114150	0.677190	0.309710
H4161	H416	0.082100	0.691900	0.301900
C3341	C334	0.186760	0.664570	0.343390
C3351	C335	0.178270	0.626110	0.310920
H4171	H417	0.200500	0.598300	0.304700
C3361	C336	0.230930	0.674110	0.375730
H4181	H418	0.255100	0.646000	0.372300
H4191	H419	0.220000	0.676800	0.411300
H4201	H420	0.247300	0.705900	0.365300
Li221	Li22	0.891290	0.390400	0.744640
B221	B22	0.101980	0.400010	0.748940
N1691	N169	0.048090	0.378180	0.757520
N1701	N170	0.964300	0.366270	0.752760
C3371	C337	0.003340	0.395300	0.738680
H4211	H421	0.000200	0.424600	0.717800
C3381	C338	0.985360	0.327910	0.782110
C3391	C339	0.036310	0.334670	0.784590
H4221	H422	0.059800	0.313300	0.801900
C3401	C340	0.954100	0.286990	0.804160
H4231	H423	0.933300	0.271500	0.777400
H4241	H424	0.931900	0.301200	0.830500
H4251	H425	0.976300	0.261100	0.819200
N1711	N171	0.098240	0.453710	0.724680
N1721	N172	0.103000	0.537860	0.715940
C3411	C341	0.108590	0.498680	0.746460
H4261	H426	0.119000	0.501900	0.780900
C3421	C342	0.087950	0.516590	0.670140
C3431	C343	0.085580	0.465440	0.675470
H4271	H427	0.076700	0.441800	0.649600
C3441	C344	0.077470	0.549740	0.624890
H4281	H428	0.047800	0.571200	0.631800
H4291	H429	0.070700	0.528400	0.595100
H4301	H430	0.107100	0.571300	0.618200
N1731	N173	0.127660	0.403500	0.800940
N1741	N174	0.185380	0.398790	0.862930
C3451	C345	0.174750	0.390590	0.814180
H4311	H431	0.198600	0.376700	0.790900
C3461	C346	0.141060	0.418580	0.883680
C3471	C347	0.105420	0.422070	0.845300
H4321	H432	0.071800	0.434800	0.848600
C3481	C348	0.135290	0.433060	0.938190
H4331	H433	0.131900	0.402300	0.958900
H4341	H434	0.104900	0.454200	0.942300
H4351	H435	0.165300	0.452200	0.949200
N1751	N175	0.130780	0.365730	0.712220
N1761	N176	0.145610	0.302750	0.657090
C3491	C349	0.114150	0.322810	0.690290
H4361	H436	0.082100	0.308100	0.698100
C3501	C350	0.186760	0.335430	0.656610
C3511	C351	0.178270	0.373890	0.689080
H4371	H437	0.200500	0.401700	0.695300
C3521	C352	0.230930	0.325890	0.624270
H4381	H438	0.255100	0.354000	0.627700
H4391	H439	0.220000	0.323200	0.588700
H4401	H440	0.247300	0.294100	0.634700
Li231	Li23	0.108710	0.609600	0.744640
B231	B23	0.898020	0.599990	0.748940
N1771	N177	0.951910	0.621820	0.757520
N1781	N178	0.035700	0.633730	0.752760
C3531	C353	0.996660	0.604700	0.738680
H4411	H441	0.999800	0.575400	0.717800
C3541	C354	0.014640	0.672090	0.782110
C3551	C355	0.963690	0.665330	0.784590
H4421	H442	0.940200	0.686700	0.801900
C3561	C356	0.045900	0.713010	0.804160
H4431	H443	0.066700	0.728500	0.777400
H4441	H444	0.068100	0.698800	0.830500
H4451	H445	0.023700	0.738900	0.819200
N1791	N179	0.901760	0.546290	0.724680
N1801	N180	0.897000	0.462140	0.715940
C3571	C357	0.891410	0.501320	0.746460
H4461	H446	0.881000	0.498100	0.780900
C3581	C358	0.912050	0.483410	0.670140
C3591	C359	0.914420	0.534560	0.675470
H4471	H447	0.923300	0.558200	0.649600
C3601	C360	0.922530	0.450260	0.624890
H4481	H448	0.952200	0.428800	0.631800
H4491	H449	0.929300	0.471600	0.595100
H4501	H450	0.892900	0.428700	0.618200
N1811	N181	0.872340	0.596500	0.800940
N1821	N182	0.814620	0.601210	0.862930
C3611	C361	0.825250	0.609410	0.814180
H4511	H451	0.801400	0.623300	0.790900
C3621	C362	0.858940	0.581420	0.883680
C3631	C363	0.894580	0.577930	0.845300
H4521	H452	0.928200	0.565200	0.848600
C3641	C364	0.864710	0.566940	0.938190
H4531	H453	0.868100	0.597700	0.958900
H4541	H454	0.895100	0.545800	0.942300
H4551	H455	0.834700	0.547800	0.949200
N1831	N183	0.869220	0.634270	0.712220
N1841	N184	0.854390	0.697250	0.657090
C3651	C365	0.885850	0.677190	0.690290
H4561	H456	0.917900	0.691900	0.698100
C3661	C366	0.813240	0.664570	0.656610
C3671	C367	0.821730	0.626110	0.689080
H4571	H457	0.799500	0.598300	0.695300
C3681	C368	0.769070	0.674110	0.624270
H4581	H458	0.744900	0.646000	0.627700
H4591	H459	0.780000	0.676800	0.588700
H4601	H460	0.752700	0.705900	0.634700
Li241	Li24	0.108710	0.390400	0.255360
B241	B24	0.898020	0.400010	0.251060
N1851	N185	0.951910	0.378180	0.242480
N1861	N186	0.035700	0.366270	0.247240
C3691	C369	0.996660	0.395300	0.261320
H4611	H461	0.999800	0.424600	0.282200
C3701	C370	0.014640	0.327910	0.217890
C3711	C371	0.963690	0.334670	0.215410
H4621	H462	0.940200	0.313300	0.198100
C3721	C372	0.045900	0.286990	0.195840
H4631	H463	0.066700	0.271500	0.222600
H4641	H464	0.068100	0.301200	0.169500
H4651	H465	0.023700	0.261100	0.180800
N1871	N187	0.901760	0.453710	0.275320
N1881	N188	0.897000	0.537860	0.284060
C3731	C373	0.891410	0.498680	0.253540
H4661	H466	0.881000	0.501900	0.219100
C3741	C374	0.912050	0.516590	0.329860
C3751	C375	0.914420	0.465440	0.324530
H4671	H467	0.923300	0.441800	0.350400
C3761	C376	0.922530	0.549740	0.375110
H4681	H468	0.952200	0.571200	0.368200
H4691	H469	0.929300	0.528400	0.404900
H4701	H470	0.892900	0.571300	0.381800
N1891	N189	0.872340	0.403500	0.199060
N1901	N190	0.814620	0.398790	0.137070
C3771	C377	0.825250	0.390590	0.185820
H4711	H471	0.801400	0.376700	0.209100
C3781	C378	0.858940	0.418580	0.116320
C3791	C379	0.894580	0.422070	0.154700
H4721	H472	0.928200	0.434800	0.151400
C3801	C380	0.864710	0.433060	0.061810
H4731	H473	0.868100	0.402300	0.041100
H4741	H474	0.895100	0.454200	0.057700
H4751	H475	0.834700	0.452200	0.050800
N1911	N191	0.869220	0.365730	0.287780
N1921	N192	0.854390	0.302750	0.342910
C3811	C381	0.885850	0.322810	0.309710
H4761	H476	0.917900	0.308100	0.301900
C3821	C382	0.813240	0.335430	0.343390
C3831	C383	0.821730	0.373890	0.310920
H4771	H477	0.799500	0.401700	0.304700
C3841	C384	0.769070	0.325890	0.375730
H4781	H478	0.744900	0.354000	0.372300
H4791	H479	0.780000	0.323200	0.411300
H4801	H480	0.752700	0.294100	0.365300
