data_KUDYUE_clean_PM
_symmetry_space_group_name_H-M	'P1'
_cell_length_a	31.920400
_cell_length_b	8.375900
_cell_length_c	15.789400
_cell_angle_alpha	90.000000
_cell_angle_beta	97.062000
_cell_angle_gamma	90.000000
_symmetry_Int_Tables_number 1

loop_
_symmetry_equiv_pos_as_xyz
'x,y,z'

loop_
_atom_site_label
_atom_site_type_symbol
_atom_site_fract_x
_atom_site_fract_y
_atom_site_fract_z
Zn11	Zn1	0.493340	0.757730	0.013050
Zn21	Zn2	0.990860	0.760380	0.511400
Zn31	Zn3	0.254910	0.524140	0.631520
Zn41	Zn4	0.251680	0.500970	0.891130
Zn51	Zn5	0.127160	0.709100	0.590030
Zn61	Zn6	0.371760	0.279460	0.938420
P11	P1	0.217590	0.838500	0.553800
P21	P2	0.057450	0.981100	0.627310
P31	P3	0.562530	0.978700	0.109120
P41	P4	0.063180	0.542000	0.439050
P51	P5	0.443340	0.447600	0.078500
P61	P6	0.176710	0.471200	0.725470
P71	P7	0.281120	0.212800	0.006010
P81	P8	0.330930	0.529500	0.793940
O11	O1	0.242420	0.845700	0.478300
O21	O2	0.151000	0.320100	0.745000
O31	O3	0.027840	0.664800	0.436800
O41	O4	0.459330	0.621000	0.078900
O51	O5	0.270140	0.307300	0.083500
O61	O6	0.560100	0.067700	0.196100
H11	H1	0.566900	0.006300	0.235800
O71	O7	0.242950	0.751600	0.628300
O81	O8	0.365050	0.653300	0.784900
O91	O9	0.209410	0.011600	0.585400
H21	H2	0.230600	0.066200	0.583400
O101	O10	0.257350	0.279400	0.923000
O111	O11	0.413780	0.420100	0.996200
O121	O12	0.045330	0.373000	0.427200
O131	O13	0.481900	0.335600	0.081000
O141	O14	0.203160	0.419000	0.655800
O151	O15	0.328840	0.221000	0.006700
O161	O16	0.351560	0.373600	0.829000
O171	O17	0.204030	0.528200	0.805800
O181	O18	0.057870	0.041900	0.720100
O191	O19	0.094110	0.553300	0.519400
O201	O20	0.305270	0.488000	0.708800
O211	O21	0.146090	0.607000	0.698000
O221	O22	0.608450	0.927600	0.104000
O231	O23	0.268450	0.038000	0.017300
O241	O24	0.534190	0.833000	0.105800
O251	O25	0.549320	0.098400	0.039500
O261	O26	0.100110	0.907100	0.615900
O271	O27	0.021060	0.860900	0.611200
O281	O28	0.302120	0.598100	0.857000
O291	O29	0.174520	0.759600	0.527700
O301	O30	0.086940	0.576700	0.360400
H31	H3	0.074700	0.532200	0.318100
O311	O31	0.050000	0.125900	0.568200
O321	O32	0.421360	0.424300	0.157900
Zn71	Zn7	0.506660	0.257730	0.486950
Zn81	Zn8	0.009140	0.260380	0.988600
Zn91	Zn9	0.745090	0.024140	0.868480
Zn101	Zn10	0.748320	0.000970	0.608870
Zn111	Zn11	0.872840	0.209100	0.909970
Zn121	Zn12	0.628240	0.779460	0.561580
P91	P9	0.782410	0.338500	0.946200
P101	P10	0.942550	0.481100	0.872690
P111	P11	0.437470	0.478700	0.390880
P121	P12	0.936820	0.042000	0.060950
P131	P13	0.556660	0.947600	0.421500
P141	P14	0.823290	0.971200	0.774530
P151	P15	0.718880	0.712800	0.493990
P161	P16	0.669070	0.029500	0.706060
O331	O33	0.757580	0.345700	0.021700
O341	O34	0.849000	0.820100	0.755000
O351	O35	0.972160	0.164800	0.063200
O361	O36	0.540670	0.121000	0.421100
O371	O37	0.729860	0.807300	0.416500
O381	O38	0.439900	0.567700	0.303900
H41	H4	0.433100	0.506300	0.264200
O391	O39	0.757050	0.251600	0.871700
O401	O40	0.634950	0.153300	0.715100
O411	O41	0.790590	0.511600	0.914600
H51	H5	0.769400	0.566200	0.916600
O421	O42	0.742650	0.779400	0.577000
O431	O43	0.586220	0.920100	0.503800
O441	O44	0.954670	0.873000	0.072800
O451	O45	0.518100	0.835600	0.419000
O461	O46	0.796840	0.919000	0.844200
O471	O47	0.671160	0.721000	0.493300
O481	O48	0.648440	0.873600	0.671000
O491	O49	0.795970	0.028200	0.694200
O501	O50	0.942130	0.541900	0.779900
O511	O51	0.905890	0.053300	0.980600
O521	O52	0.694730	0.988000	0.791200
O531	O53	0.853910	0.107000	0.802000
O541	O54	0.391550	0.427600	0.396000
O551	O55	0.731550	0.538000	0.482700
O561	O56	0.465810	0.333000	0.394200
O571	O57	0.450680	0.598400	0.460500
O581	O58	0.899890	0.407100	0.884100
O591	O59	0.978940	0.360900	0.888800
O601	O60	0.697880	0.098100	0.643000
O611	O61	0.825480	0.259600	0.972300
O621	O62	0.913060	0.076700	0.139600
H61	H6	0.925300	0.032200	0.181900
O631	O63	0.950000	0.625900	0.931800
O641	O64	0.578640	0.924300	0.342100
Zn131	Zn13	0.506660	0.242270	0.986950
Zn141	Zn14	0.009140	0.239620	0.488600
Zn151	Zn15	0.745090	0.475860	0.368480
Zn161	Zn16	0.748320	0.499030	0.108870
Zn171	Zn17	0.872840	0.290900	0.409970
Zn181	Zn18	0.628240	0.720540	0.061580
P171	P17	0.782410	0.161500	0.446200
P181	P18	0.942550	0.018900	0.372690
P191	P19	0.437470	0.021300	0.890880
P201	P20	0.936820	0.458000	0.560950
P211	P21	0.556660	0.552400	0.921500
P221	P22	0.823290	0.528800	0.274530
P231	P23	0.718880	0.787200	0.993990
P241	P24	0.669070	0.470500	0.206060
O651	O65	0.757580	0.154300	0.521700
O661	O66	0.849000	0.679900	0.255000
O671	O67	0.972160	0.335200	0.563200
O681	O68	0.540670	0.379000	0.921100
O691	O69	0.729860	0.692700	0.916500
O701	O70	0.439900	0.932300	0.803900
H71	H7	0.433100	0.993700	0.764200
O711	O71	0.757050	0.248400	0.371700
O721	O72	0.634950	0.346700	0.215100
O731	O73	0.790590	0.988400	0.414600
H81	H8	0.769400	0.933800	0.416600
O741	O74	0.742650	0.720600	0.077000
O751	O75	0.586220	0.579900	0.003800
O761	O76	0.954670	0.627000	0.572800
O771	O77	0.518100	0.664400	0.919000
O781	O78	0.796840	0.581000	0.344200
O791	O79	0.671160	0.779000	0.993300
O801	O80	0.648440	0.626400	0.171000
O811	O81	0.795970	0.471800	0.194200
O821	O82	0.942130	0.958100	0.279900
O831	O83	0.905890	0.446700	0.480600
O841	O84	0.694730	0.512000	0.291200
O851	O85	0.853910	0.393000	0.302000
O861	O86	0.391550	0.072400	0.896000
O871	O87	0.731550	0.962000	0.982700
O881	O88	0.465810	0.167000	0.894200
O891	O89	0.450680	0.901600	0.960500
O901	O90	0.899890	0.092900	0.384100
O911	O91	0.978940	0.139100	0.388800
O921	O92	0.697880	0.401900	0.143000
O931	O93	0.825480	0.240400	0.472300
O941	O94	0.913060	0.423300	0.639600
H91	H9	0.925300	0.467800	0.681900
O951	O95	0.950000	0.874100	0.431800
O961	O96	0.578640	0.575700	0.842100
Zn191	Zn19	0.493340	0.742270	0.513050
Zn201	Zn20	0.990860	0.739620	0.011400
Zn211	Zn21	0.254910	0.975860	0.131520
Zn221	Zn22	0.251680	0.999030	0.391130
Zn231	Zn23	0.127160	0.790900	0.090030
Zn241	Zn24	0.371760	0.220540	0.438420
P251	P25	0.217590	0.661500	0.053800
P261	P26	0.057450	0.518900	0.127310
P271	P27	0.562530	0.521300	0.609120
P281	P28	0.063180	0.958000	0.939050
P291	P29	0.443340	0.052400	0.578500
P301	P30	0.176710	0.028800	0.225470
P311	P31	0.281120	0.287200	0.506010
P321	P32	0.330930	0.970500	0.293940
O971	O97	0.242420	0.654300	0.978300
O981	O98	0.151000	0.179900	0.245000
O991	O99	0.027840	0.835200	0.936800
O1001	O100	0.459330	0.879000	0.578900
O1011	O101	0.270140	0.192700	0.583500
O1021	O102	0.560100	0.432300	0.696100
H101	H10	0.566900	0.493700	0.735800
O1031	O103	0.242950	0.748400	0.128300
O1041	O104	0.365050	0.846700	0.284900
O1051	O105	0.209410	0.488400	0.085400
H111	H11	0.230600	0.433800	0.083400
O1061	O106	0.257350	0.220600	0.423000
O1071	O107	0.413780	0.079900	0.496200
O1081	O108	0.045330	0.127000	0.927200
O1091	O109	0.481900	0.164400	0.581000
O1101	O110	0.203160	0.081000	0.155800
O1111	O111	0.328840	0.279000	0.506700
O1121	O112	0.351560	0.126400	0.329000
O1131	O113	0.204030	0.971800	0.305800
O1141	O114	0.057870	0.458100	0.220100
O1151	O115	0.094110	0.946700	0.019400
O1161	O116	0.305270	0.012000	0.208800
O1171	O117	0.146090	0.893000	0.198000
O1181	O118	0.608450	0.572400	0.604000
O1191	O119	0.268450	0.462000	0.517300
O1201	O120	0.534190	0.667000	0.605800
O1211	O121	0.549320	0.401600	0.539500
O1221	O122	0.100110	0.592900	0.115900
O1231	O123	0.021060	0.639100	0.111200
O1241	O124	0.302120	0.901900	0.357000
O1251	O125	0.174520	0.740400	0.027700
O1261	O126	0.086940	0.923300	0.860400
H121	H12	0.074700	0.967800	0.818100
O1271	O127	0.050000	0.374100	0.068200
O1281	O128	0.421360	0.075700	0.657900
