data_KUFTAI_clean_PM
_symmetry_space_group_name_H-M	'P1'
_cell_length_a	14.908000
_cell_length_b	15.345000
_cell_length_c	27.753000
_cell_angle_alpha	90.000000
_cell_angle_beta	90.424000
_cell_angle_gamma	90.000000
_symmetry_Int_Tables_number 1

loop_
_symmetry_equiv_pos_as_xyz
'x,y,z'

loop_
_atom_site_label
_atom_site_type_symbol
_atom_site_fract_x
_atom_site_fract_y
_atom_site_fract_z
C11	C1	0.163600	0.047700	0.398040
C21	C2	0.137800	0.002100	0.355300
H11	H1	0.095500	0.022600	0.332200
C31	C3	0.181000	0.927500	0.352550
H21	H2	0.176300	0.885500	0.327500
C41	C4	0.236200	0.922400	0.394350
C51	C5	0.288500	0.852000	0.407160
C61	C6	0.337500	0.846300	0.449060
C71	C7	0.385400	0.770700	0.464900
H31	H3	0.392100	0.717900	0.447400
C81	C8	0.419500	0.787800	0.509110
H41	H4	0.453300	0.748400	0.528400
C91	C9	0.396500	0.874200	0.521930
C101	C10	0.422400	0.914300	0.562140
C111	C11	0.405900	0.005300	0.571720
C121	C12	0.439300	0.051700	0.612510
H51	H5	0.473900	0.028100	0.638200
C131	C13	0.412900	0.134900	0.607980
H61	H6	0.426700	0.181400	0.629400
C141	C14	0.359000	0.140500	0.564040
C151	C15	0.315300	0.213700	0.548970
C161	C16	0.256800	0.215700	0.510300
C171	C17	0.205100	0.290000	0.495920
H71	H7	0.207100	0.346400	0.510100
C181	C18	0.153700	0.265300	0.459000
H81	H8	0.111500	0.301200	0.442500
C191	C19	0.172200	0.175500	0.448030
C201	C20	0.136500	0.130500	0.409970
C211	C21	0.311900	0.625600	0.316970
C221	C22	0.237500	0.638500	0.345600
H91	H9	0.190900	0.596300	0.345900
C231	C23	0.231000	0.712100	0.373300
H101	H10	0.180000	0.719400	0.393300
C241	C24	0.295400	0.774900	0.373160
C251	C25	0.366100	0.763200	0.343860
H111	H11	0.410600	0.807400	0.342200
C261	C26	0.375800	0.690000	0.316450
H121	H12	0.427300	0.683600	0.296800
C271	C27	0.324700	0.542500	0.288950
C281	C28	0.574700	0.766600	0.664030
C291	C29	0.482900	0.764100	0.664710
H131	H13	0.453100	0.728700	0.687600
C301	C30	0.433500	0.812700	0.632390
H141	H14	0.369800	0.810300	0.633400
C311	C31	0.474100	0.864400	0.598930
C321	C32	0.567000	0.868300	0.600300
H151	H15	0.596800	0.906300	0.578700
C331	C33	0.617300	0.819500	0.631690
H161	H16	0.680900	0.822300	0.631100
C341	C34	0.630100	0.711600	0.697440
C351	C35	0.355800	0.444600	0.636170
C361	C36	0.423900	0.412000	0.608800
H171	H17	0.481100	0.439400	0.609200
C371	C37	0.409100	0.337000	0.579720
H181	H18	0.456900	0.315500	0.560600
C381	C38	0.329100	0.295200	0.578460
C391	C39	0.260900	0.330400	0.606100
H191	H19	0.203700	0.303100	0.606100
C401	C40	0.274600	0.404100	0.633550
H201	H20	0.225800	0.427400	0.651200
C411	C41	0.369300	0.520700	0.668250
C421	C42	0.925000	0.246600	0.326310
C431	C43	0.014100	0.269100	0.319380
H211	H21	0.028500	0.311200	0.295500
C441	C44	0.082500	0.232100	0.346130
H221	H22	0.142900	0.248800	0.340300
C451	C45	0.064400	0.171300	0.381040
C461	C46	0.976100	0.147500	0.387930
H231	H23	0.962600	0.104600	0.411500
C471	C47	0.906100	0.184600	0.361280
H241	H24	0.845900	0.167600	0.367000
C481	C48	0.850800	0.289200	0.299360
Fe11	Fe1	0.731420	0.621970	0.755240
Mn11	Mn1	0.276140	0.021890	0.488300
N11	N1	0.226600	0.996900	0.421800
N21	N2	0.345100	0.910000	0.485220
N31	N3	0.355600	0.060100	0.542410
N41	N4	0.236500	0.145200	0.480830
O11	O1	0.399500	0.533050	0.268970
O21	O2	0.258500	0.489600	0.286330
O31	O3	0.593840	0.664340	0.730040
O41	O4	0.713600	0.712400	0.694350
O51	O5	0.447500	0.544800	0.677270
O61	O6	0.298800	0.556000	0.683960
O71	O7	0.869550	0.355500	0.272350
O81	O8	0.772900	0.261900	0.302870
C491	C49	0.836400	0.047700	0.101960
C501	C50	0.862200	0.002100	0.144700
H251	H25	0.904500	0.022600	0.167800
C511	C51	0.819000	0.927500	0.147450
H261	H26	0.823700	0.885500	0.172500
C521	C52	0.763800	0.922400	0.105650
C531	C53	0.711500	0.852000	0.092840
C541	C54	0.662500	0.846300	0.050940
C551	C55	0.614600	0.770700	0.035100
H271	H27	0.607900	0.717900	0.052600
C561	C56	0.580500	0.787800	0.990890
H281	H28	0.546700	0.748400	0.971600
C571	C57	0.603500	0.874200	0.978070
C581	C58	0.577600	0.914300	0.937860
C591	C59	0.594100	0.005300	0.928280
C601	C60	0.560700	0.051700	0.887490
H291	H29	0.526100	0.028100	0.861800
C611	C61	0.587100	0.134900	0.892020
H301	H30	0.573300	0.181400	0.870600
C621	C62	0.641000	0.140500	0.935960
C631	C63	0.684700	0.213700	0.951030
C641	C64	0.743200	0.215700	0.989700
C651	C65	0.794900	0.290000	0.004080
H311	H31	0.792900	0.346400	0.989900
C661	C66	0.846300	0.265300	0.041000
H321	H32	0.888500	0.301200	0.057500
C671	C67	0.827800	0.175500	0.051970
C681	C68	0.863500	0.130500	0.090030
C691	C69	0.688100	0.625600	0.183030
C701	C70	0.762500	0.638500	0.154400
H331	H33	0.809100	0.596300	0.154100
C711	C71	0.769000	0.712100	0.126700
H341	H34	0.820000	0.719400	0.106700
C721	C72	0.704600	0.774900	0.126840
C731	C73	0.633900	0.763200	0.156140
H351	H35	0.589400	0.807400	0.157800
C741	C74	0.624200	0.690000	0.183550
H361	H36	0.572700	0.683600	0.203200
C751	C75	0.675300	0.542500	0.211050
C761	C76	0.425300	0.766600	0.835970
C771	C77	0.517100	0.764100	0.835290
H371	H37	0.546900	0.728700	0.812400
C781	C78	0.566500	0.812700	0.867610
H381	H38	0.630200	0.810300	0.866600
C791	C79	0.525900	0.864400	0.901070
C801	C80	0.433000	0.868300	0.899700
H391	H39	0.403200	0.906300	0.921300
C811	C81	0.382700	0.819500	0.868310
H401	H40	0.319100	0.822300	0.868900
C821	C82	0.369900	0.711600	0.802560
C831	C83	0.644200	0.444600	0.863830
C841	C84	0.576100	0.412000	0.891200
H411	H41	0.518900	0.439400	0.890800
C851	C85	0.590900	0.337000	0.920280
H421	H42	0.543100	0.315500	0.939400
C861	C86	0.670900	0.295200	0.921540
C871	C87	0.739100	0.330400	0.893900
H431	H43	0.796300	0.303100	0.893900
C881	C88	0.725400	0.404100	0.866450
H441	H44	0.774200	0.427400	0.848800
C891	C89	0.630700	0.520700	0.831750
C901	C90	0.075000	0.246600	0.173690
C911	C91	0.985900	0.269100	0.180620
H451	H45	0.971500	0.311200	0.204500
C921	C92	0.917500	0.232100	0.153870
H461	H46	0.857100	0.248800	0.159700
C931	C93	0.935600	0.171300	0.118960
C941	C94	0.023900	0.147500	0.112070
H471	H47	0.037400	0.104600	0.088500
C951	C95	0.093900	0.184600	0.138720
H481	H48	0.154100	0.167600	0.133000
C961	C96	0.149200	0.289200	0.200640
Fe21	Fe2	0.268580	0.621970	0.744760
Mn21	Mn2	0.723860	0.021890	0.011700
N51	N5	0.773400	0.996900	0.078200
N61	N6	0.654900	0.910000	0.014780
N71	N7	0.644400	0.060100	0.957590
N81	N8	0.763500	0.145200	0.019170
O91	O9	0.600500	0.533050	0.231030
O101	O10	0.741500	0.489600	0.213670
O111	O11	0.406160	0.664340	0.769960
O121	O12	0.286400	0.712400	0.805650
O131	O13	0.552500	0.544800	0.822730
O141	O14	0.701200	0.556000	0.816040
O151	O15	0.130450	0.355500	0.227650
O161	O16	0.227100	0.261900	0.197130
C971	C97	0.836400	0.952300	0.601960
C981	C98	0.862200	0.997900	0.644700
H491	H49	0.904500	0.977400	0.667800
C991	C99	0.819000	0.072500	0.647450
H501	H50	0.823700	0.114500	0.672500
C1001	C100	0.763800	0.077600	0.605650
C1011	C101	0.711500	0.148000	0.592840
C1021	C102	0.662500	0.153700	0.550940
C1031	C103	0.614600	0.229300	0.535100
H511	H51	0.607900	0.282100	0.552600
C1041	C104	0.580500	0.212200	0.490890
H521	H52	0.546700	0.251600	0.471600
C1051	C105	0.603500	0.125800	0.478070
C1061	C106	0.577600	0.085700	0.437860
C1071	C107	0.594100	0.994700	0.428280
C1081	C108	0.560700	0.948300	0.387490
H531	H53	0.526100	0.971900	0.361800
C1091	C109	0.587100	0.865100	0.392020
H541	H54	0.573300	0.818600	0.370600
C1101	C110	0.641000	0.859500	0.435960
C1111	C111	0.684700	0.786300	0.451030
C1121	C112	0.743200	0.784300	0.489700
C1131	C113	0.794900	0.710000	0.504080
H551	H55	0.792900	0.653600	0.489900
C1141	C114	0.846300	0.734700	0.541000
H561	H56	0.888500	0.698800	0.557500
C1151	C115	0.827800	0.824500	0.551970
C1161	C116	0.863500	0.869500	0.590030
C1171	C117	0.688100	0.374400	0.683030
C1181	C118	0.762500	0.361500	0.654400
H571	H57	0.809100	0.403700	0.654100
C1191	C119	0.769000	0.287900	0.626700
H581	H58	0.820000	0.280600	0.606700
C1201	C120	0.704600	0.225100	0.626840
C1211	C121	0.633900	0.236800	0.656140
H591	H59	0.589400	0.192600	0.657800
C1221	C122	0.624200	0.310000	0.683550
H601	H60	0.572700	0.316400	0.703200
C1231	C123	0.675300	0.457500	0.711050
C1241	C124	0.425300	0.233400	0.335970
C1251	C125	0.517100	0.235900	0.335290
H611	H61	0.546900	0.271300	0.312400
C1261	C126	0.566500	0.187300	0.367610
H621	H62	0.630200	0.189700	0.366600
C1271	C127	0.525900	0.135600	0.401070
C1281	C128	0.433000	0.131700	0.399700
H631	H63	0.403200	0.093700	0.421300
C1291	C129	0.382700	0.180500	0.368310
H641	H64	0.319100	0.177700	0.368900
C1301	C130	0.369900	0.288400	0.302560
C1311	C131	0.644200	0.555400	0.363830
C1321	C132	0.576100	0.588000	0.391200
H651	H65	0.518900	0.560600	0.390800
C1331	C133	0.590900	0.663000	0.420280
H661	H66	0.543100	0.684500	0.439400
C1341	C134	0.670900	0.704800	0.421540
C1351	C135	0.739100	0.669600	0.393900
H671	H67	0.796300	0.696900	0.393900
C1361	C136	0.725400	0.595900	0.366450
H681	H68	0.774200	0.572600	0.348800
C1371	C137	0.630700	0.479300	0.331750
C1381	C138	0.075000	0.753400	0.673690
C1391	C139	0.985900	0.730900	0.680620
H691	H69	0.971500	0.688800	0.704500
C1401	C140	0.917500	0.767900	0.653870
H701	H70	0.857100	0.751200	0.659700
C1411	C141	0.935600	0.828700	0.618960
C1421	C142	0.023900	0.852500	0.612070
H711	H71	0.037400	0.895400	0.588500
C1431	C143	0.093900	0.815400	0.638720
H721	H72	0.154100	0.832400	0.633000
C1441	C144	0.149200	0.710800	0.700640
Fe31	Fe3	0.268580	0.378030	0.244760
Mn31	Mn3	0.723860	0.978110	0.511700
N91	N9	0.773400	0.003100	0.578200
N101	N10	0.654900	0.090000	0.514780
N111	N11	0.644400	0.939900	0.457590
N121	N12	0.763500	0.854800	0.519170
O171	O17	0.600500	0.466950	0.731030
O181	O18	0.741500	0.510400	0.713670
O191	O19	0.406160	0.335660	0.269960
O201	O20	0.286400	0.287600	0.305650
O211	O21	0.552500	0.455200	0.322730
O221	O22	0.701200	0.444000	0.316040
O231	O23	0.130450	0.644500	0.727650
O241	O24	0.227100	0.738100	0.697130
C1451	C145	0.163600	0.952300	0.898040
C1461	C146	0.137800	0.997900	0.855300
H731	H73	0.095500	0.977400	0.832200
C1471	C147	0.181000	0.072500	0.852550
H741	H74	0.176300	0.114500	0.827500
C1481	C148	0.236200	0.077600	0.894350
C1491	C149	0.288500	0.148000	0.907160
C1501	C150	0.337500	0.153700	0.949060
C1511	C151	0.385400	0.229300	0.964900
H751	H75	0.392100	0.282100	0.947400
C1521	C152	0.419500	0.212200	0.009110
H761	H76	0.453300	0.251600	0.028400
C1531	C153	0.396500	0.125800	0.021930
C1541	C154	0.422400	0.085700	0.062140
C1551	C155	0.405900	0.994700	0.071720
C1561	C156	0.439300	0.948300	0.112510
H771	H77	0.473900	0.971900	0.138200
C1571	C157	0.412900	0.865100	0.107980
H781	H78	0.426700	0.818600	0.129400
C1581	C158	0.359000	0.859500	0.064040
C1591	C159	0.315300	0.786300	0.048970
C1601	C160	0.256800	0.784300	0.010300
C1611	C161	0.205100	0.710000	0.995920
H791	H79	0.207100	0.653600	0.010100
C1621	C162	0.153700	0.734700	0.959000
H801	H80	0.111500	0.698800	0.942500
C1631	C163	0.172200	0.824500	0.948030
C1641	C164	0.136500	0.869500	0.909970
C1651	C165	0.311900	0.374400	0.816970
C1661	C166	0.237500	0.361500	0.845600
H811	H81	0.190900	0.403700	0.845900
C1671	C167	0.231000	0.287900	0.873300
H821	H82	0.180000	0.280600	0.893300
C1681	C168	0.295400	0.225100	0.873160
C1691	C169	0.366100	0.236800	0.843860
H831	H83	0.410600	0.192600	0.842200
C1701	C170	0.375800	0.310000	0.816450
H841	H84	0.427300	0.316400	0.796800
C1711	C171	0.324700	0.457500	0.788950
C1721	C172	0.574700	0.233400	0.164030
C1731	C173	0.482900	0.235900	0.164710
H851	H85	0.453100	0.271300	0.187600
C1741	C174	0.433500	0.187300	0.132390
H861	H86	0.369800	0.189700	0.133400
C1751	C175	0.474100	0.135600	0.098930
C1761	C176	0.567000	0.131700	0.100300
H871	H87	0.596800	0.093700	0.078700
C1771	C177	0.617300	0.180500	0.131690
H881	H88	0.680900	0.177700	0.131100
C1781	C178	0.630100	0.288400	0.197440
C1791	C179	0.355800	0.555400	0.136170
C1801	C180	0.423900	0.588000	0.108800
H891	H89	0.481100	0.560600	0.109200
C1811	C181	0.409100	0.663000	0.079720
H901	H90	0.456900	0.684500	0.060600
C1821	C182	0.329100	0.704800	0.078460
C1831	C183	0.260900	0.669600	0.106100
H911	H91	0.203700	0.696900	0.106100
C1841	C184	0.274600	0.595900	0.133550
H921	H92	0.225800	0.572600	0.151200
C1851	C185	0.369300	0.479300	0.168250
C1861	C186	0.925000	0.753400	0.826310
C1871	C187	0.014100	0.730900	0.819380
H931	H93	0.028500	0.688800	0.795500
C1881	C188	0.082500	0.767900	0.846130
H941	H94	0.142900	0.751200	0.840300
C1891	C189	0.064400	0.828700	0.881040
C1901	C190	0.976100	0.852500	0.887930
H951	H95	0.962600	0.895400	0.911500
C1911	C191	0.906100	0.815400	0.861280
H961	H96	0.845900	0.832400	0.867000
C1921	C192	0.850800	0.710800	0.799360
Fe41	Fe4	0.731420	0.378030	0.255240
Mn41	Mn4	0.276140	0.978110	0.988300
N131	N13	0.226600	0.003100	0.921800
N141	N14	0.345100	0.090000	0.985220
N151	N15	0.355600	0.939900	0.042410
N161	N16	0.236500	0.854800	0.980830
O251	O25	0.399500	0.466950	0.768970
O261	O26	0.258500	0.510400	0.786330
O271	O27	0.593840	0.335660	0.230040
O281	O28	0.713600	0.287600	0.194350
O291	O29	0.447500	0.455200	0.177270
O301	O30	0.298800	0.444000	0.183960
O311	O31	0.869550	0.644500	0.772350
O321	O32	0.772900	0.738100	0.802870
Fe51	Fe5	0.500000	0.559120	0.750000
Fe61	Fe6	0.500000	0.440880	0.250000
