data_KUFVEO_clean_PM
_symmetry_space_group_name_H-M	'P1'
_cell_length_a	13.288000
_cell_length_b	13.919000
_cell_length_c	18.477000
_cell_angle_alpha	90.000000
_cell_angle_beta	96.318000
_cell_angle_gamma	90.000000
_symmetry_Int_Tables_number 1

loop_
_symmetry_equiv_pos_as_xyz
'x,y,z'

loop_
_atom_site_label
_atom_site_type_symbol
_atom_site_fract_x
_atom_site_fract_y
_atom_site_fract_z
Mn11	Mn1	0.987050	0.054140	0.222590
Mn21	Mn2	0.066640	0.207300	0.369060
C11	C1	0.165500	0.010300	0.338200
C21	C2	0.232800	0.928900	0.367100
C31	C3	0.285400	0.874300	0.321100
H11	H1	0.281400	0.889300	0.271800
C41	C4	0.343500	0.797900	0.348300
C51	C5	0.345900	0.773800	0.421600
H21	H2	0.384300	0.721400	0.439400
C61	C6	0.292200	0.826600	0.469100
C71	C7	0.238500	0.906000	0.440300
H31	H3	0.205500	0.944900	0.471200
C81	C8	0.403200	0.737500	0.300200
C91	C9	0.283600	0.738200	0.691700
H41	H4	0.283500	0.720800	0.740300
C101	C10	0.223100	0.811200	0.663300
C111	C11	0.225000	0.839700	0.591500
H51	H5	0.182000	0.888300	0.572500
C121	C12	0.291000	0.796100	0.547300
C131	C13	0.347800	0.720000	0.575900
H61	H6	0.389200	0.687800	0.546500
C141	C14	0.346000	0.689400	0.647500
C151	C15	0.401500	0.601900	0.675000
C161	C16	0.149200	0.856100	0.708600
C171	C17	0.937000	0.403500	0.337000
H71	H7	0.953600	0.395400	0.289800
C181	C18	0.879600	0.482500	0.350500
H81	H8	0.856900	0.524900	0.313400
C191	C19	0.857600	0.496300	0.418400
H91	H9	0.821300	0.550400	0.429800
C201	C20	0.888200	0.431500	0.470600
H101	H10	0.871800	0.440200	0.517800
C211	C21	0.943500	0.352800	0.454000
C221	C22	0.976100	0.277600	0.507200
C231	C23	0.962500	0.284600	0.582200
H111	H11	0.933100	0.338400	0.601100
C241	C24	0.995500	0.206800	0.626200
H121	H12	0.989000	0.209100	0.675800
C251	C25	0.037600	0.126500	0.597900
H131	H13	0.058100	0.074400	0.627400
C261	C26	0.048200	0.125500	0.525500
H141	H14	0.077000	0.071500	0.506400
N11	N1	0.970200	0.338200	0.385700
N21	N2	0.020500	0.195700	0.481600
O11	O1	0.150100	0.076500	0.381420
O21	O2	0.128000	0.005300	0.272030
O31	O3	0.399700	0.759700	0.234660
O41	O4	0.451900	0.668600	0.330070
O51	O5	0.445000	0.549800	0.632390
O61	O6	0.403300	0.580400	0.741290
O71	O7	0.062100	0.882400	0.676770
O81	O8	0.170600	0.866800	0.775300
Mn31	Mn3	0.512950	0.554140	0.277410
Mn41	Mn4	0.433360	0.707300	0.130940
C271	C27	0.334500	0.510300	0.161800
C281	C28	0.267200	0.428900	0.132900
C291	C29	0.214600	0.374300	0.178900
H151	H15	0.218600	0.389300	0.228200
C301	C30	0.156500	0.297900	0.151700
C311	C31	0.154100	0.273800	0.078400
H161	H16	0.115700	0.221400	0.060600
C321	C32	0.207800	0.326600	0.030900
C331	C33	0.261500	0.406000	0.059700
H171	H17	0.294500	0.444900	0.028800
C341	C34	0.096800	0.237500	0.199800
C351	C35	0.216400	0.238200	0.808300
H181	H18	0.216500	0.220800	0.759700
C361	C36	0.276900	0.311200	0.836700
C371	C37	0.275000	0.339700	0.908500
H191	H19	0.318000	0.388300	0.927500
C381	C38	0.209000	0.296100	0.952700
C391	C39	0.152200	0.220000	0.924100
H201	H20	0.110800	0.187800	0.953500
C401	C40	0.154000	0.189400	0.852500
C411	C41	0.098500	0.101900	0.825000
C421	C42	0.350800	0.356100	0.791400
C431	C43	0.563000	0.903500	0.163000
H211	H21	0.546400	0.895400	0.210200
C441	C44	0.620400	0.982500	0.149500
H221	H22	0.643100	0.024900	0.186600
C451	C45	0.642400	0.996300	0.081600
H231	H23	0.678700	0.050400	0.070200
C461	C46	0.611800	0.931500	0.029400
H241	H24	0.628200	0.940200	0.982200
C471	C47	0.556500	0.852800	0.046000
C481	C48	0.523900	0.777600	0.992800
C491	C49	0.537500	0.784600	0.917800
H251	H25	0.566900	0.838400	0.898900
C501	C50	0.504500	0.706800	0.873800
H261	H26	0.511000	0.709100	0.824200
C511	C51	0.462400	0.626500	0.902100
H271	H27	0.441900	0.574400	0.872600
C521	C52	0.451800	0.625500	0.974500
H281	H28	0.423000	0.571500	0.993600
N31	N3	0.529800	0.838200	0.114300
N41	N4	0.479500	0.695700	0.018400
O91	O9	0.349900	0.576500	0.118580
O101	O10	0.372000	0.505300	0.227970
O111	O11	0.100300	0.259700	0.265340
O121	O12	0.048100	0.168600	0.169930
O131	O13	0.055000	0.049800	0.867610
O141	O14	0.096700	0.080400	0.758710
O151	O15	0.437900	0.382400	0.823230
O161	O16	0.329400	0.366800	0.724700
Mn51	Mn5	0.012950	0.945860	0.777410
Mn61	Mn6	0.933360	0.792700	0.630940
C531	C53	0.834500	0.989700	0.661800
C541	C54	0.767200	0.071100	0.632900
C551	C55	0.714600	0.125700	0.678900
H291	H29	0.718600	0.110700	0.728200
C561	C56	0.656500	0.202100	0.651700
C571	C57	0.654100	0.226200	0.578400
H301	H30	0.615700	0.278600	0.560600
C581	C58	0.707800	0.173400	0.530900
C591	C59	0.761500	0.094000	0.559700
H311	H31	0.794500	0.055100	0.528800
C601	C60	0.596800	0.262500	0.699800
C611	C61	0.716400	0.261800	0.308300
H321	H32	0.716500	0.279200	0.259700
C621	C62	0.776900	0.188800	0.336700
C631	C63	0.775000	0.160300	0.408500
H331	H33	0.818000	0.111700	0.427500
C641	C64	0.709000	0.203900	0.452700
C651	C65	0.652200	0.280000	0.424100
H341	H34	0.610800	0.312200	0.453500
C661	C66	0.654000	0.310600	0.352500
C671	C67	0.598500	0.398100	0.325000
C681	C68	0.850800	0.143900	0.291400
C691	C69	0.063000	0.596500	0.663000
H351	H35	0.046400	0.604600	0.710200
C701	C70	0.120400	0.517500	0.649500
H361	H36	0.143100	0.475100	0.686600
C711	C71	0.142400	0.503700	0.581600
H371	H37	0.178700	0.449600	0.570200
C721	C72	0.111800	0.568500	0.529400
H381	H38	0.128200	0.559800	0.482200
C731	C73	0.056500	0.647200	0.546000
C741	C74	0.023900	0.722400	0.492800
C751	C75	0.037500	0.715400	0.417800
H391	H39	0.066900	0.661600	0.398900
C761	C76	0.004500	0.793200	0.373800
H401	H40	0.011000	0.790900	0.324200
C771	C77	0.962400	0.873500	0.402100
H411	H41	0.941900	0.925600	0.372600
C781	C78	0.951800	0.874500	0.474500
H421	H42	0.923000	0.928500	0.493600
N51	N5	0.029800	0.661800	0.614300
N61	N6	0.979500	0.804300	0.518400
O171	O17	0.849900	0.923500	0.618580
O181	O18	0.872000	0.994700	0.727970
O191	O19	0.600300	0.240300	0.765340
O201	O20	0.548100	0.331400	0.669930
O211	O21	0.555000	0.450200	0.367610
O221	O22	0.596700	0.419600	0.258710
O231	O23	0.937900	0.117600	0.323230
O241	O24	0.829400	0.133200	0.224700
Mn71	Mn7	0.487050	0.445860	0.722590
Mn81	Mn8	0.566640	0.292700	0.869060
C791	C79	0.665500	0.489700	0.838200
C801	C80	0.732800	0.571100	0.867100
C811	C81	0.785400	0.625700	0.821100
H431	H43	0.781400	0.610700	0.771800
C821	C82	0.843500	0.702100	0.848300
C831	C83	0.845900	0.726200	0.921600
H441	H44	0.884300	0.778600	0.939400
C841	C84	0.792200	0.673400	0.969100
C851	C85	0.738500	0.594000	0.940300
H451	H45	0.705500	0.555100	0.971200
C861	C86	0.903200	0.762500	0.800200
C871	C87	0.783600	0.761800	0.191700
H461	H46	0.783500	0.779200	0.240300
C881	C88	0.723100	0.688800	0.163300
C891	C89	0.725000	0.660300	0.091500
H471	H47	0.682000	0.611700	0.072500
C901	C90	0.791000	0.703900	0.047300
C911	C91	0.847800	0.780000	0.075900
H481	H48	0.889200	0.812200	0.046500
C921	C92	0.846000	0.810600	0.147500
C931	C93	0.901500	0.898100	0.175000
C941	C94	0.649200	0.643900	0.208600
C951	C95	0.437000	0.096500	0.837000
H491	H49	0.453600	0.104600	0.789800
C961	C96	0.379600	0.017500	0.850500
H501	H50	0.356900	0.975100	0.813400
C971	C97	0.357600	0.003700	0.918400
H511	H51	0.321300	0.949600	0.929800
C981	C98	0.388200	0.068500	0.970600
H521	H52	0.371800	0.059800	0.017800
C991	C99	0.443500	0.147200	0.954000
C1001	C100	0.476100	0.222400	0.007200
C1011	C101	0.462500	0.215400	0.082200
H531	H53	0.433100	0.161600	0.101100
C1021	C102	0.495500	0.293200	0.126200
H541	H54	0.489000	0.290900	0.175800
C1031	C103	0.537600	0.373500	0.097900
H551	H55	0.558100	0.425600	0.127400
C1041	C104	0.548200	0.374500	0.025500
H561	H56	0.577000	0.428500	0.006400
N71	N7	0.470200	0.161800	0.885700
N81	N8	0.520500	0.304300	0.981600
O251	O25	0.650100	0.423500	0.881420
O261	O26	0.628000	0.494700	0.772030
O271	O27	0.899700	0.740300	0.734660
O281	O28	0.951900	0.831400	0.830070
O291	O29	0.945000	0.950200	0.132390
O301	O30	0.903300	0.919600	0.241290
O311	O31	0.562100	0.617600	0.176770
O321	O32	0.670600	0.633200	0.275300
