data_KUGCOF_clean_PM
_symmetry_space_group_name_H-M	'P1'
_cell_length_a	10.318000
_cell_length_b	10.981000
_cell_length_c	7.066000
_cell_angle_alpha	90.000000
_cell_angle_beta	90.000000
_cell_angle_gamma	90.000000
_symmetry_Int_Tables_number 1

loop_
_symmetry_equiv_pos_as_xyz
'x,y,z'

loop_
_atom_site_label
_atom_site_type_symbol
_atom_site_fract_x
_atom_site_fract_y
_atom_site_fract_z
Cu11	Cu1	0.901660	0.891510	0.614590
S11	S1	0.096060	0.111150	0.690280
O11	O1	0.054400	0.231400	0.777500
O21	O2	0.229000	0.091600	0.779900
O31	O3	0.009800	0.014600	0.772800
Cu21	Cu2	0.598340	0.608490	0.614590
S21	S2	0.403940	0.388850	0.690280
O41	O4	0.445600	0.268600	0.777500
O51	O5	0.271000	0.408400	0.779900
O61	O6	0.490200	0.485400	0.772800
Cu31	Cu3	0.598340	0.891510	0.385410
S31	S3	0.403940	0.111150	0.309720
O71	O7	0.445600	0.231400	0.222500
O81	O8	0.271000	0.091600	0.220100
O91	O9	0.490200	0.014600	0.227200
Cu41	Cu4	0.901660	0.608490	0.385410
S41	S4	0.096060	0.388850	0.309720
O101	O10	0.054400	0.268600	0.222500
O111	O11	0.229000	0.408400	0.220100
O121	O12	0.009800	0.485400	0.227200
Cu51	Cu5	0.098340	0.108490	0.385410
S51	S5	0.903940	0.888850	0.309720
O131	O13	0.945600	0.768600	0.222500
O141	O14	0.771000	0.908400	0.220100
O151	O15	0.990200	0.985400	0.227200
Cu61	Cu6	0.401660	0.391510	0.385410
S61	S6	0.596060	0.611150	0.309720
O161	O16	0.554400	0.731400	0.222500
O171	O17	0.729000	0.591600	0.220100
O181	O18	0.509800	0.514600	0.227200
Cu71	Cu7	0.401660	0.108490	0.614590
S71	S7	0.596060	0.888850	0.690280
O191	O19	0.554400	0.768600	0.777500
O201	O20	0.729000	0.908400	0.779900
O211	O21	0.509800	0.985400	0.772800
Cu81	Cu8	0.098340	0.391510	0.614590
S81	S8	0.903940	0.611150	0.690280
O221	O22	0.945600	0.731400	0.777500
O231	O23	0.771000	0.591600	0.779900
O241	O24	0.990200	0.514600	0.772800
Cd11	Cd1	0.250000	0.250000	0.000000
Cd21	Cd2	0.750000	0.750000	0.000000
