data_KUHNEI_clean_PM
_symmetry_space_group_name_H-M	'P1'
_cell_length_a	13.669000
_cell_length_b	15.925000
_cell_length_c	14.633000
_cell_angle_alpha	90.000000
_cell_angle_beta	90.000000
_cell_angle_gamma	90.000000
_symmetry_Int_Tables_number 1

loop_
_symmetry_equiv_pos_as_xyz
'x,y,z'

loop_
_atom_site_label
_atom_site_type_symbol
_atom_site_fract_x
_atom_site_fract_y
_atom_site_fract_z
Co11	Co1	0.206090	0.497100	0.233160
Co21	Co2	0.064000	0.416690	0.030150
C11	C1	0.264400	0.395400	0.111200
C21	C2	0.294400	0.328400	0.044200
C31	C3	0.287000	0.334900	0.948500
C41	C4	0.240100	0.407800	0.899600
C51	C5	0.317900	0.267200	0.895800
H11	H1	0.316300	0.271900	0.832500
C61	C6	0.351100	0.192500	0.934400
C71	C7	0.377000	0.122700	0.868500
C81	C8	0.354300	0.185200	0.029200
C91	C9	0.374200	0.103500	0.078600
C101	C10	0.327300	0.254000	0.082800
H21	H2	0.331400	0.249800	0.146100
O11	O1	0.326500	0.433300	0.157600
O21	O2	0.173300	0.409300	0.125000
O31	O3	0.170200	0.446600	0.935400
O41	O4	0.272900	0.424200	0.820800
O51	O5	0.309000	0.101600	0.816600
O61	O6	0.461700	0.092900	0.867300
O71	O7	0.442800	0.054500	0.053200
O81	O8	0.316900	0.088900	0.142400
Co31	Co3	0.293910	0.002900	0.733160
Co41	Co4	0.436000	0.083310	0.530150
C111	C11	0.235600	0.104600	0.611200
C121	C12	0.205600	0.171600	0.544200
C131	C13	0.213000	0.165100	0.448500
C141	C14	0.259900	0.092200	0.399600
C151	C15	0.182100	0.232800	0.395800
H31	H3	0.183700	0.228100	0.332500
C161	C16	0.148900	0.307500	0.434400
C171	C17	0.123000	0.377300	0.368500
C181	C18	0.145700	0.314800	0.529200
C191	C19	0.125800	0.396500	0.578600
C201	C20	0.172700	0.246000	0.582800
H41	H4	0.168600	0.250200	0.646100
O91	O9	0.173500	0.066700	0.657600
O101	O10	0.326700	0.090700	0.625000
O111	O11	0.329800	0.053400	0.435400
O121	O12	0.227100	0.075800	0.320800
O131	O13	0.191000	0.398400	0.316600
O141	O14	0.038300	0.407100	0.367300
O151	O15	0.057200	0.445500	0.553200
O161	O16	0.183100	0.411100	0.642400
Co51	Co5	0.793910	0.497100	0.266840
Co61	Co6	0.936000	0.416690	0.469850
C211	C21	0.735600	0.395400	0.388800
C221	C22	0.705600	0.328400	0.455800
C231	C23	0.713000	0.334900	0.551500
C241	C24	0.759900	0.407800	0.600400
C251	C25	0.682100	0.267200	0.604200
H51	H5	0.683700	0.271900	0.667500
C261	C26	0.648900	0.192500	0.565600
C271	C27	0.623000	0.122700	0.631500
C281	C28	0.645700	0.185200	0.470800
C291	C29	0.625800	0.103500	0.421400
C301	C30	0.672700	0.254000	0.417200
H61	H6	0.668600	0.249800	0.353900
O171	O17	0.673500	0.433300	0.342400
O181	O18	0.826700	0.409300	0.375000
O191	O19	0.829800	0.446600	0.564600
O201	O20	0.727100	0.424200	0.679200
O211	O21	0.691000	0.101600	0.683400
O221	O22	0.538300	0.092900	0.632700
O231	O23	0.557200	0.054500	0.446800
O241	O24	0.683100	0.088900	0.357600
Co71	Co7	0.706090	0.002900	0.766840
Co81	Co8	0.564000	0.083310	0.969850
C311	C31	0.764400	0.104600	0.888800
C321	C32	0.794400	0.171600	0.955800
C331	C33	0.787000	0.165100	0.051500
C341	C34	0.740100	0.092200	0.100400
C351	C35	0.817900	0.232800	0.104200
H71	H7	0.816300	0.228100	0.167500
C361	C36	0.851100	0.307500	0.065600
C371	C37	0.877000	0.377300	0.131500
C381	C38	0.854300	0.314800	0.970800
C391	C39	0.874200	0.396500	0.921400
C401	C40	0.827300	0.246000	0.917200
H81	H8	0.831400	0.250200	0.853900
O251	O25	0.826500	0.066700	0.842400
O261	O26	0.673300	0.090700	0.875000
O271	O27	0.670200	0.053400	0.064600
O281	O28	0.772900	0.075800	0.179200
O291	O29	0.809000	0.398400	0.183400
O301	O30	0.961700	0.407100	0.132700
O311	O31	0.942800	0.445500	0.946800
O321	O32	0.816900	0.411100	0.857600
Co91	Co9	0.793910	0.502900	0.766840
Co101	Co10	0.936000	0.583310	0.969850
C411	C41	0.735600	0.604600	0.888800
C421	C42	0.705600	0.671600	0.955800
C431	C43	0.713000	0.665100	0.051500
C441	C44	0.759900	0.592200	0.100400
C451	C45	0.682100	0.732800	0.104200
H91	H9	0.683700	0.728100	0.167500
C461	C46	0.648900	0.807500	0.065600
C471	C47	0.623000	0.877300	0.131500
C481	C48	0.645700	0.814800	0.970800
C491	C49	0.625800	0.896500	0.921400
C501	C50	0.672700	0.746000	0.917200
H101	H10	0.668600	0.750200	0.853900
O331	O33	0.673500	0.566700	0.842400
O341	O34	0.826700	0.590700	0.875000
O351	O35	0.829800	0.553400	0.064600
O361	O36	0.727100	0.575800	0.179200
O371	O37	0.691000	0.898400	0.183400
O381	O38	0.538300	0.907100	0.132700
O391	O39	0.557200	0.945500	0.946800
O401	O40	0.683100	0.911100	0.857600
Co111	Co11	0.706090	0.997100	0.266840
Co121	Co12	0.564000	0.916690	0.469850
C511	C51	0.764400	0.895400	0.388800
C521	C52	0.794400	0.828400	0.455800
C531	C53	0.787000	0.834900	0.551500
C541	C54	0.740100	0.907800	0.600400
C551	C55	0.817900	0.767200	0.604200
H111	H11	0.816300	0.771900	0.667500
C561	C56	0.851100	0.692500	0.565600
C571	C57	0.877000	0.622700	0.631500
C581	C58	0.854300	0.685200	0.470800
C591	C59	0.874200	0.603500	0.421400
C601	C60	0.827300	0.754000	0.417200
H121	H12	0.831400	0.749800	0.353900
O411	O41	0.826500	0.933300	0.342400
O421	O42	0.673300	0.909300	0.375000
O431	O43	0.670200	0.946600	0.564600
O441	O44	0.772900	0.924200	0.679200
O451	O45	0.809000	0.601600	0.683400
O461	O46	0.961700	0.592900	0.632700
O471	O47	0.942800	0.554500	0.446800
O481	O48	0.816900	0.588900	0.357600
Co131	Co13	0.206090	0.502900	0.733160
Co141	Co14	0.064000	0.583310	0.530150
C611	C61	0.264400	0.604600	0.611200
C621	C62	0.294400	0.671600	0.544200
C631	C63	0.287000	0.665100	0.448500
C641	C64	0.240100	0.592200	0.399600
C651	C65	0.317900	0.732800	0.395800
H131	H13	0.316300	0.728100	0.332500
C661	C66	0.351100	0.807500	0.434400
C671	C67	0.377000	0.877300	0.368500
C681	C68	0.354300	0.814800	0.529200
C691	C69	0.374200	0.896500	0.578600
C701	C70	0.327300	0.746000	0.582800
H141	H14	0.331400	0.750200	0.646100
O491	O49	0.326500	0.566700	0.657600
O501	O50	0.173300	0.590700	0.625000
O511	O51	0.170200	0.553400	0.435400
O521	O52	0.272900	0.575800	0.320800
O531	O53	0.309000	0.898400	0.316600
O541	O54	0.461700	0.907100	0.367300
O551	O55	0.442800	0.945500	0.553200
O561	O56	0.316900	0.911100	0.642400
Co151	Co15	0.293910	0.997100	0.233160
Co161	Co16	0.436000	0.916690	0.030150
C711	C71	0.235600	0.895400	0.111200
C721	C72	0.205600	0.828400	0.044200
C731	C73	0.213000	0.834900	0.948500
C741	C74	0.259900	0.907800	0.899600
C751	C75	0.182100	0.767200	0.895800
H151	H15	0.183700	0.771900	0.832500
C761	C76	0.148900	0.692500	0.934400
C771	C77	0.123000	0.622700	0.868500
C781	C78	0.145700	0.685200	0.029200
C791	C79	0.125800	0.603500	0.078600
C801	C80	0.172700	0.754000	0.082800
H161	H16	0.168600	0.749800	0.146100
O571	O57	0.173500	0.933300	0.157600
O581	O58	0.326700	0.909300	0.125000
O591	O59	0.329800	0.946600	0.935400
O601	O60	0.227100	0.924200	0.820800
O611	O61	0.191000	0.601600	0.816600
O621	O62	0.038300	0.592900	0.867300
O631	O63	0.057200	0.554500	0.053200
O641	O64	0.183100	0.588900	0.142400
