data_KUHNIM_clean_PM
_symmetry_space_group_name_H-M	'P1'
_cell_length_a	19.576000
_cell_length_b	18.535000
_cell_length_c	7.837700
_cell_angle_alpha	90.000000
_cell_angle_beta	94.150000
_cell_angle_gamma	90.000000
_symmetry_Int_Tables_number 1

loop_
_symmetry_equiv_pos_as_xyz
'x,y,z'

loop_
_atom_site_label
_atom_site_type_symbol
_atom_site_fract_x
_atom_site_fract_y
_atom_site_fract_z
Zn11	Zn1	0.358400	0.144830	0.356700
Zn21	Zn2	0.085900	0.976720	0.365700
C11	C1	0.984800	0.321700	0.971000
C21	C2	0.047100	0.278800	0.029000
C31	C3	0.045500	0.212000	0.076000
H11	H1	0.003400	0.188800	0.060800
C41	C4	0.102000	0.169200	0.149000
C51	C5	0.090600	0.095000	0.217000
C61	C6	0.160600	0.205600	0.157000
C71	C7	0.227700	0.163100	0.219000
C81	C8	0.168100	0.280200	0.116000
H21	H2	0.210500	0.302800	0.133600
C91	C9	0.112500	0.317400	0.053000
C101	C10	0.122600	0.396600	0.003000
O11	O1	0.934400	0.282100	0.924500
O21	O2	0.982000	0.390500	0.979800
O31	O3	0.117600	0.411700	0.846500
O41	O4	0.131900	0.439000	0.110700
O51	O5	0.077600	0.044100	0.106300
O61	O6	0.089500	0.088700	0.363000
O71	O7	0.227100	0.104300	0.203500
O81	O8	0.281100	0.204900	0.281600
Zn31	Zn3	0.858400	0.644830	0.356700
Zn41	Zn4	0.585900	0.476720	0.365700
C111	C11	0.484800	0.821700	0.971000
C121	C12	0.547100	0.778800	0.029000
C131	C13	0.545500	0.712000	0.076000
H31	H3	0.503400	0.688800	0.060800
C141	C14	0.602000	0.669200	0.149000
C151	C15	0.590600	0.595000	0.217000
C161	C16	0.660600	0.705600	0.157000
C171	C17	0.727700	0.663100	0.219000
C181	C18	0.668100	0.780200	0.116000
H41	H4	0.710500	0.802800	0.133600
C191	C19	0.612500	0.817400	0.053000
C201	C20	0.622600	0.896600	0.003000
O91	O9	0.434400	0.782100	0.924500
O101	O10	0.482000	0.890500	0.979800
O111	O11	0.617600	0.911700	0.846500
O121	O12	0.631900	0.939000	0.110700
O131	O13	0.577600	0.544100	0.106300
O141	O14	0.589500	0.588700	0.363000
O151	O15	0.727100	0.604300	0.203500
O161	O16	0.781100	0.704900	0.281600
Zn51	Zn5	0.641600	0.144830	0.143300
Zn61	Zn6	0.914100	0.976720	0.134300
C211	C21	0.015200	0.321700	0.529000
C221	C22	0.952900	0.278800	0.471000
C231	C23	0.954500	0.212000	0.424000
H51	H5	0.996600	0.188800	0.439200
C241	C24	0.898000	0.169200	0.351000
C251	C25	0.909400	0.095000	0.283000
C261	C26	0.839400	0.205600	0.343000
C271	C27	0.772300	0.163100	0.281000
C281	C28	0.831900	0.280200	0.384000
H61	H6	0.789500	0.302800	0.366400
C291	C29	0.887500	0.317400	0.447000
C301	C30	0.877400	0.396600	0.497000
O171	O17	0.065600	0.282100	0.575500
O181	O18	0.018000	0.390500	0.520200
O191	O19	0.882400	0.411700	0.653500
O201	O20	0.868100	0.439000	0.389300
O211	O21	0.922400	0.044100	0.393700
O221	O22	0.910500	0.088700	0.137000
O231	O23	0.772900	0.104300	0.296500
O241	O24	0.718900	0.204900	0.218400
Zn71	Zn7	0.141600	0.644830	0.143300
Zn81	Zn8	0.414100	0.476720	0.134300
C311	C31	0.515200	0.821700	0.529000
C321	C32	0.452900	0.778800	0.471000
C331	C33	0.454500	0.712000	0.424000
H71	H7	0.496600	0.688800	0.439200
C341	C34	0.398000	0.669200	0.351000
C351	C35	0.409400	0.595000	0.283000
C361	C36	0.339400	0.705600	0.343000
C371	C37	0.272300	0.663100	0.281000
C381	C38	0.331900	0.780200	0.384000
H81	H8	0.289500	0.802800	0.366400
C391	C39	0.387500	0.817400	0.447000
C401	C40	0.377400	0.896600	0.497000
O251	O25	0.565600	0.782100	0.575500
O261	O26	0.518000	0.890500	0.520200
O271	O27	0.382400	0.911700	0.653500
O281	O28	0.368100	0.939000	0.389300
O291	O29	0.422400	0.544100	0.393700
O301	O30	0.410500	0.588700	0.137000
O311	O31	0.272900	0.604300	0.296500
O321	O32	0.218900	0.704900	0.218400
Zn91	Zn9	0.641600	0.855170	0.643300
Zn101	Zn10	0.914100	0.023280	0.634300
C411	C41	0.015200	0.678300	0.029000
C421	C42	0.952900	0.721200	0.971000
C431	C43	0.954500	0.788000	0.924000
H91	H9	0.996600	0.811200	0.939200
C441	C44	0.898000	0.830800	0.851000
C451	C45	0.909400	0.905000	0.783000
C461	C46	0.839400	0.794400	0.843000
C471	C47	0.772300	0.836900	0.781000
C481	C48	0.831900	0.719800	0.884000
H101	H10	0.789500	0.697200	0.866400
C491	C49	0.887500	0.682600	0.947000
C501	C50	0.877400	0.603400	0.997000
O331	O33	0.065600	0.717900	0.075500
O341	O34	0.018000	0.609500	0.020200
O351	O35	0.882400	0.588300	0.153500
O361	O36	0.868100	0.561000	0.889300
O371	O37	0.922400	0.955900	0.893700
O381	O38	0.910500	0.911300	0.637000
O391	O39	0.772900	0.895700	0.796500
O401	O40	0.718900	0.795100	0.718400
Zn111	Zn11	0.141600	0.355170	0.643300
Zn121	Zn12	0.414100	0.523280	0.634300
C511	C51	0.515200	0.178300	0.029000
C521	C52	0.452900	0.221200	0.971000
C531	C53	0.454500	0.288000	0.924000
H111	H11	0.496600	0.311200	0.939200
C541	C54	0.398000	0.330800	0.851000
C551	C55	0.409400	0.405000	0.783000
C561	C56	0.339400	0.294400	0.843000
C571	C57	0.272300	0.336900	0.781000
C581	C58	0.331900	0.219800	0.884000
H121	H12	0.289500	0.197200	0.866400
C591	C59	0.387500	0.182600	0.947000
C601	C60	0.377400	0.103400	0.997000
O411	O41	0.565600	0.217900	0.075500
O421	O42	0.518000	0.109500	0.020200
O431	O43	0.382400	0.088300	0.153500
O441	O44	0.368100	0.061000	0.889300
O451	O45	0.422400	0.455900	0.893700
O461	O46	0.410500	0.411300	0.637000
O471	O47	0.272900	0.395700	0.796500
O481	O48	0.218900	0.295100	0.718400
Zn131	Zn13	0.358400	0.855170	0.856700
Zn141	Zn14	0.085900	0.023280	0.865700
C611	C61	0.984800	0.678300	0.471000
C621	C62	0.047100	0.721200	0.529000
C631	C63	0.045500	0.788000	0.576000
H131	H13	0.003400	0.811200	0.560800
C641	C64	0.102000	0.830800	0.649000
C651	C65	0.090600	0.905000	0.717000
C661	C66	0.160600	0.794400	0.657000
C671	C67	0.227700	0.836900	0.719000
C681	C68	0.168100	0.719800	0.616000
H141	H14	0.210500	0.697200	0.633600
C691	C69	0.112500	0.682600	0.553000
C701	C70	0.122600	0.603400	0.503000
O491	O49	0.934400	0.717900	0.424500
O501	O50	0.982000	0.609500	0.479800
O511	O51	0.117600	0.588300	0.346500
O521	O52	0.131900	0.561000	0.610700
O531	O53	0.077600	0.955900	0.606300
O541	O54	0.089500	0.911300	0.863000
O551	O55	0.227100	0.895700	0.703500
O561	O56	0.281100	0.795100	0.781600
Zn151	Zn15	0.858400	0.355170	0.856700
Zn161	Zn16	0.585900	0.523280	0.865700
C711	C71	0.484800	0.178300	0.471000
C721	C72	0.547100	0.221200	0.529000
C731	C73	0.545500	0.288000	0.576000
H151	H15	0.503400	0.311200	0.560800
C741	C74	0.602000	0.330800	0.649000
C751	C75	0.590600	0.405000	0.717000
C761	C76	0.660600	0.294400	0.657000
C771	C77	0.727700	0.336900	0.719000
C781	C78	0.668100	0.219800	0.616000
H161	H16	0.710500	0.197200	0.633600
C791	C79	0.612500	0.182600	0.553000
C801	C80	0.622600	0.103400	0.503000
O571	O57	0.434400	0.217900	0.424500
O581	O58	0.482000	0.109500	0.479800
O591	O59	0.617600	0.088300	0.346500
O601	O60	0.631900	0.061000	0.610700
O611	O61	0.577600	0.455900	0.606300
O621	O62	0.589500	0.411300	0.863000
O631	O63	0.727100	0.395700	0.703500
O641	O64	0.781100	0.295100	0.781600
