data_KUJFUS_clean_PM
_symmetry_space_group_name_H-M	'P1'
_cell_length_a	9.536900
_cell_length_b	9.154400
_cell_length_c	13.313100
_cell_angle_alpha	90.000000
_cell_angle_beta	90.483000
_cell_angle_gamma	90.000000
_symmetry_Int_Tables_number 1

loop_
_symmetry_equiv_pos_as_xyz
'x,y,z'

loop_
_atom_site_label
_atom_site_type_symbol
_atom_site_fract_x
_atom_site_fract_y
_atom_site_fract_z
O11	O1	0.819710	0.889680	0.455330
C11	C1	0.754450	0.772330	0.471940
H11	H1	0.803200	0.699400	0.506100
O21	O2	0.633670	0.745200	0.447540
O31	O3	0.903280	0.196420	0.458440
C21	C2	0.778790	0.242190	0.470210
H21	H2	0.715900	0.178200	0.500000
O41	O4	0.733910	0.361790	0.446200
O51	O5	0.582360	0.520590	0.855360
C31	C3	0.534670	0.512230	0.766510
H31	H3	0.441400	0.484200	0.759500
O61	O6	0.597530	0.536800	0.689470
O71	O7	0.680290	0.389680	0.044670
C41	C4	0.745550	0.272330	0.028060
H41	H4	0.696800	0.199400	0.993900
O81	O8	0.866330	0.245200	0.052460
O91	O9	0.596720	0.696420	0.041560
C51	C5	0.721210	0.742190	0.029790
H51	H5	0.784100	0.678200	0.000000
O101	O10	0.766090	0.861790	0.053800
O111	O11	0.917640	0.020590	0.644640
C61	C6	0.965330	0.012230	0.733490
H61	H6	0.058600	0.984200	0.740500
O121	O12	0.902470	0.036800	0.810530
O131	O13	0.180290	0.110320	0.544670
C71	C7	0.245550	0.227670	0.528060
H71	H7	0.196800	0.300600	0.493900
O141	O14	0.366330	0.254800	0.552460
O151	O15	0.096720	0.803580	0.541560
C81	C8	0.221210	0.757810	0.529790
H81	H8	0.284100	0.821800	0.500000
O161	O16	0.266090	0.638210	0.553800
O171	O17	0.417640	0.479410	0.144640
C91	C9	0.465330	0.487770	0.233490
H91	H9	0.558600	0.515800	0.240500
O181	O18	0.402470	0.463200	0.310530
O191	O19	0.319710	0.610320	0.955330
C101	C10	0.254450	0.727670	0.971940
H101	H10	0.303200	0.800600	0.006100
O201	O20	0.133670	0.754800	0.947540
O211	O21	0.403280	0.303580	0.958440
C111	C11	0.278790	0.257810	0.970210
H111	H11	0.215900	0.321800	0.000000
O221	O22	0.233910	0.138210	0.946200
O231	O23	0.082360	0.979410	0.355360
C121	C12	0.034670	0.987770	0.266510
H121	H12	0.941400	0.015800	0.259500
O241	O24	0.097530	0.963200	0.189470
Sc11	Sc1	0.000000	0.000000	0.500000
Sc21	Sc2	0.500000	0.500000	0.000000
K11	K1	0.500000	0.500000	0.500000
K21	K2	0.000000	0.000000	0.000000
