data_KUJMIN_clean_PM
_symmetry_space_group_name_H-M	'P1'
_cell_length_a	10.200800
_cell_length_b	20.449400
_cell_length_c	20.589300
_cell_angle_alpha	88.589000
_cell_angle_beta	76.395000
_cell_angle_gamma	87.033000
_symmetry_Int_Tables_number 1

loop_
_symmetry_equiv_pos_as_xyz
'x,y,z'

loop_
_atom_site_label
_atom_site_type_symbol
_atom_site_fract_x
_atom_site_fract_y
_atom_site_fract_z
O11	O1	0.147300	0.735700	0.163720
C11	C1	0.705900	0.327900	0.358900
C21	C2	0.582000	0.288300	0.371000
C31	C3	0.588900	0.224200	0.394200
H11	H1	0.670700	0.205700	0.399900
C41	C4	0.474200	0.187400	0.409100
C51	C5	0.354900	0.214300	0.397100
H21	H2	0.278600	0.189600	0.405900
C61	C6	0.347200	0.277500	0.372300
C71	C7	0.460700	0.315500	0.361000
H31	H3	0.454900	0.358900	0.346900
C81	C8	0.480200	0.120300	0.440100
C91	C9	0.215200	0.306100	0.360300
C101	C10	0.925900	0.361800	0.190800
C111	C11	0.963500	0.327300	0.124400
C121	C12	0.097300	0.309400	0.095400
H41	H4	0.164800	0.320300	0.116100
C131	C13	0.131100	0.275400	0.035400
C141	C14	0.030000	0.256400	0.006200
H51	H5	0.052100	0.232400	0.967000
C151	C15	0.895200	0.273200	0.035500
C161	C16	0.863900	0.310500	0.093300
H61	H6	0.774700	0.324300	0.111200
C171	C17	0.277500	0.257200	0.005500
C181	C18	0.782200	0.250100	0.007600
C191	C19	0.995100	0.514700	0.269900
C201	C20	0.129300	0.546500	0.248000
C211	C21	0.131600	0.607300	0.216500
H71	H7	0.051500	0.628400	0.211700
C221	C22	0.253700	0.636700	0.192200
C231	C23	0.372200	0.604900	0.199700
H81	H8	0.454200	0.623700	0.182000
C241	C24	0.370200	0.545200	0.233200
C251	C25	0.247600	0.515300	0.257300
H91	H9	0.245400	0.475000	0.279400
C261	C26	0.258000	0.703200	0.158400
C271	C27	0.500800	0.514600	0.244300
C281	C28	0.388900	0.870500	0.168700
C291	C29	0.490900	0.882900	0.208600
C301	C30	0.628200	0.873600	0.180200
H101	H10	0.657000	0.858700	0.136600
C311	C31	0.722500	0.886100	0.216400
C321	C32	0.679700	0.908900	0.281100
H111	H11	0.742900	0.918400	0.305100
C331	C33	0.542000	0.917600	0.310500
C341	C34	0.449300	0.904500	0.273900
H121	H12	0.357600	0.910300	0.293400
C351	C35	0.871400	0.874100	0.186600
C361	C36	0.496800	0.943000	0.380700
Cd11	Cd1	0.984130	0.365660	0.339260
Cd21	Cd2	0.453960	0.778970	0.035170
Cd31	Cd3	0.134730	0.842380	0.133640
Cd41	Cd4	0.346140	0.994090	0.506050
Cd51	Cd5	0.729490	0.468020	0.279480
O21	O2	0.817400	0.296500	0.353000
O31	O3	0.690700	0.388980	0.359050
O41	O4	0.372400	0.090710	0.454990
O51	O5	0.593100	0.098990	0.449020
O61	O6	0.115600	0.271800	0.372600
O71	O7	0.210600	0.362910	0.337600
O81	O8	0.011100	0.359030	0.225800
O91	O9	0.810900	0.389550	0.205450
O101	O10	0.667700	0.278740	0.024610
O111	O11	0.804900	0.200800	0.970610
O121	O12	0.314600	0.240800	0.946160
O131	O13	0.359800	0.258700	0.041200
O141	O14	0.975800	0.475790	0.319040
O151	O15	0.907600	0.529870	0.237460
O161	O16	0.372200	0.720660	0.127980
O171	O17	0.610200	0.538700	0.213990
O181	O18	0.498000	0.467830	0.284270
O191	O19	0.429000	0.864140	0.106430
O201	O20	0.268300	0.867800	0.200180
O211	O21	0.372500	0.947610	0.406300
O221	O22	0.586900	0.958450	0.408850
O231	O23	0.953700	0.897400	0.214400
O241	O24	0.907800	0.839900	0.135920
O251	O25	0.852700	0.264300	0.836280
C371	C37	0.294100	0.672100	0.641100
C381	C38	0.418000	0.711700	0.629000
C391	C39	0.411100	0.775800	0.605800
H131	H13	0.329300	0.794300	0.600100
C401	C40	0.525800	0.812600	0.590900
C411	C41	0.645100	0.785700	0.602900
H141	H14	0.721400	0.810400	0.594100
C421	C42	0.652800	0.722500	0.627700
C431	C43	0.539300	0.684500	0.639000
H151	H15	0.545100	0.641100	0.653100
C441	C44	0.519800	0.879700	0.559900
C451	C45	0.784800	0.693900	0.639700
C461	C46	0.074100	0.638200	0.809200
C471	C47	0.036500	0.672700	0.875600
C481	C48	0.902700	0.690600	0.904600
H161	H16	0.835200	0.679700	0.883900
C491	C49	0.868900	0.724600	0.964600
C501	C50	0.970000	0.743600	0.993800
H171	H17	0.947900	0.767600	0.033000
C511	C51	0.104800	0.726800	0.964500
C521	C52	0.136100	0.689500	0.906700
H181	H18	0.225300	0.675700	0.888800
C531	C53	0.722500	0.742800	0.994500
C541	C54	0.217800	0.749900	0.992400
C551	C55	0.004900	0.485300	0.730100
C561	C56	0.870700	0.453500	0.752000
C571	C57	0.868400	0.392700	0.783500
H191	H19	0.948500	0.371600	0.788300
C581	C58	0.746300	0.363300	0.807800
C591	C59	0.627800	0.395100	0.800300
H201	H20	0.545800	0.376300	0.818000
C601	C60	0.629800	0.454800	0.766800
C611	C61	0.752400	0.484700	0.742700
H211	H21	0.754600	0.525000	0.720600
C621	C62	0.742000	0.296800	0.841600
C631	C63	0.499200	0.485400	0.755700
C641	C64	0.611100	0.129500	0.831300
C651	C65	0.509100	0.117100	0.791400
C661	C66	0.371800	0.126400	0.819800
H221	H22	0.343000	0.141300	0.863400
C671	C67	0.277500	0.113900	0.783600
C681	C68	0.320300	0.091100	0.718900
H231	H23	0.257100	0.081600	0.694900
C691	C69	0.458000	0.082400	0.689500
C701	C70	0.550700	0.095500	0.726100
H241	H24	0.642400	0.089700	0.706600
C711	C71	0.128600	0.125900	0.813400
C721	C72	0.503200	0.057000	0.619300
Cd61	Cd6	0.015870	0.634340	0.660740
Cd71	Cd7	0.546040	0.221030	0.964820
Cd81	Cd8	0.865270	0.157620	0.866360
Cd91	Cd9	0.653860	0.005910	0.493950
Cd101	Cd10	0.270510	0.531980	0.720520
O261	O26	0.182600	0.703500	0.647000
O271	O27	0.309300	0.611020	0.640950
O281	O28	0.627600	0.909290	0.545010
O291	O29	0.406900	0.901010	0.550980
O301	O30	0.884400	0.728200	0.627400
O311	O31	0.789400	0.637090	0.662400
O321	O32	0.988900	0.640970	0.774200
O331	O33	0.189100	0.610450	0.794550
O341	O34	0.332300	0.721260	0.975390
O351	O35	0.195100	0.799200	0.029390
O361	O36	0.685400	0.759200	0.053840
O371	O37	0.640200	0.741300	0.958800
O381	O38	0.024200	0.524210	0.680960
O391	O39	0.092400	0.470130	0.762540
O401	O40	0.627800	0.279340	0.872020
O411	O41	0.389800	0.461300	0.786010
O421	O42	0.502000	0.532170	0.715730
O431	O43	0.571000	0.135860	0.893570
O441	O44	0.731700	0.132200	0.799820
O451	O45	0.627500	0.052390	0.593700
O461	O46	0.413100	0.041550	0.591150
O471	O47	0.046300	0.102600	0.785600
O481	O48	0.092200	0.160100	0.864080
