data_KUJNEJ_clean_PM
_symmetry_space_group_name_H-M	'P1'
_cell_length_a	24.666100
_cell_length_b	24.666100
_cell_length_c	24.666100
_cell_angle_alpha	109.471000
_cell_angle_beta	109.471000
_cell_angle_gamma	109.471000
_symmetry_Int_Tables_number 1

loop_
_symmetry_equiv_pos_as_xyz
'x,y,z'

loop_
_atom_site_label
_atom_site_type_symbol
_atom_site_fract_x
_atom_site_fract_y
_atom_site_fract_z
Ni11	Ni1	0.080200	0.089450	0.406860
Ni21	Ni2	0.682590	0.673340	0.593130
Ni31	Ni3	0.317410	0.910550	0.990750
Ni41	Ni4	0.919800	0.326660	0.009260
Ni51	Ni5	0.990750	0.317410	0.910550
Ni61	Ni6	0.009250	0.919790	0.326660
Ni71	Ni7	0.406860	0.080200	0.089450
Ni81	Ni8	0.593140	0.682600	0.673340
Ni91	Ni9	0.673340	0.593140	0.682590
Ni101	Ni10	0.089460	0.406870	0.080210
Ni111	Ni11	0.326660	0.009250	0.919800
Ni121	Ni12	0.910540	0.990740	0.317400
H11	H1	0.182800	0.109300	0.594300
H21	H2	0.242200	0.112600	0.694200
H31	H3	0.209900	0.933500	0.594000
H41	H4	0.148100	0.926500	0.492400
H51	H5	0.301000	0.117500	0.779700
H61	H6	0.338600	0.111500	0.872700
H71	H7	0.262500	0.921500	0.774200
H81	H8	0.222000	0.918900	0.672500
H91	H9	0.128100	0.920300	0.232600
H101	H10	0.165700	0.869300	0.159600
H111	H11	0.221800	0.120200	0.343600
H121	H12	0.515000	0.588500	0.405700
H131	H13	0.418400	0.548000	0.305800
H141	H14	0.339500	0.615900	0.406000
H151	H15	0.434100	0.655700	0.507600
H161	H16	0.337800	0.521300	0.220300
H171	H17	0.238800	0.465900	0.127300
H181	H18	0.147300	0.488300	0.225800
H191	H19	0.246400	0.549500	0.327500
H201	H20	0.687700	0.895500	0.767400
H211	H21	0.709700	0.006100	0.840400
H221	H22	0.776600	0.878200	0.656400
H231	H23	0.485000	0.890700	0.073500
H241	H24	0.581600	0.887400	0.129600
H251	H25	0.660500	0.066500	0.276400
H261	H26	0.565900	0.073500	0.221600
H271	H27	0.662200	0.882500	0.183500
H281	H28	0.761200	0.888500	0.227100
H291	H29	0.852700	0.078500	0.341000
H301	H30	0.753600	0.081100	0.303100
H311	H31	0.312300	0.079700	0.207800
H321	H32	0.290300	0.130700	0.296400
H331	H33	0.223400	0.879800	0.101600
H341	H34	0.817200	0.411500	0.926500
H351	H35	0.757800	0.452000	0.870400
H361	H36	0.790100	0.384100	0.723600
H371	H37	0.851900	0.344300	0.778400
H381	H38	0.699000	0.478700	0.816500
H391	H39	0.661400	0.534100	0.772900
H401	H40	0.737500	0.511700	0.659000
H411	H41	0.778000	0.450500	0.696900
H421	H42	0.871900	0.104500	0.792200
H431	H43	0.834300	0.993900	0.703600
H441	H44	0.778200	0.121800	0.898400
H451	H45	0.073500	0.485000	0.890700
H461	H46	0.129600	0.581600	0.887400
H471	H47	0.276400	0.660500	0.066500
H481	H48	0.221600	0.565900	0.073500
H491	H49	0.183500	0.662200	0.882500
H501	H50	0.227100	0.761200	0.888500
H511	H51	0.341000	0.852700	0.078500
H521	H52	0.303100	0.753600	0.081100
H531	H53	0.207800	0.312300	0.079700
H541	H54	0.296400	0.290300	0.130700
H551	H55	0.101600	0.223400	0.879800
H561	H56	0.926500	0.817200	0.411500
H571	H57	0.870400	0.757800	0.452000
H581	H58	0.723600	0.790100	0.384100
H591	H59	0.778400	0.851900	0.344300
H601	H60	0.816500	0.699000	0.478700
H611	H61	0.772900	0.661400	0.534100
H621	H62	0.659000	0.737500	0.511700
H631	H63	0.696900	0.778000	0.450500
H641	H64	0.792200	0.871900	0.104500
H651	H65	0.703600	0.834300	0.993900
H661	H66	0.898400	0.778200	0.121800
H671	H67	0.594300	0.182800	0.109300
H681	H68	0.694200	0.242200	0.112600
H691	H69	0.594000	0.209900	0.933500
H701	H70	0.492400	0.148100	0.926500
H711	H71	0.779700	0.301000	0.117500
H721	H72	0.872700	0.338600	0.111500
H731	H73	0.774200	0.262500	0.921500
H741	H74	0.672500	0.222000	0.918900
H751	H75	0.232600	0.128100	0.920300
H761	H76	0.159600	0.165700	0.869300
H771	H77	0.343600	0.221800	0.120200
H781	H78	0.405700	0.515000	0.588500
H791	H79	0.305800	0.418400	0.548000
H801	H80	0.406000	0.339500	0.615900
H811	H81	0.507600	0.434100	0.655700
H821	H82	0.220300	0.337800	0.521300
H831	H83	0.127300	0.238800	0.465900
H841	H84	0.225800	0.147300	0.488300
H851	H85	0.327500	0.246400	0.549500
H861	H86	0.767400	0.687700	0.895500
H871	H87	0.840400	0.709700	0.006100
H881	H88	0.656400	0.776600	0.878200
H891	H89	0.588500	0.405700	0.515000
H901	H90	0.548000	0.305800	0.418400
H911	H91	0.615900	0.406000	0.339500
H921	H92	0.655700	0.507600	0.434100
H931	H93	0.521300	0.220300	0.337800
H941	H94	0.465900	0.127300	0.238800
H951	H95	0.488300	0.225800	0.147300
H961	H96	0.549500	0.327500	0.246400
H971	H97	0.895500	0.767400	0.687700
H981	H98	0.006100	0.840400	0.709700
H991	H99	0.878200	0.656400	0.776600
H1001	H100	0.109300	0.594300	0.182800
H1011	H101	0.112600	0.694200	0.242200
H1021	H102	0.933500	0.594000	0.209900
H1031	H103	0.926500	0.492400	0.148100
H1041	H104	0.117500	0.779700	0.301000
H1051	H105	0.111500	0.872700	0.338600
H1061	H106	0.921500	0.774200	0.262500
H1071	H107	0.918900	0.672500	0.222000
H1081	H108	0.920300	0.232600	0.128100
H1091	H109	0.869300	0.159600	0.165700
H1101	H110	0.120200	0.343600	0.221800
H1111	H111	0.411500	0.926500	0.817200
H1121	H112	0.452000	0.870400	0.757800
H1131	H113	0.384100	0.723600	0.790100
H1141	H114	0.344300	0.778400	0.851900
H1151	H115	0.478700	0.816500	0.699000
H1161	H116	0.534100	0.772900	0.661400
H1171	H117	0.511700	0.659000	0.737500
H1181	H118	0.450500	0.696900	0.778000
H1191	H119	0.104500	0.792200	0.871900
H1201	H120	0.993900	0.703600	0.834300
H1211	H121	0.121800	0.898400	0.778200
H1221	H122	0.890700	0.073500	0.485000
H1231	H123	0.887400	0.129600	0.581600
H1241	H124	0.066500	0.276400	0.660500
H1251	H125	0.073500	0.221600	0.565900
H1261	H126	0.882500	0.183500	0.662200
H1271	H127	0.888500	0.227100	0.761200
H1281	H128	0.078500	0.341000	0.852700
H1291	H129	0.081100	0.303100	0.753600
H1301	H130	0.079700	0.207800	0.312300
H1311	H131	0.130700	0.296400	0.290300
H1321	H132	0.879800	0.101600	0.223400
C11	C1	0.117860	0.012920	0.470560
C21	C2	0.158090	0.016320	0.533850
C31	C3	0.186400	0.071790	0.592970
C41	C4	0.221530	0.073390	0.652880
C51	C5	0.225930	0.019360	0.651890
C61	C6	0.202650	0.969200	0.595070
C71	C7	0.166230	0.965220	0.533330
C81	C8	0.253360	0.019740	0.716120
C91	C9	0.290360	0.075400	0.776360
C101	C10	0.311930	0.071030	0.831500
C111	C11	0.268500	0.961800	0.774900
C121	C12	0.243800	0.959060	0.713380
C131	C13	0.119790	0.010330	0.318460
C141	C14	0.166460	0.017140	0.290120
C151	C15	0.159820	0.963120	0.244580
C161	C16	0.200350	0.969080	0.213350
C171	C17	0.193720	0.911810	0.167630
C181	C18	0.216080	0.081770	0.310510
C191	C19	0.542360	0.647300	0.529440
C201	C20	0.482470	0.624240	0.466150
C211	C21	0.478820	0.593430	0.407030
C221	C22	0.420510	0.568650	0.347120
C231	C23	0.367470	0.574040	0.348110
C241	C24	0.374130	0.607580	0.404930
C251	C25	0.431890	0.632900	0.466670
C261	C26	0.303620	0.537240	0.283880
C271	C27	0.299040	0.514000	0.223640
C281	C28	0.239530	0.480430	0.168500
C291	C29	0.186900	0.493600	0.225100
C301	C30	0.245680	0.530420	0.286620
C311	C31	0.691870	0.801330	0.681540
C321	C32	0.727020	0.876340	0.709880
C331	C33	0.718540	0.915240	0.755420
C341	C34	0.755730	0.987000	0.786650
C351	C35	0.744180	0.026090	0.832370
C361	C36	0.771260	0.905570	0.689490
C371	C37	0.457640	0.987080	0.104940
C381	C38	0.517530	0.983680	0.141770
C391	C39	0.521180	0.928210	0.114610
C401	C40	0.579490	0.926610	0.148140
C411	C41	0.632530	0.980640	0.206570
C421	C42	0.625870	0.030800	0.233450
C431	C43	0.568110	0.034780	0.201010
C441	C44	0.696380	0.980260	0.233620
C451	C45	0.700960	0.924600	0.214960
C461	C46	0.760470	0.928970	0.240900
C471	C47	0.813100	0.038200	0.306700
C481	C48	0.754320	0.040940	0.284740
C491	C49	0.308130	0.989670	0.109460
C501	C50	0.272980	0.982860	0.149320
C511	C51	0.281460	0.036880	0.196700
C521	C52	0.244270	0.030920	0.231270
C531	C53	0.255820	0.088190	0.281910
C541	C54	0.228740	0.918230	0.134310
C551	C55	0.882140	0.352700	0.895060
C561	C56	0.841910	0.375760	0.858230
C571	C57	0.813600	0.406570	0.885390
C581	C58	0.778470	0.431350	0.851860
C591	C59	0.774070	0.425960	0.793430
C601	C60	0.797350	0.392420	0.766550
C611	C61	0.833770	0.367100	0.798990
C621	C62	0.746640	0.462760	0.766380
C631	C63	0.709640	0.486000	0.785040
C641	C64	0.688070	0.519570	0.759100
C651	C65	0.731500	0.506400	0.693300
C661	C66	0.756200	0.469580	0.715260
C671	C67	0.880210	0.198670	0.890540
C681	C68	0.833540	0.123660	0.850680
C691	C69	0.840180	0.084760	0.803300
C701	C70	0.799650	0.013000	0.768730
C711	C71	0.806280	0.973910	0.718090
C721	C72	0.783920	0.094430	0.865690
C731	C73	0.104940	0.457640	0.987080
C741	C74	0.141770	0.517530	0.983680
C751	C75	0.114610	0.521180	0.928210
C761	C76	0.148140	0.579490	0.926610
C771	C77	0.206570	0.632530	0.980640
C781	C78	0.233450	0.625870	0.030800
C791	C79	0.201010	0.568110	0.034780
C801	C80	0.233620	0.696380	0.980260
C811	C81	0.214960	0.700960	0.924600
C821	C82	0.240900	0.760470	0.928970
C831	C83	0.306700	0.813100	0.038200
C841	C84	0.284740	0.754320	0.040940
C851	C85	0.109460	0.308130	0.989670
C861	C86	0.149320	0.272980	0.982860
C871	C87	0.196700	0.281460	0.036880
C881	C88	0.231270	0.244270	0.030920
C891	C89	0.281910	0.255820	0.088190
C901	C90	0.134310	0.228740	0.918230
C911	C91	0.895060	0.882140	0.352700
C921	C92	0.858230	0.841910	0.375760
C931	C93	0.885390	0.813600	0.406570
C941	C94	0.851860	0.778470	0.431350
C951	C95	0.793430	0.774070	0.425960
C961	C96	0.766550	0.797350	0.392420
C971	C97	0.798990	0.833770	0.367100
C981	C98	0.766380	0.746640	0.462760
C991	C99	0.785040	0.709640	0.486000
C1001	C100	0.759100	0.688070	0.519570
C1011	C101	0.693300	0.731500	0.506400
C1021	C102	0.715260	0.756200	0.469580
C1031	C103	0.890540	0.880210	0.198670
C1041	C104	0.850680	0.833540	0.123660
C1051	C105	0.803300	0.840180	0.084760
C1061	C106	0.768730	0.799650	0.013000
C1071	C107	0.718090	0.806280	0.973910
C1081	C108	0.865690	0.783920	0.094430
C1091	C109	0.470560	0.117860	0.012920
C1101	C110	0.533850	0.158090	0.016320
C1111	C111	0.592970	0.186400	0.071790
C1121	C112	0.652880	0.221530	0.073390
C1131	C113	0.651890	0.225930	0.019360
C1141	C114	0.595070	0.202650	0.969200
C1151	C115	0.533330	0.166230	0.965220
C1161	C116	0.716120	0.253360	0.019740
C1171	C117	0.776360	0.290360	0.075400
C1181	C118	0.831500	0.311930	0.071030
C1191	C119	0.774900	0.268500	0.961800
C1201	C120	0.713380	0.243800	0.959060
C1211	C121	0.318460	0.119790	0.010330
C1221	C122	0.290120	0.166460	0.017140
C1231	C123	0.244580	0.159820	0.963120
C1241	C124	0.213350	0.200350	0.969080
C1251	C125	0.167630	0.193720	0.911810
C1261	C126	0.310510	0.216080	0.081770
C1271	C127	0.529440	0.542360	0.647300
C1281	C128	0.466150	0.482470	0.624240
C1291	C129	0.407030	0.478820	0.593430
C1301	C130	0.347120	0.420510	0.568650
C1311	C131	0.348110	0.367470	0.574040
C1321	C132	0.404930	0.374130	0.607580
C1331	C133	0.466670	0.431890	0.632900
C1341	C134	0.283880	0.303620	0.537240
C1351	C135	0.223640	0.299040	0.514000
C1361	C136	0.168500	0.239530	0.480430
C1371	C137	0.225100	0.186900	0.493600
C1381	C138	0.286620	0.245680	0.530420
C1391	C139	0.681540	0.691870	0.801330
C1401	C140	0.709880	0.727020	0.876340
C1411	C141	0.755420	0.718540	0.915240
C1421	C142	0.786650	0.755730	0.987000
C1431	C143	0.832370	0.744180	0.026090
C1441	C144	0.689490	0.771260	0.905570
C1451	C145	0.647300	0.529440	0.542360
C1461	C146	0.624240	0.466150	0.482470
C1471	C147	0.593430	0.407030	0.478820
C1481	C148	0.568650	0.347120	0.420510
C1491	C149	0.574040	0.348110	0.367470
C1501	C150	0.607580	0.404930	0.374130
C1511	C151	0.632900	0.466670	0.431890
C1521	C152	0.537240	0.283880	0.303620
C1531	C153	0.514000	0.223640	0.299040
C1541	C154	0.480430	0.168500	0.239530
C1551	C155	0.493600	0.225100	0.186900
C1561	C156	0.530420	0.286620	0.245680
C1571	C157	0.801330	0.681540	0.691870
C1581	C158	0.876340	0.709880	0.727020
C1591	C159	0.915240	0.755420	0.718540
C1601	C160	0.987000	0.786650	0.755730
C1611	C161	0.026090	0.832370	0.744180
C1621	C162	0.905570	0.689490	0.771260
C1631	C163	0.012920	0.470560	0.117860
C1641	C164	0.016320	0.533850	0.158090
C1651	C165	0.071790	0.592970	0.186400
C1661	C166	0.073390	0.652880	0.221530
C1671	C167	0.019360	0.651890	0.225930
C1681	C168	0.969200	0.595070	0.202650
C1691	C169	0.965220	0.533330	0.166230
C1701	C170	0.019740	0.716120	0.253360
C1711	C171	0.075400	0.776360	0.290360
C1721	C172	0.071030	0.831500	0.311930
C1731	C173	0.961800	0.774900	0.268500
C1741	C174	0.959060	0.713380	0.243800
C1751	C175	0.010330	0.318460	0.119790
C1761	C176	0.017140	0.290120	0.166460
C1771	C177	0.963120	0.244580	0.159820
C1781	C178	0.969080	0.213350	0.200350
C1791	C179	0.911810	0.167630	0.193720
C1801	C180	0.081770	0.310510	0.216080
C1811	C181	0.352700	0.895060	0.882140
C1821	C182	0.375760	0.858230	0.841910
C1831	C183	0.406570	0.885390	0.813600
C1841	C184	0.431350	0.851860	0.778470
C1851	C185	0.425960	0.793430	0.774070
C1861	C186	0.392420	0.766550	0.797350
C1871	C187	0.367100	0.798990	0.833770
C1881	C188	0.462760	0.766380	0.746640
C1891	C189	0.486000	0.785040	0.709640
C1901	C190	0.519570	0.759100	0.688070
C1911	C191	0.506400	0.693300	0.731500
C1921	C192	0.469580	0.715260	0.756200
C1931	C193	0.198670	0.890540	0.880210
C1941	C194	0.123660	0.850680	0.833540
C1951	C195	0.084760	0.803300	0.840180
C1961	C196	0.013000	0.768730	0.799650
C1971	C197	0.973910	0.718090	0.806280
C1981	C198	0.094430	0.865690	0.783920
C1991	C199	0.987080	0.104940	0.457640
C2001	C200	0.983680	0.141770	0.517530
C2011	C201	0.928210	0.114610	0.521180
C2021	C202	0.926610	0.148140	0.579490
C2031	C203	0.980640	0.206570	0.632530
C2041	C204	0.030800	0.233450	0.625870
C2051	C205	0.034780	0.201010	0.568110
C2061	C206	0.980260	0.233620	0.696380
C2071	C207	0.924600	0.214960	0.700960
C2081	C208	0.928970	0.240900	0.760470
C2091	C209	0.038200	0.306700	0.813100
C2101	C210	0.040940	0.284740	0.754320
C2111	C211	0.989670	0.109460	0.308130
C2121	C212	0.982860	0.149320	0.272980
C2131	C213	0.036880	0.196700	0.281460
C2141	C214	0.030920	0.231270	0.244270
C2151	C215	0.088190	0.281910	0.255820
C2161	C216	0.918230	0.134310	0.228740
N11	N1	0.299670	0.015720	0.833930
N21	N2	0.181790	0.465740	0.166070
N31	N3	0.818210	0.984280	0.283950
N41	N4	0.700330	0.534260	0.716050
N51	N5	0.283950	0.818210	0.984280
N61	N6	0.716050	0.700330	0.534260
N71	N7	0.833930	0.299670	0.015720
N81	N8	0.166070	0.181790	0.465740
N91	N9	0.465740	0.166070	0.181790
N101	N10	0.015720	0.833930	0.299670
N111	N11	0.534260	0.716050	0.700330
N121	N12	0.984280	0.283950	0.818210
O11	O1	0.117240	0.065580	0.476860
O21	O2	0.088090	0.959620	0.419390
O31	O3	0.129960	0.063100	0.359620
O41	O4	0.074480	0.953000	0.295100
O51	O5	0.588720	0.640380	0.523140
O61	O6	0.540230	0.668700	0.580610
O71	O7	0.703480	0.770340	0.640380
O81	O8	0.657900	0.779380	0.704900
O91	O9	0.411280	0.934420	0.051660
O101	O10	0.459770	0.040380	0.128470
O111	O11	0.296520	0.936900	0.066860
O121	O12	0.342100	0.047000	0.121480
O131	O13	0.882760	0.359620	0.948340
O141	O14	0.911910	0.331300	0.871530
O151	O15	0.870040	0.229660	0.933140
O161	O16	0.925520	0.220620	0.878520
O171	O17	0.051660	0.411280	0.934420
O181	O18	0.128470	0.459770	0.040380
O191	O19	0.066860	0.296520	0.936900
O201	O20	0.121480	0.342100	0.047000
O211	O21	0.948340	0.882760	0.359620
O221	O22	0.871530	0.911910	0.331300
O231	O23	0.933140	0.870040	0.229660
O241	O24	0.878520	0.925520	0.220620
O251	O25	0.476860	0.117240	0.065580
O261	O26	0.419390	0.088090	0.959620
O271	O27	0.359620	0.129960	0.063100
O281	O28	0.295100	0.074480	0.953000
O291	O29	0.523140	0.588720	0.640380
O301	O30	0.580610	0.540230	0.668700
O311	O31	0.640380	0.703480	0.770340
O321	O32	0.704900	0.657900	0.779380
O331	O33	0.640380	0.523140	0.588720
O341	O34	0.668700	0.580610	0.540230
O351	O35	0.770340	0.640380	0.703480
O361	O36	0.779380	0.704900	0.657900
O371	O37	0.065580	0.476860	0.117240
O381	O38	0.959620	0.419390	0.088090
O391	O39	0.063100	0.359620	0.129960
O401	O40	0.953000	0.295100	0.074480
O411	O41	0.359620	0.948340	0.882760
O421	O42	0.331300	0.871530	0.911910
O431	O43	0.229660	0.933140	0.870040
O441	O44	0.220620	0.878520	0.925520
O451	O45	0.934420	0.051660	0.411280
O461	O46	0.040380	0.128470	0.459770
O471	O47	0.936900	0.066860	0.296520
O481	O48	0.047000	0.121480	0.342100
O491	O49	0.000000	0.000000	0.348580
O501	O50	0.651420	0.651420	0.651420
O511	O51	0.348580	0.000000	0.000000
O521	O52	0.000000	0.348580	0.000000
