data_KUJNUZ_clean_PM
_symmetry_space_group_name_H-M	'P1'
_cell_length_a	28.472700
_cell_length_b	28.472700
_cell_length_c	28.472700
_cell_angle_alpha	96.529400
_cell_angle_beta	116.305000
_cell_angle_gamma	116.305000
_symmetry_Int_Tables_number 1

loop_
_symmetry_equiv_pos_as_xyz
'x,y,z'

loop_
_atom_site_label
_atom_site_type_symbol
_atom_site_fract_x
_atom_site_fract_y
_atom_site_fract_z
Zn11	Zn1	0.605500	0.539340	0.316620
Zn21	Zn2	0.527780	0.388240	0.276260
Zn31	Zn3	0.488430	0.573320	0.278290
Zn41	Zn4	0.715450	0.606520	0.467730
Zn51	Zn5	0.684520	0.583360	0.242960
Zn61	Zn6	0.105500	0.788880	0.066160
Zn71	Zn7	0.027780	0.751520	0.139540
Zn81	Zn8	0.988430	0.710140	0.915110
Zn91	Zn9	0.215450	0.747720	0.108930
Zn101	Zn10	0.184520	0.941560	0.101160
H11	H1	0.385800	0.205000	0.119000
H21	H2	0.413400	0.220800	0.271400
H31	H3	0.340200	0.124900	0.237100
H41	H4	0.246500	0.602700	0.089600
H51	H5	0.376200	0.735000	0.238000
H61	H6	0.429200	0.691400	0.267600
H71	H7	0.868300	0.690100	0.512000
H81	H8	0.955800	0.743300	0.510100
H91	H9	0.945300	0.740600	0.424700
H101	H10	0.847200	0.684800	0.341200
H111	H11	0.339800	0.462000	0.219200
H121	H12	0.255700	0.369700	0.183200
H131	H13	0.271400	0.296800	0.183200
H141	H14	0.371300	0.316300	0.219400
H151	H15	0.525300	0.681200	0.381500
H161	H16	0.578500	0.750800	0.470100
H171	H17	0.669200	0.765400	0.545800
H181	H18	0.706600	0.710600	0.533000
H191	H19	0.566500	0.326400	0.204100
H201	H20	0.609000	0.315300	0.153900
H211	H21	0.671900	0.392600	0.141900
H221	H22	0.692100	0.481100	0.180000
H231	H23	0.487700	0.647400	0.187300
H241	H24	0.516400	0.695800	0.136200
H251	H25	0.594600	0.702100	0.127500
H261	H26	0.644100	0.660000	0.169900
H271	H27	0.573000	0.345900	0.388500
H281	H28	0.626600	0.348200	0.477400
H291	H29	0.703100	0.433200	0.552500
H301	H30	0.726000	0.515800	0.538600
H311	H31	0.294000	0.068700	0.058100
H321	H32	0.326900	0.124000	0.053500
H331	H33	0.311400	0.529500	0.124900
H341	H34	0.258700	0.530000	0.079700
H351	H35	0.885800	0.766800	0.180800
H361	H36	0.913400	0.642000	0.192600
H371	H37	0.840200	0.603100	0.215300
H381	H38	0.746500	0.656900	0.643800
H391	H39	0.876200	0.638200	0.641200
H401	H40	0.929200	0.661600	0.737800
H411	H41	0.368300	0.856300	0.178200
H421	H42	0.455800	0.945700	0.212500
H431	H43	0.445300	0.020600	0.204700
H441	H44	0.347200	0.006000	0.162400
H451	H45	0.839800	0.620600	0.877800
H461	H46	0.755700	0.572500	0.886000
H471	H47	0.771400	0.588200	0.974600
H481	H48	0.871300	0.651900	0.055000
H491	H49	0.025300	0.643800	0.844100
H501	H50	0.078500	0.608400	0.827700
H511	H51	0.169200	0.623400	0.903800
H521	H52	0.206600	0.673600	0.996000
H531	H53	0.066500	0.862400	0.240100
H541	H54	0.109000	0.955100	0.293700
H551	H55	0.171900	0.030000	0.279300
H561	H56	0.192100	0.012100	0.211000
H571	H57	0.987700	0.800400	0.840300
H581	H58	0.016400	0.880200	0.820600
H591	H59	0.094600	0.967100	0.892500
H601	H60	0.144100	0.974200	0.984100
H611	H61	0.073000	0.684500	0.227100
H621	H62	0.126600	0.649200	0.278400
H631	H63	0.203100	0.650600	0.269900
H641	H64	0.226000	0.687400	0.210200
H651	H65	0.794000	0.735900	0.225300
H661	H66	0.826900	0.773400	0.202900
H671	H67	0.811400	0.686500	0.781900
H681	H68	0.758700	0.679000	0.728700
C11	C1	0.319400	0.107800	0.157600
C21	C2	0.332900	0.131700	0.122400
C31	C3	0.376600	0.188900	0.142900
C41	C4	0.406600	0.222100	0.198500
C51	C5	0.393100	0.198300	0.233800
C61	C6	0.349400	0.141100	0.213300
C71	C7	0.453500	0.282700	0.222600
C81	C8	0.269100	0.042000	0.133900
C91	C9	0.369500	0.621000	0.196300
C101	C10	0.315000	0.594600	0.143200
C111	C11	0.283400	0.620600	0.125600
C121	C12	0.306300	0.673100	0.161000
C131	C13	0.360700	0.699500	0.214000
C141	C14	0.392400	0.673500	0.231700
C151	C15	0.406400	0.593600	0.220000
C161	C16	0.269200	0.695100	0.134300
C171	C17	0.799300	0.654200	0.376900
C181	C18	0.805600	0.655800	0.427800
C191	C19	0.864100	0.689100	0.477600
C201	C20	0.916200	0.720800	0.476400
C211	C21	0.909900	0.719200	0.425500
C221	C22	0.851500	0.685900	0.375800
C231	C23	0.415200	0.400900	0.240900
C241	C24	0.405700	0.444300	0.240800
C251	C25	0.346100	0.432700	0.219200
C261	C26	0.295900	0.377600	0.197700
C271	C27	0.305300	0.334100	0.197800
C281	C28	0.364900	0.345700	0.219400
C291	C29	0.638400	0.663100	0.449500
C301	C30	0.584000	0.654290	0.404090
C311	C31	0.561600	0.687100	0.411900
C321	C32	0.593500	0.728800	0.464900
C331	C33	0.647800	0.737500	0.510300
C341	C34	0.670300	0.704800	0.502700
C351	C35	0.641400	0.456730	0.214930
C361	C36	0.603700	0.410400	0.222100
C371	C37	0.591700	0.357400	0.199300
C381	C38	0.617210	0.350790	0.169200
C391	C39	0.654900	0.397120	0.162020
C401	C40	0.666950	0.450100	0.184850
C411	C41	0.595200	0.628700	0.203700
C421	C42	0.548900	0.625000	0.208900
C431	C43	0.519600	0.650000	0.183800
C441	C44	0.536600	0.678700	0.153500
C451	C45	0.583000	0.682400	0.148400
C461	C46	0.612200	0.657400	0.173400
C471	C47	0.663000	0.479700	0.455300
C481	C48	0.617700	0.429400	0.410900
C491	C49	0.604200	0.380500	0.419100
C501	C50	0.636000	0.382000	0.471800
C511	C51	0.681200	0.432200	0.516200
C521	C52	0.694800	0.481200	0.508000
C531	C53	0.819400	0.661800	0.211600
C541	C54	0.832900	0.710500	0.201200
C551	C55	0.876600	0.733700	0.187700
C561	C56	0.906600	0.708100	0.184500
C571	C57	0.893100	0.659300	0.194800
C581	C58	0.849400	0.636100	0.208300
C591	C59	0.953500	0.730900	0.170800
C601	C60	0.769100	0.635200	0.227100
C611	C61	0.869500	0.673200	0.748500
C621	C62	0.815000	0.671800	0.720400
C631	C63	0.783400	0.657800	0.662800
C641	C64	0.806300	0.645300	0.633200
C651	C65	0.860700	0.646700	0.661200
C661	C66	0.892400	0.660700	0.718900
C671	C67	0.906400	0.686400	0.812800
C681	C68	0.769200	0.634900	0.574100
C691	C69	0.299300	0.922400	0.145100
C701	C70	0.305600	0.877800	0.149800
C711	C71	0.364100	0.886500	0.175000
C721	C72	0.416200	0.939800	0.195400
C731	C73	0.409900	0.984400	0.190700
C741	C74	0.351500	0.975700	0.165600
C751	C75	0.915200	0.674300	0.014300
C761	C76	0.905700	0.664900	0.961400
C771	C77	0.846100	0.626900	0.913400
C781	C78	0.795900	0.598200	0.918300
C791	C79	0.805300	0.607500	0.971200
C801	C80	0.864900	0.645500	0.019200
C811	C81	0.138400	0.688900	0.975300
C821	C82	0.084000	0.679910	0.929710
C831	C83	0.061600	0.649700	0.874500
C841	C84	0.093500	0.628600	0.864700
C851	C85	0.147800	0.637500	0.910300
C861	C86	0.170300	0.667600	0.965500
C871	C87	0.141400	0.926470	0.184670
C881	C88	0.103700	0.881600	0.193300
C891	C89	0.091700	0.892400	0.234300
C901	C90	0.117210	0.948010	0.266420
C911	C91	0.154900	0.992880	0.257780
C921	C92	0.166950	0.982100	0.216850
C931	C93	0.095200	0.891500	0.966500
C941	C94	0.048900	0.840000	0.923900
C951	C95	0.019600	0.835800	0.869600
C961	C96	0.036600	0.883100	0.857900
C971	C97	0.083000	0.934600	0.900600
C981	C98	0.112200	0.938800	0.954800
C991	C99	0.163000	0.707700	0.183300
C1001	C100	0.117700	0.706800	0.188300
C1011	C101	0.104200	0.685100	0.223700
C1021	C102	0.136000	0.664200	0.254000
C1031	C103	0.181200	0.665000	0.249000
C1041	C104	0.194800	0.686800	0.213600
N11	N1	0.736800	0.617600	0.334600
N21	N2	0.707700	0.599900	0.359800
N31	N3	0.748400	0.622900	0.416900
N41	N4	0.475900	0.420900	0.260400
N51	N5	0.503900	0.476500	0.275000
N61	N6	0.463300	0.491100	0.263000
N71	N7	0.651100	0.625400	0.431700
N81	N8	0.606000	0.596600	0.376200
N91	N9	0.566700	0.613900	0.359800
N101	N10	0.642700	0.501600	0.240500
N111	N11	0.608600	0.481300	0.262300
N121	N12	0.584300	0.426400	0.251300
N131	N13	0.618700	0.601600	0.233500
N141	N14	0.586900	0.580700	0.257400
N151	N15	0.543100	0.592500	0.242400
N161	N16	0.664500	0.519900	0.434200
N171	N17	0.621300	0.493600	0.377700
N181	N18	0.591100	0.437600	0.361300
N191	N19	0.316100	0.105200	0.072500
N201	N20	0.292900	0.546600	0.112900
N211	N21	0.236800	0.902200	0.119200
N221	N22	0.207700	0.847900	0.107800
N231	N23	0.248400	0.831500	0.125500
N241	N24	0.975900	0.715500	0.055000
N251	N25	0.003900	0.728900	0.027400
N261	N26	0.963300	0.700300	0.972200
N271	N27	0.151100	0.719400	0.025700
N281	N28	0.106000	0.729800	0.009400
N291	N29	0.066700	0.706900	0.952800
N301	N30	0.142700	0.902200	0.141100
N311	N31	0.108600	0.846300	0.127300
N321	N32	0.084300	0.833000	0.157900
N331	N33	0.118700	0.885200	0.017100
N341	N34	0.086900	0.829500	0.006200
N351	N35	0.043100	0.800700	0.950600
N361	N36	0.164500	0.730300	0.144600
N371	N37	0.121300	0.743600	0.127700
N381	N38	0.091100	0.729800	0.153500
N391	N39	0.816100	0.743600	0.210900
N401	N40	0.792900	0.680000	0.746300
O11	O1	0.483100	0.310300	0.276400
O21	O2	0.459600	0.309000	0.193800
O31	O3	0.255800	0.022500	0.166500
O41	O4	0.242800	0.010200	0.084000
O51	O5	0.459400	0.626100	0.269500
O61	O6	0.389900	0.546200	0.193100
O71	O7	0.293700	0.747400	0.161700
O81	O8	0.214800	0.669100	0.093700
O91	O9	0.983100	0.706700	0.172800
O101	O10	0.959600	0.765800	0.150600
O111	O11	0.755800	0.589300	0.233300
O121	O12	0.742800	0.658800	0.232600
O131	O13	0.959400	0.689900	0.833300
O141	O14	0.889900	0.696800	0.843700
O151	O15	0.793700	0.632000	0.546300
O161	O16	0.714800	0.621100	0.545700
Zn111	Zn11	0.894500	0.211120	0.933840
Zn121	Zn12	0.972220	0.248480	0.860460
Zn131	Zn13	0.011570	0.289860	0.084890
Zn141	Zn14	0.784550	0.252280	0.891070
Zn151	Zn15	0.815480	0.058440	0.898840
Zn161	Zn16	0.394500	0.460660	0.683380
Zn171	Zn17	0.472220	0.611760	0.723740
Zn181	Zn18	0.511570	0.426680	0.721710
Zn191	Zn19	0.284550	0.393480	0.532270
Zn201	Zn20	0.315480	0.416640	0.757040
H691	H69	0.114200	0.233200	0.819200
H701	H70	0.086600	0.358000	0.807400
H711	H71	0.159800	0.396900	0.784700
H721	H72	0.253500	0.343100	0.356200
H731	H73	0.123800	0.361800	0.358800
H741	H74	0.070800	0.338400	0.262200
H751	H75	0.631700	0.143700	0.821800
H761	H76	0.544200	0.054300	0.787500
H771	H77	0.554700	0.979400	0.795300
H781	H78	0.652800	0.994000	0.837600
H791	H79	0.160200	0.379400	0.122200
H801	H80	0.244300	0.427500	0.114000
H811	H81	0.228600	0.411800	0.025400
H821	H82	0.128700	0.348100	0.945000
H831	H83	0.974700	0.356200	0.155900
H841	H84	0.921500	0.391600	0.172300
H851	H85	0.830800	0.376600	0.096200
H861	H86	0.793400	0.326400	0.004000
H871	H87	0.933500	0.137600	0.759900
H881	H88	0.891000	0.044900	0.706300
H891	H89	0.828100	0.970000	0.720700
H901	H90	0.807900	0.987900	0.789000
H911	H91	0.012300	0.199600	0.159700
H921	H92	0.983600	0.119800	0.179400
H931	H93	0.905400	0.032900	0.107500
H941	H94	0.855900	0.025800	0.015900
H951	H95	0.927000	0.315500	0.772900
H961	H96	0.873400	0.350800	0.721600
H971	H97	0.796900	0.349400	0.730100
H981	H98	0.774000	0.312600	0.789800
H991	H99	0.206000	0.264100	0.774700
H1001	H100	0.173100	0.226600	0.797100
H1011	H101	0.188600	0.313500	0.218100
H1021	H102	0.241300	0.321000	0.271300
H1031	H103	0.614200	0.795000	0.881000
H1041	H104	0.586600	0.779200	0.728600
H1051	H105	0.659800	0.875100	0.762900
H1061	H106	0.753500	0.397300	0.910400
H1071	H107	0.623800	0.265000	0.762000
H1081	H108	0.570800	0.308600	0.732400
H1091	H109	0.131700	0.309900	0.488000
H1101	H110	0.044200	0.256700	0.489900
H1111	H111	0.054700	0.259400	0.575300
H1121	H112	0.152800	0.315200	0.658800
H1131	H113	0.660200	0.538000	0.780800
H1141	H114	0.744300	0.630300	0.816800
H1151	H115	0.728600	0.703200	0.816800
H1161	H116	0.628700	0.683700	0.780600
H1171	H117	0.474700	0.318800	0.618500
H1181	H118	0.421500	0.249200	0.529900
H1191	H119	0.330800	0.234600	0.454200
H1201	H120	0.293400	0.289400	0.467000
H1211	H121	0.433500	0.673600	0.795900
H1221	H122	0.391000	0.684700	0.846100
H1231	H123	0.328100	0.607400	0.858100
H1241	H124	0.307900	0.518900	0.820000
H1251	H125	0.512300	0.352600	0.812700
H1261	H126	0.483600	0.304200	0.863800
H1271	H127	0.405400	0.297900	0.872500
H1281	H128	0.355900	0.340000	0.830100
H1291	H129	0.427000	0.654100	0.611500
H1301	H130	0.373400	0.651800	0.522600
H1311	H131	0.296900	0.566800	0.447500
H1321	H132	0.274000	0.484200	0.461400
H1331	H133	0.706000	0.931300	0.941900
H1341	H134	0.673100	0.876000	0.946500
H1351	H135	0.688600	0.470500	0.875100
H1361	H136	0.741300	0.470000	0.920300
C1051	C105	0.180600	0.338200	0.788400
C1061	C106	0.167100	0.289500	0.798800
C1071	C107	0.123400	0.266300	0.812300
C1081	C108	0.093400	0.291900	0.815500
C1091	C109	0.106900	0.340700	0.805200
C1101	C110	0.150600	0.363900	0.791700
C1111	C111	0.046500	0.269100	0.829200
C1121	C112	0.230900	0.364800	0.772900
C1131	C113	0.130500	0.326800	0.251500
C1141	C114	0.185000	0.328200	0.279600
C1151	C115	0.216600	0.342200	0.337200
C1161	C116	0.193700	0.354700	0.366800
C1171	C117	0.139300	0.353300	0.338800
C1181	C118	0.107600	0.339300	0.281100
C1191	C119	0.093600	0.313600	0.187200
C1201	C120	0.230800	0.365100	0.425900
C1211	C121	0.700700	0.077600	0.854900
C1221	C122	0.694400	0.122200	0.850200
C1231	C123	0.635900	0.113500	0.825000
C1241	C124	0.583800	0.060200	0.804600
C1251	C125	0.590100	0.015600	0.809300
C1261	C126	0.648500	0.024300	0.834400
C1271	C127	0.084800	0.325700	0.985700
C1281	C128	0.094300	0.335100	0.038600
C1291	C129	0.153900	0.373100	0.086600
C1301	C130	0.204100	0.401800	0.081700
C1311	C131	0.194700	0.392500	0.028800
C1321	C132	0.135100	0.354500	0.980800
C1331	C133	0.861600	0.311100	0.024700
C1341	C134	0.916000	0.320090	0.070290
C1351	C135	0.938400	0.350300	0.125500
C1361	C136	0.906500	0.371400	0.135300
C1371	C137	0.852200	0.362500	0.089700
C1381	C138	0.829700	0.332400	0.034500
C1391	C139	0.858600	0.073530	0.815330
C1401	C140	0.896300	0.118400	0.806700
C1411	C141	0.908300	0.107600	0.765700
C1421	C142	0.882790	0.051990	0.733580
C1431	C143	0.845100	0.007120	0.742220
C1441	C144	0.833050	0.017900	0.783150
C1451	C145	0.904800	0.108500	0.033500
C1461	C146	0.951100	0.160000	0.076100
C1471	C147	0.980400	0.164200	0.130400
C1481	C148	0.963400	0.116900	0.142100
C1491	C149	0.917000	0.065400	0.099400
C1501	C150	0.887800	0.061200	0.045200
C1511	C151	0.837000	0.292300	0.816700
C1521	C152	0.882300	0.293200	0.811700
C1531	C153	0.895800	0.314900	0.776300
C1541	C154	0.864000	0.335800	0.746000
C1551	C155	0.818800	0.335000	0.751000
C1561	C156	0.805200	0.313200	0.786400
C1571	C157	0.680600	0.892200	0.842400
C1581	C158	0.667100	0.868300	0.877600
C1591	C159	0.623400	0.811100	0.857100
C1601	C160	0.593400	0.777900	0.801500
C1611	C161	0.606900	0.801700	0.766200
C1621	C162	0.650600	0.858900	0.786700
C1631	C163	0.546500	0.717300	0.777400
C1641	C164	0.730900	0.958000	0.866100
C1651	C165	0.630500	0.379000	0.803700
C1661	C166	0.685000	0.405400	0.856800
C1671	C167	0.716600	0.379400	0.874400
C1681	C168	0.693700	0.326900	0.839000
C1691	C169	0.639300	0.300500	0.786000
C1701	C170	0.607600	0.326500	0.768300
C1711	C171	0.593600	0.406400	0.780000
C1721	C172	0.730800	0.304900	0.865700
C1731	C173	0.200700	0.345800	0.623100
C1741	C174	0.194400	0.344200	0.572200
C1751	C175	0.135900	0.310900	0.522400
C1761	C176	0.083800	0.279200	0.523600
C1771	C177	0.090100	0.280800	0.574500
C1781	C178	0.148500	0.314100	0.624200
C1791	C179	0.584800	0.599100	0.759100
C1801	C180	0.594300	0.555700	0.759200
C1811	C181	0.653900	0.567300	0.780800
C1821	C182	0.704100	0.622400	0.802300
C1831	C183	0.694700	0.665900	0.802200
C1841	C184	0.635100	0.654300	0.780600
C1851	C185	0.361600	0.336900	0.550500
C1861	C186	0.416000	0.345710	0.595910
C1871	C187	0.438400	0.312900	0.588100
C1881	C188	0.406500	0.271200	0.535100
C1891	C189	0.352200	0.262500	0.489700
C1901	C190	0.329700	0.295200	0.497300
C1911	C191	0.358600	0.543270	0.785070
C1921	C192	0.396300	0.589600	0.777900
C1931	C193	0.408300	0.642600	0.800700
C1941	C194	0.382790	0.649210	0.830800
C1951	C195	0.345100	0.602880	0.837980
C1961	C196	0.333050	0.549900	0.815150
C1971	C197	0.404800	0.371300	0.796300
C1981	C198	0.451100	0.375000	0.791100
C1991	C199	0.480400	0.350000	0.816200
C2001	C200	0.463400	0.321300	0.846500
C2011	C201	0.417000	0.317600	0.851600
C2021	C202	0.387800	0.342600	0.826600
C2031	C203	0.337000	0.520300	0.544700
C2041	C204	0.382300	0.570600	0.589100
C2051	C205	0.395800	0.619500	0.580900
C2061	C206	0.364000	0.618000	0.528200
C2071	C207	0.318800	0.567800	0.483800
C2081	C208	0.305200	0.518800	0.492000
N411	N41	0.763200	0.097800	0.880800
N421	N42	0.792300	0.152100	0.892200
N431	N43	0.751600	0.168500	0.874500
N441	N44	0.024100	0.284500	0.945000
N451	N45	0.996100	0.271100	0.972600
N461	N46	0.036700	0.299700	0.027800
N471	N47	0.848900	0.280600	0.974300
N481	N48	0.894000	0.270200	0.990600
N491	N49	0.933300	0.293100	0.047200
N501	N50	0.857300	0.097800	0.858900
N511	N51	0.891400	0.153700	0.872700
N521	N52	0.915700	0.167000	0.842100
N531	N53	0.881300	0.114800	0.982900
N541	N54	0.913100	0.170500	0.993800
N551	N55	0.956900	0.199300	0.049400
N561	N56	0.835500	0.269700	0.855400
N571	N57	0.878700	0.256400	0.872300
N581	N58	0.908900	0.270200	0.846500
N591	N59	0.183900	0.256400	0.789100
N601	N60	0.207100	0.320000	0.253700
N611	N61	0.263200	0.382400	0.665400
N621	N62	0.292300	0.400100	0.640200
N631	N63	0.251600	0.377100	0.583100
N641	N64	0.524100	0.579100	0.739600
N651	N65	0.496100	0.523500	0.725000
N661	N66	0.536700	0.508900	0.737000
N671	N67	0.348900	0.374600	0.568300
N681	N68	0.394000	0.403400	0.623800
N691	N69	0.433300	0.386100	0.640200
N701	N70	0.357300	0.498400	0.759500
N711	N71	0.391400	0.518700	0.737700
N721	N72	0.415700	0.573600	0.748700
N731	N73	0.381300	0.398400	0.766500
N741	N74	0.413100	0.419300	0.742600
N751	N75	0.456900	0.407500	0.757600
N761	N76	0.335500	0.480100	0.565800
N771	N77	0.378700	0.506400	0.622300
N781	N78	0.408900	0.562400	0.638700
N791	N79	0.683900	0.894800	0.927500
N801	N80	0.707100	0.453400	0.887100
O171	O17	0.016900	0.293300	0.827200
O181	O18	0.040400	0.234200	0.849400
O191	O19	0.244200	0.410700	0.766700
O201	O20	0.257200	0.341200	0.767400
O211	O21	0.040600	0.310100	0.166700
O221	O22	0.110100	0.303200	0.156300
O231	O23	0.206300	0.368000	0.453700
O241	O24	0.285200	0.378900	0.454300
O251	O25	0.516900	0.689700	0.723600
O261	O26	0.540400	0.691000	0.806200
O271	O27	0.744200	0.977500	0.833500
O281	O28	0.757200	0.989800	0.916000
O291	O29	0.540600	0.373900	0.730500
O301	O30	0.610100	0.453800	0.806900
O311	O31	0.706300	0.252600	0.838300
O321	O32	0.785200	0.330900	0.906300
Zn211	Zn21	0.777280	0.316620	0.211120
Zn221	Zn22	0.888020	0.276260	0.248480
Zn231	Zn23	0.704970	0.278290	0.289860
Zn241	Zn24	0.861210	0.467730	0.252280
Zn251	Zn25	0.659600	0.242960	0.058440
Zn261	Zn26	0.277280	0.066160	0.460660
Zn271	Zn27	0.388020	0.139540	0.611760
Zn281	Zn28	0.204970	0.915110	0.426680
Zn291	Zn29	0.361210	0.108930	0.393480
Zn301	Zn30	0.159600	0.101160	0.416640
H1371	H137	0.914000	0.119000	0.233200
H1381	H138	0.050600	0.271400	0.358000
H1391	H139	0.112200	0.237100	0.396900
H1401	H140	0.486900	0.089600	0.343100
H1411	H141	0.503000	0.238000	0.361800
H1421	H142	0.576200	0.267600	0.338400
H1431	H143	0.821900	0.512000	0.143700
H1441	H144	0.766800	0.510100	0.054300
H1451	H145	0.684100	0.424700	0.979400
H1461	H146	0.656400	0.341200	0.994000
H1471	H147	0.757200	0.219200	0.379400
H1481	H148	0.813500	0.183200	0.427500
H1491	H149	0.886400	0.183200	0.411800
H1501	H150	0.903100	0.219400	0.348100
H1511	H151	0.700300	0.381500	0.356200
H1521	H152	0.719300	0.470100	0.391600
H1531	H153	0.780400	0.545800	0.376600
H1541	H154	0.822400	0.533000	0.326400
H1551	H155	0.877700	0.204100	0.137600
H1561	H156	0.838600	0.153900	0.044900
H1571	H157	0.749300	0.141900	0.970000
H1581	H158	0.698900	0.180000	0.987900
H1591	H159	0.539900	0.187300	0.199600
H1601	H160	0.440400	0.136200	0.119800
H1611	H161	0.425400	0.127500	0.032900
H1621	H162	0.509900	0.169900	0.025800
H1631	H163	0.042600	0.388500	0.315500
H1641	H164	0.129200	0.477400	0.350800
H1651	H165	0.119300	0.552500	0.349400
H1661	H166	0.022800	0.538600	0.312600
H1671	H167	0.989400	0.058100	0.264100
H1681	H168	0.929500	0.053500	0.226600
H1691	H169	0.595400	0.124900	0.313500
H1701	H170	0.549700	0.079700	0.321000
H1711	H171	0.414000	0.180800	0.795000
H1721	H172	0.550600	0.192600	0.779200
H1731	H173	0.612200	0.215300	0.875100
H1741	H174	0.986900	0.643800	0.397300
H1751	H175	0.003000	0.641200	0.265000
H1761	H176	0.076200	0.737800	0.308600
H1771	H177	0.321900	0.178200	0.309900
H1781	H178	0.266800	0.212500	0.256700
H1791	H179	0.184100	0.204700	0.259400
H1801	H180	0.156400	0.162400	0.315200
H1811	H181	0.257200	0.877800	0.538000
H1821	H182	0.313500	0.886000	0.630300
H1831	H183	0.386400	0.974600	0.703200
H1841	H184	0.403100	0.055000	0.683700
H1851	H185	0.200300	0.844100	0.318800
H1861	H186	0.219300	0.827700	0.249200
H1871	H187	0.280400	0.903800	0.234600
H1881	H188	0.322400	0.996000	0.289400
H1891	H189	0.377700	0.240100	0.673600
H1901	H190	0.338600	0.293700	0.684700
H1911	H191	0.249300	0.279300	0.607400
H1921	H192	0.198900	0.211000	0.518900
H1931	H193	0.039900	0.840300	0.352600
H1941	H194	0.940400	0.820600	0.304200
H1951	H195	0.925400	0.892500	0.297900
H1961	H196	0.009900	0.984100	0.340000
H1971	H197	0.542600	0.227100	0.654100
H1981	H198	0.629200	0.278400	0.651800
H1991	H199	0.619300	0.269900	0.566800
H2001	H200	0.522800	0.210200	0.484200
H2011	H201	0.489400	0.225300	0.931300
H2021	H202	0.429500	0.202900	0.876000
H2031	H203	0.095400	0.781900	0.470500
H2041	H204	0.049700	0.728700	0.470000
C2091	C209	0.049800	0.157600	0.338200
C2101	C210	0.990700	0.122400	0.289500
C2111	C211	0.954000	0.142900	0.266300
C2121	C212	0.976400	0.198500	0.291900
C2131	C213	0.035500	0.233800	0.340700
C2141	C214	0.072200	0.213300	0.363900
C2151	C215	0.939900	0.222600	0.269100
C2161	C216	0.091900	0.133900	0.364800
C2171	C217	0.575300	0.196300	0.326800
C2181	C218	0.548600	0.143200	0.328200
C2191	C219	0.505000	0.125600	0.342200
C2201	C220	0.487900	0.161000	0.354700
C2211	C221	0.514500	0.214000	0.353300
C2221	C222	0.558200	0.231700	0.339300
C2231	C223	0.626400	0.220000	0.313600
C2241	C224	0.439200	0.134300	0.365100
C2251	C225	0.722700	0.376900	0.077600
C2261	C226	0.772000	0.427800	0.122200
C2271	C227	0.788500	0.477600	0.113500
C2281	C228	0.755600	0.476400	0.060200
C2291	C229	0.706300	0.425500	0.015600
C2301	C230	0.689900	0.375800	0.024300
C2311	C231	0.840000	0.240900	0.325700
C2321	C232	0.796500	0.240800	0.335100
C2331	C233	0.786500	0.219200	0.373100
C2341	C234	0.820100	0.197700	0.401800
C2351	C235	0.863700	0.197800	0.392500
C2361	C236	0.873700	0.219400	0.354500
C2371	C237	0.786400	0.449500	0.311100
C2381	C238	0.749800	0.404090	0.320090
C2391	C239	0.724800	0.411900	0.350300
C2401	C240	0.736100	0.464900	0.371400
C2411	C241	0.772800	0.510300	0.362500
C2421	C242	0.797900	0.502700	0.332400
C2431	C243	0.758200	0.214930	0.073530
C2441	C244	0.811700	0.222100	0.118400
C2451	C245	0.841900	0.199300	0.107600
C2461	C246	0.818410	0.169200	0.051990
C2471	C247	0.764900	0.162020	0.007120
C2481	C248	0.734750	0.184850	0.017900
C2491	C249	0.575000	0.203700	0.108500
C2501	C250	0.583900	0.208900	0.160000
C2511	C251	0.533800	0.183800	0.164200
C2521	C252	0.474800	0.153500	0.116900
C2531	C253	0.466000	0.148400	0.065400
C2541	C254	0.516000	0.173400	0.061200
C2551	C255	0.975600	0.455300	0.292300
C2561	C256	0.981500	0.410900	0.293200
C2571	C257	0.038600	0.419100	0.314900
C2581	C258	0.089800	0.471800	0.335800
C2591	C259	0.084000	0.516200	0.335000
C2601	C260	0.026800	0.508000	0.313200
C2611	C261	0.549800	0.211600	0.892200
C2621	C262	0.490700	0.201200	0.868300
C2631	C263	0.454000	0.187700	0.811100
C2641	C264	0.476400	0.184500	0.777900
C2651	C265	0.535500	0.194800	0.801700
C2661	C266	0.572200	0.208300	0.858900
C2671	C267	0.439900	0.170800	0.717300
C2681	C268	0.591900	0.227100	0.958000
C2691	C269	0.075300	0.748500	0.379000
C2701	C270	0.048600	0.720400	0.405400
C2711	C271	0.005000	0.662800	0.379400
C2721	C272	0.987900	0.633200	0.326900
C2731	C273	0.014500	0.661200	0.300500
C2741	C274	0.058200	0.718900	0.326500
C2751	C275	0.126400	0.812800	0.406400
C2761	C276	0.939200	0.574100	0.304900
C2771	C277	0.222700	0.145100	0.345800
C2781	C278	0.272000	0.149800	0.344200
C2791	C279	0.288500	0.175000	0.310900
C2801	C280	0.255600	0.195400	0.279200
C2811	C281	0.206300	0.190700	0.280800
C2821	C282	0.189900	0.165600	0.314100
C2831	C283	0.340000	0.014300	0.599100
C2841	C284	0.296500	0.961400	0.555700
C2851	C285	0.286500	0.913400	0.567300
C2861	C286	0.320100	0.918300	0.622400
C2871	C287	0.363700	0.971200	0.665900
C2881	C288	0.373700	0.019200	0.654300
C2891	C289	0.286400	0.975300	0.336900
C2901	C290	0.249800	0.929710	0.345710
C2911	C291	0.224800	0.874500	0.312900
C2921	C292	0.236100	0.864700	0.271200
C2931	C293	0.272800	0.910300	0.262500
C2941	C294	0.297900	0.965500	0.295200
C2951	C295	0.258200	0.184670	0.543270
C2961	C296	0.311700	0.193300	0.589600
C2971	C297	0.341900	0.234300	0.642600
C2981	C298	0.318410	0.266420	0.649210
C2991	C299	0.264900	0.257780	0.602880
C3001	C300	0.234750	0.216850	0.549900
C3011	C301	0.075000	0.966500	0.371300
C3021	C302	0.083900	0.923900	0.375000
C3031	C303	0.033800	0.869600	0.350000
C3041	C304	0.974800	0.857900	0.321300
C3051	C305	0.966000	0.900600	0.317600
C3061	C306	0.016000	0.954800	0.342600
C3071	C307	0.475600	0.183300	0.520300
C3081	C308	0.481500	0.188300	0.570600
C3091	C309	0.538600	0.223700	0.619500
C3101	C310	0.589800	0.254000	0.618000
C3111	C311	0.584000	0.249000	0.567800
C3121	C312	0.526800	0.213600	0.518800
N811	N81	0.717000	0.334600	0.097800
N821	N82	0.759900	0.359800	0.152100
N831	N83	0.794000	0.416900	0.168500
N841	N84	0.839500	0.260400	0.284500
N851	N85	0.798500	0.275000	0.271100
N861	N86	0.771900	0.263000	0.299700
N871	N87	0.806300	0.431700	0.280600
N881	N88	0.779600	0.376200	0.270200
N891	N89	0.745900	0.359800	0.293100
N901	N90	0.738900	0.240500	0.097800
N911	N91	0.781000	0.262300	0.153700
N921	N92	0.824900	0.251300	0.167000
N931	N93	0.631900	0.233500	0.114800
N941	N94	0.676700	0.257400	0.170500
N951	N95	0.649900	0.242400	0.199300
N961	N96	0.914300	0.434200	0.269700
N971	N97	0.884100	0.377700	0.256400
N981	N98	0.923700	0.361300	0.270200
N991	N99	0.967300	0.072500	0.256400
N1001	N100	0.566300	0.112900	0.320000
N1011	N101	0.217000	0.119200	0.382400
N1021	N102	0.259900	0.107800	0.400100
N1031	N103	0.294000	0.125500	0.377100
N1041	N104	0.339500	0.055000	0.579100
N1051	N105	0.298500	0.027400	0.523500
N1061	N106	0.271900	0.972200	0.508900
N1071	N107	0.306300	0.025700	0.374600
N1081	N108	0.279600	0.009400	0.403400
N1091	N109	0.245900	0.952800	0.386100
N1101	N110	0.238900	0.141100	0.498400
N1111	N111	0.281000	0.127300	0.518700
N1121	N112	0.324900	0.157900	0.573600
N1131	N113	0.131900	0.017100	0.398400
N1141	N114	0.176700	0.006200	0.419300
N1151	N115	0.149900	0.950600	0.407500
N1161	N116	0.414300	0.144600	0.480100
N1171	N117	0.384100	0.127700	0.506400
N1181	N118	0.423700	0.153500	0.562400
N1191	N119	0.467300	0.210900	0.894800
N1201	N120	0.066300	0.746300	0.453400
O331	O33	0.966100	0.276400	0.293300
O341	O34	0.884800	0.193800	0.234200
O351	O35	0.144000	0.166500	0.410700
O361	O36	0.073800	0.084000	0.341200
O371	O37	0.643400	0.269500	0.310100
O381	O38	0.646900	0.193100	0.303200
O391	O39	0.414300	0.161700	0.368000
O401	O40	0.424600	0.093700	0.378900
O411	O41	0.466100	0.172800	0.689700
O421	O42	0.384800	0.150600	0.691000
O431	O43	0.644000	0.233300	0.977500
O441	O44	0.573800	0.232600	0.989800
O451	O45	0.143400	0.833300	0.373900
O461	O46	0.146900	0.843700	0.453800
O471	O47	0.914300	0.546300	0.252600
O481	O48	0.924600	0.545700	0.330900
Zn311	Zn31	0.722720	0.933840	0.539340
Zn321	Zn32	0.611980	0.860460	0.388240
Zn331	Zn33	0.795030	0.084890	0.573320
Zn341	Zn34	0.638790	0.891070	0.606520
Zn351	Zn35	0.840400	0.898840	0.583360
Zn361	Zn36	0.222720	0.683380	0.788880
Zn371	Zn37	0.111980	0.723740	0.751520
Zn381	Zn38	0.295030	0.721710	0.710140
Zn391	Zn39	0.138790	0.532270	0.747720
Zn401	Zn40	0.340400	0.757040	0.941560
H2051	H205	0.586000	0.819200	0.205000
H2061	H206	0.449400	0.807400	0.220800
H2071	H207	0.387800	0.784700	0.124900
H2081	H208	0.013100	0.356200	0.602700
H2091	H209	0.997000	0.358800	0.735000
H2101	H210	0.923800	0.262200	0.691400
H2111	H211	0.678100	0.821800	0.690100
H2121	H212	0.733200	0.787500	0.743300
H2131	H213	0.815900	0.795300	0.740600
H2141	H214	0.843600	0.837600	0.684800
H2151	H215	0.742800	0.122200	0.462000
H2161	H216	0.686500	0.114000	0.369700
H2171	H217	0.613600	0.025400	0.296800
H2181	H218	0.596900	0.945000	0.316300
H2191	H219	0.799700	0.155900	0.681200
H2201	H220	0.780700	0.172300	0.750800
H2211	H221	0.719600	0.096200	0.765400
H2221	H222	0.677600	0.004000	0.710600
H2231	H223	0.622300	0.759900	0.326400
H2241	H224	0.661400	0.706300	0.315300
H2251	H225	0.750700	0.720700	0.392600
H2261	H226	0.801100	0.789000	0.481100
H2271	H227	0.960100	0.159700	0.647400
H2281	H228	0.059600	0.179400	0.695800
H2291	H229	0.074600	0.107500	0.702100
H2301	H230	0.990100	0.015900	0.660000
H2311	H231	0.457400	0.772900	0.345900
H2321	H232	0.370800	0.721600	0.348200
H2331	H233	0.380700	0.730100	0.433200
H2341	H234	0.477200	0.789800	0.515800
H2351	H235	0.510600	0.774700	0.068700
H2361	H236	0.570500	0.797100	0.124000
H2371	H237	0.904600	0.218100	0.529500
H2381	H238	0.950300	0.271300	0.530000
H2391	H239	0.086000	0.881000	0.766800
H2401	H240	0.949400	0.728600	0.642000
H2411	H241	0.887800	0.762900	0.603100
H2421	H242	0.513100	0.910400	0.656900
H2431	H243	0.497000	0.762000	0.638200
H2441	H244	0.423800	0.732400	0.661600
H2451	H245	0.178100	0.488000	0.856300
H2461	H246	0.233200	0.489900	0.945700
H2471	H247	0.315900	0.575300	0.020600
H2481	H248	0.343600	0.658800	0.006000
H2491	H249	0.242800	0.780800	0.620600
H2501	H250	0.186500	0.816800	0.572500
H2511	H251	0.113600	0.816800	0.588200
H2521	H252	0.096900	0.780600	0.651900
H2531	H253	0.299700	0.618500	0.643800
H2541	H254	0.280700	0.529900	0.608400
H2551	H255	0.219600	0.454200	0.623400
H2561	H256	0.177600	0.467000	0.673600
H2571	H257	0.122300	0.795900	0.862400
H2581	H258	0.161400	0.846100	0.955100
H2591	H259	0.250700	0.858100	0.030000
H2601	H260	0.301100	0.820000	0.012100
H2611	H261	0.460100	0.812700	0.800400
H2621	H262	0.559600	0.863800	0.880200
H2631	H263	0.574600	0.872500	0.967100
H2641	H264	0.490100	0.830100	0.974200
H2651	H265	0.957400	0.611500	0.684500
H2661	H266	0.870800	0.522600	0.649200
H2671	H267	0.880700	0.447500	0.650600
H2681	H268	0.977200	0.461400	0.687400
H2691	H269	0.010600	0.941900	0.735900
H2701	H270	0.070500	0.946500	0.773400
H2711	H271	0.404600	0.875100	0.686500
H2721	H272	0.450300	0.920300	0.679000
C3131	C313	0.450200	0.788400	0.107800
C3141	C314	0.509300	0.798800	0.131700
C3151	C315	0.546000	0.812300	0.188900
C3161	C316	0.523600	0.815500	0.222100
C3171	C317	0.464500	0.805200	0.198300
C3181	C318	0.427800	0.791700	0.141100
C3191	C319	0.560100	0.829200	0.282700
C3201	C320	0.408100	0.772900	0.042000
C3211	C321	0.924700	0.251500	0.621000
C3221	C322	0.951400	0.279600	0.594600
C3231	C323	0.995000	0.337200	0.620600
C3241	C324	0.012100	0.366800	0.673100
C3251	C325	0.985500	0.338800	0.699500
C3261	C326	0.941800	0.281100	0.673500
C3271	C327	0.873600	0.187200	0.593600
C3281	C328	0.060800	0.425900	0.695100
C3291	C329	0.777300	0.854900	0.654200
C3301	C330	0.728000	0.850200	0.655800
C3311	C331	0.711500	0.825000	0.689100
C3321	C332	0.744400	0.804600	0.720800
C3331	C333	0.793700	0.809300	0.719200
C3341	C334	0.810100	0.834400	0.685900
C3351	C335	0.660000	0.985700	0.400900
C3361	C336	0.703500	0.038600	0.444300
C3371	C337	0.713500	0.086600	0.432700
C3381	C338	0.679900	0.081700	0.377600
C3391	C339	0.636300	0.028800	0.334100
C3401	C340	0.626300	0.980800	0.345700
C3411	C341	0.713600	0.024700	0.663100
C3421	C342	0.750200	0.070290	0.654290
C3431	C343	0.775200	0.125500	0.687100
C3441	C344	0.763900	0.135300	0.728800
C3451	C345	0.727200	0.089700	0.737500
C3461	C346	0.702100	0.034500	0.704800
C3471	C347	0.741800	0.815330	0.456730
C3481	C348	0.688300	0.806700	0.410400
C3491	C349	0.658100	0.765700	0.357400
C3501	C350	0.681590	0.733580	0.350790
C3511	C351	0.735100	0.742220	0.397120
C3521	C352	0.765250	0.783150	0.450100
C3531	C353	0.925000	0.033500	0.628700
C3541	C354	0.916100	0.076100	0.625000
C3551	C355	0.966200	0.130400	0.650000
C3561	C356	0.025200	0.142100	0.678700
C3571	C357	0.034000	0.099400	0.682400
C3581	C358	0.984000	0.045200	0.657400
C3591	C359	0.524400	0.816700	0.479700
C3601	C360	0.518500	0.811700	0.429400
C3611	C361	0.461400	0.776300	0.380500
C3621	C362	0.410200	0.746000	0.382000
C3631	C363	0.416000	0.751000	0.432200
C3641	C364	0.473200	0.786400	0.481200
C3651	C365	0.950200	0.842400	0.661800
C3661	C366	0.009300	0.877600	0.710500
C3671	C367	0.046000	0.857100	0.733700
C3681	C368	0.023600	0.801500	0.708100
C3691	C369	0.964500	0.766200	0.659300
C3701	C370	0.927800	0.786700	0.636100
C3711	C371	0.060100	0.777400	0.730900
C3721	C372	0.908100	0.866100	0.635200
C3731	C373	0.424700	0.803700	0.673200
C3741	C374	0.451400	0.856800	0.671800
C3751	C375	0.495000	0.874400	0.657800
C3761	C376	0.512100	0.839000	0.645300
C3771	C377	0.485500	0.786000	0.646700
C3781	C378	0.441800	0.768300	0.660700
C3791	C379	0.373600	0.780000	0.686400
C3801	C380	0.560800	0.865700	0.634900
C3811	C381	0.277300	0.623100	0.922400
C3821	C382	0.228000	0.572200	0.877800
C3831	C383	0.211500	0.522400	0.886500
C3841	C384	0.244400	0.523600	0.939800
C3851	C385	0.293700	0.574500	0.984400
C3861	C386	0.310100	0.624200	0.975700
C3871	C387	0.160000	0.759100	0.674300
C3881	C388	0.203500	0.759200	0.664900
C3891	C389	0.213500	0.780800	0.626900
C3901	C390	0.179900	0.802300	0.598200
C3911	C391	0.136300	0.802200	0.607500
C3921	C392	0.126300	0.780600	0.645500
C3931	C393	0.213600	0.550500	0.688900
C3941	C394	0.250200	0.595910	0.679910
C3951	C395	0.275200	0.588100	0.649700
C3961	C396	0.263900	0.535100	0.628600
C3971	C397	0.227200	0.489700	0.637500
C3981	C398	0.202100	0.497300	0.667600
C3991	C399	0.241800	0.785070	0.926470
C4001	C400	0.188300	0.777900	0.881600
C4011	C401	0.158100	0.800700	0.892400
C4021	C402	0.181590	0.830800	0.948010
C4031	C403	0.235100	0.837980	0.992880
C4041	C404	0.265250	0.815150	0.982100
C4051	C405	0.425000	0.796300	0.891500
C4061	C406	0.416100	0.791100	0.840000
C4071	C407	0.466200	0.816200	0.835800
C4081	C408	0.525200	0.846500	0.883100
C4091	C409	0.534000	0.851600	0.934600
C4101	C410	0.484000	0.826600	0.938800
C4111	C411	0.024400	0.544700	0.707700
C4121	C412	0.018500	0.589100	0.706800
C4131	C413	0.961400	0.580900	0.685100
C4141	C414	0.910200	0.528200	0.664200
C4151	C415	0.916000	0.483800	0.665000
C4161	C416	0.973200	0.492000	0.686800
N1211	N121	0.783000	0.880800	0.617600
N1221	N122	0.740100	0.892200	0.599900
N1231	N123	0.706000	0.874500	0.622900
N1241	N124	0.660500	0.945000	0.420900
N1251	N125	0.701500	0.972600	0.476500
N1261	N126	0.728100	0.027800	0.491100
N1271	N127	0.693700	0.974300	0.625400
N1281	N128	0.720400	0.990600	0.596600
N1291	N129	0.754100	0.047200	0.613900
N1301	N130	0.761100	0.858900	0.501600
N1311	N131	0.719000	0.872700	0.481300
N1321	N132	0.675100	0.842100	0.426400
N1331	N133	0.868100	0.982900	0.601600
N1341	N134	0.823300	0.993800	0.580700
N1351	N135	0.850100	0.049400	0.592500
N1361	N136	0.585700	0.855400	0.519900
N1371	N137	0.615900	0.872300	0.493600
N1381	N138	0.576300	0.846500	0.437600
N1391	N139	0.532700	0.789100	0.105200
N1401	N140	0.933700	0.253700	0.546600
N1411	N141	0.283000	0.665400	0.902200
N1421	N142	0.240100	0.640200	0.847900
N1431	N143	0.206000	0.583100	0.831500
N1441	N144	0.160500	0.739600	0.715500
N1451	N145	0.201500	0.725000	0.728900
N1461	N146	0.228100	0.737000	0.700300
N1471	N147	0.193700	0.568300	0.719400
N1481	N148	0.220400	0.623800	0.729800
N1491	N149	0.254100	0.640200	0.706900
N1501	N150	0.261100	0.759500	0.902200
N1511	N151	0.219000	0.737700	0.846300
N1521	N152	0.175100	0.748700	0.833000
N1531	N153	0.368100	0.766500	0.885200
N1541	N154	0.323300	0.742600	0.829500
N1551	N155	0.350100	0.757600	0.800700
N1561	N156	0.085700	0.565800	0.730300
N1571	N157	0.115900	0.622300	0.743600
N1581	N158	0.076300	0.638700	0.729800
N1591	N159	0.032700	0.927500	0.743600
N1601	N160	0.433700	0.887100	0.680000
O491	O49	0.533900	0.827200	0.310300
O501	O50	0.615200	0.849400	0.309000
O511	O51	0.356000	0.766700	0.022500
O521	O52	0.426200	0.767400	0.010200
O531	O53	0.856600	0.166700	0.626100
O541	O54	0.853100	0.156300	0.546200
O551	O55	0.085700	0.453700	0.747400
O561	O56	0.075400	0.454300	0.669100
O571	O57	0.033900	0.723600	0.706700
O581	O58	0.115200	0.806200	0.765800
O591	O59	0.856000	0.833500	0.589300
O601	O60	0.926200	0.916000	0.658800
O611	O61	0.356600	0.730500	0.689900
O621	O62	0.353100	0.806900	0.696800
O631	O63	0.585700	0.838300	0.632000
O641	O64	0.575400	0.906300	0.621100
