data_KUJTUG_clean_PM
_symmetry_space_group_name_H-M	'P1'
_cell_length_a	13.953800
_cell_length_b	13.953800
_cell_length_c	24.924600
_cell_angle_alpha	90.000000
_cell_angle_beta	90.000000
_cell_angle_gamma	120.000000
_symmetry_Int_Tables_number 1

loop_
_symmetry_equiv_pos_as_xyz
'x,y,z'

loop_
_atom_site_label
_atom_site_type_symbol
_atom_site_fract_x
_atom_site_fract_y
_atom_site_fract_z
Zn11	Zn1	0.149970	0.692480	0.046760
O11	O1	0.002900	0.612800	0.106150
O21	O2	0.977300	0.606000	0.020730
O31	O3	0.296700	0.691800	0.073930
O41	O4	0.161000	0.546700	0.038720
O51	O5	0.128900	0.849600	0.162320
O61	O6	0.205800	0.833200	0.088170
N11	N1	0.474800	0.352500	0.104480
N21	N2	0.203800	0.768300	0.973480
N31	N3	0.304700	0.949100	0.830630
C11	C1	0.589600	0.406100	0.093720
C21	C2	0.662000	0.403900	0.132180
H11	H1	0.634500	0.364900	0.164000
C31	C3	0.773700	0.460000	0.122350
H21	H2	0.821800	0.458900	0.147900
C41	C4	0.815700	0.517800	0.075400
C51	C5	0.744600	0.517900	0.037290
H31	H3	0.772900	0.555300	0.005100
C61	C6	0.631800	0.463300	0.046000
H41	H4	0.584500	0.464800	0.020100
C71	C7	0.417900	0.411300	0.094030
C81	C8	0.466600	0.521700	0.108400
H51	H5	0.534900	0.556000	0.125600
C91	C9	0.414500	0.580300	0.097340
H61	H6	0.448300	0.654700	0.106700
C101	C10	0.312000	0.530400	0.072380
C111	C11	0.263700	0.419400	0.058660
H71	H7	0.194600	0.384600	0.042200
C121	C12	0.315300	0.360500	0.068750
H81	H8	0.282100	0.286400	0.058800
C131	C13	0.415300	0.237300	0.114800
C141	C14	0.324500	0.194200	0.149680
H91	H9	0.308700	0.241500	0.169100
C151	C15	0.258600	0.081100	0.155070
H101	H10	0.198200	0.052600	0.178200
C161	C16	0.280900	0.009600	0.126760
C171	C17	0.374800	0.053000	0.095710
H111	H11	0.393600	0.005500	0.078500
C181	C18	0.441900	0.166400	0.089700
H121	H12	0.505100	0.194400	0.068500
C191	C19	0.937800	0.581400	0.066000
C201	C20	0.252400	0.592800	0.060790
C211	C21	0.200100	0.887900	0.125600
C221	C22	0.292300	0.869400	0.972330
H131	H13	0.331300	0.897700	0.004100
C231	C23	0.329800	0.934800	0.927080
H141	H14	0.389900	0.006400	0.928400
C241	C24	0.275100	0.890300	0.880400
C251	C25	0.189000	0.782500	0.879480
H151	H15	0.154500	0.749400	0.847300
C261	C26	0.155200	0.725100	0.926550
H161	H16	0.095800	0.653000	0.925900
Zn21	Zn2	0.307520	0.457490	0.380100
O71	O7	0.387200	0.390100	0.439480
O81	O8	0.394000	0.371300	0.354060
O91	O9	0.308200	0.604900	0.407260
O101	O10	0.453300	0.614300	0.372050
O111	O11	0.150400	0.279300	0.495650
O121	O12	0.166800	0.372600	0.421500
N41	N4	0.647500	0.122300	0.437810
N51	N5	0.231700	0.435500	0.306810
N61	N6	0.050900	0.355600	0.163960
C271	C27	0.593900	0.183500	0.427050
C281	C28	0.596100	0.258100	0.465510
H171	H17	0.635100	0.269600	0.497330
C291	C29	0.540000	0.313700	0.455680
H181	H18	0.541100	0.362900	0.481230
C301	C30	0.482200	0.297900	0.408730
C311	C31	0.482100	0.226700	0.370620
H191	H19	0.444700	0.217600	0.338430
C321	C32	0.536700	0.168500	0.379330
H201	H20	0.535200	0.119700	0.353430
C331	C33	0.588700	0.006600	0.427360
C341	C34	0.478300	0.944900	0.441730
H211	H21	0.444000	0.978900	0.458930
C351	C35	0.419700	0.834200	0.430670
H221	H22	0.345300	0.793600	0.440030
C361	C36	0.469600	0.781600	0.405710
C371	C37	0.580600	0.844300	0.391990
H231	H23	0.615400	0.810000	0.375530
C381	C38	0.639500	0.954800	0.402080
H241	H24	0.713600	0.995700	0.392130
C391	C39	0.762700	0.178000	0.448130
C401	C40	0.805800	0.130300	0.483010
H251	H25	0.758500	0.067200	0.502430
C411	C41	0.918900	0.177500	0.488400
H261	H26	0.947400	0.145600	0.511530
C421	C42	0.990400	0.271300	0.460090
C431	C43	0.947000	0.321800	0.429040
H271	H27	0.994500	0.388100	0.411830
C441	C44	0.833600	0.275500	0.423030
H281	H28	0.805600	0.310700	0.401830
C451	C45	0.418600	0.356400	0.399330
C461	C46	0.407200	0.659600	0.394120
C471	C47	0.112100	0.312200	0.458930
C481	C48	0.130600	0.422900	0.305660
H291	H29	0.102300	0.433600	0.337430
C491	C49	0.065200	0.395000	0.260410
H301	H30	0.993600	0.383500	0.261730
C501	C50	0.109700	0.384800	0.213730
C511	C51	0.217500	0.406500	0.212810
H311	H31	0.250600	0.405100	0.180630
C521	C52	0.274900	0.430100	0.259880
H321	H32	0.347000	0.442800	0.259230
Zn31	Zn3	0.542510	0.850030	0.713430
O131	O13	0.609900	0.997100	0.772820
O141	O14	0.628700	0.022700	0.687400
O151	O15	0.395100	0.703300	0.740600
O161	O16	0.385700	0.839000	0.705390
O171	O17	0.720700	0.871100	0.828990
O181	O18	0.627400	0.794200	0.754840
N71	N7	0.877700	0.525200	0.771150
N81	N8	0.564500	0.796200	0.640150
N91	N9	0.644400	0.695300	0.497300
C531	C53	0.816500	0.410400	0.760390
C541	C54	0.741900	0.338000	0.798850
H331	H33	0.730400	0.365500	0.830670
C551	C55	0.686300	0.226300	0.789020
H341	H34	0.637100	0.178200	0.814570
C561	C56	0.702100	0.184300	0.742070
C571	C57	0.773300	0.255400	0.703960
H351	H35	0.782400	0.227100	0.671770
C581	C58	0.831500	0.368200	0.712670
H361	H36	0.880300	0.415500	0.686770
C591	C59	0.993400	0.582100	0.760700
C601	C60	0.055100	0.533400	0.775070
H371	H37	0.021100	0.465100	0.792270
C611	C61	0.165800	0.585500	0.764010
H381	H38	0.206400	0.551700	0.773370
C621	C62	0.218400	0.688000	0.739050
C631	C63	0.155700	0.736300	0.725330
H391	H39	0.190000	0.805400	0.708870
C641	C64	0.045200	0.684700	0.735420
H401	H40	0.004300	0.717900	0.725470
C651	C65	0.822000	0.584700	0.781470
C661	C66	0.869700	0.675500	0.816350
H411	H41	0.932800	0.691300	0.835770
C671	C67	0.822500	0.741400	0.821740
H421	H42	0.854400	0.801800	0.844870
C681	C68	0.728700	0.719100	0.793430
C691	C69	0.678200	0.625200	0.762380
H431	H43	0.611900	0.606400	0.745170
C701	C70	0.724500	0.558100	0.756370
H441	H44	0.689300	0.494900	0.735170
C711	C71	0.643600	0.062200	0.732670
C721	C72	0.340400	0.747600	0.727460
C731	C73	0.687800	0.799900	0.792270
C741	C74	0.577100	0.707700	0.639000
H451	H45	0.566400	0.668700	0.670770
C751	C75	0.605000	0.670200	0.593750
H461	H46	0.616500	0.610100	0.595070
C761	C76	0.615200	0.724900	0.547070
C771	C77	0.593500	0.811000	0.546150
H471	H47	0.594900	0.845500	0.513970
C781	C78	0.569900	0.844800	0.593220
H481	H48	0.557200	0.904200	0.592570
Zn41	Zn4	0.692480	0.149970	0.953240
O191	O19	0.612800	0.002900	0.893850
O201	O20	0.606000	0.977300	0.979270
O211	O21	0.691800	0.296700	0.926070
O221	O22	0.546700	0.161000	0.961280
O231	O23	0.849600	0.128900	0.837680
O241	O24	0.833200	0.205800	0.911830
N101	N10	0.352500	0.474800	0.895520
N111	N11	0.768300	0.203800	0.026520
N121	N12	0.949100	0.304700	0.169370
C791	C79	0.406100	0.589600	0.906280
C801	C80	0.403900	0.662000	0.867820
H491	H49	0.364900	0.634500	0.836000
C811	C81	0.460000	0.773700	0.877650
H501	H50	0.458900	0.821800	0.852100
C821	C82	0.517800	0.815700	0.924600
C831	C83	0.517900	0.744600	0.962710
H511	H51	0.555300	0.772900	0.994900
C841	C84	0.463300	0.631800	0.954000
H521	H52	0.464800	0.584500	0.979900
C851	C85	0.411300	0.417900	0.905970
C861	C86	0.521700	0.466600	0.891600
H531	H53	0.556000	0.534900	0.874400
C871	C87	0.580300	0.414500	0.902660
H541	H54	0.654700	0.448300	0.893300
C881	C88	0.530400	0.312000	0.927620
C891	C89	0.419400	0.263700	0.941340
H551	H55	0.384600	0.194600	0.957800
C901	C90	0.360500	0.315300	0.931250
H561	H56	0.286400	0.282100	0.941200
C911	C91	0.237300	0.415300	0.885200
C921	C92	0.194200	0.324500	0.850320
H571	H57	0.241500	0.308700	0.830900
C931	C93	0.081100	0.258600	0.844930
H581	H58	0.052600	0.198200	0.821800
C941	C94	0.009600	0.280900	0.873240
C951	C95	0.053000	0.374800	0.904290
H591	H59	0.005500	0.393600	0.921500
C961	C96	0.166400	0.441900	0.910300
H601	H60	0.194400	0.505100	0.931500
C971	C97	0.581400	0.937800	0.934000
C981	C98	0.592800	0.252400	0.939210
C991	C99	0.887900	0.200100	0.874400
C1001	C100	0.869400	0.292300	0.027670
H611	H61	0.897700	0.331300	0.995900
C1011	C101	0.934800	0.329800	0.072920
H621	H62	0.006400	0.389900	0.071600
C1021	C102	0.890300	0.275100	0.119600
C1031	C103	0.782500	0.189000	0.120520
H631	H63	0.749400	0.154500	0.152700
C1041	C104	0.725100	0.155200	0.073450
H641	H64	0.653000	0.095800	0.074100
Zn51	Zn5	0.457490	0.307520	0.619900
O251	O25	0.390100	0.387200	0.560520
O261	O26	0.371300	0.394000	0.645940
O271	O27	0.604900	0.308200	0.592740
O281	O28	0.614300	0.453300	0.627950
O291	O29	0.279300	0.150400	0.504350
O301	O30	0.372600	0.166800	0.578500
N131	N13	0.122300	0.647500	0.562190
N141	N14	0.435500	0.231700	0.693190
N151	N15	0.355600	0.050900	0.836040
C1051	C105	0.183500	0.593900	0.572950
C1061	C106	0.258100	0.596100	0.534490
H651	H65	0.269600	0.635100	0.502670
C1071	C107	0.313700	0.540000	0.544320
H661	H66	0.362900	0.541100	0.518770
C1081	C108	0.297900	0.482200	0.591270
C1091	C109	0.226700	0.482100	0.629380
H671	H67	0.217600	0.444700	0.661570
C1101	C110	0.168500	0.536700	0.620670
H681	H68	0.119700	0.535200	0.646570
C1111	C111	0.006600	0.588700	0.572640
C1121	C112	0.944900	0.478300	0.558270
H691	H69	0.978900	0.444000	0.541070
C1131	C113	0.834200	0.419700	0.569330
H701	H70	0.793600	0.345300	0.559970
C1141	C114	0.781600	0.469600	0.594290
C1151	C115	0.844300	0.580600	0.608010
H711	H71	0.810000	0.615400	0.624470
C1161	C116	0.954800	0.639500	0.597920
H721	H72	0.995700	0.713600	0.607870
C1171	C117	0.178000	0.762700	0.551870
C1181	C118	0.130300	0.805800	0.516990
H731	H73	0.067200	0.758500	0.497570
C1191	C119	0.177500	0.918900	0.511600
H741	H74	0.145600	0.947400	0.488470
C1201	C120	0.271300	0.990400	0.539910
C1211	C121	0.321800	0.947000	0.570960
H751	H75	0.388100	0.994500	0.588170
C1221	C122	0.275500	0.833600	0.576970
H761	H76	0.310700	0.805600	0.598170
C1231	C123	0.356400	0.418600	0.600670
C1241	C124	0.659600	0.407200	0.605880
C1251	C125	0.312200	0.112100	0.541070
C1261	C126	0.422900	0.130600	0.694340
H771	H77	0.433600	0.102300	0.662570
C1271	C127	0.395000	0.065200	0.739590
H781	H78	0.383500	0.993600	0.738270
C1281	C128	0.384800	0.109700	0.786270
C1291	C129	0.406500	0.217500	0.787190
H791	H79	0.405100	0.250600	0.819370
C1301	C130	0.430100	0.274900	0.740120
H801	H80	0.442800	0.347000	0.740770
Zn61	Zn6	0.850030	0.542510	0.286570
O311	O31	0.997100	0.609900	0.227180
O321	O32	0.022700	0.628700	0.312600
O331	O33	0.703300	0.395100	0.259400
O341	O34	0.839000	0.385700	0.294610
O351	O35	0.871100	0.720700	0.171010
O361	O36	0.794200	0.627400	0.245160
N161	N16	0.525200	0.877700	0.228850
N171	N17	0.796200	0.564500	0.359850
N181	N18	0.695300	0.644400	0.502700
C1311	C131	0.410400	0.816500	0.239610
C1321	C132	0.338000	0.741900	0.201150
H811	H81	0.365500	0.730400	0.169330
C1331	C133	0.226300	0.686300	0.210980
H821	H82	0.178200	0.637100	0.185430
C1341	C134	0.184300	0.702100	0.257930
C1351	C135	0.255400	0.773300	0.296040
H831	H83	0.227100	0.782400	0.328230
C1361	C136	0.368200	0.831500	0.287330
H841	H84	0.415500	0.880300	0.313230
C1371	C137	0.582100	0.993400	0.239300
C1381	C138	0.533400	0.055100	0.224930
H851	H85	0.465100	0.021100	0.207730
C1391	C139	0.585500	0.165800	0.235990
H861	H86	0.551700	0.206400	0.226630
C1401	C140	0.688000	0.218400	0.260950
C1411	C141	0.736300	0.155700	0.274670
H871	H87	0.805400	0.190000	0.291130
C1421	C142	0.684700	0.045200	0.264580
H881	H88	0.717900	0.004300	0.274530
C1431	C143	0.584700	0.822000	0.218530
C1441	C144	0.675500	0.869700	0.183650
H891	H89	0.691300	0.932800	0.164230
C1451	C145	0.741400	0.822500	0.178260
H901	H90	0.801800	0.854400	0.155130
C1461	C146	0.719100	0.728700	0.206570
C1471	C147	0.625200	0.678200	0.237620
H911	H91	0.606400	0.611900	0.254830
C1481	C148	0.558100	0.724500	0.243630
H921	H92	0.494900	0.689300	0.264830
C1491	C149	0.062200	0.643600	0.267330
C1501	C150	0.747600	0.340400	0.272540
C1511	C151	0.799900	0.687800	0.207730
C1521	C152	0.707700	0.577100	0.361000
H931	H93	0.668700	0.566400	0.329230
C1531	C153	0.670200	0.605000	0.406250
H941	H94	0.610100	0.616500	0.404930
C1541	C154	0.724900	0.615200	0.452930
C1551	C155	0.811000	0.593500	0.453850
H951	H95	0.845500	0.594900	0.486030
C1561	C156	0.844800	0.569900	0.406780
H961	H96	0.904200	0.557200	0.407430
Zn71	Zn7	0.000000	0.703350	0.166670
Zn81	Zn8	0.296650	0.296650	0.500000
Zn91	Zn9	0.703350	0.000000	0.833330
