data_KUKMUA_clean_PM
_symmetry_space_group_name_H-M	'P1'
_cell_length_a	24.748000
_cell_length_b	32.354000
_cell_length_c	21.712000
_cell_angle_alpha	90.000000
_cell_angle_beta	90.000000
_cell_angle_gamma	90.000000
_symmetry_Int_Tables_number 1

loop_
_symmetry_equiv_pos_as_xyz
'x,y,z'

loop_
_atom_site_label
_atom_site_type_symbol
_atom_site_fract_x
_atom_site_fract_y
_atom_site_fract_z
C11	C1	0.591400	0.322900	0.208900
C21	C2	0.568500	0.309300	0.262800
H11	H1	0.542800	0.288400	0.261500
C31	C3	0.583200	0.326300	0.320100
C41	C4	0.624800	0.356500	0.321000
H21	H2	0.639700	0.365400	0.358000
C51	C5	0.642500	0.372300	0.265500
C61	C6	0.625500	0.357800	0.210400
H31	H3	0.636100	0.370700	0.174100
C71	C7	0.570700	0.306700	0.149800
C81	C8	0.565500	0.309700	0.382000
C91	C9	0.825400	0.444300	0.631700
C101	C10	0.816400	0.438800	0.400600
C111	C11	0.873900	0.391800	0.459600
H41	H4	0.881100	0.378600	0.422500
C121	C12	0.840900	0.424700	0.459300
C131	C13	0.823200	0.441300	0.513400
H51	H5	0.799200	0.463400	0.513000
C141	C14	0.841200	0.424800	0.570200
C151	C15	0.883000	0.394000	0.569700
H61	H6	0.899700	0.386100	0.606200
C161	C16	0.898200	0.376300	0.513900
O11	O1	0.543300	0.274500	0.150900
O21	O2	0.593800	0.322300	0.101900
O31	O3	0.691000	0.432900	0.208800
O41	O4	0.744300	0.386810	0.273100
O51	O5	0.685800	0.437300	0.320400
O61	O6	0.551600	0.267260	0.013700
O71	O7	0.459200	0.229080	0.012400
O81	O8	0.785800	0.470100	0.401200
O91	O9	0.831600	0.422100	0.676200
O101	O10	0.797100	0.475700	0.630300
O111	O11	0.533200	0.279900	0.380900
O121	O12	0.575100	0.331900	0.425300
O131	O13	0.839400	0.423300	0.351300
O141	O14	0.939000	0.311600	0.568200
O151	O15	0.997000	0.357300	0.517500
S11	S1	0.695010	0.410730	0.266800
S21	S2	0.946470	0.336480	0.513200
Cu11	Cu1	0.508080	0.245790	0.945050
Cu21	Cu2	0.823470	0.423760	0.263190
Cu31	Cu3	0.577670	0.323980	0.013910
Cu41	Cu4	0.506000	0.246230	0.083460
O161	O16	0.939200	0.315400	0.458800
C171	C17	0.591400	0.822900	0.708900
C181	C18	0.568500	0.809300	0.762800
H71	H7	0.542800	0.788400	0.761500
C191	C19	0.583200	0.826300	0.820100
C201	C20	0.624800	0.856500	0.821000
H81	H8	0.639700	0.865400	0.858000
C211	C21	0.642500	0.872300	0.765500
C221	C22	0.625500	0.857800	0.710400
H91	H9	0.636100	0.870700	0.674100
C231	C23	0.570700	0.806700	0.649800
C241	C24	0.565500	0.809700	0.882000
C251	C25	0.825400	0.944300	0.131700
C261	C26	0.816400	0.938800	0.900600
C271	C27	0.873900	0.891800	0.959600
H101	H10	0.881100	0.878600	0.922500
C281	C28	0.840900	0.924700	0.959300
C291	C29	0.823200	0.941300	0.013400
H111	H11	0.799200	0.963400	0.013000
C301	C30	0.841200	0.924800	0.070200
C311	C31	0.883000	0.894000	0.069700
H121	H12	0.899700	0.886100	0.106200
C321	C32	0.898200	0.876300	0.013900
O171	O17	0.543300	0.774500	0.650900
O181	O18	0.593800	0.822300	0.601900
O191	O19	0.691000	0.932900	0.708800
O201	O20	0.744300	0.886810	0.773100
O211	O21	0.685800	0.937300	0.820400
O221	O22	0.551600	0.767260	0.513700
O231	O23	0.459200	0.729080	0.512400
O241	O24	0.785800	0.970100	0.901200
O251	O25	0.831600	0.922100	0.176200
O261	O26	0.797100	0.975700	0.130300
O271	O27	0.533200	0.779900	0.880900
O281	O28	0.575100	0.831900	0.925300
O291	O29	0.839400	0.923300	0.851300
O301	O30	0.939000	0.811600	0.068200
O311	O31	0.997000	0.857300	0.017500
S31	S3	0.695010	0.910730	0.766800
S41	S4	0.946470	0.836480	0.013200
Cu51	Cu5	0.508080	0.745790	0.445050
Cu61	Cu6	0.823470	0.923760	0.763190
Cu71	Cu7	0.577670	0.823980	0.513910
Cu81	Cu8	0.506000	0.746230	0.583460
O321	O32	0.939200	0.815400	0.958800
C331	C33	0.091400	0.322900	0.708900
C341	C34	0.068500	0.309300	0.762800
H131	H13	0.042800	0.288400	0.761500
C351	C35	0.083200	0.326300	0.820100
C361	C36	0.124800	0.356500	0.821000
H141	H14	0.139700	0.365400	0.858000
C371	C37	0.142500	0.372300	0.765500
C381	C38	0.125500	0.357800	0.710400
H151	H15	0.136100	0.370700	0.674100
C391	C39	0.070700	0.306700	0.649800
C401	C40	0.065500	0.309700	0.882000
C411	C41	0.325400	0.444300	0.131700
C421	C42	0.316400	0.438800	0.900600
C431	C43	0.373900	0.391800	0.959600
H161	H16	0.381100	0.378600	0.922500
C441	C44	0.340900	0.424700	0.959300
C451	C45	0.323200	0.441300	0.013400
H171	H17	0.299200	0.463400	0.013000
C461	C46	0.341200	0.424800	0.070200
C471	C47	0.383000	0.394000	0.069700
H181	H18	0.399700	0.386100	0.106200
C481	C48	0.398200	0.376300	0.013900
O331	O33	0.043300	0.274500	0.650900
O341	O34	0.093800	0.322300	0.601900
O351	O35	0.191000	0.432900	0.708800
O361	O36	0.244300	0.386810	0.773100
O371	O37	0.185800	0.437300	0.820400
O381	O38	0.051600	0.267260	0.513700
O391	O39	0.959200	0.229080	0.512400
O401	O40	0.285800	0.470100	0.901200
O411	O41	0.331600	0.422100	0.176200
O421	O42	0.297100	0.475700	0.130300
O431	O43	0.033200	0.279900	0.880900
O441	O44	0.075100	0.331900	0.925300
O451	O45	0.339400	0.423300	0.851300
O461	O46	0.439000	0.311600	0.068200
O471	O47	0.497000	0.357300	0.017500
S51	S5	0.195010	0.410730	0.766800
S61	S6	0.446470	0.336480	0.013200
Cu91	Cu9	0.008080	0.245790	0.445050
Cu101	Cu10	0.323470	0.423760	0.763190
Cu111	Cu11	0.077670	0.323980	0.513910
Cu121	Cu12	0.006000	0.246230	0.583460
O481	O48	0.439200	0.315400	0.958800
C491	C49	0.091400	0.822900	0.208900
C501	C50	0.068500	0.809300	0.262800
H191	H19	0.042800	0.788400	0.261500
C511	C51	0.083200	0.826300	0.320100
C521	C52	0.124800	0.856500	0.321000
H201	H20	0.139700	0.865400	0.358000
C531	C53	0.142500	0.872300	0.265500
C541	C54	0.125500	0.857800	0.210400
H211	H21	0.136100	0.870700	0.174100
C551	C55	0.070700	0.806700	0.149800
C561	C56	0.065500	0.809700	0.382000
C571	C57	0.325400	0.944300	0.631700
C581	C58	0.316400	0.938800	0.400600
C591	C59	0.373900	0.891800	0.459600
H221	H22	0.381100	0.878600	0.422500
C601	C60	0.340900	0.924700	0.459300
C611	C61	0.323200	0.941300	0.513400
H231	H23	0.299200	0.963400	0.513000
C621	C62	0.341200	0.924800	0.570200
C631	C63	0.383000	0.894000	0.569700
H241	H24	0.399700	0.886100	0.606200
C641	C64	0.398200	0.876300	0.513900
O491	O49	0.043300	0.774500	0.150900
O501	O50	0.093800	0.822300	0.101900
O511	O51	0.191000	0.932900	0.208800
O521	O52	0.244300	0.886810	0.273100
O531	O53	0.185800	0.937300	0.320400
O541	O54	0.051600	0.767260	0.013700
O551	O55	0.959200	0.729080	0.012400
O561	O56	0.285800	0.970100	0.401200
O571	O57	0.331600	0.922100	0.676200
O581	O58	0.297100	0.975700	0.630300
O591	O59	0.033200	0.779900	0.380900
O601	O60	0.075100	0.831900	0.425300
O611	O61	0.339400	0.923300	0.351300
O621	O62	0.439000	0.811600	0.568200
O631	O63	0.497000	0.857300	0.517500
S71	S7	0.195010	0.910730	0.266800
S81	S8	0.446470	0.836480	0.513200
Cu131	Cu13	0.008080	0.745790	0.945050
Cu141	Cu14	0.323470	0.923760	0.263190
Cu151	Cu15	0.077670	0.823980	0.013910
Cu161	Cu16	0.006000	0.746230	0.083460
O641	O64	0.439200	0.815400	0.458800
C651	C65	0.408600	0.677100	0.208900
C661	C66	0.431500	0.690700	0.262800
H251	H25	0.457200	0.711600	0.261500
C671	C67	0.416800	0.673700	0.320100
C681	C68	0.375200	0.643500	0.321000
H261	H26	0.360300	0.634600	0.358000
C691	C69	0.357500	0.627700	0.265500
C701	C70	0.374500	0.642200	0.210400
H271	H27	0.363900	0.629300	0.174100
C711	C71	0.429300	0.693300	0.149800
C721	C72	0.434500	0.690300	0.382000
C731	C73	0.174600	0.555700	0.631700
C741	C74	0.183600	0.561200	0.400600
C751	C75	0.126100	0.608200	0.459600
H281	H28	0.118900	0.621400	0.422500
C761	C76	0.159100	0.575300	0.459300
C771	C77	0.176800	0.558700	0.513400
H291	H29	0.200800	0.536600	0.513000
C781	C78	0.158800	0.575200	0.570200
C791	C79	0.117000	0.606000	0.569700
H301	H30	0.100300	0.613900	0.606200
C801	C80	0.101800	0.623700	0.513900
O651	O65	0.456700	0.725500	0.150900
O661	O66	0.406200	0.677700	0.101900
O671	O67	0.309000	0.567100	0.208800
O681	O68	0.255700	0.613190	0.273100
O691	O69	0.314200	0.562700	0.320400
O701	O70	0.448400	0.732740	0.013700
O711	O71	0.540800	0.770920	0.012400
O721	O72	0.214200	0.529900	0.401200
O731	O73	0.168400	0.577900	0.676200
O741	O74	0.202900	0.524300	0.630300
O751	O75	0.466800	0.720100	0.380900
O761	O76	0.424900	0.668100	0.425300
O771	O77	0.160600	0.576700	0.351300
O781	O78	0.061000	0.688400	0.568200
O791	O79	0.003000	0.642700	0.517500
S91	S9	0.304990	0.589270	0.266800
S101	S10	0.053530	0.663520	0.513200
Cu171	Cu17	0.491920	0.754210	0.945050
Cu181	Cu18	0.176530	0.576240	0.263190
Cu191	Cu19	0.422330	0.676020	0.013910
Cu201	Cu20	0.494000	0.753770	0.083460
O801	O80	0.060800	0.684600	0.458800
C811	C81	0.408600	0.177100	0.708900
C821	C82	0.431500	0.190700	0.762800
H311	H31	0.457200	0.211600	0.761500
C831	C83	0.416800	0.173700	0.820100
C841	C84	0.375200	0.143500	0.821000
H321	H32	0.360300	0.134600	0.858000
C851	C85	0.357500	0.127700	0.765500
C861	C86	0.374500	0.142200	0.710400
H331	H33	0.363900	0.129300	0.674100
C871	C87	0.429300	0.193300	0.649800
C881	C88	0.434500	0.190300	0.882000
C891	C89	0.174600	0.055700	0.131700
C901	C90	0.183600	0.061200	0.900600
C911	C91	0.126100	0.108200	0.959600
H341	H34	0.118900	0.121400	0.922500
C921	C92	0.159100	0.075300	0.959300
C931	C93	0.176800	0.058700	0.013400
H351	H35	0.200800	0.036600	0.013000
C941	C94	0.158800	0.075200	0.070200
C951	C95	0.117000	0.106000	0.069700
H361	H36	0.100300	0.113900	0.106200
C961	C96	0.101800	0.123700	0.013900
O811	O81	0.456700	0.225500	0.650900
O821	O82	0.406200	0.177700	0.601900
O831	O83	0.309000	0.067100	0.708800
O841	O84	0.255700	0.113190	0.773100
O851	O85	0.314200	0.062700	0.820400
O861	O86	0.448400	0.232740	0.513700
O871	O87	0.540800	0.270920	0.512400
O881	O88	0.214200	0.029900	0.901200
O891	O89	0.168400	0.077900	0.176200
O901	O90	0.202900	0.024300	0.130300
O911	O91	0.466800	0.220100	0.880900
O921	O92	0.424900	0.168100	0.925300
O931	O93	0.160600	0.076700	0.851300
O941	O94	0.061000	0.188400	0.068200
O951	O95	0.003000	0.142700	0.017500
S111	S11	0.304990	0.089270	0.766800
S121	S12	0.053530	0.163520	0.013200
Cu211	Cu21	0.491920	0.254210	0.445050
Cu221	Cu22	0.176530	0.076240	0.763190
Cu231	Cu23	0.422330	0.176020	0.513910
Cu241	Cu24	0.494000	0.253770	0.583460
O961	O96	0.060800	0.184600	0.958800
C971	C97	0.908600	0.677100	0.708900
C981	C98	0.931500	0.690700	0.762800
H371	H37	0.957200	0.711600	0.761500
C991	C99	0.916800	0.673700	0.820100
C1001	C100	0.875200	0.643500	0.821000
H381	H38	0.860300	0.634600	0.858000
C1011	C101	0.857500	0.627700	0.765500
C1021	C102	0.874500	0.642200	0.710400
H391	H39	0.863900	0.629300	0.674100
C1031	C103	0.929300	0.693300	0.649800
C1041	C104	0.934500	0.690300	0.882000
C1051	C105	0.674600	0.555700	0.131700
C1061	C106	0.683600	0.561200	0.900600
C1071	C107	0.626100	0.608200	0.959600
H401	H40	0.618900	0.621400	0.922500
C1081	C108	0.659100	0.575300	0.959300
C1091	C109	0.676800	0.558700	0.013400
H411	H41	0.700800	0.536600	0.013000
C1101	C110	0.658800	0.575200	0.070200
C1111	C111	0.617000	0.606000	0.069700
H421	H42	0.600300	0.613900	0.106200
C1121	C112	0.601800	0.623700	0.013900
O971	O97	0.956700	0.725500	0.650900
O981	O98	0.906200	0.677700	0.601900
O991	O99	0.809000	0.567100	0.708800
O1001	O100	0.755700	0.613190	0.773100
O1011	O101	0.814200	0.562700	0.820400
O1021	O102	0.948400	0.732740	0.513700
O1031	O103	0.040800	0.770920	0.512400
O1041	O104	0.714200	0.529900	0.901200
O1051	O105	0.668400	0.577900	0.176200
O1061	O106	0.702900	0.524300	0.130300
O1071	O107	0.966800	0.720100	0.880900
O1081	O108	0.924900	0.668100	0.925300
O1091	O109	0.660600	0.576700	0.851300
O1101	O110	0.561000	0.688400	0.068200
O1111	O111	0.503000	0.642700	0.017500
S131	S13	0.804990	0.589270	0.766800
S141	S14	0.553530	0.663520	0.013200
Cu251	Cu25	0.991920	0.754210	0.445050
Cu261	Cu26	0.676530	0.576240	0.763190
Cu271	Cu27	0.922330	0.676020	0.513910
Cu281	Cu28	0.994000	0.753770	0.583460
O1121	O112	0.560800	0.684600	0.958800
C1131	C113	0.908600	0.177100	0.208900
C1141	C114	0.931500	0.190700	0.262800
H431	H43	0.957200	0.211600	0.261500
C1151	C115	0.916800	0.173700	0.320100
C1161	C116	0.875200	0.143500	0.321000
H441	H44	0.860300	0.134600	0.358000
C1171	C117	0.857500	0.127700	0.265500
C1181	C118	0.874500	0.142200	0.210400
H451	H45	0.863900	0.129300	0.174100
C1191	C119	0.929300	0.193300	0.149800
C1201	C120	0.934500	0.190300	0.382000
C1211	C121	0.674600	0.055700	0.631700
C1221	C122	0.683600	0.061200	0.400600
C1231	C123	0.626100	0.108200	0.459600
H461	H46	0.618900	0.121400	0.422500
C1241	C124	0.659100	0.075300	0.459300
C1251	C125	0.676800	0.058700	0.513400
H471	H47	0.700800	0.036600	0.513000
C1261	C126	0.658800	0.075200	0.570200
C1271	C127	0.617000	0.106000	0.569700
H481	H48	0.600300	0.113900	0.606200
C1281	C128	0.601800	0.123700	0.513900
O1131	O113	0.956700	0.225500	0.150900
O1141	O114	0.906200	0.177700	0.101900
O1151	O115	0.809000	0.067100	0.208800
O1161	O116	0.755700	0.113190	0.273100
O1171	O117	0.814200	0.062700	0.320400
O1181	O118	0.948400	0.232740	0.013700
O1191	O119	0.040800	0.270920	0.012400
O1201	O120	0.714200	0.029900	0.401200
O1211	O121	0.668400	0.077900	0.676200
O1221	O122	0.702900	0.024300	0.630300
O1231	O123	0.966800	0.220100	0.380900
O1241	O124	0.924900	0.168100	0.425300
O1251	O125	0.660600	0.076700	0.351300
O1261	O126	0.561000	0.188400	0.568200
O1271	O127	0.503000	0.142700	0.517500
S151	S15	0.804990	0.089270	0.266800
S161	S16	0.553530	0.163520	0.513200
Cu291	Cu29	0.991920	0.254210	0.945050
Cu301	Cu30	0.676530	0.076240	0.263190
Cu311	Cu31	0.922330	0.176020	0.013910
Cu321	Cu32	0.994000	0.253770	0.083460
O1281	O128	0.560800	0.184600	0.458800
C1291	C129	0.841400	0.927100	0.458900
C1301	C130	0.818500	0.940700	0.512800
H491	H49	0.792800	0.961600	0.511500
C1311	C131	0.833200	0.923700	0.570100
C1321	C132	0.874800	0.893500	0.571000
H501	H50	0.889700	0.884600	0.608000
C1331	C133	0.892500	0.877700	0.515500
C1341	C134	0.875500	0.892200	0.460400
H511	H51	0.886100	0.879300	0.424100
C1351	C135	0.820700	0.943300	0.399800
C1361	C136	0.815500	0.940300	0.632000
C1371	C137	0.075400	0.805700	0.881700
C1381	C138	0.066400	0.811200	0.650600
C1391	C139	0.123900	0.858200	0.709600
H521	H52	0.131100	0.871400	0.672500
C1401	C140	0.090900	0.825300	0.709300
C1411	C141	0.073200	0.808700	0.763400
H531	H53	0.049200	0.786600	0.763000
C1421	C142	0.091200	0.825200	0.820200
C1431	C143	0.133000	0.856000	0.819700
H541	H54	0.149700	0.863900	0.856200
C1441	C144	0.148200	0.873700	0.763900
O1291	O129	0.793300	0.975500	0.400900
O1301	O130	0.843800	0.927700	0.351900
O1311	O131	0.941000	0.817100	0.458800
O1321	O132	0.994300	0.863190	0.523100
O1331	O133	0.935800	0.812700	0.570400
O1341	O134	0.801600	0.982740	0.263700
O1351	O135	0.709200	0.020920	0.262400
O1361	O136	0.035800	0.779900	0.651200
O1371	O137	0.081600	0.827900	0.926200
O1381	O138	0.047100	0.774300	0.880300
O1391	O139	0.783200	0.970100	0.630900
O1401	O140	0.825100	0.918100	0.675300
O1411	O141	0.089400	0.826700	0.601300
O1421	O142	0.189000	0.938400	0.818200
O1431	O143	0.247000	0.892700	0.767500
S171	S17	0.945010	0.839270	0.516800
S181	S18	0.196470	0.913520	0.763200
Cu331	Cu33	0.758080	0.004210	0.195050
Cu341	Cu34	0.073470	0.826240	0.513190
Cu351	Cu35	0.827670	0.926020	0.263910
Cu361	Cu36	0.756000	0.003770	0.333460
O1441	O144	0.189200	0.934600	0.708800
C1451	C145	0.841400	0.427100	0.958900
C1461	C146	0.818500	0.440700	0.012800
H551	H55	0.792800	0.461600	0.011500
C1471	C147	0.833200	0.423700	0.070100
C1481	C148	0.874800	0.393500	0.071000
H561	H56	0.889700	0.384600	0.108000
C1491	C149	0.892500	0.377700	0.015500
C1501	C150	0.875500	0.392200	0.960400
H571	H57	0.886100	0.379300	0.924100
C1511	C151	0.820700	0.443300	0.899800
C1521	C152	0.815500	0.440300	0.132000
C1531	C153	0.075400	0.305700	0.381700
C1541	C154	0.066400	0.311200	0.150600
C1551	C155	0.123900	0.358200	0.209600
H581	H58	0.131100	0.371400	0.172500
C1561	C156	0.090900	0.325300	0.209300
C1571	C157	0.073200	0.308700	0.263400
H591	H59	0.049200	0.286600	0.263000
C1581	C158	0.091200	0.325200	0.320200
C1591	C159	0.133000	0.356000	0.319700
H601	H60	0.149700	0.363900	0.356200
C1601	C160	0.148200	0.373700	0.263900
O1451	O145	0.793300	0.475500	0.900900
O1461	O146	0.843800	0.427700	0.851900
O1471	O147	0.941000	0.317100	0.958800
O1481	O148	0.994300	0.363190	0.023100
O1491	O149	0.935800	0.312700	0.070400
O1501	O150	0.801600	0.482740	0.763700
O1511	O151	0.709200	0.520920	0.762400
O1521	O152	0.035800	0.279900	0.151200
O1531	O153	0.081600	0.327900	0.426200
O1541	O154	0.047100	0.274300	0.380300
O1551	O155	0.783200	0.470100	0.130900
O1561	O156	0.825100	0.418100	0.175300
O1571	O157	0.089400	0.326700	0.101300
O1581	O158	0.189000	0.438400	0.318200
O1591	O159	0.247000	0.392700	0.267500
S191	S19	0.945010	0.339270	0.016800
S201	S20	0.196470	0.413520	0.263200
Cu371	Cu37	0.758080	0.504210	0.695050
Cu381	Cu38	0.073470	0.326240	0.013190
Cu391	Cu39	0.827670	0.426020	0.763910
Cu401	Cu40	0.756000	0.503770	0.833460
O1601	O160	0.189200	0.434600	0.208800
C1611	C161	0.341400	0.927100	0.958900
C1621	C162	0.318500	0.940700	0.012800
H611	H61	0.292800	0.961600	0.011500
C1631	C163	0.333200	0.923700	0.070100
C1641	C164	0.374800	0.893500	0.071000
H621	H62	0.389700	0.884600	0.108000
C1651	C165	0.392500	0.877700	0.015500
C1661	C166	0.375500	0.892200	0.960400
H631	H63	0.386100	0.879300	0.924100
C1671	C167	0.320700	0.943300	0.899800
C1681	C168	0.315500	0.940300	0.132000
C1691	C169	0.575400	0.805700	0.381700
C1701	C170	0.566400	0.811200	0.150600
C1711	C171	0.623900	0.858200	0.209600
H641	H64	0.631100	0.871400	0.172500
C1721	C172	0.590900	0.825300	0.209300
C1731	C173	0.573200	0.808700	0.263400
H651	H65	0.549200	0.786600	0.263000
C1741	C174	0.591200	0.825200	0.320200
C1751	C175	0.633000	0.856000	0.319700
H661	H66	0.649700	0.863900	0.356200
C1761	C176	0.648200	0.873700	0.263900
O1611	O161	0.293300	0.975500	0.900900
O1621	O162	0.343800	0.927700	0.851900
O1631	O163	0.441000	0.817100	0.958800
O1641	O164	0.494300	0.863190	0.023100
O1651	O165	0.435800	0.812700	0.070400
O1661	O166	0.301600	0.982740	0.763700
O1671	O167	0.209200	0.020920	0.762400
O1681	O168	0.535800	0.779900	0.151200
O1691	O169	0.581600	0.827900	0.426200
O1701	O170	0.547100	0.774300	0.380300
O1711	O171	0.283200	0.970100	0.130900
O1721	O172	0.325100	0.918100	0.175300
O1731	O173	0.589400	0.826700	0.101300
O1741	O174	0.689000	0.938400	0.318200
O1751	O175	0.747000	0.892700	0.267500
S211	S21	0.445010	0.839270	0.016800
S221	S22	0.696470	0.913520	0.263200
Cu411	Cu41	0.258080	0.004210	0.695050
Cu421	Cu42	0.573470	0.826240	0.013190
Cu431	Cu43	0.327670	0.926020	0.763910
Cu441	Cu44	0.256000	0.003770	0.833460
O1761	O176	0.689200	0.934600	0.208800
C1771	C177	0.341400	0.427100	0.458900
C1781	C178	0.318500	0.440700	0.512800
H671	H67	0.292800	0.461600	0.511500
C1791	C179	0.333200	0.423700	0.570100
C1801	C180	0.374800	0.393500	0.571000
H681	H68	0.389700	0.384600	0.608000
C1811	C181	0.392500	0.377700	0.515500
C1821	C182	0.375500	0.392200	0.460400
H691	H69	0.386100	0.379300	0.424100
C1831	C183	0.320700	0.443300	0.399800
C1841	C184	0.315500	0.440300	0.632000
C1851	C185	0.575400	0.305700	0.881700
C1861	C186	0.566400	0.311200	0.650600
C1871	C187	0.623900	0.358200	0.709600
H701	H70	0.631100	0.371400	0.672500
C1881	C188	0.590900	0.325300	0.709300
C1891	C189	0.573200	0.308700	0.763400
H711	H71	0.549200	0.286600	0.763000
C1901	C190	0.591200	0.325200	0.820200
C1911	C191	0.633000	0.356000	0.819700
H721	H72	0.649700	0.363900	0.856200
C1921	C192	0.648200	0.373700	0.763900
O1771	O177	0.293300	0.475500	0.400900
O1781	O178	0.343800	0.427700	0.351900
O1791	O179	0.441000	0.317100	0.458800
O1801	O180	0.494300	0.363190	0.523100
O1811	O181	0.435800	0.312700	0.570400
O1821	O182	0.301600	0.482740	0.263700
O1831	O183	0.209200	0.520920	0.262400
O1841	O184	0.535800	0.279900	0.651200
O1851	O185	0.581600	0.327900	0.926200
O1861	O186	0.547100	0.274300	0.880300
O1871	O187	0.283200	0.470100	0.630900
O1881	O188	0.325100	0.418100	0.675300
O1891	O189	0.589400	0.326700	0.601300
O1901	O190	0.689000	0.438400	0.818200
O1911	O191	0.747000	0.392700	0.767500
S231	S23	0.445010	0.339270	0.516800
S241	S24	0.696470	0.413520	0.763200
Cu451	Cu45	0.258080	0.504210	0.195050
Cu461	Cu46	0.573470	0.326240	0.513190
Cu471	Cu47	0.327670	0.426020	0.263910
Cu481	Cu48	0.256000	0.503770	0.333460
O1921	O192	0.689200	0.434600	0.708800
C1931	C193	0.658600	0.572900	0.458900
C1941	C194	0.681500	0.559300	0.512800
H731	H73	0.707200	0.538400	0.511500
C1951	C195	0.666800	0.576300	0.570100
C1961	C196	0.625200	0.606500	0.571000
H741	H74	0.610300	0.615400	0.608000
C1971	C197	0.607500	0.622300	0.515500
C1981	C198	0.624500	0.607800	0.460400
H751	H75	0.613900	0.620700	0.424100
C1991	C199	0.679300	0.556700	0.399800
C2001	C200	0.684500	0.559700	0.632000
C2011	C201	0.424600	0.694300	0.881700
C2021	C202	0.433600	0.688800	0.650600
C2031	C203	0.376100	0.641800	0.709600
H761	H76	0.368900	0.628600	0.672500
C2041	C204	0.409100	0.674700	0.709300
C2051	C205	0.426800	0.691300	0.763400
H771	H77	0.450800	0.713400	0.763000
C2061	C206	0.408800	0.674800	0.820200
C2071	C207	0.367000	0.644000	0.819700
H781	H78	0.350300	0.636100	0.856200
C2081	C208	0.351800	0.626300	0.763900
O1931	O193	0.706700	0.524500	0.400900
O1941	O194	0.656200	0.572300	0.351900
O1951	O195	0.559000	0.682900	0.458800
O1961	O196	0.505700	0.636810	0.523100
O1971	O197	0.564200	0.687300	0.570400
O1981	O198	0.698400	0.517260	0.263700
O1991	O199	0.790800	0.479080	0.262400
O2001	O200	0.464200	0.720100	0.651200
O2011	O201	0.418400	0.672100	0.926200
O2021	O202	0.452900	0.725700	0.880300
O2031	O203	0.716800	0.529900	0.630900
O2041	O204	0.674900	0.581900	0.675300
O2051	O205	0.410600	0.673300	0.601300
O2061	O206	0.311000	0.561600	0.818200
O2071	O207	0.253000	0.607300	0.767500
S251	S25	0.554990	0.660730	0.516800
S261	S26	0.303530	0.586480	0.763200
Cu491	Cu49	0.741920	0.495790	0.195050
Cu501	Cu50	0.426530	0.673760	0.513190
Cu511	Cu51	0.672330	0.573980	0.263910
Cu521	Cu52	0.744000	0.496230	0.333460
O2081	O208	0.310800	0.565400	0.708800
C2091	C209	0.658600	0.072900	0.958900
C2101	C210	0.681500	0.059300	0.012800
H791	H79	0.707200	0.038400	0.011500
C2111	C211	0.666800	0.076300	0.070100
C2121	C212	0.625200	0.106500	0.071000
H801	H80	0.610300	0.115400	0.108000
C2131	C213	0.607500	0.122300	0.015500
C2141	C214	0.624500	0.107800	0.960400
H811	H81	0.613900	0.120700	0.924100
C2151	C215	0.679300	0.056700	0.899800
C2161	C216	0.684500	0.059700	0.132000
C2171	C217	0.424600	0.194300	0.381700
C2181	C218	0.433600	0.188800	0.150600
C2191	C219	0.376100	0.141800	0.209600
H821	H82	0.368900	0.128600	0.172500
C2201	C220	0.409100	0.174700	0.209300
C2211	C221	0.426800	0.191300	0.263400
H831	H83	0.450800	0.213400	0.263000
C2221	C222	0.408800	0.174800	0.320200
C2231	C223	0.367000	0.144000	0.319700
H841	H84	0.350300	0.136100	0.356200
C2241	C224	0.351800	0.126300	0.263900
O2091	O209	0.706700	0.024500	0.900900
O2101	O210	0.656200	0.072300	0.851900
O2111	O211	0.559000	0.182900	0.958800
O2121	O212	0.505700	0.136810	0.023100
O2131	O213	0.564200	0.187300	0.070400
O2141	O214	0.698400	0.017260	0.763700
O2151	O215	0.790800	0.979080	0.762400
O2161	O216	0.464200	0.220100	0.151200
O2171	O217	0.418400	0.172100	0.426200
O2181	O218	0.452900	0.225700	0.380300
O2191	O219	0.716800	0.029900	0.130900
O2201	O220	0.674900	0.081900	0.175300
O2211	O221	0.410600	0.173300	0.101300
O2221	O222	0.311000	0.061600	0.318200
O2231	O223	0.253000	0.107300	0.267500
S271	S27	0.554990	0.160730	0.016800
S281	S28	0.303530	0.086480	0.263200
Cu531	Cu53	0.741920	0.995790	0.695050
Cu541	Cu54	0.426530	0.173760	0.013190
Cu551	Cu55	0.672330	0.073980	0.763910
Cu561	Cu56	0.744000	0.996230	0.833460
O2241	O224	0.310800	0.065400	0.208800
C2251	C225	0.158600	0.572900	0.958900
C2261	C226	0.181500	0.559300	0.012800
H851	H85	0.207200	0.538400	0.011500
C2271	C227	0.166800	0.576300	0.070100
C2281	C228	0.125200	0.606500	0.071000
H861	H86	0.110300	0.615400	0.108000
C2291	C229	0.107500	0.622300	0.015500
C2301	C230	0.124500	0.607800	0.960400
H871	H87	0.113900	0.620700	0.924100
C2311	C231	0.179300	0.556700	0.899800
C2321	C232	0.184500	0.559700	0.132000
C2331	C233	0.924600	0.694300	0.381700
C2341	C234	0.933600	0.688800	0.150600
C2351	C235	0.876100	0.641800	0.209600
H881	H88	0.868900	0.628600	0.172500
C2361	C236	0.909100	0.674700	0.209300
C2371	C237	0.926800	0.691300	0.263400
H891	H89	0.950800	0.713400	0.263000
C2381	C238	0.908800	0.674800	0.320200
C2391	C239	0.867000	0.644000	0.319700
H901	H90	0.850300	0.636100	0.356200
C2401	C240	0.851800	0.626300	0.263900
O2251	O225	0.206700	0.524500	0.900900
O2261	O226	0.156200	0.572300	0.851900
O2271	O227	0.059000	0.682900	0.958800
O2281	O228	0.005700	0.636810	0.023100
O2291	O229	0.064200	0.687300	0.070400
O2301	O230	0.198400	0.517260	0.763700
O2311	O231	0.290800	0.479080	0.762400
O2321	O232	0.964200	0.720100	0.151200
O2331	O233	0.918400	0.672100	0.426200
O2341	O234	0.952900	0.725700	0.380300
O2351	O235	0.216800	0.529900	0.130900
O2361	O236	0.174900	0.581900	0.175300
O2371	O237	0.910600	0.673300	0.101300
O2381	O238	0.811000	0.561600	0.318200
O2391	O239	0.753000	0.607300	0.267500
S291	S29	0.054990	0.660730	0.016800
S301	S30	0.803530	0.586480	0.263200
Cu571	Cu57	0.241920	0.495790	0.695050
Cu581	Cu58	0.926530	0.673760	0.013190
Cu591	Cu59	0.172330	0.573980	0.763910
Cu601	Cu60	0.244000	0.496230	0.833460
O2401	O240	0.810800	0.565400	0.208800
C2411	C241	0.158600	0.072900	0.458900
C2421	C242	0.181500	0.059300	0.512800
H911	H91	0.207200	0.038400	0.511500
C2431	C243	0.166800	0.076300	0.570100
C2441	C244	0.125200	0.106500	0.571000
H921	H92	0.110300	0.115400	0.608000
C2451	C245	0.107500	0.122300	0.515500
C2461	C246	0.124500	0.107800	0.460400
H931	H93	0.113900	0.120700	0.424100
C2471	C247	0.179300	0.056700	0.399800
C2481	C248	0.184500	0.059700	0.632000
C2491	C249	0.924600	0.194300	0.881700
C2501	C250	0.933600	0.188800	0.650600
C2511	C251	0.876100	0.141800	0.709600
H941	H94	0.868900	0.128600	0.672500
C2521	C252	0.909100	0.174700	0.709300
C2531	C253	0.926800	0.191300	0.763400
H951	H95	0.950800	0.213400	0.763000
C2541	C254	0.908800	0.174800	0.820200
C2551	C255	0.867000	0.144000	0.819700
H961	H96	0.850300	0.136100	0.856200
C2561	C256	0.851800	0.126300	0.763900
O2411	O241	0.206700	0.024500	0.400900
O2421	O242	0.156200	0.072300	0.351900
O2431	O243	0.059000	0.182900	0.458800
O2441	O244	0.005700	0.136810	0.523100
O2451	O245	0.064200	0.187300	0.570400
O2461	O246	0.198400	0.017260	0.263700
O2471	O247	0.290800	0.979080	0.262400
O2481	O248	0.964200	0.220100	0.651200
O2491	O249	0.918400	0.172100	0.926200
O2501	O250	0.952900	0.225700	0.880300
O2511	O251	0.216800	0.029900	0.630900
O2521	O252	0.174900	0.081900	0.675300
O2531	O253	0.910600	0.173300	0.601300
O2541	O254	0.811000	0.061600	0.818200
O2551	O255	0.753000	0.107300	0.767500
S311	S31	0.054990	0.160730	0.516800
S321	S32	0.803530	0.086480	0.763200
Cu611	Cu61	0.241920	0.995790	0.195050
Cu621	Cu62	0.926530	0.173760	0.513190
Cu631	Cu63	0.172330	0.073980	0.263910
Cu641	Cu64	0.244000	0.996230	0.333460
O2561	O256	0.810800	0.065400	0.708800
