data_KUKZOH_clean_PM
_symmetry_space_group_name_H-M	'P1'
_cell_length_a	26.033800
_cell_length_b	26.341500
_cell_length_c	27.532700
_cell_angle_alpha	90.000000
_cell_angle_beta	97.836000
_cell_angle_gamma	90.000000
_symmetry_Int_Tables_number 1

loop_
_symmetry_equiv_pos_as_xyz
'x,y,z'

loop_
_atom_site_label
_atom_site_type_symbol
_atom_site_fract_x
_atom_site_fract_y
_atom_site_fract_z
C11	C1	0.790670	0.316300	0.148080
C21	C2	0.835980	0.342190	0.131350
C31	C3	0.863800	0.320300	0.097800
H11	H1	0.854700	0.287300	0.085800
C41	C4	0.904800	0.345500	0.081300
H21	H2	0.923500	0.330000	0.057900
C51	C5	0.918400	0.394110	0.099340
C61	C6	0.890900	0.415620	0.134030
H31	H3	0.900300	0.448100	0.147200
C71	C7	0.849670	0.389550	0.149330
H41	H4	0.830600	0.404700	0.172600
C81	C8	0.989100	0.416900	0.049850
C91	C9	0.102440	0.173500	0.642980
C101	C10	0.067100	0.146100	0.605180
C111	C11	0.081600	0.099500	0.588180
H51	H5	0.111800	0.083100	0.604200
C121	C12	0.052700	0.076300	0.548200
H61	H6	0.063100	0.044300	0.536900
C131	C13	0.008900	0.100000	0.524810
C141	C14	0.992100	0.145700	0.543850
H71	H7	0.960700	0.161000	0.529400
C151	C15	0.021300	0.168100	0.583360
H81	H8	0.010000	0.199200	0.595900
C161	C16	0.155200	0.659540	0.123880
C171	C17	0.137900	0.614520	0.092530
C181	C18	0.090700	0.592050	0.097300
H91	H9	0.069700	0.606000	0.119600
C191	C19	0.073600	0.549800	0.070200
H101	H10	0.040800	0.535300	0.073500
C201	C20	0.104500	0.528350	0.037930
C211	C21	0.150310	0.553380	0.030800
H111	H11	0.170100	0.541400	0.006600
C221	C22	0.166720	0.594690	0.058250
H121	H12	0.198700	0.610300	0.053800
C231	C23	0.053100	0.450500	0.013500
C241	C24	0.188800	0.842500	0.300500
C251	C25	0.163600	0.876100	0.333980
C261	C26	0.139400	0.919000	0.317770
H131	H13	0.138900	0.928700	0.284500
C271	C27	0.115100	0.949500	0.348800
H141	H14	0.098200	0.979800	0.336600
C281	C28	0.115400	0.936300	0.397430
C291	C29	0.139400	0.893700	0.414090
H151	H15	0.140900	0.885000	0.447700
C301	C30	0.162200	0.861600	0.382600
H161	H16	0.176800	0.830100	0.394200
C311	C31	0.794100	0.153350	0.237800
C321	C32	0.834050	0.116900	0.258800
C331	C33	0.838600	0.106400	0.308900
H171	H17	0.815100	0.121700	0.328000
C341	C34	0.876700	0.074300	0.331200
H181	H18	0.878500	0.067100	0.365200
C351	C35	0.912600	0.052400	0.303860
C361	C36	0.906100	0.060600	0.253630
H191	H19	0.928200	0.043900	0.234100
C371	C37	0.867320	0.093100	0.231200
H201	H20	0.864000	0.098900	0.196900
C381	C38	0.979600	0.021500	0.370370
C391	C39	0.994300	0.050000	0.447300
C401	C40	0.049100	0.995300	0.420000
C411	C41	0.113660	0.297000	0.789770
C421	C42	0.085810	0.307740	0.832320
C431	C43	0.034240	0.292790	0.833580
H211	H21	0.015900	0.275300	0.806400
C441	C44	0.009850	0.303270	0.874030
H221	H22	0.974900	0.293100	0.874400
C451	C45	0.036410	0.328700	0.914180
C461	C46	0.088180	0.343300	0.913430
H231	H23	0.106800	0.360500	0.940600
C471	C47	0.111730	0.332390	0.872610
H241	H24	0.146800	0.342100	0.872300
C481	C48	0.017100	0.376600	0.987230
N11	N1	0.958660	0.423130	0.086320
H251	H25	0.966000	0.450300	0.104600
N21	N2	0.984650	0.376250	0.021700
N31	N3	0.022810	0.455940	0.048360
N41	N4	0.980100	0.082700	0.481230
H261	H26	0.948400	0.094800	0.474900
N51	N5	0.090780	0.485560	0.009070
H271	H27	0.108900	0.480500	0.984800
N61	N6	0.092800	0.966900	0.430190
H281	H28	0.108400	0.967800	0.460600
N71	N7	0.953160	0.021500	0.323690
H291	H29	0.963400	0.998800	0.303600
N81	N8	0.962830	0.050600	0.404520
N91	N9	0.037400	0.023000	0.457870
N101	N10	0.022290	0.993700	0.374520
N111	N11	0.010750	0.336900	0.955360
H301	H30	0.988100	0.313700	0.961100
N121	N12	0.052060	0.412360	0.981290
O11	O1	0.782140	0.269890	0.136240
O21	O2	0.765120	0.341840	0.174510
O31	O3	0.146640	0.153110	0.656570
O41	O4	0.087800	0.214610	0.659570
O51	O5	0.126040	0.672980	0.154220
O61	O6	0.198130	0.679250	0.119080
O71	O7	0.197640	0.862590	0.260610
O81	O8	0.196600	0.797040	0.312320
O91	O9	0.795740	0.169680	0.194600
O101	O10	0.759120	0.165020	0.262280
O111	O11	0.087590	0.278860	0.750940
O121	O12	0.160550	0.308560	0.793060
O131	O13	0.700140	0.250910	0.212520
Zn11	Zn1	0.742730	0.218560	0.169810
Zn21	Zn2	0.704410	0.322450	0.203830
Zn31	Zn3	0.727240	0.232760	0.283010
Zn41	Zn4	0.628540	0.232280	0.197710
C491	C49	0.290670	0.816300	0.148080
C501	C50	0.335980	0.842190	0.131350
C511	C51	0.363800	0.820300	0.097800
H311	H31	0.354700	0.787300	0.085800
C521	C52	0.404800	0.845500	0.081300
H321	H32	0.423500	0.830000	0.057900
C531	C53	0.418400	0.894110	0.099340
C541	C54	0.390900	0.915620	0.134030
H331	H33	0.400300	0.948100	0.147200
C551	C55	0.349670	0.889550	0.149330
H341	H34	0.330600	0.904700	0.172600
C561	C56	0.489100	0.916900	0.049850
C571	C57	0.602440	0.673500	0.642980
C581	C58	0.567100	0.646100	0.605180
C591	C59	0.581600	0.599500	0.588180
H351	H35	0.611800	0.583100	0.604200
C601	C60	0.552700	0.576300	0.548200
H361	H36	0.563100	0.544300	0.536900
C611	C61	0.508900	0.600000	0.524810
C621	C62	0.492100	0.645700	0.543850
H371	H37	0.460700	0.661000	0.529400
C631	C63	0.521300	0.668100	0.583360
H381	H38	0.510000	0.699200	0.595900
C641	C64	0.655200	0.159540	0.123880
C651	C65	0.637900	0.114520	0.092530
C661	C66	0.590700	0.092050	0.097300
H391	H39	0.569700	0.106000	0.119600
C671	C67	0.573600	0.049800	0.070200
H401	H40	0.540800	0.035300	0.073500
C681	C68	0.604500	0.028350	0.037930
C691	C69	0.650310	0.053380	0.030800
H411	H41	0.670100	0.041400	0.006600
C701	C70	0.666720	0.094690	0.058250
H421	H42	0.698700	0.110300	0.053800
C711	C71	0.553100	0.950500	0.013500
C721	C72	0.688800	0.342500	0.300500
C731	C73	0.663600	0.376100	0.333980
C741	C74	0.639400	0.419000	0.317770
H431	H43	0.638900	0.428700	0.284500
C751	C75	0.615100	0.449500	0.348800
H441	H44	0.598200	0.479800	0.336600
C761	C76	0.615400	0.436300	0.397430
C771	C77	0.639400	0.393700	0.414090
H451	H45	0.640900	0.385000	0.447700
C781	C78	0.662200	0.361600	0.382600
H461	H46	0.676800	0.330100	0.394200
C791	C79	0.294100	0.653350	0.237800
C801	C80	0.334050	0.616900	0.258800
C811	C81	0.338600	0.606400	0.308900
H471	H47	0.315100	0.621700	0.328000
C821	C82	0.376700	0.574300	0.331200
H481	H48	0.378500	0.567100	0.365200
C831	C83	0.412600	0.552400	0.303860
C841	C84	0.406100	0.560600	0.253630
H491	H49	0.428200	0.543900	0.234100
C851	C85	0.367320	0.593100	0.231200
H501	H50	0.364000	0.598900	0.196900
C861	C86	0.479600	0.521500	0.370370
C871	C87	0.494300	0.550000	0.447300
C881	C88	0.549100	0.495300	0.420000
C891	C89	0.613660	0.797000	0.789770
C901	C90	0.585810	0.807740	0.832320
C911	C91	0.534240	0.792790	0.833580
H511	H51	0.515900	0.775300	0.806400
C921	C92	0.509850	0.803270	0.874030
H521	H52	0.474900	0.793100	0.874400
C931	C93	0.536410	0.828700	0.914180
C941	C94	0.588180	0.843300	0.913430
H531	H53	0.606800	0.860500	0.940600
C951	C95	0.611730	0.832390	0.872610
H541	H54	0.646800	0.842100	0.872300
C961	C96	0.517100	0.876600	0.987230
N131	N13	0.458660	0.923130	0.086320
H551	H55	0.466000	0.950300	0.104600
N141	N14	0.484650	0.876250	0.021700
N151	N15	0.522810	0.955940	0.048360
N161	N16	0.480100	0.582700	0.481230
H561	H56	0.448400	0.594800	0.474900
N171	N17	0.590780	0.985560	0.009070
H571	H57	0.608900	0.980500	0.984800
N181	N18	0.592800	0.466900	0.430190
H581	H58	0.608400	0.467800	0.460600
N191	N19	0.453160	0.521500	0.323690
H591	H59	0.463400	0.498800	0.303600
N201	N20	0.462830	0.550600	0.404520
N211	N21	0.537400	0.523000	0.457870
N221	N22	0.522290	0.493700	0.374520
N231	N23	0.510750	0.836900	0.955360
H601	H60	0.488100	0.813700	0.961100
N241	N24	0.552060	0.912360	0.981290
O141	O14	0.282140	0.769890	0.136240
O151	O15	0.265120	0.841840	0.174510
O161	O16	0.646640	0.653110	0.656570
O171	O17	0.587800	0.714610	0.659570
O181	O18	0.626040	0.172980	0.154220
O191	O19	0.698130	0.179250	0.119080
O201	O20	0.697640	0.362590	0.260610
O211	O21	0.696600	0.297040	0.312320
O221	O22	0.295740	0.669680	0.194600
O231	O23	0.259120	0.665020	0.262280
O241	O24	0.587590	0.778860	0.750940
O251	O25	0.660550	0.808560	0.793060
O261	O26	0.200140	0.750910	0.212520
Zn51	Zn5	0.242730	0.718560	0.169810
Zn61	Zn6	0.204410	0.822450	0.203830
Zn71	Zn7	0.227240	0.732760	0.283010
Zn81	Zn8	0.128540	0.732280	0.197710
C971	C97	0.790670	0.683700	0.648080
C981	C98	0.835980	0.657810	0.631350
C991	C99	0.863800	0.679700	0.597800
H611	H61	0.854700	0.712700	0.585800
C1001	C100	0.904800	0.654500	0.581300
H621	H62	0.923500	0.670000	0.557900
C1011	C101	0.918400	0.605890	0.599340
C1021	C102	0.890900	0.584380	0.634030
H631	H63	0.900300	0.551900	0.647200
C1031	C103	0.849670	0.610450	0.649330
H641	H64	0.830600	0.595300	0.672600
C1041	C104	0.989100	0.583100	0.549850
C1051	C105	0.102440	0.826500	0.142980
C1061	C106	0.067100	0.853900	0.105180
C1071	C107	0.081600	0.900500	0.088180
H651	H65	0.111800	0.916900	0.104200
C1081	C108	0.052700	0.923700	0.048200
H661	H66	0.063100	0.955700	0.036900
C1091	C109	0.008900	0.900000	0.024810
C1101	C110	0.992100	0.854300	0.043850
H671	H67	0.960700	0.839000	0.029400
C1111	C111	0.021300	0.831900	0.083360
H681	H68	0.010000	0.800800	0.095900
C1121	C112	0.155200	0.340460	0.623880
C1131	C113	0.137900	0.385480	0.592530
C1141	C114	0.090700	0.407950	0.597300
H691	H69	0.069700	0.394000	0.619600
C1151	C115	0.073600	0.450200	0.570200
H701	H70	0.040800	0.464700	0.573500
C1161	C116	0.104500	0.471650	0.537930
C1171	C117	0.150310	0.446620	0.530800
H711	H71	0.170100	0.458600	0.506600
C1181	C118	0.166720	0.405310	0.558250
H721	H72	0.198700	0.389700	0.553800
C1191	C119	0.053100	0.549500	0.513500
C1201	C120	0.188800	0.157500	0.800500
C1211	C121	0.163600	0.123900	0.833980
C1221	C122	0.139400	0.081000	0.817770
H731	H73	0.138900	0.071300	0.784500
C1231	C123	0.115100	0.050500	0.848800
H741	H74	0.098200	0.020200	0.836600
C1241	C124	0.115400	0.063700	0.897430
C1251	C125	0.139400	0.106300	0.914090
H751	H75	0.140900	0.115000	0.947700
C1261	C126	0.162200	0.138400	0.882600
H761	H76	0.176800	0.169900	0.894200
C1271	C127	0.794100	0.846650	0.737800
C1281	C128	0.834050	0.883100	0.758800
C1291	C129	0.838600	0.893600	0.808900
H771	H77	0.815100	0.878300	0.828000
C1301	C130	0.876700	0.925700	0.831200
H781	H78	0.878500	0.932900	0.865200
C1311	C131	0.912600	0.947600	0.803860
C1321	C132	0.906100	0.939400	0.753630
H791	H79	0.928200	0.956100	0.734100
C1331	C133	0.867320	0.906900	0.731200
H801	H80	0.864000	0.901100	0.696900
C1341	C134	0.979600	0.978500	0.870370
C1351	C135	0.994300	0.950000	0.947300
C1361	C136	0.049100	0.004700	0.920000
C1371	C137	0.113660	0.703000	0.289770
C1381	C138	0.085810	0.692260	0.332320
C1391	C139	0.034240	0.707210	0.333580
H811	H81	0.015900	0.724700	0.306400
C1401	C140	0.009850	0.696730	0.374030
H821	H82	0.974900	0.706900	0.374400
C1411	C141	0.036410	0.671300	0.414180
C1421	C142	0.088180	0.656700	0.413430
H831	H83	0.106800	0.639500	0.440600
C1431	C143	0.111730	0.667610	0.372610
H841	H84	0.146800	0.657900	0.372300
C1441	C144	0.017100	0.623400	0.487230
N251	N25	0.958660	0.576870	0.586320
H851	H85	0.966000	0.549700	0.604600
N261	N26	0.984650	0.623750	0.521700
N271	N27	0.022810	0.544060	0.548360
N281	N28	0.980100	0.917300	0.981230
H861	H86	0.948400	0.905200	0.974900
N291	N29	0.090780	0.514440	0.509070
H871	H87	0.108900	0.519500	0.484800
N301	N30	0.092800	0.033100	0.930190
H881	H88	0.108400	0.032200	0.960600
N311	N31	0.953160	0.978500	0.823690
H891	H89	0.963400	0.001200	0.803600
N321	N32	0.962830	0.949400	0.904520
N331	N33	0.037400	0.977000	0.957870
N341	N34	0.022290	0.006300	0.874520
N351	N35	0.010750	0.663100	0.455360
H901	H90	0.988100	0.686300	0.461100
N361	N36	0.052060	0.587640	0.481290
O271	O27	0.782140	0.730110	0.636240
O281	O28	0.765120	0.658160	0.674510
O291	O29	0.146640	0.846890	0.156570
O301	O30	0.087800	0.785390	0.159570
O311	O31	0.126040	0.327020	0.654220
O321	O32	0.198130	0.320750	0.619080
O331	O33	0.197640	0.137410	0.760610
O341	O34	0.196600	0.202960	0.812320
O351	O35	0.795740	0.830320	0.694600
O361	O36	0.759120	0.834980	0.762280
O371	O37	0.087590	0.721140	0.250940
O381	O38	0.160550	0.691440	0.293060
O391	O39	0.700140	0.749090	0.712520
Zn91	Zn9	0.742730	0.781440	0.669810
Zn101	Zn10	0.704410	0.677550	0.703830
Zn111	Zn11	0.727240	0.767240	0.783010
Zn121	Zn12	0.628540	0.767720	0.697710
C1451	C145	0.290670	0.183700	0.648080
C1461	C146	0.335980	0.157810	0.631350
C1471	C147	0.363800	0.179700	0.597800
H911	H91	0.354700	0.212700	0.585800
C1481	C148	0.404800	0.154500	0.581300
H921	H92	0.423500	0.170000	0.557900
C1491	C149	0.418400	0.105890	0.599340
C1501	C150	0.390900	0.084380	0.634030
H931	H93	0.400300	0.051900	0.647200
C1511	C151	0.349670	0.110450	0.649330
H941	H94	0.330600	0.095300	0.672600
C1521	C152	0.489100	0.083100	0.549850
C1531	C153	0.602440	0.326500	0.142980
C1541	C154	0.567100	0.353900	0.105180
C1551	C155	0.581600	0.400500	0.088180
H951	H95	0.611800	0.416900	0.104200
C1561	C156	0.552700	0.423700	0.048200
H961	H96	0.563100	0.455700	0.036900
C1571	C157	0.508900	0.400000	0.024810
C1581	C158	0.492100	0.354300	0.043850
H971	H97	0.460700	0.339000	0.029400
C1591	C159	0.521300	0.331900	0.083360
H981	H98	0.510000	0.300800	0.095900
C1601	C160	0.655200	0.840460	0.623880
C1611	C161	0.637900	0.885480	0.592530
C1621	C162	0.590700	0.907950	0.597300
H991	H99	0.569700	0.894000	0.619600
C1631	C163	0.573600	0.950200	0.570200
H1001	H100	0.540800	0.964700	0.573500
C1641	C164	0.604500	0.971650	0.537930
C1651	C165	0.650310	0.946620	0.530800
H1011	H101	0.670100	0.958600	0.506600
C1661	C166	0.666720	0.905310	0.558250
H1021	H102	0.698700	0.889700	0.553800
C1671	C167	0.553100	0.049500	0.513500
C1681	C168	0.688800	0.657500	0.800500
C1691	C169	0.663600	0.623900	0.833980
C1701	C170	0.639400	0.581000	0.817770
H1031	H103	0.638900	0.571300	0.784500
C1711	C171	0.615100	0.550500	0.848800
H1041	H104	0.598200	0.520200	0.836600
C1721	C172	0.615400	0.563700	0.897430
C1731	C173	0.639400	0.606300	0.914090
H1051	H105	0.640900	0.615000	0.947700
C1741	C174	0.662200	0.638400	0.882600
H1061	H106	0.676800	0.669900	0.894200
C1751	C175	0.294100	0.346650	0.737800
C1761	C176	0.334050	0.383100	0.758800
C1771	C177	0.338600	0.393600	0.808900
H1071	H107	0.315100	0.378300	0.828000
C1781	C178	0.376700	0.425700	0.831200
H1081	H108	0.378500	0.432900	0.865200
C1791	C179	0.412600	0.447600	0.803860
C1801	C180	0.406100	0.439400	0.753630
H1091	H109	0.428200	0.456100	0.734100
C1811	C181	0.367320	0.406900	0.731200
H1101	H110	0.364000	0.401100	0.696900
C1821	C182	0.479600	0.478500	0.870370
C1831	C183	0.494300	0.450000	0.947300
C1841	C184	0.549100	0.504700	0.920000
C1851	C185	0.613660	0.203000	0.289770
C1861	C186	0.585810	0.192260	0.332320
C1871	C187	0.534240	0.207210	0.333580
H1111	H111	0.515900	0.224700	0.306400
C1881	C188	0.509850	0.196730	0.374030
H1121	H112	0.474900	0.206900	0.374400
C1891	C189	0.536410	0.171300	0.414180
C1901	C190	0.588180	0.156700	0.413430
H1131	H113	0.606800	0.139500	0.440600
C1911	C191	0.611730	0.167610	0.372610
H1141	H114	0.646800	0.157900	0.372300
C1921	C192	0.517100	0.123400	0.487230
N371	N37	0.458660	0.076870	0.586320
H1151	H115	0.466000	0.049700	0.604600
N381	N38	0.484650	0.123750	0.521700
N391	N39	0.522810	0.044060	0.548360
N401	N40	0.480100	0.417300	0.981230
H1161	H116	0.448400	0.405200	0.974900
N411	N41	0.590780	0.014440	0.509070
H1171	H117	0.608900	0.019500	0.484800
N421	N42	0.592800	0.533100	0.930190
H1181	H118	0.608400	0.532200	0.960600
N431	N43	0.453160	0.478500	0.823690
H1191	H119	0.463400	0.501200	0.803600
N441	N44	0.462830	0.449400	0.904520
N451	N45	0.537400	0.477000	0.957870
N461	N46	0.522290	0.506300	0.874520
N471	N47	0.510750	0.163100	0.455360
H1201	H120	0.488100	0.186300	0.461100
N481	N48	0.552060	0.087640	0.481290
O401	O40	0.282140	0.230110	0.636240
O411	O41	0.265120	0.158160	0.674510
O421	O42	0.646640	0.346890	0.156570
O431	O43	0.587800	0.285390	0.159570
O441	O44	0.626040	0.827020	0.654220
O451	O45	0.698130	0.820750	0.619080
O461	O46	0.697640	0.637410	0.760610
O471	O47	0.696600	0.702960	0.812320
O481	O48	0.295740	0.330320	0.694600
O491	O49	0.259120	0.334980	0.762280
O501	O50	0.587590	0.221140	0.250940
O511	O51	0.660550	0.191440	0.293060
O521	O52	0.200140	0.249090	0.712520
Zn131	Zn13	0.242730	0.281440	0.669810
Zn141	Zn14	0.204410	0.177550	0.703830
Zn151	Zn15	0.227240	0.267240	0.783010
Zn161	Zn16	0.128540	0.267720	0.697710
C1931	C193	0.209330	0.316300	0.351920
C1941	C194	0.164020	0.342190	0.368650
C1951	C195	0.136200	0.320300	0.402200
H1211	H121	0.145300	0.287300	0.414200
C1961	C196	0.095200	0.345500	0.418700
H1221	H122	0.076500	0.330000	0.442100
C1971	C197	0.081600	0.394110	0.400660
C1981	C198	0.109100	0.415620	0.365970
H1231	H123	0.099700	0.448100	0.352800
C1991	C199	0.150330	0.389550	0.350670
H1241	H124	0.169400	0.404700	0.327400
C2001	C200	0.010900	0.416900	0.450150
C2011	C201	0.897560	0.173500	0.857020
C2021	C202	0.932900	0.146100	0.894820
C2031	C203	0.918400	0.099500	0.911820
H1251	H125	0.888200	0.083100	0.895800
C2041	C204	0.947300	0.076300	0.951800
H1261	H126	0.936900	0.044300	0.963100
C2051	C205	0.991100	0.100000	0.975190
C2061	C206	0.007900	0.145700	0.956150
H1271	H127	0.039300	0.161000	0.970600
C2071	C207	0.978700	0.168100	0.916640
H1281	H128	0.990000	0.199200	0.904100
C2081	C208	0.844800	0.659540	0.376120
C2091	C209	0.862100	0.614520	0.407470
C2101	C210	0.909300	0.592050	0.402700
H1291	H129	0.930300	0.606000	0.380400
C2111	C211	0.926400	0.549800	0.429800
H1301	H130	0.959200	0.535300	0.426500
C2121	C212	0.895500	0.528350	0.462070
C2131	C213	0.849690	0.553380	0.469200
H1311	H131	0.829900	0.541400	0.493400
C2141	C214	0.833280	0.594690	0.441750
H1321	H132	0.801300	0.610300	0.446200
C2151	C215	0.946900	0.450500	0.486500
C2161	C216	0.811200	0.842500	0.199500
C2171	C217	0.836400	0.876100	0.166020
C2181	C218	0.860600	0.919000	0.182230
H1331	H133	0.861100	0.928700	0.215500
C2191	C219	0.884900	0.949500	0.151200
H1341	H134	0.901800	0.979800	0.163400
C2201	C220	0.884600	0.936300	0.102570
C2211	C221	0.860600	0.893700	0.085910
H1351	H135	0.859100	0.885000	0.052300
C2221	C222	0.837800	0.861600	0.117400
H1361	H136	0.823200	0.830100	0.105800
C2231	C223	0.205900	0.153350	0.262200
C2241	C224	0.165950	0.116900	0.241200
C2251	C225	0.161400	0.106400	0.191100
H1371	H137	0.184900	0.121700	0.172000
C2261	C226	0.123300	0.074300	0.168800
H1381	H138	0.121500	0.067100	0.134800
C2271	C227	0.087400	0.052400	0.196140
C2281	C228	0.093900	0.060600	0.246370
H1391	H139	0.071800	0.043900	0.265900
C2291	C229	0.132680	0.093100	0.268800
H1401	H140	0.136000	0.098900	0.303100
C2301	C230	0.020400	0.021500	0.129630
C2311	C231	0.005700	0.050000	0.052700
C2321	C232	0.950900	0.995300	0.080000
C2331	C233	0.886340	0.297000	0.710230
C2341	C234	0.914190	0.307740	0.667680
C2351	C235	0.965760	0.292790	0.666420
H1411	H141	0.984100	0.275300	0.693600
C2361	C236	0.990150	0.303270	0.625970
H1421	H142	0.025100	0.293100	0.625600
C2371	C237	0.963590	0.328700	0.585820
C2381	C238	0.911820	0.343300	0.586570
H1431	H143	0.893200	0.360500	0.559400
C2391	C239	0.888270	0.332390	0.627390
H1441	H144	0.853200	0.342100	0.627700
C2401	C240	0.982900	0.376600	0.512770
N491	N49	0.041340	0.423130	0.413680
H1451	H145	0.034000	0.450300	0.395400
N501	N50	0.015350	0.376250	0.478300
N511	N51	0.977190	0.455940	0.451640
N521	N52	0.019900	0.082700	0.018770
H1461	H146	0.051600	0.094800	0.025100
N531	N53	0.909220	0.485560	0.490930
H1471	H147	0.891100	0.480500	0.515200
N541	N54	0.907200	0.966900	0.069810
H1481	H148	0.891600	0.967800	0.039400
N551	N55	0.046840	0.021500	0.176310
H1491	H149	0.036600	0.998800	0.196400
N561	N56	0.037170	0.050600	0.095480
N571	N57	0.962600	0.023000	0.042130
N581	N58	0.977710	0.993700	0.125480
N591	N59	0.989250	0.336900	0.544640
H1501	H150	0.011900	0.313700	0.538900
N601	N60	0.947940	0.412360	0.518710
O531	O53	0.217860	0.269890	0.363760
O541	O54	0.234880	0.341840	0.325490
O551	O55	0.853360	0.153110	0.843430
O561	O56	0.912200	0.214610	0.840430
O571	O57	0.873960	0.672980	0.345780
O581	O58	0.801870	0.679250	0.380920
O591	O59	0.802360	0.862590	0.239390
O601	O60	0.803400	0.797040	0.187680
O611	O61	0.204260	0.169680	0.305400
O621	O62	0.240880	0.165020	0.237720
O631	O63	0.912410	0.278860	0.749060
O641	O64	0.839450	0.308560	0.706940
O651	O65	0.299860	0.250910	0.287480
Zn171	Zn17	0.257270	0.218560	0.330190
Zn181	Zn18	0.295590	0.322450	0.296170
Zn191	Zn19	0.272760	0.232760	0.216990
Zn201	Zn20	0.371460	0.232280	0.302290
C2411	C241	0.709330	0.816300	0.351920
C2421	C242	0.664020	0.842190	0.368650
C2431	C243	0.636200	0.820300	0.402200
H1511	H151	0.645300	0.787300	0.414200
C2441	C244	0.595200	0.845500	0.418700
H1521	H152	0.576500	0.830000	0.442100
C2451	C245	0.581600	0.894110	0.400660
C2461	C246	0.609100	0.915620	0.365970
H1531	H153	0.599700	0.948100	0.352800
C2471	C247	0.650330	0.889550	0.350670
H1541	H154	0.669400	0.904700	0.327400
C2481	C248	0.510900	0.916900	0.450150
C2491	C249	0.397560	0.673500	0.857020
C2501	C250	0.432900	0.646100	0.894820
C2511	C251	0.418400	0.599500	0.911820
H1551	H155	0.388200	0.583100	0.895800
C2521	C252	0.447300	0.576300	0.951800
H1561	H156	0.436900	0.544300	0.963100
C2531	C253	0.491100	0.600000	0.975190
C2541	C254	0.507900	0.645700	0.956150
H1571	H157	0.539300	0.661000	0.970600
C2551	C255	0.478700	0.668100	0.916640
H1581	H158	0.490000	0.699200	0.904100
C2561	C256	0.344800	0.159540	0.376120
C2571	C257	0.362100	0.114520	0.407470
C2581	C258	0.409300	0.092050	0.402700
H1591	H159	0.430300	0.106000	0.380400
C2591	C259	0.426400	0.049800	0.429800
H1601	H160	0.459200	0.035300	0.426500
C2601	C260	0.395500	0.028350	0.462070
C2611	C261	0.349690	0.053380	0.469200
H1611	H161	0.329900	0.041400	0.493400
C2621	C262	0.333280	0.094690	0.441750
H1621	H162	0.301300	0.110300	0.446200
C2631	C263	0.446900	0.950500	0.486500
C2641	C264	0.311200	0.342500	0.199500
C2651	C265	0.336400	0.376100	0.166020
C2661	C266	0.360600	0.419000	0.182230
H1631	H163	0.361100	0.428700	0.215500
C2671	C267	0.384900	0.449500	0.151200
H1641	H164	0.401800	0.479800	0.163400
C2681	C268	0.384600	0.436300	0.102570
C2691	C269	0.360600	0.393700	0.085910
H1651	H165	0.359100	0.385000	0.052300
C2701	C270	0.337800	0.361600	0.117400
H1661	H166	0.323200	0.330100	0.105800
C2711	C271	0.705900	0.653350	0.262200
C2721	C272	0.665950	0.616900	0.241200
C2731	C273	0.661400	0.606400	0.191100
H1671	H167	0.684900	0.621700	0.172000
C2741	C274	0.623300	0.574300	0.168800
H1681	H168	0.621500	0.567100	0.134800
C2751	C275	0.587400	0.552400	0.196140
C2761	C276	0.593900	0.560600	0.246370
H1691	H169	0.571800	0.543900	0.265900
C2771	C277	0.632680	0.593100	0.268800
H1701	H170	0.636000	0.598900	0.303100
C2781	C278	0.520400	0.521500	0.129630
C2791	C279	0.505700	0.550000	0.052700
C2801	C280	0.450900	0.495300	0.080000
C2811	C281	0.386340	0.797000	0.710230
C2821	C282	0.414190	0.807740	0.667680
C2831	C283	0.465760	0.792790	0.666420
H1711	H171	0.484100	0.775300	0.693600
C2841	C284	0.490150	0.803270	0.625970
H1721	H172	0.525100	0.793100	0.625600
C2851	C285	0.463590	0.828700	0.585820
C2861	C286	0.411820	0.843300	0.586570
H1731	H173	0.393200	0.860500	0.559400
C2871	C287	0.388270	0.832390	0.627390
H1741	H174	0.353200	0.842100	0.627700
C2881	C288	0.482900	0.876600	0.512770
N611	N61	0.541340	0.923130	0.413680
H1751	H175	0.534000	0.950300	0.395400
N621	N62	0.515350	0.876250	0.478300
N631	N63	0.477190	0.955940	0.451640
N641	N64	0.519900	0.582700	0.018770
H1761	H176	0.551600	0.594800	0.025100
N651	N65	0.409220	0.985560	0.490930
H1771	H177	0.391100	0.980500	0.515200
N661	N66	0.407200	0.466900	0.069810
H1781	H178	0.391600	0.467800	0.039400
N671	N67	0.546840	0.521500	0.176310
H1791	H179	0.536600	0.498800	0.196400
N681	N68	0.537170	0.550600	0.095480
N691	N69	0.462600	0.523000	0.042130
N701	N70	0.477710	0.493700	0.125480
N711	N71	0.489250	0.836900	0.544640
H1801	H180	0.511900	0.813700	0.538900
N721	N72	0.447940	0.912360	0.518710
O661	O66	0.717860	0.769890	0.363760
O671	O67	0.734880	0.841840	0.325490
O681	O68	0.353360	0.653110	0.843430
O691	O69	0.412200	0.714610	0.840430
O701	O70	0.373960	0.172980	0.345780
O711	O71	0.301870	0.179250	0.380920
O721	O72	0.302360	0.362590	0.239390
O731	O73	0.303400	0.297040	0.187680
O741	O74	0.704260	0.669680	0.305400
O751	O75	0.740880	0.665020	0.237720
O761	O76	0.412410	0.778860	0.749060
O771	O77	0.339450	0.808560	0.706940
O781	O78	0.799860	0.750910	0.287480
Zn211	Zn21	0.757270	0.718560	0.330190
Zn221	Zn22	0.795590	0.822450	0.296170
Zn231	Zn23	0.772760	0.732760	0.216990
Zn241	Zn24	0.871460	0.732280	0.302290
C2891	C289	0.209330	0.683700	0.851920
C2901	C290	0.164020	0.657810	0.868650
C2911	C291	0.136200	0.679700	0.902200
H1811	H181	0.145300	0.712700	0.914200
C2921	C292	0.095200	0.654500	0.918700
H1821	H182	0.076500	0.670000	0.942100
C2931	C293	0.081600	0.605890	0.900660
C2941	C294	0.109100	0.584380	0.865970
H1831	H183	0.099700	0.551900	0.852800
C2951	C295	0.150330	0.610450	0.850670
H1841	H184	0.169400	0.595300	0.827400
C2961	C296	0.010900	0.583100	0.950150
C2971	C297	0.897560	0.826500	0.357020
C2981	C298	0.932900	0.853900	0.394820
C2991	C299	0.918400	0.900500	0.411820
H1851	H185	0.888200	0.916900	0.395800
C3001	C300	0.947300	0.923700	0.451800
H1861	H186	0.936900	0.955700	0.463100
C3011	C301	0.991100	0.900000	0.475190
C3021	C302	0.007900	0.854300	0.456150
H1871	H187	0.039300	0.839000	0.470600
C3031	C303	0.978700	0.831900	0.416640
H1881	H188	0.990000	0.800800	0.404100
C3041	C304	0.844800	0.340460	0.876120
C3051	C305	0.862100	0.385480	0.907470
C3061	C306	0.909300	0.407950	0.902700
H1891	H189	0.930300	0.394000	0.880400
C3071	C307	0.926400	0.450200	0.929800
H1901	H190	0.959200	0.464700	0.926500
C3081	C308	0.895500	0.471650	0.962070
C3091	C309	0.849690	0.446620	0.969200
H1911	H191	0.829900	0.458600	0.993400
C3101	C310	0.833280	0.405310	0.941750
H1921	H192	0.801300	0.389700	0.946200
C3111	C311	0.946900	0.549500	0.986500
C3121	C312	0.811200	0.157500	0.699500
C3131	C313	0.836400	0.123900	0.666020
C3141	C314	0.860600	0.081000	0.682230
H1931	H193	0.861100	0.071300	0.715500
C3151	C315	0.884900	0.050500	0.651200
H1941	H194	0.901800	0.020200	0.663400
C3161	C316	0.884600	0.063700	0.602570
C3171	C317	0.860600	0.106300	0.585910
H1951	H195	0.859100	0.115000	0.552300
C3181	C318	0.837800	0.138400	0.617400
H1961	H196	0.823200	0.169900	0.605800
C3191	C319	0.205900	0.846650	0.762200
C3201	C320	0.165950	0.883100	0.741200
C3211	C321	0.161400	0.893600	0.691100
H1971	H197	0.184900	0.878300	0.672000
C3221	C322	0.123300	0.925700	0.668800
H1981	H198	0.121500	0.932900	0.634800
C3231	C323	0.087400	0.947600	0.696140
C3241	C324	0.093900	0.939400	0.746370
H1991	H199	0.071800	0.956100	0.765900
C3251	C325	0.132680	0.906900	0.768800
H2001	H200	0.136000	0.901100	0.803100
C3261	C326	0.020400	0.978500	0.629630
C3271	C327	0.005700	0.950000	0.552700
C3281	C328	0.950900	0.004700	0.580000
C3291	C329	0.886340	0.703000	0.210230
C3301	C330	0.914190	0.692260	0.167680
C3311	C331	0.965760	0.707210	0.166420
H2011	H201	0.984100	0.724700	0.193600
C3321	C332	0.990150	0.696730	0.125970
H2021	H202	0.025100	0.706900	0.125600
C3331	C333	0.963590	0.671300	0.085820
C3341	C334	0.911820	0.656700	0.086570
H2031	H203	0.893200	0.639500	0.059400
C3351	C335	0.888270	0.667610	0.127390
H2041	H204	0.853200	0.657900	0.127700
C3361	C336	0.982900	0.623400	0.012770
N731	N73	0.041340	0.576870	0.913680
H2051	H205	0.034000	0.549700	0.895400
N741	N74	0.015350	0.623750	0.978300
N751	N75	0.977190	0.544060	0.951640
N761	N76	0.019900	0.917300	0.518770
H2061	H206	0.051600	0.905200	0.525100
N771	N77	0.909220	0.514440	0.990930
H2071	H207	0.891100	0.519500	0.015200
N781	N78	0.907200	0.033100	0.569810
H2081	H208	0.891600	0.032200	0.539400
N791	N79	0.046840	0.978500	0.676310
H2091	H209	0.036600	0.001200	0.696400
N801	N80	0.037170	0.949400	0.595480
N811	N81	0.962600	0.977000	0.542130
N821	N82	0.977710	0.006300	0.625480
N831	N83	0.989250	0.663100	0.044640
H2101	H210	0.011900	0.686300	0.038900
N841	N84	0.947940	0.587640	0.018710
O791	O79	0.217860	0.730110	0.863760
O801	O80	0.234880	0.658160	0.825490
O811	O81	0.853360	0.846890	0.343430
O821	O82	0.912200	0.785390	0.340430
O831	O83	0.873960	0.327020	0.845780
O841	O84	0.801870	0.320750	0.880920
O851	O85	0.802360	0.137410	0.739390
O861	O86	0.803400	0.202960	0.687680
O871	O87	0.204260	0.830320	0.805400
O881	O88	0.240880	0.834980	0.737720
O891	O89	0.912410	0.721140	0.249060
O901	O90	0.839450	0.691440	0.206940
O911	O91	0.299860	0.749090	0.787480
Zn251	Zn25	0.257270	0.781440	0.830190
Zn261	Zn26	0.295590	0.677550	0.796170
Zn271	Zn27	0.272760	0.767240	0.716990
Zn281	Zn28	0.371460	0.767720	0.802290
C3371	C337	0.709330	0.183700	0.851920
C3381	C338	0.664020	0.157810	0.868650
C3391	C339	0.636200	0.179700	0.902200
H2111	H211	0.645300	0.212700	0.914200
C3401	C340	0.595200	0.154500	0.918700
H2121	H212	0.576500	0.170000	0.942100
C3411	C341	0.581600	0.105890	0.900660
C3421	C342	0.609100	0.084380	0.865970
H2131	H213	0.599700	0.051900	0.852800
C3431	C343	0.650330	0.110450	0.850670
H2141	H214	0.669400	0.095300	0.827400
C3441	C344	0.510900	0.083100	0.950150
C3451	C345	0.397560	0.326500	0.357020
C3461	C346	0.432900	0.353900	0.394820
C3471	C347	0.418400	0.400500	0.411820
H2151	H215	0.388200	0.416900	0.395800
C3481	C348	0.447300	0.423700	0.451800
H2161	H216	0.436900	0.455700	0.463100
C3491	C349	0.491100	0.400000	0.475190
C3501	C350	0.507900	0.354300	0.456150
H2171	H217	0.539300	0.339000	0.470600
C3511	C351	0.478700	0.331900	0.416640
H2181	H218	0.490000	0.300800	0.404100
C3521	C352	0.344800	0.840460	0.876120
C3531	C353	0.362100	0.885480	0.907470
C3541	C354	0.409300	0.907950	0.902700
H2191	H219	0.430300	0.894000	0.880400
C3551	C355	0.426400	0.950200	0.929800
H2201	H220	0.459200	0.964700	0.926500
C3561	C356	0.395500	0.971650	0.962070
C3571	C357	0.349690	0.946620	0.969200
H2211	H221	0.329900	0.958600	0.993400
C3581	C358	0.333280	0.905310	0.941750
H2221	H222	0.301300	0.889700	0.946200
C3591	C359	0.446900	0.049500	0.986500
C3601	C360	0.311200	0.657500	0.699500
C3611	C361	0.336400	0.623900	0.666020
C3621	C362	0.360600	0.581000	0.682230
H2231	H223	0.361100	0.571300	0.715500
C3631	C363	0.384900	0.550500	0.651200
H2241	H224	0.401800	0.520200	0.663400
C3641	C364	0.384600	0.563700	0.602570
C3651	C365	0.360600	0.606300	0.585910
H2251	H225	0.359100	0.615000	0.552300
C3661	C366	0.337800	0.638400	0.617400
H2261	H226	0.323200	0.669900	0.605800
C3671	C367	0.705900	0.346650	0.762200
C3681	C368	0.665950	0.383100	0.741200
C3691	C369	0.661400	0.393600	0.691100
H2271	H227	0.684900	0.378300	0.672000
C3701	C370	0.623300	0.425700	0.668800
H2281	H228	0.621500	0.432900	0.634800
C3711	C371	0.587400	0.447600	0.696140
C3721	C372	0.593900	0.439400	0.746370
H2291	H229	0.571800	0.456100	0.765900
C3731	C373	0.632680	0.406900	0.768800
H2301	H230	0.636000	0.401100	0.803100
C3741	C374	0.520400	0.478500	0.629630
C3751	C375	0.505700	0.450000	0.552700
C3761	C376	0.450900	0.504700	0.580000
C3771	C377	0.386340	0.203000	0.210230
C3781	C378	0.414190	0.192260	0.167680
C3791	C379	0.465760	0.207210	0.166420
H2311	H231	0.484100	0.224700	0.193600
C3801	C380	0.490150	0.196730	0.125970
H2321	H232	0.525100	0.206900	0.125600
C3811	C381	0.463590	0.171300	0.085820
C3821	C382	0.411820	0.156700	0.086570
H2331	H233	0.393200	0.139500	0.059400
C3831	C383	0.388270	0.167610	0.127390
H2341	H234	0.353200	0.157900	0.127700
C3841	C384	0.482900	0.123400	0.012770
N851	N85	0.541340	0.076870	0.913680
H2351	H235	0.534000	0.049700	0.895400
N861	N86	0.515350	0.123750	0.978300
N871	N87	0.477190	0.044060	0.951640
N881	N88	0.519900	0.417300	0.518770
H2361	H236	0.551600	0.405200	0.525100
N891	N89	0.409220	0.014440	0.990930
H2371	H237	0.391100	0.019500	0.015200
N901	N90	0.407200	0.533100	0.569810
H2381	H238	0.391600	0.532200	0.539400
N911	N91	0.546840	0.478500	0.676310
H2391	H239	0.536600	0.501200	0.696400
N921	N92	0.537170	0.449400	0.595480
N931	N93	0.462600	0.477000	0.542130
N941	N94	0.477710	0.506300	0.625480
N951	N95	0.489250	0.163100	0.044640
H2401	H240	0.511900	0.186300	0.038900
N961	N96	0.447940	0.087640	0.018710
O921	O92	0.717860	0.230110	0.863760
O931	O93	0.734880	0.158160	0.825490
O941	O94	0.353360	0.346890	0.343430
O951	O95	0.412200	0.285390	0.340430
O961	O96	0.373960	0.827020	0.845780
O971	O97	0.301870	0.820750	0.880920
O981	O98	0.302360	0.637410	0.739390
O991	O99	0.303400	0.702960	0.687680
O1001	O100	0.704260	0.330320	0.805400
O1011	O101	0.740880	0.334980	0.737720
O1021	O102	0.412410	0.221140	0.249060
O1031	O103	0.339450	0.191440	0.206940
O1041	O104	0.799860	0.249090	0.787480
Zn291	Zn29	0.757270	0.281440	0.830190
Zn301	Zn30	0.795590	0.177550	0.796170
Zn311	Zn31	0.772760	0.267240	0.716990
Zn321	Zn32	0.871460	0.267720	0.802290
