data_KULZEY_clean_PM
_symmetry_space_group_name_H-M	'P1'
_cell_length_a	46.330000
_cell_length_b	10.727000
_cell_length_c	23.714000
_cell_angle_alpha	90.000000
_cell_angle_beta	95.872000
_cell_angle_gamma	90.000000
_symmetry_Int_Tables_number 1

loop_
_symmetry_equiv_pos_as_xyz
'x,y,z'

loop_
_atom_site_label
_atom_site_type_symbol
_atom_site_fract_x
_atom_site_fract_y
_atom_site_fract_z
C11	C1	0.965360	0.245800	0.007620
C21	C2	0.939690	0.186000	0.974410
C31	C3	0.902510	0.181700	0.897180
H11	H1	0.892200	0.220800	0.866400
C41	C4	0.896280	0.061700	0.911070
C51	C5	0.932370	0.065700	0.989020
H21	H2	0.942400	0.027000	0.020300
C61	C6	0.910250	0.003200	0.957170
H31	H3	0.905000	0.923000	0.967000
C71	C7	0.924420	0.244100	0.929770
H41	H4	0.928700	0.326100	0.921200
C81	C8	0.828670	0.708400	0.930310
C91	C9	0.861510	0.899600	0.895000
C101	C10	0.843230	0.920600	0.934700
H51	H5	0.841500	0.000400	0.949200
C111	C11	0.863900	0.786900	0.871660
H61	H6	0.876500	0.773500	0.844200
C121	C12	0.847010	0.690200	0.889610
H71	H7	0.848300	0.611600	0.873500
C131	C13	0.827260	0.825100	0.953680
H81	H8	0.815400	0.839100	0.982400
C141	C14	0.810270	0.603400	0.948870
C151	C15	0.762320	0.237400	0.120120
C161	C16	0.789560	0.289500	0.150040
C171	C17	0.804830	0.223600	0.193020
H91	H9	0.798400	0.145100	0.202700
C181	C18	0.799520	0.402200	0.135810
H101	H10	0.789400	0.446700	0.106400
C191	C19	0.839140	0.388400	0.207020
C201	C20	0.829720	0.273000	0.222120
H111	H11	0.839900	0.228500	0.251400
C211	C21	0.824850	0.454000	0.164350
H121	H12	0.831600	0.531600	0.154100
C221	C22	0.936840	0.527100	0.221800
H131	H13	0.951100	0.577500	0.240300
C231	C23	0.942860	0.461000	0.174190
C241	C24	0.893750	0.385200	0.165800
H141	H14	0.879000	0.339400	0.145900
C251	C25	0.888580	0.447500	0.213840
C261	C26	0.972230	0.463300	0.152470
C271	C27	0.910020	0.519700	0.242410
H151	H15	0.906500	0.562700	0.275100
C281	C28	0.920940	0.390000	0.146660
H161	H16	0.924500	0.344700	0.114700
C291	C29	0.067050	0.073300	0.207040
C301	C30	0.051430	0.269200	0.170360
H171	H17	0.052500	0.355500	0.173500
C311	C31	0.067830	0.199800	0.210290
H181	H18	0.079400	0.239000	0.239400
C321	C32	0.033840	0.100900	0.124810
H191	H19	0.022600	0.064600	0.094400
C331	C33	0.048890	0.022700	0.163420
H201	H20	0.046800	0.936700	0.160100
C341	C34	0.101350	0.042700	0.286280
H211	H21	0.091600	0.102300	0.308600
H221	H22	0.117200	0.084700	0.270300
C351	C35	0.029220	0.755400	0.457650
H231	H23	0.009800	0.778600	0.451400
C361	C36	0.065050	0.654000	0.510220
H241	H24	0.071300	0.605100	0.541500
C371	C37	0.084540	0.682300	0.473650
H251	H25	0.103600	0.654000	0.480200
C381	C38	0.046890	0.790000	0.417760
H261	H26	0.039800	0.835900	0.386100
C391	C39	0.075870	0.754200	0.426070
C401	C40	0.087230	0.882000	0.349710
H271	H27	0.077300	0.949000	0.367300
H281	H28	0.073700	0.845100	0.320500
C411	C41	0.126680	0.836900	0.288350
H291	H29	0.135000	0.770600	0.312700
H301	H30	0.112400	0.801100	0.260100
C421	C42	0.112790	0.934800	0.322890
C431	C43	0.136470	0.979000	0.367800
H311	H31	0.142700	0.909900	0.392500
H321	H32	0.153100	0.007400	0.349500
C441	C44	0.176790	0.663200	0.172040
H331	H33	0.175000	0.578300	0.164600
C451	C45	0.163260	0.837300	0.225080
C461	C46	0.196750	0.846300	0.155460
H341	H34	0.209400	0.893900	0.136200
C471	C47	0.160830	0.712000	0.213180
H351	H35	0.148800	0.661300	0.232300
C481	C48	0.182130	0.906600	0.195520
H361	H36	0.184800	0.991400	0.202500
C491	C49	0.156530	0.287300	0.508850
H371	H37	0.149700	0.350600	0.530800
C501	C50	0.146060	0.133300	0.437770
C511	C51	0.137050	0.226900	0.470390
H381	H38	0.117600	0.250400	0.466700
C521	C52	0.174670	0.100700	0.445020
H391	H39	0.181800	0.036400	0.424100
C531	C53	0.192540	0.166000	0.484300
H401	H40	0.212000	0.142600	0.489100
Co11	Co1	0.008540	0.331050	0.069110
Co21	Co2	0.714900	0.151640	0.074690
N11	N1	0.037330	0.691500	0.504750
N21	N2	0.184740	0.259400	0.516050
N31	N3	0.034260	0.222600	0.127910
N41	N4	0.194410	0.728300	0.142280
O11	O1	0.748150	0.298070	0.081690
O21	O2	0.753720	0.130460	0.134150
O31	O3	0.977630	0.370510	0.122930
O41	O4	0.988890	0.551550	0.164210
O51	O5	0.981000	0.180320	0.043030
O61	O6	0.971320	0.358760	0.999700
O71	O7	0.808180	0.508270	0.918640
O81	O8	0.798190	0.619100	0.992930
O91	O9	0.876180	0.000290	0.873260
O101	O10	0.863240	0.439800	0.239250
O111	O11	0.081420	0.992620	0.242220
O121	O12	0.126210	0.078240	0.400720
O131	O13	0.096130	0.788810	0.391890
O141	O14	0.148700	0.899300	0.261830
C541	C54	0.465360	0.745800	0.007620
C551	C55	0.439690	0.686000	0.974410
C561	C56	0.402510	0.681700	0.897180
H411	H41	0.392200	0.720800	0.866400
C571	C57	0.396280	0.561700	0.911070
C581	C58	0.432370	0.565700	0.989020
H421	H42	0.442400	0.527000	0.020300
C591	C59	0.410250	0.503200	0.957170
H431	H43	0.405000	0.423000	0.967000
C601	C60	0.424420	0.744100	0.929770
H441	H44	0.428700	0.826100	0.921200
C611	C61	0.328670	0.208400	0.930310
C621	C62	0.361510	0.399600	0.895000
C631	C63	0.343230	0.420600	0.934700
H451	H45	0.341500	0.500400	0.949200
C641	C64	0.363900	0.286900	0.871660
H461	H46	0.376500	0.273500	0.844200
C651	C65	0.347010	0.190200	0.889610
H471	H47	0.348300	0.111600	0.873500
C661	C66	0.327260	0.325100	0.953680
H481	H48	0.315400	0.339100	0.982400
C671	C67	0.310270	0.103400	0.948870
C681	C68	0.262320	0.737400	0.120120
C691	C69	0.289560	0.789500	0.150040
C701	C70	0.304830	0.723600	0.193020
H491	H49	0.298400	0.645100	0.202700
C711	C71	0.299520	0.902200	0.135810
H501	H50	0.289400	0.946700	0.106400
C721	C72	0.339140	0.888400	0.207020
C731	C73	0.329720	0.773000	0.222120
H511	H51	0.339900	0.728500	0.251400
C741	C74	0.324850	0.954000	0.164350
H521	H52	0.331600	0.031600	0.154100
C751	C75	0.436840	0.027100	0.221800
H531	H53	0.451100	0.077500	0.240300
C761	C76	0.442860	0.961000	0.174190
C771	C77	0.393750	0.885200	0.165800
H541	H54	0.379000	0.839400	0.145900
C781	C78	0.388580	0.947500	0.213840
C791	C79	0.472230	0.963300	0.152470
C801	C80	0.410020	0.019700	0.242410
H551	H55	0.406500	0.062700	0.275100
C811	C81	0.420940	0.890000	0.146660
H561	H56	0.424500	0.844700	0.114700
C821	C82	0.567050	0.573300	0.207040
C831	C83	0.551430	0.769200	0.170360
H571	H57	0.552500	0.855500	0.173500
C841	C84	0.567830	0.699800	0.210290
H581	H58	0.579400	0.739000	0.239400
C851	C85	0.533840	0.600900	0.124810
H591	H59	0.522600	0.564600	0.094400
C861	C86	0.548890	0.522700	0.163420
H601	H60	0.546800	0.436700	0.160100
C871	C87	0.601350	0.542700	0.286280
H611	H61	0.591600	0.602300	0.308600
H621	H62	0.617200	0.584700	0.270300
C881	C88	0.529220	0.255400	0.457650
H631	H63	0.509800	0.278600	0.451400
C891	C89	0.565050	0.154000	0.510220
H641	H64	0.571300	0.105100	0.541500
C901	C90	0.584540	0.182300	0.473650
H651	H65	0.603600	0.154000	0.480200
C911	C91	0.546890	0.290000	0.417760
H661	H66	0.539800	0.335900	0.386100
C921	C92	0.575870	0.254200	0.426070
C931	C93	0.587230	0.382000	0.349710
H671	H67	0.577300	0.449000	0.367300
H681	H68	0.573700	0.345100	0.320500
C941	C94	0.626680	0.336900	0.288350
H691	H69	0.635000	0.270600	0.312700
H701	H70	0.612400	0.301100	0.260100
C951	C95	0.612790	0.434800	0.322890
C961	C96	0.636470	0.479000	0.367800
H711	H71	0.642700	0.409900	0.392500
H721	H72	0.653100	0.507400	0.349500
C971	C97	0.676790	0.163200	0.172040
H731	H73	0.675000	0.078300	0.164600
C981	C98	0.663260	0.337300	0.225080
C991	C99	0.696750	0.346300	0.155460
H741	H74	0.709400	0.393900	0.136200
C1001	C100	0.660830	0.212000	0.213180
H751	H75	0.648800	0.161300	0.232300
C1011	C101	0.682130	0.406600	0.195520
H761	H76	0.684800	0.491400	0.202500
C1021	C102	0.656530	0.787300	0.508850
H771	H77	0.649700	0.850600	0.530800
C1031	C103	0.646060	0.633300	0.437770
C1041	C104	0.637050	0.726900	0.470390
H781	H78	0.617600	0.750400	0.466700
C1051	C105	0.674670	0.600700	0.445020
H791	H79	0.681800	0.536400	0.424100
C1061	C106	0.692540	0.666000	0.484300
H801	H80	0.712000	0.642600	0.489100
Co31	Co3	0.508540	0.831050	0.069110
Co41	Co4	0.214900	0.651640	0.074690
N51	N5	0.537330	0.191500	0.504750
N61	N6	0.684740	0.759400	0.516050
N71	N7	0.534260	0.722600	0.127910
N81	N8	0.694410	0.228300	0.142280
O151	O15	0.248150	0.798070	0.081690
O161	O16	0.253720	0.630460	0.134150
O171	O17	0.477630	0.870510	0.122930
O181	O18	0.488890	0.051550	0.164210
O191	O19	0.481000	0.680320	0.043030
O201	O20	0.471320	0.858760	0.999700
O211	O21	0.308180	0.008270	0.918640
O221	O22	0.298190	0.119100	0.992930
O231	O23	0.376180	0.500290	0.873260
O241	O24	0.363240	0.939800	0.239250
O251	O25	0.581420	0.492620	0.242220
O261	O26	0.626210	0.578240	0.400720
O271	O27	0.596130	0.288810	0.391890
O281	O28	0.648700	0.399300	0.261830
C1071	C107	0.034640	0.245800	0.492380
C1081	C108	0.060310	0.186000	0.525590
C1091	C109	0.097490	0.181700	0.602820
H811	H81	0.107800	0.220800	0.633600
C1101	C110	0.103720	0.061700	0.588930
C1111	C111	0.067630	0.065700	0.510980
H821	H82	0.057600	0.027000	0.479700
C1121	C112	0.089750	0.003200	0.542830
H831	H83	0.095000	0.923000	0.533000
C1131	C113	0.075580	0.244100	0.570230
H841	H84	0.071300	0.326100	0.578800
C1141	C114	0.171330	0.708400	0.569690
C1151	C115	0.138490	0.899600	0.605000
C1161	C116	0.156770	0.920600	0.565300
H851	H85	0.158500	0.000400	0.550800
C1171	C117	0.136100	0.786900	0.628340
H861	H86	0.123500	0.773500	0.655800
C1181	C118	0.152990	0.690200	0.610390
H871	H87	0.151700	0.611600	0.626500
C1191	C119	0.172740	0.825100	0.546320
H881	H88	0.184600	0.839100	0.517600
C1201	C120	0.189730	0.603400	0.551130
C1211	C121	0.237680	0.237400	0.379880
C1221	C122	0.210440	0.289500	0.349960
C1231	C123	0.195170	0.223600	0.306980
H891	H89	0.201600	0.145100	0.297300
C1241	C124	0.200480	0.402200	0.364190
H901	H90	0.210600	0.446700	0.393600
C1251	C125	0.160860	0.388400	0.292980
C1261	C126	0.170280	0.273000	0.277880
H911	H91	0.160100	0.228500	0.248600
C1271	C127	0.175150	0.454000	0.335650
H921	H92	0.168400	0.531600	0.345900
C1281	C128	0.063160	0.527100	0.278200
H931	H93	0.048900	0.577500	0.259700
C1291	C129	0.057140	0.461000	0.325810
C1301	C130	0.106250	0.385200	0.334200
H941	H94	0.121000	0.339400	0.354100
C1311	C131	0.111420	0.447500	0.286160
C1321	C132	0.027770	0.463300	0.347530
C1331	C133	0.089980	0.519700	0.257590
H951	H95	0.093500	0.562700	0.224900
C1341	C134	0.079060	0.390000	0.353340
H961	H96	0.075500	0.344700	0.385300
C1351	C135	0.932950	0.073300	0.292960
C1361	C136	0.948570	0.269200	0.329640
H971	H97	0.947500	0.355500	0.326500
C1371	C137	0.932170	0.199800	0.289710
H981	H98	0.920600	0.239000	0.260600
C1381	C138	0.966160	0.100900	0.375190
H991	H99	0.977400	0.064600	0.405600
C1391	C139	0.951110	0.022700	0.336580
H1001	H100	0.953200	0.936700	0.339900
C1401	C140	0.898650	0.042700	0.213720
H1011	H101	0.908400	0.102300	0.191400
H1021	H102	0.882800	0.084700	0.229700
C1411	C141	0.970780	0.755400	0.042350
H1031	H103	0.990200	0.778600	0.048600
C1421	C142	0.934950	0.654000	0.989780
H1041	H104	0.928700	0.605100	0.958500
C1431	C143	0.915460	0.682300	0.026350
H1051	H105	0.896400	0.654000	0.019800
C1441	C144	0.953110	0.790000	0.082240
H1061	H106	0.960200	0.835900	0.113900
C1451	C145	0.924130	0.754200	0.073930
C1461	C146	0.912770	0.882000	0.150290
H1071	H107	0.922700	0.949000	0.132700
H1081	H108	0.926300	0.845100	0.179500
C1471	C147	0.873320	0.836900	0.211650
H1091	H109	0.865000	0.770600	0.187300
H1101	H110	0.887600	0.801100	0.239900
C1481	C148	0.887210	0.934800	0.177110
C1491	C149	0.863530	0.979000	0.132200
H1111	H111	0.857300	0.909900	0.107500
H1121	H112	0.846900	0.007400	0.150500
C1501	C150	0.823210	0.663200	0.327960
H1131	H113	0.825000	0.578300	0.335400
C1511	C151	0.836740	0.837300	0.274920
C1521	C152	0.803250	0.846300	0.344540
H1141	H114	0.790600	0.893900	0.363800
C1531	C153	0.839170	0.712000	0.286820
H1151	H115	0.851200	0.661300	0.267700
C1541	C154	0.817870	0.906600	0.304480
H1161	H116	0.815200	0.991400	0.297500
C1551	C155	0.843470	0.287300	0.991150
H1171	H117	0.850300	0.350600	0.969200
C1561	C156	0.853940	0.133300	0.062230
C1571	C157	0.862950	0.226900	0.029610
H1181	H118	0.882400	0.250400	0.033300
C1581	C158	0.825330	0.100700	0.054980
H1191	H119	0.818200	0.036400	0.075900
C1591	C159	0.807460	0.166000	0.015700
H1201	H120	0.788000	0.142600	0.010900
Co51	Co5	0.991460	0.331050	0.430890
Co61	Co6	0.285100	0.151640	0.425310
N91	N9	0.962670	0.691500	0.995250
N101	N10	0.815260	0.259400	0.983950
N111	N11	0.965740	0.222600	0.372090
N121	N12	0.805590	0.728300	0.357720
O291	O29	0.251850	0.298070	0.418310
O301	O30	0.246280	0.130460	0.365850
O311	O31	0.022370	0.370510	0.377070
O321	O32	0.011110	0.551550	0.335790
O331	O33	0.019000	0.180320	0.456970
O341	O34	0.028680	0.358760	0.500300
O351	O35	0.191820	0.508270	0.581360
O361	O36	0.201810	0.619100	0.507070
O371	O37	0.123820	0.000290	0.626740
O381	O38	0.136760	0.439800	0.260750
O391	O39	0.918580	0.992620	0.257780
O401	O40	0.873790	0.078240	0.099280
O411	O41	0.903870	0.788810	0.108110
O421	O42	0.851300	0.899300	0.238170
C1601	C160	0.534640	0.745800	0.492380
C1611	C161	0.560310	0.686000	0.525590
C1621	C162	0.597490	0.681700	0.602820
H1211	H121	0.607800	0.720800	0.633600
C1631	C163	0.603720	0.561700	0.588930
C1641	C164	0.567630	0.565700	0.510980
H1221	H122	0.557600	0.527000	0.479700
C1651	C165	0.589750	0.503200	0.542830
H1231	H123	0.595000	0.423000	0.533000
C1661	C166	0.575580	0.744100	0.570230
H1241	H124	0.571300	0.826100	0.578800
C1671	C167	0.671330	0.208400	0.569690
C1681	C168	0.638490	0.399600	0.605000
C1691	C169	0.656770	0.420600	0.565300
H1251	H125	0.658500	0.500400	0.550800
C1701	C170	0.636100	0.286900	0.628340
H1261	H126	0.623500	0.273500	0.655800
C1711	C171	0.652990	0.190200	0.610390
H1271	H127	0.651700	0.111600	0.626500
C1721	C172	0.672740	0.325100	0.546320
H1281	H128	0.684600	0.339100	0.517600
C1731	C173	0.689730	0.103400	0.551130
C1741	C174	0.737680	0.737400	0.379880
C1751	C175	0.710440	0.789500	0.349960
C1761	C176	0.695170	0.723600	0.306980
H1291	H129	0.701600	0.645100	0.297300
C1771	C177	0.700480	0.902200	0.364190
H1301	H130	0.710600	0.946700	0.393600
C1781	C178	0.660860	0.888400	0.292980
C1791	C179	0.670280	0.773000	0.277880
H1311	H131	0.660100	0.728500	0.248600
C1801	C180	0.675150	0.954000	0.335650
H1321	H132	0.668400	0.031600	0.345900
C1811	C181	0.563160	0.027100	0.278200
H1331	H133	0.548900	0.077500	0.259700
C1821	C182	0.557140	0.961000	0.325810
C1831	C183	0.606250	0.885200	0.334200
H1341	H134	0.621000	0.839400	0.354100
C1841	C184	0.611420	0.947500	0.286160
C1851	C185	0.527770	0.963300	0.347530
C1861	C186	0.589980	0.019700	0.257590
H1351	H135	0.593500	0.062700	0.224900
C1871	C187	0.579060	0.890000	0.353340
H1361	H136	0.575500	0.844700	0.385300
C1881	C188	0.432950	0.573300	0.292960
C1891	C189	0.448570	0.769200	0.329640
H1371	H137	0.447500	0.855500	0.326500
C1901	C190	0.432170	0.699800	0.289710
H1381	H138	0.420600	0.739000	0.260600
C1911	C191	0.466160	0.600900	0.375190
H1391	H139	0.477400	0.564600	0.405600
C1921	C192	0.451110	0.522700	0.336580
H1401	H140	0.453200	0.436700	0.339900
C1931	C193	0.398650	0.542700	0.213720
H1411	H141	0.408400	0.602300	0.191400
H1421	H142	0.382800	0.584700	0.229700
C1941	C194	0.470780	0.255400	0.042350
H1431	H143	0.490200	0.278600	0.048600
C1951	C195	0.434950	0.154000	0.989780
H1441	H144	0.428700	0.105100	0.958500
C1961	C196	0.415460	0.182300	0.026350
H1451	H145	0.396400	0.154000	0.019800
C1971	C197	0.453110	0.290000	0.082240
H1461	H146	0.460200	0.335900	0.113900
C1981	C198	0.424130	0.254200	0.073930
C1991	C199	0.412770	0.382000	0.150290
H1471	H147	0.422700	0.449000	0.132700
H1481	H148	0.426300	0.345100	0.179500
C2001	C200	0.373320	0.336900	0.211650
H1491	H149	0.365000	0.270600	0.187300
H1501	H150	0.387600	0.301100	0.239900
C2011	C201	0.387210	0.434800	0.177110
C2021	C202	0.363530	0.479000	0.132200
H1511	H151	0.357300	0.409900	0.107500
H1521	H152	0.346900	0.507400	0.150500
C2031	C203	0.323210	0.163200	0.327960
H1531	H153	0.325000	0.078300	0.335400
C2041	C204	0.336740	0.337300	0.274920
C2051	C205	0.303250	0.346300	0.344540
H1541	H154	0.290600	0.393900	0.363800
C2061	C206	0.339170	0.212000	0.286820
H1551	H155	0.351200	0.161300	0.267700
C2071	C207	0.317870	0.406600	0.304480
H1561	H156	0.315200	0.491400	0.297500
C2081	C208	0.343470	0.787300	0.991150
H1571	H157	0.350300	0.850600	0.969200
C2091	C209	0.353940	0.633300	0.062230
C2101	C210	0.362950	0.726900	0.029610
H1581	H158	0.382400	0.750400	0.033300
C2111	C211	0.325330	0.600700	0.054980
H1591	H159	0.318200	0.536400	0.075900
C2121	C212	0.307460	0.666000	0.015700
H1601	H160	0.288000	0.642600	0.010900
Co71	Co7	0.491460	0.831050	0.430890
Co81	Co8	0.785100	0.651640	0.425310
N131	N13	0.462670	0.191500	0.995250
N141	N14	0.315260	0.759400	0.983950
N151	N15	0.465740	0.722600	0.372090
N161	N16	0.305590	0.228300	0.357720
O431	O43	0.751850	0.798070	0.418310
O441	O44	0.746280	0.630460	0.365850
O451	O45	0.522370	0.870510	0.377070
O461	O46	0.511110	0.051550	0.335790
O471	O47	0.519000	0.680320	0.456970
O481	O48	0.528680	0.858760	0.500300
O491	O49	0.691820	0.008270	0.581360
O501	O50	0.701810	0.119100	0.507070
O511	O51	0.623820	0.500290	0.626740
O521	O52	0.636760	0.939800	0.260750
O531	O53	0.418580	0.492620	0.257780
O541	O54	0.373790	0.578240	0.099280
O551	O55	0.403870	0.288810	0.108110
O561	O56	0.351300	0.399300	0.238170
C2131	C213	0.034640	0.754200	0.992380
C2141	C214	0.060310	0.814000	0.025590
C2151	C215	0.097490	0.818300	0.102820
H1611	H161	0.107800	0.779200	0.133600
C2161	C216	0.103720	0.938300	0.088930
C2171	C217	0.067630	0.934300	0.010980
H1621	H162	0.057600	0.973000	0.979700
C2181	C218	0.089750	0.996800	0.042830
H1631	H163	0.095000	0.077000	0.033000
C2191	C219	0.075580	0.755900	0.070230
H1641	H164	0.071300	0.673900	0.078800
C2201	C220	0.171330	0.291600	0.069690
C2211	C221	0.138490	0.100400	0.105000
C2221	C222	0.156770	0.079400	0.065300
H1651	H165	0.158500	0.999600	0.050800
C2231	C223	0.136100	0.213100	0.128340
H1661	H166	0.123500	0.226500	0.155800
C2241	C224	0.152990	0.309800	0.110390
H1671	H167	0.151700	0.388400	0.126500
C2251	C225	0.172740	0.174900	0.046320
H1681	H168	0.184600	0.160900	0.017600
C2261	C226	0.189730	0.396600	0.051130
C2271	C227	0.237680	0.762600	0.879880
C2281	C228	0.210440	0.710500	0.849960
C2291	C229	0.195170	0.776400	0.806980
H1691	H169	0.201600	0.854900	0.797300
C2301	C230	0.200480	0.597800	0.864190
H1701	H170	0.210600	0.553300	0.893600
C2311	C231	0.160860	0.611600	0.792980
C2321	C232	0.170280	0.727000	0.777880
H1711	H171	0.160100	0.771500	0.748600
C2331	C233	0.175150	0.546000	0.835650
H1721	H172	0.168400	0.468400	0.845900
C2341	C234	0.063160	0.472900	0.778200
H1731	H173	0.048900	0.422500	0.759700
C2351	C235	0.057140	0.539000	0.825810
C2361	C236	0.106250	0.614800	0.834200
H1741	H174	0.121000	0.660600	0.854100
C2371	C237	0.111420	0.552500	0.786160
C2381	C238	0.027770	0.536700	0.847530
C2391	C239	0.089980	0.480300	0.757590
H1751	H175	0.093500	0.437300	0.724900
C2401	C240	0.079060	0.610000	0.853340
H1761	H176	0.075500	0.655300	0.885300
C2411	C241	0.932950	0.926700	0.792960
C2421	C242	0.948570	0.730800	0.829640
H1771	H177	0.947500	0.644500	0.826500
C2431	C243	0.932170	0.800200	0.789710
H1781	H178	0.920600	0.761000	0.760600
C2441	C244	0.966160	0.899100	0.875190
H1791	H179	0.977400	0.935400	0.905600
C2451	C245	0.951110	0.977300	0.836580
H1801	H180	0.953200	0.063300	0.839900
C2461	C246	0.898650	0.957300	0.713720
H1811	H181	0.908400	0.897700	0.691400
H1821	H182	0.882800	0.915300	0.729700
C2471	C247	0.970780	0.244600	0.542350
H1831	H183	0.990200	0.221400	0.548600
C2481	C248	0.934950	0.346000	0.489780
H1841	H184	0.928700	0.394900	0.458500
C2491	C249	0.915460	0.317700	0.526350
H1851	H185	0.896400	0.346000	0.519800
C2501	C250	0.953110	0.210000	0.582240
H1861	H186	0.960200	0.164100	0.613900
C2511	C251	0.924130	0.245800	0.573930
C2521	C252	0.912770	0.118000	0.650290
H1871	H187	0.922700	0.051000	0.632700
H1881	H188	0.926300	0.154900	0.679500
C2531	C253	0.873320	0.163100	0.711650
H1891	H189	0.865000	0.229400	0.687300
H1901	H190	0.887600	0.198900	0.739900
C2541	C254	0.887210	0.065200	0.677110
C2551	C255	0.863530	0.021000	0.632200
H1911	H191	0.857300	0.090100	0.607500
H1921	H192	0.846900	0.992600	0.650500
C2561	C256	0.823210	0.336800	0.827960
H1931	H193	0.825000	0.421700	0.835400
C2571	C257	0.836740	0.162700	0.774920
C2581	C258	0.803250	0.153700	0.844540
H1941	H194	0.790600	0.106100	0.863800
C2591	C259	0.839170	0.288000	0.786820
H1951	H195	0.851200	0.338700	0.767700
C2601	C260	0.817870	0.093400	0.804480
H1961	H196	0.815200	0.008600	0.797500
C2611	C261	0.843470	0.712700	0.491150
H1971	H197	0.850300	0.649400	0.469200
C2621	C262	0.853940	0.866700	0.562230
C2631	C263	0.862950	0.773100	0.529610
H1981	H198	0.882400	0.749600	0.533300
C2641	C264	0.825330	0.899300	0.554980
H1991	H199	0.818200	0.963600	0.575900
C2651	C265	0.807460	0.834000	0.515700
H2001	H200	0.788000	0.857400	0.510900
Co91	Co9	0.991460	0.668950	0.930890
Co101	Co10	0.285100	0.848360	0.925310
N171	N17	0.962670	0.308500	0.495250
N181	N18	0.815260	0.740600	0.483950
N191	N19	0.965740	0.777400	0.872090
N201	N20	0.805590	0.271700	0.857720
O571	O57	0.251850	0.701930	0.918310
O581	O58	0.246280	0.869540	0.865850
O591	O59	0.022370	0.629490	0.877070
O601	O60	0.011110	0.448450	0.835790
O611	O61	0.019000	0.819680	0.956970
O621	O62	0.028680	0.641240	0.000300
O631	O63	0.191820	0.491730	0.081360
O641	O64	0.201810	0.380900	0.007070
O651	O65	0.123820	0.999710	0.126740
O661	O66	0.136760	0.560200	0.760750
O671	O67	0.918580	0.007380	0.757780
O681	O68	0.873790	0.921760	0.599280
O691	O69	0.903870	0.211190	0.608110
O701	O70	0.851300	0.100700	0.738170
C2661	C266	0.534640	0.254200	0.992380
C2671	C267	0.560310	0.314000	0.025590
C2681	C268	0.597490	0.318300	0.102820
H2011	H201	0.607800	0.279200	0.133600
C2691	C269	0.603720	0.438300	0.088930
C2701	C270	0.567630	0.434300	0.010980
H2021	H202	0.557600	0.473000	0.979700
C2711	C271	0.589750	0.496800	0.042830
H2031	H203	0.595000	0.577000	0.033000
C2721	C272	0.575580	0.255900	0.070230
H2041	H204	0.571300	0.173900	0.078800
C2731	C273	0.671330	0.791600	0.069690
C2741	C274	0.638490	0.600400	0.105000
C2751	C275	0.656770	0.579400	0.065300
H2051	H205	0.658500	0.499600	0.050800
C2761	C276	0.636100	0.713100	0.128340
H2061	H206	0.623500	0.726500	0.155800
C2771	C277	0.652990	0.809800	0.110390
H2071	H207	0.651700	0.888400	0.126500
C2781	C278	0.672740	0.674900	0.046320
H2081	H208	0.684600	0.660900	0.017600
C2791	C279	0.689730	0.896600	0.051130
C2801	C280	0.737680	0.262600	0.879880
C2811	C281	0.710440	0.210500	0.849960
C2821	C282	0.695170	0.276400	0.806980
H2091	H209	0.701600	0.354900	0.797300
C2831	C283	0.700480	0.097800	0.864190
H2101	H210	0.710600	0.053300	0.893600
C2841	C284	0.660860	0.111600	0.792980
C2851	C285	0.670280	0.227000	0.777880
H2111	H211	0.660100	0.271500	0.748600
C2861	C286	0.675150	0.046000	0.835650
H2121	H212	0.668400	0.968400	0.845900
C2871	C287	0.563160	0.972900	0.778200
H2131	H213	0.548900	0.922500	0.759700
C2881	C288	0.557140	0.039000	0.825810
C2891	C289	0.606250	0.114800	0.834200
H2141	H214	0.621000	0.160600	0.854100
C2901	C290	0.611420	0.052500	0.786160
C2911	C291	0.527770	0.036700	0.847530
C2921	C292	0.589980	0.980300	0.757590
H2151	H215	0.593500	0.937300	0.724900
C2931	C293	0.579060	0.110000	0.853340
H2161	H216	0.575500	0.155300	0.885300
C2941	C294	0.432950	0.426700	0.792960
C2951	C295	0.448570	0.230800	0.829640
H2171	H217	0.447500	0.144500	0.826500
C2961	C296	0.432170	0.300200	0.789710
H2181	H218	0.420600	0.261000	0.760600
C2971	C297	0.466160	0.399100	0.875190
H2191	H219	0.477400	0.435400	0.905600
C2981	C298	0.451110	0.477300	0.836580
H2201	H220	0.453200	0.563300	0.839900
C2991	C299	0.398650	0.457300	0.713720
H2211	H221	0.408400	0.397700	0.691400
H2221	H222	0.382800	0.415300	0.729700
C3001	C300	0.470780	0.744600	0.542350
H2231	H223	0.490200	0.721400	0.548600
C3011	C301	0.434950	0.846000	0.489780
H2241	H224	0.428700	0.894900	0.458500
C3021	C302	0.415460	0.817700	0.526350
H2251	H225	0.396400	0.846000	0.519800
C3031	C303	0.453110	0.710000	0.582240
H2261	H226	0.460200	0.664100	0.613900
C3041	C304	0.424130	0.745800	0.573930
C3051	C305	0.412770	0.618000	0.650290
H2271	H227	0.422700	0.551000	0.632700
H2281	H228	0.426300	0.654900	0.679500
C3061	C306	0.373320	0.663100	0.711650
H2291	H229	0.365000	0.729400	0.687300
H2301	H230	0.387600	0.698900	0.739900
C3071	C307	0.387210	0.565200	0.677110
C3081	C308	0.363530	0.521000	0.632200
H2311	H231	0.357300	0.590100	0.607500
H2321	H232	0.346900	0.492600	0.650500
C3091	C309	0.323210	0.836800	0.827960
H2331	H233	0.325000	0.921700	0.835400
C3101	C310	0.336740	0.662700	0.774920
C3111	C311	0.303250	0.653700	0.844540
H2341	H234	0.290600	0.606100	0.863800
C3121	C312	0.339170	0.788000	0.786820
H2351	H235	0.351200	0.838700	0.767700
C3131	C313	0.317870	0.593400	0.804480
H2361	H236	0.315200	0.508600	0.797500
C3141	C314	0.343470	0.212700	0.491150
H2371	H237	0.350300	0.149400	0.469200
C3151	C315	0.353940	0.366700	0.562230
C3161	C316	0.362950	0.273100	0.529610
H2381	H238	0.382400	0.249600	0.533300
C3171	C317	0.325330	0.399300	0.554980
H2391	H239	0.318200	0.463600	0.575900
C3181	C318	0.307460	0.334000	0.515700
H2401	H240	0.288000	0.357400	0.510900
Co111	Co11	0.491460	0.168950	0.930890
Co121	Co12	0.785100	0.348360	0.925310
N211	N21	0.462670	0.808500	0.495250
N221	N22	0.315260	0.240600	0.483950
N231	N23	0.465740	0.277400	0.872090
N241	N24	0.305590	0.771700	0.857720
O711	O71	0.751850	0.201930	0.918310
O721	O72	0.746280	0.369540	0.865850
O731	O73	0.522370	0.129490	0.877070
O741	O74	0.511110	0.948450	0.835790
O751	O75	0.519000	0.319680	0.956970
O761	O76	0.528680	0.141240	0.000300
O771	O77	0.691820	0.991730	0.081360
O781	O78	0.701810	0.880900	0.007070
O791	O79	0.623820	0.499710	0.126740
O801	O80	0.636760	0.060200	0.760750
O811	O81	0.418580	0.507380	0.757780
O821	O82	0.373790	0.421760	0.599280
O831	O83	0.403870	0.711190	0.608110
O841	O84	0.351300	0.600700	0.738170
C3191	C319	0.965360	0.754200	0.507620
C3201	C320	0.939690	0.814000	0.474410
C3211	C321	0.902510	0.818300	0.397180
H2411	H241	0.892200	0.779200	0.366400
C3221	C322	0.896280	0.938300	0.411070
C3231	C323	0.932370	0.934300	0.489020
H2421	H242	0.942400	0.973000	0.520300
C3241	C324	0.910250	0.996800	0.457170
H2431	H243	0.905000	0.077000	0.467000
C3251	C325	0.924420	0.755900	0.429770
H2441	H244	0.928700	0.673900	0.421200
C3261	C326	0.828670	0.291600	0.430310
C3271	C327	0.861510	0.100400	0.395000
C3281	C328	0.843230	0.079400	0.434700
H2451	H245	0.841500	0.999600	0.449200
C3291	C329	0.863900	0.213100	0.371660
H2461	H246	0.876500	0.226500	0.344200
C3301	C330	0.847010	0.309800	0.389610
H2471	H247	0.848300	0.388400	0.373500
C3311	C331	0.827260	0.174900	0.453680
H2481	H248	0.815400	0.160900	0.482400
C3321	C332	0.810270	0.396600	0.448870
C3331	C333	0.762320	0.762600	0.620120
C3341	C334	0.789560	0.710500	0.650040
C3351	C335	0.804830	0.776400	0.693020
H2491	H249	0.798400	0.854900	0.702700
C3361	C336	0.799520	0.597800	0.635810
H2501	H250	0.789400	0.553300	0.606400
C3371	C337	0.839140	0.611600	0.707020
C3381	C338	0.829720	0.727000	0.722120
H2511	H251	0.839900	0.771500	0.751400
C3391	C339	0.824850	0.546000	0.664350
H2521	H252	0.831600	0.468400	0.654100
C3401	C340	0.936840	0.472900	0.721800
H2531	H253	0.951100	0.422500	0.740300
C3411	C341	0.942860	0.539000	0.674190
C3421	C342	0.893750	0.614800	0.665800
H2541	H254	0.879000	0.660600	0.645900
C3431	C343	0.888580	0.552500	0.713840
C3441	C344	0.972230	0.536700	0.652470
C3451	C345	0.910020	0.480300	0.742410
H2551	H255	0.906500	0.437300	0.775100
C3461	C346	0.920940	0.610000	0.646660
H2561	H256	0.924500	0.655300	0.614700
C3471	C347	0.067050	0.926700	0.707040
C3481	C348	0.051430	0.730800	0.670360
H2571	H257	0.052500	0.644500	0.673500
C3491	C349	0.067830	0.800200	0.710290
H2581	H258	0.079400	0.761000	0.739400
C3501	C350	0.033840	0.899100	0.624810
H2591	H259	0.022600	0.935400	0.594400
C3511	C351	0.048890	0.977300	0.663420
H2601	H260	0.046800	0.063300	0.660100
C3521	C352	0.101350	0.957300	0.786280
H2611	H261	0.091600	0.897700	0.808600
H2621	H262	0.117200	0.915300	0.770300
C3531	C353	0.029220	0.244600	0.957650
H2631	H263	0.009800	0.221400	0.951400
C3541	C354	0.065050	0.346000	0.010220
H2641	H264	0.071300	0.394900	0.041500
C3551	C355	0.084540	0.317700	0.973650
H2651	H265	0.103600	0.346000	0.980200
C3561	C356	0.046890	0.210000	0.917760
H2661	H266	0.039800	0.164100	0.886100
C3571	C357	0.075870	0.245800	0.926070
C3581	C358	0.087230	0.118000	0.849710
H2671	H267	0.077300	0.051000	0.867300
H2681	H268	0.073700	0.154900	0.820500
C3591	C359	0.126680	0.163100	0.788350
H2691	H269	0.135000	0.229400	0.812700
H2701	H270	0.112400	0.198900	0.760100
C3601	C360	0.112790	0.065200	0.822890
C3611	C361	0.136470	0.021000	0.867800
H2711	H271	0.142700	0.090100	0.892500
H2721	H272	0.153100	0.992600	0.849500
C3621	C362	0.176790	0.336800	0.672040
H2731	H273	0.175000	0.421700	0.664600
C3631	C363	0.163260	0.162700	0.725080
C3641	C364	0.196750	0.153700	0.655460
H2741	H274	0.209400	0.106100	0.636200
C3651	C365	0.160830	0.288000	0.713180
H2751	H275	0.148800	0.338700	0.732300
C3661	C366	0.182130	0.093400	0.695520
H2761	H276	0.184800	0.008600	0.702500
C3671	C367	0.156530	0.712700	0.008850
H2771	H277	0.149700	0.649400	0.030800
C3681	C368	0.146060	0.866700	0.937770
C3691	C369	0.137050	0.773100	0.970390
H2781	H278	0.117600	0.749600	0.966700
C3701	C370	0.174670	0.899300	0.945020
H2791	H279	0.181800	0.963600	0.924100
C3711	C371	0.192540	0.834000	0.984300
H2801	H280	0.212000	0.857400	0.989100
Co131	Co13	0.008540	0.668950	0.569110
Co141	Co14	0.714900	0.848360	0.574690
N251	N25	0.037330	0.308500	0.004750
N261	N26	0.184740	0.740600	0.016050
N271	N27	0.034260	0.777400	0.627910
N281	N28	0.194410	0.271700	0.642280
O851	O85	0.748150	0.701930	0.581690
O861	O86	0.753720	0.869540	0.634150
O871	O87	0.977630	0.629490	0.622930
O881	O88	0.988890	0.448450	0.664210
O891	O89	0.981000	0.819680	0.543030
O901	O90	0.971320	0.641240	0.499700
O911	O91	0.808180	0.491730	0.418640
O921	O92	0.798190	0.380900	0.492930
O931	O93	0.876180	0.999710	0.373260
O941	O94	0.863240	0.560200	0.739250
O951	O95	0.081420	0.007380	0.742220
O961	O96	0.126210	0.921760	0.900720
O971	O97	0.096130	0.211190	0.891890
O981	O98	0.148700	0.100700	0.761830
C3721	C372	0.465360	0.254200	0.507620
C3731	C373	0.439690	0.314000	0.474410
C3741	C374	0.402510	0.318300	0.397180
H2811	H281	0.392200	0.279200	0.366400
C3751	C375	0.396280	0.438300	0.411070
C3761	C376	0.432370	0.434300	0.489020
H2821	H282	0.442400	0.473000	0.520300
C3771	C377	0.410250	0.496800	0.457170
H2831	H283	0.405000	0.577000	0.467000
C3781	C378	0.424420	0.255900	0.429770
H2841	H284	0.428700	0.173900	0.421200
C3791	C379	0.328670	0.791600	0.430310
C3801	C380	0.361510	0.600400	0.395000
C3811	C381	0.343230	0.579400	0.434700
H2851	H285	0.341500	0.499600	0.449200
C3821	C382	0.363900	0.713100	0.371660
H2861	H286	0.376500	0.726500	0.344200
C3831	C383	0.347010	0.809800	0.389610
H2871	H287	0.348300	0.888400	0.373500
C3841	C384	0.327260	0.674900	0.453680
H2881	H288	0.315400	0.660900	0.482400
C3851	C385	0.310270	0.896600	0.448870
C3861	C386	0.262320	0.262600	0.620120
C3871	C387	0.289560	0.210500	0.650040
C3881	C388	0.304830	0.276400	0.693020
H2891	H289	0.298400	0.354900	0.702700
C3891	C389	0.299520	0.097800	0.635810
H2901	H290	0.289400	0.053300	0.606400
C3901	C390	0.339140	0.111600	0.707020
C3911	C391	0.329720	0.227000	0.722120
H2911	H291	0.339900	0.271500	0.751400
C3921	C392	0.324850	0.046000	0.664350
H2921	H292	0.331600	0.968400	0.654100
C3931	C393	0.436840	0.972900	0.721800
H2931	H293	0.451100	0.922500	0.740300
C3941	C394	0.442860	0.039000	0.674190
C3951	C395	0.393750	0.114800	0.665800
H2941	H294	0.379000	0.160600	0.645900
C3961	C396	0.388580	0.052500	0.713840
C3971	C397	0.472230	0.036700	0.652470
C3981	C398	0.410020	0.980300	0.742410
H2951	H295	0.406500	0.937300	0.775100
C3991	C399	0.420940	0.110000	0.646660
H2961	H296	0.424500	0.155300	0.614700
C4001	C400	0.567050	0.426700	0.707040
C4011	C401	0.551430	0.230800	0.670360
H2971	H297	0.552500	0.144500	0.673500
C4021	C402	0.567830	0.300200	0.710290
H2981	H298	0.579400	0.261000	0.739400
C4031	C403	0.533840	0.399100	0.624810
H2991	H299	0.522600	0.435400	0.594400
C4041	C404	0.548890	0.477300	0.663420
H3001	H300	0.546800	0.563300	0.660100
C4051	C405	0.601350	0.457300	0.786280
H3011	H301	0.591600	0.397700	0.808600
H3021	H302	0.617200	0.415300	0.770300
C4061	C406	0.529220	0.744600	0.957650
H3031	H303	0.509800	0.721400	0.951400
C4071	C407	0.565050	0.846000	0.010220
H3041	H304	0.571300	0.894900	0.041500
C4081	C408	0.584540	0.817700	0.973650
H3051	H305	0.603600	0.846000	0.980200
C4091	C409	0.546890	0.710000	0.917760
H3061	H306	0.539800	0.664100	0.886100
C4101	C410	0.575870	0.745800	0.926070
C4111	C411	0.587230	0.618000	0.849710
H3071	H307	0.577300	0.551000	0.867300
H3081	H308	0.573700	0.654900	0.820500
C4121	C412	0.626680	0.663100	0.788350
H3091	H309	0.635000	0.729400	0.812700
H3101	H310	0.612400	0.698900	0.760100
C4131	C413	0.612790	0.565200	0.822890
C4141	C414	0.636470	0.521000	0.867800
H3111	H311	0.642700	0.590100	0.892500
H3121	H312	0.653100	0.492600	0.849500
C4151	C415	0.676790	0.836800	0.672040
H3131	H313	0.675000	0.921700	0.664600
C4161	C416	0.663260	0.662700	0.725080
C4171	C417	0.696750	0.653700	0.655460
H3141	H314	0.709400	0.606100	0.636200
C4181	C418	0.660830	0.788000	0.713180
H3151	H315	0.648800	0.838700	0.732300
C4191	C419	0.682130	0.593400	0.695520
H3161	H316	0.684800	0.508600	0.702500
C4201	C420	0.656530	0.212700	0.008850
H3171	H317	0.649700	0.149400	0.030800
C4211	C421	0.646060	0.366700	0.937770
C4221	C422	0.637050	0.273100	0.970390
H3181	H318	0.617600	0.249600	0.966700
C4231	C423	0.674670	0.399300	0.945020
H3191	H319	0.681800	0.463600	0.924100
C4241	C424	0.692540	0.334000	0.984300
H3201	H320	0.712000	0.357400	0.989100
Co151	Co15	0.508540	0.168950	0.569110
Co161	Co16	0.214900	0.348360	0.574690
N291	N29	0.537330	0.808500	0.004750
N301	N30	0.684740	0.240600	0.016050
N311	N31	0.534260	0.277400	0.627910
N321	N32	0.694410	0.771700	0.642280
O991	O99	0.248150	0.201930	0.581690
O1001	O100	0.253720	0.369540	0.634150
O1011	O101	0.477630	0.129490	0.622930
O1021	O102	0.488890	0.948450	0.664210
O1031	O103	0.481000	0.319680	0.543030
O1041	O104	0.471320	0.141240	0.499700
O1051	O105	0.308180	0.991730	0.418640
O1061	O106	0.298190	0.880900	0.492930
O1071	O107	0.376180	0.499710	0.373260
O1081	O108	0.363240	0.060200	0.739250
O1091	O109	0.581420	0.507380	0.742220
O1101	O110	0.626210	0.421760	0.900720
O1111	O111	0.596130	0.711190	0.891890
O1121	O112	0.648700	0.600700	0.761830
