data_KUMBOL_clean_PM
_symmetry_space_group_name_H-M	'P1'
_cell_length_a	12.617600
_cell_length_b	14.198000
_cell_length_c	14.896000
_cell_angle_alpha	69.221000
_cell_angle_beta	67.598000
_cell_angle_gamma	78.395000
_symmetry_Int_Tables_number 1

loop_
_symmetry_equiv_pos_as_xyz
'x,y,z'

loop_
_atom_site_label
_atom_site_type_symbol
_atom_site_fract_x
_atom_site_fract_y
_atom_site_fract_z
Gd11	Gd1	0.064490	0.518620	0.595960
Gd21	Gd2	0.448840	0.946100	0.906640
O11	O1	0.055400	0.491300	0.777000
O21	O2	0.695600	0.046900	0.935400
O31	O3	0.630500	0.011600	0.832000
O41	O4	0.969800	0.395500	0.559400
O51	O5	0.570400	0.820200	0.823800
O61	O6	0.808600	0.562500	0.519200
O71	O7	0.863500	0.581700	0.637600
O81	O8	0.491700	0.951100	0.731800
O91	O9	0.463100	0.144400	0.974700
N11	N1	0.235400	0.638800	0.482000
O101	O10	0.993700	0.345500	0.709000
O111	O11	0.212500	0.440100	0.670300
C11	C1	0.840600	0.181600	0.749600
H11	H1	0.808800	0.210400	0.802200
C21	C2	0.700800	0.047100	0.848800
C31	C3	0.800000	0.093300	0.758600
N21	N2	0.054500	0.685000	0.635800
C41	C4	0.965700	0.327800	0.644900
O121	O12	0.399600	0.124000	0.864500
C51	C5	0.929200	0.226900	0.661500
C61	C6	0.402300	0.173800	0.918000
C71	C7	0.606400	0.828100	0.652300
N31	N3	0.252600	0.975000	0.874800
C81	C8	0.282500	0.317600	0.837800
H21	H2	0.304800	0.292400	0.783000
C91	C9	0.326300	0.270100	0.917000
C101	C10	0.983600	0.179900	0.587000
H31	H3	0.043800	0.209200	0.529300
N41	N4	0.331300	0.791200	0.979700
C111	C11	0.142400	0.746600	0.586700
C121	C12	0.234500	0.724000	0.503100
C131	C13	0.852200	0.048500	0.681700
H41	H4	0.823300	0.991500	0.685400
C141	C14	0.155000	0.447800	0.757200
C151	C15	0.680000	0.742600	0.656500
H51	H5	0.700400	0.710600	0.714600
C161	C16	0.948000	0.088400	0.599000
H61	H6	0.988000	0.053800	0.551900
C171	C17	0.206000	0.401900	0.840400
C181	C18	0.803600	0.607300	0.579800
C191	C19	0.552200	0.869000	0.741100
C201	C20	0.298300	0.310300	0.996300
H71	H7	0.330600	0.280300	0.047500
C211	C21	0.181600	0.897500	0.923000
C221	C22	0.724800	0.702700	0.575100
C231	C23	0.174600	0.440500	0.921800
H81	H8	0.121800	0.496400	0.924600
C241	C24	0.222300	0.802400	0.978500
C251	C25	0.321800	0.792200	0.445200
C261	C26	0.577500	0.876800	0.564500
H91	H9	0.527600	0.934900	0.561000
C271	C27	0.694100	0.752000	0.489100
H101	H10	0.722500	0.725400	0.434800
C281	C28	0.318900	0.621900	0.402900
H111	H11	0.318000	0.564700	0.386600
C291	C29	0.222500	0.395000	0.999100
H121	H12	0.203300	0.421800	0.052400
C301	C30	0.967900	0.704900	0.714400
H131	H13	0.906500	0.664200	0.747100
C311	C31	0.141800	0.832400	0.614100
C321	C32	0.068800	0.912500	0.919400
C331	C33	0.147200	0.723000	0.030700
C341	C34	0.367100	0.700900	0.033500
H141	H14	0.441700	0.691600	0.034900
C351	C35	0.316900	0.879100	0.474500
H151	H15	0.373700	0.924300	0.435800
C361	C36	0.297000	0.620900	0.087200
H161	H16	0.325500	0.559900	0.123700
C371	C37	0.410800	0.769600	0.361400
H171	H17	0.469300	0.812700	0.320700
C381	C38	0.409600	0.684200	0.341000
H181	H18	0.467900	0.667100	0.286900
C391	C39	0.234500	0.897200	0.554600
H191	H19	0.236300	0.952800	0.572900
C401	C40	0.214100	0.064200	0.822400
H201	H20	0.262700	0.116500	0.788500
C411	C41	0.623000	0.838600	0.481900
H211	H21	0.605200	0.871800	0.422700
C421	C42	0.190700	0.630100	0.087200
H221	H22	0.144500	0.576100	0.124000
C431	C43	0.035300	0.740400	0.024300
H231	H23	0.986900	0.687900	0.057600
C441	C44	0.965800	0.784400	0.749500
H241	H24	0.906800	0.793400	0.807400
C451	C45	0.051100	0.848600	0.698100
H251	H25	0.048800	0.903500	0.719100
C461	C46	0.030300	0.008900	0.866000
H261	H26	0.955400	0.021900	0.864900
C471	C47	0.105100	0.081400	0.816600
H271	H27	0.082800	0.144200	0.777900
C481	C48	0.997000	0.829200	0.972600
H281	H28	0.922800	0.837500	0.970800
Gd31	Gd3	0.935510	0.481380	0.404040
Gd41	Gd4	0.551160	0.053900	0.093360
O131	O13	0.944600	0.508700	0.223000
O141	O14	0.304400	0.953100	0.064600
O151	O15	0.369500	0.988400	0.168000
O161	O16	0.030200	0.604500	0.440600
O171	O17	0.429600	0.179800	0.176200
O181	O18	0.191400	0.437500	0.480800
O191	O19	0.136500	0.418300	0.362400
O201	O20	0.508300	0.048900	0.268200
O211	O21	0.536900	0.855600	0.025300
N51	N5	0.764600	0.361200	0.518000
O221	O22	0.006300	0.654500	0.291000
O231	O23	0.787500	0.559900	0.329700
C491	C49	0.159400	0.818400	0.250400
H291	H29	0.191200	0.789600	0.197800
C501	C50	0.299200	0.952900	0.151200
C511	C51	0.200000	0.906700	0.241400
N61	N6	0.945500	0.315000	0.364200
C521	C52	0.034300	0.672200	0.355100
O241	O24	0.600400	0.876000	0.135500
C531	C53	0.070800	0.773100	0.338500
C541	C54	0.597700	0.826200	0.082000
C551	C55	0.393600	0.171900	0.347700
N71	N7	0.747400	0.025000	0.125200
C561	C56	0.717500	0.682400	0.162200
H301	H30	0.695200	0.707600	0.217000
C571	C57	0.673700	0.729900	0.083000
C581	C58	0.016400	0.820100	0.413000
H311	H31	0.956200	0.790800	0.470700
N81	N8	0.668700	0.208800	0.020300
C591	C59	0.857600	0.253400	0.413300
C601	C60	0.765500	0.276000	0.496900
C611	C61	0.147800	0.951500	0.318300
H321	H32	0.176700	0.008500	0.314600
C621	C62	0.845000	0.552200	0.242800
C631	C63	0.320000	0.257400	0.343500
H331	H33	0.299600	0.289400	0.285400
C641	C64	0.052000	0.911600	0.401000
H341	H34	0.012000	0.946200	0.448100
C651	C65	0.794000	0.598100	0.159600
C661	C66	0.196400	0.392700	0.420200
C671	C67	0.447800	0.131000	0.258900
C681	C68	0.701700	0.689700	0.003700
H351	H35	0.669400	0.719700	0.952500
C691	C69	0.818400	0.102500	0.077000
C701	C70	0.275200	0.297300	0.424900
C711	C71	0.825400	0.559500	0.078200
H361	H36	0.878200	0.503600	0.075400
C721	C72	0.777700	0.197600	0.021500
C731	C73	0.678200	0.207800	0.554800
C741	C74	0.422500	0.123200	0.435500
H371	H37	0.472400	0.065100	0.439000
C751	C75	0.305900	0.248000	0.510900
H381	H38	0.277500	0.274600	0.565200
C761	C76	0.681100	0.378100	0.597100
H391	H39	0.682000	0.435300	0.613400
C771	C77	0.777500	0.605000	0.000900
H401	H40	0.796700	0.578200	0.947600
C781	C78	0.032100	0.295100	0.285600
H411	H41	0.093500	0.335800	0.252900
C791	C79	0.858200	0.167600	0.385900
C801	C80	0.931200	0.087500	0.080600
C811	C81	0.852800	0.277000	0.969300
C821	C82	0.632900	0.299100	0.966500
H421	H42	0.558300	0.308400	0.965100
C831	C83	0.683100	0.120900	0.525500
H431	H43	0.626300	0.075700	0.564200
C841	C84	0.703000	0.379100	0.912800
H441	H44	0.674500	0.440100	0.876300
C851	C85	0.589200	0.230400	0.638600
H451	H45	0.530700	0.187300	0.679300
C861	C86	0.590400	0.315800	0.659000
H461	H46	0.532100	0.332900	0.713100
C871	C87	0.765500	0.102800	0.445400
H471	H47	0.763700	0.047200	0.427100
C881	C88	0.785900	0.935800	0.177600
H481	H48	0.737300	0.883500	0.211500
C891	C89	0.377000	0.161400	0.518100
H491	H49	0.394800	0.128200	0.577300
C901	C90	0.809300	0.369900	0.912800
H501	H50	0.855500	0.423900	0.876000
C911	C91	0.964700	0.259600	0.975700
H511	H51	0.013100	0.312100	0.942400
C921	C92	0.034200	0.215600	0.250500
H521	H52	0.093200	0.206600	0.192600
C931	C93	0.948900	0.151400	0.301900
H531	H53	0.951200	0.096500	0.280900
C941	C94	0.969700	0.991100	0.134000
H541	H54	0.044600	0.978100	0.135100
C951	C95	0.894900	0.918600	0.183400
H551	H55	0.917200	0.855800	0.222100
C961	C96	0.003000	0.170800	0.027400
H561	H56	0.077200	0.162500	0.029200
