data_KUMGIK_clean_PM
_symmetry_space_group_name_H-M	'P1'
_cell_length_a	13.657000
_cell_length_b	13.657000
_cell_length_c	53.305000
_cell_angle_alpha	90.000000
_cell_angle_beta	90.000000
_cell_angle_gamma	90.000000
_symmetry_Int_Tables_number 1

loop_
_symmetry_equiv_pos_as_xyz
'x,y,z'

loop_
_atom_site_label
_atom_site_type_symbol
_atom_site_fract_x
_atom_site_fract_y
_atom_site_fract_z
Cu11	Cu1	0.940310	0.936090	0.118000
S11	S1	0.871550	0.794220	0.101640
N11	N1	0.028200	0.979500	0.085930
N21	N2	0.850300	0.041200	0.123490
N31	N3	0.151500	0.028500	0.998270
N41	N4	0.295300	0.028400	0.022500
C11	C1	0.121700	0.003100	0.087290
H11	H1	0.149800	0.009400	0.103100
C21	C2	0.180300	0.018800	0.066630
H21	H2	0.246500	0.032900	0.068500
C31	C3	0.139600	0.011400	0.043100
C41	C4	0.043400	0.989000	0.041600
H31	H3	0.012400	0.987500	0.026100
C51	C5	0.990100	0.973400	0.063430
H41	H4	0.925200	0.953400	0.062000
C61	C6	0.199000	0.023600	0.020110
C71	C7	0.791200	0.100300	0.126510
Cu21	Cu2	0.440310	0.436090	0.618000
S21	S2	0.371550	0.294220	0.601640
N51	N5	0.528200	0.479500	0.585930
N61	N6	0.350300	0.541200	0.623490
N71	N7	0.651500	0.528500	0.498270
N81	N8	0.795300	0.528400	0.522500
C81	C8	0.621700	0.503100	0.587290
H51	H5	0.649800	0.509400	0.603100
C91	C9	0.680300	0.518800	0.566630
H61	H6	0.746500	0.532900	0.568500
C101	C10	0.639600	0.511400	0.543100
C111	C11	0.543400	0.489000	0.541600
H71	H7	0.512400	0.487500	0.526100
C121	C12	0.490100	0.473400	0.563430
H81	H8	0.425200	0.453400	0.562000
C131	C13	0.699000	0.523600	0.520110
C141	C14	0.291200	0.600300	0.626510
Cu31	Cu3	0.559690	0.063910	0.618000
S31	S3	0.628450	0.205780	0.601640
N91	N9	0.471800	0.020500	0.585930
N101	N10	0.649700	0.958800	0.623490
N111	N11	0.348500	0.971500	0.498270
N121	N12	0.204700	0.971600	0.522500
C151	C15	0.378300	0.996900	0.587290
H91	H9	0.350200	0.990600	0.603100
C161	C16	0.319700	0.981200	0.566630
H101	H10	0.253500	0.967100	0.568500
C171	C17	0.360400	0.988600	0.543100
C181	C18	0.456600	0.011000	0.541600
H111	H11	0.487600	0.012500	0.526100
C191	C19	0.509900	0.026600	0.563430
H121	H12	0.574800	0.046600	0.562000
C201	C20	0.301000	0.976400	0.520110
C211	C21	0.708800	0.899700	0.626510
Cu41	Cu4	0.059690	0.563910	0.118000
S41	S4	0.128450	0.705780	0.101640
N131	N13	0.971800	0.520500	0.085930
N141	N14	0.149700	0.458800	0.123490
N151	N15	0.848500	0.471500	0.998270
N161	N16	0.704700	0.471600	0.022500
C221	C22	0.878300	0.496900	0.087290
H131	H13	0.850200	0.490600	0.103100
C231	C23	0.819700	0.481200	0.066630
H141	H14	0.753500	0.467100	0.068500
C241	C24	0.860400	0.488600	0.043100
C251	C25	0.956600	0.511000	0.041600
H151	H15	0.987600	0.512500	0.026100
C261	C26	0.009900	0.526600	0.063430
H161	H16	0.074800	0.546600	0.062000
C271	C27	0.801000	0.476400	0.020110
C281	C28	0.208800	0.399700	0.126510
Cu51	Cu5	0.313910	0.690310	0.368000
S51	S5	0.455780	0.621550	0.351640
N171	N17	0.270500	0.778200	0.335930
N181	N18	0.208800	0.600300	0.373490
N191	N19	0.221500	0.901500	0.248270
N201	N20	0.221600	0.045300	0.272500
C291	C29	0.246900	0.871700	0.337290
H171	H17	0.240600	0.899800	0.353100
C301	C30	0.231200	0.930300	0.316630
H181	H18	0.217100	0.996500	0.318500
C311	C31	0.238600	0.889600	0.293100
C321	C32	0.261000	0.793400	0.291600
H191	H19	0.262500	0.762400	0.276100
C331	C33	0.276600	0.740100	0.313430
H201	H20	0.296600	0.675200	0.312000
C341	C34	0.226400	0.949000	0.270110
C351	C35	0.149700	0.541200	0.376510
Cu61	Cu6	0.813910	0.190310	0.868000
S61	S6	0.955780	0.121550	0.851640
N211	N21	0.770500	0.278200	0.835930
N221	N22	0.708800	0.100300	0.873490
N231	N23	0.721500	0.401500	0.748270
N241	N24	0.721600	0.545300	0.772500
C361	C36	0.746900	0.371700	0.837290
H211	H21	0.740600	0.399800	0.853100
C371	C37	0.731200	0.430300	0.816630
H221	H22	0.717100	0.496500	0.818500
C381	C38	0.738600	0.389600	0.793100
C391	C39	0.761000	0.293400	0.791600
H231	H23	0.762500	0.262400	0.776100
C401	C40	0.776600	0.240100	0.813430
H241	H24	0.796600	0.175200	0.812000
C411	C41	0.726400	0.449000	0.770110
C421	C42	0.649700	0.041200	0.876510
Cu71	Cu7	0.186090	0.309690	0.868000
S71	S7	0.044220	0.378450	0.851640
N251	N25	0.229500	0.221800	0.835930
N261	N26	0.291200	0.399700	0.873490
N271	N27	0.278500	0.098500	0.748270
N281	N28	0.278400	0.954700	0.772500
C431	C43	0.253100	0.128300	0.837290
H251	H25	0.259400	0.100200	0.853100
C441	C44	0.268800	0.069700	0.816630
H261	H26	0.282900	0.003500	0.818500
C451	C45	0.261400	0.110400	0.793100
C461	C46	0.239000	0.206600	0.791600
H271	H27	0.237500	0.237600	0.776100
C471	C47	0.223400	0.259900	0.813430
H281	H28	0.203400	0.324800	0.812000
C481	C48	0.273600	0.051000	0.770110
C491	C49	0.350300	0.458800	0.876510
Cu81	Cu8	0.686090	0.809690	0.368000
S81	S8	0.544220	0.878450	0.351640
N291	N29	0.729500	0.721800	0.335930
N301	N30	0.791200	0.899700	0.373490
N311	N31	0.778500	0.598500	0.248270
N321	N32	0.778400	0.454700	0.272500
C501	C50	0.753100	0.628300	0.337290
H291	H29	0.759400	0.600200	0.353100
C511	C51	0.768800	0.569700	0.316630
H301	H30	0.782900	0.503500	0.318500
C521	C52	0.761400	0.610400	0.293100
C531	C53	0.739000	0.706600	0.291600
H311	H31	0.737500	0.737600	0.276100
C541	C54	0.723400	0.759900	0.313430
H321	H32	0.703400	0.824800	0.312000
C551	C55	0.773600	0.551000	0.270110
C561	C56	0.850300	0.958800	0.376510
Cu91	Cu9	0.559690	0.936090	0.882000
S91	S9	0.628450	0.794220	0.898360
N331	N33	0.471800	0.979500	0.914070
N341	N34	0.348500	0.028500	0.001730
N351	N35	0.204700	0.028400	0.977500
C571	C57	0.378300	0.003100	0.912710
H331	H33	0.350200	0.009400	0.896900
C581	C58	0.319700	0.018800	0.933370
H341	H34	0.253500	0.032900	0.931500
C591	C59	0.360400	0.011400	0.956900
C601	C60	0.456600	0.989000	0.958400
H351	H35	0.487600	0.987500	0.973900
C611	C61	0.509900	0.973400	0.936570
H361	H36	0.574800	0.953400	0.938000
C621	C62	0.301000	0.023600	0.979890
Cu101	Cu10	0.059690	0.436090	0.382000
S101	S10	0.128450	0.294220	0.398360
N361	N36	0.971800	0.479500	0.414070
N371	N37	0.848500	0.528500	0.501730
N381	N38	0.704700	0.528400	0.477500
C631	C63	0.878300	0.503100	0.412710
H371	H37	0.850200	0.509400	0.396900
C641	C64	0.819700	0.518800	0.433370
H381	H38	0.753500	0.532900	0.431500
C651	C65	0.860400	0.511400	0.456900
C661	C66	0.956600	0.489000	0.458400
H391	H39	0.987600	0.487500	0.473900
C671	C67	0.009900	0.473400	0.436570
H401	H40	0.074800	0.453400	0.438000
C681	C68	0.801000	0.523600	0.479890
Cu111	Cu11	0.940310	0.063910	0.382000
S111	S11	0.871550	0.205780	0.398360
N391	N39	0.028200	0.020500	0.414070
N401	N40	0.151500	0.971500	0.501730
N411	N41	0.295300	0.971600	0.477500
C691	C69	0.121700	0.996900	0.412710
H411	H41	0.149800	0.990600	0.396900
C701	C70	0.180300	0.981200	0.433370
H421	H42	0.246500	0.967100	0.431500
C711	C71	0.139600	0.988600	0.456900
C721	C72	0.043400	0.011000	0.458400
H431	H43	0.012400	0.012500	0.473900
C731	C73	0.990100	0.026600	0.436570
H441	H44	0.925200	0.046600	0.438000
C741	C74	0.199000	0.976400	0.479890
Cu121	Cu12	0.440310	0.563910	0.882000
S121	S12	0.371550	0.705780	0.898360
N421	N42	0.528200	0.520500	0.914070
N431	N43	0.651500	0.471500	0.001730
N441	N44	0.795300	0.471600	0.977500
C751	C75	0.621700	0.496900	0.912710
H451	H45	0.649800	0.490600	0.896900
C761	C76	0.680300	0.481200	0.933370
H461	H46	0.746500	0.467100	0.931500
C771	C77	0.639600	0.488600	0.956900
C781	C78	0.543400	0.511000	0.958400
H471	H47	0.512400	0.512500	0.973900
C791	C79	0.490100	0.526600	0.936570
H481	H48	0.425200	0.546600	0.938000
C801	C80	0.699000	0.476400	0.979890
Cu131	Cu13	0.186090	0.690310	0.632000
S131	S13	0.044220	0.621550	0.648360
N451	N45	0.229500	0.778200	0.664070
N461	N46	0.278500	0.901500	0.751730
N471	N47	0.278400	0.045300	0.727500
C811	C81	0.253100	0.871700	0.662710
H491	H49	0.259400	0.899800	0.646900
C821	C82	0.268800	0.930300	0.683370
H501	H50	0.282900	0.996500	0.681500
C831	C83	0.261400	0.889600	0.706900
C841	C84	0.239000	0.793400	0.708400
H511	H51	0.237500	0.762400	0.723900
C851	C85	0.223400	0.740100	0.686570
H521	H52	0.203400	0.675200	0.688000
C861	C86	0.273600	0.949000	0.729890
Cu141	Cu14	0.686090	0.190310	0.132000
S141	S14	0.544220	0.121550	0.148360
N481	N48	0.729500	0.278200	0.164070
N491	N49	0.778500	0.401500	0.251730
N501	N50	0.778400	0.545300	0.227500
C871	C87	0.753100	0.371700	0.162710
H531	H53	0.759400	0.399800	0.146900
C881	C88	0.768800	0.430300	0.183370
H541	H54	0.782900	0.496500	0.181500
C891	C89	0.761400	0.389600	0.206900
C901	C90	0.739000	0.293400	0.208400
H551	H55	0.737500	0.262400	0.223900
C911	C91	0.723400	0.240100	0.186570
H561	H56	0.703400	0.175200	0.188000
C921	C92	0.773600	0.449000	0.229890
Cu151	Cu15	0.313910	0.309690	0.132000
S151	S15	0.455780	0.378450	0.148360
N511	N51	0.270500	0.221800	0.164070
N521	N52	0.221500	0.098500	0.251730
N531	N53	0.221600	0.954700	0.227500
C931	C93	0.246900	0.128300	0.162710
H571	H57	0.240600	0.100200	0.146900
C941	C94	0.231200	0.069700	0.183370
H581	H58	0.217100	0.003500	0.181500
C951	C95	0.238600	0.110400	0.206900
C961	C96	0.261000	0.206600	0.208400
H591	H59	0.262500	0.237600	0.223900
C971	C97	0.276600	0.259900	0.186570
H601	H60	0.296600	0.324800	0.188000
C981	C98	0.226400	0.051000	0.229890
Cu161	Cu16	0.813910	0.809690	0.632000
S161	S16	0.955780	0.878450	0.648360
N541	N54	0.770500	0.721800	0.664070
N551	N55	0.721500	0.598500	0.751730
N561	N56	0.721600	0.454700	0.727500
C991	C99	0.746900	0.628300	0.662710
H611	H61	0.740600	0.600200	0.646900
C1001	C100	0.731200	0.569700	0.683370
H621	H62	0.717100	0.503500	0.681500
C1011	C101	0.738600	0.610400	0.706900
C1021	C102	0.761000	0.706600	0.708400
H631	H63	0.762500	0.737600	0.723900
C1031	C103	0.776600	0.759900	0.686570
H641	H64	0.796600	0.824800	0.688000
C1041	C104	0.726400	0.551000	0.729890
Cu171	Cu17	0.059690	0.063910	0.882000
S171	S17	0.128450	0.205780	0.898360
N571	N57	0.971800	0.020500	0.914070
N581	N58	0.149700	0.958800	0.876510
N591	N59	0.848500	0.971500	0.001730
N601	N60	0.704700	0.971600	0.977500
C1051	C105	0.878300	0.996900	0.912710
H651	H65	0.850200	0.990600	0.896900
C1061	C106	0.819700	0.981200	0.933370
H661	H66	0.753500	0.967100	0.931500
C1071	C107	0.860400	0.988600	0.956900
C1081	C108	0.956600	0.011000	0.958400
H671	H67	0.987600	0.012500	0.973900
C1091	C109	0.009900	0.026600	0.936570
H681	H68	0.074800	0.046600	0.938000
C1101	C110	0.801000	0.976400	0.979890
C1111	C111	0.208800	0.899700	0.873490
Cu181	Cu18	0.559690	0.563910	0.382000
S181	S18	0.628450	0.705780	0.398360
N611	N61	0.471800	0.520500	0.414070
N621	N62	0.649700	0.458800	0.376510
N631	N63	0.348500	0.471500	0.501730
N641	N64	0.204700	0.471600	0.477500
C1121	C112	0.378300	0.496900	0.412710
H691	H69	0.350200	0.490600	0.396900
C1131	C113	0.319700	0.481200	0.433370
H701	H70	0.253500	0.467100	0.431500
C1141	C114	0.360400	0.488600	0.456900
C1151	C115	0.456600	0.511000	0.458400
H711	H71	0.487600	0.512500	0.473900
C1161	C116	0.509900	0.526600	0.436570
H721	H72	0.574800	0.546600	0.438000
C1171	C117	0.301000	0.476400	0.479890
C1181	C118	0.708800	0.399700	0.373490
Cu191	Cu19	0.440310	0.936090	0.382000
S191	S19	0.371550	0.794220	0.398360
N651	N65	0.528200	0.979500	0.414070
N661	N66	0.350300	0.041200	0.376510
N671	N67	0.651500	0.028500	0.501730
N681	N68	0.795300	0.028400	0.477500
C1191	C119	0.621700	0.003100	0.412710
H731	H73	0.649800	0.009400	0.396900
C1201	C120	0.680300	0.018800	0.433370
H741	H74	0.746500	0.032900	0.431500
C1211	C121	0.639600	0.011400	0.456900
C1221	C122	0.543400	0.989000	0.458400
H751	H75	0.512400	0.987500	0.473900
C1231	C123	0.490100	0.973400	0.436570
H761	H76	0.425200	0.953400	0.438000
C1241	C124	0.699000	0.023600	0.479890
C1251	C125	0.291200	0.100300	0.373490
Cu201	Cu20	0.940310	0.436090	0.882000
S201	S20	0.871550	0.294220	0.898360
N691	N69	0.028200	0.479500	0.914070
N701	N70	0.850300	0.541200	0.876510
N711	N71	0.151500	0.528500	0.001730
N721	N72	0.295300	0.528400	0.977500
C1261	C126	0.121700	0.503100	0.912710
H771	H77	0.149800	0.509400	0.896900
C1271	C127	0.180300	0.518800	0.933370
H781	H78	0.246500	0.532900	0.931500
C1281	C128	0.139600	0.511400	0.956900
C1291	C129	0.043400	0.489000	0.958400
H791	H79	0.012400	0.487500	0.973900
C1301	C130	0.990100	0.473400	0.936570
H801	H80	0.925200	0.453400	0.938000
C1311	C131	0.199000	0.523600	0.979890
C1321	C132	0.791200	0.600300	0.873490
Cu211	Cu21	0.686090	0.309690	0.632000
S211	S21	0.544220	0.378450	0.648360
N731	N73	0.729500	0.221800	0.664070
N741	N74	0.791200	0.399700	0.626510
N751	N75	0.778500	0.098500	0.751730
N761	N76	0.778400	0.954700	0.727500
C1331	C133	0.753100	0.128300	0.662710
H811	H81	0.759400	0.100200	0.646900
C1341	C134	0.768800	0.069700	0.683370
H821	H82	0.782900	0.003500	0.681500
C1351	C135	0.761400	0.110400	0.706900
C1361	C136	0.739000	0.206600	0.708400
H831	H83	0.737500	0.237600	0.723900
C1371	C137	0.723400	0.259900	0.686570
H841	H84	0.703400	0.324800	0.688000
C1381	C138	0.773600	0.051000	0.729890
C1391	C139	0.850300	0.458800	0.623490
Cu221	Cu22	0.186090	0.809690	0.132000
S221	S22	0.044220	0.878450	0.148360
N771	N77	0.229500	0.721800	0.164070
N781	N78	0.291200	0.899700	0.126510
N791	N79	0.278500	0.598500	0.251730
N801	N80	0.278400	0.454700	0.227500
C1401	C140	0.253100	0.628300	0.162710
H851	H85	0.259400	0.600200	0.146900
C1411	C141	0.268800	0.569700	0.183370
H861	H86	0.282900	0.503500	0.181500
C1421	C142	0.261400	0.610400	0.206900
C1431	C143	0.239000	0.706600	0.208400
H871	H87	0.237500	0.737600	0.223900
C1441	C144	0.223400	0.759900	0.186570
H881	H88	0.203400	0.824800	0.188000
C1451	C145	0.273600	0.551000	0.229890
C1461	C146	0.350300	0.958800	0.123490
Cu231	Cu23	0.813910	0.690310	0.132000
S231	S23	0.955780	0.621550	0.148360
N811	N81	0.770500	0.778200	0.164070
N821	N82	0.708800	0.600300	0.126510
N831	N83	0.721500	0.901500	0.251730
N841	N84	0.721600	0.045300	0.227500
C1471	C147	0.746900	0.871700	0.162710
H891	H89	0.740600	0.899800	0.146900
C1481	C148	0.731200	0.930300	0.183370
H901	H90	0.717100	0.996500	0.181500
C1491	C149	0.738600	0.889600	0.206900
C1501	C150	0.761000	0.793400	0.208400
H911	H91	0.762500	0.762400	0.223900
C1511	C151	0.776600	0.740100	0.186570
H921	H92	0.796600	0.675200	0.188000
C1521	C152	0.726400	0.949000	0.229890
C1531	C153	0.649700	0.541200	0.123490
Cu241	Cu24	0.313910	0.190310	0.632000
S241	S24	0.455780	0.121550	0.648360
N851	N85	0.270500	0.278200	0.664070
N861	N86	0.208800	0.100300	0.626510
N871	N87	0.221500	0.401500	0.751730
N881	N88	0.221600	0.545300	0.727500
C1541	C154	0.246900	0.371700	0.662710
H931	H93	0.240600	0.399800	0.646900
C1551	C155	0.231200	0.430300	0.683370
H941	H94	0.217100	0.496500	0.681500
C1561	C156	0.238600	0.389600	0.706900
C1571	C157	0.261000	0.293400	0.708400
H951	H95	0.262500	0.262400	0.723900
C1581	C158	0.276600	0.240100	0.686570
H961	H96	0.296600	0.175200	0.688000
C1591	C159	0.226400	0.449000	0.729890
C1601	C160	0.149700	0.041200	0.623490
Cu251	Cu25	0.440310	0.063910	0.118000
S251	S25	0.371550	0.205780	0.101640
N891	N89	0.528200	0.020500	0.085930
N901	N90	0.651500	0.971500	0.998270
N911	N91	0.795300	0.971600	0.022500
C1611	C161	0.621700	0.996900	0.087290
H971	H97	0.649800	0.990600	0.103100
C1621	C162	0.680300	0.981200	0.066630
H981	H98	0.746500	0.967100	0.068500
C1631	C163	0.639600	0.988600	0.043100
C1641	C164	0.543400	0.011000	0.041600
H991	H99	0.512400	0.012500	0.026100
C1651	C165	0.490100	0.026600	0.063430
H1001	H100	0.425200	0.046600	0.062000
C1661	C166	0.699000	0.976400	0.020110
Cu261	Cu26	0.940310	0.563910	0.618000
S261	S26	0.871550	0.705780	0.601640
N921	N92	0.028200	0.520500	0.585930
N931	N93	0.151500	0.471500	0.498270
N941	N94	0.295300	0.471600	0.522500
C1671	C167	0.121700	0.496900	0.587290
H1011	H101	0.149800	0.490600	0.603100
C1681	C168	0.180300	0.481200	0.566630
H1021	H102	0.246500	0.467100	0.568500
C1691	C169	0.139600	0.488600	0.543100
C1701	C170	0.043400	0.511000	0.541600
H1031	H103	0.012400	0.512500	0.526100
C1711	C171	0.990100	0.526600	0.563430
H1041	H104	0.925200	0.546600	0.562000
C1721	C172	0.199000	0.476400	0.520110
Cu271	Cu27	0.059690	0.936090	0.618000
S271	S27	0.128450	0.794220	0.601640
N951	N95	0.971800	0.979500	0.585930
N961	N96	0.848500	0.028500	0.498270
N971	N97	0.704700	0.028400	0.522500
C1731	C173	0.878300	0.003100	0.587290
H1051	H105	0.850200	0.009400	0.603100
C1741	C174	0.819700	0.018800	0.566630
H1061	H106	0.753500	0.032900	0.568500
C1751	C175	0.860400	0.011400	0.543100
C1761	C176	0.956600	0.989000	0.541600
H1071	H107	0.987600	0.987500	0.526100
C1771	C177	0.009900	0.973400	0.563430
H1081	H108	0.074800	0.953400	0.562000
C1781	C178	0.801000	0.023600	0.520110
Cu281	Cu28	0.559690	0.436090	0.118000
S281	S28	0.628450	0.294220	0.101640
N981	N98	0.471800	0.479500	0.085930
N991	N99	0.348500	0.528500	0.998270
N1001	N100	0.204700	0.528400	0.022500
C1791	C179	0.378300	0.503100	0.087290
H1091	H109	0.350200	0.509400	0.103100
C1801	C180	0.319700	0.518800	0.066630
H1101	H110	0.253500	0.532900	0.068500
C1811	C181	0.360400	0.511400	0.043100
C1821	C182	0.456600	0.489000	0.041600
H1111	H111	0.487600	0.487500	0.026100
C1831	C183	0.509900	0.473400	0.063430
H1121	H112	0.574800	0.453400	0.062000
C1841	C184	0.301000	0.523600	0.020110
Cu291	Cu29	0.813910	0.309690	0.368000
S291	S29	0.955780	0.378450	0.351640
N1011	N101	0.770500	0.221800	0.335930
N1021	N102	0.721500	0.098500	0.248270
N1031	N103	0.721600	0.954700	0.272500
C1851	C185	0.746900	0.128300	0.337290
H1131	H113	0.740600	0.100200	0.353100
C1861	C186	0.731200	0.069700	0.316630
H1141	H114	0.717100	0.003500	0.318500
C1871	C187	0.738600	0.110400	0.293100
C1881	C188	0.761000	0.206600	0.291600
H1151	H115	0.762500	0.237600	0.276100
C1891	C189	0.776600	0.259900	0.313430
H1161	H116	0.796600	0.324800	0.312000
C1901	C190	0.726400	0.051000	0.270110
Cu301	Cu30	0.313910	0.809690	0.868000
S301	S30	0.455780	0.878450	0.851640
N1041	N104	0.270500	0.721800	0.835930
N1051	N105	0.221500	0.598500	0.748270
N1061	N106	0.221600	0.454700	0.772500
C1911	C191	0.246900	0.628300	0.837290
H1171	H117	0.240600	0.600200	0.853100
C1921	C192	0.231200	0.569700	0.816630
H1181	H118	0.217100	0.503500	0.818500
C1931	C193	0.238600	0.610400	0.793100
C1941	C194	0.261000	0.706600	0.791600
H1191	H119	0.262500	0.737600	0.776100
C1951	C195	0.276600	0.759900	0.813430
H1201	H120	0.296600	0.824800	0.812000
C1961	C196	0.226400	0.551000	0.770110
Cu311	Cu31	0.686090	0.690310	0.868000
S311	S31	0.544220	0.621550	0.851640
N1071	N107	0.729500	0.778200	0.835930
N1081	N108	0.778500	0.901500	0.748270
N1091	N109	0.778400	0.045300	0.772500
C1971	C197	0.753100	0.871700	0.837290
H1211	H121	0.759400	0.899800	0.853100
C1981	C198	0.768800	0.930300	0.816630
H1221	H122	0.782900	0.996500	0.818500
C1991	C199	0.761400	0.889600	0.793100
C2001	C200	0.739000	0.793400	0.791600
H1231	H123	0.737500	0.762400	0.776100
C2011	C201	0.723400	0.740100	0.813430
H1241	H124	0.703400	0.675200	0.812000
C2021	C202	0.773600	0.949000	0.770110
Cu321	Cu32	0.186090	0.190310	0.368000
S321	S32	0.044220	0.121550	0.351640
N1101	N110	0.229500	0.278200	0.335930
N1111	N111	0.278500	0.401500	0.248270
N1121	N112	0.278400	0.545300	0.272500
C2031	C203	0.253100	0.371700	0.337290
H1251	H125	0.259400	0.399800	0.353100
C2041	C204	0.268800	0.430300	0.316630
H1261	H126	0.282900	0.496500	0.318500
C2051	C205	0.261400	0.389600	0.293100
C2061	C206	0.239000	0.293400	0.291600
H1271	H127	0.237500	0.262400	0.276100
C2071	C207	0.223400	0.240100	0.313430
H1281	H128	0.203400	0.175200	0.312000
C2081	C208	0.273600	0.449000	0.270110
Mo11	Mo1	0.000000	0.750000	0.125000
Mo21	Mo2	0.500000	0.250000	0.625000
Mo31	Mo3	0.500000	0.750000	0.375000
Mo41	Mo4	0.000000	0.250000	0.875000
Mo51	Mo5	0.500000	0.750000	0.875000
Mo61	Mo6	0.000000	0.250000	0.375000
Mo71	Mo7	0.000000	0.750000	0.625000
Mo81	Mo8	0.500000	0.250000	0.125000
