data_KUQWIE_clean_PM
_symmetry_space_group_name_H-M	'P1'
_cell_length_a	22.494100
_cell_length_b	11.137700
_cell_length_c	9.810100
_cell_angle_alpha	90.000000
_cell_angle_beta	103.100000
_cell_angle_gamma	90.000000
_symmetry_Int_Tables_number 1

loop_
_symmetry_equiv_pos_as_xyz
'x,y,z'

loop_
_atom_site_label
_atom_site_type_symbol
_atom_site_fract_x
_atom_site_fract_y
_atom_site_fract_z
Cd11	Cd1	0.392140	0.085920	0.071670
P11	P1	0.454230	0.133200	0.406570
O11	O1	0.439860	0.033300	0.297500
O21	O2	0.429500	0.101700	0.535200
O31	O3	0.520730	0.169100	0.450300
O41	O4	0.205560	0.464500	0.028400
O51	O5	0.166990	0.332200	0.148700
N11	N1	0.362940	0.247250	0.208460
C11	C1	0.417140	0.268840	0.323370
H11	H1	0.446400	0.314000	0.287000
H21	H2	0.405100	0.317200	0.393500
C21	C2	0.309540	0.204130	0.260990
H31	H3	0.322000	0.136400	0.321300
H41	H4	0.278600	0.177000	0.182800
C31	C3	0.281890	0.298320	0.340780
H51	H5	0.310400	0.316700	0.427000
H61	H6	0.245600	0.266400	0.363300
C41	C4	0.265940	0.413630	0.255330
H71	H7	0.257000	0.474000	0.317700
C51	C5	0.320940	0.457470	0.202500
H81	H8	0.352400	0.483400	0.280300
H91	H9	0.309200	0.524800	0.141200
C61	C6	0.345480	0.357550	0.124230
H101	H10	0.314900	0.337300	0.042100
H111	H11	0.380500	0.387000	0.094100
C71	C7	0.209140	0.400980	0.135330
Cd21	Cd2	0.892140	0.585920	0.071670
P21	P2	0.954230	0.633200	0.406570
O61	O6	0.939860	0.533300	0.297500
O71	O7	0.929500	0.601700	0.535200
O81	O8	0.020730	0.669100	0.450300
O91	O9	0.705560	0.964500	0.028400
O101	O10	0.666990	0.832200	0.148700
N21	N2	0.862940	0.747250	0.208460
C81	C8	0.917140	0.768840	0.323370
H121	H12	0.946400	0.814000	0.287000
H131	H13	0.905100	0.817200	0.393500
C91	C9	0.809540	0.704130	0.260990
H141	H14	0.822000	0.636400	0.321300
H151	H15	0.778600	0.677000	0.182800
C101	C10	0.781890	0.798320	0.340780
H161	H16	0.810400	0.816700	0.427000
H171	H17	0.745600	0.766400	0.363300
C111	C11	0.765940	0.913630	0.255330
H181	H18	0.757000	0.974000	0.317700
C121	C12	0.820940	0.957470	0.202500
H191	H19	0.852400	0.983400	0.280300
H201	H20	0.809200	0.024800	0.141200
C131	C13	0.845480	0.857550	0.124230
H211	H21	0.814900	0.837300	0.042100
H221	H22	0.880500	0.887000	0.094100
C141	C14	0.709140	0.900980	0.135330
Cd31	Cd3	0.607860	0.085920	0.428330
P31	P3	0.545770	0.133200	0.093430
O111	O11	0.560140	0.033300	0.202500
O121	O12	0.570500	0.101700	0.964800
O131	O13	0.479270	0.169100	0.049700
O141	O14	0.794440	0.464500	0.471600
O151	O15	0.833010	0.332200	0.351300
N31	N3	0.637060	0.247250	0.291540
C151	C15	0.582860	0.268840	0.176630
H231	H23	0.553600	0.314000	0.213000
H241	H24	0.594900	0.317200	0.106500
C161	C16	0.690460	0.204130	0.239010
H251	H25	0.678000	0.136400	0.178700
H261	H26	0.721400	0.177000	0.317200
C171	C17	0.718110	0.298320	0.159220
H271	H27	0.689600	0.316700	0.073000
H281	H28	0.754400	0.266400	0.136700
C181	C18	0.734060	0.413630	0.244670
H291	H29	0.743000	0.474000	0.182300
C191	C19	0.679060	0.457470	0.297500
H301	H30	0.647600	0.483400	0.219700
H311	H31	0.690800	0.524800	0.358800
C201	C20	0.654520	0.357550	0.375770
H321	H32	0.685100	0.337300	0.457900
H331	H33	0.619500	0.387000	0.405900
C211	C21	0.790860	0.400980	0.364670
Cd41	Cd4	0.107860	0.585920	0.428330
P41	P4	0.045770	0.633200	0.093430
O161	O16	0.060140	0.533300	0.202500
O171	O17	0.070500	0.601700	0.964800
O181	O18	0.979270	0.669100	0.049700
O191	O19	0.294440	0.964500	0.471600
O201	O20	0.333010	0.832200	0.351300
N41	N4	0.137060	0.747250	0.291540
C221	C22	0.082860	0.768840	0.176630
H341	H34	0.053600	0.814000	0.213000
H351	H35	0.094900	0.817200	0.106500
C231	C23	0.190460	0.704130	0.239010
H361	H36	0.178000	0.636400	0.178700
H371	H37	0.221400	0.677000	0.317200
C241	C24	0.218110	0.798320	0.159220
H381	H38	0.189600	0.816700	0.073000
H391	H39	0.254400	0.766400	0.136700
C251	C25	0.234060	0.913630	0.244670
H401	H40	0.243000	0.974000	0.182300
C261	C26	0.179060	0.957470	0.297500
H411	H41	0.147600	0.983400	0.219700
H421	H42	0.190800	0.024800	0.358800
C271	C27	0.154520	0.857550	0.375770
H431	H43	0.185100	0.837300	0.457900
H441	H44	0.119500	0.887000	0.405900
C281	C28	0.290860	0.900980	0.364670
Cd51	Cd5	0.607860	0.914080	0.928330
P51	P5	0.545770	0.866800	0.593430
O211	O21	0.560140	0.966700	0.702500
O221	O22	0.570500	0.898300	0.464800
O231	O23	0.479270	0.830900	0.549700
O241	O24	0.794440	0.535500	0.971600
O251	O25	0.833010	0.667800	0.851300
N51	N5	0.637060	0.752750	0.791540
C291	C29	0.582860	0.731160	0.676630
H451	H45	0.553600	0.686000	0.713000
H461	H46	0.594900	0.682800	0.606500
C301	C30	0.690460	0.795870	0.739010
H471	H47	0.678000	0.863600	0.678700
H481	H48	0.721400	0.823000	0.817200
C311	C31	0.718110	0.701680	0.659220
H491	H49	0.689600	0.683300	0.573000
H501	H50	0.754400	0.733600	0.636700
C321	C32	0.734060	0.586370	0.744670
H511	H51	0.743000	0.526000	0.682300
C331	C33	0.679060	0.542530	0.797500
H521	H52	0.647600	0.516600	0.719700
H531	H53	0.690800	0.475200	0.858800
C341	C34	0.654520	0.642450	0.875770
H541	H54	0.685100	0.662700	0.957900
H551	H55	0.619500	0.613000	0.905900
C351	C35	0.790860	0.599020	0.864670
Cd61	Cd6	0.107860	0.414080	0.928330
P61	P6	0.045770	0.366800	0.593430
O261	O26	0.060140	0.466700	0.702500
O271	O27	0.070500	0.398300	0.464800
O281	O28	0.979270	0.330900	0.549700
O291	O29	0.294440	0.035500	0.971600
O301	O30	0.333010	0.167800	0.851300
N61	N6	0.137060	0.252750	0.791540
C361	C36	0.082860	0.231160	0.676630
H561	H56	0.053600	0.186000	0.713000
H571	H57	0.094900	0.182800	0.606500
C371	C37	0.190460	0.295870	0.739010
H581	H58	0.178000	0.363600	0.678700
H591	H59	0.221400	0.323000	0.817200
C381	C38	0.218110	0.201680	0.659220
H601	H60	0.189600	0.183300	0.573000
H611	H61	0.254400	0.233600	0.636700
C391	C39	0.234060	0.086370	0.744670
H621	H62	0.243000	0.026000	0.682300
C401	C40	0.179060	0.042530	0.797500
H631	H63	0.147600	0.016600	0.719700
H641	H64	0.190800	0.975200	0.858800
C411	C41	0.154520	0.142450	0.875770
H651	H65	0.185100	0.162700	0.957900
H661	H66	0.119500	0.113000	0.905900
C421	C42	0.290860	0.099020	0.864670
Cd71	Cd7	0.392140	0.914080	0.571670
P71	P7	0.454230	0.866800	0.906570
O311	O31	0.439860	0.966700	0.797500
O321	O32	0.429500	0.898300	0.035200
O331	O33	0.520730	0.830900	0.950300
O341	O34	0.205560	0.535500	0.528400
O351	O35	0.166990	0.667800	0.648700
N71	N7	0.362940	0.752750	0.708460
C431	C43	0.417140	0.731160	0.823370
H671	H67	0.446400	0.686000	0.787000
H681	H68	0.405100	0.682800	0.893500
C441	C44	0.309540	0.795870	0.760990
H691	H69	0.322000	0.863600	0.821300
H701	H70	0.278600	0.823000	0.682800
C451	C45	0.281890	0.701680	0.840780
H711	H71	0.310400	0.683300	0.927000
H721	H72	0.245600	0.733600	0.863300
C461	C46	0.265940	0.586370	0.755330
H731	H73	0.257000	0.526000	0.817700
C471	C47	0.320940	0.542530	0.702500
H741	H74	0.352400	0.516600	0.780300
H751	H75	0.309200	0.475200	0.641200
C481	C48	0.345480	0.642450	0.624230
H761	H76	0.314900	0.662700	0.542100
H771	H77	0.380500	0.613000	0.594100
C491	C49	0.209140	0.599020	0.635330
Cd81	Cd8	0.892140	0.414080	0.571670
P81	P8	0.954230	0.366800	0.906570
O361	O36	0.939860	0.466700	0.797500
O371	O37	0.929500	0.398300	0.035200
O381	O38	0.020730	0.330900	0.950300
O391	O39	0.705560	0.035500	0.528400
O401	O40	0.666990	0.167800	0.648700
N81	N8	0.862940	0.252750	0.708460
C501	C50	0.917140	0.231160	0.823370
H781	H78	0.946400	0.186000	0.787000
H791	H79	0.905100	0.182800	0.893500
C511	C51	0.809540	0.295870	0.760990
H801	H80	0.822000	0.363600	0.821300
H811	H81	0.778600	0.323000	0.682800
C521	C52	0.781890	0.201680	0.840780
H821	H82	0.810400	0.183300	0.927000
H831	H83	0.745600	0.233600	0.863300
C531	C53	0.765940	0.086370	0.755330
H841	H84	0.757000	0.026000	0.817700
C541	C54	0.820940	0.042530	0.702500
H851	H85	0.852400	0.016600	0.780300
H861	H86	0.809200	0.975200	0.641200
C551	C55	0.845480	0.142450	0.624230
H871	H87	0.814900	0.162700	0.542100
H881	H88	0.880500	0.113000	0.594100
C561	C56	0.709140	0.099020	0.635330
Cd91	Cd9	0.500000	0.880010	0.250000
Cd101	Cd10	0.000000	0.380010	0.250000
Cd111	Cd11	0.500000	0.119990	0.750000
Cd121	Cd12	0.000000	0.619990	0.750000
