data_KUQXIE_clean_PM
_symmetry_space_group_name_H-M	'P1'
_cell_length_a	8.398900
_cell_length_b	8.535000
_cell_length_c	11.488300
_cell_angle_alpha	89.325000
_cell_angle_beta	69.014000
_cell_angle_gamma	67.269000
_symmetry_Int_Tables_number 1

loop_
_symmetry_equiv_pos_as_xyz
'x,y,z'

loop_
_atom_site_label
_atom_site_type_symbol
_atom_site_fract_x
_atom_site_fract_y
_atom_site_fract_z
Cd11	Cd1	0.236330	0.800770	0.889860
Cd21	Cd2	0.148020	0.438420	0.592290
Cd31	Cd3	0.763670	0.199230	0.110140
Cd41	Cd4	0.851980	0.561580	0.407710
H11	H1	0.285600	0.167100	0.140000
H21	H2	0.714400	0.832900	0.860000
C11	C1	0.282900	0.703000	0.151800
C21	C2	0.279800	0.543700	0.096200
C31	C3	0.288600	0.400800	0.157900
C41	C4	0.311300	0.384400	0.282700
C51	C5	0.276300	0.265300	0.102000
C61	C6	0.250000	0.276400	0.988900
C71	C7	0.233700	0.124500	0.935700
C81	C8	0.240900	0.423300	0.933700
C91	C9	0.199800	0.454900	0.817000
C101	C10	0.717100	0.297000	0.848200
C111	C11	0.720200	0.456300	0.903800
C121	C12	0.711400	0.599200	0.842100
C131	C13	0.688700	0.615600	0.717300
C141	C14	0.723700	0.734700	0.898000
C151	C15	0.750000	0.723600	0.011100
C161	C16	0.766300	0.875500	0.064300
C171	C17	0.759100	0.576700	0.066300
C181	C18	0.800200	0.545100	0.183000
N11	N1	0.260300	0.552100	0.985700
N21	N2	0.739700	0.447900	0.014300
O11	O1	0.271600	0.825100	0.088300
O21	O2	0.291600	0.701600	0.257800
O31	O3	0.161500	0.424800	0.381200
O41	O4	0.471300	0.324100	0.282500
O51	O5	0.080600	0.112800	0.981900
O61	O6	0.377800	0.008300	0.857500
O71	O7	0.161800	0.346000	0.773000
O81	O8	0.198800	0.588200	0.771400
O91	O9	0.728400	0.174900	0.911700
O101	O10	0.708400	0.298400	0.742200
O111	O11	0.838500	0.575200	0.618800
O121	O12	0.528700	0.675900	0.717500
O131	O13	0.919400	0.887200	0.018100
O141	O14	0.622200	0.991700	0.142500
O151	O15	0.838200	0.654000	0.227000
O161	O16	0.801200	0.411800	0.228600
