data_KUTRIC_clean_PM
_symmetry_space_group_name_H-M	'P1'
_cell_length_a	15.029000
_cell_length_b	19.220600
_cell_length_c	21.386200
_cell_angle_alpha	90.000000
_cell_angle_beta	118.363000
_cell_angle_gamma	90.000000
_symmetry_Int_Tables_number 1

loop_
_symmetry_equiv_pos_as_xyz
'x,y,z'

loop_
_atom_site_label
_atom_site_type_symbol
_atom_site_fract_x
_atom_site_fract_y
_atom_site_fract_z
Zn11	Zn1	0.787710	0.931700	0.867870
Zn21	Zn2	0.957000	0.874300	0.424570
Zn31	Zn3	0.750190	0.780620	0.396520
Co11	Co1	0.242280	0.820040	0.804180
O11	O1	0.160300	0.019790	0.787560
O21	O2	0.646200	0.004910	0.787680
O31	O3	0.644270	0.902530	0.831280
O41	O4	0.141700	0.994830	0.064180
O51	O5	0.843600	0.925890	0.801800
O61	O6	0.845100	0.837880	0.919500
O71	O7	0.249000	0.011650	0.021880
O81	O8	0.178800	0.079450	0.631370
O91	O9	0.318300	0.129690	0.643440
O101	O10	0.730600	0.859600	0.717560
O111	O11	0.808000	0.813070	0.502530
O121	O12	0.943300	0.872570	0.515310
O131	O13	0.256400	0.706550	0.965740
O141	O14	0.890420	0.734480	0.901980
O151	O15	0.226400	0.808790	0.612650
N11	N1	0.342700	0.886880	0.864140
N21	N2	0.155600	0.900730	0.776680
N31	N3	0.334600	0.741440	0.837460
N41	N4	0.214300	0.790980	0.880590
N51	N5	0.142900	0.757600	0.734400
N61	N6	0.272100	0.839200	0.727230
C11	C1	0.440800	0.874300	0.907930
H11	H1	0.462200	0.828600	0.920400
C21	C2	0.510700	0.927200	0.935000
H21	H2	0.578500	0.917300	0.965100
C31	C3	0.479100	0.994600	0.917100
H31	H3	0.525700	0.030800	0.933100
C41	C4	0.377500	0.008500	0.875100
H41	H4	0.354400	0.054000	0.864400
C51	C5	0.311000	0.953120	0.849320
C61	C6	0.200000	0.961330	0.801070
C71	C7	0.050000	0.897270	0.729570
C81	C8	0.014400	0.883320	0.658250
H51	H5	0.059300	0.884000	0.639800
C91	C9	0.913700	0.868340	0.613750
C101	C10	0.846100	0.869190	0.641130
H61	H6	0.778900	0.856600	0.612600
C111	C11	0.879700	0.889060	0.711640
C121	C12	0.981300	0.903280	0.755160
H71	H7	0.003500	0.917000	0.802000
C131	C13	0.884500	0.849730	0.537090
C141	C14	0.810400	0.891400	0.744630
C151	C15	0.398300	0.720140	0.813500
H81	H8	0.397800	0.743400	0.775200
C161	C16	0.463400	0.665900	0.843000
H91	H9	0.507300	0.652900	0.825800
C171	C17	0.462700	0.630800	0.898800
H101	H10	0.507100	0.594100	0.920500
C181	C18	0.395400	0.650800	0.922300
H111	H11	0.392400	0.626700	0.958900
C191	C19	0.333300	0.706560	0.891200
C201	C20	0.262600	0.734990	0.915310
C211	C21	0.153400	0.825190	0.906700
C221	C22	0.188400	0.885490	0.946240
H121	H12	0.248900	0.905000	0.952900
C231	C23	0.134500	0.917320	0.976290
C241	C24	0.043200	0.889250	0.964940
H131	H13	0.006400	0.910600	0.984300
C251	C25	0.006600	0.829060	0.924480
C261	C26	0.061500	0.797090	0.895820
H141	H14	0.037100	0.756600	0.869200
C271	C27	0.908700	0.799290	0.914600
C281	C28	0.072100	0.720000	0.739900
H151	H15	0.068300	0.721700	0.782100
C291	C29	0.004700	0.679000	0.685400
H161	H16	0.955400	0.654100	0.690400
C301	C30	0.011000	0.674900	0.623200
H171	H17	0.965900	0.647500	0.585700
C311	C31	0.084900	0.712100	0.617700
H181	H18	0.091900	0.709300	0.576800
C321	C32	0.148000	0.753280	0.673290
C331	C33	0.220700	0.803130	0.668560
C341	C34	0.328600	0.897700	0.723270
C351	C35	0.432900	0.896330	0.756590
H191	H19	0.467600	0.856500	0.780300
C361	C36	0.485400	0.954580	0.754520
C371	C37	0.433400	0.013770	0.719000
H201	H20	0.468900	0.052700	0.717500
C381	C38	0.277000	0.956740	0.687670
H211	H21	0.206700	0.957100	0.664800
C391	C39	0.599100	0.954980	0.792750
C401	C40	0.329100	0.015310	0.685840
C411	C41	0.270500	0.079700	0.650230
C421	C42	0.179000	0.979820	0.023500
Zn41	Zn4	0.212290	0.431700	0.632130
Zn51	Zn5	0.043000	0.374300	0.075430
Zn61	Zn6	0.249810	0.280620	0.103480
Co21	Co2	0.757720	0.320040	0.695820
O161	O16	0.839700	0.519790	0.712440
O171	O17	0.353800	0.504910	0.712320
O181	O18	0.355730	0.402530	0.668720
O191	O19	0.858300	0.494830	0.435820
O201	O20	0.156400	0.425890	0.698200
O211	O21	0.154900	0.337880	0.580500
O221	O22	0.751000	0.511650	0.478120
O231	O23	0.821200	0.579450	0.868630
O241	O24	0.681700	0.629690	0.856560
O251	O25	0.269400	0.359600	0.782440
O261	O26	0.192000	0.313070	0.997470
O271	O27	0.056700	0.372570	0.984690
O281	O28	0.743600	0.206550	0.534260
O291	O29	0.109580	0.234480	0.598020
O301	O30	0.773600	0.308790	0.887350
N71	N7	0.657300	0.386880	0.635860
N81	N8	0.844400	0.400730	0.723320
N91	N9	0.665400	0.241440	0.662540
N101	N10	0.785700	0.290980	0.619410
N111	N11	0.857100	0.257600	0.765600
N121	N12	0.727900	0.339200	0.772770
C431	C43	0.559200	0.374300	0.592070
H221	H22	0.537800	0.328600	0.579600
C441	C44	0.489300	0.427200	0.565000
H231	H23	0.421500	0.417300	0.534900
C451	C45	0.520900	0.494600	0.582900
H241	H24	0.474300	0.530800	0.566900
C461	C46	0.622500	0.508500	0.624900
H251	H25	0.645600	0.554000	0.635600
C471	C47	0.689000	0.453120	0.650680
C481	C48	0.800000	0.461330	0.698930
C491	C49	0.950000	0.397270	0.770430
C501	C50	0.985600	0.383320	0.841750
H261	H26	0.940700	0.384000	0.860200
C511	C51	0.086300	0.368340	0.886250
C521	C52	0.153900	0.369190	0.858870
H271	H27	0.221100	0.356600	0.887400
C531	C53	0.120300	0.389060	0.788360
C541	C54	0.018700	0.403280	0.744840
H281	H28	0.996500	0.417000	0.698000
C551	C55	0.115500	0.349730	0.962910
C561	C56	0.189600	0.391400	0.755370
C571	C57	0.601700	0.220140	0.686500
H291	H29	0.602200	0.243400	0.724800
C581	C58	0.536600	0.165900	0.657000
H301	H30	0.492700	0.152900	0.674200
C591	C59	0.537300	0.130800	0.601200
H311	H31	0.492900	0.094100	0.579500
C601	C60	0.604600	0.150800	0.577700
H321	H32	0.607600	0.126700	0.541100
C611	C61	0.666700	0.206560	0.608800
C621	C62	0.737400	0.234990	0.584690
C631	C63	0.846600	0.325190	0.593300
C641	C64	0.811600	0.385490	0.553760
H331	H33	0.751100	0.405000	0.547100
C651	C65	0.865500	0.417320	0.523710
C661	C66	0.956800	0.389250	0.535060
H341	H34	0.993600	0.410600	0.515700
C671	C67	0.993400	0.329060	0.575520
C681	C68	0.938500	0.297090	0.604180
H351	H35	0.962900	0.256600	0.630800
C691	C69	0.091300	0.299290	0.585400
C701	C70	0.927900	0.220000	0.760100
H361	H36	0.931700	0.221700	0.717900
C711	C71	0.995300	0.179000	0.814600
H371	H37	0.044600	0.154100	0.809600
C721	C72	0.989000	0.174900	0.876800
H381	H38	0.034100	0.147500	0.914300
C731	C73	0.915100	0.212100	0.882300
H391	H39	0.908100	0.209300	0.923200
C741	C74	0.852000	0.253280	0.826710
C751	C75	0.779300	0.303130	0.831440
C761	C76	0.671400	0.397700	0.776730
C771	C77	0.567100	0.396330	0.743410
H401	H40	0.532400	0.356500	0.719700
C781	C78	0.514600	0.454580	0.745480
C791	C79	0.566600	0.513770	0.781000
H411	H41	0.531100	0.552700	0.782500
C801	C80	0.723000	0.456740	0.812330
H421	H42	0.793300	0.457100	0.835200
C811	C81	0.400900	0.454980	0.707250
C821	C82	0.670900	0.515310	0.814160
C831	C83	0.729500	0.579700	0.849770
C841	C84	0.821000	0.479820	0.476500
Zn71	Zn7	0.212290	0.068300	0.132130
Zn81	Zn8	0.043000	0.125700	0.575430
Zn91	Zn9	0.249810	0.219380	0.603480
Co31	Co3	0.757720	0.179960	0.195820
O311	O31	0.839700	0.980210	0.212440
O321	O32	0.353800	0.995090	0.212320
O331	O33	0.355730	0.097470	0.168720
O341	O34	0.858300	0.005170	0.935820
O351	O35	0.156400	0.074110	0.198200
O361	O36	0.154900	0.162120	0.080500
O371	O37	0.751000	0.988350	0.978120
O381	O38	0.821200	0.920550	0.368630
O391	O39	0.681700	0.870310	0.356560
O401	O40	0.269400	0.140400	0.282440
O411	O41	0.192000	0.186930	0.497470
O421	O42	0.056700	0.127430	0.484690
O431	O43	0.743600	0.293450	0.034260
O441	O44	0.109580	0.265520	0.098020
O451	O45	0.773600	0.191210	0.387350
N131	N13	0.657300	0.113120	0.135860
N141	N14	0.844400	0.099270	0.223320
N151	N15	0.665400	0.258560	0.162540
N161	N16	0.785700	0.209020	0.119410
N171	N17	0.857100	0.242400	0.265600
N181	N18	0.727900	0.160800	0.272770
C851	C85	0.559200	0.125700	0.092070
H431	H43	0.537800	0.171400	0.079600
C861	C86	0.489300	0.072800	0.065000
H441	H44	0.421500	0.082700	0.034900
C871	C87	0.520900	0.005400	0.082900
H451	H45	0.474300	0.969200	0.066900
C881	C88	0.622500	0.991500	0.124900
H461	H46	0.645600	0.946000	0.135600
C891	C89	0.689000	0.046880	0.150680
C901	C90	0.800000	0.038670	0.198930
C911	C91	0.950000	0.102730	0.270430
C921	C92	0.985600	0.116680	0.341750
H471	H47	0.940700	0.116000	0.360200
C931	C93	0.086300	0.131660	0.386250
C941	C94	0.153900	0.130810	0.358870
H481	H48	0.221100	0.143400	0.387400
C951	C95	0.120300	0.110940	0.288360
C961	C96	0.018700	0.096720	0.244840
H491	H49	0.996500	0.083000	0.198000
C971	C97	0.115500	0.150270	0.462910
C981	C98	0.189600	0.108600	0.255370
C991	C99	0.601700	0.279860	0.186500
H501	H50	0.602200	0.256600	0.224800
C1001	C100	0.536600	0.334100	0.157000
H511	H51	0.492700	0.347100	0.174200
C1011	C101	0.537300	0.369200	0.101200
H521	H52	0.492900	0.405900	0.079500
C1021	C102	0.604600	0.349200	0.077700
H531	H53	0.607600	0.373300	0.041100
C1031	C103	0.666700	0.293440	0.108800
C1041	C104	0.737400	0.265010	0.084690
C1051	C105	0.846600	0.174810	0.093300
C1061	C106	0.811600	0.114510	0.053760
H541	H54	0.751100	0.095000	0.047100
C1071	C107	0.865500	0.082680	0.023710
C1081	C108	0.956800	0.110750	0.035060
H551	H55	0.993600	0.089400	0.015700
C1091	C109	0.993400	0.170940	0.075520
C1101	C110	0.938500	0.202910	0.104180
H561	H56	0.962900	0.243400	0.130800
C1111	C111	0.091300	0.200710	0.085400
C1121	C112	0.927900	0.280000	0.260100
H571	H57	0.931700	0.278300	0.217900
C1131	C113	0.995300	0.321000	0.314600
H581	H58	0.044600	0.345900	0.309600
C1141	C114	0.989000	0.325100	0.376800
H591	H59	0.034100	0.352500	0.414300
C1151	C115	0.915100	0.287900	0.382300
H601	H60	0.908100	0.290700	0.423200
C1161	C116	0.852000	0.246720	0.326710
C1171	C117	0.779300	0.196870	0.331440
C1181	C118	0.671400	0.102300	0.276730
C1191	C119	0.567100	0.103670	0.243410
H611	H61	0.532400	0.143500	0.219700
C1201	C120	0.514600	0.045420	0.245480
C1211	C121	0.566600	0.986230	0.281000
H621	H62	0.531100	0.947300	0.282500
C1221	C122	0.723000	0.043260	0.312330
H631	H63	0.793300	0.042900	0.335200
C1231	C123	0.400900	0.045020	0.207250
C1241	C124	0.670900	0.984690	0.314160
C1251	C125	0.729500	0.920300	0.349770
C1261	C126	0.821000	0.020180	0.976500
Zn101	Zn10	0.787710	0.568300	0.367870
Zn111	Zn11	0.957000	0.625700	0.924570
Zn121	Zn12	0.750190	0.719380	0.896520
Co41	Co4	0.242280	0.679960	0.304180
O461	O46	0.160300	0.480210	0.287560
O471	O47	0.646200	0.495090	0.287680
O481	O48	0.644270	0.597470	0.331280
O491	O49	0.141700	0.505170	0.564180
O501	O50	0.843600	0.574110	0.301800
O511	O51	0.845100	0.662120	0.419500
O521	O52	0.249000	0.488350	0.521880
O531	O53	0.178800	0.420550	0.131370
O541	O54	0.318300	0.370310	0.143440
O551	O55	0.730600	0.640400	0.217560
O561	O56	0.808000	0.686930	0.002530
O571	O57	0.943300	0.627430	0.015310
O581	O58	0.256400	0.793450	0.465740
O591	O59	0.890420	0.765520	0.401980
O601	O60	0.226400	0.691210	0.112650
N191	N19	0.342700	0.613120	0.364140
N201	N20	0.155600	0.599270	0.276680
N211	N21	0.334600	0.758560	0.337460
N221	N22	0.214300	0.709020	0.380590
N231	N23	0.142900	0.742400	0.234400
N241	N24	0.272100	0.660800	0.227230
C1271	C127	0.440800	0.625700	0.407930
H641	H64	0.462200	0.671400	0.420400
C1281	C128	0.510700	0.572800	0.435000
H651	H65	0.578500	0.582700	0.465100
C1291	C129	0.479100	0.505400	0.417100
H661	H66	0.525700	0.469200	0.433100
C1301	C130	0.377500	0.491500	0.375100
H671	H67	0.354400	0.446000	0.364400
C1311	C131	0.311000	0.546880	0.349320
C1321	C132	0.200000	0.538670	0.301070
C1331	C133	0.050000	0.602730	0.229570
C1341	C134	0.014400	0.616680	0.158250
H681	H68	0.059300	0.616000	0.139800
C1351	C135	0.913700	0.631660	0.113750
C1361	C136	0.846100	0.630810	0.141130
H691	H69	0.778900	0.643400	0.112600
C1371	C137	0.879700	0.610940	0.211640
C1381	C138	0.981300	0.596720	0.255160
H701	H70	0.003500	0.583000	0.302000
C1391	C139	0.884500	0.650270	0.037090
C1401	C140	0.810400	0.608600	0.244630
C1411	C141	0.398300	0.779860	0.313500
H711	H71	0.397800	0.756600	0.275200
C1421	C142	0.463400	0.834100	0.343000
H721	H72	0.507300	0.847100	0.325800
C1431	C143	0.462700	0.869200	0.398800
H731	H73	0.507100	0.905900	0.420500
C1441	C144	0.395400	0.849200	0.422300
H741	H74	0.392400	0.873300	0.458900
C1451	C145	0.333300	0.793440	0.391200
C1461	C146	0.262600	0.765010	0.415310
C1471	C147	0.153400	0.674810	0.406700
C1481	C148	0.188400	0.614510	0.446240
H751	H75	0.248900	0.595000	0.452900
C1491	C149	0.134500	0.582680	0.476290
C1501	C150	0.043200	0.610750	0.464940
H761	H76	0.006400	0.589400	0.484300
C1511	C151	0.006600	0.670940	0.424480
C1521	C152	0.061500	0.702910	0.395820
H771	H77	0.037100	0.743400	0.369200
C1531	C153	0.908700	0.700710	0.414600
C1541	C154	0.072100	0.780000	0.239900
H781	H78	0.068300	0.778300	0.282100
C1551	C155	0.004700	0.821000	0.185400
H791	H79	0.955400	0.845900	0.190400
C1561	C156	0.011000	0.825100	0.123200
H801	H80	0.965900	0.852500	0.085700
C1571	C157	0.084900	0.787900	0.117700
H811	H81	0.091900	0.790700	0.076800
C1581	C158	0.148000	0.746720	0.173290
C1591	C159	0.220700	0.696870	0.168560
C1601	C160	0.328600	0.602300	0.223270
C1611	C161	0.432900	0.603670	0.256590
H821	H82	0.467600	0.643500	0.280300
C1621	C162	0.485400	0.545420	0.254520
C1631	C163	0.433400	0.486230	0.219000
H831	H83	0.468900	0.447300	0.217500
C1641	C164	0.277000	0.543260	0.187670
H841	H84	0.206700	0.542900	0.164800
C1651	C165	0.599100	0.545020	0.292750
C1661	C166	0.329100	0.484690	0.185840
C1671	C167	0.270500	0.420300	0.150230
C1681	C168	0.179000	0.520180	0.523500
