data_KUVMIZ_clean_PM
_symmetry_space_group_name_H-M	'P1'
_cell_length_a	27.104000
_cell_length_b	31.278000
_cell_length_c	34.900000
_cell_angle_alpha	90.000000
_cell_angle_beta	92.100000
_cell_angle_gamma	90.000000
_symmetry_Int_Tables_number 1

loop_
_symmetry_equiv_pos_as_xyz
'x,y,z'

loop_
_atom_site_label
_atom_site_type_symbol
_atom_site_fract_x
_atom_site_fract_y
_atom_site_fract_z
Cu11	Cu1	0.143140	0.252290	0.823400
Si11	Si1	0.896040	0.990910	0.573400
C11	C1	0.855200	0.026500	0.541800
C21	C2	0.805900	0.016400	0.534300
H11	H1	0.791900	0.991900	0.545700
C31	C3	0.777000	0.042200	0.510000
H21	H2	0.743300	0.035300	0.504800
C41	C4	0.797500	0.078000	0.493200
C51	C5	0.846800	0.088100	0.500700
H31	H3	0.860800	0.112600	0.489300
C61	C6	0.875700	0.062300	0.525000
H41	H4	0.909500	0.069200	0.530100
C71	C7	0.767400	0.106100	0.469200
N11	N1	0.676400	0.208100	0.364300
C81	C8	0.725600	0.206800	0.365800
H51	H5	0.743400	0.224100	0.348800
C91	C9	0.751700	0.180300	0.392000
H61	H6	0.786700	0.178200	0.392700
C101	C10	0.722500	0.157200	0.417100
C111	C11	0.671600	0.160000	0.416100
H71	H7	0.652400	0.143900	0.433200
C121	C12	0.649400	0.187600	0.388900
H81	H8	0.614700	0.191600	0.388200
C131	C13	0.746100	0.129200	0.447200
C141	C14	0.935100	0.027800	0.604900
C151	C15	0.985100	0.020900	0.612500
H91	H9	0.001200	0.997400	0.601000
C161	C16	0.011600	0.048200	0.637000
H101	H10	0.045800	0.043400	0.642200
C171	C17	0.988100	0.082500	0.653900
C181	C18	0.938000	0.089400	0.646300
H111	H11	0.921900	0.112800	0.657900
C191	C19	0.911500	0.062100	0.621800
H121	H12	0.877300	0.066800	0.616600
C201	C20	0.015800	0.110100	0.679800
N21	N2	0.111200	0.214200	0.782700
C211	C21	0.083200	0.230400	0.754000
H131	H13	0.080300	0.260600	0.752500
C221	C22	0.058300	0.206700	0.726300
H141	H14	0.038500	0.219700	0.706500
C231	C23	0.063800	0.162000	0.729000
C241	C24	0.093300	0.143500	0.758600
H151	H15	0.097900	0.113500	0.760500
C251	C25	0.115900	0.172200	0.785500
H161	H16	0.135200	0.160800	0.806300
C261	C26	0.036300	0.133500	0.701600
C271	C27	0.859300	0.956200	0.605400
C281	C28	0.847600	0.914500	0.594600
H171	H17	0.858900	0.903400	0.571100
C291	C29	0.819300	0.889200	0.618000
H181	H18	0.811300	0.860700	0.610600
C301	C30	0.802600	0.905500	0.652200
C311	C31	0.814300	0.947100	0.663100
H191	H19	0.802900	0.958300	0.686500
C321	C32	0.842600	0.972500	0.639700
H201	H20	0.850600	0.001000	0.647100
C331	C33	0.772800	0.880100	0.678000
N31	N3	0.677600	0.786000	0.780800
C341	C34	0.673200	0.828200	0.781100
H211	H21	0.653800	0.841700	0.799800
C351	C35	0.697100	0.853300	0.753600
H221	H22	0.694200	0.883500	0.753200
C361	C36	0.725300	0.831700	0.727100
C371	C37	0.729000	0.786900	0.726700
H231	H23	0.747900	0.772300	0.708300
C381	C38	0.703100	0.764600	0.755100
H241	H24	0.704000	0.734200	0.755900
C391	C39	0.751400	0.857600	0.698700
C401	C40	0.934200	0.956700	0.541700
C411	C41	0.927400	0.960700	0.502200
H251	H25	0.905000	0.981300	0.491700
C421	C42	0.953500	0.934400	0.477900
H261	H26	0.948800	0.937100	0.450900
C431	C43	0.986400	0.904300	0.493100
C441	C44	0.993200	0.900300	0.532700
H271	H27	0.015600	0.879700	0.543100
C451	C45	0.967100	0.926600	0.556900
H281	H28	0.971800	0.923900	0.583900
C461	C46	0.011100	0.873800	0.469000
N41	N4	0.106500	0.780900	0.364800
C471	C47	0.058700	0.784500	0.361200
H291	H29	0.041500	0.771500	0.340000
C481	C48	0.032100	0.807500	0.388400
H301	H30	0.997200	0.810400	0.386200
C491	C49	0.060100	0.825900	0.419100
C501	C50	0.111100	0.821900	0.423300
C511	C51	0.133900	0.797700	0.394300
H311	H31	0.168600	0.793200	0.395700
C521	C52	0.033500	0.852600	0.447600
Cu21	Cu2	0.643140	0.752290	0.823400
Si21	Si2	0.396040	0.490910	0.573400
C531	C53	0.355200	0.526500	0.541800
C541	C54	0.305900	0.516400	0.534300
H321	H32	0.291900	0.491900	0.545700
C551	C55	0.277000	0.542200	0.510000
H331	H33	0.243300	0.535300	0.504800
C561	C56	0.297500	0.578000	0.493200
C571	C57	0.346800	0.588100	0.500700
H341	H34	0.360800	0.612600	0.489300
C581	C58	0.375700	0.562300	0.525000
H351	H35	0.409500	0.569200	0.530100
C591	C59	0.267400	0.606100	0.469200
N51	N5	0.176400	0.708100	0.364300
C601	C60	0.225600	0.706800	0.365800
H361	H36	0.243400	0.724100	0.348800
C611	C61	0.251700	0.680300	0.392000
H371	H37	0.286700	0.678200	0.392700
C621	C62	0.222500	0.657200	0.417100
C631	C63	0.171600	0.660000	0.416100
H381	H38	0.152400	0.643900	0.433200
C641	C64	0.149400	0.687600	0.388900
H391	H39	0.114700	0.691600	0.388200
C651	C65	0.246100	0.629200	0.447200
C661	C66	0.435100	0.527800	0.604900
C671	C67	0.485100	0.520900	0.612500
H401	H40	0.501200	0.497400	0.601000
C681	C68	0.511600	0.548200	0.637000
H411	H41	0.545800	0.543400	0.642200
C691	C69	0.488100	0.582500	0.653900
C701	C70	0.438000	0.589400	0.646300
H421	H42	0.421900	0.612800	0.657900
C711	C71	0.411500	0.562100	0.621800
H431	H43	0.377300	0.566800	0.616600
C721	C72	0.515800	0.610100	0.679800
N61	N6	0.611200	0.714200	0.782700
C731	C73	0.583200	0.730400	0.754000
H441	H44	0.580300	0.760600	0.752500
C741	C74	0.558300	0.706700	0.726300
H451	H45	0.538500	0.719700	0.706500
C751	C75	0.563800	0.662000	0.729000
C761	C76	0.593300	0.643500	0.758600
H461	H46	0.597900	0.613500	0.760500
C771	C77	0.615900	0.672200	0.785500
H471	H47	0.635200	0.660800	0.806300
C781	C78	0.536300	0.633500	0.701600
C791	C79	0.359300	0.456200	0.605400
C801	C80	0.347600	0.414500	0.594600
H481	H48	0.358900	0.403400	0.571100
C811	C81	0.319300	0.389200	0.618000
H491	H49	0.311300	0.360700	0.610600
C821	C82	0.302600	0.405500	0.652200
C831	C83	0.314300	0.447100	0.663100
H501	H50	0.302900	0.458300	0.686500
C841	C84	0.342600	0.472500	0.639700
H511	H51	0.350600	0.501000	0.647100
C851	C85	0.272800	0.380100	0.678000
N71	N7	0.177600	0.286000	0.780800
C861	C86	0.173200	0.328200	0.781100
H521	H52	0.153800	0.341700	0.799800
C871	C87	0.197100	0.353300	0.753600
H531	H53	0.194200	0.383500	0.753200
C881	C88	0.225300	0.331700	0.727100
C891	C89	0.229000	0.286900	0.726700
H541	H54	0.247900	0.272300	0.708300
C901	C90	0.203100	0.264600	0.755100
H551	H55	0.204000	0.234200	0.755900
C911	C91	0.251400	0.357600	0.698700
C921	C92	0.434200	0.456700	0.541700
C931	C93	0.427400	0.460700	0.502200
H561	H56	0.405000	0.481300	0.491700
C941	C94	0.453500	0.434400	0.477900
H571	H57	0.448800	0.437100	0.450900
C951	C95	0.486400	0.404300	0.493100
C961	C96	0.493200	0.400300	0.532700
H581	H58	0.515600	0.379700	0.543100
C971	C97	0.467100	0.426600	0.556900
H591	H59	0.471800	0.423900	0.583900
C981	C98	0.511100	0.373800	0.469000
N81	N8	0.606500	0.280900	0.364800
C991	C99	0.558700	0.284500	0.361200
H601	H60	0.541500	0.271500	0.340000
C1001	C100	0.532100	0.307500	0.388400
H611	H61	0.497200	0.310400	0.386200
C1011	C101	0.560100	0.325900	0.419100
C1021	C102	0.611100	0.321900	0.423300
C1031	C103	0.633900	0.297700	0.394300
H621	H62	0.668600	0.293200	0.395700
C1041	C104	0.533500	0.352600	0.447600
Cu31	Cu3	0.143140	0.747710	0.323400
Si31	Si3	0.896040	0.009090	0.073400
C1051	C105	0.855200	0.973500	0.041800
C1061	C106	0.805900	0.983600	0.034300
H631	H63	0.791900	0.008100	0.045700
C1071	C107	0.777000	0.957800	0.010000
H641	H64	0.743300	0.964700	0.004800
C1081	C108	0.797500	0.922000	0.993200
C1091	C109	0.846800	0.911900	0.000700
H651	H65	0.860800	0.887400	0.989300
C1101	C110	0.875700	0.937700	0.025000
H661	H66	0.909500	0.930800	0.030100
C1111	C111	0.767400	0.893900	0.969200
N91	N9	0.676400	0.791900	0.864300
C1121	C112	0.725600	0.793200	0.865800
H671	H67	0.743400	0.775900	0.848800
C1131	C113	0.751700	0.819700	0.892000
H681	H68	0.786700	0.821800	0.892700
C1141	C114	0.722500	0.842800	0.917100
C1151	C115	0.671600	0.840000	0.916100
H691	H69	0.652400	0.856100	0.933200
C1161	C116	0.649400	0.812400	0.888900
H701	H70	0.614700	0.808400	0.888200
C1171	C117	0.746100	0.870800	0.947200
C1181	C118	0.935100	0.972200	0.104900
C1191	C119	0.985100	0.979100	0.112500
H711	H71	0.001200	0.002600	0.101000
C1201	C120	0.011600	0.951800	0.137000
H721	H72	0.045800	0.956600	0.142200
C1211	C121	0.988100	0.917500	0.153900
C1221	C122	0.938000	0.910600	0.146300
H731	H73	0.921900	0.887200	0.157900
C1231	C123	0.911500	0.937900	0.121800
H741	H74	0.877300	0.933200	0.116600
C1241	C124	0.015800	0.889900	0.179800
N101	N10	0.111200	0.785800	0.282700
C1251	C125	0.083200	0.769600	0.254000
H751	H75	0.080300	0.739400	0.252500
C1261	C126	0.058300	0.793300	0.226300
H761	H76	0.038500	0.780300	0.206500
C1271	C127	0.063800	0.838000	0.229000
C1281	C128	0.093300	0.856500	0.258600
H771	H77	0.097900	0.886500	0.260500
C1291	C129	0.115900	0.827800	0.285500
H781	H78	0.135200	0.839200	0.306300
C1301	C130	0.036300	0.866500	0.201600
C1311	C131	0.859300	0.043800	0.105400
C1321	C132	0.847600	0.085500	0.094600
H791	H79	0.858900	0.096600	0.071100
C1331	C133	0.819300	0.110800	0.118000
H801	H80	0.811300	0.139300	0.110600
C1341	C134	0.802600	0.094500	0.152200
C1351	C135	0.814300	0.052900	0.163100
H811	H81	0.802900	0.041700	0.186500
C1361	C136	0.842600	0.027500	0.139700
H821	H82	0.850600	0.999000	0.147100
C1371	C137	0.772800	0.119900	0.178000
N111	N11	0.677600	0.214000	0.280800
C1381	C138	0.673200	0.171800	0.281100
H831	H83	0.653800	0.158300	0.299800
C1391	C139	0.697100	0.146700	0.253600
H841	H84	0.694200	0.116500	0.253200
C1401	C140	0.725300	0.168300	0.227100
C1411	C141	0.729000	0.213100	0.226700
H851	H85	0.747900	0.227700	0.208300
C1421	C142	0.703100	0.235400	0.255100
H861	H86	0.704000	0.265800	0.255900
C1431	C143	0.751400	0.142400	0.198700
C1441	C144	0.934200	0.043300	0.041700
C1451	C145	0.927400	0.039300	0.002200
H871	H87	0.905000	0.018700	0.991700
C1461	C146	0.953500	0.065600	0.977900
H881	H88	0.948800	0.062900	0.950900
C1471	C147	0.986400	0.095700	0.993100
C1481	C148	0.993200	0.099700	0.032700
H891	H89	0.015600	0.120300	0.043100
C1491	C149	0.967100	0.073400	0.056900
H901	H90	0.971800	0.076100	0.083900
C1501	C150	0.011100	0.126200	0.969000
N121	N12	0.106500	0.219100	0.864800
C1511	C151	0.058700	0.215500	0.861200
H911	H91	0.041500	0.228500	0.840000
C1521	C152	0.032100	0.192500	0.888400
H921	H92	0.997200	0.189600	0.886200
C1531	C153	0.060100	0.174100	0.919100
C1541	C154	0.111100	0.178100	0.923300
C1551	C155	0.133900	0.202300	0.894300
H931	H93	0.168600	0.206800	0.895700
C1561	C156	0.033500	0.147400	0.947600
Cu41	Cu4	0.643140	0.247710	0.323400
Si41	Si4	0.396040	0.509090	0.073400
C1571	C157	0.355200	0.473500	0.041800
C1581	C158	0.305900	0.483600	0.034300
H941	H94	0.291900	0.508100	0.045700
C1591	C159	0.277000	0.457800	0.010000
H951	H95	0.243300	0.464700	0.004800
C1601	C160	0.297500	0.422000	0.993200
C1611	C161	0.346800	0.411900	0.000700
H961	H96	0.360800	0.387400	0.989300
C1621	C162	0.375700	0.437700	0.025000
H971	H97	0.409500	0.430800	0.030100
C1631	C163	0.267400	0.393900	0.969200
N131	N13	0.176400	0.291900	0.864300
C1641	C164	0.225600	0.293200	0.865800
H981	H98	0.243400	0.275900	0.848800
C1651	C165	0.251700	0.319700	0.892000
H991	H99	0.286700	0.321800	0.892700
C1661	C166	0.222500	0.342800	0.917100
C1671	C167	0.171600	0.340000	0.916100
H1001	H100	0.152400	0.356100	0.933200
C1681	C168	0.149400	0.312400	0.888900
H1011	H101	0.114700	0.308400	0.888200
C1691	C169	0.246100	0.370800	0.947200
C1701	C170	0.435100	0.472200	0.104900
C1711	C171	0.485100	0.479100	0.112500
H1021	H102	0.501200	0.502600	0.101000
C1721	C172	0.511600	0.451800	0.137000
H1031	H103	0.545800	0.456600	0.142200
C1731	C173	0.488100	0.417500	0.153900
C1741	C174	0.438000	0.410600	0.146300
H1041	H104	0.421900	0.387200	0.157900
C1751	C175	0.411500	0.437900	0.121800
H1051	H105	0.377300	0.433200	0.116600
C1761	C176	0.515800	0.389900	0.179800
N141	N14	0.611200	0.285800	0.282700
C1771	C177	0.583200	0.269600	0.254000
H1061	H106	0.580300	0.239400	0.252500
C1781	C178	0.558300	0.293300	0.226300
H1071	H107	0.538500	0.280300	0.206500
C1791	C179	0.563800	0.338000	0.229000
C1801	C180	0.593300	0.356500	0.258600
H1081	H108	0.597900	0.386500	0.260500
C1811	C181	0.615900	0.327800	0.285500
H1091	H109	0.635200	0.339200	0.306300
C1821	C182	0.536300	0.366500	0.201600
C1831	C183	0.359300	0.543800	0.105400
C1841	C184	0.347600	0.585500	0.094600
H1101	H110	0.358900	0.596600	0.071100
C1851	C185	0.319300	0.610800	0.118000
H1111	H111	0.311300	0.639300	0.110600
C1861	C186	0.302600	0.594500	0.152200
C1871	C187	0.314300	0.552900	0.163100
H1121	H112	0.302900	0.541700	0.186500
C1881	C188	0.342600	0.527500	0.139700
H1131	H113	0.350600	0.499000	0.147100
C1891	C189	0.272800	0.619900	0.178000
N151	N15	0.177600	0.714000	0.280800
C1901	C190	0.173200	0.671800	0.281100
H1141	H114	0.153800	0.658300	0.299800
C1911	C191	0.197100	0.646700	0.253600
H1151	H115	0.194200	0.616500	0.253200
C1921	C192	0.225300	0.668300	0.227100
C1931	C193	0.229000	0.713100	0.226700
H1161	H116	0.247900	0.727700	0.208300
C1941	C194	0.203100	0.735400	0.255100
H1171	H117	0.204000	0.765800	0.255900
C1951	C195	0.251400	0.642400	0.198700
C1961	C196	0.434200	0.543300	0.041700
C1971	C197	0.427400	0.539300	0.002200
H1181	H118	0.405000	0.518700	0.991700
C1981	C198	0.453500	0.565600	0.977900
H1191	H119	0.448800	0.562900	0.950900
C1991	C199	0.486400	0.595700	0.993100
C2001	C200	0.493200	0.599700	0.032700
H1201	H120	0.515600	0.620300	0.043100
C2011	C201	0.467100	0.573400	0.056900
H1211	H121	0.471800	0.576100	0.083900
C2021	C202	0.511100	0.626200	0.969000
N161	N16	0.606500	0.719100	0.864800
C2031	C203	0.558700	0.715500	0.861200
H1221	H122	0.541500	0.728500	0.840000
C2041	C204	0.532100	0.692500	0.888400
H1231	H123	0.497200	0.689600	0.886200
C2051	C205	0.560100	0.674100	0.919100
C2061	C206	0.611100	0.678100	0.923300
C2071	C207	0.633900	0.702300	0.894300
H1241	H124	0.668600	0.706800	0.895700
C2081	C208	0.533500	0.647400	0.947600
Cu51	Cu5	0.856860	0.252290	0.676600
Si51	Si5	0.103960	0.990910	0.926600
C2091	C209	0.144800	0.026500	0.958200
C2101	C210	0.194100	0.016400	0.965700
H1251	H125	0.208100	0.991900	0.954300
C2111	C211	0.223000	0.042200	0.990000
H1261	H126	0.256700	0.035300	0.995200
C2121	C212	0.202500	0.078000	0.006800
C2131	C213	0.153200	0.088100	0.999300
H1271	H127	0.139200	0.112600	0.010700
C2141	C214	0.124300	0.062300	0.975000
H1281	H128	0.090500	0.069200	0.969900
C2151	C215	0.232600	0.106100	0.030800
N171	N17	0.323600	0.208100	0.135700
C2161	C216	0.274400	0.206800	0.134200
H1291	H129	0.256600	0.224100	0.151200
C2171	C217	0.248300	0.180300	0.108000
H1301	H130	0.213300	0.178200	0.107300
C2181	C218	0.277500	0.157200	0.082900
C2191	C219	0.328400	0.160000	0.083900
H1311	H131	0.347600	0.143900	0.066800
C2201	C220	0.350600	0.187600	0.111100
H1321	H132	0.385300	0.191600	0.111800
C2211	C221	0.253900	0.129200	0.052800
C2221	C222	0.064900	0.027800	0.895100
C2231	C223	0.014900	0.020900	0.887500
H1331	H133	0.998800	0.997400	0.899000
C2241	C224	0.988400	0.048200	0.863000
H1341	H134	0.954200	0.043400	0.857800
C2251	C225	0.011900	0.082500	0.846100
C2261	C226	0.062000	0.089400	0.853700
H1351	H135	0.078100	0.112800	0.842100
C2271	C227	0.088500	0.062100	0.878200
H1361	H136	0.122700	0.066800	0.883400
C2281	C228	0.984200	0.110100	0.820200
N181	N18	0.888800	0.214200	0.717300
C2291	C229	0.916800	0.230400	0.746000
H1371	H137	0.919700	0.260600	0.747500
C2301	C230	0.941700	0.206700	0.773700
H1381	H138	0.961500	0.219700	0.793500
C2311	C231	0.936200	0.162000	0.771000
C2321	C232	0.906700	0.143500	0.741400
H1391	H139	0.902100	0.113500	0.739500
C2331	C233	0.884100	0.172200	0.714500
H1401	H140	0.864800	0.160800	0.693700
C2341	C234	0.963700	0.133500	0.798400
C2351	C235	0.140700	0.956200	0.894600
C2361	C236	0.152400	0.914500	0.905400
H1411	H141	0.141100	0.903400	0.928900
C2371	C237	0.180700	0.889200	0.882000
H1421	H142	0.188700	0.860700	0.889400
C2381	C238	0.197400	0.905500	0.847800
C2391	C239	0.185700	0.947100	0.836900
H1431	H143	0.197100	0.958300	0.813500
C2401	C240	0.157400	0.972500	0.860300
H1441	H144	0.149400	0.001000	0.852900
C2411	C241	0.227200	0.880100	0.822000
N191	N19	0.322400	0.786000	0.719200
C2421	C242	0.326800	0.828200	0.718900
H1451	H145	0.346200	0.841700	0.700200
C2431	C243	0.302900	0.853300	0.746400
H1461	H146	0.305800	0.883500	0.746800
C2441	C244	0.274700	0.831700	0.772900
C2451	C245	0.271000	0.786900	0.773300
H1471	H147	0.252100	0.772300	0.791700
C2461	C246	0.296900	0.764600	0.744900
H1481	H148	0.296000	0.734200	0.744100
C2471	C247	0.248600	0.857600	0.801300
C2481	C248	0.065800	0.956700	0.958300
C2491	C249	0.072600	0.960700	0.997800
H1491	H149	0.095000	0.981300	0.008300
C2501	C250	0.046500	0.934400	0.022100
H1501	H150	0.051200	0.937100	0.049100
C2511	C251	0.013600	0.904300	0.006900
C2521	C252	0.006800	0.900300	0.967300
H1511	H151	0.984400	0.879700	0.956900
C2531	C253	0.032900	0.926600	0.943100
H1521	H152	0.028200	0.923900	0.916100
C2541	C254	0.988900	0.873800	0.031000
N201	N20	0.893500	0.780900	0.135200
C2551	C255	0.941300	0.784500	0.138800
H1531	H153	0.958500	0.771500	0.160000
C2561	C256	0.967900	0.807500	0.111600
H1541	H154	0.002800	0.810400	0.113800
C2571	C257	0.939900	0.825900	0.080900
C2581	C258	0.888900	0.821900	0.076700
C2591	C259	0.866100	0.797700	0.105700
H1551	H155	0.831400	0.793200	0.104300
C2601	C260	0.966500	0.852600	0.052400
Cu61	Cu6	0.356860	0.752290	0.676600
Si61	Si6	0.603960	0.490910	0.926600
C2611	C261	0.644800	0.526500	0.958200
C2621	C262	0.694100	0.516400	0.965700
H1561	H156	0.708100	0.491900	0.954300
C2631	C263	0.723000	0.542200	0.990000
H1571	H157	0.756700	0.535300	0.995200
C2641	C264	0.702500	0.578000	0.006800
C2651	C265	0.653200	0.588100	0.999300
H1581	H158	0.639200	0.612600	0.010700
C2661	C266	0.624300	0.562300	0.975000
H1591	H159	0.590500	0.569200	0.969900
C2671	C267	0.732600	0.606100	0.030800
N211	N21	0.823600	0.708100	0.135700
C2681	C268	0.774400	0.706800	0.134200
H1601	H160	0.756600	0.724100	0.151200
C2691	C269	0.748300	0.680300	0.108000
H1611	H161	0.713300	0.678200	0.107300
C2701	C270	0.777500	0.657200	0.082900
C2711	C271	0.828400	0.660000	0.083900
H1621	H162	0.847600	0.643900	0.066800
C2721	C272	0.850600	0.687600	0.111100
H1631	H163	0.885300	0.691600	0.111800
C2731	C273	0.753900	0.629200	0.052800
C2741	C274	0.564900	0.527800	0.895100
C2751	C275	0.514900	0.520900	0.887500
H1641	H164	0.498800	0.497400	0.899000
C2761	C276	0.488400	0.548200	0.863000
H1651	H165	0.454200	0.543400	0.857800
C2771	C277	0.511900	0.582500	0.846100
C2781	C278	0.562000	0.589400	0.853700
H1661	H166	0.578100	0.612800	0.842100
C2791	C279	0.588500	0.562100	0.878200
H1671	H167	0.622700	0.566800	0.883400
C2801	C280	0.484200	0.610100	0.820200
N221	N22	0.388800	0.714200	0.717300
C2811	C281	0.416800	0.730400	0.746000
H1681	H168	0.419700	0.760600	0.747500
C2821	C282	0.441700	0.706700	0.773700
H1691	H169	0.461500	0.719700	0.793500
C2831	C283	0.436200	0.662000	0.771000
C2841	C284	0.406700	0.643500	0.741400
H1701	H170	0.402100	0.613500	0.739500
C2851	C285	0.384100	0.672200	0.714500
H1711	H171	0.364800	0.660800	0.693700
C2861	C286	0.463700	0.633500	0.798400
C2871	C287	0.640700	0.456200	0.894600
C2881	C288	0.652400	0.414500	0.905400
H1721	H172	0.641100	0.403400	0.928900
C2891	C289	0.680700	0.389200	0.882000
H1731	H173	0.688700	0.360700	0.889400
C2901	C290	0.697400	0.405500	0.847800
C2911	C291	0.685700	0.447100	0.836900
H1741	H174	0.697100	0.458300	0.813500
C2921	C292	0.657400	0.472500	0.860300
H1751	H175	0.649400	0.501000	0.852900
C2931	C293	0.727200	0.380100	0.822000
N231	N23	0.822400	0.286000	0.719200
C2941	C294	0.826800	0.328200	0.718900
H1761	H176	0.846200	0.341700	0.700200
C2951	C295	0.802900	0.353300	0.746400
H1771	H177	0.805800	0.383500	0.746800
C2961	C296	0.774700	0.331700	0.772900
C2971	C297	0.771000	0.286900	0.773300
H1781	H178	0.752100	0.272300	0.791700
C2981	C298	0.796900	0.264600	0.744900
H1791	H179	0.796000	0.234200	0.744100
C2991	C299	0.748600	0.357600	0.801300
C3001	C300	0.565800	0.456700	0.958300
C3011	C301	0.572600	0.460700	0.997800
H1801	H180	0.595000	0.481300	0.008300
C3021	C302	0.546500	0.434400	0.022100
H1811	H181	0.551200	0.437100	0.049100
C3031	C303	0.513600	0.404300	0.006900
C3041	C304	0.506800	0.400300	0.967300
H1821	H182	0.484400	0.379700	0.956900
C3051	C305	0.532900	0.426600	0.943100
H1831	H183	0.528200	0.423900	0.916100
C3061	C306	0.488900	0.373800	0.031000
N241	N24	0.393500	0.280900	0.135200
C3071	C307	0.441300	0.284500	0.138800
H1841	H184	0.458500	0.271500	0.160000
C3081	C308	0.467900	0.307500	0.111600
H1851	H185	0.502800	0.310400	0.113800
C3091	C309	0.439900	0.325900	0.080900
C3101	C310	0.388900	0.321900	0.076700
C3111	C311	0.366100	0.297700	0.105700
H1861	H186	0.331400	0.293200	0.104300
C3121	C312	0.466500	0.352600	0.052400
Cu71	Cu7	0.856860	0.747710	0.176600
Si71	Si7	0.103960	0.009090	0.426600
C3131	C313	0.144800	0.973500	0.458200
C3141	C314	0.194100	0.983600	0.465700
H1871	H187	0.208100	0.008100	0.454300
C3151	C315	0.223000	0.957800	0.490000
H1881	H188	0.256700	0.964700	0.495200
C3161	C316	0.202500	0.922000	0.506800
C3171	C317	0.153200	0.911900	0.499300
H1891	H189	0.139200	0.887400	0.510700
C3181	C318	0.124300	0.937700	0.475000
H1901	H190	0.090500	0.930800	0.469900
C3191	C319	0.232600	0.893900	0.530800
N251	N25	0.323600	0.791900	0.635700
C3201	C320	0.274400	0.793200	0.634200
H1911	H191	0.256600	0.775900	0.651200
C3211	C321	0.248300	0.819700	0.608000
H1921	H192	0.213300	0.821800	0.607300
C3221	C322	0.277500	0.842800	0.582900
C3231	C323	0.328400	0.840000	0.583900
H1931	H193	0.347600	0.856100	0.566800
C3241	C324	0.350600	0.812400	0.611100
H1941	H194	0.385300	0.808400	0.611800
C3251	C325	0.253900	0.870800	0.552800
C3261	C326	0.064900	0.972200	0.395100
C3271	C327	0.014900	0.979100	0.387500
H1951	H195	0.998800	0.002600	0.399000
C3281	C328	0.988400	0.951800	0.363000
H1961	H196	0.954200	0.956600	0.357800
C3291	C329	0.011900	0.917500	0.346100
C3301	C330	0.062000	0.910600	0.353700
H1971	H197	0.078100	0.887200	0.342100
C3311	C331	0.088500	0.937900	0.378200
H1981	H198	0.122700	0.933200	0.383400
C3321	C332	0.984200	0.889900	0.320200
N261	N26	0.888800	0.785800	0.217300
C3331	C333	0.916800	0.769600	0.246000
H1991	H199	0.919700	0.739400	0.247500
C3341	C334	0.941700	0.793300	0.273700
H2001	H200	0.961500	0.780300	0.293500
C3351	C335	0.936200	0.838000	0.271000
C3361	C336	0.906700	0.856500	0.241400
H2011	H201	0.902100	0.886500	0.239500
C3371	C337	0.884100	0.827800	0.214500
H2021	H202	0.864800	0.839200	0.193700
C3381	C338	0.963700	0.866500	0.298400
C3391	C339	0.140700	0.043800	0.394600
C3401	C340	0.152400	0.085500	0.405400
H2031	H203	0.141100	0.096600	0.428900
C3411	C341	0.180700	0.110800	0.382000
H2041	H204	0.188700	0.139300	0.389400
C3421	C342	0.197400	0.094500	0.347800
C3431	C343	0.185700	0.052900	0.336900
H2051	H205	0.197100	0.041700	0.313500
C3441	C344	0.157400	0.027500	0.360300
H2061	H206	0.149400	0.999000	0.352900
C3451	C345	0.227200	0.119900	0.322000
N271	N27	0.322400	0.214000	0.219200
C3461	C346	0.326800	0.171800	0.218900
H2071	H207	0.346200	0.158300	0.200200
C3471	C347	0.302900	0.146700	0.246400
H2081	H208	0.305800	0.116500	0.246800
C3481	C348	0.274700	0.168300	0.272900
C3491	C349	0.271000	0.213100	0.273300
H2091	H209	0.252100	0.227700	0.291700
C3501	C350	0.296900	0.235400	0.244900
H2101	H210	0.296000	0.265800	0.244100
C3511	C351	0.248600	0.142400	0.301300
C3521	C352	0.065800	0.043300	0.458300
C3531	C353	0.072600	0.039300	0.497800
H2111	H211	0.095000	0.018700	0.508300
C3541	C354	0.046500	0.065600	0.522100
H2121	H212	0.051200	0.062900	0.549100
C3551	C355	0.013600	0.095700	0.506900
C3561	C356	0.006800	0.099700	0.467300
H2131	H213	0.984400	0.120300	0.456900
C3571	C357	0.032900	0.073400	0.443100
H2141	H214	0.028200	0.076100	0.416100
C3581	C358	0.988900	0.126200	0.531000
N281	N28	0.893500	0.219100	0.635200
C3591	C359	0.941300	0.215500	0.638800
H2151	H215	0.958500	0.228500	0.660000
C3601	C360	0.967900	0.192500	0.611600
H2161	H216	0.002800	0.189600	0.613800
C3611	C361	0.939900	0.174100	0.580900
C3621	C362	0.888900	0.178100	0.576700
C3631	C363	0.866100	0.202300	0.605700
H2171	H217	0.831400	0.206800	0.604300
C3641	C364	0.966500	0.147400	0.552400
Cu81	Cu8	0.356860	0.247710	0.176600
Si81	Si8	0.603960	0.509090	0.426600
C3651	C365	0.644800	0.473500	0.458200
C3661	C366	0.694100	0.483600	0.465700
H2181	H218	0.708100	0.508100	0.454300
C3671	C367	0.723000	0.457800	0.490000
H2191	H219	0.756700	0.464700	0.495200
C3681	C368	0.702500	0.422000	0.506800
C3691	C369	0.653200	0.411900	0.499300
H2201	H220	0.639200	0.387400	0.510700
C3701	C370	0.624300	0.437700	0.475000
H2211	H221	0.590500	0.430800	0.469900
C3711	C371	0.732600	0.393900	0.530800
N291	N29	0.823600	0.291900	0.635700
C3721	C372	0.774400	0.293200	0.634200
H2221	H222	0.756600	0.275900	0.651200
C3731	C373	0.748300	0.319700	0.608000
H2231	H223	0.713300	0.321800	0.607300
C3741	C374	0.777500	0.342800	0.582900
C3751	C375	0.828400	0.340000	0.583900
H2241	H224	0.847600	0.356100	0.566800
C3761	C376	0.850600	0.312400	0.611100
H2251	H225	0.885300	0.308400	0.611800
C3771	C377	0.753900	0.370800	0.552800
C3781	C378	0.564900	0.472200	0.395100
C3791	C379	0.514900	0.479100	0.387500
H2261	H226	0.498800	0.502600	0.399000
C3801	C380	0.488400	0.451800	0.363000
H2271	H227	0.454200	0.456600	0.357800
C3811	C381	0.511900	0.417500	0.346100
C3821	C382	0.562000	0.410600	0.353700
H2281	H228	0.578100	0.387200	0.342100
C3831	C383	0.588500	0.437900	0.378200
H2291	H229	0.622700	0.433200	0.383400
C3841	C384	0.484200	0.389900	0.320200
N301	N30	0.388800	0.285800	0.217300
C3851	C385	0.416800	0.269600	0.246000
H2301	H230	0.419700	0.239400	0.247500
C3861	C386	0.441700	0.293300	0.273700
H2311	H231	0.461500	0.280300	0.293500
C3871	C387	0.436200	0.338000	0.271000
C3881	C388	0.406700	0.356500	0.241400
H2321	H232	0.402100	0.386500	0.239500
C3891	C389	0.384100	0.327800	0.214500
H2331	H233	0.364800	0.339200	0.193700
C3901	C390	0.463700	0.366500	0.298400
C3911	C391	0.640700	0.543800	0.394600
C3921	C392	0.652400	0.585500	0.405400
H2341	H234	0.641100	0.596600	0.428900
C3931	C393	0.680700	0.610800	0.382000
H2351	H235	0.688700	0.639300	0.389400
C3941	C394	0.697400	0.594500	0.347800
C3951	C395	0.685700	0.552900	0.336900
H2361	H236	0.697100	0.541700	0.313500
C3961	C396	0.657400	0.527500	0.360300
H2371	H237	0.649400	0.499000	0.352900
C3971	C397	0.727200	0.619900	0.322000
N311	N31	0.822400	0.714000	0.219200
C3981	C398	0.826800	0.671800	0.218900
H2381	H238	0.846200	0.658300	0.200200
C3991	C399	0.802900	0.646700	0.246400
H2391	H239	0.805800	0.616500	0.246800
C4001	C400	0.774700	0.668300	0.272900
C4011	C401	0.771000	0.713100	0.273300
H2401	H240	0.752100	0.727700	0.291700
C4021	C402	0.796900	0.735400	0.244900
H2411	H241	0.796000	0.765800	0.244100
C4031	C403	0.748600	0.642400	0.301300
C4041	C404	0.565800	0.543300	0.458300
C4051	C405	0.572600	0.539300	0.497800
H2421	H242	0.595000	0.518700	0.508300
C4061	C406	0.546500	0.565600	0.522100
H2431	H243	0.551200	0.562900	0.549100
C4071	C407	0.513600	0.595700	0.506900
C4081	C408	0.506800	0.599700	0.467300
H2441	H244	0.484400	0.620300	0.456900
C4091	C409	0.532900	0.573400	0.443100
H2451	H245	0.528200	0.576100	0.416100
C4101	C410	0.488900	0.626200	0.531000
N321	N32	0.393500	0.719100	0.635200
C4111	C411	0.441300	0.715500	0.638800
H2461	H246	0.458500	0.728500	0.660000
C4121	C412	0.467900	0.692500	0.611600
H2471	H247	0.502800	0.689600	0.613800
C4131	C413	0.439900	0.674100	0.580900
C4141	C414	0.388900	0.678100	0.576700
C4151	C415	0.366100	0.702300	0.605700
H2481	H248	0.331400	0.706800	0.604300
C4161	C416	0.466500	0.647400	0.552400
