data_KUVYAD_clean_PM
_symmetry_space_group_name_H-M	'P1'
_cell_length_a	14.030600
_cell_length_b	14.030600
_cell_length_c	28.178000
_cell_angle_alpha	90.000000
_cell_angle_beta	90.000000
_cell_angle_gamma	120.000000
_symmetry_Int_Tables_number 1

loop_
_symmetry_equiv_pos_as_xyz
'x,y,z'

loop_
_atom_site_label
_atom_site_type_symbol
_atom_site_fract_x
_atom_site_fract_y
_atom_site_fract_z
C11	C1	0.219700	0.012100	0.064800
Cd11	Cd1	0.429900	0.090830	0.024720
O11	O1	0.237700	0.072200	0.029930
C21	C2	0.111300	0.959400	0.089900
O21	O2	0.290900	0.988400	0.079700
C31	C3	0.087600	0.885100	0.126100
H11	H1	0.139000	0.865200	0.135100
O31	O3	0.720300	0.602500	0.278400
C41	C4	0.987400	0.840000	0.149000
H21	H2	0.972800	0.790900	0.173900
O41	O4	0.600400	0.651900	0.302200
C51	C5	0.904800	0.867300	0.135300
O51	O5	0.510600	0.001600	0.060900
C61	C6	0.929300	0.940900	0.098500
O61	O6	0.618600	0.113400	0.006700
C71	C7	0.033600	0.985600	0.076100
H31	H3	0.049800	0.034500	0.051000
C81	C8	0.800400	0.819500	0.161600
C91	C9	0.776700	0.753700	0.199900
H41	H4	0.827300	0.732400	0.208600
C101	C10	0.684100	0.716100	0.226900
C111	C11	0.667100	0.652200	0.272500
C121	C12	0.604700	0.747500	0.212100
H51	H5	0.541500	0.726300	0.230000
C131	C13	0.622700	0.808400	0.171800
H61	H6	0.569200	0.824000	0.161200
C141	C14	0.720200	0.847300	0.146200
C151	C15	0.745000	0.921100	0.105400
C161	C16	0.663900	0.948500	0.088000
H71	H7	0.595400	0.917600	0.102700
C171	C17	0.685500	0.015700	0.052100
C181	C18	0.599600	0.047600	0.038300
C191	C19	0.784000	0.058600	0.029100
H81	H8	0.797200	0.104000	0.002900
C201	C20	0.862700	0.036600	0.043400
H91	H9	0.930400	0.070200	0.028000
C211	C21	0.844700	0.965000	0.080600
C221	C22	0.987900	0.207600	0.731470
Cd21	Cd2	0.909170	0.339070	0.691380
O71	O7	0.927800	0.165500	0.696600
C231	C23	0.040600	0.151900	0.756570
O81	O8	0.011600	0.302500	0.746370
C241	C24	0.114900	0.202500	0.792770
H101	H10	0.134800	0.273800	0.801770
O91	O9	0.397500	0.117800	0.945070
C251	C25	0.160000	0.147400	0.815670
H111	H11	0.209100	0.181900	0.840570
O101	O10	0.348100	0.948500	0.968870
C261	C26	0.132700	0.037500	0.801970
O111	O11	0.998400	0.509000	0.727570
C271	C27	0.059100	0.988400	0.765170
O121	O12	0.886600	0.505200	0.673370
C281	C28	0.014400	0.048000	0.742770
H121	H12	0.965500	0.015300	0.717670
C291	C29	0.180500	0.980900	0.828270
C301	C30	0.246300	0.023000	0.866570
H131	H13	0.267600	0.094900	0.875270
C311	C31	0.283900	0.968000	0.893570
C321	C32	0.347800	0.014900	0.939170
C331	C33	0.252500	0.857200	0.878770
H141	H14	0.273700	0.815200	0.896670
C341	C34	0.191600	0.814300	0.838470
H151	H15	0.176000	0.745200	0.827870
C351	C35	0.152700	0.872900	0.812870
C361	C36	0.078900	0.823900	0.772070
C371	C37	0.051500	0.715400	0.754670
H161	H16	0.082400	0.677800	0.769370
C381	C38	0.984300	0.669800	0.718770
C391	C39	0.952400	0.552000	0.704970
C401	C40	0.941400	0.725400	0.695770
H171	H17	0.896000	0.693200	0.669570
C411	C41	0.963400	0.826100	0.710070
H181	H18	0.929800	0.860200	0.694670
C421	C42	0.035000	0.879700	0.747270
C431	C43	0.792400	0.780300	0.398130
Cd31	Cd3	0.660930	0.570100	0.358050
O131	O13	0.834500	0.762300	0.363260
C441	C44	0.848100	0.888700	0.423230
O141	O14	0.697500	0.709100	0.413030
C451	C45	0.797500	0.912400	0.459430
H191	H19	0.726200	0.861000	0.468430
O151	O15	0.882200	0.279700	0.611730
C461	C46	0.852600	0.012600	0.482330
H201	H20	0.818100	0.027200	0.507230
O161	O16	0.051500	0.399600	0.635530
C471	C47	0.962500	0.095200	0.468630
O171	O17	0.491000	0.489400	0.394230
C481	C48	0.011600	0.070700	0.431830
O181	O18	0.494800	0.381400	0.340030
C491	C49	0.952000	0.966400	0.409430
H211	H21	0.984700	0.950200	0.384330
C501	C50	0.019100	0.199600	0.494930
C511	C51	0.977000	0.223300	0.533230
H221	H22	0.905100	0.172700	0.541930
C521	C52	0.032000	0.315900	0.560230
C531	C53	0.985100	0.332900	0.605830
C541	C54	0.142800	0.395300	0.545430
H231	H23	0.184800	0.458500	0.563330
C551	C55	0.185700	0.377300	0.505130
H241	H24	0.254800	0.430800	0.494530
C561	C56	0.127100	0.279800	0.479530
C571	C57	0.176100	0.255000	0.438730
C581	C58	0.284600	0.336100	0.421330
H251	H25	0.322200	0.404600	0.436030
C591	C59	0.330200	0.314500	0.385430
C601	C60	0.448000	0.400400	0.371630
C611	C61	0.274600	0.216000	0.362430
H261	H26	0.306800	0.202800	0.336230
C621	C62	0.173900	0.137300	0.376730
H271	H27	0.139800	0.069600	0.361330
C631	C63	0.120300	0.155300	0.413930
C641	C64	0.012100	0.219700	0.935200
Cd41	Cd4	0.090830	0.429900	0.975280
O191	O19	0.072200	0.237700	0.970070
C651	C65	0.959400	0.111300	0.910100
O201	O20	0.988400	0.290900	0.920300
C661	C66	0.885100	0.087600	0.873900
H281	H28	0.865200	0.139000	0.864900
O211	O21	0.602500	0.720300	0.721600
C671	C67	0.840000	0.987400	0.851000
H291	H29	0.790900	0.972800	0.826100
O221	O22	0.651900	0.600400	0.697800
C681	C68	0.867300	0.904800	0.864700
O231	O23	0.001600	0.510600	0.939100
C691	C69	0.940900	0.929300	0.901500
O241	O24	0.113400	0.618600	0.993300
C701	C70	0.985600	0.033600	0.923900
H301	H30	0.034500	0.049800	0.949000
C711	C71	0.819500	0.800400	0.838400
C721	C72	0.753700	0.776700	0.800100
H311	H31	0.732400	0.827300	0.791400
C731	C73	0.716100	0.684100	0.773100
C741	C74	0.652200	0.667100	0.727500
C751	C75	0.747500	0.604700	0.787900
H321	H32	0.726300	0.541500	0.770000
C761	C76	0.808400	0.622700	0.828200
H331	H33	0.824000	0.569200	0.838800
C771	C77	0.847300	0.720200	0.853800
C781	C78	0.921100	0.745000	0.894600
C791	C79	0.948500	0.663900	0.912000
H341	H34	0.917600	0.595400	0.897300
C801	C80	0.015700	0.685500	0.947900
C811	C81	0.047600	0.599600	0.961700
C821	C82	0.058600	0.784000	0.970900
H351	H35	0.104000	0.797200	0.997100
C831	C83	0.036600	0.862700	0.956600
H361	H36	0.070200	0.930400	0.972000
C841	C84	0.965000	0.844700	0.919400
C851	C85	0.207600	0.987900	0.268530
Cd51	Cd5	0.339070	0.909170	0.308620
O251	O25	0.165500	0.927800	0.303400
C861	C86	0.151900	0.040600	0.243430
O261	O26	0.302500	0.011600	0.253630
C871	C87	0.202500	0.114900	0.207230
H371	H37	0.273800	0.134800	0.198230
O271	O27	0.117800	0.397500	0.054930
C881	C88	0.147400	0.160000	0.184330
H381	H38	0.181900	0.209100	0.159430
O281	O28	0.948500	0.348100	0.031130
C891	C89	0.037500	0.132700	0.198030
O291	O29	0.509000	0.998400	0.272430
C901	C90	0.988400	0.059100	0.234830
O301	O30	0.505200	0.886600	0.326630
C911	C91	0.048000	0.014400	0.257230
H391	H39	0.015300	0.965500	0.282330
C921	C92	0.980900	0.180500	0.171730
C931	C93	0.023000	0.246300	0.133430
H401	H40	0.094900	0.267600	0.124730
C941	C94	0.968000	0.283900	0.106430
C951	C95	0.014900	0.347800	0.060830
C961	C96	0.857200	0.252500	0.121230
H411	H41	0.815200	0.273700	0.103330
C971	C97	0.814300	0.191600	0.161530
H421	H42	0.745200	0.176000	0.172130
C981	C98	0.872900	0.152700	0.187130
C991	C99	0.823900	0.078900	0.227930
C1001	C100	0.715400	0.051500	0.245330
H431	H43	0.677800	0.082400	0.230630
C1011	C101	0.669800	0.984300	0.281230
C1021	C102	0.552000	0.952400	0.295030
C1031	C103	0.725400	0.941400	0.304230
H441	H44	0.693200	0.896000	0.330430
C1041	C104	0.826100	0.963400	0.289930
H451	H45	0.860200	0.929800	0.305330
C1051	C105	0.879700	0.035000	0.252730
C1061	C106	0.780300	0.792400	0.601870
Cd61	Cd6	0.570100	0.660930	0.641950
O311	O31	0.762300	0.834500	0.636740
C1071	C107	0.888700	0.848100	0.576770
O321	O32	0.709100	0.697500	0.586970
C1081	C108	0.912400	0.797500	0.540570
H461	H46	0.861000	0.726200	0.531570
O331	O33	0.279700	0.882200	0.388270
C1091	C109	0.012600	0.852600	0.517670
H471	H47	0.027200	0.818100	0.492770
O341	O34	0.399600	0.051500	0.364470
C1101	C110	0.095200	0.962500	0.531370
O351	O35	0.489400	0.491000	0.605770
C1111	C111	0.070700	0.011600	0.568170
O361	O36	0.381400	0.494800	0.659970
C1121	C112	0.966400	0.952000	0.590570
H481	H48	0.950200	0.984700	0.615670
C1131	C113	0.199600	0.019100	0.505070
C1141	C114	0.223300	0.977000	0.466770
H491	H49	0.172700	0.905100	0.458070
C1151	C115	0.315900	0.032000	0.439770
C1161	C116	0.332900	0.985100	0.394170
C1171	C117	0.395300	0.142800	0.454570
H501	H50	0.458500	0.184800	0.436670
C1181	C118	0.377300	0.185700	0.494870
H511	H51	0.430800	0.254800	0.505470
C1191	C119	0.279800	0.127100	0.520470
C1201	C120	0.255000	0.176100	0.561270
C1211	C121	0.336100	0.284600	0.578670
H521	H52	0.404600	0.322200	0.563970
C1221	C122	0.314500	0.330200	0.614570
C1231	C123	0.400400	0.448000	0.628370
C1241	C124	0.216000	0.274600	0.637570
H531	H53	0.202800	0.306800	0.663770
C1251	C125	0.137300	0.173900	0.623270
H541	H54	0.069600	0.139800	0.638670
C1261	C126	0.155300	0.120300	0.586070
