data_KUXREC_clean_PM
_symmetry_space_group_name_H-M	'P1'
_cell_length_a	14.416200
_cell_length_b	14.416200
_cell_length_c	17.304000
_cell_angle_alpha	90.000000
_cell_angle_beta	90.000000
_cell_angle_gamma	120.000000
_symmetry_Int_Tables_number 1

loop_
_symmetry_equiv_pos_as_xyz
'x,y,z'

loop_
_atom_site_label
_atom_site_type_symbol
_atom_site_fract_x
_atom_site_fract_y
_atom_site_fract_z
O11	O1	0.346000	0.499500	0.666090
C11	C1	0.401500	0.431800	0.533600
H11	H1	0.335400	0.386100	0.556100
O21	O2	0.500500	0.846500	0.666090
C21	C2	0.568200	0.969700	0.533600
H21	H2	0.613900	0.949300	0.556100
O31	O3	0.153500	0.654000	0.666090
C31	C3	0.030300	0.598500	0.533600
H31	H3	0.050700	0.664600	0.556100
O41	O4	0.654000	0.500500	0.166090
C41	C4	0.598500	0.568200	0.033600
H41	H4	0.664600	0.613900	0.056100
O51	O5	0.499500	0.153500	0.166090
C51	C5	0.431800	0.030300	0.033600
H51	H5	0.386100	0.050700	0.056100
O61	O6	0.846500	0.346000	0.166090
C61	C6	0.969700	0.401500	0.033600
H61	H6	0.949300	0.335400	0.056100
O71	O7	0.499500	0.346000	0.333910
C71	C7	0.431800	0.401500	0.466400
H71	H7	0.386100	0.335400	0.443900
O81	O8	0.846500	0.500500	0.333910
C81	C8	0.969700	0.568200	0.466400
H81	H8	0.949300	0.613900	0.443900
O91	O9	0.654000	0.153500	0.333910
C91	C9	0.598500	0.030300	0.466400
H91	H9	0.664600	0.050700	0.443900
O101	O10	0.500500	0.654000	0.833910
C101	C10	0.568200	0.598500	0.966400
H101	H10	0.613900	0.664600	0.943900
O111	O11	0.153500	0.499500	0.833910
C111	C11	0.030300	0.431800	0.966400
H111	H11	0.050700	0.386100	0.943900
O121	O12	0.346000	0.846500	0.833910
C121	C12	0.401500	0.969700	0.966400
H121	H12	0.335400	0.949300	0.943900
O131	O13	0.654000	0.500500	0.333910
C131	C13	0.598500	0.568200	0.466400
H131	H13	0.664600	0.613900	0.443900
O141	O14	0.499500	0.153500	0.333910
C141	C14	0.431800	0.030300	0.466400
H141	H14	0.386100	0.050700	0.443900
O151	O15	0.846500	0.346000	0.333910
C151	C15	0.969700	0.401500	0.466400
H151	H15	0.949300	0.335400	0.443900
O161	O16	0.346000	0.499500	0.833910
C161	C16	0.401500	0.431800	0.966400
H161	H16	0.335400	0.386100	0.943900
O171	O17	0.500500	0.846500	0.833910
C171	C17	0.568200	0.969700	0.966400
H171	H17	0.613900	0.949300	0.943900
O181	O18	0.153500	0.654000	0.833910
C181	C18	0.030300	0.598500	0.966400
H181	H18	0.050700	0.664600	0.943900
O191	O19	0.500500	0.654000	0.666090
C191	C19	0.568200	0.598500	0.533600
H191	H19	0.613900	0.664600	0.556100
O201	O20	0.153500	0.499500	0.666090
C201	C20	0.030300	0.431800	0.533600
H201	H20	0.050700	0.386100	0.556100
O211	O21	0.346000	0.846500	0.666090
C211	C21	0.401500	0.969700	0.533600
H211	H21	0.335400	0.949300	0.556100
O221	O22	0.499500	0.346000	0.166090
C221	C22	0.431800	0.401500	0.033600
H221	H22	0.386100	0.335400	0.056100
O231	O23	0.846500	0.500500	0.166090
C231	C23	0.969700	0.568200	0.033600
H231	H23	0.949300	0.613900	0.056100
O241	O24	0.654000	0.153500	0.166090
C241	C24	0.598500	0.030300	0.033600
H241	H24	0.664600	0.050700	0.056100
Fe11	Fe1	0.256390	0.512790	0.750000
Fe21	Fe2	0.487210	0.743610	0.750000
Fe31	Fe3	0.256390	0.743610	0.750000
Fe41	Fe4	0.743610	0.487210	0.250000
Fe51	Fe5	0.512790	0.256390	0.250000
Fe61	Fe6	0.743610	0.256390	0.250000
O251	O25	0.333330	0.666670	0.750000
O261	O26	0.666670	0.333330	0.250000
C251	C25	0.436330	0.563670	0.639200
C261	C26	0.469800	0.530200	0.567400
C271	C27	0.436330	0.872660	0.639200
C281	C28	0.469800	0.939600	0.567400
C291	C29	0.127340	0.563670	0.639200
C301	C30	0.060400	0.530200	0.567400
C311	C31	0.563670	0.436330	0.139200
C321	C32	0.530200	0.469800	0.067400
C331	C33	0.563670	0.127340	0.139200
C341	C34	0.530200	0.060400	0.067400
C351	C35	0.872660	0.436330	0.139200
C361	C36	0.939600	0.469800	0.067400
C371	C37	0.563670	0.436330	0.360800
C381	C38	0.530200	0.469800	0.432600
C391	C39	0.872660	0.436330	0.360800
C401	C40	0.939600	0.469800	0.432600
C411	C41	0.563670	0.127340	0.360800
C421	C42	0.530200	0.060400	0.432600
C431	C43	0.436330	0.563670	0.860800
C441	C44	0.469800	0.530200	0.932600
C451	C45	0.127340	0.563670	0.860800
C461	C46	0.060400	0.530200	0.932600
C471	C47	0.436330	0.872660	0.860800
C481	C48	0.469800	0.939600	0.932600
