data_LACBID_clean_PM
_symmetry_space_group_name_H-M	'P1'
_cell_length_a	24.616500
_cell_length_b	35.856900
_cell_length_c	30.278300
_cell_angle_alpha	90.000000
_cell_angle_beta	90.000000
_cell_angle_gamma	90.000000
_symmetry_Int_Tables_number 1

loop_
_symmetry_equiv_pos_as_xyz
'x,y,z'

loop_
_atom_site_label
_atom_site_type_symbol
_atom_site_fract_x
_atom_site_fract_y
_atom_site_fract_z
C11	C1	0.210830	0.927920	0.899100
C21	C2	0.232530	0.961920	0.875700
C31	C3	0.197410	0.985450	0.853390
H11	H1	0.160200	0.980800	0.853600
C41	C4	0.217850	0.015850	0.830820
H21	H2	0.194400	0.031200	0.815000
C51	C5	0.272340	0.023590	0.831500
C61	C6	0.307540	0.000340	0.853090
H31	H3	0.344700	0.005000	0.852600
C71	C7	0.286710	0.969130	0.876150
H41	H4	0.310100	0.953500	0.891600
C81	C8	0.293290	0.057730	0.808270
C91	C9	0.322500	0.316770	0.892350
C101	C10	0.322730	0.278900	0.870270
C111	C11	0.370350	0.259390	0.864620
H51	H5	0.403100	0.269700	0.873800
C121	C12	0.161590	0.883790	0.059030
C131	C13	0.195140	0.864540	0.087500
H61	H6	0.222000	0.848900	0.076400
C141	C14	0.188630	0.868650	0.132820
H71	H7	0.210800	0.855400	0.152100
C151	C15	0.149270	0.892420	0.149360
C161	C16	0.117660	0.912510	0.120940
H81	H8	0.092400	0.929500	0.131700
C171	C17	0.123880	0.907200	0.075240
H91	H9	0.101500	0.920100	0.055800
C181	C18	0.167170	0.877390	0.009730
C191	C19	0.318470	0.170930	0.811720
C201	C20	0.321070	0.208790	0.833480
C211	C21	0.369700	0.223900	0.845040
H101	H10	0.401900	0.211000	0.840100
C221	C22	0.273600	0.228210	0.840790
H111	H11	0.240500	0.217200	0.833900
C231	C23	0.274520	0.263740	0.858240
H121	H12	0.242400	0.277100	0.861700
C241	C24	0.140830	0.895390	0.197390
C251	C25	0.472230	0.062830	0.827210
H131	H13	0.450200	0.045700	0.841700
C261	C26	0.028050	0.925390	0.883120
H141	H14	0.050000	0.942300	0.868100
Co11	Co1	0.380010	0.106340	0.779350
Co21	Co2	0.122320	0.880420	0.923830
Co31	Co3	0.263590	0.859730	0.946960
N11	N1	0.045880	0.896750	0.908570
N21	N2	0.454470	0.091930	0.802650
O11	O1	0.242370	0.911070	0.924350
O21	O2	0.162290	0.919350	0.892010
O31	O3	0.259310	0.080570	0.794890
O41	O4	0.343840	0.061440	0.805650
O51	O5	0.369930	0.332120	0.897350
O61	O6	0.278970	0.331320	0.901290
O71	O7	0.206100	0.858200	0.996220
O81	O8	0.130730	0.891850	0.986060
O91	O9	0.275450	0.162360	0.792760
O101	O10	0.361440	0.151210	0.813850
O111	O11	0.167590	0.875700	0.224570
O121	O12	0.104710	0.916620	0.211960
O131	O13	0.544850	0.151660	0.750120
O141	O14	0.044590	0.837170	0.962000
C271	C27	0.710830	0.427920	0.899100
C281	C28	0.732530	0.461920	0.875700
C291	C29	0.697410	0.485450	0.853390
H151	H15	0.660200	0.480800	0.853600
C301	C30	0.717850	0.515850	0.830820
H161	H16	0.694400	0.531200	0.815000
C311	C31	0.772340	0.523590	0.831500
C321	C32	0.807540	0.500340	0.853090
H171	H17	0.844700	0.505000	0.852600
C331	C33	0.786710	0.469130	0.876150
H181	H18	0.810100	0.453500	0.891600
C341	C34	0.793290	0.557730	0.808270
C351	C35	0.822500	0.816770	0.892350
C361	C36	0.822730	0.778900	0.870270
C371	C37	0.870350	0.759390	0.864620
H191	H19	0.903100	0.769700	0.873800
C381	C38	0.661590	0.383790	0.059030
C391	C39	0.695140	0.364540	0.087500
H201	H20	0.722000	0.348900	0.076400
C401	C40	0.688630	0.368650	0.132820
H211	H21	0.710800	0.355400	0.152100
C411	C41	0.649270	0.392420	0.149360
C421	C42	0.617660	0.412510	0.120940
H221	H22	0.592400	0.429500	0.131700
C431	C43	0.623880	0.407200	0.075240
H231	H23	0.601500	0.420100	0.055800
C441	C44	0.667170	0.377390	0.009730
C451	C45	0.818470	0.670930	0.811720
C461	C46	0.821070	0.708790	0.833480
C471	C47	0.869700	0.723900	0.845040
H241	H24	0.901900	0.711000	0.840100
C481	C48	0.773600	0.728210	0.840790
H251	H25	0.740500	0.717200	0.833900
C491	C49	0.774520	0.763740	0.858240
H261	H26	0.742400	0.777100	0.861700
C501	C50	0.640830	0.395390	0.197390
C511	C51	0.972230	0.562830	0.827210
H271	H27	0.950200	0.545700	0.841700
C521	C52	0.528050	0.425390	0.883120
H281	H28	0.550000	0.442300	0.868100
Co41	Co4	0.880010	0.606340	0.779350
Co51	Co5	0.622320	0.380420	0.923830
Co61	Co6	0.763590	0.359730	0.946960
N31	N3	0.545880	0.396750	0.908570
N41	N4	0.954470	0.591930	0.802650
O151	O15	0.742370	0.411070	0.924350
O161	O16	0.662290	0.419350	0.892010
O171	O17	0.759310	0.580570	0.794890
O181	O18	0.843840	0.561440	0.805650
O191	O19	0.869930	0.832120	0.897350
O201	O20	0.778970	0.831320	0.901290
O211	O21	0.706100	0.358200	0.996220
O221	O22	0.630730	0.391850	0.986060
O231	O23	0.775450	0.662360	0.792760
O241	O24	0.861440	0.651210	0.813850
O251	O25	0.667590	0.375700	0.224570
O261	O26	0.604710	0.416620	0.211960
O271	O27	0.044850	0.651660	0.750120
O281	O28	0.544590	0.337170	0.962000
C531	C53	0.789170	0.572080	0.399100
C541	C54	0.767470	0.538080	0.375700
C551	C55	0.802590	0.514550	0.353390
H291	H29	0.839800	0.519200	0.353600
C561	C56	0.782150	0.484150	0.330820
H301	H30	0.805600	0.468800	0.315000
C571	C57	0.727660	0.476410	0.331500
C581	C58	0.692460	0.499660	0.353090
H311	H31	0.655300	0.495000	0.352600
C591	C59	0.713290	0.530870	0.376150
H321	H32	0.689900	0.546500	0.391600
C601	C60	0.706710	0.442270	0.308270
C611	C61	0.677500	0.183230	0.392350
C621	C62	0.677270	0.221100	0.370270
C631	C63	0.629650	0.240610	0.364620
H331	H33	0.596900	0.230300	0.373800
C641	C64	0.838410	0.616210	0.559030
C651	C65	0.804860	0.635460	0.587500
H341	H34	0.778000	0.651100	0.576400
C661	C66	0.811370	0.631350	0.632820
H351	H35	0.789200	0.644600	0.652100
C671	C67	0.850730	0.607580	0.649360
C681	C68	0.882340	0.587490	0.620940
H361	H36	0.907600	0.570500	0.631700
C691	C69	0.876120	0.592800	0.575240
H371	H37	0.898500	0.579900	0.555800
C701	C70	0.832830	0.622610	0.509730
C711	C71	0.681530	0.329070	0.311720
C721	C72	0.678930	0.291210	0.333480
C731	C73	0.630300	0.276100	0.345040
H381	H38	0.598100	0.289000	0.340100
C741	C74	0.726400	0.271790	0.340790
H391	H39	0.759500	0.282800	0.333900
C751	C75	0.725480	0.236260	0.358240
H401	H40	0.757600	0.222900	0.361700
C761	C76	0.859170	0.604610	0.697390
C771	C77	0.527770	0.437170	0.327210
H411	H41	0.549800	0.454300	0.341700
C781	C78	0.971950	0.574610	0.383120
H421	H42	0.950000	0.557700	0.368100
Co71	Co7	0.619990	0.393660	0.279350
Co81	Co8	0.877680	0.619580	0.423830
Co91	Co9	0.736410	0.640270	0.446960
N51	N5	0.954120	0.603250	0.408570
N61	N6	0.545530	0.408070	0.302650
O291	O29	0.757630	0.588930	0.424350
O301	O30	0.837710	0.580650	0.392010
O311	O31	0.740690	0.419430	0.294890
O321	O32	0.656160	0.438560	0.305650
O331	O33	0.630070	0.167880	0.397350
O341	O34	0.721030	0.168680	0.401290
O351	O35	0.793900	0.641800	0.496220
O361	O36	0.869270	0.608150	0.486060
O371	O37	0.724550	0.337640	0.292760
O381	O38	0.638560	0.348790	0.313850
O391	O39	0.832410	0.624300	0.724570
O401	O40	0.895290	0.583380	0.711960
O411	O41	0.455150	0.348340	0.250120
O421	O42	0.955410	0.662830	0.462000
C791	C79	0.289170	0.072080	0.399100
C801	C80	0.267470	0.038080	0.375700
C811	C81	0.302590	0.014550	0.353390
H431	H43	0.339800	0.019200	0.353600
C821	C82	0.282150	0.984150	0.330820
H441	H44	0.305600	0.968800	0.315000
C831	C83	0.227660	0.976410	0.331500
C841	C84	0.192460	0.999660	0.353090
H451	H45	0.155300	0.995000	0.352600
C851	C85	0.213290	0.030870	0.376150
H461	H46	0.189900	0.046500	0.391600
C861	C86	0.206710	0.942270	0.308270
C871	C87	0.177500	0.683230	0.392350
C881	C88	0.177270	0.721100	0.370270
C891	C89	0.129650	0.740610	0.364620
H471	H47	0.096900	0.730300	0.373800
C901	C90	0.338410	0.116210	0.559030
C911	C91	0.304860	0.135460	0.587500
H481	H48	0.278000	0.151100	0.576400
C921	C92	0.311370	0.131350	0.632820
H491	H49	0.289200	0.144600	0.652100
C931	C93	0.350730	0.107580	0.649360
C941	C94	0.382340	0.087490	0.620940
H501	H50	0.407600	0.070500	0.631700
C951	C95	0.376120	0.092800	0.575240
H511	H51	0.398500	0.079900	0.555800
C961	C96	0.332830	0.122610	0.509730
C971	C97	0.181530	0.829070	0.311720
C981	C98	0.178930	0.791210	0.333480
C991	C99	0.130300	0.776100	0.345040
H521	H52	0.098100	0.789000	0.340100
C1001	C100	0.226400	0.771790	0.340790
H531	H53	0.259500	0.782800	0.333900
C1011	C101	0.225480	0.736260	0.358240
H541	H54	0.257600	0.722900	0.361700
C1021	C102	0.359170	0.104610	0.697390
C1031	C103	0.027770	0.937170	0.327210
H551	H55	0.049800	0.954300	0.341700
C1041	C104	0.471950	0.074610	0.383120
H561	H56	0.450000	0.057700	0.368100
Co101	Co10	0.119990	0.893660	0.279350
Co111	Co11	0.377680	0.119580	0.423830
Co121	Co12	0.236410	0.140270	0.446960
N71	N7	0.454120	0.103250	0.408570
N81	N8	0.045530	0.908070	0.302650
O431	O43	0.257630	0.088930	0.424350
O441	O44	0.337710	0.080650	0.392010
O451	O45	0.240690	0.919430	0.294890
O461	O46	0.156160	0.938560	0.305650
O471	O47	0.130070	0.667880	0.397350
O481	O48	0.221030	0.668680	0.401290
O491	O49	0.293900	0.141800	0.496220
O501	O50	0.369270	0.108150	0.486060
O511	O51	0.224550	0.837640	0.292760
O521	O52	0.138560	0.848790	0.313850
O531	O53	0.332410	0.124300	0.724570
O541	O54	0.395290	0.083380	0.711960
O551	O55	0.955150	0.848340	0.250120
O561	O56	0.455410	0.162830	0.462000
C1051	C105	0.789170	0.427920	0.600900
C1061	C106	0.767470	0.461920	0.624300
C1071	C107	0.802590	0.485450	0.646610
H571	H57	0.839800	0.480800	0.646400
C1081	C108	0.782150	0.515850	0.669180
H581	H58	0.805600	0.531200	0.685000
C1091	C109	0.727660	0.523590	0.668500
C1101	C110	0.692460	0.500340	0.646910
H591	H59	0.655300	0.505000	0.647400
C1111	C111	0.713290	0.469130	0.623850
H601	H60	0.689900	0.453500	0.608400
C1121	C112	0.706710	0.557730	0.691730
C1131	C113	0.677500	0.816770	0.607650
C1141	C114	0.677270	0.778900	0.629730
C1151	C115	0.629650	0.759390	0.635380
H611	H61	0.596900	0.769700	0.626200
C1161	C116	0.838410	0.383790	0.440970
C1171	C117	0.804860	0.364540	0.412500
H621	H62	0.778000	0.348900	0.423600
C1181	C118	0.811370	0.368650	0.367180
H631	H63	0.789200	0.355400	0.347900
C1191	C119	0.850730	0.392420	0.350640
C1201	C120	0.882340	0.412510	0.379060
H641	H64	0.907600	0.429500	0.368300
C1211	C121	0.876120	0.407200	0.424760
H651	H65	0.898500	0.420100	0.444200
C1221	C122	0.832830	0.377390	0.490270
C1231	C123	0.681530	0.670930	0.688280
C1241	C124	0.678930	0.708790	0.666520
C1251	C125	0.630300	0.723900	0.654960
H661	H66	0.598100	0.711000	0.659900
C1261	C126	0.726400	0.728210	0.659210
H671	H67	0.759500	0.717200	0.666100
C1271	C127	0.725480	0.763740	0.641760
H681	H68	0.757600	0.777100	0.638300
C1281	C128	0.859170	0.395390	0.302610
C1291	C129	0.527770	0.562830	0.672790
H691	H69	0.549800	0.545700	0.658300
C1301	C130	0.971950	0.425390	0.616880
H701	H70	0.950000	0.442300	0.631900
Co131	Co13	0.619990	0.606340	0.720650
Co141	Co14	0.877680	0.380420	0.576170
Co151	Co15	0.736410	0.359730	0.553040
N91	N9	0.954120	0.396750	0.591430
N101	N10	0.545530	0.591930	0.697350
O571	O57	0.757630	0.411070	0.575650
O581	O58	0.837710	0.419350	0.607990
O591	O59	0.740690	0.580570	0.705110
O601	O60	0.656160	0.561440	0.694350
O611	O61	0.630070	0.832120	0.602650
O621	O62	0.721030	0.831320	0.598710
O631	O63	0.793900	0.358200	0.503780
O641	O64	0.869270	0.391850	0.513940
O651	O65	0.724550	0.662360	0.707240
O661	O66	0.638560	0.651210	0.686150
O671	O67	0.832410	0.375700	0.275430
O681	O68	0.895290	0.416620	0.288040
O691	O69	0.455150	0.651660	0.749880
O701	O70	0.955410	0.337170	0.538000
C1311	C131	0.289170	0.927920	0.600900
C1321	C132	0.267470	0.961920	0.624300
C1331	C133	0.302590	0.985450	0.646610
H711	H71	0.339800	0.980800	0.646400
C1341	C134	0.282150	0.015850	0.669180
H721	H72	0.305600	0.031200	0.685000
C1351	C135	0.227660	0.023590	0.668500
C1361	C136	0.192460	0.000340	0.646910
H731	H73	0.155300	0.005000	0.647400
C1371	C137	0.213290	0.969130	0.623850
H741	H74	0.189900	0.953500	0.608400
C1381	C138	0.206710	0.057730	0.691730
C1391	C139	0.177500	0.316770	0.607650
C1401	C140	0.177270	0.278900	0.629730
C1411	C141	0.129650	0.259390	0.635380
H751	H75	0.096900	0.269700	0.626200
C1421	C142	0.338410	0.883790	0.440970
C1431	C143	0.304860	0.864540	0.412500
H761	H76	0.278000	0.848900	0.423600
C1441	C144	0.311370	0.868650	0.367180
H771	H77	0.289200	0.855400	0.347900
C1451	C145	0.350730	0.892420	0.350640
C1461	C146	0.382340	0.912510	0.379060
H781	H78	0.407600	0.929500	0.368300
C1471	C147	0.376120	0.907200	0.424760
H791	H79	0.398500	0.920100	0.444200
C1481	C148	0.332830	0.877390	0.490270
C1491	C149	0.181530	0.170930	0.688280
C1501	C150	0.178930	0.208790	0.666520
C1511	C151	0.130300	0.223900	0.654960
H801	H80	0.098100	0.211000	0.659900
C1521	C152	0.226400	0.228210	0.659210
H811	H81	0.259500	0.217200	0.666100
C1531	C153	0.225480	0.263740	0.641760
H821	H82	0.257600	0.277100	0.638300
C1541	C154	0.359170	0.895390	0.302610
C1551	C155	0.027770	0.062830	0.672790
H831	H83	0.049800	0.045700	0.658300
C1561	C156	0.471950	0.925390	0.616880
H841	H84	0.450000	0.942300	0.631900
Co161	Co16	0.119990	0.106340	0.720650
Co171	Co17	0.377680	0.880420	0.576170
Co181	Co18	0.236410	0.859730	0.553040
N111	N11	0.454120	0.896750	0.591430
N121	N12	0.045530	0.091930	0.697350
O711	O71	0.257630	0.911070	0.575650
O721	O72	0.337710	0.919350	0.607990
O731	O73	0.240690	0.080570	0.705110
O741	O74	0.156160	0.061440	0.694350
O751	O75	0.130070	0.332120	0.602650
O761	O76	0.221030	0.331320	0.598710
O771	O77	0.293900	0.858200	0.503780
O781	O78	0.369270	0.891850	0.513940
O791	O79	0.224550	0.162360	0.707240
O801	O80	0.138560	0.151210	0.686150
O811	O81	0.332410	0.875700	0.275430
O821	O82	0.395290	0.916620	0.288040
O831	O83	0.955150	0.151660	0.749880
O841	O84	0.455410	0.837170	0.538000
C1571	C157	0.210830	0.072080	0.100900
C1581	C158	0.232530	0.038080	0.124300
C1591	C159	0.197410	0.014550	0.146610
H851	H85	0.160200	0.019200	0.146400
C1601	C160	0.217850	0.984150	0.169180
H861	H86	0.194400	0.968800	0.185000
C1611	C161	0.272340	0.976410	0.168500
C1621	C162	0.307540	0.999660	0.146910
H871	H87	0.344700	0.995000	0.147400
C1631	C163	0.286710	0.030870	0.123850
H881	H88	0.310100	0.046500	0.108400
C1641	C164	0.293290	0.942270	0.191730
C1651	C165	0.322500	0.683230	0.107650
C1661	C166	0.322730	0.721100	0.129730
C1671	C167	0.370350	0.740610	0.135380
H891	H89	0.403100	0.730300	0.126200
C1681	C168	0.161590	0.116210	0.940970
C1691	C169	0.195140	0.135460	0.912500
H901	H90	0.222000	0.151100	0.923600
C1701	C170	0.188630	0.131350	0.867180
H911	H91	0.210800	0.144600	0.847900
C1711	C171	0.149270	0.107580	0.850640
C1721	C172	0.117660	0.087490	0.879060
H921	H92	0.092400	0.070500	0.868300
C1731	C173	0.123880	0.092800	0.924760
H931	H93	0.101500	0.079900	0.944200
C1741	C174	0.167170	0.122610	0.990270
C1751	C175	0.318470	0.829070	0.188280
C1761	C176	0.321070	0.791210	0.166520
C1771	C177	0.369700	0.776100	0.154960
H941	H94	0.401900	0.789000	0.159900
C1781	C178	0.273600	0.771790	0.159210
H951	H95	0.240500	0.782800	0.166100
C1791	C179	0.274520	0.736260	0.141760
H961	H96	0.242400	0.722900	0.138300
C1801	C180	0.140830	0.104610	0.802610
C1811	C181	0.472230	0.937170	0.172790
H971	H97	0.450200	0.954300	0.158300
C1821	C182	0.028050	0.074610	0.116880
H981	H98	0.050000	0.057700	0.131900
Co191	Co19	0.380010	0.893660	0.220650
Co201	Co20	0.122320	0.119580	0.076170
Co211	Co21	0.263590	0.140270	0.053040
N131	N13	0.045880	0.103250	0.091430
N141	N14	0.454470	0.908070	0.197350
O851	O85	0.242370	0.088930	0.075650
O861	O86	0.162290	0.080650	0.107990
O871	O87	0.259310	0.919430	0.205110
O881	O88	0.343840	0.938560	0.194350
O891	O89	0.369930	0.667880	0.102650
O901	O90	0.278970	0.668680	0.098710
O911	O91	0.206100	0.141800	0.003780
O921	O92	0.130730	0.108150	0.013940
O931	O93	0.275450	0.837640	0.207240
O941	O94	0.361440	0.848790	0.186150
O951	O95	0.167590	0.124300	0.775430
O961	O96	0.104710	0.083380	0.788040
O971	O97	0.544850	0.848340	0.249880
O981	O98	0.044590	0.162830	0.038000
C1831	C183	0.710830	0.572080	0.100900
C1841	C184	0.732530	0.538080	0.124300
C1851	C185	0.697410	0.514550	0.146610
H991	H99	0.660200	0.519200	0.146400
C1861	C186	0.717850	0.484150	0.169180
H1001	H100	0.694400	0.468800	0.185000
C1871	C187	0.772340	0.476410	0.168500
C1881	C188	0.807540	0.499660	0.146910
H1011	H101	0.844700	0.495000	0.147400
C1891	C189	0.786710	0.530870	0.123850
H1021	H102	0.810100	0.546500	0.108400
C1901	C190	0.793290	0.442270	0.191730
C1911	C191	0.822500	0.183230	0.107650
C1921	C192	0.822730	0.221100	0.129730
C1931	C193	0.870350	0.240610	0.135380
H1031	H103	0.903100	0.230300	0.126200
C1941	C194	0.661590	0.616210	0.940970
C1951	C195	0.695140	0.635460	0.912500
H1041	H104	0.722000	0.651100	0.923600
C1961	C196	0.688630	0.631350	0.867180
H1051	H105	0.710800	0.644600	0.847900
C1971	C197	0.649270	0.607580	0.850640
C1981	C198	0.617660	0.587490	0.879060
H1061	H106	0.592400	0.570500	0.868300
C1991	C199	0.623880	0.592800	0.924760
H1071	H107	0.601500	0.579900	0.944200
C2001	C200	0.667170	0.622610	0.990270
C2011	C201	0.818470	0.329070	0.188280
C2021	C202	0.821070	0.291210	0.166520
C2031	C203	0.869700	0.276100	0.154960
H1081	H108	0.901900	0.289000	0.159900
C2041	C204	0.773600	0.271790	0.159210
H1091	H109	0.740500	0.282800	0.166100
C2051	C205	0.774520	0.236260	0.141760
H1101	H110	0.742400	0.222900	0.138300
C2061	C206	0.640830	0.604610	0.802610
C2071	C207	0.972230	0.437170	0.172790
H1111	H111	0.950200	0.454300	0.158300
C2081	C208	0.528050	0.574610	0.116880
H1121	H112	0.550000	0.557700	0.131900
Co221	Co22	0.880010	0.393660	0.220650
Co231	Co23	0.622320	0.619580	0.076170
Co241	Co24	0.763590	0.640270	0.053040
N151	N15	0.545880	0.603250	0.091430
N161	N16	0.954470	0.408070	0.197350
O991	O99	0.742370	0.588930	0.075650
O1001	O100	0.662290	0.580650	0.107990
O1011	O101	0.759310	0.419430	0.205110
O1021	O102	0.843840	0.438560	0.194350
O1031	O103	0.869930	0.167880	0.102650
O1041	O104	0.778970	0.168680	0.098710
O1051	O105	0.706100	0.641800	0.003780
O1061	O106	0.630730	0.608150	0.013940
O1071	O107	0.775450	0.337640	0.207240
O1081	O108	0.861440	0.348790	0.186150
O1091	O109	0.667590	0.624300	0.775430
O1101	O110	0.604710	0.583380	0.788040
O1111	O111	0.044850	0.348340	0.249880
O1121	O112	0.544590	0.662830	0.038000
C2091	C209	0.789170	0.072080	0.100900
C2101	C210	0.767470	0.038080	0.124300
C2111	C211	0.802590	0.014550	0.146610
H1131	H113	0.839800	0.019200	0.146400
C2121	C212	0.782150	0.984150	0.169180
H1141	H114	0.805600	0.968800	0.185000
C2131	C213	0.727660	0.976410	0.168500
C2141	C214	0.692460	0.999660	0.146910
H1151	H115	0.655300	0.995000	0.147400
C2151	C215	0.713290	0.030870	0.123850
H1161	H116	0.689900	0.046500	0.108400
C2161	C216	0.706710	0.942270	0.191730
C2171	C217	0.677500	0.683230	0.107650
C2181	C218	0.677270	0.721100	0.129730
C2191	C219	0.629650	0.740610	0.135380
H1171	H117	0.596900	0.730300	0.126200
C2201	C220	0.838410	0.116210	0.940970
C2211	C221	0.804860	0.135460	0.912500
H1181	H118	0.778000	0.151100	0.923600
C2221	C222	0.811370	0.131350	0.867180
H1191	H119	0.789200	0.144600	0.847900
C2231	C223	0.850730	0.107580	0.850640
C2241	C224	0.882340	0.087490	0.879060
H1201	H120	0.907600	0.070500	0.868300
C2251	C225	0.876120	0.092800	0.924760
H1211	H121	0.898500	0.079900	0.944200
C2261	C226	0.832830	0.122610	0.990270
C2271	C227	0.681530	0.829070	0.188280
C2281	C228	0.678930	0.791210	0.166520
C2291	C229	0.630300	0.776100	0.154960
H1221	H122	0.598100	0.789000	0.159900
C2301	C230	0.726400	0.771790	0.159210
H1231	H123	0.759500	0.782800	0.166100
C2311	C231	0.725480	0.736260	0.141760
H1241	H124	0.757600	0.722900	0.138300
C2321	C232	0.859170	0.104610	0.802610
C2331	C233	0.527770	0.937170	0.172790
H1251	H125	0.549800	0.954300	0.158300
C2341	C234	0.971950	0.074610	0.116880
H1261	H126	0.950000	0.057700	0.131900
Co251	Co25	0.619990	0.893660	0.220650
Co261	Co26	0.877680	0.119580	0.076170
Co271	Co27	0.736410	0.140270	0.053040
N171	N17	0.954120	0.103250	0.091430
N181	N18	0.545530	0.908070	0.197350
O1131	O113	0.757630	0.088930	0.075650
O1141	O114	0.837710	0.080650	0.107990
O1151	O115	0.740690	0.919430	0.205110
O1161	O116	0.656160	0.938560	0.194350
O1171	O117	0.630070	0.667880	0.102650
O1181	O118	0.721030	0.668680	0.098710
O1191	O119	0.793900	0.141800	0.003780
O1201	O120	0.869270	0.108150	0.013940
O1211	O121	0.724550	0.837640	0.207240
O1221	O122	0.638560	0.848790	0.186150
O1231	O123	0.832410	0.124300	0.775430
O1241	O124	0.895290	0.083380	0.788040
O1251	O125	0.455150	0.848340	0.249880
O1261	O126	0.955410	0.162830	0.038000
C2351	C235	0.289170	0.572080	0.100900
C2361	C236	0.267470	0.538080	0.124300
C2371	C237	0.302590	0.514550	0.146610
H1271	H127	0.339800	0.519200	0.146400
C2381	C238	0.282150	0.484150	0.169180
H1281	H128	0.305600	0.468800	0.185000
C2391	C239	0.227660	0.476410	0.168500
C2401	C240	0.192460	0.499660	0.146910
H1291	H129	0.155300	0.495000	0.147400
C2411	C241	0.213290	0.530870	0.123850
H1301	H130	0.189900	0.546500	0.108400
C2421	C242	0.206710	0.442270	0.191730
C2431	C243	0.177500	0.183230	0.107650
C2441	C244	0.177270	0.221100	0.129730
C2451	C245	0.129650	0.240610	0.135380
H1311	H131	0.096900	0.230300	0.126200
C2461	C246	0.338410	0.616210	0.940970
C2471	C247	0.304860	0.635460	0.912500
H1321	H132	0.278000	0.651100	0.923600
C2481	C248	0.311370	0.631350	0.867180
H1331	H133	0.289200	0.644600	0.847900
C2491	C249	0.350730	0.607580	0.850640
C2501	C250	0.382340	0.587490	0.879060
H1341	H134	0.407600	0.570500	0.868300
C2511	C251	0.376120	0.592800	0.924760
H1351	H135	0.398500	0.579900	0.944200
C2521	C252	0.332830	0.622610	0.990270
C2531	C253	0.181530	0.329070	0.188280
C2541	C254	0.178930	0.291210	0.166520
C2551	C255	0.130300	0.276100	0.154960
H1361	H136	0.098100	0.289000	0.159900
C2561	C256	0.226400	0.271790	0.159210
H1371	H137	0.259500	0.282800	0.166100
C2571	C257	0.225480	0.236260	0.141760
H1381	H138	0.257600	0.222900	0.138300
C2581	C258	0.359170	0.604610	0.802610
C2591	C259	0.027770	0.437170	0.172790
H1391	H139	0.049800	0.454300	0.158300
C2601	C260	0.471950	0.574610	0.116880
H1401	H140	0.450000	0.557700	0.131900
Co281	Co28	0.119990	0.393660	0.220650
Co291	Co29	0.377680	0.619580	0.076170
Co301	Co30	0.236410	0.640270	0.053040
N191	N19	0.454120	0.603250	0.091430
N201	N20	0.045530	0.408070	0.197350
O1271	O127	0.257630	0.588930	0.075650
O1281	O128	0.337710	0.580650	0.107990
O1291	O129	0.240690	0.419430	0.205110
O1301	O130	0.156160	0.438560	0.194350
O1311	O131	0.130070	0.167880	0.102650
O1321	O132	0.221030	0.168680	0.098710
O1331	O133	0.293900	0.641800	0.003780
O1341	O134	0.369270	0.608150	0.013940
O1351	O135	0.224550	0.337640	0.207240
O1361	O136	0.138560	0.348790	0.186150
O1371	O137	0.332410	0.624300	0.775430
O1381	O138	0.395290	0.583380	0.788040
O1391	O139	0.955150	0.348340	0.249880
O1401	O140	0.455410	0.662830	0.038000
C2611	C261	0.210830	0.427920	0.600900
C2621	C262	0.232530	0.461920	0.624300
C2631	C263	0.197410	0.485450	0.646610
H1411	H141	0.160200	0.480800	0.646400
C2641	C264	0.217850	0.515850	0.669180
H1421	H142	0.194400	0.531200	0.685000
C2651	C265	0.272340	0.523590	0.668500
C2661	C266	0.307540	0.500340	0.646910
H1431	H143	0.344700	0.505000	0.647400
C2671	C267	0.286710	0.469130	0.623850
H1441	H144	0.310100	0.453500	0.608400
C2681	C268	0.293290	0.557730	0.691730
C2691	C269	0.322500	0.816770	0.607650
C2701	C270	0.322730	0.778900	0.629730
C2711	C271	0.370350	0.759390	0.635380
H1451	H145	0.403100	0.769700	0.626200
C2721	C272	0.161590	0.383790	0.440970
C2731	C273	0.195140	0.364540	0.412500
H1461	H146	0.222000	0.348900	0.423600
C2741	C274	0.188630	0.368650	0.367180
H1471	H147	0.210800	0.355400	0.347900
C2751	C275	0.149270	0.392420	0.350640
C2761	C276	0.117660	0.412510	0.379060
H1481	H148	0.092400	0.429500	0.368300
C2771	C277	0.123880	0.407200	0.424760
H1491	H149	0.101500	0.420100	0.444200
C2781	C278	0.167170	0.377390	0.490270
C2791	C279	0.318470	0.670930	0.688280
C2801	C280	0.321070	0.708790	0.666520
C2811	C281	0.369700	0.723900	0.654960
H1501	H150	0.401900	0.711000	0.659900
C2821	C282	0.273600	0.728210	0.659210
H1511	H151	0.240500	0.717200	0.666100
C2831	C283	0.274520	0.763740	0.641760
H1521	H152	0.242400	0.777100	0.638300
C2841	C284	0.140830	0.395390	0.302610
C2851	C285	0.472230	0.562830	0.672790
H1531	H153	0.450200	0.545700	0.658300
C2861	C286	0.028050	0.425390	0.616880
H1541	H154	0.050000	0.442300	0.631900
Co311	Co31	0.380010	0.606340	0.720650
Co321	Co32	0.122320	0.380420	0.576170
Co331	Co33	0.263590	0.359730	0.553040
N211	N21	0.045880	0.396750	0.591430
N221	N22	0.454470	0.591930	0.697350
O1411	O141	0.242370	0.411070	0.575650
O1421	O142	0.162290	0.419350	0.607990
O1431	O143	0.259310	0.580570	0.705110
O1441	O144	0.343840	0.561440	0.694350
O1451	O145	0.369930	0.832120	0.602650
O1461	O146	0.278970	0.831320	0.598710
O1471	O147	0.206100	0.358200	0.503780
O1481	O148	0.130730	0.391850	0.513940
O1491	O149	0.275450	0.662360	0.707240
O1501	O150	0.361440	0.651210	0.686150
O1511	O151	0.167590	0.375700	0.275430
O1521	O152	0.104710	0.416620	0.288040
O1531	O153	0.544850	0.651660	0.749880
O1541	O154	0.044590	0.337170	0.538000
C2871	C287	0.710830	0.927920	0.600900
C2881	C288	0.732530	0.961920	0.624300
C2891	C289	0.697410	0.985450	0.646610
H1551	H155	0.660200	0.980800	0.646400
C2901	C290	0.717850	0.015850	0.669180
H1561	H156	0.694400	0.031200	0.685000
C2911	C291	0.772340	0.023590	0.668500
C2921	C292	0.807540	0.000340	0.646910
H1571	H157	0.844700	0.005000	0.647400
C2931	C293	0.786710	0.969130	0.623850
H1581	H158	0.810100	0.953500	0.608400
C2941	C294	0.793290	0.057730	0.691730
C2951	C295	0.822500	0.316770	0.607650
C2961	C296	0.822730	0.278900	0.629730
C2971	C297	0.870350	0.259390	0.635380
H1591	H159	0.903100	0.269700	0.626200
C2981	C298	0.661590	0.883790	0.440970
C2991	C299	0.695140	0.864540	0.412500
H1601	H160	0.722000	0.848900	0.423600
C3001	C300	0.688630	0.868650	0.367180
H1611	H161	0.710800	0.855400	0.347900
C3011	C301	0.649270	0.892420	0.350640
C3021	C302	0.617660	0.912510	0.379060
H1621	H162	0.592400	0.929500	0.368300
C3031	C303	0.623880	0.907200	0.424760
H1631	H163	0.601500	0.920100	0.444200
C3041	C304	0.667170	0.877390	0.490270
C3051	C305	0.818470	0.170930	0.688280
C3061	C306	0.821070	0.208790	0.666520
C3071	C307	0.869700	0.223900	0.654960
H1641	H164	0.901900	0.211000	0.659900
C3081	C308	0.773600	0.228210	0.659210
H1651	H165	0.740500	0.217200	0.666100
C3091	C309	0.774520	0.263740	0.641760
H1661	H166	0.742400	0.277100	0.638300
C3101	C310	0.640830	0.895390	0.302610
C3111	C311	0.972230	0.062830	0.672790
H1671	H167	0.950200	0.045700	0.658300
C3121	C312	0.528050	0.925390	0.616880
H1681	H168	0.550000	0.942300	0.631900
Co341	Co34	0.880010	0.106340	0.720650
Co351	Co35	0.622320	0.880420	0.576170
Co361	Co36	0.763590	0.859730	0.553040
N231	N23	0.545880	0.896750	0.591430
N241	N24	0.954470	0.091930	0.697350
O1551	O155	0.742370	0.911070	0.575650
O1561	O156	0.662290	0.919350	0.607990
O1571	O157	0.759310	0.080570	0.705110
O1581	O158	0.843840	0.061440	0.694350
O1591	O159	0.869930	0.332120	0.602650
O1601	O160	0.778970	0.331320	0.598710
O1611	O161	0.706100	0.858200	0.503780
O1621	O162	0.630730	0.891850	0.513940
O1631	O163	0.775450	0.162360	0.707240
O1641	O164	0.861440	0.151210	0.686150
O1651	O165	0.667590	0.875700	0.275430
O1661	O166	0.604710	0.916620	0.288040
O1671	O167	0.044850	0.151660	0.749880
O1681	O168	0.544590	0.837170	0.538000
C3131	C313	0.210830	0.572080	0.399100
C3141	C314	0.232530	0.538080	0.375700
C3151	C315	0.197410	0.514550	0.353390
H1691	H169	0.160200	0.519200	0.353600
C3161	C316	0.217850	0.484150	0.330820
H1701	H170	0.194400	0.468800	0.315000
C3171	C317	0.272340	0.476410	0.331500
C3181	C318	0.307540	0.499660	0.353090
H1711	H171	0.344700	0.495000	0.352600
C3191	C319	0.286710	0.530870	0.376150
H1721	H172	0.310100	0.546500	0.391600
C3201	C320	0.293290	0.442270	0.308270
C3211	C321	0.322500	0.183230	0.392350
C3221	C322	0.322730	0.221100	0.370270
C3231	C323	0.370350	0.240610	0.364620
H1731	H173	0.403100	0.230300	0.373800
C3241	C324	0.161590	0.616210	0.559030
C3251	C325	0.195140	0.635460	0.587500
H1741	H174	0.222000	0.651100	0.576400
C3261	C326	0.188630	0.631350	0.632820
H1751	H175	0.210800	0.644600	0.652100
C3271	C327	0.149270	0.607580	0.649360
C3281	C328	0.117660	0.587490	0.620940
H1761	H176	0.092400	0.570500	0.631700
C3291	C329	0.123880	0.592800	0.575240
H1771	H177	0.101500	0.579900	0.555800
C3301	C330	0.167170	0.622610	0.509730
C3311	C331	0.318470	0.329070	0.311720
C3321	C332	0.321070	0.291210	0.333480
C3331	C333	0.369700	0.276100	0.345040
H1781	H178	0.401900	0.289000	0.340100
C3341	C334	0.273600	0.271790	0.340790
H1791	H179	0.240500	0.282800	0.333900
C3351	C335	0.274520	0.236260	0.358240
H1801	H180	0.242400	0.222900	0.361700
C3361	C336	0.140830	0.604610	0.697390
C3371	C337	0.472230	0.437170	0.327210
H1811	H181	0.450200	0.454300	0.341700
C3381	C338	0.028050	0.574610	0.383120
H1821	H182	0.050000	0.557700	0.368100
Co371	Co37	0.380010	0.393660	0.279350
Co381	Co38	0.122320	0.619580	0.423830
Co391	Co39	0.263590	0.640270	0.446960
N251	N25	0.045880	0.603250	0.408570
N261	N26	0.454470	0.408070	0.302650
O1691	O169	0.242370	0.588930	0.424350
O1701	O170	0.162290	0.580650	0.392010
O1711	O171	0.259310	0.419430	0.294890
O1721	O172	0.343840	0.438560	0.305650
O1731	O173	0.369930	0.167880	0.397350
O1741	O174	0.278970	0.168680	0.401290
O1751	O175	0.206100	0.641800	0.496220
O1761	O176	0.130730	0.608150	0.486060
O1771	O177	0.275450	0.337640	0.292760
O1781	O178	0.361440	0.348790	0.313850
O1791	O179	0.167590	0.624300	0.724570
O1801	O180	0.104710	0.583380	0.711960
O1811	O181	0.544850	0.348340	0.250120
O1821	O182	0.044590	0.662830	0.462000
C3391	C339	0.710830	0.072080	0.399100
C3401	C340	0.732530	0.038080	0.375700
C3411	C341	0.697410	0.014550	0.353390
H1831	H183	0.660200	0.019200	0.353600
C3421	C342	0.717850	0.984150	0.330820
H1841	H184	0.694400	0.968800	0.315000
C3431	C343	0.772340	0.976410	0.331500
C3441	C344	0.807540	0.999660	0.353090
H1851	H185	0.844700	0.995000	0.352600
C3451	C345	0.786710	0.030870	0.376150
H1861	H186	0.810100	0.046500	0.391600
C3461	C346	0.793290	0.942270	0.308270
C3471	C347	0.822500	0.683230	0.392350
C3481	C348	0.822730	0.721100	0.370270
C3491	C349	0.870350	0.740610	0.364620
H1871	H187	0.903100	0.730300	0.373800
C3501	C350	0.661590	0.116210	0.559030
C3511	C351	0.695140	0.135460	0.587500
H1881	H188	0.722000	0.151100	0.576400
C3521	C352	0.688630	0.131350	0.632820
H1891	H189	0.710800	0.144600	0.652100
C3531	C353	0.649270	0.107580	0.649360
C3541	C354	0.617660	0.087490	0.620940
H1901	H190	0.592400	0.070500	0.631700
C3551	C355	0.623880	0.092800	0.575240
H1911	H191	0.601500	0.079900	0.555800
C3561	C356	0.667170	0.122610	0.509730
C3571	C357	0.818470	0.829070	0.311720
C3581	C358	0.821070	0.791210	0.333480
C3591	C359	0.869700	0.776100	0.345040
H1921	H192	0.901900	0.789000	0.340100
C3601	C360	0.773600	0.771790	0.340790
H1931	H193	0.740500	0.782800	0.333900
C3611	C361	0.774520	0.736260	0.358240
H1941	H194	0.742400	0.722900	0.361700
C3621	C362	0.640830	0.104610	0.697390
C3631	C363	0.972230	0.937170	0.327210
H1951	H195	0.950200	0.954300	0.341700
C3641	C364	0.528050	0.074610	0.383120
H1961	H196	0.550000	0.057700	0.368100
Co401	Co40	0.880010	0.893660	0.279350
Co411	Co41	0.622320	0.119580	0.423830
Co421	Co42	0.763590	0.140270	0.446960
N271	N27	0.545880	0.103250	0.408570
N281	N28	0.954470	0.908070	0.302650
O1831	O183	0.742370	0.088930	0.424350
O1841	O184	0.662290	0.080650	0.392010
O1851	O185	0.759310	0.919430	0.294890
O1861	O186	0.843840	0.938560	0.305650
O1871	O187	0.869930	0.667880	0.397350
O1881	O188	0.778970	0.668680	0.401290
O1891	O189	0.706100	0.141800	0.496220
O1901	O190	0.630730	0.108150	0.486060
O1911	O191	0.775450	0.837640	0.292760
O1921	O192	0.861440	0.848790	0.313850
O1931	O193	0.667590	0.124300	0.724570
O1941	O194	0.604710	0.083380	0.711960
O1951	O195	0.044850	0.848340	0.250120
O1961	O196	0.544590	0.162830	0.462000
C3651	C365	0.789170	0.927920	0.899100
C3661	C366	0.767470	0.961920	0.875700
C3671	C367	0.802590	0.985450	0.853390
H1971	H197	0.839800	0.980800	0.853600
C3681	C368	0.782150	0.015850	0.830820
H1981	H198	0.805600	0.031200	0.815000
C3691	C369	0.727660	0.023590	0.831500
C3701	C370	0.692460	0.000340	0.853090
H1991	H199	0.655300	0.005000	0.852600
C3711	C371	0.713290	0.969130	0.876150
H2001	H200	0.689900	0.953500	0.891600
C3721	C372	0.706710	0.057730	0.808270
C3731	C373	0.677500	0.316770	0.892350
C3741	C374	0.677270	0.278900	0.870270
C3751	C375	0.629650	0.259390	0.864620
H2011	H201	0.596900	0.269700	0.873800
C3761	C376	0.838410	0.883790	0.059030
C3771	C377	0.804860	0.864540	0.087500
H2021	H202	0.778000	0.848900	0.076400
C3781	C378	0.811370	0.868650	0.132820
H2031	H203	0.789200	0.855400	0.152100
C3791	C379	0.850730	0.892420	0.149360
C3801	C380	0.882340	0.912510	0.120940
H2041	H204	0.907600	0.929500	0.131700
C3811	C381	0.876120	0.907200	0.075240
H2051	H205	0.898500	0.920100	0.055800
C3821	C382	0.832830	0.877390	0.009730
C3831	C383	0.681530	0.170930	0.811720
C3841	C384	0.678930	0.208790	0.833480
C3851	C385	0.630300	0.223900	0.845040
H2061	H206	0.598100	0.211000	0.840100
C3861	C386	0.726400	0.228210	0.840790
H2071	H207	0.759500	0.217200	0.833900
C3871	C387	0.725480	0.263740	0.858240
H2081	H208	0.757600	0.277100	0.861700
C3881	C388	0.859170	0.895390	0.197390
C3891	C389	0.527770	0.062830	0.827210
H2091	H209	0.549800	0.045700	0.841700
C3901	C390	0.971950	0.925390	0.883120
H2101	H210	0.950000	0.942300	0.868100
Co431	Co43	0.619990	0.106340	0.779350
Co441	Co44	0.877680	0.880420	0.923830
Co451	Co45	0.736410	0.859730	0.946960
N291	N29	0.954120	0.896750	0.908570
N301	N30	0.545530	0.091930	0.802650
O1971	O197	0.757630	0.911070	0.924350
O1981	O198	0.837710	0.919350	0.892010
O1991	O199	0.740690	0.080570	0.794890
O2001	O200	0.656160	0.061440	0.805650
O2011	O201	0.630070	0.332120	0.897350
O2021	O202	0.721030	0.331320	0.901290
O2031	O203	0.793900	0.858200	0.996220
O2041	O204	0.869270	0.891850	0.986060
O2051	O205	0.724550	0.162360	0.792760
O2061	O206	0.638560	0.151210	0.813850
O2071	O207	0.832410	0.875700	0.224570
O2081	O208	0.895290	0.916620	0.211960
O2091	O209	0.455150	0.151660	0.750120
O2101	O210	0.955410	0.837170	0.962000
C3911	C391	0.289170	0.427920	0.899100
C3921	C392	0.267470	0.461920	0.875700
C3931	C393	0.302590	0.485450	0.853390
H2111	H211	0.339800	0.480800	0.853600
C3941	C394	0.282150	0.515850	0.830820
H2121	H212	0.305600	0.531200	0.815000
C3951	C395	0.227660	0.523590	0.831500
C3961	C396	0.192460	0.500340	0.853090
H2131	H213	0.155300	0.505000	0.852600
C3971	C397	0.213290	0.469130	0.876150
H2141	H214	0.189900	0.453500	0.891600
C3981	C398	0.206710	0.557730	0.808270
C3991	C399	0.177500	0.816770	0.892350
C4001	C400	0.177270	0.778900	0.870270
C4011	C401	0.129650	0.759390	0.864620
H2151	H215	0.096900	0.769700	0.873800
C4021	C402	0.338410	0.383790	0.059030
C4031	C403	0.304860	0.364540	0.087500
H2161	H216	0.278000	0.348900	0.076400
C4041	C404	0.311370	0.368650	0.132820
H2171	H217	0.289200	0.355400	0.152100
C4051	C405	0.350730	0.392420	0.149360
C4061	C406	0.382340	0.412510	0.120940
H2181	H218	0.407600	0.429500	0.131700
C4071	C407	0.376120	0.407200	0.075240
H2191	H219	0.398500	0.420100	0.055800
C4081	C408	0.332830	0.377390	0.009730
C4091	C409	0.181530	0.670930	0.811720
C4101	C410	0.178930	0.708790	0.833480
C4111	C411	0.130300	0.723900	0.845040
H2201	H220	0.098100	0.711000	0.840100
C4121	C412	0.226400	0.728210	0.840790
H2211	H221	0.259500	0.717200	0.833900
C4131	C413	0.225480	0.763740	0.858240
H2221	H222	0.257600	0.777100	0.861700
C4141	C414	0.359170	0.395390	0.197390
C4151	C415	0.027770	0.562830	0.827210
H2231	H223	0.049800	0.545700	0.841700
C4161	C416	0.471950	0.425390	0.883120
H2241	H224	0.450000	0.442300	0.868100
Co461	Co46	0.119990	0.606340	0.779350
Co471	Co47	0.377680	0.380420	0.923830
Co481	Co48	0.236410	0.359730	0.946960
N311	N31	0.454120	0.396750	0.908570
N321	N32	0.045530	0.591930	0.802650
O2111	O211	0.257630	0.411070	0.924350
O2121	O212	0.337710	0.419350	0.892010
O2131	O213	0.240690	0.580570	0.794890
O2141	O214	0.156160	0.561440	0.805650
O2151	O215	0.130070	0.832120	0.897350
O2161	O216	0.221030	0.831320	0.901290
O2171	O217	0.293900	0.358200	0.996220
O2181	O218	0.369270	0.391850	0.986060
O2191	O219	0.224550	0.662360	0.792760
O2201	O220	0.138560	0.651210	0.813850
O2211	O221	0.332410	0.375700	0.224570
O2221	O222	0.395290	0.416620	0.211960
O2231	O223	0.955150	0.651660	0.750120
O2241	O224	0.455410	0.337170	0.962000
C4171	C417	0.500000	0.107320	0.788640
N331	N33	0.500000	0.138210	0.761330
C4181	C418	0.000000	0.607320	0.788640
N341	N34	0.000000	0.638210	0.761330
C4191	C419	0.500000	0.392680	0.288640
N351	N35	0.500000	0.361790	0.261330
C4201	C420	0.000000	0.892680	0.288640
N361	N36	0.000000	0.861790	0.261330
C4211	C421	0.500000	0.607320	0.711360
N371	N37	0.500000	0.638210	0.738670
C4221	C422	0.000000	0.107320	0.711360
N381	N38	0.000000	0.138210	0.738670
C4231	C423	0.500000	0.892680	0.211360
N391	N39	0.500000	0.861790	0.238670
C4241	C424	0.000000	0.392680	0.211360
N401	N40	0.000000	0.361790	0.238670
C4251	C425	0.000000	0.880670	0.923110
N411	N41	0.000000	0.849850	0.950490
C4261	C426	0.500000	0.380670	0.923110
N421	N42	0.500000	0.349850	0.950490
C4271	C427	0.000000	0.619330	0.423110
N431	N43	0.000000	0.650150	0.450490
C4281	C428	0.500000	0.119330	0.423110
N441	N44	0.500000	0.150150	0.450490
C4291	C429	0.000000	0.380670	0.576890
N451	N45	0.000000	0.349850	0.549510
C4301	C430	0.500000	0.880670	0.576890
N461	N46	0.500000	0.849850	0.549510
C4311	C431	0.000000	0.119330	0.076890
N471	N47	0.000000	0.150150	0.049510
C4321	C432	0.500000	0.619330	0.076890
N481	N48	0.500000	0.650150	0.049510
Co491	Co49	0.250000	0.122500	0.750000
Co501	Co50	0.750000	0.377500	0.250000
Co511	Co51	0.750000	0.622500	0.750000
Co521	Co52	0.250000	0.877500	0.250000
Co531	Co53	0.750000	0.877500	0.250000
Co541	Co54	0.250000	0.622500	0.750000
Co551	Co55	0.250000	0.377500	0.250000
Co561	Co56	0.750000	0.122500	0.750000
