data_LACGAZ_clean_PM
_symmetry_space_group_name_H-M	'P1'
_cell_length_a	10.143000
_cell_length_b	12.709000
_cell_length_c	16.795000
_cell_angle_alpha	90.000000
_cell_angle_beta	107.036000
_cell_angle_gamma	90.000000
_symmetry_Int_Tables_number 1

loop_
_symmetry_equiv_pos_as_xyz
'x,y,z'

loop_
_atom_site_label
_atom_site_type_symbol
_atom_site_fract_x
_atom_site_fract_y
_atom_site_fract_z
Ca11	Ca1	0.931380	0.232010	0.712810
Ca21	Ca2	0.068620	0.732010	0.787190
Ca31	Ca3	0.068620	0.767990	0.287190
Ca41	Ca4	0.931380	0.267990	0.212810
H11	H1	0.269100	0.325200	0.781100
H21	H2	0.457800	0.415500	0.766600
H31	H3	0.666400	0.327300	0.785600
H41	H4	0.498300	0.064000	0.843600
H51	H5	0.803800	0.641500	0.858300
H61	H6	0.745700	0.478200	0.899000
H71	H7	0.805600	0.434500	0.038000
H81	H8	0.980200	0.716700	0.097900
H91	H9	0.730900	0.825200	0.718900
H101	H10	0.542200	0.915500	0.733400
H111	H11	0.333600	0.827300	0.714400
H121	H12	0.501700	0.564000	0.656400
H131	H13	0.196200	0.141500	0.641700
H141	H14	0.254300	0.978200	0.601000
H151	H15	0.194400	0.934500	0.462000
H161	H16	0.019800	0.216700	0.402100
H171	H17	0.730900	0.674800	0.218900
H181	H18	0.542200	0.584500	0.233400
H191	H19	0.333600	0.672700	0.214400
H201	H20	0.501700	0.936000	0.156400
H211	H21	0.196200	0.358500	0.141700
H221	H22	0.254300	0.521800	0.101000
H231	H23	0.194400	0.565500	0.962000
H241	H24	0.019800	0.283300	0.902100
H251	H25	0.269100	0.174800	0.281100
H261	H26	0.457800	0.084500	0.266600
H271	H27	0.666400	0.172700	0.285600
H281	H28	0.498300	0.436000	0.343600
H291	H29	0.803800	0.858500	0.358300
H301	H30	0.745700	0.021800	0.399000
H311	H31	0.805600	0.065500	0.538000
H321	H32	0.980200	0.783300	0.597900
C11	C1	0.246800	0.129100	0.834100
C21	C2	0.734900	0.128900	0.827600
C31	C3	0.366500	0.186700	0.817600
C41	C4	0.353700	0.291300	0.791600
C51	C5	0.465400	0.344800	0.781300
C61	C6	0.590900	0.291700	0.793100
C71	C7	0.603200	0.187700	0.815600
C81	C8	0.490300	0.134500	0.828200
C91	C9	0.943200	0.800800	0.947400
C101	C10	0.945100	0.539300	0.173000
C111	C11	0.899700	0.694800	0.973200
C121	C12	0.828600	0.623900	0.914500
C131	C13	0.793700	0.526100	0.938800
C141	C14	0.830000	0.500000	0.021900
C151	C15	0.902400	0.570100	0.081800
C161	C16	0.934900	0.668100	0.057800
C171	C17	0.753200	0.629100	0.665900
C181	C18	0.265100	0.628900	0.672400
C191	C19	0.633500	0.686700	0.682400
C201	C20	0.646300	0.791300	0.708400
C211	C21	0.534600	0.844800	0.718700
C221	C22	0.409100	0.791700	0.706900
C231	C23	0.396800	0.687700	0.684400
C241	C24	0.509700	0.634500	0.671800
C251	C25	0.056800	0.300800	0.552600
C261	C26	0.054900	0.039300	0.327000
C271	C27	0.100300	0.194800	0.526800
C281	C28	0.171400	0.123900	0.585500
C291	C29	0.206300	0.026100	0.561200
C301	C30	0.170000	0.000000	0.478100
C311	C31	0.097600	0.070100	0.418200
C321	C32	0.065100	0.168100	0.442200
C331	C33	0.753200	0.870900	0.165900
C341	C34	0.265100	0.871100	0.172400
C351	C35	0.633500	0.813300	0.182400
C361	C36	0.646300	0.708700	0.208400
C371	C37	0.534600	0.655200	0.218700
C381	C38	0.409100	0.708300	0.206900
C391	C39	0.396800	0.812300	0.184400
C401	C40	0.509700	0.865500	0.171800
C411	C41	0.056800	0.199200	0.052600
C421	C42	0.054900	0.460700	0.827000
C431	C43	0.100300	0.305200	0.026800
C441	C44	0.171400	0.376100	0.085500
C451	C45	0.206300	0.473900	0.061200
C461	C46	0.170000	0.500000	0.978100
C471	C47	0.097600	0.429900	0.918200
C481	C48	0.065100	0.331900	0.942200
C491	C49	0.246800	0.370900	0.334100
C501	C50	0.734900	0.371100	0.327600
C511	C51	0.366500	0.313300	0.317600
C521	C52	0.353700	0.208700	0.291600
C531	C53	0.465400	0.155200	0.281300
C541	C54	0.590900	0.208300	0.293100
C551	C55	0.603200	0.312300	0.315600
C561	C56	0.490300	0.365500	0.328200
C571	C57	0.943200	0.699200	0.447400
C581	C58	0.945100	0.960700	0.673000
C591	C59	0.899700	0.805200	0.473200
C601	C60	0.828600	0.876100	0.414500
C611	C61	0.793700	0.973900	0.438800
C621	C62	0.830000	0.000000	0.521900
C631	C63	0.902400	0.929900	0.581800
C641	C64	0.934900	0.831900	0.557800
O11	O1	0.269300	0.045500	0.873500
O21	O2	0.129300	0.169900	0.809200
O31	O3	0.744900	0.035100	0.849400
O41	O4	0.836400	0.179200	0.815200
O51	O5	0.956500	0.804300	0.874900
O61	O6	0.965100	0.875900	0.996300
O71	O7	0.912300	0.449300	0.190800
O81	O8	0.011800	0.603500	0.226900
O91	O9	0.730700	0.545500	0.626500
O101	O10	0.870700	0.669900	0.690800
O111	O11	0.255100	0.535100	0.650600
O121	O12	0.163600	0.679200	0.684800
O131	O13	0.043500	0.304300	0.625100
O141	O14	0.034900	0.375900	0.503700
O151	O15	0.087700	0.949300	0.309200
O161	O16	0.988200	0.103500	0.273100
O171	O17	0.730700	0.954500	0.126500
O181	O18	0.870700	0.830100	0.190800
O191	O19	0.255100	0.964900	0.150600
O201	O20	0.163600	0.820800	0.184800
O211	O21	0.043500	0.195700	0.125100
O221	O22	0.034900	0.124100	0.003700
O231	O23	0.087700	0.550700	0.809200
O241	O24	0.988200	0.396500	0.773100
O251	O25	0.269300	0.454500	0.373500
O261	O26	0.129300	0.330100	0.309200
O271	O27	0.744900	0.464900	0.349400
O281	O28	0.836400	0.320800	0.315200
O291	O29	0.956500	0.695700	0.374900
O301	O30	0.965100	0.624100	0.496300
O311	O31	0.912300	0.050700	0.690800
O321	O32	0.011800	0.896500	0.726900
