data_LACGED_clean_PM
_symmetry_space_group_name_H-M	'P1'
_cell_length_a	9.409200
_cell_length_b	15.656300
_cell_length_c	15.656300
_cell_angle_alpha	84.819400
_cell_angle_beta	72.512700
_cell_angle_gamma	72.512900
_symmetry_Int_Tables_number 1

loop_
_symmetry_equiv_pos_as_xyz
'x,y,z'

loop_
_atom_site_label
_atom_site_type_symbol
_atom_site_fract_x
_atom_site_fract_y
_atom_site_fract_z
Ca11	Ca1	0.625000	0.858100	0.641900
Ca21	Ca2	0.125000	0.141900	0.358100
Ca31	Ca3	0.733100	0.641900	0.141900
Ca41	Ca4	0.516900	0.358100	0.858100
H11	H1	0.316500	0.725000	0.447000
H21	H2	0.836100	0.698500	0.302100
H31	H3	0.288400	0.591000	0.286000
H41	H4	0.022300	0.792200	0.459600
H51	H5	0.488500	0.275000	0.553000
H61	H6	0.836700	0.301500	0.697900
H71	H7	0.165400	0.409000	0.714000
H81	H8	0.274100	0.207800	0.540400
H91	H9	0.236500	0.447000	0.275000
H101	H10	0.861800	0.302100	0.301500
H111	H11	0.425600	0.286000	0.409000
H121	H12	0.518100	0.459600	0.207800
H131	H13	0.958500	0.553000	0.725000
H141	H14	0.465400	0.697900	0.698500
H151	H15	0.120600	0.714000	0.591000
H161	H16	0.185500	0.540400	0.792200
H171	H17	0.761500	0.947000	0.225000
H181	H18	0.413300	0.802100	0.198500
H191	H19	0.084600	0.786000	0.091000
H201	H20	0.975900	0.959600	0.292200
H211	H21	0.933500	0.053000	0.775000
H221	H22	0.413900	0.197900	0.801500
H231	H23	0.961600	0.214000	0.909000
H241	H24	0.227700	0.040400	0.707800
H251	H25	0.291500	0.775000	0.947000
H261	H26	0.784600	0.801500	0.802100
H271	H27	0.129400	0.909000	0.786000
H281	H28	0.064500	0.707800	0.959600
H291	H29	0.013500	0.225000	0.053000
H301	H30	0.388200	0.198500	0.197900
H311	H31	0.824400	0.091000	0.214000
H321	H32	0.731900	0.292200	0.040400
Pb11	Pb1	0.429000	0.946000	0.446000
Pb21	Pb2	0.821000	0.054000	0.554000
Pb31	Pb3	0.125000	0.446000	0.054000
Pb41	Pb4	0.625000	0.554000	0.946000
C11	C1	0.751970	0.820500	0.425960
C21	C2	0.079360	0.577350	0.206450
C31	C3	0.202500	0.887300	0.254420
C41	C4	0.921770	0.696580	0.320960
C51	C5	0.064090	0.636060	0.282580
C61	C6	0.192880	0.632620	0.310620
C71	C7	0.176480	0.692610	0.376230
C81	C8	0.032870	0.753080	0.415280
C91	C9	0.998430	0.179500	0.574040
C101	C10	0.863160	0.422650	0.793550
C111	C11	0.344220	0.112700	0.745580
C121	C12	0.939310	0.303420	0.679040
C131	C13	0.982730	0.363940	0.717420
C141	C14	0.136120	0.367380	0.689380
C151	C15	0.245320	0.307390	0.623770
C161	C16	0.201230	0.246920	0.584720
C171	C17	0.822070	0.425960	0.179500
C181	C18	0.714190	0.206450	0.422650
C191	C19	0.543080	0.254420	0.112700
C201	C20	0.757270	0.320960	0.303420
C211	C21	0.653330	0.282580	0.363940
C221	C22	0.496500	0.310620	0.367380
C231	C23	0.447290	0.376230	0.307390
C241	C24	0.551850	0.415280	0.246920
C251	C25	0.427530	0.574040	0.820500
C261	C26	0.343290	0.793550	0.577350
C271	C27	0.910200	0.745580	0.887300
C281	C28	0.381650	0.679040	0.696580
C291	C29	0.299850	0.717420	0.636060
C301	C30	0.174500	0.689380	0.632620
C311	C31	0.130910	0.623770	0.692610
C321	C32	0.214050	0.584720	0.753080
C331	C33	0.251570	0.925960	0.320500
C341	C34	0.386840	0.706450	0.077350
C351	C35	0.905780	0.754420	0.387300
C361	C36	0.310690	0.820960	0.196580
C371	C37	0.267270	0.782580	0.136060
C381	C38	0.113880	0.810620	0.132620
C391	C39	0.004680	0.876230	0.192610
C401	C40	0.048770	0.915280	0.253080
C411	C41	0.498030	0.074040	0.679500
C421	C42	0.170640	0.293550	0.922650
C431	C43	0.047500	0.245580	0.612700
C441	C44	0.328230	0.179040	0.803420
C451	C45	0.185910	0.217420	0.863940
C461	C46	0.057120	0.189380	0.867380
C471	C47	0.073520	0.123770	0.807390
C481	C48	0.217130	0.084720	0.746920
C491	C49	0.822470	0.679500	0.925960
C501	C50	0.906710	0.922650	0.706450
C511	C51	0.339800	0.612700	0.754420
C521	C52	0.868350	0.803420	0.820960
C531	C53	0.950150	0.863940	0.782580
C541	C54	0.075500	0.867380	0.810620
C551	C55	0.119090	0.807390	0.876230
C561	C56	0.035950	0.746920	0.915280
C571	C57	0.427930	0.320500	0.074040
C581	C58	0.535810	0.077350	0.293550
C591	C59	0.706920	0.387300	0.245580
C601	C60	0.492730	0.196580	0.179040
C611	C61	0.596670	0.136060	0.217420
C621	C62	0.753500	0.132620	0.189380
C631	C63	0.802710	0.192610	0.123770
C641	C64	0.698150	0.253080	0.084720
O11	O1	0.735900	0.871020	0.489060
O21	O2	0.643650	0.823280	0.392780
O31	O3	0.971950	0.598380	0.169280
O41	O4	0.195660	0.510490	0.183010
O51	O5	0.305990	0.691270	0.398870
O61	O6	0.095980	0.128980	0.510940
O71	O7	0.859710	0.176720	0.607220
O81	O8	0.739610	0.401620	0.830720
O91	O9	0.889160	0.489510	0.816990
O101	O10	0.396130	0.308730	0.601130
O111	O11	0.775040	0.489060	0.128980
O121	O12	0.963570	0.392780	0.176720
O131	O13	0.858770	0.169280	0.401620
O141	O14	0.621330	0.183010	0.489510
O151	O15	0.295140	0.398870	0.308730
O161	O16	0.393080	0.510940	0.871020
O171	O17	0.533070	0.607220	0.823280
O181	O18	0.429670	0.830720	0.598380
O191	O19	0.293850	0.816990	0.510490
O201	O20	0.002740	0.601130	0.691270
O211	O21	0.154020	0.989060	0.371020
O221	O22	0.390290	0.892780	0.323280
O231	O23	0.510390	0.669280	0.098380
O241	O24	0.360840	0.683010	0.010490
O251	O25	0.853870	0.898870	0.191270
O261	O26	0.514100	0.010940	0.628980
O271	O27	0.606350	0.107220	0.676720
O281	O28	0.278050	0.330720	0.901620
O291	O29	0.054340	0.316990	0.989510
O301	O30	0.944010	0.101130	0.808730
O311	O31	0.856920	0.628980	0.989060
O321	O32	0.716930	0.676720	0.892780
O331	O33	0.820330	0.901620	0.669280
O341	O34	0.956150	0.989510	0.683010
O351	O35	0.247260	0.808730	0.898870
O361	O36	0.474960	0.371020	0.010940
O371	O37	0.286430	0.323280	0.107220
O381	O38	0.391230	0.098380	0.330720
O391	O39	0.628670	0.010490	0.316990
O401	O40	0.954860	0.191270	0.101130
