data_LACNUB_clean_PM
_symmetry_space_group_name_H-M	'P1'
_cell_length_a	32.078400
_cell_length_b	18.449100
_cell_length_c	41.249500
_cell_angle_alpha	90.000000
_cell_angle_beta	118.550000
_cell_angle_gamma	90.000000
_symmetry_Int_Tables_number 1

loop_
_symmetry_equiv_pos_as_xyz
'x,y,z'

loop_
_atom_site_label
_atom_site_type_symbol
_atom_site_fract_x
_atom_site_fract_y
_atom_site_fract_z
Cu11	Cu1	0.217810	0.176920	0.221790
Cu21	Cu2	0.278160	0.250880	0.280900
Cu31	Cu3	0.993950	0.963910	0.279880
O11	O1	0.261090	0.833500	0.248290
O21	O2	0.312780	0.770200	0.298220
O31	O3	0.233850	0.231700	0.299160
O41	O4	0.306350	0.153200	0.299370
O51	O5	0.045570	0.891000	0.296320
O61	O6	0.183100	0.168500	0.249770
O71	O7	0.256000	0.093300	0.248520
O81	O8	0.053960	0.035800	0.250450
O91	O9	0.042070	0.040200	0.299150
O101	O10	0.052200	0.887900	0.244520
O111	O11	0.236540	0.698400	0.295810
O121	O12	0.184480	0.760900	0.244710
C11	C1	0.065300	0.055400	0.281370
C21	C2	0.201190	0.740800	0.277530
C31	C3	0.224800	0.743000	0.461390
C41	C4	0.192600	0.215900	0.424080
C51	C5	0.296030	0.829500	0.280190
C61	C6	0.316500	0.898700	0.299220
C71	C7	0.168000	0.175900	0.299780
C81	C8	0.287550	0.100200	0.281270
C91	C9	0.469400	0.986900	0.462310
C101	C10	0.219500	0.234100	0.461580
C111	C11	0.128670	0.132300	0.282280
H11	H1	0.118700	0.117400	0.258100
C121	C12	0.298060	0.963900	0.281540
H21	H2	0.274700	0.963800	0.256900
C131	C13	0.103730	0.110100	0.300230
C141	C14	0.120430	0.798300	0.332020
H31	H3	0.103300	0.811500	0.344000
C151	C15	0.063760	0.869700	0.277140
C161	C16	0.174100	0.199600	0.392170
C171	C17	0.501500	0.936300	0.484060
C181	C18	0.196940	0.195600	0.281240
C191	C19	0.353000	0.898600	0.336270
H41	H4	0.365400	0.855200	0.348600
C201	C20	0.349500	0.028400	0.335710
H51	H5	0.360100	0.072500	0.347800
C211	C21	0.117700	0.134100	0.336290
H61	H6	0.100800	0.120000	0.348300
C221	C22	0.104130	0.820600	0.295180
C231	C23	0.249200	0.423500	0.460700
C241	C24	0.129500	0.795500	0.276950
H71	H7	0.118000	0.805700	0.252000
C251	C25	0.435300	0.975200	0.423860
C261	C26	0.183300	0.198700	0.336170
H81	H8	0.210600	0.226700	0.348400
C271	C27	0.170800	0.756200	0.295690
C281	C28	0.200400	0.752000	0.481300
C291	C29	0.313300	0.027300	0.299300
C301	C30	0.370100	0.964700	0.354070
C311	C31	0.199400	0.739900	0.421430
C321	C32	0.251100	0.294400	0.473950
C331	C33	0.500500	0.805700	0.497000
C341	C34	0.185900	0.735700	0.332300
H91	H9	0.212900	0.707100	0.344400
C351	C35	0.406700	0.967600	0.392150
C361	C36	0.532300	0.817200	0.533400
C371	C37	0.534300	0.773500	0.560200
H101	H10	0.556900	0.779900	0.584800
C381	C38	0.279000	0.437300	0.497000
C391	C39	0.220500	0.193000	0.490870
C401	C40	0.339000	0.356000	0.494100
C411	C41	0.468650	0.053400	0.479270
C421	C42	0.274600	0.741200	0.479930
C431	C43	0.638100	0.866800	0.528300
H111	H11	0.659500	0.872300	0.553300
C441	C44	0.157100	0.179000	0.353930
C451	C45	0.255800	0.348000	0.447110
H121	H12	0.234200	0.338400	0.421000
C461	C46	0.138900	0.829600	0.479800
C471	C47	0.385000	0.352600	0.504900
H131	H13	0.406500	0.360200	0.529600
C481	C48	0.163700	0.839900	0.518900
C491	C49	0.108000	0.886600	0.456400
H141	H14	0.091100	0.882900	0.430800
C501	C50	0.154800	0.650700	0.546500
H151	H15	0.172000	0.654100	0.572100
C511	C51	0.161800	0.756800	0.350910
C521	C52	0.180000	0.743500	0.388860
C531	C53	0.160800	0.705600	0.524300
C541	C54	0.558000	0.857100	0.478500
C551	C55	0.146000	0.758100	0.465700
H161	H16	0.128100	0.753600	0.438800
C561	C56	0.506800	0.859700	0.470500
H171	H17	0.484200	0.851100	0.444400
C571	C57	0.135500	0.699200	0.485600
C581	C58	0.312800	0.372800	0.516300
H181	H18	0.334200	0.381400	0.542600
C591	C59	0.278700	0.503500	0.513400
H191	H19	0.300500	0.513800	0.537800
C601	C60	0.467800	0.751100	0.486700
H201	H20	0.445900	0.745100	0.461900
C611	C61	0.214200	0.476500	0.439100
H211	H21	0.193200	0.467700	0.414300
C621	C62	0.576100	0.840900	0.454500
H221	H22	0.555400	0.829500	0.430000
C631	C63	0.308800	0.345800	0.457900
C641	C64	0.323400	0.334100	0.432300
H231	H23	0.301300	0.329700	0.407400
C651	C65	0.565800	0.881300	0.538650
H241	H24	0.588200	0.889900	0.564700
C661	C66	0.589600	0.868600	0.517000
C671	C67	0.158100	0.898100	0.533900
H251	H25	0.173900	0.900400	0.559500
C681	C68	0.244300	0.552700	0.491500
H261	H26	0.242400	0.597000	0.501400
C691	C69	0.193900	0.769400	0.537700
H271	H27	0.211700	0.772700	0.564600
C701	C70	0.500600	0.717800	0.549400
H281	H28	0.500400	0.687500	0.567400
C711	C71	0.466600	0.706200	0.511800
H291	H29	0.444500	0.669000	0.504900
C721	C72	0.106300	0.946400	0.475500
H301	H30	0.087300	0.984900	0.461900
C731	C73	0.624800	0.841700	0.467000
H311	H31	0.636500	0.831900	0.450700
C741	C74	0.368800	0.329100	0.442900
H321	H32	0.378800	0.319600	0.425500
C751	C75	0.402400	0.337800	0.479700
H331	H33	0.434800	0.334100	0.487500
C761	C76	0.104300	0.642400	0.470000
H341	H34	0.086300	0.638700	0.444500
C771	C77	0.100100	0.591300	0.492400
H351	H35	0.079800	0.552400	0.481400
C781	C78	0.125300	0.594900	0.531400
H361	H36	0.121300	0.559800	0.545900
C791	C79	0.212000	0.536900	0.454400
H371	H37	0.188600	0.570600	0.440500
C801	C80	0.655800	0.857000	0.503600
H381	H38	0.688200	0.860700	0.511700
C811	C81	0.132300	0.954100	0.516100
H391	H39	0.130400	0.995700	0.528100
Cu41	Cu4	0.717810	0.676920	0.221790
Cu51	Cu5	0.778160	0.750880	0.280900
Cu61	Cu6	0.493950	0.463910	0.279880
O131	O13	0.761090	0.333500	0.248290
O141	O14	0.812780	0.270200	0.298220
O151	O15	0.733850	0.731700	0.299160
O161	O16	0.806350	0.653200	0.299370
O171	O17	0.545570	0.391000	0.296320
O181	O18	0.683100	0.668500	0.249770
O191	O19	0.756000	0.593300	0.248520
O201	O20	0.553960	0.535800	0.250450
O211	O21	0.542070	0.540200	0.299150
O221	O22	0.552200	0.387900	0.244520
O231	O23	0.736540	0.198400	0.295810
O241	O24	0.684480	0.260900	0.244710
C821	C82	0.565300	0.555400	0.281370
C831	C83	0.701190	0.240800	0.277530
C841	C84	0.724800	0.243000	0.461390
C851	C85	0.692600	0.715900	0.424080
C861	C86	0.796030	0.329500	0.280190
C871	C87	0.816500	0.398700	0.299220
C881	C88	0.668000	0.675900	0.299780
C891	C89	0.787550	0.600200	0.281270
C901	C90	0.969400	0.486900	0.462310
C911	C91	0.719500	0.734100	0.461580
C921	C92	0.628670	0.632300	0.282280
H401	H40	0.618700	0.617400	0.258100
C931	C93	0.798060	0.463900	0.281540
H411	H41	0.774700	0.463800	0.256900
C941	C94	0.603730	0.610100	0.300230
C951	C95	0.620430	0.298300	0.332020
H421	H42	0.603300	0.311500	0.344000
C961	C96	0.563760	0.369700	0.277140
C971	C97	0.674100	0.699600	0.392170
C981	C98	0.001500	0.436300	0.484060
C991	C99	0.696940	0.695600	0.281240
C1001	C100	0.853000	0.398600	0.336270
H431	H43	0.865400	0.355200	0.348600
C1011	C101	0.849500	0.528400	0.335710
H441	H44	0.860100	0.572500	0.347800
C1021	C102	0.617700	0.634100	0.336290
H451	H45	0.600800	0.620000	0.348300
C1031	C103	0.604130	0.320600	0.295180
C1041	C104	0.749200	0.923500	0.460700
C1051	C105	0.629500	0.295500	0.276950
H461	H46	0.618000	0.305700	0.252000
C1061	C106	0.935300	0.475200	0.423860
C1071	C107	0.683300	0.698700	0.336170
H471	H47	0.710600	0.726700	0.348400
C1081	C108	0.670800	0.256200	0.295690
C1091	C109	0.700400	0.252000	0.481300
C1101	C110	0.813300	0.527300	0.299300
C1111	C111	0.870100	0.464700	0.354070
C1121	C112	0.699400	0.239900	0.421430
C1131	C113	0.751100	0.794400	0.473950
C1141	C114	0.000500	0.305700	0.497000
C1151	C115	0.685900	0.235700	0.332300
H481	H48	0.712900	0.207100	0.344400
C1161	C116	0.906700	0.467600	0.392150
C1171	C117	0.032300	0.317200	0.533400
C1181	C118	0.034300	0.273500	0.560200
H491	H49	0.056900	0.279900	0.584800
C1191	C119	0.779000	0.937300	0.497000
C1201	C120	0.720500	0.693000	0.490870
C1211	C121	0.839000	0.856000	0.494100
C1221	C122	0.968650	0.553400	0.479270
C1231	C123	0.774600	0.241200	0.479930
C1241	C124	0.138100	0.366800	0.528300
H501	H50	0.159500	0.372300	0.553300
C1251	C125	0.657100	0.679000	0.353930
C1261	C126	0.755800	0.848000	0.447110
H511	H51	0.734200	0.838400	0.421000
C1271	C127	0.638900	0.329600	0.479800
C1281	C128	0.885000	0.852600	0.504900
H521	H52	0.906500	0.860200	0.529600
C1291	C129	0.663700	0.339900	0.518900
C1301	C130	0.608000	0.386600	0.456400
H531	H53	0.591100	0.382900	0.430800
C1311	C131	0.654800	0.150700	0.546500
H541	H54	0.672000	0.154100	0.572100
C1321	C132	0.661800	0.256800	0.350910
C1331	C133	0.680000	0.243500	0.388860
C1341	C134	0.660800	0.205600	0.524300
C1351	C135	0.058000	0.357100	0.478500
C1361	C136	0.646000	0.258100	0.465700
H551	H55	0.628100	0.253600	0.438800
C1371	C137	0.006800	0.359700	0.470500
H561	H56	0.984200	0.351100	0.444400
C1381	C138	0.635500	0.199200	0.485600
C1391	C139	0.812800	0.872800	0.516300
H571	H57	0.834200	0.881400	0.542600
C1401	C140	0.778700	0.003500	0.513400
H581	H58	0.800500	0.013800	0.537800
C1411	C141	0.967800	0.251100	0.486700
H591	H59	0.945900	0.245100	0.461900
C1421	C142	0.714200	0.976500	0.439100
H601	H60	0.693200	0.967700	0.414300
C1431	C143	0.076100	0.340900	0.454500
H611	H61	0.055400	0.329500	0.430000
C1441	C144	0.808800	0.845800	0.457900
C1451	C145	0.823400	0.834100	0.432300
H621	H62	0.801300	0.829700	0.407400
C1461	C146	0.065800	0.381300	0.538650
H631	H63	0.088200	0.389900	0.564700
C1471	C147	0.089600	0.368600	0.517000
C1481	C148	0.658100	0.398100	0.533900
H641	H64	0.673900	0.400400	0.559500
C1491	C149	0.744300	0.052700	0.491500
H651	H65	0.742400	0.097000	0.501400
C1501	C150	0.693900	0.269400	0.537700
H661	H66	0.711700	0.272700	0.564600
C1511	C151	0.000600	0.217800	0.549400
H671	H67	0.000400	0.187500	0.567400
C1521	C152	0.966600	0.206200	0.511800
H681	H68	0.944500	0.169000	0.504900
C1531	C153	0.606300	0.446400	0.475500
H691	H69	0.587300	0.484900	0.461900
C1541	C154	0.124800	0.341700	0.467000
H701	H70	0.136500	0.331900	0.450700
C1551	C155	0.868800	0.829100	0.442900
H711	H71	0.878800	0.819600	0.425500
C1561	C156	0.902400	0.837800	0.479700
H721	H72	0.934800	0.834100	0.487500
C1571	C157	0.604300	0.142400	0.470000
H731	H73	0.586300	0.138700	0.444500
C1581	C158	0.600100	0.091300	0.492400
H741	H74	0.579800	0.052400	0.481400
C1591	C159	0.625300	0.094900	0.531400
H751	H75	0.621300	0.059800	0.545900
C1601	C160	0.712000	0.036900	0.454400
H761	H76	0.688600	0.070600	0.440500
C1611	C161	0.155800	0.357000	0.503600
H771	H77	0.188200	0.360700	0.511700
C1621	C162	0.632300	0.454100	0.516100
H781	H78	0.630400	0.495700	0.528100
Cu71	Cu7	0.782190	0.176920	0.278210
Cu81	Cu8	0.721840	0.250880	0.219090
Cu91	Cu9	0.006050	0.963910	0.220120
O251	O25	0.738910	0.833500	0.251710
O261	O26	0.687220	0.770200	0.201780
O271	O27	0.766150	0.231700	0.200840
O281	O28	0.693650	0.153200	0.200630
O291	O29	0.954430	0.891000	0.203680
O301	O30	0.816900	0.168500	0.250230
O311	O31	0.744000	0.093300	0.251480
O321	O32	0.946040	0.035800	0.249550
O331	O33	0.957930	0.040200	0.200850
O341	O34	0.947800	0.887900	0.255480
O351	O35	0.763460	0.698400	0.204190
O361	O36	0.815520	0.760900	0.255290
C1631	C163	0.934700	0.055400	0.218630
C1641	C164	0.798810	0.740800	0.222470
C1651	C165	0.775200	0.743000	0.038610
C1661	C166	0.807400	0.215900	0.075920
C1671	C167	0.703970	0.829500	0.219810
C1681	C168	0.683500	0.898700	0.200780
C1691	C169	0.832000	0.175900	0.200220
C1701	C170	0.712450	0.100200	0.218730
C1711	C171	0.530600	0.986900	0.037690
C1721	C172	0.780500	0.234100	0.038420
C1731	C173	0.871330	0.132300	0.217720
H791	H79	0.881300	0.117400	0.241900
C1741	C174	0.701940	0.963900	0.218460
H801	H80	0.725300	0.963800	0.243100
C1751	C175	0.896270	0.110100	0.199770
C1761	C176	0.879570	0.798300	0.167980
H811	H81	0.896700	0.811500	0.156000
C1771	C177	0.936240	0.869700	0.222860
C1781	C178	0.825900	0.199600	0.107830
C1791	C179	0.498500	0.936300	0.015940
C1801	C180	0.803060	0.195600	0.218760
C1811	C181	0.647000	0.898600	0.163730
H821	H82	0.634600	0.855200	0.151400
C1821	C182	0.650500	0.028400	0.164290
H831	H83	0.639900	0.072500	0.152200
C1831	C183	0.882300	0.134100	0.163710
H841	H84	0.899200	0.120000	0.151700
C1841	C184	0.895870	0.820600	0.204820
C1851	C185	0.750800	0.423500	0.039300
C1861	C186	0.870500	0.795500	0.223050
H851	H85	0.882000	0.805700	0.248000
C1871	C187	0.564700	0.975200	0.076140
C1881	C188	0.816700	0.198700	0.163830
H861	H86	0.789400	0.226700	0.151600
C1891	C189	0.829200	0.756200	0.204310
C1901	C190	0.799600	0.752000	0.018700
C1911	C191	0.686700	0.027300	0.200700
C1921	C192	0.629900	0.964700	0.145930
C1931	C193	0.800600	0.739900	0.078570
C1941	C194	0.748900	0.294400	0.026050
C1951	C195	0.499500	0.805700	0.003000
C1961	C196	0.814100	0.735700	0.167700
H871	H87	0.787100	0.707100	0.155600
C1971	C197	0.593300	0.967600	0.107850
C1981	C198	0.467700	0.817200	0.966600
C1991	C199	0.465700	0.773500	0.939800
H881	H88	0.443100	0.779900	0.915200
C2001	C200	0.721000	0.437300	0.003000
C2011	C201	0.779500	0.193000	0.009130
C2021	C202	0.661000	0.356000	0.005900
C2031	C203	0.531350	0.053400	0.020730
C2041	C204	0.725400	0.741200	0.020070
C2051	C205	0.361900	0.866800	0.971700
H891	H89	0.340500	0.872300	0.946700
C2061	C206	0.842900	0.179000	0.146070
C2071	C207	0.744200	0.348000	0.052890
H901	H90	0.765800	0.338400	0.079000
C2081	C208	0.861100	0.829600	0.020200
C2091	C209	0.615000	0.352600	0.995100
H911	H91	0.593500	0.360200	0.970400
C2101	C210	0.836300	0.839900	0.981100
C2111	C211	0.892000	0.886600	0.043600
H921	H92	0.908900	0.882900	0.069200
C2121	C212	0.845200	0.650700	0.953500
H931	H93	0.828000	0.654100	0.927900
C2131	C213	0.838200	0.756800	0.149090
C2141	C214	0.820000	0.743500	0.111140
C2151	C215	0.839200	0.705600	0.975700
C2161	C216	0.442000	0.857100	0.021500
C2171	C217	0.854000	0.758100	0.034300
H941	H94	0.871900	0.753600	0.061200
C2181	C218	0.493200	0.859700	0.029500
H951	H95	0.515800	0.851100	0.055600
C2191	C219	0.864500	0.699200	0.014400
C2201	C220	0.687200	0.372800	0.983700
H961	H96	0.665800	0.381400	0.957400
C2211	C221	0.721300	0.503500	0.986600
H971	H97	0.699500	0.513800	0.962200
C2221	C222	0.532200	0.751100	0.013300
H981	H98	0.554100	0.745100	0.038100
C2231	C223	0.785800	0.476500	0.060900
H991	H99	0.806800	0.467700	0.085700
C2241	C224	0.423900	0.840900	0.045500
H1001	H100	0.444600	0.829500	0.070000
C2251	C225	0.691200	0.345800	0.042100
C2261	C226	0.676600	0.334100	0.067700
H1011	H101	0.698700	0.329700	0.092600
C2271	C227	0.434200	0.881300	0.961350
H1021	H102	0.411800	0.889900	0.935300
C2281	C228	0.410400	0.868600	0.983000
C2291	C229	0.841900	0.898100	0.966100
H1031	H103	0.826100	0.900400	0.940500
C2301	C230	0.755700	0.552700	0.008500
H1041	H104	0.757600	0.597000	0.998600
C2311	C231	0.806100	0.769400	0.962300
H1051	H105	0.788300	0.772700	0.935400
C2321	C232	0.499400	0.717800	0.950600
H1061	H106	0.499600	0.687500	0.932600
C2331	C233	0.533400	0.706200	0.988200
H1071	H107	0.555500	0.669000	0.995100
C2341	C234	0.893700	0.946400	0.024500
H1081	H108	0.912700	0.984900	0.038100
C2351	C235	0.375200	0.841700	0.033000
H1091	H109	0.363500	0.831900	0.049300
C2361	C236	0.631200	0.329100	0.057100
H1101	H110	0.621200	0.319600	0.074500
C2371	C237	0.597600	0.337800	0.020300
H1111	H111	0.565200	0.334100	0.012500
C2381	C238	0.895700	0.642400	0.030000
H1121	H112	0.913700	0.638700	0.055500
C2391	C239	0.899900	0.591300	0.007600
H1131	H113	0.920200	0.552400	0.018600
C2401	C240	0.874700	0.594900	0.968600
H1141	H114	0.878700	0.559800	0.954100
C2411	C241	0.788000	0.536900	0.045600
H1151	H115	0.811400	0.570600	0.059500
C2421	C242	0.344200	0.857000	0.996400
H1161	H116	0.311800	0.860700	0.988300
C2431	C243	0.867700	0.954100	0.983900
H1171	H117	0.869600	0.995700	0.971900
Cu101	Cu10	0.282190	0.676920	0.278210
Cu111	Cu11	0.221840	0.750880	0.219100
Cu121	Cu12	0.506050	0.463910	0.220120
O371	O37	0.238910	0.333500	0.251710
O381	O38	0.187220	0.270200	0.201780
O391	O39	0.266150	0.731700	0.200840
O401	O40	0.193650	0.653200	0.200630
O411	O41	0.454430	0.391000	0.203680
O421	O42	0.316900	0.668500	0.250230
O431	O43	0.244000	0.593300	0.251480
O441	O44	0.446040	0.535800	0.249550
O451	O45	0.457930	0.540200	0.200850
O461	O46	0.447800	0.387900	0.255480
O471	O47	0.263460	0.198400	0.204190
O481	O48	0.315520	0.260900	0.255290
C2441	C244	0.434700	0.555400	0.218630
C2451	C245	0.298810	0.240800	0.222470
C2461	C246	0.275200	0.243000	0.038610
C2471	C247	0.307400	0.715900	0.075920
C2481	C248	0.203970	0.329500	0.219810
C2491	C249	0.183500	0.398700	0.200780
C2501	C250	0.332000	0.675900	0.200220
C2511	C251	0.212450	0.600200	0.218730
C2521	C252	0.030600	0.486900	0.037690
C2531	C253	0.280500	0.734100	0.038420
C2541	C254	0.371330	0.632300	0.217720
H1181	H118	0.381300	0.617400	0.241900
C2551	C255	0.201940	0.463900	0.218460
H1191	H119	0.225300	0.463800	0.243100
C2561	C256	0.396270	0.610100	0.199770
C2571	C257	0.379570	0.298300	0.167980
H1201	H120	0.396700	0.311500	0.156000
C2581	C258	0.436240	0.369700	0.222860
C2591	C259	0.325900	0.699600	0.107830
C2601	C260	0.998500	0.436300	0.015940
C2611	C261	0.303060	0.695600	0.218760
C2621	C262	0.147000	0.398600	0.163730
H1211	H121	0.134600	0.355200	0.151400
C2631	C263	0.150500	0.528400	0.164290
H1221	H122	0.139900	0.572500	0.152200
C2641	C264	0.382300	0.634100	0.163710
H1231	H123	0.399200	0.620000	0.151700
C2651	C265	0.395870	0.320600	0.204820
C2661	C266	0.250800	0.923500	0.039300
C2671	C267	0.370500	0.295500	0.223050
H1241	H124	0.382000	0.305700	0.248000
C2681	C268	0.064700	0.475200	0.076140
C2691	C269	0.316700	0.698700	0.163830
H1251	H125	0.289400	0.726700	0.151600
C2701	C270	0.329200	0.256200	0.204310
C2711	C271	0.299600	0.252000	0.018700
C2721	C272	0.186700	0.527300	0.200700
C2731	C273	0.129900	0.464700	0.145930
C2741	C274	0.300600	0.239900	0.078570
C2751	C275	0.248900	0.794400	0.026050
C2761	C276	0.999500	0.305700	0.003000
C2771	C277	0.314100	0.235700	0.167700
H1261	H126	0.287100	0.207100	0.155600
C2781	C278	0.093300	0.467600	0.107850
C2791	C279	0.967700	0.317200	0.966600
C2801	C280	0.965700	0.273500	0.939800
H1271	H127	0.943100	0.279900	0.915200
C2811	C281	0.221000	0.937300	0.003000
C2821	C282	0.279500	0.693000	0.009130
C2831	C283	0.161000	0.856000	0.005900
C2841	C284	0.031350	0.553400	0.020730
C2851	C285	0.225400	0.241200	0.020070
C2861	C286	0.861900	0.366800	0.971700
H1281	H128	0.840500	0.372300	0.946700
C2871	C287	0.342900	0.679000	0.146070
C2881	C288	0.244200	0.848000	0.052890
H1291	H129	0.265800	0.838400	0.079000
C2891	C289	0.361100	0.329600	0.020200
C2901	C290	0.115000	0.852600	0.995100
H1301	H130	0.093500	0.860200	0.970400
C2911	C291	0.336300	0.339900	0.981100
C2921	C292	0.392000	0.386600	0.043600
H1311	H131	0.408900	0.382900	0.069200
C2931	C293	0.345200	0.150700	0.953500
H1321	H132	0.328000	0.154100	0.927900
C2941	C294	0.338200	0.256800	0.149090
C2951	C295	0.320000	0.243500	0.111140
C2961	C296	0.339200	0.205600	0.975700
C2971	C297	0.942000	0.357100	0.021500
C2981	C298	0.354000	0.258100	0.034300
H1331	H133	0.371900	0.253600	0.061200
C2991	C299	0.993200	0.359700	0.029500
H1341	H134	0.015800	0.351100	0.055600
C3001	C300	0.364500	0.199200	0.014400
C3011	C301	0.187200	0.872800	0.983700
H1351	H135	0.165800	0.881400	0.957400
C3021	C302	0.221300	0.003500	0.986600
H1361	H136	0.199500	0.013800	0.962200
C3031	C303	0.032200	0.251100	0.013300
H1371	H137	0.054100	0.245100	0.038100
C3041	C304	0.285800	0.976500	0.060900
H1381	H138	0.306800	0.967700	0.085700
C3051	C305	0.923900	0.340900	0.045500
H1391	H139	0.944600	0.329500	0.070000
C3061	C306	0.191200	0.845800	0.042100
C3071	C307	0.176600	0.834100	0.067700
H1401	H140	0.198700	0.829700	0.092600
C3081	C308	0.934200	0.381300	0.961350
H1411	H141	0.911800	0.389900	0.935300
C3091	C309	0.910400	0.368600	0.983000
C3101	C310	0.341900	0.398100	0.966100
H1421	H142	0.326100	0.400400	0.940500
C3111	C311	0.255700	0.052700	0.008500
H1431	H143	0.257600	0.097000	0.998600
C3121	C312	0.306100	0.269400	0.962300
H1441	H144	0.288300	0.272700	0.935400
C3131	C313	0.999400	0.217800	0.950600
H1451	H145	0.999600	0.187500	0.932600
C3141	C314	0.033400	0.206200	0.988200
H1461	H146	0.055500	0.169000	0.995100
C3151	C315	0.393700	0.446400	0.024500
H1471	H147	0.412700	0.484900	0.038100
C3161	C316	0.875200	0.341700	0.033000
H1481	H148	0.863500	0.331900	0.049300
C3171	C317	0.131200	0.829100	0.057100
H1491	H149	0.121200	0.819600	0.074500
C3181	C318	0.097600	0.837800	0.020300
H1501	H150	0.065200	0.834100	0.012500
C3191	C319	0.395700	0.142400	0.030000
H1511	H151	0.413700	0.138700	0.055500
C3201	C320	0.399900	0.091300	0.007600
H1521	H152	0.420200	0.052400	0.018600
C3211	C321	0.374700	0.094900	0.968600
H1531	H153	0.378700	0.059800	0.954100
C3221	C322	0.288000	0.036900	0.045600
H1541	H154	0.311400	0.070600	0.059500
C3231	C323	0.844200	0.357000	0.996400
H1551	H155	0.811800	0.360700	0.988300
C3241	C324	0.367700	0.454100	0.983900
H1561	H156	0.369600	0.495700	0.971900
Cu131	Cu13	0.782190	0.823080	0.778210
Cu141	Cu14	0.721840	0.749120	0.719100
Cu151	Cu15	0.006050	0.036090	0.720120
O491	O49	0.738910	0.166500	0.751710
O501	O50	0.687220	0.229800	0.701780
O511	O51	0.766150	0.768300	0.700840
O521	O52	0.693650	0.846800	0.700630
O531	O53	0.954430	0.109000	0.703680
O541	O54	0.816900	0.831500	0.750230
O551	O55	0.744000	0.906700	0.751480
O561	O56	0.946040	0.964200	0.749550
O571	O57	0.957930	0.959800	0.700850
O581	O58	0.947800	0.112100	0.755480
O591	O59	0.763460	0.301600	0.704190
O601	O60	0.815520	0.239100	0.755290
C3251	C325	0.934700	0.944600	0.718630
C3261	C326	0.798810	0.259200	0.722470
C3271	C327	0.775200	0.257000	0.538610
C3281	C328	0.807400	0.784100	0.575920
C3291	C329	0.703970	0.170500	0.719810
C3301	C330	0.683500	0.101300	0.700780
C3311	C331	0.832000	0.824100	0.700220
C3321	C332	0.712450	0.899800	0.718730
C3331	C333	0.530600	0.013100	0.537690
C3341	C334	0.780500	0.765900	0.538420
C3351	C335	0.871330	0.867700	0.717720
H1571	H157	0.881300	0.882600	0.741900
C3361	C336	0.701940	0.036100	0.718460
H1581	H158	0.725300	0.036200	0.743100
C3371	C337	0.896270	0.889900	0.699770
C3381	C338	0.879570	0.201700	0.667980
H1591	H159	0.896700	0.188500	0.656000
C3391	C339	0.936240	0.130300	0.722860
C3401	C340	0.825900	0.800400	0.607830
C3411	C341	0.498500	0.063700	0.515940
C3421	C342	0.803060	0.804400	0.718760
C3431	C343	0.647000	0.101400	0.663730
H1601	H160	0.634600	0.144800	0.651400
C3441	C344	0.650500	0.971600	0.664290
H1611	H161	0.639900	0.927500	0.652200
C3451	C345	0.882300	0.865900	0.663710
H1621	H162	0.899200	0.880000	0.651700
C3461	C346	0.895870	0.179400	0.704820
C3471	C347	0.750800	0.576500	0.539300
C3481	C348	0.870500	0.204500	0.723050
H1631	H163	0.882000	0.194300	0.748000
C3491	C349	0.564700	0.024800	0.576140
C3501	C350	0.816700	0.801300	0.663830
H1641	H164	0.789400	0.773300	0.651600
C3511	C351	0.829200	0.243800	0.704310
C3521	C352	0.799600	0.248000	0.518700
C3531	C353	0.686700	0.972700	0.700700
C3541	C354	0.629900	0.035300	0.645930
C3551	C355	0.800600	0.260100	0.578570
C3561	C356	0.748900	0.705600	0.526050
C3571	C357	0.499500	0.194300	0.503000
C3581	C358	0.814100	0.264300	0.667700
H1651	H165	0.787100	0.292900	0.655600
C3591	C359	0.593300	0.032400	0.607850
C3601	C360	0.467700	0.182800	0.466600
C3611	C361	0.465700	0.226500	0.439800
H1661	H166	0.443100	0.220100	0.415200
C3621	C362	0.721000	0.562700	0.503000
C3631	C363	0.779500	0.807000	0.509130
C3641	C364	0.661000	0.644000	0.505900
C3651	C365	0.531350	0.946600	0.520730
C3661	C366	0.725400	0.258800	0.520070
C3671	C367	0.361900	0.133200	0.471700
H1671	H167	0.340500	0.127700	0.446700
C3681	C368	0.842900	0.821000	0.646070
C3691	C369	0.744200	0.652000	0.552890
H1681	H168	0.765800	0.661600	0.579000
C3701	C370	0.861100	0.170400	0.520200
C3711	C371	0.615000	0.647400	0.495100
H1691	H169	0.593500	0.639800	0.470400
C3721	C372	0.836300	0.160100	0.481100
C3731	C373	0.892000	0.113400	0.543600
H1701	H170	0.908900	0.117100	0.569200
C3741	C374	0.845200	0.349300	0.453500
H1711	H171	0.828000	0.345900	0.427900
C3751	C375	0.838200	0.243200	0.649090
C3761	C376	0.820000	0.256500	0.611140
C3771	C377	0.839200	0.294400	0.475700
C3781	C378	0.442000	0.142900	0.521500
C3791	C379	0.854000	0.241900	0.534300
H1721	H172	0.871900	0.246400	0.561200
C3801	C380	0.493200	0.140300	0.529500
H1731	H173	0.515800	0.148900	0.555600
C3811	C381	0.864500	0.300800	0.514400
C3821	C382	0.687200	0.627200	0.483700
H1741	H174	0.665800	0.618600	0.457400
C3831	C383	0.721300	0.496500	0.486600
H1751	H175	0.699500	0.486200	0.462200
C3841	C384	0.532200	0.248900	0.513300
H1761	H176	0.554100	0.254900	0.538100
C3851	C385	0.785800	0.523500	0.560900
H1771	H177	0.806800	0.532300	0.585700
C3861	C386	0.423900	0.159100	0.545500
H1781	H178	0.444600	0.170500	0.570000
C3871	C387	0.691200	0.654200	0.542100
C3881	C388	0.676600	0.665900	0.567700
H1791	H179	0.698700	0.670300	0.592600
C3891	C389	0.434200	0.118700	0.461350
H1801	H180	0.411800	0.110100	0.435300
C3901	C390	0.410400	0.131400	0.483000
C3911	C391	0.841900	0.101900	0.466100
H1811	H181	0.826100	0.099600	0.440500
C3921	C392	0.755700	0.447300	0.508500
H1821	H182	0.757600	0.403000	0.498600
C3931	C393	0.806100	0.230600	0.462300
H1831	H183	0.788300	0.227300	0.435400
C3941	C394	0.499400	0.282200	0.450600
H1841	H184	0.499600	0.312500	0.432600
C3951	C395	0.533400	0.293800	0.488200
H1851	H185	0.555500	0.331000	0.495100
C3961	C396	0.893700	0.053600	0.524500
H1861	H186	0.912700	0.015100	0.538100
C3971	C397	0.375200	0.158300	0.533000
H1871	H187	0.363500	0.168100	0.549300
C3981	C398	0.631200	0.670900	0.557100
H1881	H188	0.621200	0.680400	0.574500
C3991	C399	0.597600	0.662200	0.520300
H1891	H189	0.565200	0.665900	0.512500
C4001	C400	0.895700	0.357600	0.530000
H1901	H190	0.913700	0.361300	0.555500
C4011	C401	0.899900	0.408700	0.507600
H1911	H191	0.920200	0.447600	0.518600
C4021	C402	0.874700	0.405100	0.468600
H1921	H192	0.878700	0.440200	0.454100
C4031	C403	0.788000	0.463100	0.545600
H1931	H193	0.811400	0.429400	0.559500
C4041	C404	0.344200	0.143000	0.496400
H1941	H194	0.311800	0.139300	0.488300
C4051	C405	0.867700	0.045900	0.483900
H1951	H195	0.869600	0.004300	0.471900
Cu161	Cu16	0.282190	0.323080	0.778210
Cu171	Cu17	0.221840	0.249120	0.719100
Cu181	Cu18	0.506050	0.536090	0.720120
O611	O61	0.238910	0.666500	0.751710
O621	O62	0.187220	0.729800	0.701780
O631	O63	0.266150	0.268300	0.700840
O641	O64	0.193650	0.346800	0.700630
O651	O65	0.454430	0.609000	0.703680
O661	O66	0.316900	0.331500	0.750230
O671	O67	0.244000	0.406700	0.751480
O681	O68	0.446040	0.464200	0.749550
O691	O69	0.457930	0.459800	0.700850
O701	O70	0.447800	0.612100	0.755480
O711	O71	0.263460	0.801600	0.704190
O721	O72	0.315520	0.739100	0.755290
C4061	C406	0.434700	0.444600	0.718630
C4071	C407	0.298810	0.759200	0.722470
C4081	C408	0.275200	0.757000	0.538610
C4091	C409	0.307400	0.284100	0.575920
C4101	C410	0.203970	0.670500	0.719810
C4111	C411	0.183500	0.601300	0.700780
C4121	C412	0.332000	0.324100	0.700220
C4131	C413	0.212450	0.399800	0.718730
C4141	C414	0.030600	0.513100	0.537690
C4151	C415	0.280500	0.265900	0.538420
C4161	C416	0.371330	0.367700	0.717720
H1961	H196	0.381300	0.382600	0.741900
C4171	C417	0.201940	0.536100	0.718460
H1971	H197	0.225300	0.536200	0.743100
C4181	C418	0.396270	0.389900	0.699770
C4191	C419	0.379570	0.701700	0.667980
H1981	H198	0.396700	0.688500	0.656000
C4201	C420	0.436240	0.630300	0.722860
C4211	C421	0.325900	0.300400	0.607830
C4221	C422	0.998500	0.563700	0.515940
C4231	C423	0.303060	0.304400	0.718760
C4241	C424	0.147000	0.601400	0.663730
H1991	H199	0.134600	0.644800	0.651400
C4251	C425	0.150500	0.471600	0.664290
H2001	H200	0.139900	0.427500	0.652200
C4261	C426	0.382300	0.365900	0.663710
H2011	H201	0.399200	0.380000	0.651700
C4271	C427	0.395870	0.679400	0.704820
C4281	C428	0.250800	0.076500	0.539300
C4291	C429	0.370500	0.704500	0.723050
H2021	H202	0.382000	0.694300	0.748000
C4301	C430	0.064700	0.524800	0.576140
C4311	C431	0.316700	0.301300	0.663830
H2031	H203	0.289400	0.273300	0.651600
C4321	C432	0.329200	0.743800	0.704310
C4331	C433	0.299600	0.748000	0.518700
C4341	C434	0.186700	0.472700	0.700700
C4351	C435	0.129900	0.535300	0.645930
C4361	C436	0.300600	0.760100	0.578570
C4371	C437	0.248900	0.205600	0.526050
C4381	C438	0.999500	0.694300	0.503000
C4391	C439	0.314100	0.764300	0.667700
H2041	H204	0.287100	0.792900	0.655600
C4401	C440	0.093300	0.532400	0.607850
C4411	C441	0.967700	0.682800	0.466600
C4421	C442	0.965700	0.726500	0.439800
H2051	H205	0.943100	0.720100	0.415200
C4431	C443	0.221000	0.062700	0.503000
C4441	C444	0.279500	0.307000	0.509130
C4451	C445	0.161000	0.144000	0.505900
C4461	C446	0.031350	0.446600	0.520730
C4471	C447	0.225400	0.758800	0.520070
C4481	C448	0.861900	0.633200	0.471700
H2061	H206	0.840500	0.627700	0.446700
C4491	C449	0.342900	0.321000	0.646070
C4501	C450	0.244200	0.152000	0.552890
H2071	H207	0.265800	0.161600	0.579000
C4511	C451	0.361100	0.670400	0.520200
C4521	C452	0.115000	0.147400	0.495100
H2081	H208	0.093500	0.139800	0.470400
C4531	C453	0.336300	0.660100	0.481100
C4541	C454	0.392000	0.613400	0.543600
H2091	H209	0.408900	0.617100	0.569200
C4551	C455	0.345200	0.849300	0.453500
H2101	H210	0.328000	0.845900	0.427900
C4561	C456	0.338200	0.743200	0.649090
C4571	C457	0.320000	0.756500	0.611140
C4581	C458	0.339200	0.794400	0.475700
C4591	C459	0.942000	0.642900	0.521500
C4601	C460	0.354000	0.741900	0.534300
H2111	H211	0.371900	0.746400	0.561200
C4611	C461	0.993200	0.640300	0.529500
H2121	H212	0.015800	0.648900	0.555600
C4621	C462	0.364500	0.800800	0.514400
C4631	C463	0.187200	0.127200	0.483700
H2131	H213	0.165800	0.118600	0.457400
C4641	C464	0.221300	0.996500	0.486600
H2141	H214	0.199500	0.986200	0.462200
C4651	C465	0.032200	0.748900	0.513300
H2151	H215	0.054100	0.754900	0.538100
C4661	C466	0.285800	0.023500	0.560900
H2161	H216	0.306800	0.032300	0.585700
C4671	C467	0.923900	0.659100	0.545500
H2171	H217	0.944600	0.670500	0.570000
C4681	C468	0.191200	0.154200	0.542100
C4691	C469	0.176600	0.165900	0.567700
H2181	H218	0.198700	0.170300	0.592600
C4701	C470	0.934200	0.618700	0.461350
H2191	H219	0.911800	0.610100	0.435300
C4711	C471	0.910400	0.631400	0.483000
C4721	C472	0.341900	0.601900	0.466100
H2201	H220	0.326100	0.599600	0.440500
C4731	C473	0.255700	0.947300	0.508500
H2211	H221	0.257600	0.903000	0.498600
C4741	C474	0.306100	0.730600	0.462300
H2221	H222	0.288300	0.727300	0.435400
C4751	C475	0.999400	0.782200	0.450600
H2231	H223	0.999600	0.812500	0.432600
C4761	C476	0.033400	0.793800	0.488200
H2241	H224	0.055500	0.831000	0.495100
C4771	C477	0.393700	0.553600	0.524500
H2251	H225	0.412700	0.515100	0.538100
C4781	C478	0.875200	0.658300	0.533000
H2261	H226	0.863500	0.668100	0.549300
C4791	C479	0.131200	0.170900	0.557100
H2271	H227	0.121200	0.180400	0.574500
C4801	C480	0.097600	0.162200	0.520300
H2281	H228	0.065200	0.165900	0.512500
C4811	C481	0.395700	0.857600	0.530000
H2291	H229	0.413700	0.861300	0.555500
C4821	C482	0.399900	0.908700	0.507600
H2301	H230	0.420200	0.947600	0.518600
C4831	C483	0.374700	0.905100	0.468600
H2311	H231	0.378700	0.940200	0.454100
C4841	C484	0.288000	0.963100	0.545600
H2321	H232	0.311400	0.929400	0.559500
C4851	C485	0.844200	0.643000	0.496400
H2331	H233	0.811800	0.639300	0.488300
C4861	C486	0.367700	0.545900	0.483900
H2341	H234	0.369600	0.504300	0.471900
Cu191	Cu19	0.217810	0.823080	0.721790
Cu201	Cu20	0.278160	0.749120	0.780910
Cu211	Cu21	0.993950	0.036090	0.779880
O731	O73	0.261090	0.166500	0.748290
O741	O74	0.312780	0.229800	0.798220
O751	O75	0.233850	0.768300	0.799160
O761	O76	0.306350	0.846800	0.799370
O771	O77	0.045570	0.109000	0.796320
O781	O78	0.183100	0.831500	0.749770
O791	O79	0.256000	0.906700	0.748520
O801	O80	0.053960	0.964200	0.750450
O811	O81	0.042070	0.959800	0.799150
O821	O82	0.052200	0.112100	0.744520
O831	O83	0.236540	0.301600	0.795810
O841	O84	0.184480	0.239100	0.744710
C4871	C487	0.065300	0.944600	0.781370
C4881	C488	0.201190	0.259200	0.777530
C4891	C489	0.224800	0.257000	0.961390
C4901	C490	0.192600	0.784100	0.924080
C4911	C491	0.296030	0.170500	0.780190
C4921	C492	0.316500	0.101300	0.799220
C4931	C493	0.168000	0.824100	0.799780
C4941	C494	0.287550	0.899800	0.781270
C4951	C495	0.469400	0.013100	0.962310
C4961	C496	0.219500	0.765900	0.961580
C4971	C497	0.128670	0.867700	0.782280
H2351	H235	0.118700	0.882600	0.758100
C4981	C498	0.298060	0.036100	0.781540
H2361	H236	0.274700	0.036200	0.756900
C4991	C499	0.103730	0.889900	0.800230
C5001	C500	0.120430	0.201700	0.832020
H2371	H237	0.103300	0.188500	0.844000
C5011	C501	0.063760	0.130300	0.777140
C5021	C502	0.174100	0.800400	0.892170
C5031	C503	0.501500	0.063700	0.984060
C5041	C504	0.196940	0.804400	0.781240
C5051	C505	0.353000	0.101400	0.836270
H2381	H238	0.365400	0.144800	0.848600
C5061	C506	0.349500	0.971600	0.835710
H2391	H239	0.360100	0.927500	0.847800
C5071	C507	0.117700	0.865900	0.836290
H2401	H240	0.100800	0.880000	0.848300
C5081	C508	0.104130	0.179400	0.795180
C5091	C509	0.249200	0.576500	0.960700
C5101	C510	0.129500	0.204500	0.776950
H2411	H241	0.118000	0.194300	0.752000
C5111	C511	0.435300	0.024800	0.923860
C5121	C512	0.183300	0.801300	0.836170
H2421	H242	0.210600	0.773300	0.848400
C5131	C513	0.170800	0.243800	0.795690
C5141	C514	0.200400	0.248000	0.981300
C5151	C515	0.313300	0.972700	0.799300
C5161	C516	0.370100	0.035300	0.854070
C5171	C517	0.199400	0.260100	0.921430
C5181	C518	0.251100	0.705600	0.973950
C5191	C519	0.500500	0.194300	0.997000
C5201	C520	0.185900	0.264300	0.832300
H2431	H243	0.212900	0.292900	0.844400
C5211	C521	0.406700	0.032400	0.892150
C5221	C522	0.532300	0.182800	0.033400
C5231	C523	0.534300	0.226500	0.060200
H2441	H244	0.556900	0.220100	0.084800
C5241	C524	0.279000	0.562700	0.997000
C5251	C525	0.220500	0.807000	0.990870
C5261	C526	0.339000	0.644000	0.994100
C5271	C527	0.468650	0.946600	0.979270
C5281	C528	0.274600	0.258800	0.979930
C5291	C529	0.638100	0.133200	0.028300
H2451	H245	0.659500	0.127700	0.053300
C5301	C530	0.157100	0.821000	0.853930
C5311	C531	0.255800	0.652000	0.947110
H2461	H246	0.234200	0.661600	0.921000
C5321	C532	0.138900	0.170400	0.979800
C5331	C533	0.385000	0.647400	0.004900
H2471	H247	0.406500	0.639800	0.029600
C5341	C534	0.163700	0.160100	0.018900
C5351	C535	0.108000	0.113400	0.956400
H2481	H248	0.091100	0.117100	0.930800
C5361	C536	0.154800	0.349300	0.046500
H2491	H249	0.172000	0.345900	0.072100
C5371	C537	0.161800	0.243200	0.850910
C5381	C538	0.180000	0.256500	0.888860
C5391	C539	0.160800	0.294400	0.024300
C5401	C540	0.558000	0.142900	0.978500
C5411	C541	0.146000	0.241900	0.965700
H2501	H250	0.128100	0.246400	0.938800
C5421	C542	0.506800	0.140300	0.970500
H2511	H251	0.484200	0.148900	0.944400
C5431	C543	0.135500	0.300800	0.985600
C5441	C544	0.312800	0.627200	0.016300
H2521	H252	0.334200	0.618600	0.042600
C5451	C545	0.278700	0.496500	0.013400
H2531	H253	0.300500	0.486200	0.037800
C5461	C546	0.467800	0.248900	0.986700
H2541	H254	0.445900	0.254900	0.961900
C5471	C547	0.214200	0.523500	0.939100
H2551	H255	0.193200	0.532300	0.914300
C5481	C548	0.576100	0.159100	0.954500
H2561	H256	0.555400	0.170500	0.930000
C5491	C549	0.308800	0.654200	0.957900
C5501	C550	0.323400	0.665900	0.932300
H2571	H257	0.301300	0.670300	0.907400
C5511	C551	0.565800	0.118700	0.038650
H2581	H258	0.588200	0.110100	0.064700
C5521	C552	0.589600	0.131400	0.017000
C5531	C553	0.158100	0.101900	0.033900
H2591	H259	0.173900	0.099600	0.059500
C5541	C554	0.244300	0.447300	0.991500
H2601	H260	0.242400	0.403000	0.001400
C5551	C555	0.193900	0.230600	0.037700
H2611	H261	0.211700	0.227300	0.064600
C5561	C556	0.500600	0.282200	0.049400
H2621	H262	0.500400	0.312500	0.067400
C5571	C557	0.466600	0.293800	0.011800
H2631	H263	0.444500	0.331000	0.004900
C5581	C558	0.106300	0.053600	0.975500
H2641	H264	0.087300	0.015100	0.961900
C5591	C559	0.624800	0.158300	0.967000
H2651	H265	0.636500	0.168100	0.950700
C5601	C560	0.368800	0.670900	0.942900
H2661	H266	0.378800	0.680400	0.925500
C5611	C561	0.402400	0.662200	0.979700
H2671	H267	0.434800	0.665900	0.987500
C5621	C562	0.104300	0.357600	0.970000
H2681	H268	0.086300	0.361300	0.944500
C5631	C563	0.100100	0.408700	0.992400
H2691	H269	0.079800	0.447600	0.981400
C5641	C564	0.125300	0.405100	0.031400
H2701	H270	0.121300	0.440200	0.045900
C5651	C565	0.212000	0.463100	0.954400
H2711	H271	0.188600	0.429400	0.940500
C5661	C566	0.655800	0.143000	0.003600
H2721	H272	0.688200	0.139300	0.011700
C5671	C567	0.132300	0.045900	0.016100
H2731	H273	0.130400	0.004300	0.028100
Cu221	Cu22	0.717810	0.323080	0.721790
Cu231	Cu23	0.778160	0.249120	0.780900
Cu241	Cu24	0.493950	0.536090	0.779880
O851	O85	0.761090	0.666500	0.748290
O861	O86	0.812780	0.729800	0.798220
O871	O87	0.733850	0.268300	0.799160
O881	O88	0.806350	0.346800	0.799370
O891	O89	0.545570	0.609000	0.796320
O901	O90	0.683100	0.331500	0.749770
O911	O91	0.756000	0.406700	0.748520
O921	O92	0.553960	0.464200	0.750450
O931	O93	0.542070	0.459800	0.799150
O941	O94	0.552200	0.612100	0.744520
O951	O95	0.736540	0.801600	0.795810
O961	O96	0.684480	0.739100	0.744710
C5681	C568	0.565300	0.444600	0.781370
C5691	C569	0.701190	0.759200	0.777530
C5701	C570	0.724800	0.757000	0.961390
C5711	C571	0.692600	0.284100	0.924080
C5721	C572	0.796030	0.670500	0.780190
C5731	C573	0.816500	0.601300	0.799220
C5741	C574	0.668000	0.324100	0.799780
C5751	C575	0.787550	0.399800	0.781270
C5761	C576	0.969400	0.513100	0.962310
C5771	C577	0.719500	0.265900	0.961580
C5781	C578	0.628670	0.367700	0.782280
H2741	H274	0.618700	0.382600	0.758100
C5791	C579	0.798060	0.536100	0.781540
H2751	H275	0.774700	0.536200	0.756900
C5801	C580	0.603730	0.389900	0.800230
C5811	C581	0.620430	0.701700	0.832020
H2761	H276	0.603300	0.688500	0.844000
C5821	C582	0.563760	0.630300	0.777140
C5831	C583	0.674100	0.300400	0.892170
C5841	C584	0.001500	0.563700	0.984060
C5851	C585	0.696940	0.304400	0.781240
C5861	C586	0.853000	0.601400	0.836270
H2771	H277	0.865400	0.644800	0.848600
C5871	C587	0.849500	0.471600	0.835710
H2781	H278	0.860100	0.427500	0.847800
C5881	C588	0.617700	0.365900	0.836290
H2791	H279	0.600800	0.380000	0.848300
C5891	C589	0.604130	0.679400	0.795180
C5901	C590	0.749200	0.076500	0.960700
C5911	C591	0.629500	0.704500	0.776950
H2801	H280	0.618000	0.694300	0.752000
C5921	C592	0.935300	0.524800	0.923860
C5931	C593	0.683300	0.301300	0.836170
H2811	H281	0.710600	0.273300	0.848400
C5941	C594	0.670800	0.743800	0.795690
C5951	C595	0.700400	0.748000	0.981300
C5961	C596	0.813300	0.472700	0.799300
C5971	C597	0.870100	0.535300	0.854070
C5981	C598	0.699400	0.760100	0.921430
C5991	C599	0.751100	0.205600	0.973950
C6001	C600	0.000500	0.694300	0.997000
C6011	C601	0.685900	0.764300	0.832300
H2821	H282	0.712900	0.792900	0.844400
C6021	C602	0.906700	0.532400	0.892150
C6031	C603	0.032300	0.682800	0.033400
C6041	C604	0.034300	0.726500	0.060200
H2831	H283	0.056900	0.720100	0.084800
C6051	C605	0.779000	0.062700	0.997000
C6061	C606	0.720500	0.307000	0.990870
C6071	C607	0.839000	0.144000	0.994100
C6081	C608	0.968650	0.446600	0.979270
C6091	C609	0.774600	0.758800	0.979930
C6101	C610	0.138100	0.633200	0.028300
H2841	H284	0.159500	0.627700	0.053300
C6111	C611	0.657100	0.321000	0.853930
C6121	C612	0.755800	0.152000	0.947110
H2851	H285	0.734200	0.161600	0.921000
C6131	C613	0.638900	0.670400	0.979800
C6141	C614	0.885000	0.147400	0.004900
H2861	H286	0.906500	0.139800	0.029600
C6151	C615	0.663700	0.660100	0.018900
C6161	C616	0.608000	0.613400	0.956400
H2871	H287	0.591100	0.617100	0.930800
C6171	C617	0.654800	0.849300	0.046500
H2881	H288	0.672000	0.845900	0.072100
C6181	C618	0.661800	0.743200	0.850910
C6191	C619	0.680000	0.756500	0.888860
C6201	C620	0.660800	0.794400	0.024300
C6211	C621	0.058000	0.642900	0.978500
C6221	C622	0.646000	0.741900	0.965700
H2891	H289	0.628100	0.746400	0.938800
C6231	C623	0.006800	0.640300	0.970500
H2901	H290	0.984200	0.648900	0.944400
C6241	C624	0.635500	0.800800	0.985600
C6251	C625	0.812800	0.127200	0.016300
H2911	H291	0.834200	0.118600	0.042600
C6261	C626	0.778700	0.996500	0.013400
H2921	H292	0.800500	0.986200	0.037800
C6271	C627	0.967800	0.748900	0.986700
H2931	H293	0.945900	0.754900	0.961900
C6281	C628	0.714200	0.023500	0.939100
H2941	H294	0.693200	0.032300	0.914300
C6291	C629	0.076100	0.659100	0.954500
H2951	H295	0.055400	0.670500	0.930000
C6301	C630	0.808800	0.154200	0.957900
C6311	C631	0.823400	0.165900	0.932300
H2961	H296	0.801300	0.170300	0.907400
C6321	C632	0.065800	0.618700	0.038650
H2971	H297	0.088200	0.610100	0.064700
C6331	C633	0.089600	0.631400	0.017000
C6341	C634	0.658100	0.601900	0.033900
H2981	H298	0.673900	0.599600	0.059500
C6351	C635	0.744300	0.947300	0.991500
H2991	H299	0.742400	0.903000	0.001400
C6361	C636	0.693900	0.730600	0.037700
H3001	H300	0.711700	0.727300	0.064600
C6371	C637	0.000600	0.782200	0.049400
H3011	H301	0.000400	0.812500	0.067400
C6381	C638	0.966600	0.793800	0.011800
H3021	H302	0.944500	0.831000	0.004900
C6391	C639	0.606300	0.553600	0.975500
H3031	H303	0.587300	0.515100	0.961900
C6401	C640	0.124800	0.658300	0.967000
H3041	H304	0.136500	0.668100	0.950700
C6411	C641	0.868800	0.170900	0.942900
H3051	H305	0.878800	0.180400	0.925500
C6421	C642	0.902400	0.162200	0.979700
H3061	H306	0.934800	0.165900	0.987500
C6431	C643	0.604300	0.857600	0.970000
H3071	H307	0.586300	0.861300	0.944500
C6441	C644	0.600100	0.908700	0.992400
H3081	H308	0.579800	0.947600	0.981400
C6451	C645	0.625300	0.905100	0.031400
H3091	H309	0.621300	0.940200	0.045900
C6461	C646	0.712000	0.963100	0.954400
H3101	H310	0.688600	0.929400	0.940500
C6471	C647	0.155800	0.643000	0.003600
H3111	H311	0.188200	0.639300	0.011700
C6481	C648	0.632300	0.545900	0.016100
H3121	H312	0.630400	0.504300	0.028100
