data_LADKEJ_clean_PM
_symmetry_space_group_name_H-M	'P1'
_cell_length_a	9.303700
_cell_length_b	9.572800
_cell_length_c	18.669000
_cell_angle_alpha	82.061000
_cell_angle_beta	79.153000
_cell_angle_gamma	72.695000
_symmetry_Int_Tables_number 1

loop_
_symmetry_equiv_pos_as_xyz
'x,y,z'

loop_
_atom_site_label
_atom_site_type_symbol
_atom_site_fract_x
_atom_site_fract_y
_atom_site_fract_z
Cd11	Cd1	0.207500	0.820200	0.108070
Cd21	Cd2	0.101070	0.764590	0.432710
C11	C1	0.149700	0.154300	0.307500
C21	C2	0.185800	0.170900	0.230500
C31	C3	0.203100	0.303800	0.196500
H11	H1	0.236000	0.311000	0.139000
C41	C4	0.185700	0.422400	0.236200
C51	C5	0.154000	0.405100	0.313100
C61	C6	0.133600	0.272900	0.348100
C71	C7	0.139600	0.530300	0.358500
C81	C8	0.198900	0.566600	0.195000
C91	C9	0.129100	0.011300	0.348000
C101	C10	0.198500	0.049200	0.184000
C111	C11	0.088300	0.255900	0.430500
C121	C12	0.945400	0.458900	0.019200
H21	H2	0.951000	0.381000	0.993000
H31	H3	0.001000	0.428000	0.063000
C131	C13	0.779400	0.545100	0.031300
C141	C14	0.567500	0.762100	0.033400
H41	H4	0.532600	0.863000	0.022300
C151	C15	0.723500	0.696100	0.014800
H51	H5	0.788600	0.751700	0.991900
C161	C16	0.521200	0.547500	0.078800
H61	H6	0.453000	0.494400	0.100700
C171	C17	0.672400	0.471100	0.062000
H71	H7	0.702700	0.369400	0.071400
C181	C18	0.928500	0.993300	0.027200
N11	N1	0.465600	0.693700	0.065500
O11	O1	0.227000	0.855600	0.506600
H81	H8	0.227500	0.939900	0.491000
O21	O2	0.801200	0.067000	0.009500
O31	O3	0.021600	0.636800	0.359300
O41	O4	0.243300	0.521000	0.394300
O51	O5	0.965300	0.345000	0.455600
O61	O6	0.152900	0.598800	0.134100
O71	O7	0.255900	0.645400	0.221700
O81	O8	0.001400	0.011300	0.386200
O91	O9	0.240300	0.899300	0.343700
O101	O10	0.099800	0.981900	0.198500
O111	O11	0.305100	0.023600	0.131200
O121	O12	0.948700	0.909200	0.083700
O131	O13	0.166900	0.157000	0.468500
Cd31	Cd3	0.792500	0.179800	0.891930
Cd41	Cd4	0.898930	0.235410	0.567290
C191	C19	0.850300	0.845700	0.692500
C201	C20	0.814200	0.829100	0.769500
C211	C21	0.796900	0.696200	0.803500
H91	H9	0.764000	0.689000	0.861000
C221	C22	0.814300	0.577600	0.763800
C231	C23	0.846000	0.594900	0.686900
C241	C24	0.866400	0.727100	0.651900
C251	C25	0.860400	0.469700	0.641500
C261	C26	0.801100	0.433400	0.805000
C271	C27	0.870900	0.988700	0.652000
C281	C28	0.801500	0.950800	0.816000
C291	C29	0.911700	0.744100	0.569500
C301	C30	0.054600	0.541100	0.980800
H101	H10	0.049000	0.619000	0.007000
H111	H11	0.999000	0.572000	0.937000
C311	C31	0.220600	0.454900	0.968700
C321	C32	0.432500	0.237900	0.966600
H121	H12	0.467400	0.137000	0.977700
C331	C33	0.276500	0.303900	0.985200
H131	H13	0.211400	0.248300	0.008100
C341	C34	0.478800	0.452500	0.921200
H141	H14	0.547000	0.505600	0.899300
C351	C35	0.327600	0.528900	0.938000
H151	H15	0.297300	0.630600	0.928600
C361	C36	0.071500	0.006700	0.972800
N21	N2	0.534400	0.306300	0.934500
O141	O14	0.773000	0.144400	0.493400
H161	H16	0.772500	0.060100	0.509000
O151	O15	0.198800	0.933000	0.990500
O161	O16	0.978400	0.363200	0.640700
O171	O17	0.756700	0.479000	0.605700
O181	O18	0.034700	0.655000	0.544400
O191	O19	0.847100	0.401200	0.865900
O201	O20	0.744100	0.354600	0.778300
O211	O21	0.998600	0.988700	0.613800
O221	O22	0.759700	0.100700	0.656300
O231	O23	0.900200	0.018100	0.801500
O241	O24	0.694900	0.976400	0.868800
O251	O25	0.051300	0.090800	0.916300
O261	O26	0.833100	0.843000	0.531500
