data_LAFFEG02_clean_PM
_symmetry_space_group_name_H-M	'P1'
_cell_length_a	31.407700
_cell_length_b	31.407700
_cell_length_c	15.094500
_cell_angle_alpha	90.000000
_cell_angle_beta	90.000000
_cell_angle_gamma	120.000000
_symmetry_Int_Tables_number 1

loop_
_symmetry_equiv_pos_as_xyz
'x,y,z'

loop_
_atom_site_label
_atom_site_type_symbol
_atom_site_fract_x
_atom_site_fract_y
_atom_site_fract_z
Zn11	Zn1	0.060990	0.730730	0.486880
C11	C1	0.148770	0.739310	0.545400
C21	C2	0.186140	0.722380	0.550900
C31	C3	0.176350	0.677610	0.513300
H11	H1	0.146000	0.657200	0.487000
C41	C4	0.211520	0.663870	0.515300
H21	H2	0.204400	0.633900	0.490600
C51	C5	0.258170	0.694050	0.553900
C61	C6	0.266100	0.737490	0.594400
H31	H3	0.295900	0.757500	0.622700
C71	C7	0.230700	0.751470	0.593300
H41	H4	0.236800	0.780400	0.621100
C81	C8	0.296560	0.679810	0.552000
C91	C9	0.346460	0.716040	0.551600
H51	H5	0.355200	0.749000	0.551000
C101	C10	0.074700	0.819300	0.433400
C111	C11	0.057950	0.855850	0.416700
C121	C12	0.084230	0.895550	0.359300
H61	H6	0.112000	0.899100	0.330600
C131	C13	0.069500	0.929300	0.344900
H71	H7	0.088100	0.956000	0.308000
C141	C14	0.027070	0.924560	0.384100
C151	C15	0.000020	0.884350	0.439300
H81	H8	0.971400	0.880200	0.465800
C161	C16	0.015070	0.850320	0.455600
H91	H9	0.996500	0.823700	0.492600
C171	C17	0.013070	0.963250	0.374500
C181	C18	0.963480	0.950840	0.374000
H101	H10	0.939100	0.917900	0.373400
C191	C19	0.042520	0.670700	0.318000
O11	O1	0.108820	0.820700	0.391700
O21	O2	0.051240	0.787290	0.492600
O31	O3	0.150960	0.771670	0.594600
O41	O4	0.115380	0.717420	0.486600
N11	N1	0.971600	0.657300	0.279800
N21	N2	0.007790	0.647860	0.257000
N31	N3	0.984130	0.684700	0.349300
N41	N4	0.086700	0.673500	0.317800
H111	H11	0.094200	0.659900	0.275900
H121	H12	0.107400	0.688900	0.359600
N51	N5	0.028960	0.693700	0.376300
Zn21	Zn2	0.727660	0.064060	0.820210
C201	C20	0.815440	0.072640	0.878730
C211	C21	0.852810	0.055710	0.884230
C221	C22	0.843020	0.010940	0.846630
H131	H13	0.812670	0.990530	0.820330
C231	C23	0.878190	0.997200	0.848630
H141	H14	0.871070	0.967230	0.823930
C241	C24	0.924840	0.027380	0.887230
C251	C25	0.932770	0.070820	0.927730
H151	H15	0.962570	0.090830	0.956030
C261	C26	0.897370	0.084800	0.926630
H161	H16	0.903470	0.113730	0.954430
C271	C27	0.963230	0.013140	0.885330
C281	C28	0.013130	0.049370	0.884930
H171	H17	0.021870	0.082330	0.884330
C291	C29	0.741370	0.152630	0.766730
C301	C30	0.724620	0.189180	0.750030
C311	C31	0.750900	0.228880	0.692630
H181	H18	0.778670	0.232430	0.663930
C321	C32	0.736170	0.262630	0.678230
H191	H19	0.754770	0.289330	0.641330
C331	C33	0.693740	0.257890	0.717430
C341	C34	0.666690	0.217680	0.772630
H201	H20	0.638070	0.213530	0.799130
C351	C35	0.681740	0.183650	0.788930
H211	H21	0.663170	0.157030	0.825930
C361	C36	0.679740	0.296580	0.707830
C371	C37	0.630150	0.284170	0.707330
H221	H22	0.605770	0.251230	0.706730
C381	C38	0.709190	0.004030	0.651330
O51	O5	0.775490	0.154030	0.725030
O61	O6	0.717910	0.120620	0.825930
O71	O7	0.817630	0.105000	0.927930
O81	O8	0.782050	0.050750	0.819930
N61	N6	0.638270	0.990630	0.613130
N71	N7	0.674460	0.981190	0.590330
N81	N8	0.650800	0.018030	0.682630
N91	N9	0.753370	0.006830	0.651130
H231	H23	0.760870	0.993230	0.609230
H241	H24	0.774070	0.022230	0.692930
N101	N10	0.695630	0.027030	0.709630
Zn31	Zn3	0.394320	0.397400	0.153550
C391	C39	0.482100	0.405980	0.212070
C401	C40	0.519470	0.389050	0.217570
C411	C41	0.509680	0.344280	0.179970
H251	H25	0.479330	0.323870	0.153670
C421	C42	0.544850	0.330540	0.181970
H261	H26	0.537730	0.300570	0.157270
C431	C43	0.591500	0.360720	0.220570
C441	C44	0.599430	0.404160	0.261070
H271	H27	0.629230	0.424170	0.289370
C451	C45	0.564030	0.418140	0.259970
H281	H28	0.570130	0.447070	0.287770
C461	C46	0.629890	0.346480	0.218670
C471	C47	0.679790	0.382710	0.218270
H291	H29	0.688530	0.415670	0.217670
C481	C48	0.408030	0.485970	0.100070
C491	C49	0.391280	0.522520	0.083370
C501	C50	0.417560	0.562220	0.025970
H301	H30	0.445330	0.565770	0.997270
C511	C51	0.402830	0.595970	0.011570
H311	H31	0.421430	0.622670	0.974670
C521	C52	0.360400	0.591230	0.050770
C531	C53	0.333350	0.551020	0.105970
H321	H32	0.304730	0.546870	0.132470
C541	C54	0.348400	0.516990	0.122270
H331	H33	0.329830	0.490370	0.159270
C551	C55	0.346400	0.629920	0.041170
C561	C56	0.296810	0.617510	0.040670
H341	H34	0.272430	0.584570	0.040070
C571	C57	0.375850	0.337370	0.984670
O91	O9	0.442150	0.487370	0.058370
O101	O10	0.384570	0.453960	0.159270
O111	O11	0.484290	0.438340	0.261270
O121	O12	0.448710	0.384090	0.153270
N111	N11	0.304930	0.323970	0.946470
N121	N12	0.341120	0.314530	0.923670
N131	N13	0.317460	0.351370	0.015970
N141	N14	0.420030	0.340170	0.984470
H351	H35	0.427530	0.326570	0.942570
H361	H36	0.440730	0.355570	0.026270
N151	N15	0.362290	0.360370	0.042970
Zn41	Zn4	0.269270	0.330260	0.486880
C581	C58	0.260690	0.409460	0.545400
C591	C59	0.277620	0.463760	0.550900
C601	C60	0.322390	0.498740	0.513300
H371	H37	0.342800	0.488800	0.487000
C611	C61	0.336130	0.547650	0.515300
H381	H38	0.366100	0.570500	0.490600
C621	C62	0.305950	0.564120	0.553900
C631	C63	0.262510	0.528610	0.594400
H391	H39	0.242500	0.538400	0.622700
C641	C64	0.248530	0.479230	0.593300
H401	H40	0.219600	0.456400	0.621100
C651	C65	0.320190	0.616750	0.552000
C661	C66	0.283960	0.630420	0.551600
H411	H41	0.251000	0.606200	0.551000
C671	C67	0.180700	0.255400	0.433400
C681	C68	0.144150	0.202100	0.416700
C691	C69	0.104450	0.188680	0.359300
H421	H42	0.100900	0.212900	0.330600
C701	C70	0.070700	0.140200	0.344900
H431	H43	0.044000	0.132100	0.308000
C711	C71	0.075440	0.102510	0.384100
C721	C72	0.115650	0.115670	0.439300
H441	H44	0.119800	0.091200	0.465800
C731	C73	0.149680	0.164750	0.455600
H451	H45	0.176300	0.172800	0.492600
C741	C74	0.036750	0.049820	0.374500
C751	C75	0.049160	0.012640	0.374000
H461	H46	0.082100	0.021200	0.373400
C761	C76	0.329300	0.371820	0.318000
O131	O13	0.179300	0.288120	0.391700
O141	O14	0.212710	0.263950	0.492600
O151	O15	0.228330	0.379290	0.594600
O161	O16	0.282580	0.397960	0.486600
N161	N16	0.342700	0.314300	0.279800
N171	N17	0.352140	0.359930	0.257000
N181	N18	0.315300	0.299430	0.349300
N191	N19	0.326500	0.413200	0.317800
H471	H47	0.340100	0.434300	0.275900
H481	H48	0.311100	0.418500	0.359600
N201	N20	0.306300	0.335260	0.376300
Zn51	Zn5	0.935940	0.663590	0.820210
C771	C77	0.927360	0.742790	0.878730
C781	C78	0.944290	0.797090	0.884230
C791	C79	0.989060	0.832070	0.846630
H491	H49	0.009470	0.822130	0.820330
C801	C80	0.002800	0.880980	0.848630
H501	H50	0.032770	0.903830	0.823930
C811	C81	0.972620	0.897450	0.887230
C821	C82	0.929180	0.861940	0.927730
H511	H51	0.909170	0.871730	0.956030
C831	C83	0.915200	0.812560	0.926630
H521	H52	0.886270	0.789730	0.954430
C841	C84	0.986860	0.950080	0.885330
C851	C85	0.950630	0.963750	0.884930
H531	H53	0.917670	0.939530	0.884330
C861	C86	0.847370	0.588730	0.766730
C871	C87	0.810820	0.535430	0.750030
C881	C88	0.771120	0.522010	0.692630
H541	H54	0.767570	0.546230	0.663930
C891	C89	0.737370	0.473530	0.678230
H551	H55	0.710670	0.465430	0.641330
C901	C90	0.742110	0.435840	0.717430
C911	C91	0.782320	0.449000	0.772630
H561	H56	0.786470	0.424530	0.799130
C921	C92	0.816350	0.498080	0.788930
H571	H57	0.842970	0.506130	0.825930
C931	C93	0.703420	0.383150	0.707830
C941	C94	0.715830	0.345970	0.707330
H581	H58	0.748770	0.354530	0.706730
C951	C95	0.995970	0.705150	0.651330
O171	O17	0.845970	0.621450	0.725030
O181	O18	0.879380	0.597280	0.825930
O191	O19	0.895000	0.712620	0.927930
O201	O20	0.949250	0.731290	0.819930
N211	N21	0.009370	0.647630	0.613130
N221	N22	0.018810	0.693260	0.590330
N231	N23	0.981970	0.632760	0.682630
N241	N24	0.993170	0.746530	0.651130
H591	H59	0.006770	0.767630	0.609230
H601	H60	0.977770	0.751830	0.692930
N251	N25	0.972970	0.668590	0.709630
Zn61	Zn6	0.602600	0.996930	0.153550
C961	C96	0.594020	0.076130	0.212070
C971	C97	0.610950	0.130430	0.217570
C981	C98	0.655720	0.165410	0.179970
H611	H61	0.676130	0.155470	0.153670
C991	C99	0.669460	0.214320	0.181970
H621	H62	0.699430	0.237170	0.157270
C1001	C100	0.639280	0.230790	0.220570
C1011	C101	0.595840	0.195280	0.261070
H631	H63	0.575830	0.205070	0.289370
C1021	C102	0.581860	0.145900	0.259970
H641	H64	0.552930	0.123070	0.287770
C1031	C103	0.653520	0.283420	0.218670
C1041	C104	0.617290	0.297090	0.218270
H651	H65	0.584330	0.272870	0.217670
C1051	C105	0.514030	0.922070	0.100070
C1061	C106	0.477480	0.868770	0.083370
C1071	C107	0.437780	0.855350	0.025970
H661	H66	0.434230	0.879570	0.997270
C1081	C108	0.404030	0.806870	0.011570
H671	H67	0.377330	0.798770	0.974670
C1091	C109	0.408770	0.769180	0.050770
C1101	C110	0.448980	0.782340	0.105970
H681	H68	0.453130	0.757870	0.132470
C1111	C111	0.483010	0.831420	0.122270
H691	H69	0.509630	0.839470	0.159270
C1121	C112	0.370080	0.716490	0.041170
C1131	C113	0.382490	0.679310	0.040670
H701	H70	0.415430	0.687870	0.040070
C1141	C114	0.662630	0.038490	0.984670
O211	O21	0.512630	0.954790	0.058370
O221	O22	0.546040	0.930620	0.159270
O231	O23	0.561660	0.045960	0.261270
O241	O24	0.615910	0.064630	0.153270
N261	N26	0.676030	0.980970	0.946470
N271	N27	0.685470	0.026600	0.923670
N281	N28	0.648630	0.966100	0.015970
N291	N29	0.659830	0.079870	0.984470
H711	H71	0.673430	0.100970	0.942570
H721	H72	0.644430	0.085170	0.026270
N301	N30	0.639630	0.001930	0.042970
Zn71	Zn7	0.669740	0.939010	0.486880
C1151	C115	0.590540	0.851230	0.545400
C1161	C116	0.536240	0.813860	0.550900
C1171	C117	0.501260	0.823650	0.513300
H731	H73	0.511200	0.854000	0.487000
C1181	C118	0.452350	0.788480	0.515300
H741	H74	0.429500	0.795600	0.490600
C1191	C119	0.435880	0.741830	0.553900
C1201	C120	0.471390	0.733900	0.594400
H751	H75	0.461600	0.704100	0.622700
C1211	C121	0.520770	0.769300	0.593300
H761	H76	0.543600	0.763200	0.621100
C1221	C122	0.383250	0.703440	0.552000
C1231	C123	0.369580	0.653540	0.551600
H771	H77	0.393800	0.644800	0.551000
C1241	C124	0.744600	0.925300	0.433400
C1251	C125	0.797900	0.942050	0.416700
C1261	C126	0.811320	0.915770	0.359300
H781	H78	0.787100	0.888000	0.330600
C1271	C127	0.859800	0.930500	0.344900
H791	H79	0.867900	0.911900	0.308000
C1281	C128	0.897490	0.972930	0.384100
C1291	C129	0.884330	0.999980	0.439300
H801	H80	0.908800	0.028600	0.465800
C1301	C130	0.835250	0.984930	0.455600
H811	H81	0.827200	0.003500	0.492600
C1311	C131	0.950180	0.986930	0.374500
C1321	C132	0.987360	0.036520	0.374000
H821	H82	0.978800	0.060900	0.373400
C1331	C133	0.628180	0.957480	0.318000
O251	O25	0.711880	0.891180	0.391700
O261	O26	0.736050	0.948760	0.492600
O271	O27	0.620710	0.849040	0.594600
O281	O28	0.602040	0.884620	0.486600
N311	N31	0.685700	0.028400	0.279800
N321	N32	0.640070	0.992210	0.257000
N331	N33	0.700570	0.015870	0.349300
N341	N34	0.586800	0.913300	0.317800
H831	H83	0.565700	0.905800	0.275900
H841	H84	0.581500	0.892600	0.359600
N351	N35	0.664740	0.971040	0.376300
Zn81	Zn8	0.336410	0.272340	0.820210
C1341	C134	0.257210	0.184560	0.878730
C1351	C135	0.202910	0.147190	0.884230
C1361	C136	0.167930	0.156980	0.846630
H851	H85	0.177870	0.187330	0.820330
C1371	C137	0.119020	0.121810	0.848630
H861	H86	0.096170	0.128930	0.823930
C1381	C138	0.102550	0.075160	0.887230
C1391	C139	0.138060	0.067230	0.927730
H871	H87	0.128270	0.037430	0.956030
C1401	C140	0.187440	0.102630	0.926630
H881	H88	0.210270	0.096530	0.954430
C1411	C141	0.049920	0.036770	0.885330
C1421	C142	0.036250	0.986870	0.884930
H891	H89	0.060470	0.978130	0.884330
C1431	C143	0.411270	0.258630	0.766730
C1441	C144	0.464570	0.275380	0.750030
C1451	C145	0.477990	0.249100	0.692630
H901	H90	0.453770	0.221330	0.663930
C1461	C146	0.526470	0.263830	0.678230
H911	H91	0.534570	0.245230	0.641330
C1471	C147	0.564160	0.306260	0.717430
C1481	C148	0.551000	0.333310	0.772630
H921	H92	0.575470	0.361930	0.799130
C1491	C149	0.501920	0.318260	0.788930
H931	H93	0.493870	0.336830	0.825930
C1501	C150	0.616850	0.320260	0.707830
C1511	C151	0.654030	0.369850	0.707330
H941	H94	0.645470	0.394230	0.706730
C1521	C152	0.294850	0.290810	0.651330
O291	O29	0.378550	0.224510	0.725030
O301	O30	0.402720	0.282090	0.825930
O311	O31	0.287380	0.182370	0.927930
O321	O32	0.268710	0.217950	0.819930
N361	N36	0.352370	0.361730	0.613130
N371	N37	0.306740	0.325540	0.590330
N381	N38	0.367240	0.349200	0.682630
N391	N39	0.253470	0.246630	0.651130
H951	H95	0.232370	0.239130	0.609230
H961	H96	0.248170	0.225930	0.692930
N401	N40	0.331410	0.304370	0.709630
Zn91	Zn9	0.003070	0.605680	0.153550
C1531	C153	0.923870	0.517900	0.212070
C1541	C154	0.869570	0.480530	0.217570
C1551	C155	0.834590	0.490320	0.179970
H971	H97	0.844530	0.520670	0.153670
C1561	C156	0.785680	0.455150	0.181970
H981	H98	0.762830	0.462270	0.157270
C1571	C157	0.769210	0.408500	0.220570
C1581	C158	0.804720	0.400570	0.261070
H991	H99	0.794930	0.370770	0.289370
C1591	C159	0.854100	0.435970	0.259970
H1001	H100	0.876930	0.429870	0.287770
C1601	C160	0.716580	0.370110	0.218670
C1611	C161	0.702910	0.320210	0.218270
H1011	H101	0.727130	0.311470	0.217670
C1621	C162	0.077930	0.591970	0.100070
C1631	C163	0.131230	0.608720	0.083370
C1641	C164	0.144650	0.582440	0.025970
H1021	H102	0.120430	0.554670	0.997270
C1651	C165	0.193130	0.597170	0.011570
H1031	H103	0.201230	0.578570	0.974670
C1661	C166	0.230820	0.639600	0.050770
C1671	C167	0.217660	0.666650	0.105970
H1041	H104	0.242130	0.695270	0.132470
C1681	C168	0.168580	0.651600	0.122270
H1051	H105	0.160530	0.670170	0.159270
C1691	C169	0.283510	0.653600	0.041170
C1701	C170	0.320690	0.703190	0.040670
H1061	H106	0.312130	0.727570	0.040070
C1711	C171	0.961510	0.624150	0.984670
O331	O33	0.045210	0.557850	0.058370
O341	O34	0.069380	0.615430	0.159270
O351	O35	0.954040	0.515710	0.261270
O361	O36	0.935370	0.551290	0.153270
N411	N41	0.019030	0.695070	0.946470
N421	N42	0.973400	0.658880	0.923670
N431	N43	0.033900	0.682540	0.015970
N441	N44	0.920130	0.579970	0.984470
H1071	H107	0.899030	0.572470	0.942570
H1081	H108	0.914830	0.559270	0.026270
N451	N45	0.998070	0.637710	0.042970
Zn101	Zn10	0.939010	0.269270	0.513120
C1721	C172	0.851230	0.260690	0.454600
C1731	C173	0.813860	0.277620	0.449100
C1741	C174	0.823650	0.322390	0.486700
H1091	H109	0.854000	0.342800	0.513000
C1751	C175	0.788480	0.336130	0.484700
H1101	H110	0.795600	0.366100	0.509400
C1761	C176	0.741830	0.305950	0.446100
C1771	C177	0.733900	0.262510	0.405600
H1111	H111	0.704100	0.242500	0.377300
C1781	C178	0.769300	0.248530	0.406700
H1121	H112	0.763200	0.219600	0.378900
C1791	C179	0.703440	0.320190	0.448000
C1801	C180	0.653540	0.283960	0.448400
H1131	H113	0.644800	0.251000	0.449000
C1811	C181	0.925300	0.180700	0.566600
C1821	C182	0.942050	0.144150	0.583300
C1831	C183	0.915770	0.104450	0.640700
H1141	H114	0.888000	0.100900	0.669400
C1841	C184	0.930500	0.070700	0.655100
H1151	H115	0.911900	0.044000	0.692000
C1851	C185	0.972930	0.075440	0.615900
C1861	C186	0.999980	0.115650	0.560700
H1161	H116	0.028600	0.119800	0.534200
C1871	C187	0.984930	0.149680	0.544400
H1171	H117	0.003500	0.176300	0.507400
C1881	C188	0.986930	0.036750	0.625500
C1891	C189	0.036520	0.049160	0.626000
H1181	H118	0.060900	0.082100	0.626600
C1901	C190	0.957480	0.329300	0.682000
O371	O37	0.891180	0.179300	0.608300
O381	O38	0.948760	0.212710	0.507400
O391	O39	0.849040	0.228330	0.405400
O401	O40	0.884620	0.282580	0.513400
N461	N46	0.028400	0.342700	0.720200
N471	N47	0.992210	0.352140	0.743000
N481	N48	0.015870	0.315300	0.650700
N491	N49	0.913300	0.326500	0.682200
H1191	H119	0.905800	0.340100	0.724100
H1201	H120	0.892600	0.311100	0.640400
N501	N50	0.971040	0.306300	0.623700
Zn111	Zn11	0.605680	0.602600	0.846450
C1911	C191	0.517900	0.594020	0.787930
C1921	C192	0.480530	0.610950	0.782430
C1931	C193	0.490320	0.655720	0.820030
H1211	H121	0.520670	0.676130	0.846330
C1941	C194	0.455150	0.669460	0.818030
H1221	H122	0.462270	0.699430	0.842730
C1951	C195	0.408500	0.639280	0.779430
C1961	C196	0.400570	0.595840	0.738930
H1231	H123	0.370770	0.575830	0.710630
C1971	C197	0.435970	0.581860	0.740030
H1241	H124	0.429870	0.552930	0.712230
C1981	C198	0.370110	0.653520	0.781330
C1991	C199	0.320210	0.617290	0.781730
H1251	H125	0.311470	0.584330	0.782330
C2001	C200	0.591970	0.514030	0.899930
C2011	C201	0.608720	0.477480	0.916630
C2021	C202	0.582440	0.437780	0.974030
H1261	H126	0.554670	0.434230	0.002730
C2031	C203	0.597170	0.404030	0.988430
H1271	H127	0.578570	0.377330	0.025330
C2041	C204	0.639600	0.408770	0.949230
C2051	C205	0.666650	0.448980	0.894030
H1281	H128	0.695270	0.453130	0.867530
C2061	C206	0.651600	0.483010	0.877730
H1291	H129	0.670170	0.509630	0.840730
C2071	C207	0.653600	0.370080	0.958830
C2081	C208	0.703190	0.382490	0.959330
H1301	H130	0.727570	0.415430	0.959930
C2091	C209	0.624150	0.662630	0.015330
O411	O41	0.557850	0.512630	0.941630
O421	O42	0.615430	0.546040	0.840730
O431	O43	0.515710	0.561660	0.738730
O441	O44	0.551290	0.615910	0.846730
N511	N51	0.695070	0.676030	0.053530
N521	N52	0.658880	0.685470	0.076330
N531	N53	0.682540	0.648630	0.984030
N541	N54	0.579970	0.659830	0.015530
H1311	H131	0.572470	0.673430	0.057430
H1321	H132	0.559270	0.644430	0.973730
N551	N55	0.637710	0.639630	0.957030
Zn121	Zn12	0.272340	0.935940	0.179790
C2101	C210	0.184560	0.927360	0.121270
C2111	C211	0.147190	0.944290	0.115770
C2121	C212	0.156980	0.989060	0.153370
H1331	H133	0.187330	0.009470	0.179670
C2131	C213	0.121810	0.002800	0.151370
H1341	H134	0.128930	0.032770	0.176070
C2141	C214	0.075160	0.972620	0.112770
C2151	C215	0.067230	0.929180	0.072270
H1351	H135	0.037430	0.909170	0.043970
C2161	C216	0.102630	0.915200	0.073370
H1361	H136	0.096530	0.886270	0.045570
C2171	C217	0.036770	0.986860	0.114670
C2181	C218	0.986870	0.950630	0.115070
H1371	H137	0.978130	0.917670	0.115670
C2191	C219	0.258630	0.847370	0.233270
C2201	C220	0.275380	0.810820	0.249970
C2211	C221	0.249100	0.771120	0.307370
H1381	H138	0.221330	0.767570	0.336070
C2221	C222	0.263830	0.737370	0.321770
H1391	H139	0.245230	0.710670	0.358670
C2231	C223	0.306260	0.742110	0.282570
C2241	C224	0.333310	0.782320	0.227370
H1401	H140	0.361930	0.786470	0.200870
C2251	C225	0.318260	0.816350	0.211070
H1411	H141	0.336830	0.842970	0.174070
C2261	C226	0.320260	0.703420	0.292170
C2271	C227	0.369850	0.715830	0.292670
H1421	H142	0.394230	0.748770	0.293270
C2281	C228	0.290810	0.995970	0.348670
O451	O45	0.224510	0.845970	0.274970
O461	O46	0.282090	0.879380	0.174070
O471	O47	0.182370	0.895000	0.072070
O481	O48	0.217950	0.949250	0.180070
N561	N56	0.361730	0.009370	0.386870
N571	N57	0.325540	0.018810	0.409670
N581	N58	0.349200	0.981970	0.317370
N591	N59	0.246630	0.993170	0.348870
H1431	H143	0.239130	0.006770	0.390770
H1441	H144	0.225930	0.977770	0.307070
N601	N60	0.304370	0.972970	0.290370
Zn131	Zn13	0.730730	0.669740	0.513120
C2291	C229	0.739310	0.590540	0.454600
C2301	C230	0.722380	0.536240	0.449100
C2311	C231	0.677610	0.501260	0.486700
H1451	H145	0.657200	0.511200	0.513000
C2321	C232	0.663870	0.452350	0.484700
H1461	H146	0.633900	0.429500	0.509400
C2331	C233	0.694050	0.435880	0.446100
C2341	C234	0.737490	0.471390	0.405600
H1471	H147	0.757500	0.461600	0.377300
C2351	C235	0.751470	0.520770	0.406700
H1481	H148	0.780400	0.543600	0.378900
C2361	C236	0.679810	0.383250	0.448000
C2371	C237	0.716040	0.369580	0.448400
H1491	H149	0.749000	0.393800	0.449000
C2381	C238	0.819300	0.744600	0.566600
C2391	C239	0.855850	0.797900	0.583300
C2401	C240	0.895550	0.811320	0.640700
H1501	H150	0.899100	0.787100	0.669400
C2411	C241	0.929300	0.859800	0.655100
H1511	H151	0.956000	0.867900	0.692000
C2421	C242	0.924560	0.897490	0.615900
C2431	C243	0.884350	0.884330	0.560700
H1521	H152	0.880200	0.908800	0.534200
C2441	C244	0.850320	0.835250	0.544400
H1531	H153	0.823700	0.827200	0.507400
C2451	C245	0.963250	0.950180	0.625500
C2461	C246	0.950840	0.987360	0.626000
H1541	H154	0.917900	0.978800	0.626600
C2471	C247	0.670700	0.628180	0.682000
O491	O49	0.820700	0.711880	0.608300
O501	O50	0.787290	0.736050	0.507400
O511	O51	0.771670	0.620710	0.405400
O521	O52	0.717420	0.602040	0.513400
N611	N61	0.657300	0.685700	0.720200
N621	N62	0.647860	0.640070	0.743000
N631	N63	0.684700	0.700570	0.650700
N641	N64	0.673500	0.586800	0.682200
H1551	H155	0.659900	0.565700	0.724100
H1561	H156	0.688900	0.581500	0.640400
N651	N65	0.693700	0.664740	0.623700
Zn141	Zn14	0.397400	0.003070	0.846450
C2481	C248	0.405980	0.923870	0.787930
C2491	C249	0.389050	0.869570	0.782430
C2501	C250	0.344280	0.834590	0.820030
H1571	H157	0.323870	0.844530	0.846330
C2511	C251	0.330540	0.785680	0.818030
H1581	H158	0.300570	0.762830	0.842730
C2521	C252	0.360720	0.769210	0.779430
C2531	C253	0.404160	0.804720	0.738930
H1591	H159	0.424170	0.794930	0.710630
C2541	C254	0.418140	0.854100	0.740030
H1601	H160	0.447070	0.876930	0.712230
C2551	C255	0.346480	0.716580	0.781330
C2561	C256	0.382710	0.702910	0.781730
H1611	H161	0.415670	0.727130	0.782330
C2571	C257	0.485970	0.077930	0.899930
C2581	C258	0.522520	0.131230	0.916630
C2591	C259	0.562220	0.144650	0.974030
H1621	H162	0.565770	0.120430	0.002730
C2601	C260	0.595970	0.193130	0.988430
H1631	H163	0.622670	0.201230	0.025330
C2611	C261	0.591230	0.230820	0.949230
C2621	C262	0.551020	0.217660	0.894030
H1641	H164	0.546870	0.242130	0.867530
C2631	C263	0.516990	0.168580	0.877730
H1651	H165	0.490370	0.160530	0.840730
C2641	C264	0.629920	0.283510	0.958830
C2651	C265	0.617510	0.320690	0.959330
H1661	H166	0.584570	0.312130	0.959930
C2661	C266	0.337370	0.961510	0.015330
O531	O53	0.487370	0.045210	0.941630
O541	O54	0.453960	0.069380	0.840730
O551	O55	0.438340	0.954040	0.738730
O561	O56	0.384090	0.935370	0.846730
N661	N66	0.323970	0.019030	0.053530
N671	N67	0.314530	0.973400	0.076330
N681	N68	0.351370	0.033900	0.984030
N691	N69	0.340170	0.920130	0.015530
H1671	H167	0.326570	0.899030	0.057430
H1681	H168	0.355570	0.914830	0.973730
N701	N70	0.360370	0.998070	0.957030
Zn151	Zn15	0.064060	0.336410	0.179790
C2671	C267	0.072640	0.257210	0.121270
C2681	C268	0.055710	0.202910	0.115770
C2691	C269	0.010940	0.167930	0.153370
H1691	H169	0.990530	0.177870	0.179670
C2701	C270	0.997200	0.119020	0.151370
H1701	H170	0.967230	0.096170	0.176070
C2711	C271	0.027380	0.102550	0.112770
C2721	C272	0.070820	0.138060	0.072270
H1711	H171	0.090830	0.128270	0.043970
C2731	C273	0.084800	0.187440	0.073370
H1721	H172	0.113730	0.210270	0.045570
C2741	C274	0.013140	0.049920	0.114670
C2751	C275	0.049370	0.036250	0.115070
H1731	H173	0.082330	0.060470	0.115670
C2761	C276	0.152630	0.411270	0.233270
C2771	C277	0.189180	0.464570	0.249970
C2781	C278	0.228880	0.477990	0.307370
H1741	H174	0.232430	0.453770	0.336070
C2791	C279	0.262630	0.526470	0.321770
H1751	H175	0.289330	0.534570	0.358670
C2801	C280	0.257890	0.564160	0.282570
C2811	C281	0.217680	0.551000	0.227370
H1761	H176	0.213530	0.575470	0.200870
C2821	C282	0.183650	0.501920	0.211070
H1771	H177	0.157030	0.493870	0.174070
C2831	C283	0.296580	0.616850	0.292170
C2841	C284	0.284170	0.654030	0.292670
H1781	H178	0.251230	0.645470	0.293270
C2851	C285	0.004030	0.294850	0.348670
O571	O57	0.154030	0.378550	0.274970
O581	O58	0.120620	0.402720	0.174070
O591	O59	0.105000	0.287380	0.072070
O601	O60	0.050750	0.268710	0.180070
N711	N71	0.990630	0.352370	0.386870
N721	N72	0.981190	0.306740	0.409670
N731	N73	0.018030	0.367240	0.317370
N741	N74	0.006830	0.253470	0.348870
H1791	H179	0.993230	0.232370	0.390770
H1801	H180	0.022230	0.248170	0.307070
N751	N75	0.027030	0.331410	0.290370
Zn161	Zn16	0.330260	0.060990	0.513120
C2861	C286	0.409460	0.148770	0.454600
C2871	C287	0.463760	0.186140	0.449100
C2881	C288	0.498740	0.176350	0.486700
H1811	H181	0.488800	0.146000	0.513000
C2891	C289	0.547650	0.211520	0.484700
H1821	H182	0.570500	0.204400	0.509400
C2901	C290	0.564120	0.258170	0.446100
C2911	C291	0.528610	0.266100	0.405600
H1831	H183	0.538400	0.295900	0.377300
C2921	C292	0.479230	0.230700	0.406700
H1841	H184	0.456400	0.236800	0.378900
C2931	C293	0.616750	0.296560	0.448000
C2941	C294	0.630420	0.346460	0.448400
H1851	H185	0.606200	0.355200	0.449000
C2951	C295	0.255400	0.074700	0.566600
C2961	C296	0.202100	0.057950	0.583300
C2971	C297	0.188680	0.084230	0.640700
H1861	H186	0.212900	0.112000	0.669400
C2981	C298	0.140200	0.069500	0.655100
H1871	H187	0.132100	0.088100	0.692000
C2991	C299	0.102510	0.027070	0.615900
C3001	C300	0.115670	0.000020	0.560700
H1881	H188	0.091200	0.971400	0.534200
C3011	C301	0.164750	0.015070	0.544400
H1891	H189	0.172800	0.996500	0.507400
C3021	C302	0.049820	0.013070	0.625500
C3031	C303	0.012640	0.963480	0.626000
H1901	H190	0.021200	0.939100	0.626600
C3041	C304	0.371820	0.042520	0.682000
O611	O61	0.288120	0.108820	0.608300
O621	O62	0.263950	0.051240	0.507400
O631	O63	0.379290	0.150960	0.405400
O641	O64	0.397960	0.115380	0.513400
N761	N76	0.314300	0.971600	0.720200
N771	N77	0.359930	0.007790	0.743000
N781	N78	0.299430	0.984130	0.650700
N791	N79	0.413200	0.086700	0.682200
H1911	H191	0.434300	0.094200	0.724100
H1921	H192	0.418500	0.107400	0.640400
N801	N80	0.335260	0.028960	0.623700
Zn171	Zn17	0.996930	0.394320	0.846450
C3051	C305	0.076130	0.482100	0.787930
C3061	C306	0.130430	0.519470	0.782430
C3071	C307	0.165410	0.509680	0.820030
H1931	H193	0.155470	0.479330	0.846330
C3081	C308	0.214320	0.544850	0.818030
H1941	H194	0.237170	0.537730	0.842730
C3091	C309	0.230790	0.591500	0.779430
C3101	C310	0.195280	0.599430	0.738930
H1951	H195	0.205070	0.629230	0.710630
C3111	C311	0.145900	0.564030	0.740030
H1961	H196	0.123070	0.570130	0.712230
C3121	C312	0.283420	0.629890	0.781330
C3131	C313	0.297090	0.679790	0.781730
H1971	H197	0.272870	0.688530	0.782330
C3141	C314	0.922070	0.408030	0.899930
C3151	C315	0.868770	0.391280	0.916630
C3161	C316	0.855350	0.417560	0.974030
H1981	H198	0.879570	0.445330	0.002730
C3171	C317	0.806870	0.402830	0.988430
H1991	H199	0.798770	0.421430	0.025330
C3181	C318	0.769180	0.360400	0.949230
C3191	C319	0.782340	0.333350	0.894030
H2001	H200	0.757870	0.304730	0.867530
C3201	C320	0.831420	0.348400	0.877730
H2011	H201	0.839470	0.329830	0.840730
C3211	C321	0.716490	0.346400	0.958830
C3221	C322	0.679310	0.296810	0.959330
H2021	H202	0.687870	0.272430	0.959930
C3231	C323	0.038490	0.375850	0.015330
O651	O65	0.954790	0.442150	0.941630
O661	O66	0.930620	0.384570	0.840730
O671	O67	0.045960	0.484290	0.738730
O681	O68	0.064630	0.448710	0.846730
N811	N81	0.980970	0.304930	0.053530
N821	N82	0.026600	0.341120	0.076330
N831	N83	0.966100	0.317460	0.984030
N841	N84	0.079870	0.420030	0.015530
H2031	H203	0.100970	0.427530	0.057430
H2041	H204	0.085170	0.440730	0.973730
N851	N85	0.001930	0.362290	0.957030
Zn181	Zn18	0.663590	0.727660	0.179790
C3241	C324	0.742790	0.815440	0.121270
C3251	C325	0.797090	0.852810	0.115770
C3261	C326	0.832070	0.843020	0.153370
H2051	H205	0.822130	0.812670	0.179670
C3271	C327	0.880980	0.878190	0.151370
H2061	H206	0.903830	0.871070	0.176070
C3281	C328	0.897450	0.924840	0.112770
C3291	C329	0.861940	0.932770	0.072270
H2071	H207	0.871730	0.962570	0.043970
C3301	C330	0.812560	0.897370	0.073370
H2081	H208	0.789730	0.903470	0.045570
C3311	C331	0.950080	0.963230	0.114670
C3321	C332	0.963750	0.013130	0.115070
H2091	H209	0.939530	0.021870	0.115670
C3331	C333	0.588730	0.741370	0.233270
C3341	C334	0.535430	0.724620	0.249970
C3351	C335	0.522010	0.750900	0.307370
H2101	H210	0.546230	0.778670	0.336070
C3361	C336	0.473530	0.736170	0.321770
H2111	H211	0.465430	0.754770	0.358670
C3371	C337	0.435840	0.693740	0.282570
C3381	C338	0.449000	0.666690	0.227370
H2121	H212	0.424530	0.638070	0.200870
C3391	C339	0.498080	0.681740	0.211070
H2131	H213	0.506130	0.663170	0.174070
C3401	C340	0.383150	0.679740	0.292170
C3411	C341	0.345970	0.630150	0.292670
H2141	H214	0.354530	0.605770	0.293270
C3421	C342	0.705150	0.709190	0.348670
O691	O69	0.621450	0.775490	0.274970
O701	O70	0.597280	0.717910	0.174070
O711	O71	0.712620	0.817630	0.072070
O721	O72	0.731290	0.782050	0.180070
N861	N86	0.647630	0.638270	0.386870
N871	N87	0.693260	0.674460	0.409670
N881	N88	0.632760	0.650800	0.317370
N891	N89	0.746530	0.753370	0.348870
H2151	H215	0.767630	0.760870	0.390770
H2161	H216	0.751830	0.774070	0.307070
N901	N90	0.668590	0.695630	0.290370
