data_LAFFEG_clean_PM
_symmetry_space_group_name_H-M	'P1'
_cell_length_a	31.383700
_cell_length_b	31.383700
_cell_length_c	15.041100
_cell_angle_alpha	90.000000
_cell_angle_beta	90.000000
_cell_angle_gamma	120.000000
_symmetry_Int_Tables_number 1

loop_
_symmetry_equiv_pos_as_xyz
'x,y,z'

loop_
_atom_site_label
_atom_site_type_symbol
_atom_site_fract_x
_atom_site_fract_y
_atom_site_fract_z
Zn11	Zn1	0.061260	0.730990	0.486730
C11	C1	0.148640	0.739020	0.545800
C21	C2	0.186000	0.722250	0.551500
C31	C3	0.176170	0.677750	0.514200
H11	H1	0.145800	0.657400	0.487900
C41	C4	0.211490	0.663670	0.516000
H21	H2	0.204300	0.633500	0.491700
C51	C5	0.258090	0.694000	0.553920
C61	C6	0.266040	0.737280	0.594700
H31	H3	0.295900	0.757200	0.623100
C71	C7	0.230840	0.751270	0.593900
H41	H4	0.237100	0.780300	0.621900
C81	C8	0.296460	0.680010	0.551900
C91	C9	0.346200	0.715950	0.551460
H51	H5	0.354900	0.749000	0.550900
C101	C10	0.075030	0.819840	0.433200
C111	C11	0.058050	0.855830	0.416300
C121	C12	0.084470	0.895700	0.359200
H61	H6	0.112400	0.899400	0.330700
C131	C13	0.069520	0.929600	0.344700
H71	H7	0.088100	0.956300	0.307700
C141	C14	0.027340	0.924750	0.384190
C151	C15	0.000080	0.884130	0.439200
H81	H8	0.971200	0.879500	0.465100
C161	C16	0.015600	0.850740	0.455500
H91	H9	0.997300	0.824300	0.493300
C171	C17	0.012940	0.963150	0.374370
C181	C18	0.963520	0.950860	0.373810
H101	H10	0.939100	0.917900	0.373100
C191	C19	0.042980	0.671230	0.317200
O11	O1	0.109010	0.820860	0.391200
O21	O2	0.051840	0.787540	0.493100
O31	O3	0.151060	0.771660	0.595550
O41	O4	0.115390	0.717450	0.487040
N11	N1	0.971830	0.657410	0.279100
N21	N2	0.007990	0.648080	0.256750
N31	N3	0.984280	0.684800	0.349100
N41	N4	0.087060	0.673650	0.317300
H111	H11	0.094300	0.659500	0.275900
H121	H12	0.107900	0.689400	0.358800
N51	N5	0.029200	0.694040	0.375880
Zn21	Zn2	0.727930	0.064330	0.820060
C201	C20	0.815310	0.072350	0.879130
C211	C21	0.852670	0.055580	0.884830
C221	C22	0.842840	0.011080	0.847530
H131	H13	0.812470	0.990730	0.821230
C231	C23	0.878160	0.997000	0.849330
H141	H14	0.870970	0.966830	0.825030
C241	C24	0.924760	0.027330	0.887250
C251	C25	0.932710	0.070610	0.928030
H151	H15	0.962570	0.090530	0.956430
C261	C26	0.897510	0.084600	0.927230
H161	H16	0.903770	0.113630	0.955230
C271	C27	0.963130	0.013340	0.885230
C281	C28	0.012870	0.049280	0.884790
H171	H17	0.021570	0.082330	0.884230
C291	C29	0.741700	0.153170	0.766530
C301	C30	0.724720	0.189160	0.749630
C311	C31	0.751140	0.229030	0.692530
H181	H18	0.779070	0.232730	0.664030
C321	C32	0.736190	0.262930	0.678030
H191	H19	0.754770	0.289630	0.641030
C331	C33	0.694010	0.258080	0.717520
C341	C34	0.666750	0.217460	0.772530
H201	H20	0.637870	0.212830	0.798430
C351	C35	0.682270	0.184070	0.788830
H211	H21	0.663970	0.157630	0.826630
C361	C36	0.679610	0.296480	0.707700
C371	C37	0.630190	0.284190	0.707140
H221	H22	0.605770	0.251230	0.706430
C381	C38	0.709650	0.004560	0.650530
O51	O5	0.775680	0.154190	0.724530
O61	O6	0.718510	0.120870	0.826430
O71	O7	0.817730	0.104990	0.928880
O81	O8	0.782060	0.050780	0.820370
N61	N6	0.638500	0.990740	0.612430
N71	N7	0.674660	0.981410	0.590080
N81	N8	0.650950	0.018130	0.682430
N91	N9	0.753730	0.006980	0.650630
H231	H23	0.760970	0.992830	0.609230
H241	H24	0.774570	0.022730	0.692130
N101	N10	0.695870	0.027370	0.709210
Zn31	Zn3	0.394600	0.397660	0.153400
C391	C39	0.481970	0.405690	0.212470
C401	C40	0.519330	0.388920	0.218170
C411	C41	0.509500	0.344420	0.180870
H251	H25	0.479130	0.324070	0.154570
C421	C42	0.544820	0.330340	0.182670
H261	H26	0.537630	0.300170	0.158370
C431	C43	0.591420	0.360670	0.220590
C441	C44	0.599370	0.403950	0.261370
H271	H27	0.629230	0.423870	0.289770
C451	C45	0.564170	0.417940	0.260570
H281	H28	0.570430	0.446970	0.288570
C461	C46	0.629790	0.346680	0.218570
C471	C47	0.679530	0.382620	0.218130
H291	H29	0.688230	0.415670	0.217570
C481	C48	0.408360	0.486510	0.099870
C491	C49	0.391380	0.522500	0.082970
C501	C50	0.417800	0.562370	0.025870
H301	H30	0.445730	0.566070	0.997370
C511	C51	0.402850	0.596270	0.011370
H311	H31	0.421430	0.622970	0.974370
C521	C52	0.360670	0.591420	0.050860
C531	C53	0.333410	0.550800	0.105870
H321	H32	0.304530	0.546170	0.131770
C541	C54	0.348930	0.517410	0.122170
H331	H33	0.330630	0.490970	0.159970
C551	C55	0.346270	0.629820	0.041040
C561	C56	0.296850	0.617530	0.040480
H341	H34	0.272430	0.584570	0.039770
C571	C57	0.376310	0.337900	0.983870
O91	O9	0.442340	0.487530	0.057870
O101	O10	0.385170	0.454210	0.159770
O111	O11	0.484390	0.438330	0.262220
O121	O12	0.448720	0.384120	0.153710
N111	N11	0.305160	0.324080	0.945770
N121	N12	0.341320	0.314750	0.923420
N131	N13	0.317610	0.351470	0.015770
N141	N14	0.420390	0.340320	0.983970
H351	H35	0.427630	0.326170	0.942570
H361	H36	0.441230	0.356070	0.025470
N151	N15	0.362530	0.360710	0.042550
Zn41	Zn4	0.269010	0.330270	0.486730
C581	C58	0.260980	0.409620	0.545800
C591	C59	0.277750	0.463750	0.551500
C601	C60	0.322250	0.498420	0.514200
H371	H37	0.342600	0.488400	0.487900
C611	C61	0.336330	0.547820	0.516000
H381	H38	0.366500	0.570800	0.491700
C621	C62	0.306000	0.564090	0.553920
C631	C63	0.262720	0.528760	0.594700
H391	H39	0.242800	0.538700	0.623100
C641	C64	0.248730	0.479570	0.593900
H401	H40	0.219700	0.456800	0.621900
C651	C65	0.319990	0.616450	0.551900
C661	C66	0.284050	0.630250	0.551460
H411	H41	0.251000	0.605900	0.550900
C671	C67	0.180160	0.255190	0.433200
C681	C68	0.144170	0.202220	0.416300
C691	C69	0.104300	0.188770	0.359200
H421	H42	0.100600	0.213000	0.330700
C701	C70	0.070400	0.139920	0.344700
H431	H43	0.043700	0.131800	0.307700
C711	C71	0.075250	0.102590	0.384190
C721	C72	0.115870	0.115950	0.439200
H441	H44	0.120500	0.091700	0.465100
C731	C73	0.149260	0.164860	0.455500
H451	H45	0.175700	0.173000	0.493300
C741	C74	0.036850	0.049790	0.374370
C751	C75	0.049140	0.012660	0.373810
H461	H46	0.082100	0.021200	0.373100
C761	C76	0.328770	0.371750	0.317200
O131	O13	0.179140	0.288150	0.391200
O141	O14	0.212460	0.264300	0.493100
O151	O15	0.228340	0.379400	0.595550
O161	O16	0.282550	0.397940	0.487040
N161	N16	0.342590	0.314420	0.279100
N171	N17	0.351920	0.359910	0.256750
N181	N18	0.315200	0.299480	0.349100
N191	N19	0.326350	0.413410	0.317300
H471	H47	0.340500	0.434800	0.275900
H481	H48	0.310600	0.418500	0.358800
N201	N20	0.305960	0.335160	0.375880
Zn51	Zn5	0.935670	0.663610	0.820060
C771	C77	0.927650	0.742950	0.879130
C781	C78	0.944420	0.797080	0.884830
C791	C79	0.988920	0.831750	0.847530
H491	H49	0.009270	0.821730	0.821230
C801	C80	0.003000	0.881150	0.849330
H501	H50	0.033170	0.904130	0.825030
C811	C81	0.972670	0.897420	0.887250
C821	C82	0.929390	0.862090	0.928030
H511	H51	0.909470	0.872030	0.956430
C831	C83	0.915400	0.812900	0.927230
H521	H52	0.886370	0.790130	0.955230
C841	C84	0.986660	0.949780	0.885230
C851	C85	0.950720	0.963580	0.884790
H531	H53	0.917670	0.939230	0.884230
C861	C86	0.846830	0.588520	0.766530
C871	C87	0.810840	0.535550	0.749630
C881	C88	0.770970	0.522100	0.692530
H541	H54	0.767270	0.546330	0.664030
C891	C89	0.737070	0.473250	0.678030
H551	H55	0.710370	0.465130	0.641030
C901	C90	0.741920	0.435920	0.717520
C911	C91	0.782540	0.449280	0.772530
H561	H56	0.787170	0.425030	0.798430
C921	C92	0.815930	0.498190	0.788830
H571	H57	0.842370	0.506330	0.826630
C931	C93	0.703520	0.383120	0.707700
C941	C94	0.715810	0.345990	0.707140
H581	H58	0.748770	0.354530	0.706430
C951	C95	0.995440	0.705080	0.650530
O171	O17	0.845810	0.621480	0.724530
O181	O18	0.879130	0.597630	0.826430
O191	O19	0.895010	0.712730	0.928880
O201	O20	0.949220	0.731270	0.820370
N211	N21	0.009260	0.647750	0.612430
N221	N22	0.018590	0.693240	0.590080
N231	N23	0.981870	0.632810	0.682430
N241	N24	0.993020	0.746740	0.650630
H591	H59	0.007170	0.768130	0.609230
H601	H60	0.977270	0.751830	0.692130
N251	N25	0.972630	0.668490	0.709210
Zn61	Zn6	0.602340	0.996940	0.153400
C961	C96	0.594310	0.076290	0.212470
C971	C97	0.611080	0.130420	0.218170
C981	C98	0.655580	0.165090	0.180870
H611	H61	0.675930	0.155070	0.154570
C991	C99	0.669660	0.214490	0.182670
H621	H62	0.699830	0.237470	0.158370
C1001	C100	0.639330	0.230760	0.220590
C1011	C101	0.596050	0.195430	0.261370
H631	H63	0.576130	0.205370	0.289770
C1021	C102	0.582060	0.146240	0.260570
H641	H64	0.553030	0.123470	0.288570
C1031	C103	0.653320	0.283120	0.218570
C1041	C104	0.617380	0.296920	0.218130
H651	H65	0.584330	0.272570	0.217570
C1051	C105	0.513490	0.921860	0.099870
C1061	C106	0.477500	0.868890	0.082970
C1071	C107	0.437630	0.855440	0.025870
H661	H66	0.433930	0.879670	0.997370
C1081	C108	0.403730	0.806590	0.011370
H671	H67	0.377030	0.798470	0.974370
C1091	C109	0.408580	0.769260	0.050860
C1101	C110	0.449200	0.782620	0.105870
H681	H68	0.453830	0.758370	0.131770
C1111	C111	0.482590	0.831530	0.122170
H691	H69	0.509030	0.839670	0.159970
C1121	C112	0.370180	0.716460	0.041040
C1131	C113	0.382470	0.679330	0.040480
H701	H70	0.415430	0.687870	0.039770
C1141	C114	0.662100	0.038420	0.983870
O211	O21	0.512470	0.954820	0.057870
O221	O22	0.545790	0.930970	0.159770
O231	O23	0.561670	0.046070	0.262220
O241	O24	0.615880	0.064610	0.153710
N261	N26	0.675920	0.981090	0.945770
N271	N27	0.685250	0.026580	0.923420
N281	N28	0.648530	0.966150	0.015770
N291	N29	0.659680	0.080080	0.983970
H711	H71	0.673830	0.101470	0.942570
H721	H72	0.643930	0.085170	0.025470
N301	N30	0.639290	0.001830	0.042550
Zn71	Zn7	0.669730	0.938740	0.486730
C1151	C115	0.590380	0.851360	0.545800
C1161	C116	0.536250	0.814000	0.551500
C1171	C117	0.501580	0.823830	0.514200
H731	H73	0.511600	0.854200	0.487900
C1181	C118	0.452180	0.788510	0.516000
H741	H74	0.429200	0.795700	0.491700
C1191	C119	0.435910	0.741910	0.553920
C1201	C120	0.471240	0.733960	0.594700
H751	H75	0.461300	0.704100	0.623100
C1211	C121	0.520430	0.769160	0.593900
H761	H76	0.543200	0.762900	0.621900
C1221	C122	0.383550	0.703540	0.551900
C1231	C123	0.369750	0.653800	0.551460
H771	H77	0.394100	0.645100	0.550900
C1241	C124	0.744810	0.924970	0.433200
C1251	C125	0.797780	0.941950	0.416300
C1261	C126	0.811230	0.915530	0.359200
H781	H78	0.787000	0.887600	0.330700
C1271	C127	0.860080	0.930480	0.344700
H791	H79	0.868200	0.911900	0.307700
C1281	C128	0.897410	0.972660	0.384190
C1291	C129	0.884050	0.999920	0.439200
H801	H80	0.908300	0.028800	0.465100
C1301	C130	0.835140	0.984400	0.455500
H811	H81	0.827000	0.002700	0.493300
C1311	C131	0.950210	0.987060	0.374370
C1321	C132	0.987340	0.036480	0.373810
H821	H82	0.978800	0.060900	0.373100
C1331	C133	0.628250	0.957020	0.317200
O251	O25	0.711850	0.890990	0.391200
O261	O26	0.735700	0.948160	0.493100
O271	O27	0.620600	0.848940	0.595550
O281	O28	0.602060	0.884610	0.487040
N311	N31	0.685580	0.028170	0.279100
N321	N32	0.640090	0.992010	0.256750
N331	N33	0.700520	0.015720	0.349100
N341	N34	0.586590	0.912940	0.317300
H831	H83	0.565200	0.905700	0.275900
H841	H84	0.581500	0.892100	0.358800
N351	N35	0.664840	0.970800	0.375880
Zn81	Zn8	0.336390	0.272070	0.820060
C1341	C134	0.257050	0.184690	0.879130
C1351	C135	0.202920	0.147330	0.884830
C1361	C136	0.168250	0.157160	0.847530
H851	H85	0.178270	0.187530	0.821230
C1371	C137	0.118850	0.121840	0.849330
H861	H86	0.095870	0.129030	0.825030
C1381	C138	0.102580	0.075240	0.887250
C1391	C139	0.137910	0.067290	0.928030
H871	H87	0.127970	0.037430	0.956430
C1401	C140	0.187100	0.102490	0.927230
H881	H88	0.209870	0.096230	0.955230
C1411	C141	0.050220	0.036870	0.885230
C1421	C142	0.036420	0.987130	0.884790
H891	H89	0.060770	0.978430	0.884230
C1431	C143	0.411480	0.258300	0.766530
C1441	C144	0.464450	0.275280	0.749630
C1451	C145	0.477900	0.248860	0.692530
H901	H90	0.453670	0.220930	0.664030
C1461	C146	0.526750	0.263810	0.678030
H911	H91	0.534870	0.245230	0.641030
C1471	C147	0.564080	0.305990	0.717520
C1481	C148	0.550720	0.333250	0.772530
H921	H92	0.574970	0.362130	0.798430
C1491	C149	0.501810	0.317730	0.788830
H931	H93	0.493670	0.336030	0.826630
C1501	C150	0.616880	0.320390	0.707700
C1511	C151	0.654010	0.369810	0.707140
H941	H94	0.645470	0.394230	0.706430
C1521	C152	0.294920	0.290350	0.650530
O291	O29	0.378520	0.224320	0.724530
O301	O30	0.402370	0.281490	0.826430
O311	O31	0.287270	0.182270	0.928880
O321	O32	0.268730	0.217940	0.820370
N361	N36	0.352250	0.361500	0.612430
N371	N37	0.306760	0.325340	0.590080
N381	N38	0.367190	0.349050	0.682430
N391	N39	0.253260	0.246270	0.650630
H951	H95	0.231870	0.239030	0.609230
H961	H96	0.248170	0.225430	0.692130
N401	N40	0.331510	0.304130	0.709210
Zn91	Zn9	0.003060	0.605400	0.153400
C1531	C153	0.923710	0.518030	0.212470
C1541	C154	0.869580	0.480670	0.218170
C1551	C155	0.834910	0.490500	0.180870
H971	H97	0.844930	0.520870	0.154570
C1561	C156	0.785510	0.455180	0.182670
H981	H98	0.762530	0.462370	0.158370
C1571	C157	0.769240	0.408580	0.220590
C1581	C158	0.804570	0.400630	0.261370
H991	H99	0.794630	0.370770	0.289770
C1591	C159	0.853760	0.435830	0.260570
H1001	H100	0.876530	0.429570	0.288570
C1601	C160	0.716880	0.370210	0.218570
C1611	C161	0.703080	0.320470	0.218130
H1011	H101	0.727430	0.311770	0.217570
C1621	C162	0.078140	0.591640	0.099870
C1631	C163	0.131110	0.608620	0.082970
C1641	C164	0.144560	0.582200	0.025870
H1021	H102	0.120330	0.554270	0.997370
C1651	C165	0.193410	0.597150	0.011370
H1031	H103	0.201530	0.578570	0.974370
C1661	C166	0.230740	0.639330	0.050860
C1671	C167	0.217380	0.666590	0.105870
H1041	H104	0.241630	0.695470	0.131770
C1681	C168	0.168470	0.651070	0.122170
H1051	H105	0.160330	0.669370	0.159970
C1691	C169	0.283540	0.653730	0.041040
C1701	C170	0.320670	0.703150	0.040480
H1061	H106	0.312130	0.727570	0.039770
C1711	C171	0.961580	0.623690	0.983870
O331	O33	0.045180	0.557660	0.057870
O341	O34	0.069030	0.614830	0.159770
O351	O35	0.953930	0.515610	0.262220
O361	O36	0.935390	0.551280	0.153710
N411	N41	0.018910	0.694840	0.945770
N421	N42	0.973420	0.658680	0.923420
N431	N43	0.033850	0.682390	0.015770
N441	N44	0.919920	0.579610	0.983970
H1071	H107	0.898530	0.572370	0.942570
H1081	H108	0.914830	0.558770	0.025470
N451	N45	0.998170	0.637470	0.042550
Zn101	Zn10	0.938740	0.269010	0.513270
C1721	C172	0.851360	0.260980	0.454200
C1731	C173	0.814000	0.277750	0.448500
C1741	C174	0.823830	0.322250	0.485800
H1091	H109	0.854200	0.342600	0.512100
C1751	C175	0.788510	0.336330	0.484000
H1101	H110	0.795700	0.366500	0.508300
C1761	C176	0.741910	0.306000	0.446080
C1771	C177	0.733960	0.262720	0.405300
H1111	H111	0.704100	0.242800	0.376900
C1781	C178	0.769160	0.248730	0.406100
H1121	H112	0.762900	0.219700	0.378100
C1791	C179	0.703540	0.319990	0.448100
C1801	C180	0.653800	0.284050	0.448540
H1131	H113	0.645100	0.251000	0.449100
C1811	C181	0.924970	0.180160	0.566800
C1821	C182	0.941950	0.144170	0.583700
C1831	C183	0.915530	0.104300	0.640800
H1141	H114	0.887600	0.100600	0.669300
C1841	C184	0.930480	0.070400	0.655300
H1151	H115	0.911900	0.043700	0.692300
C1851	C185	0.972660	0.075250	0.615810
C1861	C186	0.999920	0.115870	0.560800
H1161	H116	0.028800	0.120500	0.534900
C1871	C187	0.984400	0.149260	0.544500
H1171	H117	0.002700	0.175700	0.506700
C1881	C188	0.987060	0.036850	0.625630
C1891	C189	0.036480	0.049140	0.626190
H1181	H118	0.060900	0.082100	0.626900
C1901	C190	0.957020	0.328770	0.682800
O371	O37	0.890990	0.179140	0.608800
O381	O38	0.948160	0.212460	0.506900
O391	O39	0.848940	0.228340	0.404450
O401	O40	0.884610	0.282550	0.512960
N461	N46	0.028170	0.342590	0.720900
N471	N47	0.992010	0.351920	0.743250
N481	N48	0.015720	0.315200	0.650900
N491	N49	0.912940	0.326350	0.682700
H1191	H119	0.905700	0.340500	0.724100
H1201	H120	0.892100	0.310600	0.641200
N501	N50	0.970800	0.305960	0.624120
Zn111	Zn11	0.605400	0.602340	0.846600
C1911	C191	0.518030	0.594310	0.787530
C1921	C192	0.480670	0.611080	0.781830
C1931	C193	0.490500	0.655580	0.819130
H1211	H121	0.520870	0.675930	0.845430
C1941	C194	0.455180	0.669660	0.817330
H1221	H122	0.462370	0.699830	0.841630
C1951	C195	0.408580	0.639330	0.779410
C1961	C196	0.400630	0.596050	0.738630
H1231	H123	0.370770	0.576130	0.710230
C1971	C197	0.435830	0.582060	0.739430
H1241	H124	0.429570	0.553030	0.711430
C1981	C198	0.370210	0.653320	0.781430
C1991	C199	0.320470	0.617380	0.781870
H1251	H125	0.311770	0.584330	0.782430
C2001	C200	0.591640	0.513490	0.900130
C2011	C201	0.608620	0.477500	0.917030
C2021	C202	0.582200	0.437630	0.974130
H1261	H126	0.554270	0.433930	0.002630
C2031	C203	0.597150	0.403730	0.988630
H1271	H127	0.578570	0.377030	0.025630
C2041	C204	0.639330	0.408580	0.949140
C2051	C205	0.666590	0.449200	0.894130
H1281	H128	0.695470	0.453830	0.868230
C2061	C206	0.651070	0.482590	0.877830
H1291	H129	0.669370	0.509030	0.840030
C2071	C207	0.653730	0.370180	0.958960
C2081	C208	0.703150	0.382470	0.959520
H1301	H130	0.727570	0.415430	0.960230
C2091	C209	0.623690	0.662100	0.016130
O411	O41	0.557660	0.512470	0.942130
O421	O42	0.614830	0.545790	0.840230
O431	O43	0.515610	0.561670	0.737780
O441	O44	0.551280	0.615880	0.846290
N511	N51	0.694840	0.675920	0.054230
N521	N52	0.658680	0.685250	0.076580
N531	N53	0.682390	0.648530	0.984230
N541	N54	0.579610	0.659680	0.016030
H1311	H131	0.572370	0.673830	0.057430
H1321	H132	0.558770	0.643930	0.974530
N551	N55	0.637470	0.639290	0.957450
Zn121	Zn12	0.272070	0.935670	0.179940
C2101	C210	0.184690	0.927650	0.120870
C2111	C211	0.147330	0.944420	0.115170
C2121	C212	0.157160	0.988920	0.152470
H1331	H133	0.187530	0.009270	0.178770
C2131	C213	0.121840	0.003000	0.150670
H1341	H134	0.129030	0.033170	0.174970
C2141	C214	0.075240	0.972670	0.112750
C2151	C215	0.067290	0.929390	0.071970
H1351	H135	0.037430	0.909470	0.043570
C2161	C216	0.102490	0.915400	0.072770
H1361	H136	0.096230	0.886370	0.044770
C2171	C217	0.036870	0.986660	0.114770
C2181	C218	0.987130	0.950720	0.115210
H1371	H137	0.978430	0.917670	0.115770
C2191	C219	0.258300	0.846830	0.233470
C2201	C220	0.275280	0.810840	0.250370
C2211	C221	0.248860	0.770970	0.307470
H1381	H138	0.220930	0.767270	0.335970
C2221	C222	0.263810	0.737070	0.321970
H1391	H139	0.245230	0.710370	0.358970
C2231	C223	0.305990	0.741920	0.282480
C2241	C224	0.333250	0.782540	0.227470
H1401	H140	0.362130	0.787170	0.201570
C2251	C225	0.317730	0.815930	0.211170
H1411	H141	0.336030	0.842370	0.173370
C2261	C226	0.320390	0.703520	0.292300
C2271	C227	0.369810	0.715810	0.292860
H1421	H142	0.394230	0.748770	0.293570
C2281	C228	0.290350	0.995440	0.349470
O451	O45	0.224320	0.845810	0.275470
O461	O46	0.281490	0.879130	0.173570
O471	O47	0.182270	0.895010	0.071120
O481	O48	0.217940	0.949220	0.179630
N561	N56	0.361500	0.009260	0.387570
N571	N57	0.325340	0.018590	0.409920
N581	N58	0.349050	0.981870	0.317570
N591	N59	0.246270	0.993020	0.349370
H1431	H143	0.239030	0.007170	0.390770
H1441	H144	0.225430	0.977270	0.307870
N601	N60	0.304130	0.972630	0.290790
Zn131	Zn13	0.730990	0.669730	0.513270
C2291	C229	0.739020	0.590380	0.454200
C2301	C230	0.722250	0.536250	0.448500
C2311	C231	0.677750	0.501580	0.485800
H1451	H145	0.657400	0.511600	0.512100
C2321	C232	0.663670	0.452180	0.484000
H1461	H146	0.633500	0.429200	0.508300
C2331	C233	0.694000	0.435910	0.446080
C2341	C234	0.737280	0.471240	0.405300
H1471	H147	0.757200	0.461300	0.376900
C2351	C235	0.751270	0.520430	0.406100
H1481	H148	0.780300	0.543200	0.378100
C2361	C236	0.680010	0.383550	0.448100
C2371	C237	0.715950	0.369750	0.448540
H1491	H149	0.749000	0.394100	0.449100
C2381	C238	0.819840	0.744810	0.566800
C2391	C239	0.855830	0.797780	0.583700
C2401	C240	0.895700	0.811230	0.640800
H1501	H150	0.899400	0.787000	0.669300
C2411	C241	0.929600	0.860080	0.655300
H1511	H151	0.956300	0.868200	0.692300
C2421	C242	0.924750	0.897410	0.615810
C2431	C243	0.884130	0.884050	0.560800
H1521	H152	0.879500	0.908300	0.534900
C2441	C244	0.850740	0.835140	0.544500
H1531	H153	0.824300	0.827000	0.506700
C2451	C245	0.963150	0.950210	0.625630
C2461	C246	0.950860	0.987340	0.626190
H1541	H154	0.917900	0.978800	0.626900
C2471	C247	0.671230	0.628250	0.682800
O491	O49	0.820860	0.711850	0.608800
O501	O50	0.787540	0.735700	0.506900
O511	O51	0.771660	0.620600	0.404450
O521	O52	0.717450	0.602060	0.512960
N611	N61	0.657410	0.685580	0.720900
N621	N62	0.648080	0.640090	0.743250
N631	N63	0.684800	0.700520	0.650900
N641	N64	0.673650	0.586590	0.682700
H1551	H155	0.659500	0.565200	0.724100
H1561	H156	0.689400	0.581500	0.641200
N651	N65	0.694040	0.664840	0.624120
Zn141	Zn14	0.397660	0.003060	0.846600
C2481	C248	0.405690	0.923710	0.787530
C2491	C249	0.388920	0.869580	0.781830
C2501	C250	0.344420	0.834910	0.819130
H1571	H157	0.324070	0.844930	0.845430
C2511	C251	0.330340	0.785510	0.817330
H1581	H158	0.300170	0.762530	0.841630
C2521	C252	0.360670	0.769240	0.779410
C2531	C253	0.403950	0.804570	0.738630
H1591	H159	0.423870	0.794630	0.710230
C2541	C254	0.417940	0.853760	0.739430
H1601	H160	0.446970	0.876530	0.711430
C2551	C255	0.346680	0.716880	0.781430
C2561	C256	0.382620	0.703080	0.781870
H1611	H161	0.415670	0.727430	0.782430
C2571	C257	0.486510	0.078140	0.900130
C2581	C258	0.522500	0.131110	0.917030
C2591	C259	0.562370	0.144560	0.974130
H1621	H162	0.566070	0.120330	0.002630
C2601	C260	0.596270	0.193410	0.988630
H1631	H163	0.622970	0.201530	0.025630
C2611	C261	0.591420	0.230740	0.949140
C2621	C262	0.550800	0.217380	0.894130
H1641	H164	0.546170	0.241630	0.868230
C2631	C263	0.517410	0.168470	0.877830
H1651	H165	0.490970	0.160330	0.840030
C2641	C264	0.629820	0.283540	0.958960
C2651	C265	0.617530	0.320670	0.959520
H1661	H166	0.584570	0.312130	0.960230
C2661	C266	0.337900	0.961580	0.016130
O531	O53	0.487530	0.045180	0.942130
O541	O54	0.454210	0.069030	0.840230
O551	O55	0.438330	0.953930	0.737780
O561	O56	0.384120	0.935390	0.846290
N661	N66	0.324080	0.018910	0.054230
N671	N67	0.314750	0.973420	0.076580
N681	N68	0.351470	0.033850	0.984230
N691	N69	0.340320	0.919920	0.016030
H1671	H167	0.326170	0.898530	0.057430
H1681	H168	0.356070	0.914830	0.974530
N701	N70	0.360710	0.998170	0.957450
Zn151	Zn15	0.064330	0.336390	0.179940
C2671	C267	0.072350	0.257050	0.120870
C2681	C268	0.055580	0.202920	0.115170
C2691	C269	0.011080	0.168250	0.152470
H1691	H169	0.990730	0.178270	0.178770
C2701	C270	0.997000	0.118850	0.150670
H1701	H170	0.966830	0.095870	0.174970
C2711	C271	0.027330	0.102580	0.112750
C2721	C272	0.070610	0.137910	0.071970
H1711	H171	0.090530	0.127970	0.043570
C2731	C273	0.084600	0.187100	0.072770
H1721	H172	0.113630	0.209870	0.044770
C2741	C274	0.013340	0.050220	0.114770
C2751	C275	0.049280	0.036420	0.115210
H1731	H173	0.082330	0.060770	0.115770
C2761	C276	0.153170	0.411480	0.233470
C2771	C277	0.189160	0.464450	0.250370
C2781	C278	0.229030	0.477900	0.307470
H1741	H174	0.232730	0.453670	0.335970
C2791	C279	0.262930	0.526750	0.321970
H1751	H175	0.289630	0.534870	0.358970
C2801	C280	0.258080	0.564080	0.282480
C2811	C281	0.217460	0.550720	0.227470
H1761	H176	0.212830	0.574970	0.201570
C2821	C282	0.184070	0.501810	0.211170
H1771	H177	0.157630	0.493670	0.173370
C2831	C283	0.296480	0.616880	0.292300
C2841	C284	0.284190	0.654010	0.292860
H1781	H178	0.251230	0.645470	0.293570
C2851	C285	0.004560	0.294920	0.349470
O571	O57	0.154190	0.378520	0.275470
O581	O58	0.120870	0.402370	0.173570
O591	O59	0.104990	0.287270	0.071120
O601	O60	0.050780	0.268730	0.179630
N711	N71	0.990740	0.352250	0.387570
N721	N72	0.981410	0.306760	0.409920
N731	N73	0.018130	0.367190	0.317570
N741	N74	0.006980	0.253260	0.349370
H1791	H179	0.992830	0.231870	0.390770
H1801	H180	0.022730	0.248170	0.307870
N751	N75	0.027370	0.331510	0.290790
Zn161	Zn16	0.330270	0.061260	0.513270
C2861	C286	0.409620	0.148640	0.454200
C2871	C287	0.463750	0.186000	0.448500
C2881	C288	0.498420	0.176170	0.485800
H1811	H181	0.488400	0.145800	0.512100
C2891	C289	0.547820	0.211490	0.484000
H1821	H182	0.570800	0.204300	0.508300
C2901	C290	0.564090	0.258090	0.446080
C2911	C291	0.528760	0.266040	0.405300
H1831	H183	0.538700	0.295900	0.376900
C2921	C292	0.479570	0.230840	0.406100
H1841	H184	0.456800	0.237100	0.378100
C2931	C293	0.616450	0.296460	0.448100
C2941	C294	0.630250	0.346200	0.448540
H1851	H185	0.605900	0.354900	0.449100
C2951	C295	0.255190	0.075030	0.566800
C2961	C296	0.202220	0.058050	0.583700
C2971	C297	0.188770	0.084470	0.640800
H1861	H186	0.213000	0.112400	0.669300
C2981	C298	0.139920	0.069520	0.655300
H1871	H187	0.131800	0.088100	0.692300
C2991	C299	0.102590	0.027340	0.615810
C3001	C300	0.115950	0.000080	0.560800
H1881	H188	0.091700	0.971200	0.534900
C3011	C301	0.164860	0.015600	0.544500
H1891	H189	0.173000	0.997300	0.506700
C3021	C302	0.049790	0.012940	0.625630
C3031	C303	0.012660	0.963520	0.626190
H1901	H190	0.021200	0.939100	0.626900
C3041	C304	0.371750	0.042980	0.682800
O611	O61	0.288150	0.109010	0.608800
O621	O62	0.264300	0.051840	0.506900
O631	O63	0.379400	0.151060	0.404450
O641	O64	0.397940	0.115390	0.512960
N761	N76	0.314420	0.971830	0.720900
N771	N77	0.359910	0.007990	0.743250
N781	N78	0.299480	0.984280	0.650900
N791	N79	0.413410	0.087060	0.682700
H1911	H191	0.434800	0.094300	0.724100
H1921	H192	0.418500	0.107900	0.641200
N801	N80	0.335160	0.029200	0.624120
Zn171	Zn17	0.996940	0.394600	0.846600
C3051	C305	0.076290	0.481970	0.787530
C3061	C306	0.130420	0.519330	0.781830
C3071	C307	0.165090	0.509500	0.819130
H1931	H193	0.155070	0.479130	0.845430
C3081	C308	0.214490	0.544820	0.817330
H1941	H194	0.237470	0.537630	0.841630
C3091	C309	0.230760	0.591420	0.779410
C3101	C310	0.195430	0.599370	0.738630
H1951	H195	0.205370	0.629230	0.710230
C3111	C311	0.146240	0.564170	0.739430
H1961	H196	0.123470	0.570430	0.711430
C3121	C312	0.283120	0.629790	0.781430
C3131	C313	0.296920	0.679530	0.781870
H1971	H197	0.272570	0.688230	0.782430
C3141	C314	0.921860	0.408360	0.900130
C3151	C315	0.868890	0.391380	0.917030
C3161	C316	0.855440	0.417800	0.974130
H1981	H198	0.879670	0.445730	0.002630
C3171	C317	0.806590	0.402850	0.988630
H1991	H199	0.798470	0.421430	0.025630
C3181	C318	0.769260	0.360670	0.949140
C3191	C319	0.782620	0.333410	0.894130
H2001	H200	0.758370	0.304530	0.868230
C3201	C320	0.831530	0.348930	0.877830
H2011	H201	0.839670	0.330630	0.840030
C3211	C321	0.716460	0.346270	0.958960
C3221	C322	0.679330	0.296850	0.959520
H2021	H202	0.687870	0.272430	0.960230
C3231	C323	0.038420	0.376310	0.016130
O651	O65	0.954820	0.442340	0.942130
O661	O66	0.930970	0.385170	0.840230
O671	O67	0.046070	0.484390	0.737780
O681	O68	0.064610	0.448720	0.846290
N811	N81	0.981090	0.305160	0.054230
N821	N82	0.026580	0.341320	0.076580
N831	N83	0.966150	0.317610	0.984230
N841	N84	0.080080	0.420390	0.016030
H2031	H203	0.101470	0.427630	0.057430
H2041	H204	0.085170	0.441230	0.974530
N851	N85	0.001830	0.362530	0.957450
Zn181	Zn18	0.663610	0.727930	0.179940
C3241	C324	0.742950	0.815310	0.120870
C3251	C325	0.797080	0.852670	0.115170
C3261	C326	0.831750	0.842840	0.152470
H2051	H205	0.821730	0.812470	0.178770
C3271	C327	0.881150	0.878160	0.150670
H2061	H206	0.904130	0.870970	0.174970
C3281	C328	0.897420	0.924760	0.112750
C3291	C329	0.862090	0.932710	0.071970
H2071	H207	0.872030	0.962570	0.043570
C3301	C330	0.812900	0.897510	0.072770
H2081	H208	0.790130	0.903770	0.044770
C3311	C331	0.949780	0.963130	0.114770
C3321	C332	0.963580	0.012870	0.115210
H2091	H209	0.939230	0.021570	0.115770
C3331	C333	0.588520	0.741700	0.233470
C3341	C334	0.535550	0.724720	0.250370
C3351	C335	0.522100	0.751140	0.307470
H2101	H210	0.546330	0.779070	0.335970
C3361	C336	0.473250	0.736190	0.321970
H2111	H211	0.465130	0.754770	0.358970
C3371	C337	0.435920	0.694010	0.282480
C3381	C338	0.449280	0.666750	0.227470
H2121	H212	0.425030	0.637870	0.201570
C3391	C339	0.498190	0.682270	0.211170
H2131	H213	0.506330	0.663970	0.173370
C3401	C340	0.383120	0.679610	0.292300
C3411	C341	0.345990	0.630190	0.292860
H2141	H214	0.354530	0.605770	0.293570
C3421	C342	0.705080	0.709650	0.349470
O691	O69	0.621480	0.775680	0.275470
O701	O70	0.597630	0.718510	0.173570
O711	O71	0.712730	0.817730	0.071120
O721	O72	0.731270	0.782060	0.179630
N861	N86	0.647750	0.638500	0.387570
N871	N87	0.693240	0.674660	0.409920
N881	N88	0.632810	0.650950	0.317570
N891	N89	0.746740	0.753730	0.349370
H2151	H215	0.768130	0.760970	0.390770
H2161	H216	0.751830	0.774570	0.307870
N901	N90	0.668490	0.695870	0.290790
