data_LAFQOA_clean_PM
_symmetry_space_group_name_H-M	'P1'
_cell_length_a	44.991800
_cell_length_b	44.991800
_cell_length_c	44.991800
_cell_angle_alpha	60.000000
_cell_angle_beta	60.000000
_cell_angle_gamma	60.000000
_symmetry_Int_Tables_number 1

loop_
_symmetry_equiv_pos_as_xyz
'x,y,z'

loop_
_atom_site_label
_atom_site_type_symbol
_atom_site_fract_x
_atom_site_fract_y
_atom_site_fract_z
Co11	Co1	0.750000	0.750000	0.992830
Co21	Co2	0.250000	0.250000	0.507170
Co31	Co3	0.492830	0.507170	0.250000
Co41	Co4	0.007170	0.992830	0.750000
Co51	Co5	0.750000	0.992830	0.507170
Co61	Co6	0.250000	0.507170	0.992830
Co71	Co7	0.492830	0.250000	0.750000
Co81	Co8	0.007170	0.750000	0.250000
Co91	Co9	0.750000	0.507170	0.750000
Co101	Co10	0.250000	0.992830	0.250000
Co111	Co11	0.492830	0.750000	0.507170
Co121	Co12	0.007170	0.250000	0.992830
Co131	Co13	0.250000	0.250000	0.007170
Co141	Co14	0.750000	0.750000	0.492830
Co151	Co15	0.507170	0.492830	0.750000
Co161	Co16	0.992830	0.007170	0.250000
Co171	Co17	0.250000	0.007170	0.492830
Co181	Co18	0.750000	0.492830	0.007170
Co191	Co19	0.507170	0.750000	0.250000
Co201	Co20	0.992830	0.250000	0.750000
Co211	Co21	0.250000	0.492830	0.250000
Co221	Co22	0.750000	0.007170	0.750000
Co231	Co23	0.507170	0.250000	0.492830
Co241	Co24	0.992830	0.750000	0.007170
Co251	Co25	0.747610	0.502390	0.247610
Co261	Co26	0.002390	0.247610	0.502390
Co271	Co27	0.747610	0.247610	0.502390
Co281	Co28	0.002390	0.502390	0.247610
Co291	Co29	0.747610	0.502390	0.502390
Co301	Co30	0.002390	0.247610	0.247610
Co311	Co31	0.497610	0.252390	0.252390
Co321	Co32	0.752390	0.997610	0.997610
Co331	Co33	0.752390	0.252390	0.997610
Co341	Co34	0.497610	0.997610	0.252390
Co351	Co35	0.497610	0.252390	0.997610
Co361	Co36	0.752390	0.997610	0.252390
Co371	Co37	0.252390	0.497610	0.752390
Co381	Co38	0.997610	0.752390	0.497610
Co391	Co39	0.252390	0.752390	0.497610
Co401	Co40	0.997610	0.497610	0.752390
Co411	Co41	0.252390	0.497610	0.497610
Co421	Co42	0.997610	0.752390	0.752390
Co431	Co43	0.502390	0.747610	0.747610
Co441	Co44	0.247610	0.002390	0.002390
Co451	Co45	0.247610	0.747610	0.002390
Co461	Co46	0.502390	0.002390	0.747610
Co471	Co47	0.502390	0.747610	0.002390
Co481	Co48	0.247610	0.002390	0.747610
H11	H1	0.587000	0.726200	0.209800
H21	H2	0.647800	0.638200	0.269400
H31	H3	0.594800	0.642600	0.321800
H41	H4	0.539700	0.685300	0.314300
H51	H5	0.679500	0.813300	0.019100
H61	H6	0.630500	0.821700	0.071100
H71	H7	0.628700	0.773900	0.126500
H81	H8	0.726400	0.713400	0.075000
H91	H9	0.708500	0.583500	0.217700
H101	H10	0.759100	0.627100	0.110700
H111	H11	0.801000	0.569000	0.111400
H121	H12	0.794200	0.519200	0.165000
H131	H13	0.773600	0.558600	0.239600
H141	H14	0.824100	0.566100	0.231900
H151	H15	0.879500	0.517500	0.228100
H161	H16	0.827400	0.456000	0.245800
H171	H17	0.226200	0.087000	0.477000
H181	H18	0.138200	0.147800	0.444600
H191	H19	0.142600	0.094800	0.440800
H201	H20	0.185300	0.039700	0.460700
H211	H21	0.313300	0.179500	0.488100
H221	H22	0.321700	0.130500	0.476700
H231	H23	0.273900	0.128700	0.470900
H241	H24	0.213400	0.226400	0.485200
H251	H25	0.083500	0.208500	0.490300
H261	H26	0.127100	0.259100	0.503100
H271	H27	0.069000	0.301000	0.518600
H281	H28	0.019200	0.294200	0.521600
H291	H29	0.058600	0.273600	0.428200
H301	H30	0.066100	0.324100	0.377900
H311	H31	0.017500	0.379500	0.374900
H321	H32	0.956000	0.327400	0.470800
H331	H33	0.709800	0.477000	0.087000
H341	H34	0.769400	0.444600	0.147800
H351	H35	0.821800	0.440800	0.094800
H361	H36	0.814300	0.460700	0.039700
H371	H37	0.519100	0.488100	0.179500
H381	H38	0.571100	0.476700	0.130500
H391	H39	0.626500	0.470900	0.128700
H401	H40	0.575000	0.485200	0.226400
H411	H41	0.717700	0.490300	0.208500
H421	H42	0.610700	0.503100	0.259100
H431	H43	0.611400	0.518600	0.301000
H441	H44	0.665000	0.521600	0.294200
H451	H45	0.739600	0.428200	0.273600
H461	H46	0.731900	0.377900	0.324100
H471	H47	0.728100	0.374900	0.379500
H481	H48	0.745800	0.470800	0.327400
H491	H49	0.977000	0.209800	0.726200
H501	H50	0.944600	0.269400	0.638200
H511	H51	0.940800	0.321800	0.642600
H521	H52	0.960700	0.314300	0.685300
H531	H53	0.988100	0.019100	0.813300
H541	H54	0.976700	0.071100	0.821700
H551	H55	0.970900	0.126500	0.773900
H561	H56	0.985200	0.075000	0.713400
H571	H57	0.990300	0.217700	0.583500
H581	H58	0.003100	0.110700	0.627100
H591	H59	0.018600	0.111400	0.569000
H601	H60	0.021600	0.165000	0.519200
H611	H61	0.928200	0.239600	0.558600
H621	H62	0.877900	0.231900	0.566100
H631	H63	0.874900	0.228100	0.517500
H641	H64	0.970800	0.245800	0.456000
H651	H65	0.587000	0.209800	0.477000
H661	H66	0.647800	0.269400	0.444600
H671	H67	0.594800	0.321800	0.440800
H681	H68	0.539700	0.314300	0.460700
H691	H69	0.679500	0.019100	0.488100
H701	H70	0.630500	0.071100	0.476700
H711	H71	0.628700	0.126500	0.470900
H721	H72	0.726400	0.075000	0.485200
H731	H73	0.708500	0.217700	0.490300
H741	H74	0.759100	0.110700	0.503100
H751	H75	0.801000	0.111400	0.518600
H761	H76	0.794200	0.165000	0.521600
H771	H77	0.773600	0.239600	0.428200
H781	H78	0.824100	0.231900	0.377900
H791	H79	0.879500	0.228100	0.374900
H801	H80	0.827400	0.245800	0.470800
H811	H81	0.226200	0.477000	0.209800
H821	H82	0.138200	0.444600	0.269400
H831	H83	0.142600	0.440800	0.321800
H841	H84	0.185300	0.460700	0.314300
H851	H85	0.313300	0.488100	0.019100
H861	H86	0.321700	0.476700	0.071100
H871	H87	0.273900	0.470900	0.126500
H881	H88	0.213400	0.485200	0.075000
H891	H89	0.083500	0.490300	0.217700
H901	H90	0.127100	0.503100	0.110700
H911	H91	0.069000	0.518600	0.111400
H921	H92	0.019200	0.521600	0.165000
H931	H93	0.058600	0.428200	0.239600
H941	H94	0.066100	0.377900	0.231900
H951	H95	0.017500	0.374900	0.228100
H961	H96	0.956000	0.470800	0.245800
H971	H97	0.709800	0.087000	0.726200
H981	H98	0.769400	0.147800	0.638200
H991	H99	0.821800	0.094800	0.642600
H1001	H100	0.814300	0.039700	0.685300
H1011	H101	0.519100	0.179500	0.813300
H1021	H102	0.571100	0.130500	0.821700
H1031	H103	0.626500	0.128700	0.773900
H1041	H104	0.575000	0.226400	0.713400
H1051	H105	0.717700	0.208500	0.583500
H1061	H106	0.610700	0.259100	0.627100
H1071	H107	0.611400	0.301000	0.569000
H1081	H108	0.665000	0.294200	0.519200
H1091	H109	0.739600	0.273600	0.558600
H1101	H110	0.731900	0.324100	0.566100
H1111	H111	0.728100	0.379500	0.517500
H1121	H112	0.745800	0.327400	0.456000
H1131	H113	0.977000	0.726200	0.087000
H1141	H114	0.944600	0.638200	0.147800
H1151	H115	0.940800	0.642600	0.094800
H1161	H116	0.960700	0.685300	0.039700
H1171	H117	0.988100	0.813300	0.179500
H1181	H118	0.976700	0.821700	0.130500
H1191	H119	0.970900	0.773900	0.128700
H1201	H120	0.985200	0.713400	0.226400
H1211	H121	0.990300	0.583500	0.208500
H1221	H122	0.003100	0.627100	0.259100
H1231	H123	0.018600	0.569000	0.301000
H1241	H124	0.021600	0.519200	0.294200
H1251	H125	0.928200	0.558600	0.273600
H1261	H126	0.877900	0.566100	0.324100
H1271	H127	0.874900	0.517500	0.379500
H1281	H128	0.970800	0.456000	0.327400
H1291	H129	0.587000	0.477000	0.726200
H1301	H130	0.647800	0.444600	0.638200
H1311	H131	0.594800	0.440800	0.642600
H1321	H132	0.539700	0.460700	0.685300
H1331	H133	0.679500	0.488100	0.813300
H1341	H134	0.630500	0.476700	0.821700
H1351	H135	0.628700	0.470900	0.773900
H1361	H136	0.726400	0.485200	0.713400
H1371	H137	0.708500	0.490300	0.583500
H1381	H138	0.759100	0.503100	0.627100
H1391	H139	0.801000	0.518600	0.569000
H1401	H140	0.794200	0.521600	0.519200
H1411	H141	0.773600	0.428200	0.558600
H1421	H142	0.824100	0.377900	0.566100
H1431	H143	0.879500	0.374900	0.517500
H1441	H144	0.827400	0.470800	0.456000
H1451	H145	0.226200	0.209800	0.087000
H1461	H146	0.138200	0.269400	0.147800
H1471	H147	0.142600	0.321800	0.094800
H1481	H148	0.185300	0.314300	0.039700
H1491	H149	0.313300	0.019100	0.179500
H1501	H150	0.321700	0.071100	0.130500
H1511	H151	0.273900	0.126500	0.128700
H1521	H152	0.213400	0.075000	0.226400
H1531	H153	0.083500	0.217700	0.208500
H1541	H154	0.127100	0.110700	0.259100
H1551	H155	0.069000	0.111400	0.301000
H1561	H156	0.019200	0.165000	0.294200
H1571	H157	0.058600	0.239600	0.273600
H1581	H158	0.066100	0.231900	0.324100
H1591	H159	0.017500	0.228100	0.379500
H1601	H160	0.956000	0.245800	0.327400
H1611	H161	0.709800	0.726200	0.477000
H1621	H162	0.769400	0.638200	0.444600
H1631	H163	0.821800	0.642600	0.440800
H1641	H164	0.814300	0.685300	0.460700
H1651	H165	0.519100	0.813300	0.488100
H1661	H166	0.571100	0.821700	0.476700
H1671	H167	0.626500	0.773900	0.470900
H1681	H168	0.575000	0.713400	0.485200
H1691	H169	0.717700	0.583500	0.490300
H1701	H170	0.610700	0.627100	0.503100
H1711	H171	0.611400	0.569000	0.518600
H1721	H172	0.665000	0.519200	0.521600
H1731	H173	0.739600	0.558600	0.428200
H1741	H174	0.731900	0.566100	0.377900
H1751	H175	0.728100	0.517500	0.374900
H1761	H176	0.745800	0.456000	0.470800
H1771	H177	0.977000	0.087000	0.209800
H1781	H178	0.944600	0.147800	0.269400
H1791	H179	0.940800	0.094800	0.321800
H1801	H180	0.960700	0.039700	0.314300
H1811	H181	0.988100	0.179500	0.019100
H1821	H182	0.976700	0.130500	0.071100
H1831	H183	0.970900	0.128700	0.126500
H1841	H184	0.985200	0.226400	0.075000
H1851	H185	0.990300	0.208500	0.217700
H1861	H186	0.003100	0.259100	0.110700
H1871	H187	0.018600	0.301000	0.111400
H1881	H188	0.021600	0.294200	0.165000
H1891	H189	0.928200	0.273600	0.239600
H1901	H190	0.877900	0.324100	0.231900
H1911	H191	0.874900	0.379500	0.228100
H1921	H192	0.970800	0.327400	0.245800
H1931	H193	0.273800	0.413000	0.290200
H1941	H194	0.361800	0.352200	0.230600
H1951	H195	0.357400	0.405200	0.178200
H1961	H196	0.314700	0.460300	0.185700
H1971	H197	0.186700	0.320500	0.480900
H1981	H198	0.178300	0.369500	0.428900
H1991	H199	0.226100	0.371300	0.373500
H2001	H200	0.286600	0.273600	0.425000
H2011	H201	0.416500	0.291500	0.282300
H2021	H202	0.372900	0.240900	0.389300
H2031	H203	0.431000	0.199000	0.388600
H2041	H204	0.480800	0.205800	0.335000
H2051	H205	0.441400	0.226400	0.260400
H2061	H206	0.433900	0.175900	0.268100
H2071	H207	0.482500	0.120500	0.271900
H2081	H208	0.544000	0.172600	0.254200
H2091	H209	0.913000	0.773800	0.023000
H2101	H210	0.852200	0.861800	0.055400
H2111	H211	0.905200	0.857400	0.059200
H2121	H212	0.960300	0.814700	0.039300
H2131	H213	0.820500	0.686700	0.011900
H2141	H214	0.869500	0.678300	0.023300
H2151	H215	0.871300	0.726100	0.029100
H2161	H216	0.773600	0.786600	0.014800
H2171	H217	0.791500	0.916500	0.009700
H2181	H218	0.740900	0.872900	0.996900
H2191	H219	0.699000	0.931000	0.981400
H2201	H220	0.705800	0.980800	0.978400
H2211	H221	0.726400	0.941400	0.071800
H2221	H222	0.675900	0.933900	0.122100
H2231	H223	0.620500	0.982500	0.125100
H2241	H224	0.672600	0.044000	0.029200
H2251	H225	0.523000	0.290200	0.413000
H2261	H226	0.555400	0.230600	0.352200
H2271	H227	0.559200	0.178200	0.405200
H2281	H228	0.539300	0.185700	0.460300
H2291	H229	0.511900	0.480900	0.320500
H2301	H230	0.523300	0.428900	0.369500
H2311	H231	0.529100	0.373500	0.371300
H2321	H232	0.514800	0.425000	0.273600
H2331	H233	0.509700	0.282300	0.291500
H2341	H234	0.496900	0.389300	0.240900
H2351	H235	0.481400	0.388600	0.199000
H2361	H236	0.478400	0.335000	0.205800
H2371	H237	0.571800	0.260400	0.226400
H2381	H238	0.622100	0.268100	0.175900
H2391	H239	0.625100	0.271900	0.120500
H2401	H240	0.529200	0.254200	0.172600
H2411	H241	0.790200	0.023000	0.773800
H2421	H242	0.730600	0.055400	0.861800
H2431	H243	0.678200	0.059200	0.857400
H2441	H244	0.685700	0.039300	0.814700
H2451	H245	0.980900	0.011900	0.686700
H2461	H246	0.928900	0.023300	0.678300
H2471	H247	0.873500	0.029100	0.726100
H2481	H248	0.925000	0.014800	0.786600
H2491	H249	0.782300	0.009700	0.916500
H2501	H250	0.889300	0.996900	0.872900
H2511	H251	0.888600	0.981400	0.931000
H2521	H252	0.835000	0.978400	0.980800
H2531	H253	0.760400	0.071800	0.941400
H2541	H254	0.768100	0.122100	0.933900
H2551	H255	0.771900	0.125100	0.982500
H2561	H256	0.754200	0.029200	0.044000
H2571	H257	0.790200	0.413000	0.023000
H2581	H258	0.730600	0.352200	0.055400
H2591	H259	0.678200	0.405200	0.059200
H2601	H260	0.685700	0.460300	0.039300
H2611	H261	0.980900	0.320500	0.011900
H2621	H262	0.928900	0.369500	0.023300
H2631	H263	0.873500	0.371300	0.029100
H2641	H264	0.925000	0.273600	0.014800
H2651	H265	0.782300	0.291500	0.009700
H2661	H266	0.889300	0.240900	0.996900
H2671	H267	0.888600	0.199000	0.981400
H2681	H268	0.835000	0.205800	0.978400
H2691	H269	0.760400	0.226400	0.071800
H2701	H270	0.768100	0.175900	0.122100
H2711	H271	0.771900	0.120500	0.125100
H2721	H272	0.754200	0.172600	0.029200
H2731	H273	0.523000	0.773800	0.290200
H2741	H274	0.555400	0.861800	0.230600
H2751	H275	0.559200	0.857400	0.178200
H2761	H276	0.539300	0.814700	0.185700
H2771	H277	0.511900	0.686700	0.480900
H2781	H278	0.523300	0.678300	0.428900
H2791	H279	0.529100	0.726100	0.373500
H2801	H280	0.514800	0.786600	0.425000
H2811	H281	0.509700	0.916500	0.282300
H2821	H282	0.496900	0.872900	0.389300
H2831	H283	0.481400	0.931000	0.388600
H2841	H284	0.478400	0.980800	0.335000
H2851	H285	0.571800	0.941400	0.260400
H2861	H286	0.622100	0.933900	0.268100
H2871	H287	0.625100	0.982500	0.271900
H2881	H288	0.529200	0.044000	0.254200
H2891	H289	0.913000	0.290200	0.773800
H2901	H290	0.852200	0.230600	0.861800
H2911	H291	0.905200	0.178200	0.857400
H2921	H292	0.960300	0.185700	0.814700
H2931	H293	0.820500	0.480900	0.686700
H2941	H294	0.869500	0.428900	0.678300
H2951	H295	0.871300	0.373500	0.726100
H2961	H296	0.773600	0.425000	0.786600
H2971	H297	0.791500	0.282300	0.916500
H2981	H298	0.740900	0.389300	0.872900
H2991	H299	0.699000	0.388600	0.931000
H3001	H300	0.705800	0.335000	0.980800
H3011	H301	0.726400	0.260400	0.941400
H3021	H302	0.675900	0.268100	0.933900
H3031	H303	0.620500	0.271900	0.982500
H3041	H304	0.672600	0.254200	0.044000
H3051	H305	0.273800	0.023000	0.413000
H3061	H306	0.361800	0.055400	0.352200
H3071	H307	0.357400	0.059200	0.405200
H3081	H308	0.314700	0.039300	0.460300
H3091	H309	0.186700	0.011900	0.320500
H3101	H310	0.178300	0.023300	0.369500
H3111	H311	0.226100	0.029100	0.371300
H3121	H312	0.286600	0.014800	0.273600
H3131	H313	0.416500	0.009700	0.291500
H3141	H314	0.372900	0.996900	0.240900
H3151	H315	0.431000	0.981400	0.199000
H3161	H316	0.480800	0.978400	0.205800
H3171	H317	0.441400	0.071800	0.226400
H3181	H318	0.433900	0.122100	0.175900
H3191	H319	0.482500	0.125100	0.120500
H3201	H320	0.544000	0.029200	0.172600
H3211	H321	0.523000	0.413000	0.773800
H3221	H322	0.555400	0.352200	0.861800
H3231	H323	0.559200	0.405200	0.857400
H3241	H324	0.539300	0.460300	0.814700
H3251	H325	0.511900	0.320500	0.686700
H3261	H326	0.523300	0.369500	0.678300
H3271	H327	0.529100	0.371300	0.726100
H3281	H328	0.514800	0.273600	0.786600
H3291	H329	0.509700	0.291500	0.916500
H3301	H330	0.496900	0.240900	0.872900
H3311	H331	0.481400	0.199000	0.931000
H3321	H332	0.478400	0.205800	0.980800
H3331	H333	0.571800	0.226400	0.941400
H3341	H334	0.622100	0.175900	0.933900
H3351	H335	0.625100	0.120500	0.982500
H3361	H336	0.529200	0.172600	0.044000
H3371	H337	0.790200	0.773800	0.413000
H3381	H338	0.730600	0.861800	0.352200
H3391	H339	0.678200	0.857400	0.405200
H3401	H340	0.685700	0.814700	0.460300
H3411	H341	0.980900	0.686700	0.320500
H3421	H342	0.928900	0.678300	0.369500
H3431	H343	0.873500	0.726100	0.371300
H3441	H344	0.925000	0.786600	0.273600
H3451	H345	0.782300	0.916500	0.291500
H3461	H346	0.889300	0.872900	0.240900
H3471	H347	0.888600	0.931000	0.199000
H3481	H348	0.835000	0.980800	0.205800
H3491	H349	0.760400	0.941400	0.226400
H3501	H350	0.768100	0.933900	0.175900
H3511	H351	0.771900	0.982500	0.120500
H3521	H352	0.754200	0.044000	0.172600
H3531	H353	0.273800	0.290200	0.023000
H3541	H354	0.361800	0.230600	0.055400
H3551	H355	0.357400	0.178200	0.059200
H3561	H356	0.314700	0.185700	0.039300
H3571	H357	0.186700	0.480900	0.011900
H3581	H358	0.178300	0.428900	0.023300
H3591	H359	0.226100	0.373500	0.029100
H3601	H360	0.286600	0.425000	0.014800
H3611	H361	0.416500	0.282300	0.009700
H3621	H362	0.372900	0.389300	0.996900
H3631	H363	0.431000	0.388600	0.981400
H3641	H364	0.480800	0.335000	0.978400
H3651	H365	0.441400	0.260400	0.071800
H3661	H366	0.433900	0.268100	0.122100
H3671	H367	0.482500	0.271900	0.125100
H3681	H368	0.544000	0.254200	0.029200
H3691	H369	0.913000	0.023000	0.290200
H3701	H370	0.852200	0.055400	0.230600
H3711	H371	0.905200	0.059200	0.178200
H3721	H372	0.960300	0.039300	0.185700
H3731	H373	0.820500	0.011900	0.480900
H3741	H374	0.869500	0.023300	0.428900
H3751	H375	0.871300	0.029100	0.373500
H3761	H376	0.773600	0.014800	0.425000
H3771	H377	0.791500	0.009700	0.282300
H3781	H378	0.740900	0.996900	0.389300
H3791	H379	0.699000	0.981400	0.388600
H3801	H380	0.705800	0.978400	0.335000
H3811	H381	0.726400	0.071800	0.260400
H3821	H382	0.675900	0.122100	0.268100
H3831	H383	0.620500	0.125100	0.271900
H3841	H384	0.672600	0.029200	0.254200
H3851	H385	0.413000	0.273800	0.790200
H3861	H386	0.352200	0.361800	0.730600
H3871	H387	0.405200	0.357400	0.678200
H3881	H388	0.460300	0.314700	0.685700
H3891	H389	0.320500	0.186700	0.980900
H3901	H390	0.369500	0.178300	0.928900
H3911	H391	0.371300	0.226100	0.873500
H3921	H392	0.273600	0.286600	0.925000
H3931	H393	0.291500	0.416500	0.782300
H3941	H394	0.240900	0.372900	0.889300
H3951	H395	0.199000	0.431000	0.888600
H3961	H396	0.205800	0.480800	0.835000
H3971	H397	0.226400	0.441400	0.760400
H3981	H398	0.175900	0.433900	0.768100
H3991	H399	0.120500	0.482500	0.771900
H4001	H400	0.172600	0.544000	0.754200
H4011	H401	0.773800	0.913000	0.523000
H4021	H402	0.861800	0.852200	0.555400
H4031	H403	0.857400	0.905200	0.559200
H4041	H404	0.814700	0.960300	0.539300
H4051	H405	0.686700	0.820500	0.511900
H4061	H406	0.678300	0.869500	0.523300
H4071	H407	0.726100	0.871300	0.529100
H4081	H408	0.786600	0.773600	0.514800
H4091	H409	0.916500	0.791500	0.509700
H4101	H410	0.872900	0.740900	0.496900
H4111	H411	0.931000	0.699000	0.481400
H4121	H412	0.980800	0.705800	0.478400
H4131	H413	0.941400	0.726400	0.571800
H4141	H414	0.933900	0.675900	0.622100
H4151	H415	0.982500	0.620500	0.625100
H4161	H416	0.044000	0.672600	0.529200
H4171	H417	0.290200	0.523000	0.913000
H4181	H418	0.230600	0.555400	0.852200
H4191	H419	0.178200	0.559200	0.905200
H4201	H420	0.185700	0.539300	0.960300
H4211	H421	0.480900	0.511900	0.820500
H4221	H422	0.428900	0.523300	0.869500
H4231	H423	0.373500	0.529100	0.871300
H4241	H424	0.425000	0.514800	0.773600
H4251	H425	0.282300	0.509700	0.791500
H4261	H426	0.389300	0.496900	0.740900
H4271	H427	0.388600	0.481400	0.699000
H4281	H428	0.335000	0.478400	0.705800
H4291	H429	0.260400	0.571800	0.726400
H4301	H430	0.268100	0.622100	0.675900
H4311	H431	0.271900	0.625100	0.620500
H4321	H432	0.254200	0.529200	0.672600
H4331	H433	0.023000	0.790200	0.273800
H4341	H434	0.055400	0.730600	0.361800
H4351	H435	0.059200	0.678200	0.357400
H4361	H436	0.039300	0.685700	0.314700
H4371	H437	0.011900	0.980900	0.186700
H4381	H438	0.023300	0.928900	0.178300
H4391	H439	0.029100	0.873500	0.226100
H4401	H440	0.014800	0.925000	0.286600
H4411	H441	0.009700	0.782300	0.416500
H4421	H442	0.996900	0.889300	0.372900
H4431	H443	0.981400	0.888600	0.431000
H4441	H444	0.978400	0.835000	0.480800
H4451	H445	0.071800	0.760400	0.441400
H4461	H446	0.122100	0.768100	0.433900
H4471	H447	0.125100	0.771900	0.482500
H4481	H448	0.029200	0.754200	0.544000
H4491	H449	0.413000	0.790200	0.523000
H4501	H450	0.352200	0.730600	0.555400
H4511	H451	0.405200	0.678200	0.559200
H4521	H452	0.460300	0.685700	0.539300
H4531	H453	0.320500	0.980900	0.511900
H4541	H454	0.369500	0.928900	0.523300
H4551	H455	0.371300	0.873500	0.529100
H4561	H456	0.273600	0.925000	0.514800
H4571	H457	0.291500	0.782300	0.509700
H4581	H458	0.240900	0.889300	0.496900
H4591	H459	0.199000	0.888600	0.481400
H4601	H460	0.205800	0.835000	0.478400
H4611	H461	0.226400	0.760400	0.571800
H4621	H462	0.175900	0.768100	0.622100
H4631	H463	0.120500	0.771900	0.625100
H4641	H464	0.172600	0.754200	0.529200
H4651	H465	0.773800	0.523000	0.790200
H4661	H466	0.861800	0.555400	0.730600
H4671	H467	0.857400	0.559200	0.678200
H4681	H468	0.814700	0.539300	0.685700
H4691	H469	0.686700	0.511900	0.980900
H4701	H470	0.678300	0.523300	0.928900
H4711	H471	0.726100	0.529100	0.873500
H4721	H472	0.786600	0.514800	0.925000
H4731	H473	0.916500	0.509700	0.782300
H4741	H474	0.872900	0.496900	0.889300
H4751	H475	0.931000	0.481400	0.888600
H4761	H476	0.980800	0.478400	0.835000
H4771	H477	0.941400	0.571800	0.760400
H4781	H478	0.933900	0.622100	0.768100
H4791	H479	0.982500	0.625100	0.771900
H4801	H480	0.044000	0.529200	0.754200
H4811	H481	0.290200	0.913000	0.273800
H4821	H482	0.230600	0.852200	0.361800
H4831	H483	0.178200	0.905200	0.357400
H4841	H484	0.185700	0.960300	0.314700
H4851	H485	0.480900	0.820500	0.186700
H4861	H486	0.428900	0.869500	0.178300
H4871	H487	0.373500	0.871300	0.226100
H4881	H488	0.425000	0.773600	0.286600
H4891	H489	0.282300	0.791500	0.416500
H4901	H490	0.389300	0.740900	0.372900
H4911	H491	0.388600	0.699000	0.431000
H4921	H492	0.335000	0.705800	0.480800
H4931	H493	0.260400	0.726400	0.441400
H4941	H494	0.268100	0.675900	0.433900
H4951	H495	0.271900	0.620500	0.482500
H4961	H496	0.254200	0.672600	0.544000
H4971	H497	0.023000	0.273800	0.913000
H4981	H498	0.055400	0.361800	0.852200
H4991	H499	0.059200	0.357400	0.905200
H5001	H500	0.039300	0.314700	0.960300
H5011	H501	0.011900	0.186700	0.820500
H5021	H502	0.023300	0.178300	0.869500
H5031	H503	0.029100	0.226100	0.871300
H5041	H504	0.014800	0.286600	0.773600
H5051	H505	0.009700	0.416500	0.791500
H5061	H506	0.996900	0.372900	0.740900
H5071	H507	0.981400	0.431000	0.699000
H5081	H508	0.978400	0.480800	0.705800
H5091	H509	0.071800	0.441400	0.726400
H5101	H510	0.122100	0.433900	0.675900
H5111	H511	0.125100	0.482500	0.620500
H5121	H512	0.029200	0.544000	0.672600
H5131	H513	0.413000	0.523000	0.273800
H5141	H514	0.352200	0.555400	0.361800
H5151	H515	0.405200	0.559200	0.357400
H5161	H516	0.460300	0.539300	0.314700
H5171	H517	0.320500	0.511900	0.186700
H5181	H518	0.369500	0.523300	0.178300
H5191	H519	0.371300	0.529100	0.226100
H5201	H520	0.273600	0.514800	0.286600
H5211	H521	0.291500	0.509700	0.416500
H5221	H522	0.240900	0.496900	0.372900
H5231	H523	0.199000	0.481400	0.431000
H5241	H524	0.205800	0.478400	0.480800
H5251	H525	0.226400	0.571800	0.441400
H5261	H526	0.175900	0.622100	0.433900
H5271	H527	0.120500	0.625100	0.482500
H5281	H528	0.172600	0.529200	0.544000
H5291	H529	0.773800	0.790200	0.913000
H5301	H530	0.861800	0.730600	0.852200
H5311	H531	0.857400	0.678200	0.905200
H5321	H532	0.814700	0.685700	0.960300
H5331	H533	0.686700	0.980900	0.820500
H5341	H534	0.678300	0.928900	0.869500
H5351	H535	0.726100	0.873500	0.871300
H5361	H536	0.786600	0.925000	0.773600
H5371	H537	0.916500	0.782300	0.791500
H5381	H538	0.872900	0.889300	0.740900
H5391	H539	0.931000	0.888600	0.699000
H5401	H540	0.980800	0.835000	0.705800
H5411	H541	0.941400	0.760400	0.726400
H5421	H542	0.933900	0.768100	0.675900
H5431	H543	0.982500	0.771900	0.620500
H5441	H544	0.044000	0.754200	0.672600
H5451	H545	0.290200	0.273800	0.523000
H5461	H546	0.230600	0.361800	0.555400
H5471	H547	0.178200	0.357400	0.559200
H5481	H548	0.185700	0.314700	0.539300
H5491	H549	0.480900	0.186700	0.511900
H5501	H550	0.428900	0.178300	0.523300
H5511	H551	0.373500	0.226100	0.529100
H5521	H552	0.425000	0.286600	0.514800
H5531	H553	0.282300	0.416500	0.509700
H5541	H554	0.389300	0.372900	0.496900
H5551	H555	0.388600	0.431000	0.481400
H5561	H556	0.335000	0.480800	0.478400
H5571	H557	0.260400	0.441400	0.571800
H5581	H558	0.268100	0.433900	0.622100
H5591	H559	0.271900	0.482500	0.625100
H5601	H560	0.254200	0.544000	0.529200
H5611	H561	0.023000	0.913000	0.790200
H5621	H562	0.055400	0.852200	0.730600
H5631	H563	0.059200	0.905200	0.678200
H5641	H564	0.039300	0.960300	0.685700
H5651	H565	0.011900	0.820500	0.980900
H5661	H566	0.023300	0.869500	0.928900
H5671	H567	0.029100	0.871300	0.873500
H5681	H568	0.014800	0.773600	0.925000
H5691	H569	0.009700	0.791500	0.782300
H5701	H570	0.996900	0.740900	0.889300
H5711	H571	0.981400	0.699000	0.888600
H5721	H572	0.978400	0.705800	0.835000
H5731	H573	0.071800	0.726400	0.760400
H5741	H574	0.122100	0.675900	0.768100
H5751	H575	0.125100	0.620500	0.771900
H5761	H576	0.029200	0.672600	0.754200
H5771	H577	0.726200	0.587000	0.709800
H5781	H578	0.638200	0.647800	0.769400
H5791	H579	0.642600	0.594800	0.821800
H5801	H580	0.685300	0.539700	0.814300
H5811	H581	0.813300	0.679500	0.519100
H5821	H582	0.821700	0.630500	0.571100
H5831	H583	0.773900	0.628700	0.626500
H5841	H584	0.713400	0.726400	0.575000
H5851	H585	0.583500	0.708500	0.717700
H5861	H586	0.627100	0.759100	0.610700
H5871	H587	0.569000	0.801000	0.611400
H5881	H588	0.519200	0.794200	0.665000
H5891	H589	0.558600	0.773600	0.739600
H5901	H590	0.566100	0.824100	0.731900
H5911	H591	0.517500	0.879500	0.728100
H5921	H592	0.456000	0.827400	0.745800
H5931	H593	0.087000	0.226200	0.977000
H5941	H594	0.147800	0.138200	0.944600
H5951	H595	0.094800	0.142600	0.940800
H5961	H596	0.039700	0.185300	0.960700
H5971	H597	0.179500	0.313300	0.988100
H5981	H598	0.130500	0.321700	0.976700
H5991	H599	0.128700	0.273900	0.970900
H6001	H600	0.226400	0.213400	0.985200
H6011	H601	0.208500	0.083500	0.990300
H6021	H602	0.259100	0.127100	0.003100
H6031	H603	0.301000	0.069000	0.018600
H6041	H604	0.294200	0.019200	0.021600
H6051	H605	0.273600	0.058600	0.928200
H6061	H606	0.324100	0.066100	0.877900
H6071	H607	0.379500	0.017500	0.874900
H6081	H608	0.327400	0.956000	0.970800
H6091	H609	0.477000	0.709800	0.587000
H6101	H610	0.444600	0.769400	0.647800
H6111	H611	0.440800	0.821800	0.594800
H6121	H612	0.460700	0.814300	0.539700
H6131	H613	0.488100	0.519100	0.679500
H6141	H614	0.476700	0.571100	0.630500
H6151	H615	0.470900	0.626500	0.628700
H6161	H616	0.485200	0.575000	0.726400
H6171	H617	0.490300	0.717700	0.708500
H6181	H618	0.503100	0.610700	0.759100
H6191	H619	0.518600	0.611400	0.801000
H6201	H620	0.521600	0.665000	0.794200
H6211	H621	0.428200	0.739600	0.773600
H6221	H622	0.377900	0.731900	0.824100
H6231	H623	0.374900	0.728100	0.879500
H6241	H624	0.470800	0.745800	0.827400
H6251	H625	0.209800	0.977000	0.226200
H6261	H626	0.269400	0.944600	0.138200
H6271	H627	0.321800	0.940800	0.142600
H6281	H628	0.314300	0.960700	0.185300
H6291	H629	0.019100	0.988100	0.313300
H6301	H630	0.071100	0.976700	0.321700
H6311	H631	0.126500	0.970900	0.273900
H6321	H632	0.075000	0.985200	0.213400
H6331	H633	0.217700	0.990300	0.083500
H6341	H634	0.110700	0.003100	0.127100
H6351	H635	0.111400	0.018600	0.069000
H6361	H636	0.165000	0.021600	0.019200
H6371	H637	0.239600	0.928200	0.058600
H6381	H638	0.231900	0.877900	0.066100
H6391	H639	0.228100	0.874900	0.017500
H6401	H640	0.245800	0.970800	0.956000
H6411	H641	0.209800	0.587000	0.977000
H6421	H642	0.269400	0.647800	0.944600
H6431	H643	0.321800	0.594800	0.940800
H6441	H644	0.314300	0.539700	0.960700
H6451	H645	0.019100	0.679500	0.988100
H6461	H646	0.071100	0.630500	0.976700
H6471	H647	0.126500	0.628700	0.970900
H6481	H648	0.075000	0.726400	0.985200
H6491	H649	0.217700	0.708500	0.990300
H6501	H650	0.110700	0.759100	0.003100
H6511	H651	0.111400	0.801000	0.018600
H6521	H652	0.165000	0.794200	0.021600
H6531	H653	0.239600	0.773600	0.928200
H6541	H654	0.231900	0.824100	0.877900
H6551	H655	0.228100	0.879500	0.874900
H6561	H656	0.245800	0.827400	0.970800
H6571	H657	0.477000	0.226200	0.709800
H6581	H658	0.444600	0.138200	0.769400
H6591	H659	0.440800	0.142600	0.821800
H6601	H660	0.460700	0.185300	0.814300
H6611	H661	0.488100	0.313300	0.519100
H6621	H662	0.476700	0.321700	0.571100
H6631	H663	0.470900	0.273900	0.626500
H6641	H664	0.485200	0.213400	0.575000
H6651	H665	0.490300	0.083500	0.717700
H6661	H666	0.503100	0.127100	0.610700
H6671	H667	0.518600	0.069000	0.611400
H6681	H668	0.521600	0.019200	0.665000
H6691	H669	0.428200	0.058600	0.739600
H6701	H670	0.377900	0.066100	0.731900
H6711	H671	0.374900	0.017500	0.728100
H6721	H672	0.470800	0.956000	0.745800
H6731	H673	0.087000	0.709800	0.226200
H6741	H674	0.147800	0.769400	0.138200
H6751	H675	0.094800	0.821800	0.142600
H6761	H676	0.039700	0.814300	0.185300
H6771	H677	0.179500	0.519100	0.313300
H6781	H678	0.130500	0.571100	0.321700
H6791	H679	0.128700	0.626500	0.273900
H6801	H680	0.226400	0.575000	0.213400
H6811	H681	0.208500	0.717700	0.083500
H6821	H682	0.259100	0.610700	0.127100
H6831	H683	0.301000	0.611400	0.069000
H6841	H684	0.294200	0.665000	0.019200
H6851	H685	0.273600	0.739600	0.058600
H6861	H686	0.324100	0.731900	0.066100
H6871	H687	0.379500	0.728100	0.017500
H6881	H688	0.327400	0.745800	0.956000
H6891	H689	0.726200	0.977000	0.587000
H6901	H690	0.638200	0.944600	0.647800
H6911	H691	0.642600	0.940800	0.594800
H6921	H692	0.685300	0.960700	0.539700
H6931	H693	0.813300	0.988100	0.679500
H6941	H694	0.821700	0.976700	0.630500
H6951	H695	0.773900	0.970900	0.628700
H6961	H696	0.713400	0.985200	0.726400
H6971	H697	0.583500	0.990300	0.708500
H6981	H698	0.627100	0.003100	0.759100
H6991	H699	0.569000	0.018600	0.801000
H7001	H700	0.519200	0.021600	0.794200
H7011	H701	0.558600	0.928200	0.773600
H7021	H702	0.566100	0.877900	0.824100
H7031	H703	0.517500	0.874900	0.879500
H7041	H704	0.456000	0.970800	0.827400
H7051	H705	0.477000	0.587000	0.226200
H7061	H706	0.444600	0.647800	0.138200
H7071	H707	0.440800	0.594800	0.142600
H7081	H708	0.460700	0.539700	0.185300
H7091	H709	0.488100	0.679500	0.313300
H7101	H710	0.476700	0.630500	0.321700
H7111	H711	0.470900	0.628700	0.273900
H7121	H712	0.485200	0.726400	0.213400
H7131	H713	0.490300	0.708500	0.083500
H7141	H714	0.503100	0.759100	0.127100
H7151	H715	0.518600	0.801000	0.069000
H7161	H716	0.521600	0.794200	0.019200
H7171	H717	0.428200	0.773600	0.058600
H7181	H718	0.377900	0.824100	0.066100
H7191	H719	0.374900	0.879500	0.017500
H7201	H720	0.470800	0.827400	0.956000
H7211	H721	0.209800	0.226200	0.587000
H7221	H722	0.269400	0.138200	0.647800
H7231	H723	0.321800	0.142600	0.594800
H7241	H724	0.314300	0.185300	0.539700
H7251	H725	0.019100	0.313300	0.679500
H7261	H726	0.071100	0.321700	0.630500
H7271	H727	0.126500	0.273900	0.628700
H7281	H728	0.075000	0.213400	0.726400
H7291	H729	0.217700	0.083500	0.708500
H7301	H730	0.110700	0.127100	0.759100
H7311	H731	0.111400	0.069000	0.801000
H7321	H732	0.165000	0.019200	0.794200
H7331	H733	0.239600	0.058600	0.773600
H7341	H734	0.231900	0.066100	0.824100
H7351	H735	0.228100	0.017500	0.879500
H7361	H736	0.245800	0.956000	0.827400
H7371	H737	0.726200	0.709800	0.977000
H7381	H738	0.638200	0.769400	0.944600
H7391	H739	0.642600	0.821800	0.940800
H7401	H740	0.685300	0.814300	0.960700
H7411	H741	0.813300	0.519100	0.988100
H7421	H742	0.821700	0.571100	0.976700
H7431	H743	0.773900	0.626500	0.970900
H7441	H744	0.713400	0.575000	0.985200
H7451	H745	0.583500	0.717700	0.990300
H7461	H746	0.627100	0.610700	0.003100
H7471	H747	0.569000	0.611400	0.018600
H7481	H748	0.519200	0.665000	0.021600
H7491	H749	0.558600	0.739600	0.928200
H7501	H750	0.566100	0.731900	0.877900
H7511	H751	0.517500	0.728100	0.874900
H7521	H752	0.456000	0.745800	0.970800
H7531	H753	0.087000	0.977000	0.709800
H7541	H754	0.147800	0.944600	0.769400
H7551	H755	0.094800	0.940800	0.821800
H7561	H756	0.039700	0.960700	0.814300
H7571	H757	0.179500	0.988100	0.519100
H7581	H758	0.130500	0.976700	0.571100
H7591	H759	0.128700	0.970900	0.626500
H7601	H760	0.226400	0.985200	0.575000
H7611	H761	0.208500	0.990300	0.717700
H7621	H762	0.259100	0.003100	0.610700
H7631	H763	0.301000	0.018600	0.611400
H7641	H764	0.294200	0.021600	0.665000
H7651	H765	0.273600	0.928200	0.739600
H7661	H766	0.324100	0.877900	0.731900
H7671	H767	0.379500	0.874900	0.728100
H7681	H768	0.327400	0.970800	0.745800
C11	C1	0.730270	0.836090	0.959730
C21	C2	0.798000	0.445280	0.204320
C31	C3	0.588370	0.708170	0.232590
C41	C4	0.621610	0.682330	0.234050
C51	C5	0.625060	0.656520	0.267500
C61	C6	0.593820	0.658700	0.298120
C71	C7	0.561090	0.684950	0.293310
C81	C8	0.679180	0.793880	0.041560
C91	C9	0.649810	0.799090	0.072410
C101	C10	0.648900	0.771060	0.104960
C111	C11	0.677720	0.738500	0.106080
C121	C12	0.706510	0.735490	0.074050
C131	C13	0.677460	0.706620	0.139780
C141	C14	0.703370	0.646810	0.167150
C151	C15	0.652170	0.680550	0.199890
C161	C16	0.727940	0.580500	0.195920
C171	C17	0.730380	0.611320	0.165180
C181	C18	0.757430	0.606890	0.132670
C191	C19	0.781580	0.572660	0.133000
C201	C20	0.777690	0.542970	0.165270
C211	C21	0.795600	0.538320	0.239380
C221	C22	0.825520	0.543280	0.234300
C231	C23	0.857940	0.514580	0.232540
C241	C24	0.858410	0.481490	0.237370
C251	C25	0.826780	0.478720	0.242800
C261	C26	0.891900	0.449620	0.236700
C271	C27	0.336090	0.230270	0.473910
C281	C28	0.945280	0.298000	0.552400
C291	C29	0.208170	0.088370	0.470870
C301	C30	0.182330	0.121610	0.462010
C311	C31	0.156520	0.125060	0.450920
C321	C32	0.158700	0.093820	0.449360
C331	C33	0.184950	0.061090	0.460650
C341	C34	0.293880	0.179180	0.485380
C351	C35	0.299090	0.149810	0.478690
C361	C36	0.271060	0.148900	0.475080
C371	C37	0.238500	0.177720	0.477700
C381	C38	0.235490	0.206510	0.483950
C391	C39	0.206620	0.177460	0.476140
C401	C40	0.146810	0.203370	0.482670
C411	C41	0.180550	0.152170	0.467390
C421	C42	0.080500	0.227940	0.495640
C431	C43	0.111320	0.230380	0.493120
C441	C44	0.106890	0.257430	0.503010
C451	C45	0.072660	0.281580	0.512760
C461	C46	0.042970	0.277690	0.514070
C471	C47	0.038320	0.295600	0.426700
C481	C48	0.043280	0.325520	0.396900
C491	C49	0.014580	0.357940	0.394940
C501	C50	0.981490	0.358410	0.422730
C511	C51	0.978720	0.326780	0.451700
C521	C52	0.949620	0.391900	0.421780
C531	C53	0.459730	0.473910	0.230270
C541	C54	0.704320	0.552400	0.298000
C551	C55	0.732590	0.470870	0.088370
C561	C56	0.734050	0.462010	0.121610
C571	C57	0.767500	0.450920	0.125060
C581	C58	0.798120	0.449360	0.093820
C591	C59	0.793310	0.460650	0.061090
C601	C60	0.541560	0.485380	0.179180
C611	C61	0.572410	0.478690	0.149810
C621	C62	0.604960	0.475080	0.148900
C631	C63	0.606080	0.477700	0.177720
C641	C64	0.574050	0.483950	0.206510
C651	C65	0.639780	0.476140	0.177460
C661	C66	0.667150	0.482670	0.203370
C671	C67	0.699890	0.467390	0.152170
C681	C68	0.695920	0.495640	0.227940
C691	C69	0.665180	0.493120	0.230380
C701	C70	0.632670	0.503010	0.257430
C711	C71	0.633000	0.512760	0.281580
C721	C72	0.665270	0.514070	0.277690
C731	C73	0.739380	0.426700	0.295600
C741	C74	0.734300	0.396900	0.325520
C751	C75	0.732540	0.394940	0.357940
C761	C76	0.737370	0.422730	0.358410
C771	C77	0.742800	0.451700	0.326780
C781	C78	0.736700	0.421780	0.391900
C791	C79	0.973910	0.959730	0.836090
C801	C80	0.052400	0.204320	0.445280
C811	C81	0.970870	0.232590	0.708170
C821	C82	0.962010	0.234050	0.682330
C831	C83	0.950920	0.267500	0.656520
C841	C84	0.949360	0.298120	0.658700
C851	C85	0.960650	0.293310	0.684950
C861	C86	0.985380	0.041560	0.793880
C871	C87	0.978690	0.072410	0.799090
C881	C88	0.975080	0.104960	0.771060
C891	C89	0.977700	0.106080	0.738500
C901	C90	0.983950	0.074050	0.735490
C911	C91	0.976140	0.139780	0.706620
C921	C92	0.982670	0.167150	0.646810
C931	C93	0.967390	0.199890	0.680550
C941	C94	0.995640	0.195920	0.580500
C951	C95	0.993120	0.165180	0.611320
C961	C96	0.003010	0.132670	0.606890
C971	C97	0.012760	0.133000	0.572660
C981	C98	0.014070	0.165270	0.542970
C991	C99	0.926700	0.239380	0.538320
C1001	C100	0.896900	0.234300	0.543280
C1011	C101	0.894940	0.232540	0.514580
C1021	C102	0.922730	0.237370	0.481490
C1031	C103	0.951700	0.242800	0.478720
C1041	C104	0.921780	0.236700	0.449620
C1051	C105	0.730270	0.959730	0.473910
C1061	C106	0.798000	0.204320	0.552400
C1071	C107	0.588370	0.232590	0.470870
C1081	C108	0.621610	0.234050	0.462010
C1091	C109	0.625060	0.267500	0.450920
C1101	C110	0.593820	0.298120	0.449360
C1111	C111	0.561090	0.293310	0.460650
C1121	C112	0.679180	0.041560	0.485380
C1131	C113	0.649810	0.072410	0.478690
C1141	C114	0.648900	0.104960	0.475080
C1151	C115	0.677720	0.106080	0.477700
C1161	C116	0.706510	0.074050	0.483950
C1171	C117	0.677460	0.139780	0.476140
C1181	C118	0.703370	0.167150	0.482670
C1191	C119	0.652170	0.199890	0.467390
C1201	C120	0.727940	0.195920	0.495640
C1211	C121	0.730380	0.165180	0.493120
C1221	C122	0.757430	0.132670	0.503010
C1231	C123	0.781580	0.133000	0.512760
C1241	C124	0.777690	0.165270	0.514070
C1251	C125	0.795600	0.239380	0.426700
C1261	C126	0.825520	0.234300	0.396900
C1271	C127	0.857940	0.232540	0.394940
C1281	C128	0.858410	0.237370	0.422730
C1291	C129	0.826780	0.242800	0.451700
C1301	C130	0.891900	0.236700	0.421780
C1311	C131	0.336090	0.473910	0.959730
C1321	C132	0.945280	0.552400	0.204320
C1331	C133	0.208170	0.470870	0.232590
C1341	C134	0.182330	0.462010	0.234050
C1351	C135	0.156520	0.450920	0.267500
C1361	C136	0.158700	0.449360	0.298120
C1371	C137	0.184950	0.460650	0.293310
C1381	C138	0.293880	0.485380	0.041560
C1391	C139	0.299090	0.478690	0.072410
C1401	C140	0.271060	0.475080	0.104960
C1411	C141	0.238500	0.477700	0.106080
C1421	C142	0.235490	0.483950	0.074050
C1431	C143	0.206620	0.476140	0.139780
C1441	C144	0.146810	0.482670	0.167150
C1451	C145	0.180550	0.467390	0.199890
C1461	C146	0.080500	0.495640	0.195920
C1471	C147	0.111320	0.493120	0.165180
C1481	C148	0.106890	0.503010	0.132670
C1491	C149	0.072660	0.512760	0.133000
C1501	C150	0.042970	0.514070	0.165270
C1511	C151	0.038320	0.426700	0.239380
C1521	C152	0.043280	0.396900	0.234300
C1531	C153	0.014580	0.394940	0.232540
C1541	C154	0.981490	0.422730	0.237370
C1551	C155	0.978720	0.451700	0.242800
C1561	C156	0.949620	0.421780	0.236700
C1571	C157	0.459730	0.230270	0.836090
C1581	C158	0.704320	0.298000	0.445280
C1591	C159	0.732590	0.088370	0.708170
C1601	C160	0.734050	0.121610	0.682330
C1611	C161	0.767500	0.125060	0.656520
C1621	C162	0.798120	0.093820	0.658700
C1631	C163	0.793310	0.061090	0.684950
C1641	C164	0.541560	0.179180	0.793880
C1651	C165	0.572410	0.149810	0.799090
C1661	C166	0.604960	0.148900	0.771060
C1671	C167	0.606080	0.177720	0.738500
C1681	C168	0.574050	0.206510	0.735490
C1691	C169	0.639780	0.177460	0.706620
C1701	C170	0.667150	0.203370	0.646810
C1711	C171	0.699890	0.152170	0.680550
C1721	C172	0.695920	0.227940	0.580500
C1731	C173	0.665180	0.230380	0.611320
C1741	C174	0.632670	0.257430	0.606890
C1751	C175	0.633000	0.281580	0.572660
C1761	C176	0.665270	0.277690	0.542970
C1771	C177	0.739380	0.295600	0.538320
C1781	C178	0.734300	0.325520	0.543280
C1791	C179	0.732540	0.357940	0.514580
C1801	C180	0.737370	0.358410	0.481490
C1811	C181	0.742800	0.326780	0.478720
C1821	C182	0.736700	0.391900	0.449620
C1831	C183	0.973910	0.836090	0.230270
C1841	C184	0.052400	0.445280	0.298000
C1851	C185	0.970870	0.708170	0.088370
C1861	C186	0.962010	0.682330	0.121610
C1871	C187	0.950920	0.656520	0.125060
C1881	C188	0.949360	0.658700	0.093820
C1891	C189	0.960650	0.684950	0.061090
C1901	C190	0.985380	0.793880	0.179180
C1911	C191	0.978690	0.799090	0.149810
C1921	C192	0.975080	0.771060	0.148900
C1931	C193	0.977700	0.738500	0.177720
C1941	C194	0.983950	0.735490	0.206510
C1951	C195	0.976140	0.706620	0.177460
C1961	C196	0.982670	0.646810	0.203370
C1971	C197	0.967390	0.680550	0.152170
C1981	C198	0.995640	0.580500	0.227940
C1991	C199	0.993120	0.611320	0.230380
C2001	C200	0.003010	0.606890	0.257430
C2011	C201	0.012760	0.572660	0.281580
C2021	C202	0.014070	0.542970	0.277690
C2031	C203	0.926700	0.538320	0.295600
C2041	C204	0.896900	0.543280	0.325520
C2051	C205	0.894940	0.514580	0.357940
C2061	C206	0.922730	0.481490	0.358410
C2071	C207	0.951700	0.478720	0.326780
C2081	C208	0.921780	0.449620	0.391900
C2091	C209	0.730270	0.473910	0.836090
C2101	C210	0.798000	0.552400	0.445280
C2111	C211	0.588370	0.470870	0.708170
C2121	C212	0.621610	0.462010	0.682330
C2131	C213	0.625060	0.450920	0.656520
C2141	C214	0.593820	0.449360	0.658700
C2151	C215	0.561090	0.460650	0.684950
C2161	C216	0.679180	0.485380	0.793880
C2171	C217	0.649810	0.478690	0.799090
C2181	C218	0.648900	0.475080	0.771060
C2191	C219	0.677720	0.477700	0.738500
C2201	C220	0.706510	0.483950	0.735490
C2211	C221	0.677460	0.476140	0.706620
C2221	C222	0.703370	0.482670	0.646810
C2231	C223	0.652170	0.467390	0.680550
C2241	C224	0.727940	0.495640	0.580500
C2251	C225	0.730380	0.493120	0.611320
C2261	C226	0.757430	0.503010	0.606890
C2271	C227	0.781580	0.512760	0.572660
C2281	C228	0.777690	0.514070	0.542970
C2291	C229	0.795600	0.426700	0.538320
C2301	C230	0.825520	0.396900	0.543280
C2311	C231	0.857940	0.394940	0.514580
C2321	C232	0.858410	0.422730	0.481490
C2331	C233	0.826780	0.451700	0.478720
C2341	C234	0.891900	0.421780	0.449620
C2351	C235	0.336090	0.959730	0.230270
C2361	C236	0.945280	0.204320	0.298000
C2371	C237	0.208170	0.232590	0.088370
C2381	C238	0.182330	0.234050	0.121610
C2391	C239	0.156520	0.267500	0.125060
C2401	C240	0.158700	0.298120	0.093820
C2411	C241	0.184950	0.293310	0.061090
C2421	C242	0.293880	0.041560	0.179180
C2431	C243	0.299090	0.072410	0.149810
C2441	C244	0.271060	0.104960	0.148900
C2451	C245	0.238500	0.106080	0.177720
C2461	C246	0.235490	0.074050	0.206510
C2471	C247	0.206620	0.139780	0.177460
C2481	C248	0.146810	0.167150	0.203370
C2491	C249	0.180550	0.199890	0.152170
C2501	C250	0.080500	0.195920	0.227940
C2511	C251	0.111320	0.165180	0.230380
C2521	C252	0.106890	0.132670	0.257430
C2531	C253	0.072660	0.133000	0.281580
C2541	C254	0.042970	0.165270	0.277690
C2551	C255	0.038320	0.239380	0.295600
C2561	C256	0.043280	0.234300	0.325520
C2571	C257	0.014580	0.232540	0.357940
C2581	C258	0.981490	0.237370	0.358410
C2591	C259	0.978720	0.242800	0.326780
C2601	C260	0.949620	0.236700	0.391900
C2611	C261	0.459730	0.836090	0.473910
C2621	C262	0.704320	0.445280	0.552400
C2631	C263	0.732590	0.708170	0.470870
C2641	C264	0.734050	0.682330	0.462010
C2651	C265	0.767500	0.656520	0.450920
C2661	C266	0.798120	0.658700	0.449360
C2671	C267	0.793310	0.684950	0.460650
C2681	C268	0.541560	0.793880	0.485380
C2691	C269	0.572410	0.799090	0.478690
C2701	C270	0.604960	0.771060	0.475080
C2711	C271	0.606080	0.738500	0.477700
C2721	C272	0.574050	0.735490	0.483950
C2731	C273	0.639780	0.706620	0.476140
C2741	C274	0.667150	0.646810	0.482670
C2751	C275	0.699890	0.680550	0.467390
C2761	C276	0.695920	0.580500	0.495640
C2771	C277	0.665180	0.611320	0.493120
C2781	C278	0.632670	0.606890	0.503010
C2791	C279	0.633000	0.572660	0.512760
C2801	C280	0.665270	0.542970	0.514070
C2811	C281	0.739380	0.538320	0.426700
C2821	C282	0.734300	0.543280	0.396900
C2831	C283	0.732540	0.514580	0.394940
C2841	C284	0.737370	0.481490	0.422730
C2851	C285	0.742800	0.478720	0.451700
C2861	C286	0.736700	0.449620	0.421780
C2871	C287	0.973910	0.230270	0.959730
C2881	C288	0.052400	0.298000	0.204320
C2891	C289	0.970870	0.088370	0.232590
C2901	C290	0.962010	0.121610	0.234050
C2911	C291	0.950920	0.125060	0.267500
C2921	C292	0.949360	0.093820	0.298120
C2931	C293	0.960650	0.061090	0.293310
C2941	C294	0.985380	0.179180	0.041560
C2951	C295	0.978690	0.149810	0.072410
C2961	C296	0.975080	0.148900	0.104960
C2971	C297	0.977700	0.177720	0.106080
C2981	C298	0.983950	0.206510	0.074050
C2991	C299	0.976140	0.177460	0.139780
C3001	C300	0.982670	0.203370	0.167150
C3011	C301	0.967390	0.152170	0.199890
C3021	C302	0.995640	0.227940	0.195920
C3031	C303	0.993120	0.230380	0.165180
C3041	C304	0.003010	0.257430	0.132670
C3051	C305	0.012760	0.281580	0.133000
C3061	C306	0.014070	0.277690	0.165270
C3071	C307	0.926700	0.295600	0.239380
C3081	C308	0.896900	0.325520	0.234300
C3091	C309	0.894940	0.357940	0.232540
C3101	C310	0.922730	0.358410	0.237370
C3111	C311	0.951700	0.326780	0.242800
C3121	C312	0.921780	0.391900	0.236700
C3131	C313	0.163910	0.269730	0.540270
C3141	C314	0.554720	0.202000	0.295680
C3151	C315	0.291830	0.411630	0.267410
C3161	C316	0.317670	0.378390	0.265950
C3171	C317	0.343480	0.374940	0.232500
C3181	C318	0.341300	0.406180	0.201880
C3191	C319	0.315050	0.438910	0.206690
C3201	C320	0.206120	0.320820	0.458440
C3211	C321	0.200910	0.350190	0.427590
C3221	C322	0.228940	0.351100	0.395040
C3231	C323	0.261500	0.322280	0.393920
C3241	C324	0.264510	0.293490	0.425950
C3251	C325	0.293380	0.322540	0.360220
C3261	C326	0.353190	0.296630	0.332850
C3271	C327	0.319450	0.347830	0.300110
C3281	C328	0.419500	0.272060	0.304080
C3291	C329	0.388680	0.269620	0.334820
C3301	C330	0.393110	0.242570	0.367330
C3311	C331	0.427340	0.218420	0.367000
C3321	C332	0.457030	0.222310	0.334730
C3331	C333	0.461680	0.204400	0.260620
C3341	C334	0.456720	0.174480	0.265700
C3351	C335	0.485420	0.142060	0.267460
C3361	C336	0.518510	0.141590	0.262630
C3371	C337	0.521280	0.173220	0.257200
C3381	C338	0.550380	0.108100	0.263300
C3391	C339	0.769730	0.663910	0.026090
C3401	C340	0.702000	0.054720	0.947600
C3411	C341	0.911630	0.791830	0.029130
C3421	C342	0.878390	0.817670	0.037990
C3431	C343	0.874940	0.843480	0.049080
C3441	C344	0.906180	0.841300	0.050640
C3451	C345	0.938910	0.815050	0.039350
C3461	C346	0.820820	0.706120	0.014620
C3471	C347	0.850190	0.700910	0.021310
C3481	C348	0.851100	0.728940	0.024920
C3491	C349	0.822280	0.761500	0.022300
C3501	C350	0.793490	0.764510	0.016050
C3511	C351	0.822540	0.793380	0.023860
C3521	C352	0.796630	0.853190	0.017330
C3531	C353	0.847830	0.819450	0.032610
C3541	C354	0.772060	0.919500	0.004360
C3551	C355	0.769620	0.888680	0.006880
C3561	C356	0.742570	0.893110	0.996990
C3571	C357	0.718420	0.927340	0.987240
C3581	C358	0.722310	0.957030	0.985930
C3591	C359	0.704400	0.961680	0.073300
C3601	C360	0.674480	0.956720	0.103100
C3611	C361	0.642060	0.985420	0.105060
C3621	C362	0.641590	0.018510	0.077270
C3631	C363	0.673220	0.021280	0.048300
C3641	C364	0.608100	0.050380	0.078220
C3651	C365	0.526090	0.540270	0.269730
C3661	C366	0.447600	0.295680	0.202000
C3671	C367	0.529130	0.267410	0.411630
C3681	C368	0.537990	0.265950	0.378390
C3691	C369	0.549080	0.232500	0.374940
C3701	C370	0.550640	0.201880	0.406180
C3711	C371	0.539350	0.206690	0.438910
C3721	C372	0.514620	0.458440	0.320820
C3731	C373	0.521310	0.427590	0.350190
C3741	C374	0.524920	0.395040	0.351100
C3751	C375	0.522300	0.393920	0.322280
C3761	C376	0.516050	0.425950	0.293490
C3771	C377	0.523860	0.360220	0.322540
C3781	C378	0.517330	0.332850	0.296630
C3791	C379	0.532610	0.300110	0.347830
C3801	C380	0.504360	0.304080	0.272060
C3811	C381	0.506880	0.334820	0.269620
C3821	C382	0.496990	0.367330	0.242570
C3831	C383	0.487240	0.367000	0.218420
C3841	C384	0.485930	0.334730	0.222310
C3851	C385	0.573300	0.260620	0.204400
C3861	C386	0.603100	0.265700	0.174480
C3871	C387	0.605060	0.267460	0.142060
C3881	C388	0.577270	0.262630	0.141590
C3891	C389	0.548300	0.257200	0.173220
C3901	C390	0.578220	0.263300	0.108100
C3911	C391	0.040270	0.026090	0.663910
C3921	C392	0.795680	0.947600	0.054720
C3931	C393	0.767410	0.029130	0.791830
C3941	C394	0.765950	0.037990	0.817670
C3951	C395	0.732500	0.049080	0.843480
C3961	C396	0.701880	0.050640	0.841300
C3971	C397	0.706690	0.039350	0.815050
C3981	C398	0.958440	0.014620	0.706120
C3991	C399	0.927590	0.021310	0.700910
C4001	C400	0.895040	0.024920	0.728940
C4011	C401	0.893920	0.022300	0.761500
C4021	C402	0.925950	0.016050	0.764510
C4031	C403	0.860220	0.023860	0.793380
C4041	C404	0.832850	0.017330	0.853190
C4051	C405	0.800110	0.032610	0.819450
C4061	C406	0.804080	0.004360	0.919500
C4071	C407	0.834820	0.006880	0.888680
C4081	C408	0.867330	0.996990	0.893110
C4091	C409	0.867000	0.987240	0.927340
C4101	C410	0.834730	0.985930	0.957030
C4111	C411	0.760620	0.073300	0.961680
C4121	C412	0.765700	0.103100	0.956720
C4131	C413	0.767460	0.105060	0.985420
C4141	C414	0.762630	0.077270	0.018510
C4151	C415	0.757200	0.048300	0.021280
C4161	C416	0.763300	0.078220	0.050380
C4171	C417	0.040270	0.269730	0.026090
C4181	C418	0.795680	0.202000	0.947600
C4191	C419	0.767410	0.411630	0.029130
C4201	C420	0.765950	0.378390	0.037990
C4211	C421	0.732500	0.374940	0.049080
C4221	C422	0.701880	0.406180	0.050640
C4231	C423	0.706690	0.438910	0.039350
C4241	C424	0.958440	0.320820	0.014620
C4251	C425	0.927590	0.350190	0.021310
C4261	C426	0.895040	0.351100	0.024920
C4271	C427	0.893920	0.322280	0.022300
C4281	C428	0.925950	0.293490	0.016050
C4291	C429	0.860220	0.322540	0.023860
C4301	C430	0.832850	0.296630	0.017330
C4311	C431	0.800110	0.347830	0.032610
C4321	C432	0.804080	0.272060	0.004360
C4331	C433	0.834820	0.269620	0.006880
C4341	C434	0.867330	0.242570	0.996990
C4351	C435	0.867000	0.218420	0.987240
C4361	C436	0.834730	0.222310	0.985930
C4371	C437	0.760620	0.204400	0.073300
C4381	C438	0.765700	0.174480	0.103100
C4391	C439	0.767460	0.142060	0.105060
C4401	C440	0.762630	0.141590	0.077270
C4411	C441	0.757200	0.173220	0.048300
C4421	C442	0.763300	0.108100	0.078220
C4431	C443	0.526090	0.663910	0.540270
C4441	C444	0.447600	0.054720	0.295680
C4451	C445	0.529130	0.791830	0.267410
C4461	C446	0.537990	0.817670	0.265950
C4471	C447	0.549080	0.843480	0.232500
C4481	C448	0.550640	0.841300	0.201880
C4491	C449	0.539350	0.815050	0.206690
C4501	C450	0.514620	0.706120	0.458440
C4511	C451	0.521310	0.700910	0.427590
C4521	C452	0.524920	0.728940	0.395040
C4531	C453	0.522300	0.761500	0.393920
C4541	C454	0.516050	0.764510	0.425950
C4551	C455	0.523860	0.793380	0.360220
C4561	C456	0.517330	0.853190	0.332850
C4571	C457	0.532610	0.819450	0.300110
C4581	C458	0.504360	0.919500	0.304080
C4591	C459	0.506880	0.888680	0.334820
C4601	C460	0.496990	0.893110	0.367330
C4611	C461	0.487240	0.927340	0.367000
C4621	C462	0.485930	0.957030	0.334730
C4631	C463	0.573300	0.961680	0.260620
C4641	C464	0.603100	0.956720	0.265700
C4651	C465	0.605060	0.985420	0.267460
C4661	C466	0.577270	0.018510	0.262630
C4671	C467	0.548300	0.021280	0.257200
C4681	C468	0.578220	0.050380	0.263300
C4691	C469	0.769730	0.540270	0.663910
C4701	C470	0.702000	0.295680	0.054720
C4711	C471	0.911630	0.267410	0.791830
C4721	C472	0.878390	0.265950	0.817670
C4731	C473	0.874940	0.232500	0.843480
C4741	C474	0.906180	0.201880	0.841300
C4751	C475	0.938910	0.206690	0.815050
C4761	C476	0.820820	0.458440	0.706120
C4771	C477	0.850190	0.427590	0.700910
C4781	C478	0.851100	0.395040	0.728940
C4791	C479	0.822280	0.393920	0.761500
C4801	C480	0.793490	0.425950	0.764510
C4811	C481	0.822540	0.360220	0.793380
C4821	C482	0.796630	0.332850	0.853190
C4831	C483	0.847830	0.300110	0.819450
C4841	C484	0.772060	0.304080	0.919500
C4851	C485	0.769620	0.334820	0.888680
C4861	C486	0.742570	0.367330	0.893110
C4871	C487	0.718420	0.367000	0.927340
C4881	C488	0.722310	0.334730	0.957030
C4891	C489	0.704400	0.260620	0.961680
C4901	C490	0.674480	0.265700	0.956720
C4911	C491	0.642060	0.267460	0.985420
C4921	C492	0.641590	0.262630	0.018510
C4931	C493	0.673220	0.257200	0.021280
C4941	C494	0.608100	0.263300	0.050380
C4951	C495	0.163910	0.026090	0.269730
C4961	C496	0.554720	0.947600	0.202000
C4971	C497	0.291830	0.029130	0.411630
C4981	C498	0.317670	0.037990	0.378390
C4991	C499	0.343480	0.049080	0.374940
C5001	C500	0.341300	0.050640	0.406180
C5011	C501	0.315050	0.039350	0.438910
C5021	C502	0.206120	0.014620	0.320820
C5031	C503	0.200910	0.021310	0.350190
C5041	C504	0.228940	0.024920	0.351100
C5051	C505	0.261500	0.022300	0.322280
C5061	C506	0.264510	0.016050	0.293490
C5071	C507	0.293380	0.023860	0.322540
C5081	C508	0.353190	0.017330	0.296630
C5091	C509	0.319450	0.032610	0.347830
C5101	C510	0.419500	0.004360	0.272060
C5111	C511	0.388680	0.006880	0.269620
C5121	C512	0.393110	0.996990	0.242570
C5131	C513	0.427340	0.987240	0.218420
C5141	C514	0.457030	0.985930	0.222310
C5151	C515	0.461680	0.073300	0.204400
C5161	C516	0.456720	0.103100	0.174480
C5171	C517	0.485420	0.105060	0.142060
C5181	C518	0.518510	0.077270	0.141590
C5191	C519	0.521280	0.048300	0.173220
C5201	C520	0.550380	0.078220	0.108100
C5211	C521	0.526090	0.269730	0.663910
C5221	C522	0.447600	0.202000	0.054720
C5231	C523	0.529130	0.411630	0.791830
C5241	C524	0.537990	0.378390	0.817670
C5251	C525	0.549080	0.374940	0.843480
C5261	C526	0.550640	0.406180	0.841300
C5271	C527	0.539350	0.438910	0.815050
C5281	C528	0.514620	0.320820	0.706120
C5291	C529	0.521310	0.350190	0.700910
C5301	C530	0.524920	0.351100	0.728940
C5311	C531	0.522300	0.322280	0.761500
C5321	C532	0.516050	0.293490	0.764510
C5331	C533	0.523860	0.322540	0.793380
C5341	C534	0.517330	0.296630	0.853190
C5351	C535	0.532610	0.347830	0.819450
C5361	C536	0.504360	0.272060	0.919500
C5371	C537	0.506880	0.269620	0.888680
C5381	C538	0.496990	0.242570	0.893110
C5391	C539	0.487240	0.218420	0.927340
C5401	C540	0.485930	0.222310	0.957030
C5411	C541	0.573300	0.204400	0.961680
C5421	C542	0.603100	0.174480	0.956720
C5431	C543	0.605060	0.142060	0.985420
C5441	C544	0.577270	0.141590	0.018510
C5451	C545	0.548300	0.173220	0.021280
C5461	C546	0.578220	0.108100	0.050380
C5471	C547	0.040270	0.663910	0.269730
C5481	C548	0.795680	0.054720	0.202000
C5491	C549	0.767410	0.791830	0.411630
C5501	C550	0.765950	0.817670	0.378390
C5511	C551	0.732500	0.843480	0.374940
C5521	C552	0.701880	0.841300	0.406180
C5531	C553	0.706690	0.815050	0.438910
C5541	C554	0.958440	0.706120	0.320820
C5551	C555	0.927590	0.700910	0.350190
C5561	C556	0.895040	0.728940	0.351100
C5571	C557	0.893920	0.761500	0.322280
C5581	C558	0.925950	0.764510	0.293490
C5591	C559	0.860220	0.793380	0.322540
C5601	C560	0.832850	0.853190	0.296630
C5611	C561	0.800110	0.819450	0.347830
C5621	C562	0.804080	0.919500	0.272060
C5631	C563	0.834820	0.888680	0.269620
C5641	C564	0.867330	0.893110	0.242570
C5651	C565	0.867000	0.927340	0.218420
C5661	C566	0.834730	0.957030	0.222310
C5671	C567	0.760620	0.961680	0.204400
C5681	C568	0.765700	0.956720	0.174480
C5691	C569	0.767460	0.985420	0.142060
C5701	C570	0.762630	0.018510	0.141590
C5711	C571	0.757200	0.021280	0.173220
C5721	C572	0.763300	0.050380	0.108100
C5731	C573	0.163910	0.540270	0.026090
C5741	C574	0.554720	0.295680	0.947600
C5751	C575	0.291830	0.267410	0.029130
C5761	C576	0.317670	0.265950	0.037990
C5771	C577	0.343480	0.232500	0.049080
C5781	C578	0.341300	0.201880	0.050640
C5791	C579	0.315050	0.206690	0.039350
C5801	C580	0.206120	0.458440	0.014620
C5811	C581	0.200910	0.427590	0.021310
C5821	C582	0.228940	0.395040	0.024920
C5831	C583	0.261500	0.393920	0.022300
C5841	C584	0.264510	0.425950	0.016050
C5851	C585	0.293380	0.360220	0.023860
C5861	C586	0.353190	0.332850	0.017330
C5871	C587	0.319450	0.300110	0.032610
C5881	C588	0.419500	0.304080	0.004360
C5891	C589	0.388680	0.334820	0.006880
C5901	C590	0.393110	0.367330	0.996990
C5911	C591	0.427340	0.367000	0.987240
C5921	C592	0.457030	0.334730	0.985930
C5931	C593	0.461680	0.260620	0.073300
C5941	C594	0.456720	0.265700	0.103100
C5951	C595	0.485420	0.267460	0.105060
C5961	C596	0.518510	0.262630	0.077270
C5971	C597	0.521280	0.257200	0.048300
C5981	C598	0.550380	0.263300	0.078220
C5991	C599	0.769730	0.026090	0.540270
C6001	C600	0.702000	0.947600	0.295680
C6011	C601	0.911630	0.029130	0.267410
C6021	C602	0.878390	0.037990	0.265950
C6031	C603	0.874940	0.049080	0.232500
C6041	C604	0.906180	0.050640	0.201880
C6051	C605	0.938910	0.039350	0.206690
C6061	C606	0.820820	0.014620	0.458440
C6071	C607	0.850190	0.021310	0.427590
C6081	C608	0.851100	0.024920	0.395040
C6091	C609	0.822280	0.022300	0.393920
C6101	C610	0.793490	0.016050	0.425950
C6111	C611	0.822540	0.023860	0.360220
C6121	C612	0.796630	0.017330	0.332850
C6131	C613	0.847830	0.032610	0.300110
C6141	C614	0.772060	0.004360	0.304080
C6151	C615	0.769620	0.006880	0.334820
C6161	C616	0.742570	0.996990	0.367330
C6171	C617	0.718420	0.987240	0.367000
C6181	C618	0.722310	0.985930	0.334730
C6191	C619	0.704400	0.073300	0.260620
C6201	C620	0.674480	0.103100	0.265700
C6211	C621	0.642060	0.105060	0.267460
C6221	C622	0.641590	0.077270	0.262630
C6231	C623	0.673220	0.048300	0.257200
C6241	C624	0.608100	0.078220	0.263300
C6251	C625	0.269730	0.163910	0.040270
C6261	C626	0.202000	0.554720	0.795680
C6271	C627	0.411630	0.291830	0.767410
C6281	C628	0.378390	0.317670	0.765950
C6291	C629	0.374940	0.343480	0.732500
C6301	C630	0.406180	0.341300	0.701880
C6311	C631	0.438910	0.315050	0.706690
C6321	C632	0.320820	0.206120	0.958440
C6331	C633	0.350190	0.200910	0.927590
C6341	C634	0.351100	0.228940	0.895040
C6351	C635	0.322280	0.261500	0.893920
C6361	C636	0.293490	0.264510	0.925950
C6371	C637	0.322540	0.293380	0.860220
C6381	C638	0.296630	0.353190	0.832850
C6391	C639	0.347830	0.319450	0.800110
C6401	C640	0.272060	0.419500	0.804080
C6411	C641	0.269620	0.388680	0.834820
C6421	C642	0.242570	0.393110	0.867330
C6431	C643	0.218420	0.427340	0.867000
C6441	C644	0.222310	0.457030	0.834730
C6451	C645	0.204400	0.461680	0.760620
C6461	C646	0.174480	0.456720	0.765700
C6471	C647	0.142060	0.485420	0.767460
C6481	C648	0.141590	0.518510	0.762630
C6491	C649	0.173220	0.521280	0.757200
C6501	C650	0.108100	0.550380	0.763300
C6511	C651	0.663910	0.769730	0.526090
C6521	C652	0.054720	0.702000	0.447600
C6531	C653	0.791830	0.911630	0.529130
C6541	C654	0.817670	0.878390	0.537990
C6551	C655	0.843480	0.874940	0.549080
C6561	C656	0.841300	0.906180	0.550640
C6571	C657	0.815050	0.938910	0.539350
C6581	C658	0.706120	0.820820	0.514620
C6591	C659	0.700910	0.850190	0.521310
C6601	C660	0.728940	0.851100	0.524920
C6611	C661	0.761500	0.822280	0.522300
C6621	C662	0.764510	0.793490	0.516050
C6631	C663	0.793380	0.822540	0.523860
C6641	C664	0.853190	0.796630	0.517330
C6651	C665	0.819450	0.847830	0.532610
C6661	C666	0.919500	0.772060	0.504360
C6671	C667	0.888680	0.769620	0.506880
C6681	C668	0.893110	0.742570	0.496990
C6691	C669	0.927340	0.718420	0.487240
C6701	C670	0.957030	0.722310	0.485930
C6711	C671	0.961680	0.704400	0.573300
C6721	C672	0.956720	0.674480	0.603100
C6731	C673	0.985420	0.642060	0.605060
C6741	C674	0.018510	0.641590	0.577270
C6751	C675	0.021280	0.673220	0.548300
C6761	C676	0.050380	0.608100	0.578220
C6771	C677	0.540270	0.526090	0.769730
C6781	C678	0.295680	0.447600	0.702000
C6791	C679	0.267410	0.529130	0.911630
C6801	C680	0.265950	0.537990	0.878390
C6811	C681	0.232500	0.549080	0.874940
C6821	C682	0.201880	0.550640	0.906180
C6831	C683	0.206690	0.539350	0.938910
C6841	C684	0.458440	0.514620	0.820820
C6851	C685	0.427590	0.521310	0.850190
C6861	C686	0.395040	0.524920	0.851100
C6871	C687	0.393920	0.522300	0.822280
C6881	C688	0.425950	0.516050	0.793490
C6891	C689	0.360220	0.523860	0.822540
C6901	C690	0.332850	0.517330	0.796630
C6911	C691	0.300110	0.532610	0.847830
C6921	C692	0.304080	0.504360	0.772060
C6931	C693	0.334820	0.506880	0.769620
C6941	C694	0.367330	0.496990	0.742570
C6951	C695	0.367000	0.487240	0.718420
C6961	C696	0.334730	0.485930	0.722310
C6971	C697	0.260620	0.573300	0.704400
C6981	C698	0.265700	0.603100	0.674480
C6991	C699	0.267460	0.605060	0.642060
C7001	C700	0.262630	0.577270	0.641590
C7011	C701	0.257200	0.548300	0.673220
C7021	C702	0.263300	0.578220	0.608100
C7031	C703	0.026090	0.040270	0.163910
C7041	C704	0.947600	0.795680	0.554720
C7051	C705	0.029130	0.767410	0.291830
C7061	C706	0.037990	0.765950	0.317670
C7071	C707	0.049080	0.732500	0.343480
C7081	C708	0.050640	0.701880	0.341300
C7091	C709	0.039350	0.706690	0.315050
C7101	C710	0.014620	0.958440	0.206120
C7111	C711	0.021310	0.927590	0.200910
C7121	C712	0.024920	0.895040	0.228940
C7131	C713	0.022300	0.893920	0.261500
C7141	C714	0.016050	0.925950	0.264510
C7151	C715	0.023860	0.860220	0.293380
C7161	C716	0.017330	0.832850	0.353190
C7171	C717	0.032610	0.800110	0.319450
C7181	C718	0.004360	0.804080	0.419500
C7191	C719	0.006880	0.834820	0.388680
C7201	C720	0.996990	0.867330	0.393110
C7211	C721	0.987240	0.867000	0.427340
C7221	C722	0.985930	0.834730	0.457030
C7231	C723	0.073300	0.760620	0.461680
C7241	C724	0.103100	0.765700	0.456720
C7251	C725	0.105060	0.767460	0.485420
C7261	C726	0.077270	0.762630	0.518510
C7271	C727	0.048300	0.757200	0.521280
C7281	C728	0.078220	0.763300	0.550380
C7291	C729	0.269730	0.040270	0.526090
C7301	C730	0.202000	0.795680	0.447600
C7311	C731	0.411630	0.767410	0.529130
C7321	C732	0.378390	0.765950	0.537990
C7331	C733	0.374940	0.732500	0.549080
C7341	C734	0.406180	0.701880	0.550640
C7351	C735	0.438910	0.706690	0.539350
C7361	C736	0.320820	0.958440	0.514620
C7371	C737	0.350190	0.927590	0.521310
C7381	C738	0.351100	0.895040	0.524920
C7391	C739	0.322280	0.893920	0.522300
C7401	C740	0.293490	0.925950	0.516050
C7411	C741	0.322540	0.860220	0.523860
C7421	C742	0.296630	0.832850	0.517330
C7431	C743	0.347830	0.800110	0.532610
C7441	C744	0.272060	0.804080	0.504360
C7451	C745	0.269620	0.834820	0.506880
C7461	C746	0.242570	0.867330	0.496990
C7471	C747	0.218420	0.867000	0.487240
C7481	C748	0.222310	0.834730	0.485930
C7491	C749	0.204400	0.760620	0.573300
C7501	C750	0.174480	0.765700	0.603100
C7511	C751	0.142060	0.767460	0.605060
C7521	C752	0.141590	0.762630	0.577270
C7531	C753	0.173220	0.757200	0.548300
C7541	C754	0.108100	0.763300	0.578220
C7551	C755	0.663910	0.526090	0.040270
C7561	C756	0.054720	0.447600	0.795680
C7571	C757	0.791830	0.529130	0.767410
C7581	C758	0.817670	0.537990	0.765950
C7591	C759	0.843480	0.549080	0.732500
C7601	C760	0.841300	0.550640	0.701880
C7611	C761	0.815050	0.539350	0.706690
C7621	C762	0.706120	0.514620	0.958440
C7631	C763	0.700910	0.521310	0.927590
C7641	C764	0.728940	0.524920	0.895040
C7651	C765	0.761500	0.522300	0.893920
C7661	C766	0.764510	0.516050	0.925950
C7671	C767	0.793380	0.523860	0.860220
C7681	C768	0.853190	0.517330	0.832850
C7691	C769	0.819450	0.532610	0.800110
C7701	C770	0.919500	0.504360	0.804080
C7711	C771	0.888680	0.506880	0.834820
C7721	C772	0.893110	0.496990	0.867330
C7731	C773	0.927340	0.487240	0.867000
C7741	C774	0.957030	0.485930	0.834730
C7751	C775	0.961680	0.573300	0.760620
C7761	C776	0.956720	0.603100	0.765700
C7771	C777	0.985420	0.605060	0.767460
C7781	C778	0.018510	0.577270	0.762630
C7791	C779	0.021280	0.548300	0.757200
C7801	C780	0.050380	0.578220	0.763300
C7811	C781	0.540270	0.769730	0.163910
C7821	C782	0.295680	0.702000	0.554720
C7831	C783	0.267410	0.911630	0.291830
C7841	C784	0.265950	0.878390	0.317670
C7851	C785	0.232500	0.874940	0.343480
C7861	C786	0.201880	0.906180	0.341300
C7871	C787	0.206690	0.938910	0.315050
C7881	C788	0.458440	0.820820	0.206120
C7891	C789	0.427590	0.850190	0.200910
C7901	C790	0.395040	0.851100	0.228940
C7911	C791	0.393920	0.822280	0.261500
C7921	C792	0.425950	0.793490	0.264510
C7931	C793	0.360220	0.822540	0.293380
C7941	C794	0.332850	0.796630	0.353190
C7951	C795	0.300110	0.847830	0.319450
C7961	C796	0.304080	0.772060	0.419500
C7971	C797	0.334820	0.769620	0.388680
C7981	C798	0.367330	0.742570	0.393110
C7991	C799	0.367000	0.718420	0.427340
C8001	C800	0.334730	0.722310	0.457030
C8011	C801	0.260620	0.704400	0.461680
C8021	C802	0.265700	0.674480	0.456720
C8031	C803	0.267460	0.642060	0.485420
C8041	C804	0.262630	0.641590	0.518510
C8051	C805	0.257200	0.673220	0.521280
C8061	C806	0.263300	0.608100	0.550380
C8071	C807	0.026090	0.163910	0.769730
C8081	C808	0.947600	0.554720	0.702000
C8091	C809	0.029130	0.291830	0.911630
C8101	C810	0.037990	0.317670	0.878390
C8111	C811	0.049080	0.343480	0.874940
C8121	C812	0.050640	0.341300	0.906180
C8131	C813	0.039350	0.315050	0.938910
C8141	C814	0.014620	0.206120	0.820820
C8151	C815	0.021310	0.200910	0.850190
C8161	C816	0.024920	0.228940	0.851100
C8171	C817	0.022300	0.261500	0.822280
C8181	C818	0.016050	0.264510	0.793490
C8191	C819	0.023860	0.293380	0.822540
C8201	C820	0.017330	0.353190	0.796630
C8211	C821	0.032610	0.319450	0.847830
C8221	C822	0.004360	0.419500	0.772060
C8231	C823	0.006880	0.388680	0.769620
C8241	C824	0.996990	0.393110	0.742570
C8251	C825	0.987240	0.427340	0.718420
C8261	C826	0.985930	0.457030	0.722310
C8271	C827	0.073300	0.461680	0.704400
C8281	C828	0.103100	0.456720	0.674480
C8291	C829	0.105060	0.485420	0.642060
C8301	C830	0.077270	0.518510	0.641590
C8311	C831	0.048300	0.521280	0.673220
C8321	C832	0.078220	0.550380	0.608100
C8331	C833	0.269730	0.526090	0.163910
C8341	C834	0.202000	0.447600	0.554720
C8351	C835	0.411630	0.529130	0.291830
C8361	C836	0.378390	0.537990	0.317670
C8371	C837	0.374940	0.549080	0.343480
C8381	C838	0.406180	0.550640	0.341300
C8391	C839	0.438910	0.539350	0.315050
C8401	C840	0.320820	0.514620	0.206120
C8411	C841	0.350190	0.521310	0.200910
C8421	C842	0.351100	0.524920	0.228940
C8431	C843	0.322280	0.522300	0.261500
C8441	C844	0.293490	0.516050	0.264510
C8451	C845	0.322540	0.523860	0.293380
C8461	C846	0.296630	0.517330	0.353190
C8471	C847	0.347830	0.532610	0.319450
C8481	C848	0.272060	0.504360	0.419500
C8491	C849	0.269620	0.506880	0.388680
C8501	C850	0.242570	0.496990	0.393110
C8511	C851	0.218420	0.487240	0.427340
C8521	C852	0.222310	0.485930	0.457030
C8531	C853	0.204400	0.573300	0.461680
C8541	C854	0.174480	0.603100	0.456720
C8551	C855	0.142060	0.605060	0.485420
C8561	C856	0.141590	0.577270	0.518510
C8571	C857	0.173220	0.548300	0.521280
C8581	C858	0.108100	0.578220	0.550380
C8591	C859	0.663910	0.040270	0.769730
C8601	C860	0.054720	0.795680	0.702000
C8611	C861	0.791830	0.767410	0.911630
C8621	C862	0.817670	0.765950	0.878390
C8631	C863	0.843480	0.732500	0.874940
C8641	C864	0.841300	0.701880	0.906180
C8651	C865	0.815050	0.706690	0.938910
C8661	C866	0.706120	0.958440	0.820820
C8671	C867	0.700910	0.927590	0.850190
C8681	C868	0.728940	0.895040	0.851100
C8691	C869	0.761500	0.893920	0.822280
C8701	C870	0.764510	0.925950	0.793490
C8711	C871	0.793380	0.860220	0.822540
C8721	C872	0.853190	0.832850	0.796630
C8731	C873	0.819450	0.800110	0.847830
C8741	C874	0.919500	0.804080	0.772060
C8751	C875	0.888680	0.834820	0.769620
C8761	C876	0.893110	0.867330	0.742570
C8771	C877	0.927340	0.867000	0.718420
C8781	C878	0.957030	0.834730	0.722310
C8791	C879	0.961680	0.760620	0.704400
C8801	C880	0.956720	0.765700	0.674480
C8811	C881	0.985420	0.767460	0.642060
C8821	C882	0.018510	0.762630	0.641590
C8831	C883	0.021280	0.757200	0.673220
C8841	C884	0.050380	0.763300	0.608100
C8851	C885	0.540270	0.163910	0.526090
C8861	C886	0.295680	0.554720	0.447600
C8871	C887	0.267410	0.291830	0.529130
C8881	C888	0.265950	0.317670	0.537990
C8891	C889	0.232500	0.343480	0.549080
C8901	C890	0.201880	0.341300	0.550640
C8911	C891	0.206690	0.315050	0.539350
C8921	C892	0.458440	0.206120	0.514620
C8931	C893	0.427590	0.200910	0.521310
C8941	C894	0.395040	0.228940	0.524920
C8951	C895	0.393920	0.261500	0.522300
C8961	C896	0.425950	0.264510	0.516050
C8971	C897	0.360220	0.293380	0.523860
C8981	C898	0.332850	0.353190	0.517330
C8991	C899	0.300110	0.319450	0.532610
C9001	C900	0.304080	0.419500	0.504360
C9011	C901	0.334820	0.388680	0.506880
C9021	C902	0.367330	0.393110	0.496990
C9031	C903	0.367000	0.427340	0.487240
C9041	C904	0.334730	0.457030	0.485930
C9051	C905	0.260620	0.461680	0.573300
C9061	C906	0.265700	0.456720	0.603100
C9071	C907	0.267460	0.485420	0.605060
C9081	C908	0.262630	0.518510	0.577270
C9091	C909	0.257200	0.521280	0.548300
C9101	C910	0.263300	0.550380	0.578220
C9111	C911	0.026090	0.769730	0.040270
C9121	C912	0.947600	0.702000	0.795680
C9131	C913	0.029130	0.911630	0.767410
C9141	C914	0.037990	0.878390	0.765950
C9151	C915	0.049080	0.874940	0.732500
C9161	C916	0.050640	0.906180	0.701880
C9171	C917	0.039350	0.938910	0.706690
C9181	C918	0.014620	0.820820	0.958440
C9191	C919	0.021310	0.850190	0.927590
C9201	C920	0.024920	0.851100	0.895040
C9211	C921	0.022300	0.822280	0.893920
C9221	C922	0.016050	0.793490	0.925950
C9231	C923	0.023860	0.822540	0.860220
C9241	C924	0.017330	0.796630	0.832850
C9251	C925	0.032610	0.847830	0.800110
C9261	C926	0.004360	0.772060	0.804080
C9271	C927	0.006880	0.769620	0.834820
C9281	C928	0.996990	0.742570	0.867330
C9291	C929	0.987240	0.718420	0.867000
C9301	C930	0.985930	0.722310	0.834730
C9311	C931	0.073300	0.704400	0.760620
C9321	C932	0.103100	0.674480	0.765700
C9331	C933	0.105060	0.642060	0.767460
C9341	C934	0.077270	0.641590	0.762630
C9351	C935	0.048300	0.673220	0.757200
C9361	C936	0.078220	0.608100	0.763300
C9371	C937	0.836090	0.730270	0.459730
C9381	C938	0.445280	0.798000	0.704320
C9391	C939	0.708170	0.588370	0.732590
C9401	C940	0.682330	0.621610	0.734050
C9411	C941	0.656520	0.625060	0.767500
C9421	C942	0.658700	0.593820	0.798120
C9431	C943	0.684950	0.561090	0.793310
C9441	C944	0.793880	0.679180	0.541560
C9451	C945	0.799090	0.649810	0.572410
C9461	C946	0.771060	0.648900	0.604960
C9471	C947	0.738500	0.677720	0.606080
C9481	C948	0.735490	0.706510	0.574050
C9491	C949	0.706620	0.677460	0.639780
C9501	C950	0.646810	0.703370	0.667150
C9511	C951	0.680550	0.652170	0.699890
C9521	C952	0.580500	0.727940	0.695920
C9531	C953	0.611320	0.730380	0.665180
C9541	C954	0.606890	0.757430	0.632670
C9551	C955	0.572660	0.781580	0.633000
C9561	C956	0.542970	0.777690	0.665270
C9571	C957	0.538320	0.795600	0.739380
C9581	C958	0.543280	0.825520	0.734300
C9591	C959	0.514580	0.857940	0.732540
C9601	C960	0.481490	0.858410	0.737370
C9611	C961	0.478720	0.826780	0.742800
C9621	C962	0.449620	0.891900	0.736700
C9631	C963	0.230270	0.336090	0.973910
C9641	C964	0.298000	0.945280	0.052400
C9651	C965	0.088370	0.208170	0.970870
C9661	C966	0.121610	0.182330	0.962010
C9671	C967	0.125060	0.156520	0.950920
C9681	C968	0.093820	0.158700	0.949360
C9691	C969	0.061090	0.184950	0.960650
C9701	C970	0.179180	0.293880	0.985380
C9711	C971	0.149810	0.299090	0.978690
C9721	C972	0.148900	0.271060	0.975080
C9731	C973	0.177720	0.238500	0.977700
C9741	C974	0.206510	0.235490	0.983950
C9751	C975	0.177460	0.206620	0.976140
C9761	C976	0.203370	0.146810	0.982670
C9771	C977	0.152170	0.180550	0.967390
C9781	C978	0.227940	0.080500	0.995640
C9791	C979	0.230380	0.111320	0.993120
C9801	C980	0.257430	0.106890	0.003010
C9811	C981	0.281580	0.072660	0.012760
C9821	C982	0.277690	0.042970	0.014070
C9831	C983	0.295600	0.038320	0.926700
C9841	C984	0.325520	0.043280	0.896900
C9851	C985	0.357940	0.014580	0.894940
C9861	C986	0.358410	0.981490	0.922730
C9871	C987	0.326780	0.978720	0.951700
C9881	C988	0.391900	0.949620	0.921780
C9891	C989	0.473910	0.459730	0.730270
C9901	C990	0.552400	0.704320	0.798000
C9911	C991	0.470870	0.732590	0.588370
C9921	C992	0.462010	0.734050	0.621610
C9931	C993	0.450920	0.767500	0.625060
C9941	C994	0.449360	0.798120	0.593820
C9951	C995	0.460650	0.793310	0.561090
C9961	C996	0.485380	0.541560	0.679180
C9971	C997	0.478690	0.572410	0.649810
C9981	C998	0.475080	0.604960	0.648900
C9991	C999	0.477700	0.606080	0.677720
C10001	C1000	0.483950	0.574050	0.706510
C10011	C1001	0.476140	0.639780	0.677460
C10021	C1002	0.482670	0.667150	0.703370
C10031	C1003	0.467390	0.699890	0.652170
C10041	C1004	0.495640	0.695920	0.727940
C10051	C1005	0.493120	0.665180	0.730380
C10061	C1006	0.503010	0.632670	0.757430
C10071	C1007	0.512760	0.633000	0.781580
C10081	C1008	0.514070	0.665270	0.777690
C10091	C1009	0.426700	0.739380	0.795600
C10101	C1010	0.396900	0.734300	0.825520
C10111	C1011	0.394940	0.732540	0.857940
C10121	C1012	0.422730	0.737370	0.858410
C10131	C1013	0.451700	0.742800	0.826780
C10141	C1014	0.421780	0.736700	0.891900
C10151	C1015	0.959730	0.973910	0.336090
C10161	C1016	0.204320	0.052400	0.945280
C10171	C1017	0.232590	0.970870	0.208170
C10181	C1018	0.234050	0.962010	0.182330
C10191	C1019	0.267500	0.950920	0.156520
C10201	C1020	0.298120	0.949360	0.158700
C10211	C1021	0.293310	0.960650	0.184950
C10221	C1022	0.041560	0.985380	0.293880
C10231	C1023	0.072410	0.978690	0.299090
C10241	C1024	0.104960	0.975080	0.271060
C10251	C1025	0.106080	0.977700	0.238500
C10261	C1026	0.074050	0.983950	0.235490
C10271	C1027	0.139780	0.976140	0.206620
C10281	C1028	0.167150	0.982670	0.146810
C10291	C1029	0.199890	0.967390	0.180550
C10301	C1030	0.195920	0.995640	0.080500
C10311	C1031	0.165180	0.993120	0.111320
C10321	C1032	0.132670	0.003010	0.106890
C10331	C1033	0.133000	0.012760	0.072660
C10341	C1034	0.165270	0.014070	0.042970
C10351	C1035	0.239380	0.926700	0.038320
C10361	C1036	0.234300	0.896900	0.043280
C10371	C1037	0.232540	0.894940	0.014580
C10381	C1038	0.237370	0.922730	0.981490
C10391	C1039	0.242800	0.951700	0.978720
C10401	C1040	0.236700	0.921780	0.949620
C10411	C1041	0.959730	0.730270	0.973910
C10421	C1042	0.204320	0.798000	0.052400
C10431	C1043	0.232590	0.588370	0.970870
C10441	C1044	0.234050	0.621610	0.962010
C10451	C1045	0.267500	0.625060	0.950920
C10461	C1046	0.298120	0.593820	0.949360
C10471	C1047	0.293310	0.561090	0.960650
C10481	C1048	0.041560	0.679180	0.985380
C10491	C1049	0.072410	0.649810	0.978690
C10501	C1050	0.104960	0.648900	0.975080
C10511	C1051	0.106080	0.677720	0.977700
C10521	C1052	0.074050	0.706510	0.983950
C10531	C1053	0.139780	0.677460	0.976140
C10541	C1054	0.167150	0.703370	0.982670
C10551	C1055	0.199890	0.652170	0.967390
C10561	C1056	0.195920	0.727940	0.995640
C10571	C1057	0.165180	0.730380	0.993120
C10581	C1058	0.132670	0.757430	0.003010
C10591	C1059	0.133000	0.781580	0.012760
C10601	C1060	0.165270	0.777690	0.014070
C10611	C1061	0.239380	0.795600	0.926700
C10621	C1062	0.234300	0.825520	0.896900
C10631	C1063	0.232540	0.857940	0.894940
C10641	C1064	0.237370	0.858410	0.922730
C10651	C1065	0.242800	0.826780	0.951700
C10661	C1066	0.236700	0.891900	0.921780
C10671	C1067	0.473910	0.336090	0.459730
C10681	C1068	0.552400	0.945280	0.704320
C10691	C1069	0.470870	0.208170	0.732590
C10701	C1070	0.462010	0.182330	0.734050
C10711	C1071	0.450920	0.156520	0.767500
C10721	C1072	0.449360	0.158700	0.798120
C10731	C1073	0.460650	0.184950	0.793310
C10741	C1074	0.485380	0.293880	0.541560
C10751	C1075	0.478690	0.299090	0.572410
C10761	C1076	0.475080	0.271060	0.604960
C10771	C1077	0.477700	0.238500	0.606080
C10781	C1078	0.483950	0.235490	0.574050
C10791	C1079	0.476140	0.206620	0.639780
C10801	C1080	0.482670	0.146810	0.667150
C10811	C1081	0.467390	0.180550	0.699890
C10821	C1082	0.495640	0.080500	0.695920
C10831	C1083	0.493120	0.111320	0.665180
C10841	C1084	0.503010	0.106890	0.632670
C10851	C1085	0.512760	0.072660	0.633000
C10861	C1086	0.514070	0.042970	0.665270
C10871	C1087	0.426700	0.038320	0.739380
C10881	C1088	0.396900	0.043280	0.734300
C10891	C1089	0.394940	0.014580	0.732540
C10901	C1090	0.422730	0.981490	0.737370
C10911	C1091	0.451700	0.978720	0.742800
C10921	C1092	0.421780	0.949620	0.736700
C10931	C1093	0.230270	0.459730	0.336090
C10941	C1094	0.298000	0.704320	0.945280
C10951	C1095	0.088370	0.732590	0.208170
C10961	C1096	0.121610	0.734050	0.182330
C10971	C1097	0.125060	0.767500	0.156520
C10981	C1098	0.093820	0.798120	0.158700
C10991	C1099	0.061090	0.793310	0.184950
C11001	C1100	0.179180	0.541560	0.293880
C11011	C1101	0.149810	0.572410	0.299090
C11021	C1102	0.148900	0.604960	0.271060
C11031	C1103	0.177720	0.606080	0.238500
C11041	C1104	0.206510	0.574050	0.235490
C11051	C1105	0.177460	0.639780	0.206620
C11061	C1106	0.203370	0.667150	0.146810
C11071	C1107	0.152170	0.699890	0.180550
C11081	C1108	0.227940	0.695920	0.080500
C11091	C1109	0.230380	0.665180	0.111320
C11101	C1110	0.257430	0.632670	0.106890
C11111	C1111	0.281580	0.633000	0.072660
C11121	C1112	0.277690	0.665270	0.042970
C11131	C1113	0.295600	0.739380	0.038320
C11141	C1114	0.325520	0.734300	0.043280
C11151	C1115	0.357940	0.732540	0.014580
C11161	C1116	0.358410	0.737370	0.981490
C11171	C1117	0.326780	0.742800	0.978720
C11181	C1118	0.391900	0.736700	0.949620
C11191	C1119	0.836090	0.973910	0.730270
C11201	C1120	0.445280	0.052400	0.798000
C11211	C1121	0.708170	0.970870	0.588370
C11221	C1122	0.682330	0.962010	0.621610
C11231	C1123	0.656520	0.950920	0.625060
C11241	C1124	0.658700	0.949360	0.593820
C11251	C1125	0.684950	0.960650	0.561090
C11261	C1126	0.793880	0.985380	0.679180
C11271	C1127	0.799090	0.978690	0.649810
C11281	C1128	0.771060	0.975080	0.648900
C11291	C1129	0.738500	0.977700	0.677720
C11301	C1130	0.735490	0.983950	0.706510
C11311	C1131	0.706620	0.976140	0.677460
C11321	C1132	0.646810	0.982670	0.703370
C11331	C1133	0.680550	0.967390	0.652170
C11341	C1134	0.580500	0.995640	0.727940
C11351	C1135	0.611320	0.993120	0.730380
C11361	C1136	0.606890	0.003010	0.757430
C11371	C1137	0.572660	0.012760	0.781580
C11381	C1138	0.542970	0.014070	0.777690
C11391	C1139	0.538320	0.926700	0.795600
C11401	C1140	0.543280	0.896900	0.825520
C11411	C1141	0.514580	0.894940	0.857940
C11421	C1142	0.481490	0.922730	0.858410
C11431	C1143	0.478720	0.951700	0.826780
C11441	C1144	0.449620	0.921780	0.891900
C11451	C1145	0.473910	0.730270	0.336090
C11461	C1146	0.552400	0.798000	0.945280
C11471	C1147	0.470870	0.588370	0.208170
C11481	C1148	0.462010	0.621610	0.182330
C11491	C1149	0.450920	0.625060	0.156520
C11501	C1150	0.449360	0.593820	0.158700
C11511	C1151	0.460650	0.561090	0.184950
C11521	C1152	0.485380	0.679180	0.293880
C11531	C1153	0.478690	0.649810	0.299090
C11541	C1154	0.475080	0.648900	0.271060
C11551	C1155	0.477700	0.677720	0.238500
C11561	C1156	0.483950	0.706510	0.235490
C11571	C1157	0.476140	0.677460	0.206620
C11581	C1158	0.482670	0.703370	0.146810
C11591	C1159	0.467390	0.652170	0.180550
C11601	C1160	0.495640	0.727940	0.080500
C11611	C1161	0.493120	0.730380	0.111320
C11621	C1162	0.503010	0.757430	0.106890
C11631	C1163	0.512760	0.781580	0.072660
C11641	C1164	0.514070	0.777690	0.042970
C11651	C1165	0.426700	0.795600	0.038320
C11661	C1166	0.396900	0.825520	0.043280
C11671	C1167	0.394940	0.857940	0.014580
C11681	C1168	0.422730	0.858410	0.981490
C11691	C1169	0.451700	0.826780	0.978720
C11701	C1170	0.421780	0.891900	0.949620
C11711	C1171	0.959730	0.336090	0.730270
C11721	C1172	0.204320	0.945280	0.798000
C11731	C1173	0.232590	0.208170	0.588370
C11741	C1174	0.234050	0.182330	0.621610
C11751	C1175	0.267500	0.156520	0.625060
C11761	C1176	0.298120	0.158700	0.593820
C11771	C1177	0.293310	0.184950	0.561090
C11781	C1178	0.041560	0.293880	0.679180
C11791	C1179	0.072410	0.299090	0.649810
C11801	C1180	0.104960	0.271060	0.648900
C11811	C1181	0.106080	0.238500	0.677720
C11821	C1182	0.074050	0.235490	0.706510
C11831	C1183	0.139780	0.206620	0.677460
C11841	C1184	0.167150	0.146810	0.703370
C11851	C1185	0.199890	0.180550	0.652170
C11861	C1186	0.195920	0.080500	0.727940
C11871	C1187	0.165180	0.111320	0.730380
C11881	C1188	0.132670	0.106890	0.757430
C11891	C1189	0.133000	0.072660	0.781580
C11901	C1190	0.165270	0.042970	0.777690
C11911	C1191	0.239380	0.038320	0.795600
C11921	C1192	0.234300	0.043280	0.825520
C11931	C1193	0.232540	0.014580	0.857940
C11941	C1194	0.237370	0.981490	0.858410
C11951	C1195	0.242800	0.978720	0.826780
C11961	C1196	0.236700	0.949620	0.891900
C11971	C1197	0.836090	0.459730	0.973910
C11981	C1198	0.445280	0.704320	0.052400
C11991	C1199	0.708170	0.732590	0.970870
C12001	C1200	0.682330	0.734050	0.962010
C12011	C1201	0.656520	0.767500	0.950920
C12021	C1202	0.658700	0.798120	0.949360
C12031	C1203	0.684950	0.793310	0.960650
C12041	C1204	0.793880	0.541560	0.985380
C12051	C1205	0.799090	0.572410	0.978690
C12061	C1206	0.771060	0.604960	0.975080
C12071	C1207	0.738500	0.606080	0.977700
C12081	C1208	0.735490	0.574050	0.983950
C12091	C1209	0.706620	0.639780	0.976140
C12101	C1210	0.646810	0.667150	0.982670
C12111	C1211	0.680550	0.699890	0.967390
C12121	C1212	0.580500	0.695920	0.995640
C12131	C1213	0.611320	0.665180	0.993120
C12141	C1214	0.606890	0.632670	0.003010
C12151	C1215	0.572660	0.633000	0.012760
C12161	C1216	0.542970	0.665270	0.014070
C12171	C1217	0.538320	0.739380	0.926700
C12181	C1218	0.543280	0.734300	0.896900
C12191	C1219	0.514580	0.732540	0.894940
C12201	C1220	0.481490	0.737370	0.922730
C12211	C1221	0.478720	0.742800	0.951700
C12221	C1222	0.449620	0.736700	0.921780
C12231	C1223	0.230270	0.973910	0.459730
C12241	C1224	0.298000	0.052400	0.704320
C12251	C1225	0.088370	0.970870	0.732590
C12261	C1226	0.121610	0.962010	0.734050
C12271	C1227	0.125060	0.950920	0.767500
C12281	C1228	0.093820	0.949360	0.798120
C12291	C1229	0.061090	0.960650	0.793310
C12301	C1230	0.179180	0.985380	0.541560
C12311	C1231	0.149810	0.978690	0.572410
C12321	C1232	0.148900	0.975080	0.604960
C12331	C1233	0.177720	0.977700	0.606080
C12341	C1234	0.206510	0.983950	0.574050
C12351	C1235	0.177460	0.976140	0.639780
C12361	C1236	0.203370	0.982670	0.667150
C12371	C1237	0.152170	0.967390	0.699890
C12381	C1238	0.227940	0.995640	0.695920
C12391	C1239	0.230380	0.993120	0.665180
C12401	C1240	0.257430	0.003010	0.632670
C12411	C1241	0.281580	0.012760	0.633000
C12421	C1242	0.277690	0.014070	0.665270
C12431	C1243	0.295600	0.926700	0.739380
C12441	C1244	0.325520	0.896900	0.734300
C12451	C1245	0.357940	0.894940	0.732540
C12461	C1246	0.358410	0.922730	0.737370
C12471	C1247	0.326780	0.951700	0.742800
C12481	C1248	0.391900	0.921780	0.736700
S11	S1	0.709000	0.879640	0.946360
S21	S2	0.824090	0.414410	0.184550
S31	S3	0.379640	0.209000	0.465000
S41	S4	0.914410	0.324090	0.576950
S51	S5	0.446360	0.465000	0.209000
S61	S6	0.684550	0.576950	0.324090
S71	S7	0.965000	0.946360	0.879640
S81	S8	0.076950	0.184550	0.414410
S91	S9	0.709000	0.946360	0.465000
S101	S10	0.824090	0.184550	0.576950
S111	S11	0.379640	0.465000	0.946360
S121	S12	0.914410	0.576950	0.184550
S131	S13	0.446360	0.209000	0.879640
S141	S14	0.684550	0.324090	0.414410
S151	S15	0.965000	0.879640	0.209000
S161	S16	0.076950	0.414410	0.324090
S171	S17	0.709000	0.465000	0.879640
S181	S18	0.824090	0.576950	0.414410
S191	S19	0.379640	0.946360	0.209000
S201	S20	0.914410	0.184550	0.324090
S211	S21	0.446360	0.879640	0.465000
S221	S22	0.684550	0.414410	0.576950
S231	S23	0.965000	0.209000	0.946360
S241	S24	0.076950	0.324090	0.184550
S251	S25	0.120360	0.291000	0.553640
S261	S26	0.585590	0.175910	0.315450
S271	S27	0.791000	0.620360	0.035000
S281	S28	0.675910	0.085590	0.923050
S291	S29	0.535000	0.553640	0.291000
S301	S30	0.423050	0.315450	0.175910
S311	S31	0.053640	0.035000	0.620360
S321	S32	0.815450	0.923050	0.085590
S331	S33	0.053640	0.291000	0.035000
S341	S34	0.815450	0.175910	0.923050
S351	S35	0.535000	0.620360	0.553640
S361	S36	0.423050	0.085590	0.315450
S371	S37	0.791000	0.553640	0.620360
S381	S38	0.675910	0.315450	0.085590
S391	S39	0.120360	0.035000	0.291000
S401	S40	0.585590	0.923050	0.175910
S411	S41	0.535000	0.291000	0.620360
S421	S42	0.423050	0.175910	0.085590
S431	S43	0.053640	0.620360	0.291000
S441	S44	0.815450	0.085590	0.175910
S451	S45	0.120360	0.553640	0.035000
S461	S46	0.585590	0.315450	0.923050
S471	S47	0.791000	0.035000	0.553640
S481	S48	0.675910	0.923050	0.315450
S491	S49	0.291000	0.120360	0.053640
S501	S50	0.175910	0.585590	0.815450
S511	S51	0.620360	0.791000	0.535000
S521	S52	0.085590	0.675910	0.423050
S531	S53	0.553640	0.535000	0.791000
S541	S54	0.315450	0.423050	0.675910
S551	S55	0.035000	0.053640	0.120360
S561	S56	0.923050	0.815450	0.585590
S571	S57	0.291000	0.053640	0.535000
S581	S58	0.175910	0.815450	0.423050
S591	S59	0.620360	0.535000	0.053640
S601	S60	0.085590	0.423050	0.815450
S611	S61	0.553640	0.791000	0.120360
S621	S62	0.315450	0.675910	0.585590
S631	S63	0.035000	0.120360	0.791000
S641	S64	0.923050	0.585590	0.675910
S651	S65	0.291000	0.535000	0.120360
S661	S66	0.175910	0.423050	0.585590
S671	S67	0.620360	0.053640	0.791000
S681	S68	0.085590	0.815450	0.675910
S691	S69	0.553640	0.120360	0.535000
S701	S70	0.315450	0.585590	0.423050
S711	S71	0.035000	0.791000	0.053640
S721	S72	0.923050	0.675910	0.815450
S731	S73	0.879640	0.709000	0.446360
S741	S74	0.414410	0.824090	0.684550
S751	S75	0.209000	0.379640	0.965000
S761	S76	0.324090	0.914410	0.076950
S771	S77	0.465000	0.446360	0.709000
S781	S78	0.576950	0.684550	0.824090
S791	S79	0.946360	0.965000	0.379640
S801	S80	0.184550	0.076950	0.914410
S811	S81	0.946360	0.709000	0.965000
S821	S82	0.184550	0.824090	0.076950
S831	S83	0.465000	0.379640	0.446360
S841	S84	0.576950	0.914410	0.684550
S851	S85	0.209000	0.446360	0.379640
S861	S86	0.324090	0.684550	0.914410
S871	S87	0.879640	0.965000	0.709000
S881	S88	0.414410	0.076950	0.824090
S891	S89	0.465000	0.709000	0.379640
S901	S90	0.576950	0.824090	0.914410
S911	S91	0.946360	0.379640	0.709000
S921	S92	0.184550	0.914410	0.824090
S931	S93	0.879640	0.446360	0.965000
S941	S94	0.414410	0.684550	0.076950
S951	S95	0.209000	0.965000	0.446360
S961	S96	0.324090	0.076950	0.684550
N11	N1	0.744740	0.804800	0.969100
N21	N2	0.779260	0.466600	0.218320
N31	N3	0.557630	0.709610	0.261350
N41	N4	0.707400	0.762400	0.041840
N51	N5	0.704410	0.675110	0.136670
N61	N6	0.650770	0.710850	0.170410
N71	N7	0.678450	0.648090	0.200350
N81	N8	0.751110	0.547290	0.196610
N91	N9	0.795450	0.506390	0.244070
N101	N10	0.919990	0.451970	0.236750
N111	N11	0.304800	0.244740	0.481360
N121	N12	0.966600	0.279260	0.535820
N131	N13	0.209610	0.057630	0.471410
N141	N14	0.262400	0.207400	0.488360
N151	N15	0.175110	0.204410	0.483810
N161	N16	0.210850	0.150770	0.467970
N171	N17	0.148090	0.178450	0.473110
N181	N18	0.047290	0.251110	0.504990
N191	N19	0.006390	0.295450	0.454090
N201	N20	0.951970	0.419990	0.391290
N211	N21	0.469100	0.481360	0.244740
N221	N22	0.718320	0.535820	0.279260
N231	N23	0.761350	0.471410	0.057630
N241	N24	0.541840	0.488360	0.207400
N251	N25	0.636670	0.483810	0.204410
N261	N26	0.670410	0.467970	0.150770
N271	N27	0.700350	0.473110	0.178450
N281	N28	0.696610	0.504990	0.251110
N291	N29	0.744070	0.454090	0.295450
N301	N30	0.736750	0.391290	0.419990
N311	N31	0.981360	0.969100	0.804800
N321	N32	0.035820	0.218320	0.466600
N331	N33	0.971410	0.261350	0.709610
N341	N34	0.988360	0.041840	0.762400
N351	N35	0.983810	0.136670	0.675110
N361	N36	0.967970	0.170410	0.710850
N371	N37	0.973110	0.200350	0.648090
N381	N38	0.004990	0.196610	0.547290
N391	N39	0.954090	0.244070	0.506390
N401	N40	0.891290	0.236750	0.451970
N411	N41	0.744740	0.969100	0.481360
N421	N42	0.779260	0.218320	0.535820
N431	N43	0.557630	0.261350	0.471410
N441	N44	0.707400	0.041840	0.488360
N451	N45	0.704410	0.136670	0.483810
N461	N46	0.650770	0.170410	0.467970
N471	N47	0.678450	0.200350	0.473110
N481	N48	0.751110	0.196610	0.504990
N491	N49	0.795450	0.244070	0.454090
N501	N50	0.919990	0.236750	0.391290
N511	N51	0.304800	0.481360	0.969100
N521	N52	0.966600	0.535820	0.218320
N531	N53	0.209610	0.471410	0.261350
N541	N54	0.262400	0.488360	0.041840
N551	N55	0.175110	0.483810	0.136670
N561	N56	0.210850	0.467970	0.170410
N571	N57	0.148090	0.473110	0.200350
N581	N58	0.047290	0.504990	0.196610
N591	N59	0.006390	0.454090	0.244070
N601	N60	0.951970	0.391290	0.236750
N611	N61	0.469100	0.244740	0.804800
N621	N62	0.718320	0.279260	0.466600
N631	N63	0.761350	0.057630	0.709610
N641	N64	0.541840	0.207400	0.762400
N651	N65	0.636670	0.204410	0.675110
N661	N66	0.670410	0.150770	0.710850
N671	N67	0.700350	0.178450	0.648090
N681	N68	0.696610	0.251110	0.547290
N691	N69	0.744070	0.295450	0.506390
N701	N70	0.736750	0.419990	0.451970
N711	N71	0.981360	0.804800	0.244740
N721	N72	0.035820	0.466600	0.279260
N731	N73	0.971410	0.709610	0.057630
N741	N74	0.988360	0.762400	0.207400
N751	N75	0.983810	0.675110	0.204410
N761	N76	0.967970	0.710850	0.150770
N771	N77	0.973110	0.648090	0.178450
N781	N78	0.004990	0.547290	0.251110
N791	N79	0.954090	0.506390	0.295450
N801	N80	0.891290	0.451970	0.419990
N811	N81	0.744740	0.481360	0.804800
N821	N82	0.779260	0.535820	0.466600
N831	N83	0.557630	0.471410	0.709610
N841	N84	0.707400	0.488360	0.762400
N851	N85	0.704410	0.483810	0.675110
N861	N86	0.650770	0.467970	0.710850
N871	N87	0.678450	0.473110	0.648090
N881	N88	0.751110	0.504990	0.547290
N891	N89	0.795450	0.454090	0.506390
N901	N90	0.919990	0.391290	0.451970
N911	N91	0.304800	0.969100	0.244740
N921	N92	0.966600	0.218320	0.279260
N931	N93	0.209610	0.261350	0.057630
N941	N94	0.262400	0.041840	0.207400
N951	N95	0.175110	0.136670	0.204410
N961	N96	0.210850	0.170410	0.150770
N971	N97	0.148090	0.200350	0.178450
N981	N98	0.047290	0.196610	0.251110
N991	N99	0.006390	0.244070	0.295450
N1001	N100	0.951970	0.236750	0.419990
N1011	N101	0.469100	0.804800	0.481360
N1021	N102	0.718320	0.466600	0.535820
N1031	N103	0.761350	0.709610	0.471410
N1041	N104	0.541840	0.762400	0.488360
N1051	N105	0.636670	0.675110	0.483810
N1061	N106	0.670410	0.710850	0.467970
N1071	N107	0.700350	0.648090	0.473110
N1081	N108	0.696610	0.547290	0.504990
N1091	N109	0.744070	0.506390	0.454090
N1101	N110	0.736750	0.451970	0.391290
N1111	N111	0.981360	0.244740	0.969100
N1121	N112	0.035820	0.279260	0.218320
N1131	N113	0.971410	0.057630	0.261350
N1141	N114	0.988360	0.207400	0.041840
N1151	N115	0.983810	0.204410	0.136670
N1161	N116	0.967970	0.150770	0.170410
N1171	N117	0.973110	0.178450	0.200350
N1181	N118	0.004990	0.251110	0.196610
N1191	N119	0.954090	0.295450	0.244070
N1201	N120	0.891290	0.419990	0.236750
N1211	N121	0.195200	0.255260	0.530900
N1221	N122	0.533400	0.220740	0.281680
N1231	N123	0.290390	0.442370	0.238650
N1241	N124	0.237600	0.292600	0.458160
N1251	N125	0.324890	0.295590	0.363330
N1261	N126	0.289150	0.349230	0.329590
N1271	N127	0.351910	0.321550	0.299650
N1281	N128	0.452710	0.248890	0.303390
N1291	N129	0.493610	0.204550	0.255930
N1301	N130	0.548030	0.080010	0.263250
N1311	N131	0.755260	0.695200	0.018640
N1321	N132	0.720740	0.033400	0.964180
N1331	N133	0.942370	0.790390	0.028590
N1341	N134	0.792600	0.737600	0.011640
N1351	N135	0.795590	0.824890	0.016190
N1361	N136	0.849230	0.789150	0.032030
N1371	N137	0.821550	0.851910	0.026890
N1381	N138	0.748890	0.952710	0.995010
N1391	N139	0.704550	0.993610	0.045910
N1401	N140	0.580010	0.048030	0.108710
N1411	N141	0.518640	0.530900	0.255260
N1421	N142	0.464180	0.281680	0.220740
N1431	N143	0.528590	0.238650	0.442370
N1441	N144	0.511640	0.458160	0.292600
N1451	N145	0.516190	0.363330	0.295590
N1461	N146	0.532030	0.329590	0.349230
N1471	N147	0.526890	0.299650	0.321550
N1481	N148	0.495010	0.303390	0.248890
N1491	N149	0.545910	0.255930	0.204550
N1501	N150	0.608710	0.263250	0.080010
N1511	N151	0.030900	0.018640	0.695200
N1521	N152	0.781680	0.964180	0.033400
N1531	N153	0.738650	0.028590	0.790390
N1541	N154	0.958160	0.011640	0.737600
N1551	N155	0.863330	0.016190	0.824890
N1561	N156	0.829590	0.032030	0.789150
N1571	N157	0.799650	0.026890	0.851910
N1581	N158	0.803390	0.995010	0.952710
N1591	N159	0.755930	0.045910	0.993610
N1601	N160	0.763250	0.108710	0.048030
N1611	N161	0.030900	0.255260	0.018640
N1621	N162	0.781680	0.220740	0.964180
N1631	N163	0.738650	0.442370	0.028590
N1641	N164	0.958160	0.292600	0.011640
N1651	N165	0.863330	0.295590	0.016190
N1661	N166	0.829590	0.349230	0.032030
N1671	N167	0.799650	0.321550	0.026890
N1681	N168	0.803390	0.248890	0.995010
N1691	N169	0.755930	0.204550	0.045910
N1701	N170	0.763250	0.080010	0.108710
N1711	N171	0.518640	0.695200	0.530900
N1721	N172	0.464180	0.033400	0.281680
N1731	N173	0.528590	0.790390	0.238650
N1741	N174	0.511640	0.737600	0.458160
N1751	N175	0.516190	0.824890	0.363330
N1761	N176	0.532030	0.789150	0.329590
N1771	N177	0.526890	0.851910	0.299650
N1781	N178	0.495010	0.952710	0.303390
N1791	N179	0.545910	0.993610	0.255930
N1801	N180	0.608710	0.048030	0.263250
N1811	N181	0.755260	0.530900	0.695200
N1821	N182	0.720740	0.281680	0.033400
N1831	N183	0.942370	0.238650	0.790390
N1841	N184	0.792600	0.458160	0.737600
N1851	N185	0.795590	0.363330	0.824890
N1861	N186	0.849230	0.329590	0.789150
N1871	N187	0.821550	0.299650	0.851910
N1881	N188	0.748890	0.303390	0.952710
N1891	N189	0.704550	0.255930	0.993610
N1901	N190	0.580010	0.263250	0.048030
N1911	N191	0.195200	0.018640	0.255260
N1921	N192	0.533400	0.964180	0.220740
N1931	N193	0.290390	0.028590	0.442370
N1941	N194	0.237600	0.011640	0.292600
N1951	N195	0.324890	0.016190	0.295590
N1961	N196	0.289150	0.032030	0.349230
N1971	N197	0.351910	0.026890	0.321550
N1981	N198	0.452710	0.995010	0.248890
N1991	N199	0.493610	0.045910	0.204550
N2001	N200	0.548030	0.108710	0.080010
N2011	N201	0.518640	0.255260	0.695200
N2021	N202	0.464180	0.220740	0.033400
N2031	N203	0.528590	0.442370	0.790390
N2041	N204	0.511640	0.292600	0.737600
N2051	N205	0.516190	0.295590	0.824890
N2061	N206	0.532030	0.349230	0.789150
N2071	N207	0.526890	0.321550	0.851910
N2081	N208	0.495010	0.248890	0.952710
N2091	N209	0.545910	0.204550	0.993610
N2101	N210	0.608710	0.080010	0.048030
N2111	N211	0.030900	0.695200	0.255260
N2121	N212	0.781680	0.033400	0.220740
N2131	N213	0.738650	0.790390	0.442370
N2141	N214	0.958160	0.737600	0.292600
N2151	N215	0.863330	0.824890	0.295590
N2161	N216	0.829590	0.789150	0.349230
N2171	N217	0.799650	0.851910	0.321550
N2181	N218	0.803390	0.952710	0.248890
N2191	N219	0.755930	0.993610	0.204550
N2201	N220	0.763250	0.048030	0.080010
N2211	N221	0.195200	0.530900	0.018640
N2221	N222	0.533400	0.281680	0.964180
N2231	N223	0.290390	0.238650	0.028590
N2241	N224	0.237600	0.458160	0.011640
N2251	N225	0.324890	0.363330	0.016190
N2261	N226	0.289150	0.329590	0.032030
N2271	N227	0.351910	0.299650	0.026890
N2281	N228	0.452710	0.303390	0.995010
N2291	N229	0.493610	0.255930	0.045910
N2301	N230	0.548030	0.263250	0.108710
N2311	N231	0.755260	0.018640	0.530900
N2321	N232	0.720740	0.964180	0.281680
N2331	N233	0.942370	0.028590	0.238650
N2341	N234	0.792600	0.011640	0.458160
N2351	N235	0.795590	0.016190	0.363330
N2361	N236	0.849230	0.032030	0.329590
N2371	N237	0.821550	0.026890	0.299650
N2381	N238	0.748890	0.995010	0.303390
N2391	N239	0.704550	0.045910	0.255930
N2401	N240	0.580010	0.108710	0.263250
N2411	N241	0.255260	0.195200	0.030900
N2421	N242	0.220740	0.533400	0.781680
N2431	N243	0.442370	0.290390	0.738650
N2441	N244	0.292600	0.237600	0.958160
N2451	N245	0.295590	0.324890	0.863330
N2461	N246	0.349230	0.289150	0.829590
N2471	N247	0.321550	0.351910	0.799650
N2481	N248	0.248890	0.452710	0.803390
N2491	N249	0.204550	0.493610	0.755930
N2501	N250	0.080010	0.548030	0.763250
N2511	N251	0.695200	0.755260	0.518640
N2521	N252	0.033400	0.720740	0.464180
N2531	N253	0.790390	0.942370	0.528590
N2541	N254	0.737600	0.792600	0.511640
N2551	N255	0.824890	0.795590	0.516190
N2561	N256	0.789150	0.849230	0.532030
N2571	N257	0.851910	0.821550	0.526890
N2581	N258	0.952710	0.748890	0.495010
N2591	N259	0.993610	0.704550	0.545910
N2601	N260	0.048030	0.580010	0.608710
N2611	N261	0.530900	0.518640	0.755260
N2621	N262	0.281680	0.464180	0.720740
N2631	N263	0.238650	0.528590	0.942370
N2641	N264	0.458160	0.511640	0.792600
N2651	N265	0.363330	0.516190	0.795590
N2661	N266	0.329590	0.532030	0.849230
N2671	N267	0.299650	0.526890	0.821550
N2681	N268	0.303390	0.495010	0.748890
N2691	N269	0.255930	0.545910	0.704550
N2701	N270	0.263250	0.608710	0.580010
N2711	N271	0.018640	0.030900	0.195200
N2721	N272	0.964180	0.781680	0.533400
N2731	N273	0.028590	0.738650	0.290390
N2741	N274	0.011640	0.958160	0.237600
N2751	N275	0.016190	0.863330	0.324890
N2761	N276	0.032030	0.829590	0.289150
N2771	N277	0.026890	0.799650	0.351910
N2781	N278	0.995010	0.803390	0.452710
N2791	N279	0.045910	0.755930	0.493610
N2801	N280	0.108710	0.763250	0.548030
N2811	N281	0.255260	0.030900	0.518640
N2821	N282	0.220740	0.781680	0.464180
N2831	N283	0.442370	0.738650	0.528590
N2841	N284	0.292600	0.958160	0.511640
N2851	N285	0.295590	0.863330	0.516190
N2861	N286	0.349230	0.829590	0.532030
N2871	N287	0.321550	0.799650	0.526890
N2881	N288	0.248890	0.803390	0.495010
N2891	N289	0.204550	0.755930	0.545910
N2901	N290	0.080010	0.763250	0.608710
N2911	N291	0.695200	0.518640	0.030900
N2921	N292	0.033400	0.464180	0.781680
N2931	N293	0.790390	0.528590	0.738650
N2941	N294	0.737600	0.511640	0.958160
N2951	N295	0.824890	0.516190	0.863330
N2961	N296	0.789150	0.532030	0.829590
N2971	N297	0.851910	0.526890	0.799650
N2981	N298	0.952710	0.495010	0.803390
N2991	N299	0.993610	0.545910	0.755930
N3001	N300	0.048030	0.608710	0.763250
N3011	N301	0.530900	0.755260	0.195200
N3021	N302	0.281680	0.720740	0.533400
N3031	N303	0.238650	0.942370	0.290390
N3041	N304	0.458160	0.792600	0.237600
N3051	N305	0.363330	0.795590	0.324890
N3061	N306	0.329590	0.849230	0.289150
N3071	N307	0.299650	0.821550	0.351910
N3081	N308	0.303390	0.748890	0.452710
N3091	N309	0.255930	0.704550	0.493610
N3101	N310	0.263250	0.580010	0.548030
N3111	N311	0.018640	0.195200	0.755260
N3121	N312	0.964180	0.533400	0.720740
N3131	N313	0.028590	0.290390	0.942370
N3141	N314	0.011640	0.237600	0.792600
N3151	N315	0.016190	0.324890	0.795590
N3161	N316	0.032030	0.289150	0.849230
N3171	N317	0.026890	0.351910	0.821550
N3181	N318	0.995010	0.452710	0.748890
N3191	N319	0.045910	0.493610	0.704550
N3201	N320	0.108710	0.548030	0.580010
N3211	N321	0.255260	0.518640	0.195200
N3221	N322	0.220740	0.464180	0.533400
N3231	N323	0.442370	0.528590	0.290390
N3241	N324	0.292600	0.511640	0.237600
N3251	N325	0.295590	0.516190	0.324890
N3261	N326	0.349230	0.532030	0.289150
N3271	N327	0.321550	0.526890	0.351910
N3281	N328	0.248890	0.495010	0.452710
N3291	N329	0.204550	0.545910	0.493610
N3301	N330	0.080010	0.608710	0.548030
N3311	N331	0.695200	0.030900	0.755260
N3321	N332	0.033400	0.781680	0.720740
N3331	N333	0.790390	0.738650	0.942370
N3341	N334	0.737600	0.958160	0.792600
N3351	N335	0.824890	0.863330	0.795590
N3361	N336	0.789150	0.829590	0.849230
N3371	N337	0.851910	0.799650	0.821550
N3381	N338	0.952710	0.803390	0.748890
N3391	N339	0.993610	0.755930	0.704550
N3401	N340	0.048030	0.763250	0.580010
N3411	N341	0.530900	0.195200	0.518640
N3421	N342	0.281680	0.533400	0.464180
N3431	N343	0.238650	0.290390	0.528590
N3441	N344	0.458160	0.237600	0.511640
N3451	N345	0.363330	0.324890	0.516190
N3461	N346	0.329590	0.289150	0.532030
N3471	N347	0.299650	0.351910	0.526890
N3481	N348	0.303390	0.452710	0.495010
N3491	N349	0.255930	0.493610	0.545910
N3501	N350	0.263250	0.548030	0.608710
N3511	N351	0.018640	0.755260	0.030900
N3521	N352	0.964180	0.720740	0.781680
N3531	N353	0.028590	0.942370	0.738650
N3541	N354	0.011640	0.792600	0.958160
N3551	N355	0.016190	0.795590	0.863330
N3561	N356	0.032030	0.849230	0.829590
N3571	N357	0.026890	0.821550	0.799650
N3581	N358	0.995010	0.748890	0.803390
N3591	N359	0.045910	0.704550	0.755930
N3601	N360	0.108710	0.580010	0.763250
N3611	N361	0.804800	0.744740	0.469100
N3621	N362	0.466600	0.779260	0.718320
N3631	N363	0.709610	0.557630	0.761350
N3641	N364	0.762400	0.707400	0.541840
N3651	N365	0.675110	0.704410	0.636670
N3661	N366	0.710850	0.650770	0.670410
N3671	N367	0.648090	0.678450	0.700350
N3681	N368	0.547290	0.751110	0.696610
N3691	N369	0.506390	0.795450	0.744070
N3701	N370	0.451970	0.919990	0.736750
N3711	N371	0.244740	0.304800	0.981360
N3721	N372	0.279260	0.966600	0.035820
N3731	N373	0.057630	0.209610	0.971410
N3741	N374	0.207400	0.262400	0.988360
N3751	N375	0.204410	0.175110	0.983810
N3761	N376	0.150770	0.210850	0.967970
N3771	N377	0.178450	0.148090	0.973110
N3781	N378	0.251110	0.047290	0.004990
N3791	N379	0.295450	0.006390	0.954090
N3801	N380	0.419990	0.951970	0.891290
N3811	N381	0.481360	0.469100	0.744740
N3821	N382	0.535820	0.718320	0.779260
N3831	N383	0.471410	0.761350	0.557630
N3841	N384	0.488360	0.541840	0.707400
N3851	N385	0.483810	0.636670	0.704410
N3861	N386	0.467970	0.670410	0.650770
N3871	N387	0.473110	0.700350	0.678450
N3881	N388	0.504990	0.696610	0.751110
N3891	N389	0.454090	0.744070	0.795450
N3901	N390	0.391290	0.736750	0.919990
N3911	N391	0.969100	0.981360	0.304800
N3921	N392	0.218320	0.035820	0.966600
N3931	N393	0.261350	0.971410	0.209610
N3941	N394	0.041840	0.988360	0.262400
N3951	N395	0.136670	0.983810	0.175110
N3961	N396	0.170410	0.967970	0.210850
N3971	N397	0.200350	0.973110	0.148090
N3981	N398	0.196610	0.004990	0.047290
N3991	N399	0.244070	0.954090	0.006390
N4001	N400	0.236750	0.891290	0.951970
N4011	N401	0.969100	0.744740	0.981360
N4021	N402	0.218320	0.779260	0.035820
N4031	N403	0.261350	0.557630	0.971410
N4041	N404	0.041840	0.707400	0.988360
N4051	N405	0.136670	0.704410	0.983810
N4061	N406	0.170410	0.650770	0.967970
N4071	N407	0.200350	0.678450	0.973110
N4081	N408	0.196610	0.751110	0.004990
N4091	N409	0.244070	0.795450	0.954090
N4101	N410	0.236750	0.919990	0.891290
N4111	N411	0.481360	0.304800	0.469100
N4121	N412	0.535820	0.966600	0.718320
N4131	N413	0.471410	0.209610	0.761350
N4141	N414	0.488360	0.262400	0.541840
N4151	N415	0.483810	0.175110	0.636670
N4161	N416	0.467970	0.210850	0.670410
N4171	N417	0.473110	0.148090	0.700350
N4181	N418	0.504990	0.047290	0.696610
N4191	N419	0.454090	0.006390	0.744070
N4201	N420	0.391290	0.951970	0.736750
N4211	N421	0.244740	0.469100	0.304800
N4221	N422	0.279260	0.718320	0.966600
N4231	N423	0.057630	0.761350	0.209610
N4241	N424	0.207400	0.541840	0.262400
N4251	N425	0.204410	0.636670	0.175110
N4261	N426	0.150770	0.670410	0.210850
N4271	N427	0.178450	0.700350	0.148090
N4281	N428	0.251110	0.696610	0.047290
N4291	N429	0.295450	0.744070	0.006390
N4301	N430	0.419990	0.736750	0.951970
N4311	N431	0.804800	0.981360	0.744740
N4321	N432	0.466600	0.035820	0.779260
N4331	N433	0.709610	0.971410	0.557630
N4341	N434	0.762400	0.988360	0.707400
N4351	N435	0.675110	0.983810	0.704410
N4361	N436	0.710850	0.967970	0.650770
N4371	N437	0.648090	0.973110	0.678450
N4381	N438	0.547290	0.004990	0.751110
N4391	N439	0.506390	0.954090	0.795450
N4401	N440	0.451970	0.891290	0.919990
N4411	N441	0.481360	0.744740	0.304800
N4421	N442	0.535820	0.779260	0.966600
N4431	N443	0.471410	0.557630	0.209610
N4441	N444	0.488360	0.707400	0.262400
N4451	N445	0.483810	0.704410	0.175110
N4461	N446	0.467970	0.650770	0.210850
N4471	N447	0.473110	0.678450	0.148090
N4481	N448	0.504990	0.751110	0.047290
N4491	N449	0.454090	0.795450	0.006390
N4501	N450	0.391290	0.919990	0.951970
N4511	N451	0.969100	0.304800	0.744740
N4521	N452	0.218320	0.966600	0.779260
N4531	N453	0.261350	0.209610	0.557630
N4541	N454	0.041840	0.262400	0.707400
N4551	N455	0.136670	0.175110	0.704410
N4561	N456	0.170410	0.210850	0.650770
N4571	N457	0.200350	0.148090	0.678450
N4581	N458	0.196610	0.047290	0.751110
N4591	N459	0.244070	0.006390	0.795450
N4601	N460	0.236750	0.951970	0.919990
N4611	N461	0.804800	0.469100	0.981360
N4621	N462	0.466600	0.718320	0.035820
N4631	N463	0.709610	0.761350	0.971410
N4641	N464	0.762400	0.541840	0.988360
N4651	N465	0.675110	0.636670	0.983810
N4661	N466	0.710850	0.670410	0.967970
N4671	N467	0.648090	0.700350	0.973110
N4681	N468	0.547290	0.696610	0.004990
N4691	N469	0.506390	0.744070	0.954090
N4701	N470	0.451970	0.736750	0.891290
N4711	N471	0.244740	0.981360	0.469100
N4721	N472	0.279260	0.035820	0.718320
N4731	N473	0.057630	0.971410	0.761350
N4741	N474	0.207400	0.988360	0.541840
N4751	N475	0.204410	0.983810	0.636670
N4761	N476	0.150770	0.967970	0.670410
N4771	N477	0.178450	0.973110	0.700350
N4781	N478	0.251110	0.004990	0.696610
N4791	N479	0.295450	0.954090	0.744070
N4801	N480	0.419990	0.891290	0.736750
