data_LAFQUG_clean_PM
_symmetry_space_group_name_H-M	'P1'
_cell_length_a	45.059700
_cell_length_b	45.059700
_cell_length_c	45.059700
_cell_angle_alpha	60.000000
_cell_angle_beta	60.000000
_cell_angle_gamma	60.000000
_symmetry_Int_Tables_number 1

loop_
_symmetry_equiv_pos_as_xyz
'x,y,z'

loop_
_atom_site_label
_atom_site_type_symbol
_atom_site_fract_x
_atom_site_fract_y
_atom_site_fract_z
Co11	Co1	0.508160	0.250000	0.491840
Co21	Co2	0.750000	0.008160	0.750000
Co31	Co3	0.991840	0.750000	0.008160
Co41	Co4	0.250000	0.491840	0.250000
Co51	Co5	0.508160	0.491840	0.750000
Co61	Co6	0.750000	0.750000	0.491840
Co71	Co7	0.991840	0.008160	0.250000
Co81	Co8	0.250000	0.250000	0.008160
Co91	Co9	0.508160	0.750000	0.250000
Co101	Co10	0.750000	0.491840	0.008160
Co111	Co11	0.991840	0.250000	0.750000
Co121	Co12	0.250000	0.008160	0.491840
Co131	Co13	0.491840	0.750000	0.508160
Co141	Co14	0.250000	0.991840	0.250000
Co151	Co15	0.008160	0.250000	0.991840
Co161	Co16	0.750000	0.508160	0.750000
Co171	Co17	0.491840	0.508160	0.250000
Co181	Co18	0.250000	0.250000	0.508160
Co191	Co19	0.008160	0.991840	0.750000
Co201	Co20	0.750000	0.750000	0.991840
Co211	Co21	0.491840	0.250000	0.750000
Co221	Co22	0.250000	0.508160	0.991840
Co231	Co23	0.008160	0.750000	0.250000
Co241	Co24	0.750000	0.991840	0.508160
Co251	Co25	0.502230	0.002230	0.747770
Co261	Co26	0.247770	0.747770	0.002230
Co271	Co27	0.502230	0.747770	0.747770
Co281	Co28	0.247770	0.002230	0.002230
Co291	Co29	0.502230	0.747770	0.002230
Co301	Co30	0.247770	0.002230	0.747770
Co311	Co31	0.997770	0.497770	0.752230
Co321	Co32	0.252230	0.752230	0.497770
Co331	Co33	0.252230	0.497770	0.752230
Co341	Co34	0.997770	0.752230	0.497770
Co351	Co35	0.252230	0.497770	0.497770
Co361	Co36	0.997770	0.752230	0.752230
Co371	Co37	0.497770	0.997770	0.252230
Co381	Co38	0.752230	0.252230	0.997770
Co391	Co39	0.497770	0.252230	0.252230
Co401	Co40	0.752230	0.997770	0.997770
Co411	Co41	0.497770	0.252230	0.997770
Co421	Co42	0.752230	0.997770	0.252230
Co431	Co43	0.002230	0.502230	0.247770
Co441	Co44	0.747770	0.247770	0.502230
Co451	Co45	0.747770	0.502230	0.247770
Co461	Co46	0.002230	0.247770	0.502230
Co471	Co47	0.747770	0.502230	0.502230
Co481	Co48	0.002230	0.247770	0.247770
H11	H1	0.459200	0.185400	0.814200
H21	H2	0.441000	0.142400	0.820400
H31	H3	0.447700	0.136500	0.768300
H41	H4	0.478800	0.225200	0.709000
H51	H5	0.488800	0.312400	0.519000
H61	H6	0.478200	0.320400	0.570800
H71	H7	0.474100	0.272100	0.625900
H81	H8	0.490400	0.211400	0.573400
H91	H9	0.492800	0.082000	0.717000
H101	H10	0.504300	0.125300	0.610300
H111	H11	0.520100	0.066700	0.611500
H121	H12	0.519200	0.018600	0.665800
H131	H13	0.558400	0.928800	0.773800
H141	H14	0.567200	0.880200	0.825200
H151	H15	0.518100	0.875900	0.880100
H161	H16	0.455800	0.971000	0.827600
H171	H17	0.685400	0.959200	0.541200
H181	H18	0.642400	0.941000	0.596200
H191	H19	0.636500	0.947700	0.647500
H201	H20	0.725200	0.978800	0.587000
H211	H21	0.812400	0.988800	0.679800
H221	H22	0.820400	0.978200	0.630600
H231	H23	0.772100	0.974100	0.627900
H241	H24	0.711400	0.990400	0.724800
H251	H25	0.582000	0.992800	0.708200
H261	H26	0.625300	0.004300	0.760100
H271	H27	0.566700	0.020100	0.801700
H281	H28	0.518600	0.019200	0.796400
H291	H29	0.428800	0.058400	0.739000
H301	H30	0.380200	0.067200	0.727400
H311	H31	0.375900	0.018100	0.725900
H321	H32	0.471000	0.955800	0.745600
H331	H33	0.314200	0.541200	0.959200
H341	H34	0.320400	0.596200	0.941000
H351	H35	0.268300	0.647500	0.947700
H361	H36	0.209000	0.587000	0.978800
H371	H37	0.019000	0.679800	0.988800
H381	H38	0.070800	0.630600	0.978200
H391	H39	0.125900	0.627900	0.974100
H401	H40	0.073400	0.724800	0.990400
H411	H41	0.217000	0.708200	0.992800
H421	H42	0.110300	0.760100	0.004300
H431	H43	0.111500	0.801700	0.020100
H441	H44	0.165800	0.796400	0.019200
H451	H45	0.273800	0.739000	0.058400
H461	H46	0.325200	0.727400	0.067200
H471	H47	0.380100	0.725900	0.018100
H481	H48	0.327600	0.745600	0.955800
H491	H49	0.041200	0.814200	0.185400
H501	H50	0.096200	0.820400	0.142400
H511	H51	0.147500	0.768300	0.136500
H521	H52	0.087000	0.709000	0.225200
H531	H53	0.179800	0.519000	0.312400
H541	H54	0.130600	0.570800	0.320400
H551	H55	0.127900	0.625900	0.272100
H561	H56	0.224800	0.573400	0.211400
H571	H57	0.208200	0.717000	0.082000
H581	H58	0.260100	0.610300	0.125300
H591	H59	0.301700	0.611500	0.066700
H601	H60	0.296400	0.665800	0.018600
H611	H61	0.239000	0.773800	0.928800
H621	H62	0.227400	0.825200	0.880200
H631	H63	0.225900	0.880100	0.875900
H641	H64	0.245600	0.827600	0.971000
H651	H65	0.459200	0.814200	0.541200
H661	H66	0.441000	0.820400	0.596200
H671	H67	0.447700	0.768300	0.647500
H681	H68	0.478800	0.709000	0.587000
H691	H69	0.488800	0.519000	0.679800
H701	H70	0.478200	0.570800	0.630600
H711	H71	0.474100	0.625900	0.627900
H721	H72	0.490400	0.573400	0.724800
H731	H73	0.492800	0.717000	0.708200
H741	H74	0.504300	0.610300	0.760100
H751	H75	0.520100	0.611500	0.801700
H761	H76	0.519200	0.665800	0.796400
H771	H77	0.558400	0.773800	0.739000
H781	H78	0.567200	0.825200	0.727400
H791	H79	0.518100	0.880100	0.725900
H801	H80	0.455800	0.827600	0.745600
H811	H81	0.685400	0.541200	0.814200
H821	H82	0.642400	0.596200	0.820400
H831	H83	0.636500	0.647500	0.768300
H841	H84	0.725200	0.587000	0.709000
H851	H85	0.812400	0.679800	0.519000
H861	H86	0.820400	0.630600	0.570800
H871	H87	0.772100	0.627900	0.625900
H881	H88	0.711400	0.724800	0.573400
H891	H89	0.582000	0.708200	0.717000
H901	H90	0.625300	0.760100	0.610300
H911	H91	0.566700	0.801700	0.611500
H921	H92	0.518600	0.796400	0.665800
H931	H93	0.428800	0.739000	0.773800
H941	H94	0.380200	0.727400	0.825200
H951	H95	0.375900	0.725900	0.880100
H961	H96	0.471000	0.745600	0.827600
H971	H97	0.314200	0.959200	0.185400
H981	H98	0.320400	0.941000	0.142400
H991	H99	0.268300	0.947700	0.136500
H1001	H100	0.209000	0.978800	0.225200
H1011	H101	0.019000	0.988800	0.312400
H1021	H102	0.070800	0.978200	0.320400
H1031	H103	0.125900	0.974100	0.272100
H1041	H104	0.073400	0.990400	0.211400
H1051	H105	0.217000	0.992800	0.082000
H1061	H106	0.110300	0.004300	0.125300
H1071	H107	0.111500	0.020100	0.066700
H1081	H108	0.165800	0.019200	0.018600
H1091	H109	0.273800	0.058400	0.928800
H1101	H110	0.325200	0.067200	0.880200
H1111	H111	0.380100	0.018100	0.875900
H1121	H112	0.327600	0.955800	0.971000
H1131	H113	0.041200	0.185400	0.959200
H1141	H114	0.096200	0.142400	0.941000
H1151	H115	0.147500	0.136500	0.947700
H1161	H116	0.087000	0.225200	0.978800
H1171	H117	0.179800	0.312400	0.988800
H1181	H118	0.130600	0.320400	0.978200
H1191	H119	0.127900	0.272100	0.974100
H1201	H120	0.224800	0.211400	0.990400
H1211	H121	0.208200	0.082000	0.992800
H1221	H122	0.260100	0.125300	0.004300
H1231	H123	0.301700	0.066700	0.020100
H1241	H124	0.296400	0.018600	0.019200
H1251	H125	0.239000	0.928800	0.058400
H1261	H126	0.227400	0.880200	0.067200
H1271	H127	0.225900	0.875900	0.018100
H1281	H128	0.245600	0.971000	0.955800
H1291	H129	0.459200	0.541200	0.185400
H1301	H130	0.441000	0.596200	0.142400
H1311	H131	0.447700	0.647500	0.136500
H1321	H132	0.478800	0.587000	0.225200
H1331	H133	0.488800	0.679800	0.312400
H1341	H134	0.478200	0.630600	0.320400
H1351	H135	0.474100	0.627900	0.272100
H1361	H136	0.490400	0.724800	0.211400
H1371	H137	0.492800	0.708200	0.082000
H1381	H138	0.504300	0.760100	0.125300
H1391	H139	0.520100	0.801700	0.066700
H1401	H140	0.519200	0.796400	0.018600
H1411	H141	0.558400	0.739000	0.928800
H1421	H142	0.567200	0.727400	0.880200
H1431	H143	0.518100	0.725900	0.875900
H1441	H144	0.455800	0.745600	0.971000
H1451	H145	0.685400	0.814200	0.959200
H1461	H146	0.642400	0.820400	0.941000
H1471	H147	0.636500	0.768300	0.947700
H1481	H148	0.725200	0.709000	0.978800
H1491	H149	0.812400	0.519000	0.988800
H1501	H150	0.820400	0.570800	0.978200
H1511	H151	0.772100	0.625900	0.974100
H1521	H152	0.711400	0.573400	0.990400
H1531	H153	0.582000	0.717000	0.992800
H1541	H154	0.625300	0.610300	0.004300
H1551	H155	0.566700	0.611500	0.020100
H1561	H156	0.518600	0.665800	0.019200
H1571	H157	0.428800	0.773800	0.058400
H1581	H158	0.380200	0.825200	0.067200
H1591	H159	0.375900	0.880100	0.018100
H1601	H160	0.471000	0.827600	0.955800
H1611	H161	0.314200	0.185400	0.541200
H1621	H162	0.320400	0.142400	0.596200
H1631	H163	0.268300	0.136500	0.647500
H1641	H164	0.209000	0.225200	0.587000
H1651	H165	0.019000	0.312400	0.679800
H1661	H166	0.070800	0.320400	0.630600
H1671	H167	0.125900	0.272100	0.627900
H1681	H168	0.073400	0.211400	0.724800
H1691	H169	0.217000	0.082000	0.708200
H1701	H170	0.110300	0.125300	0.760100
H1711	H171	0.111500	0.066700	0.801700
H1721	H172	0.165800	0.018600	0.796400
H1731	H173	0.273800	0.928800	0.739000
H1741	H174	0.325200	0.880200	0.727400
H1751	H175	0.380100	0.875900	0.725900
H1761	H176	0.327600	0.971000	0.745600
H1771	H177	0.041200	0.959200	0.814200
H1781	H178	0.096200	0.941000	0.820400
H1791	H179	0.147500	0.947700	0.768300
H1801	H180	0.087000	0.978800	0.709000
H1811	H181	0.179800	0.988800	0.519000
H1821	H182	0.130600	0.978200	0.570800
H1831	H183	0.127900	0.974100	0.625900
H1841	H184	0.224800	0.990400	0.573400
H1851	H185	0.208200	0.992800	0.717000
H1861	H186	0.260100	0.004300	0.610300
H1871	H187	0.301700	0.020100	0.611500
H1881	H188	0.296400	0.019200	0.665800
H1891	H189	0.239000	0.058400	0.773800
H1901	H190	0.227400	0.067200	0.825200
H1911	H191	0.225900	0.018100	0.880100
H1921	H192	0.245600	0.955800	0.827600
H1931	H193	0.814600	0.540800	0.685800
H1941	H194	0.857600	0.559000	0.679600
H1951	H195	0.863500	0.552300	0.731700
H1961	H196	0.774800	0.521200	0.791000
H1971	H197	0.687600	0.511200	0.981000
H1981	H198	0.679600	0.521800	0.929200
H1991	H199	0.727900	0.525900	0.874100
H2001	H200	0.788600	0.509600	0.926600
H2011	H201	0.918000	0.507200	0.783000
H2021	H202	0.874700	0.495700	0.889700
H2031	H203	0.933300	0.479900	0.888500
H2041	H204	0.981400	0.480800	0.834200
H2051	H205	0.071200	0.441600	0.726200
H2061	H206	0.119800	0.432800	0.674800
H2071	H207	0.124100	0.481900	0.619900
H2081	H208	0.029000	0.544200	0.672400
H2091	H209	0.040800	0.314600	0.958800
H2101	H210	0.059000	0.357600	0.903800
H2111	H211	0.052300	0.363500	0.852500
H2121	H212	0.021200	0.274800	0.913000
H2131	H213	0.011200	0.187600	0.820200
H2141	H214	0.021800	0.179600	0.869400
H2151	H215	0.025900	0.227900	0.872100
H2161	H216	0.009600	0.288600	0.775200
H2171	H217	0.007200	0.418000	0.791800
H2181	H218	0.995700	0.374700	0.739900
H2191	H219	0.979900	0.433300	0.698300
H2201	H220	0.980800	0.481400	0.703600
H2211	H221	0.941600	0.571200	0.761000
H2221	H222	0.932800	0.619800	0.772600
H2231	H223	0.981900	0.624100	0.774100
H2241	H224	0.044200	0.529000	0.754400
H2251	H225	0.458800	0.685800	0.540800
H2261	H226	0.403800	0.679600	0.559000
H2271	H227	0.352500	0.731700	0.552300
H2281	H228	0.413000	0.791000	0.521200
H2291	H229	0.320200	0.981000	0.511200
H2301	H230	0.369400	0.929200	0.521800
H2311	H231	0.372100	0.874100	0.525900
H2321	H232	0.275200	0.926600	0.509600
H2331	H233	0.291800	0.783000	0.507200
H2341	H234	0.239900	0.889700	0.495700
H2351	H235	0.198300	0.888500	0.479900
H2361	H236	0.203600	0.834200	0.480800
H2371	H237	0.261000	0.726200	0.441600
H2381	H238	0.272600	0.674800	0.432800
H2391	H239	0.274100	0.619900	0.481900
H2401	H240	0.254400	0.672400	0.544200
H2411	H241	0.185800	0.958800	0.314600
H2421	H242	0.179600	0.903800	0.357600
H2431	H243	0.231700	0.852500	0.363500
H2441	H244	0.291000	0.913000	0.274800
H2451	H245	0.481000	0.820200	0.187600
H2461	H246	0.429200	0.869400	0.179600
H2471	H247	0.374100	0.872100	0.227900
H2481	H248	0.426600	0.775200	0.288600
H2491	H249	0.283000	0.791800	0.418000
H2501	H250	0.389700	0.739900	0.374700
H2511	H251	0.388500	0.698300	0.433300
H2521	H252	0.334200	0.703600	0.481400
H2531	H253	0.226200	0.761000	0.571200
H2541	H254	0.174800	0.772600	0.619800
H2551	H255	0.119900	0.774100	0.624100
H2561	H256	0.172400	0.754400	0.529000
H2571	H257	0.185800	0.540800	0.958800
H2581	H258	0.179600	0.559000	0.903800
H2591	H259	0.231700	0.552300	0.852500
H2601	H260	0.291000	0.521200	0.913000
H2611	H261	0.481000	0.511200	0.820200
H2621	H262	0.429200	0.521800	0.869400
H2631	H263	0.374100	0.525900	0.872100
H2641	H264	0.426600	0.509600	0.775200
H2651	H265	0.283000	0.507200	0.791800
H2661	H266	0.389700	0.495700	0.739900
H2671	H267	0.388500	0.479900	0.698300
H2681	H268	0.334200	0.480800	0.703600
H2691	H269	0.226200	0.441600	0.761000
H2701	H270	0.174800	0.432800	0.772600
H2711	H271	0.119900	0.481900	0.774100
H2721	H272	0.172400	0.544200	0.754400
H2731	H273	0.458800	0.314600	0.685800
H2741	H274	0.403800	0.357600	0.679600
H2751	H275	0.352500	0.363500	0.731700
H2761	H276	0.413000	0.274800	0.791000
H2771	H277	0.320200	0.187600	0.981000
H2781	H278	0.369400	0.179600	0.929200
H2791	H279	0.372100	0.227900	0.874100
H2801	H280	0.275200	0.288600	0.926600
H2811	H281	0.291800	0.418000	0.783000
H2821	H282	0.239900	0.374700	0.889700
H2831	H283	0.198300	0.433300	0.888500
H2841	H284	0.203600	0.481400	0.834200
H2851	H285	0.261000	0.571200	0.726200
H2861	H286	0.272600	0.619800	0.674800
H2871	H287	0.274100	0.624100	0.619900
H2881	H288	0.254400	0.529000	0.672400
H2891	H289	0.040800	0.685800	0.314600
H2901	H290	0.059000	0.679600	0.357600
H2911	H291	0.052300	0.731700	0.363500
H2921	H292	0.021200	0.791000	0.274800
H2931	H293	0.011200	0.981000	0.187600
H2941	H294	0.021800	0.929200	0.179600
H2951	H295	0.025900	0.874100	0.227900
H2961	H296	0.009600	0.926600	0.288600
H2971	H297	0.007200	0.783000	0.418000
H2981	H298	0.995700	0.889700	0.374700
H2991	H299	0.979900	0.888500	0.433300
H3001	H300	0.980800	0.834200	0.481400
H3011	H301	0.941600	0.726200	0.571200
H3021	H302	0.932800	0.674800	0.619800
H3031	H303	0.981900	0.619900	0.624100
H3041	H304	0.044200	0.672400	0.529000
H3051	H305	0.814600	0.958800	0.540800
H3061	H306	0.857600	0.903800	0.559000
H3071	H307	0.863500	0.852500	0.552300
H3081	H308	0.774800	0.913000	0.521200
H3091	H309	0.687600	0.820200	0.511200
H3101	H310	0.679600	0.869400	0.521800
H3111	H311	0.727900	0.872100	0.525900
H3121	H312	0.788600	0.775200	0.509600
H3131	H313	0.918000	0.791800	0.507200
H3141	H314	0.874700	0.739900	0.495700
H3151	H315	0.933300	0.698300	0.479900
H3161	H316	0.981400	0.703600	0.480800
H3171	H317	0.071200	0.761000	0.441600
H3181	H318	0.119800	0.772600	0.432800
H3191	H319	0.124100	0.774100	0.481900
H3201	H320	0.029000	0.754400	0.544200
H3211	H321	0.458800	0.540800	0.314600
H3221	H322	0.403800	0.559000	0.357600
H3231	H323	0.352500	0.552300	0.363500
H3241	H324	0.413000	0.521200	0.274800
H3251	H325	0.320200	0.511200	0.187600
H3261	H326	0.369400	0.521800	0.179600
H3271	H327	0.372100	0.525900	0.227900
H3281	H328	0.275200	0.509600	0.288600
H3291	H329	0.291800	0.507200	0.418000
H3301	H330	0.239900	0.495700	0.374700
H3311	H331	0.198300	0.479900	0.433300
H3321	H332	0.203600	0.480800	0.481400
H3331	H333	0.261000	0.441600	0.571200
H3341	H334	0.272600	0.432800	0.619800
H3351	H335	0.274100	0.481900	0.624100
H3361	H336	0.254400	0.544200	0.529000
H3371	H337	0.185800	0.314600	0.540800
H3381	H338	0.179600	0.357600	0.559000
H3391	H339	0.231700	0.363500	0.552300
H3401	H340	0.291000	0.274800	0.521200
H3411	H341	0.481000	0.187600	0.511200
H3421	H342	0.429200	0.179600	0.521800
H3431	H343	0.374100	0.227900	0.525900
H3441	H344	0.426600	0.288600	0.509600
H3451	H345	0.283000	0.418000	0.507200
H3461	H346	0.389700	0.374700	0.495700
H3471	H347	0.388500	0.433300	0.479900
H3481	H348	0.334200	0.481400	0.480800
H3491	H349	0.226200	0.571200	0.441600
H3501	H350	0.174800	0.619800	0.432800
H3511	H351	0.119900	0.624100	0.481900
H3521	H352	0.172400	0.529000	0.544200
H3531	H353	0.814600	0.685800	0.958800
H3541	H354	0.857600	0.679600	0.903800
H3551	H355	0.863500	0.731700	0.852500
H3561	H356	0.774800	0.791000	0.913000
H3571	H357	0.687600	0.981000	0.820200
H3581	H358	0.679600	0.929200	0.869400
H3591	H359	0.727900	0.874100	0.872100
H3601	H360	0.788600	0.926600	0.775200
H3611	H361	0.918000	0.783000	0.791800
H3621	H362	0.874700	0.889700	0.739900
H3631	H363	0.933300	0.888500	0.698300
H3641	H364	0.981400	0.834200	0.703600
H3651	H365	0.071200	0.726200	0.761000
H3661	H366	0.119800	0.674800	0.772600
H3671	H367	0.124100	0.619900	0.774100
H3681	H368	0.029000	0.672400	0.754400
H3691	H369	0.040800	0.958800	0.685800
H3701	H370	0.059000	0.903800	0.679600
H3711	H371	0.052300	0.852500	0.731700
H3721	H372	0.021200	0.913000	0.791000
H3731	H373	0.011200	0.820200	0.981000
H3741	H374	0.021800	0.869400	0.929200
H3751	H375	0.025900	0.872100	0.874100
H3761	H376	0.009600	0.775200	0.926600
H3771	H377	0.007200	0.791800	0.783000
H3781	H378	0.995700	0.739900	0.889700
H3791	H379	0.979900	0.698300	0.888500
H3801	H380	0.980800	0.703600	0.834200
H3811	H381	0.941600	0.761000	0.726200
H3821	H382	0.932800	0.772600	0.674800
H3831	H383	0.981900	0.774100	0.619900
H3841	H384	0.044200	0.754400	0.672400
H3851	H385	0.540800	0.814600	0.185800
H3861	H386	0.559000	0.857600	0.179600
H3871	H387	0.552300	0.863500	0.231700
H3881	H388	0.521200	0.774800	0.291000
H3891	H389	0.511200	0.687600	0.481000
H3901	H390	0.521800	0.679600	0.429200
H3911	H391	0.525900	0.727900	0.374100
H3921	H392	0.509600	0.788600	0.426600
H3931	H393	0.507200	0.918000	0.283000
H3941	H394	0.495700	0.874700	0.389700
H3951	H395	0.479900	0.933300	0.388500
H3961	H396	0.480800	0.981400	0.334200
H3971	H397	0.441600	0.071200	0.226200
H3981	H398	0.432800	0.119800	0.174800
H3991	H399	0.481900	0.124100	0.119900
H4001	H400	0.544200	0.029000	0.172400
H4011	H401	0.314600	0.040800	0.458800
H4021	H402	0.357600	0.059000	0.403800
H4031	H403	0.363500	0.052300	0.352500
H4041	H404	0.274800	0.021200	0.413000
H4051	H405	0.187600	0.011200	0.320200
H4061	H406	0.179600	0.021800	0.369400
H4071	H407	0.227900	0.025900	0.372100
H4081	H408	0.288600	0.009600	0.275200
H4091	H409	0.418000	0.007200	0.291800
H4101	H410	0.374700	0.995700	0.239900
H4111	H411	0.433300	0.979900	0.198300
H4121	H412	0.481400	0.980800	0.203600
H4131	H413	0.571200	0.941600	0.261000
H4141	H414	0.619800	0.932800	0.272600
H4151	H415	0.624100	0.981900	0.274100
H4161	H416	0.529000	0.044200	0.254400
H4171	H417	0.685800	0.458800	0.040800
H4181	H418	0.679600	0.403800	0.059000
H4191	H419	0.731700	0.352500	0.052300
H4201	H420	0.791000	0.413000	0.021200
H4211	H421	0.981000	0.320200	0.011200
H4221	H422	0.929200	0.369400	0.021800
H4231	H423	0.874100	0.372100	0.025900
H4241	H424	0.926600	0.275200	0.009600
H4251	H425	0.783000	0.291800	0.007200
H4261	H426	0.889700	0.239900	0.995700
H4271	H427	0.888500	0.198300	0.979900
H4281	H428	0.834200	0.203600	0.980800
H4291	H429	0.726200	0.261000	0.941600
H4301	H430	0.674800	0.272600	0.932800
H4311	H431	0.619900	0.274100	0.981900
H4321	H432	0.672400	0.254400	0.044200
H4331	H433	0.958800	0.185800	0.814600
H4341	H434	0.903800	0.179600	0.857600
H4351	H435	0.852500	0.231700	0.863500
H4361	H436	0.913000	0.291000	0.774800
H4371	H437	0.820200	0.481000	0.687600
H4381	H438	0.869400	0.429200	0.679600
H4391	H439	0.872100	0.374100	0.727900
H4401	H440	0.775200	0.426600	0.788600
H4411	H441	0.791800	0.283000	0.918000
H4421	H442	0.739900	0.389700	0.874700
H4431	H443	0.698300	0.388500	0.933300
H4441	H444	0.703600	0.334200	0.981400
H4451	H445	0.761000	0.226200	0.071200
H4461	H446	0.772600	0.174800	0.119800
H4471	H447	0.774100	0.119900	0.124100
H4481	H448	0.754400	0.172400	0.029000
H4491	H449	0.540800	0.185800	0.458800
H4501	H450	0.559000	0.179600	0.403800
H4511	H451	0.552300	0.231700	0.352500
H4521	H452	0.521200	0.291000	0.413000
H4531	H453	0.511200	0.481000	0.320200
H4541	H454	0.521800	0.429200	0.369400
H4551	H455	0.525900	0.374100	0.372100
H4561	H456	0.509600	0.426600	0.275200
H4571	H457	0.507200	0.283000	0.291800
H4581	H458	0.495700	0.389700	0.239900
H4591	H459	0.479900	0.388500	0.198300
H4601	H460	0.480800	0.334200	0.203600
H4611	H461	0.441600	0.226200	0.261000
H4621	H462	0.432800	0.174800	0.272600
H4631	H463	0.481900	0.119900	0.274100
H4641	H464	0.544200	0.172400	0.254400
H4651	H465	0.314600	0.458800	0.185800
H4661	H466	0.357600	0.403800	0.179600
H4671	H467	0.363500	0.352500	0.231700
H4681	H468	0.274800	0.413000	0.291000
H4691	H469	0.187600	0.320200	0.481000
H4701	H470	0.179600	0.369400	0.429200
H4711	H471	0.227900	0.372100	0.374100
H4721	H472	0.288600	0.275200	0.426600
H4731	H473	0.418000	0.291800	0.283000
H4741	H474	0.374700	0.239900	0.389700
H4751	H475	0.433300	0.198300	0.388500
H4761	H476	0.481400	0.203600	0.334200
H4771	H477	0.571200	0.261000	0.226200
H4781	H478	0.619800	0.272600	0.174800
H4791	H479	0.624100	0.274100	0.119900
H4801	H480	0.529000	0.254400	0.172400
H4811	H481	0.685800	0.040800	0.814600
H4821	H482	0.679600	0.059000	0.857600
H4831	H483	0.731700	0.052300	0.863500
H4841	H484	0.791000	0.021200	0.774800
H4851	H485	0.981000	0.011200	0.687600
H4861	H486	0.929200	0.021800	0.679600
H4871	H487	0.874100	0.025900	0.727900
H4881	H488	0.926600	0.009600	0.788600
H4891	H489	0.783000	0.007200	0.918000
H4901	H490	0.889700	0.995700	0.874700
H4911	H491	0.888500	0.979900	0.933300
H4921	H492	0.834200	0.980800	0.981400
H4931	H493	0.726200	0.941600	0.071200
H4941	H494	0.674800	0.932800	0.119800
H4951	H495	0.619900	0.981900	0.124100
H4961	H496	0.672400	0.044200	0.029000
H4971	H497	0.958800	0.814600	0.040800
H4981	H498	0.903800	0.857600	0.059000
H4991	H499	0.852500	0.863500	0.052300
H5001	H500	0.913000	0.774800	0.021200
H5011	H501	0.820200	0.687600	0.011200
H5021	H502	0.869400	0.679600	0.021800
H5031	H503	0.872100	0.727900	0.025900
H5041	H504	0.775200	0.788600	0.009600
H5051	H505	0.791800	0.918000	0.007200
H5061	H506	0.739900	0.874700	0.995700
H5071	H507	0.698300	0.933300	0.979900
H5081	H508	0.703600	0.981400	0.980800
H5091	H509	0.761000	0.071200	0.941600
H5101	H510	0.772600	0.119800	0.932800
H5111	H511	0.774100	0.124100	0.981900
H5121	H512	0.754400	0.029000	0.044200
H5131	H513	0.540800	0.458800	0.814600
H5141	H514	0.559000	0.403800	0.857600
H5151	H515	0.552300	0.352500	0.863500
H5161	H516	0.521200	0.413000	0.774800
H5171	H517	0.511200	0.320200	0.687600
H5181	H518	0.521800	0.369400	0.679600
H5191	H519	0.525900	0.372100	0.727900
H5201	H520	0.509600	0.275200	0.788600
H5211	H521	0.507200	0.291800	0.918000
H5221	H522	0.495700	0.239900	0.874700
H5231	H523	0.479900	0.198300	0.933300
H5241	H524	0.480800	0.203600	0.981400
H5251	H525	0.441600	0.261000	0.071200
H5261	H526	0.432800	0.272600	0.119800
H5271	H527	0.481900	0.274100	0.124100
H5281	H528	0.544200	0.254400	0.029000
H5291	H529	0.314600	0.185800	0.040800
H5301	H530	0.357600	0.179600	0.059000
H5311	H531	0.363500	0.231700	0.052300
H5321	H532	0.274800	0.291000	0.021200
H5331	H533	0.187600	0.481000	0.011200
H5341	H534	0.179600	0.429200	0.021800
H5351	H535	0.227900	0.374100	0.025900
H5361	H536	0.288600	0.426600	0.009600
H5371	H537	0.418000	0.283000	0.007200
H5381	H538	0.374700	0.389700	0.995700
H5391	H539	0.433300	0.388500	0.979900
H5401	H540	0.481400	0.334200	0.980800
H5411	H541	0.571200	0.226200	0.941600
H5421	H542	0.619800	0.174800	0.932800
H5431	H543	0.624100	0.119900	0.981900
H5441	H544	0.529000	0.172400	0.044200
H5451	H545	0.685800	0.814600	0.458800
H5461	H546	0.679600	0.857600	0.403800
H5471	H547	0.731700	0.863500	0.352500
H5481	H548	0.791000	0.774800	0.413000
H5491	H549	0.981000	0.687600	0.320200
H5501	H550	0.929200	0.679600	0.369400
H5511	H551	0.874100	0.727900	0.372100
H5521	H552	0.926600	0.788600	0.275200
H5531	H553	0.783000	0.918000	0.291800
H5541	H554	0.889700	0.874700	0.239900
H5551	H555	0.888500	0.933300	0.198300
H5561	H556	0.834200	0.981400	0.203600
H5571	H557	0.726200	0.071200	0.261000
H5581	H558	0.674800	0.119800	0.272600
H5591	H559	0.619900	0.124100	0.274100
H5601	H560	0.672400	0.029000	0.254400
H5611	H561	0.958800	0.040800	0.185800
H5621	H562	0.903800	0.059000	0.179600
H5631	H563	0.852500	0.052300	0.231700
H5641	H564	0.913000	0.021200	0.291000
H5651	H565	0.820200	0.011200	0.481000
H5661	H566	0.869400	0.021800	0.429200
H5671	H567	0.872100	0.025900	0.374100
H5681	H568	0.775200	0.009600	0.426600
H5691	H569	0.791800	0.007200	0.283000
H5701	H570	0.739900	0.995700	0.389700
H5711	H571	0.698300	0.979900	0.388500
H5721	H572	0.703600	0.980800	0.334200
H5731	H573	0.761000	0.941600	0.226200
H5741	H574	0.772600	0.932800	0.174800
H5751	H575	0.774100	0.981900	0.119900
H5761	H576	0.754400	0.044200	0.172400
H5771	H577	0.185400	0.459200	0.314200
H5781	H578	0.142400	0.441000	0.320400
H5791	H579	0.136500	0.447700	0.268300
H5801	H580	0.225200	0.478800	0.209000
H5811	H581	0.312400	0.488800	0.019000
H5821	H582	0.320400	0.478200	0.070800
H5831	H583	0.272100	0.474100	0.125900
H5841	H584	0.211400	0.490400	0.073400
H5851	H585	0.082000	0.492800	0.217000
H5861	H586	0.125300	0.504300	0.110300
H5871	H587	0.066700	0.520100	0.111500
H5881	H588	0.018600	0.519200	0.165800
H5891	H589	0.928800	0.558400	0.273800
H5901	H590	0.880200	0.567200	0.325200
H5911	H591	0.875900	0.518100	0.380100
H5921	H592	0.971000	0.455800	0.327600
H5931	H593	0.959200	0.685400	0.041200
H5941	H594	0.941000	0.642400	0.096200
H5951	H595	0.947700	0.636500	0.147500
H5961	H596	0.978800	0.725200	0.087000
H5971	H597	0.988800	0.812400	0.179800
H5981	H598	0.978200	0.820400	0.130600
H5991	H599	0.974100	0.772100	0.127900
H6001	H600	0.990400	0.711400	0.224800
H6011	H601	0.992800	0.582000	0.208200
H6021	H602	0.004300	0.625300	0.260100
H6031	H603	0.020100	0.566700	0.301700
H6041	H604	0.019200	0.518600	0.296400
H6051	H605	0.058400	0.428800	0.239000
H6061	H606	0.067200	0.380200	0.227400
H6071	H607	0.018100	0.375900	0.225900
H6081	H608	0.955800	0.471000	0.245600
H6091	H609	0.541200	0.314200	0.459200
H6101	H610	0.596200	0.320400	0.441000
H6111	H611	0.647500	0.268300	0.447700
H6121	H612	0.587000	0.209000	0.478800
H6131	H613	0.679800	0.019000	0.488800
H6141	H614	0.630600	0.070800	0.478200
H6151	H615	0.627900	0.125900	0.474100
H6161	H616	0.724800	0.073400	0.490400
H6171	H617	0.708200	0.217000	0.492800
H6181	H618	0.760100	0.110300	0.504300
H6191	H619	0.801700	0.111500	0.520100
H6201	H620	0.796400	0.165800	0.519200
H6211	H621	0.739000	0.273800	0.558400
H6221	H622	0.727400	0.325200	0.567200
H6231	H623	0.725900	0.380100	0.518100
H6241	H624	0.745600	0.327600	0.455800
H6251	H625	0.814200	0.041200	0.685400
H6261	H626	0.820400	0.096200	0.642400
H6271	H627	0.768300	0.147500	0.636500
H6281	H628	0.709000	0.087000	0.725200
H6291	H629	0.519000	0.179800	0.812400
H6301	H630	0.570800	0.130600	0.820400
H6311	H631	0.625900	0.127900	0.772100
H6321	H632	0.573400	0.224800	0.711400
H6331	H633	0.717000	0.208200	0.582000
H6341	H634	0.610300	0.260100	0.625300
H6351	H635	0.611500	0.301700	0.566700
H6361	H636	0.665800	0.296400	0.518600
H6371	H637	0.773800	0.239000	0.428800
H6381	H638	0.825200	0.227400	0.380200
H6391	H639	0.880100	0.225900	0.375900
H6401	H640	0.827600	0.245600	0.471000
H6411	H641	0.814200	0.459200	0.041200
H6421	H642	0.820400	0.441000	0.096200
H6431	H643	0.768300	0.447700	0.147500
H6441	H644	0.709000	0.478800	0.087000
H6451	H645	0.519000	0.488800	0.179800
H6461	H646	0.570800	0.478200	0.130600
H6471	H647	0.625900	0.474100	0.127900
H6481	H648	0.573400	0.490400	0.224800
H6491	H649	0.717000	0.492800	0.208200
H6501	H650	0.610300	0.504300	0.260100
H6511	H651	0.611500	0.520100	0.301700
H6521	H652	0.665800	0.519200	0.296400
H6531	H653	0.773800	0.558400	0.239000
H6541	H654	0.825200	0.567200	0.227400
H6551	H655	0.880100	0.518100	0.225900
H6561	H656	0.827600	0.455800	0.245600
H6571	H657	0.541200	0.685400	0.314200
H6581	H658	0.596200	0.642400	0.320400
H6591	H659	0.647500	0.636500	0.268300
H6601	H660	0.587000	0.725200	0.209000
H6611	H661	0.679800	0.812400	0.019000
H6621	H662	0.630600	0.820400	0.070800
H6631	H663	0.627900	0.772100	0.125900
H6641	H664	0.724800	0.711400	0.073400
H6651	H665	0.708200	0.582000	0.217000
H6661	H666	0.760100	0.625300	0.110300
H6671	H667	0.801700	0.566700	0.111500
H6681	H668	0.796400	0.518600	0.165800
H6691	H669	0.739000	0.428800	0.273800
H6701	H670	0.727400	0.380200	0.325200
H6711	H671	0.725900	0.375900	0.380100
H6721	H672	0.745600	0.471000	0.327600
H6731	H673	0.959200	0.314200	0.685400
H6741	H674	0.941000	0.320400	0.642400
H6751	H675	0.947700	0.268300	0.636500
H6761	H676	0.978800	0.209000	0.725200
H6771	H677	0.988800	0.019000	0.812400
H6781	H678	0.978200	0.070800	0.820400
H6791	H679	0.974100	0.125900	0.772100
H6801	H680	0.990400	0.073400	0.711400
H6811	H681	0.992800	0.217000	0.582000
H6821	H682	0.004300	0.110300	0.625300
H6831	H683	0.020100	0.111500	0.566700
H6841	H684	0.019200	0.165800	0.518600
H6851	H685	0.058400	0.273800	0.428800
H6861	H686	0.067200	0.325200	0.380200
H6871	H687	0.018100	0.380100	0.375900
H6881	H688	0.955800	0.327600	0.471000
H6891	H689	0.185400	0.041200	0.459200
H6901	H690	0.142400	0.096200	0.441000
H6911	H691	0.136500	0.147500	0.447700
H6921	H692	0.225200	0.087000	0.478800
H6931	H693	0.312400	0.179800	0.488800
H6941	H694	0.320400	0.130600	0.478200
H6951	H695	0.272100	0.127900	0.474100
H6961	H696	0.211400	0.224800	0.490400
H6971	H697	0.082000	0.208200	0.492800
H6981	H698	0.125300	0.260100	0.504300
H6991	H699	0.066700	0.301700	0.520100
H7001	H700	0.018600	0.296400	0.519200
H7011	H701	0.928800	0.239000	0.558400
H7021	H702	0.880200	0.227400	0.567200
H7031	H703	0.875900	0.225900	0.518100
H7041	H704	0.971000	0.245600	0.455800
H7051	H705	0.541200	0.459200	0.685400
H7061	H706	0.596200	0.441000	0.642400
H7071	H707	0.647500	0.447700	0.636500
H7081	H708	0.587000	0.478800	0.725200
H7091	H709	0.679800	0.488800	0.812400
H7101	H710	0.630600	0.478200	0.820400
H7111	H711	0.627900	0.474100	0.772100
H7121	H712	0.724800	0.490400	0.711400
H7131	H713	0.708200	0.492800	0.582000
H7141	H714	0.760100	0.504300	0.625300
H7151	H715	0.801700	0.520100	0.566700
H7161	H716	0.796400	0.519200	0.518600
H7171	H717	0.739000	0.558400	0.428800
H7181	H718	0.727400	0.567200	0.380200
H7191	H719	0.725900	0.518100	0.375900
H7201	H720	0.745600	0.455800	0.471000
H7211	H721	0.814200	0.685400	0.459200
H7221	H722	0.820400	0.642400	0.441000
H7231	H723	0.768300	0.636500	0.447700
H7241	H724	0.709000	0.725200	0.478800
H7251	H725	0.519000	0.812400	0.488800
H7261	H726	0.570800	0.820400	0.478200
H7271	H727	0.625900	0.772100	0.474100
H7281	H728	0.573400	0.711400	0.490400
H7291	H729	0.717000	0.582000	0.492800
H7301	H730	0.610300	0.625300	0.504300
H7311	H731	0.611500	0.566700	0.520100
H7321	H732	0.665800	0.518600	0.519200
H7331	H733	0.773800	0.428800	0.558400
H7341	H734	0.825200	0.380200	0.567200
H7351	H735	0.880100	0.375900	0.518100
H7361	H736	0.827600	0.471000	0.455800
H7371	H737	0.185400	0.314200	0.041200
H7381	H738	0.142400	0.320400	0.096200
H7391	H739	0.136500	0.268300	0.147500
H7401	H740	0.225200	0.209000	0.087000
H7411	H741	0.312400	0.019000	0.179800
H7421	H742	0.320400	0.070800	0.130600
H7431	H743	0.272100	0.125900	0.127900
H7441	H744	0.211400	0.073400	0.224800
H7451	H745	0.082000	0.217000	0.208200
H7461	H746	0.125300	0.110300	0.260100
H7471	H747	0.066700	0.111500	0.301700
H7481	H748	0.018600	0.165800	0.296400
H7491	H749	0.928800	0.273800	0.239000
H7501	H750	0.880200	0.325200	0.227400
H7511	H751	0.875900	0.380100	0.225900
H7521	H752	0.971000	0.327600	0.245600
H7531	H753	0.959200	0.041200	0.314200
H7541	H754	0.941000	0.096200	0.320400
H7551	H755	0.947700	0.147500	0.268300
H7561	H756	0.978800	0.087000	0.209000
H7571	H757	0.988800	0.179800	0.019000
H7581	H758	0.978200	0.130600	0.070800
H7591	H759	0.974100	0.127900	0.125900
H7601	H760	0.990400	0.224800	0.073400
H7611	H761	0.992800	0.208200	0.217000
H7621	H762	0.004300	0.260100	0.110300
H7631	H763	0.020100	0.301700	0.111500
H7641	H764	0.019200	0.296400	0.165800
H7651	H765	0.058400	0.239000	0.273800
H7661	H766	0.067200	0.227400	0.325200
H7671	H767	0.018100	0.225900	0.380100
H7681	H768	0.955800	0.245600	0.327600
C11	C1	0.540670	0.163390	0.525050
C21	C2	0.553070	0.944730	0.704530
C31	C3	0.460100	0.184700	0.793060
C41	C4	0.449970	0.158310	0.796950
C51	C5	0.453090	0.155250	0.766510
C61	C6	0.464470	0.180530	0.733130
C71	C7	0.472300	0.207240	0.731900
C81	C8	0.487130	0.292490	0.541210
C91	C9	0.480700	0.297600	0.572100
C101	C10	0.478070	0.269450	0.604390
C111	C11	0.481280	0.236640	0.605040
C121	C12	0.487890	0.233850	0.572930
C131	C13	0.479680	0.204760	0.638680
C141	C14	0.470870	0.178670	0.698630
C151	C15	0.486440	0.145040	0.666080
C161	C16	0.498030	0.079010	0.695190
C171	C17	0.496430	0.109590	0.664170
C181	C18	0.504770	0.105150	0.632230
C191	C19	0.513880	0.070640	0.633020
C201	C20	0.513810	0.042050	0.665390
C211	C21	0.538550	0.927490	0.795910
C221	C22	0.543930	0.898350	0.826370
C231	C23	0.515160	0.895740	0.858640
C241	C24	0.481470	0.923210	0.858850
C251	C25	0.478500	0.952020	0.827160
C261	C26	0.449800	0.922300	0.892420
C271	C27	0.663390	0.040670	0.770890
C281	C28	0.444730	0.053070	0.797670
C291	C29	0.684700	0.960100	0.562140
C301	C30	0.658310	0.949970	0.594770
C311	C31	0.655250	0.953090	0.625150
C321	C32	0.680530	0.964470	0.621870
C331	C33	0.707240	0.972300	0.588560
C341	C34	0.792490	0.987130	0.679170
C351	C35	0.797600	0.980700	0.649600
C361	C36	0.769450	0.978070	0.648090
C371	C37	0.736640	0.981280	0.677040
C381	C38	0.733850	0.987890	0.705330
C391	C39	0.704760	0.979680	0.676880
C401	C40	0.678670	0.970870	0.651830
C411	C41	0.645040	0.986440	0.702440
C421	C42	0.579010	0.998030	0.727770
C431	C43	0.609590	0.996430	0.729810
C441	C44	0.605150	0.004770	0.757850
C451	C45	0.570640	0.013880	0.782460
C461	C46	0.542050	0.013810	0.778750
C471	C47	0.427490	0.038550	0.738050
C481	C48	0.398350	0.043930	0.731350
C491	C49	0.395740	0.015160	0.730460
C501	C50	0.423210	0.981470	0.736470
C511	C51	0.452020	0.978500	0.742320
C521	C52	0.422300	0.949800	0.735480
C531	C53	0.025050	0.770890	0.040670
C541	C54	0.204530	0.797670	0.053070
C551	C55	0.293060	0.562140	0.960100
C561	C56	0.296950	0.594770	0.949970
C571	C57	0.266510	0.625150	0.953090
C581	C58	0.233130	0.621870	0.964470
C591	C59	0.231900	0.588560	0.972300
C601	C60	0.041210	0.679170	0.987130
C611	C61	0.072100	0.649600	0.980700
C621	C62	0.104390	0.648090	0.978070
C631	C63	0.105040	0.677040	0.981280
C641	C64	0.072930	0.705330	0.987890
C651	C65	0.138680	0.676880	0.979680
C661	C66	0.198630	0.651830	0.970870
C671	C67	0.166080	0.702440	0.986440
C681	C68	0.195190	0.727770	0.998030
C691	C69	0.164170	0.729810	0.996430
C701	C70	0.132230	0.757850	0.004770
C711	C71	0.133020	0.782460	0.013880
C721	C72	0.165390	0.778750	0.013810
C731	C73	0.295910	0.738050	0.038550
C741	C74	0.326370	0.731350	0.043930
C751	C75	0.358640	0.730460	0.015160
C761	C76	0.358850	0.736470	0.981470
C771	C77	0.327160	0.742320	0.978500
C781	C78	0.392420	0.735480	0.949800
C791	C79	0.270890	0.525050	0.163390
C801	C80	0.297670	0.704530	0.944730
C811	C81	0.062140	0.793060	0.184700
C821	C82	0.094770	0.796950	0.158310
C831	C83	0.125150	0.766510	0.155250
C841	C84	0.121870	0.733130	0.180530
C851	C85	0.088560	0.731900	0.207240
C861	C86	0.179170	0.541210	0.292490
C871	C87	0.149600	0.572100	0.297600
C881	C88	0.148090	0.604390	0.269450
C891	C89	0.177040	0.605040	0.236640
C901	C90	0.205330	0.572930	0.233850
C911	C91	0.176880	0.638680	0.204760
C921	C92	0.151830	0.698630	0.178670
C931	C93	0.202440	0.666080	0.145040
C941	C94	0.227770	0.695190	0.079010
C951	C95	0.229810	0.664170	0.109590
C961	C96	0.257850	0.632230	0.105150
C971	C97	0.282460	0.633020	0.070640
C981	C98	0.278750	0.665390	0.042050
C991	C99	0.238050	0.795910	0.927490
C1001	C100	0.231350	0.826370	0.898350
C1011	C101	0.230460	0.858640	0.895740
C1021	C102	0.236470	0.858850	0.923210
C1031	C103	0.242320	0.827160	0.952020
C1041	C104	0.235480	0.892420	0.922300
C1051	C105	0.540670	0.525050	0.770890
C1061	C106	0.553070	0.704530	0.797670
C1071	C107	0.460100	0.793060	0.562140
C1081	C108	0.449970	0.796950	0.594770
C1091	C109	0.453090	0.766510	0.625150
C1101	C110	0.464470	0.733130	0.621870
C1111	C111	0.472300	0.731900	0.588560
C1121	C112	0.487130	0.541210	0.679170
C1131	C113	0.480700	0.572100	0.649600
C1141	C114	0.478070	0.604390	0.648090
C1151	C115	0.481280	0.605040	0.677040
C1161	C116	0.487890	0.572930	0.705330
C1171	C117	0.479680	0.638680	0.676880
C1181	C118	0.470870	0.698630	0.651830
C1191	C119	0.486440	0.666080	0.702440
C1201	C120	0.498030	0.695190	0.727770
C1211	C121	0.496430	0.664170	0.729810
C1221	C122	0.504770	0.632230	0.757850
C1231	C123	0.513880	0.633020	0.782460
C1241	C124	0.513810	0.665390	0.778750
C1251	C125	0.538550	0.795910	0.738050
C1261	C126	0.543930	0.826370	0.731350
C1271	C127	0.515160	0.858640	0.730460
C1281	C128	0.481470	0.858850	0.736470
C1291	C129	0.478500	0.827160	0.742320
C1301	C130	0.449800	0.892420	0.735480
C1311	C131	0.663390	0.770890	0.525050
C1321	C132	0.444730	0.797670	0.704530
C1331	C133	0.684700	0.562140	0.793060
C1341	C134	0.658310	0.594770	0.796950
C1351	C135	0.655250	0.625150	0.766510
C1361	C136	0.680530	0.621870	0.733130
C1371	C137	0.707240	0.588560	0.731900
C1381	C138	0.792490	0.679170	0.541210
C1391	C139	0.797600	0.649600	0.572100
C1401	C140	0.769450	0.648090	0.604390
C1411	C141	0.736640	0.677040	0.605040
C1421	C142	0.733850	0.705330	0.572930
C1431	C143	0.704760	0.676880	0.638680
C1441	C144	0.678670	0.651830	0.698630
C1451	C145	0.645040	0.702440	0.666080
C1461	C146	0.579010	0.727770	0.695190
C1471	C147	0.609590	0.729810	0.664170
C1481	C148	0.605150	0.757850	0.632230
C1491	C149	0.570640	0.782460	0.633020
C1501	C150	0.542050	0.778750	0.665390
C1511	C151	0.427490	0.738050	0.795910
C1521	C152	0.398350	0.731350	0.826370
C1531	C153	0.395740	0.730460	0.858640
C1541	C154	0.423210	0.736470	0.858850
C1551	C155	0.452020	0.742320	0.827160
C1561	C156	0.422300	0.735480	0.892420
C1571	C157	0.025050	0.040670	0.163390
C1581	C158	0.204530	0.053070	0.944730
C1591	C159	0.293060	0.960100	0.184700
C1601	C160	0.296950	0.949970	0.158310
C1611	C161	0.266510	0.953090	0.155250
C1621	C162	0.233130	0.964470	0.180530
C1631	C163	0.231900	0.972300	0.207240
C1641	C164	0.041210	0.987130	0.292490
C1651	C165	0.072100	0.980700	0.297600
C1661	C166	0.104390	0.978070	0.269450
C1671	C167	0.105040	0.981280	0.236640
C1681	C168	0.072930	0.987890	0.233850
C1691	C169	0.138680	0.979680	0.204760
C1701	C170	0.198630	0.970870	0.178670
C1711	C171	0.166080	0.986440	0.145040
C1721	C172	0.195190	0.998030	0.079010
C1731	C173	0.164170	0.996430	0.109590
C1741	C174	0.132230	0.004770	0.105150
C1751	C175	0.133020	0.013880	0.070640
C1761	C176	0.165390	0.013810	0.042050
C1771	C177	0.295910	0.038550	0.927490
C1781	C178	0.326370	0.043930	0.898350
C1791	C179	0.358640	0.015160	0.895740
C1801	C180	0.358850	0.981470	0.923210
C1811	C181	0.327160	0.978500	0.952020
C1821	C182	0.392420	0.949800	0.922300
C1831	C183	0.270890	0.163390	0.040670
C1841	C184	0.297670	0.944730	0.053070
C1851	C185	0.062140	0.184700	0.960100
C1861	C186	0.094770	0.158310	0.949970
C1871	C187	0.125150	0.155250	0.953090
C1881	C188	0.121870	0.180530	0.964470
C1891	C189	0.088560	0.207240	0.972300
C1901	C190	0.179170	0.292490	0.987130
C1911	C191	0.149600	0.297600	0.980700
C1921	C192	0.148090	0.269450	0.978070
C1931	C193	0.177040	0.236640	0.981280
C1941	C194	0.205330	0.233850	0.987890
C1951	C195	0.176880	0.204760	0.979680
C1961	C196	0.151830	0.178670	0.970870
C1971	C197	0.202440	0.145040	0.986440
C1981	C198	0.227770	0.079010	0.998030
C1991	C199	0.229810	0.109590	0.996430
C2001	C200	0.257850	0.105150	0.004770
C2011	C201	0.282460	0.070640	0.013880
C2021	C202	0.278750	0.042050	0.013810
C2031	C203	0.238050	0.927490	0.038550
C2041	C204	0.231350	0.898350	0.043930
C2051	C205	0.230460	0.895740	0.015160
C2061	C206	0.236470	0.923210	0.981470
C2071	C207	0.242320	0.952020	0.978500
C2081	C208	0.235480	0.922300	0.949800
C2091	C209	0.540670	0.770890	0.163390
C2101	C210	0.553070	0.797670	0.944730
C2111	C211	0.460100	0.562140	0.184700
C2121	C212	0.449970	0.594770	0.158310
C2131	C213	0.453090	0.625150	0.155250
C2141	C214	0.464470	0.621870	0.180530
C2151	C215	0.472300	0.588560	0.207240
C2161	C216	0.487130	0.679170	0.292490
C2171	C217	0.480700	0.649600	0.297600
C2181	C218	0.478070	0.648090	0.269450
C2191	C219	0.481280	0.677040	0.236640
C2201	C220	0.487890	0.705330	0.233850
C2211	C221	0.479680	0.676880	0.204760
C2221	C222	0.470870	0.651830	0.178670
C2231	C223	0.486440	0.702440	0.145040
C2241	C224	0.498030	0.727770	0.079010
C2251	C225	0.496430	0.729810	0.109590
C2261	C226	0.504770	0.757850	0.105150
C2271	C227	0.513880	0.782460	0.070640
C2281	C228	0.513810	0.778750	0.042050
C2291	C229	0.538550	0.738050	0.927490
C2301	C230	0.543930	0.731350	0.898350
C2311	C231	0.515160	0.730460	0.895740
C2321	C232	0.481470	0.736470	0.923210
C2331	C233	0.478500	0.742320	0.952020
C2341	C234	0.449800	0.735480	0.922300
C2351	C235	0.663390	0.525050	0.040670
C2361	C236	0.444730	0.704530	0.053070
C2371	C237	0.684700	0.793060	0.960100
C2381	C238	0.658310	0.796950	0.949970
C2391	C239	0.655250	0.766510	0.953090
C2401	C240	0.680530	0.733130	0.964470
C2411	C241	0.707240	0.731900	0.972300
C2421	C242	0.792490	0.541210	0.987130
C2431	C243	0.797600	0.572100	0.980700
C2441	C244	0.769450	0.604390	0.978070
C2451	C245	0.736640	0.605040	0.981280
C2461	C246	0.733850	0.572930	0.987890
C2471	C247	0.704760	0.638680	0.979680
C2481	C248	0.678670	0.698630	0.970870
C2491	C249	0.645040	0.666080	0.986440
C2501	C250	0.579010	0.695190	0.998030
C2511	C251	0.609590	0.664170	0.996430
C2521	C252	0.605150	0.632230	0.004770
C2531	C253	0.570640	0.633020	0.013880
C2541	C254	0.542050	0.665390	0.013810
C2551	C255	0.427490	0.795910	0.038550
C2561	C256	0.398350	0.826370	0.043930
C2571	C257	0.395740	0.858640	0.015160
C2581	C258	0.423210	0.858850	0.981470
C2591	C259	0.452020	0.827160	0.978500
C2601	C260	0.422300	0.892420	0.949800
C2611	C261	0.025050	0.163390	0.770890
C2621	C262	0.204530	0.944730	0.797670
C2631	C263	0.293060	0.184700	0.562140
C2641	C264	0.296950	0.158310	0.594770
C2651	C265	0.266510	0.155250	0.625150
C2661	C266	0.233130	0.180530	0.621870
C2671	C267	0.231900	0.207240	0.588560
C2681	C268	0.041210	0.292490	0.679170
C2691	C269	0.072100	0.297600	0.649600
C2701	C270	0.104390	0.269450	0.648090
C2711	C271	0.105040	0.236640	0.677040
C2721	C272	0.072930	0.233850	0.705330
C2731	C273	0.138680	0.204760	0.676880
C2741	C274	0.198630	0.178670	0.651830
C2751	C275	0.166080	0.145040	0.702440
C2761	C276	0.195190	0.079010	0.727770
C2771	C277	0.164170	0.109590	0.729810
C2781	C278	0.132230	0.105150	0.757850
C2791	C279	0.133020	0.070640	0.782460
C2801	C280	0.165390	0.042050	0.778750
C2811	C281	0.295910	0.927490	0.738050
C2821	C282	0.326370	0.898350	0.731350
C2831	C283	0.358640	0.895740	0.730460
C2841	C284	0.358850	0.923210	0.736470
C2851	C285	0.327160	0.952020	0.742320
C2861	C286	0.392420	0.922300	0.735480
C2871	C287	0.270890	0.040670	0.525050
C2881	C288	0.297670	0.053070	0.704530
C2891	C289	0.062140	0.960100	0.793060
C2901	C290	0.094770	0.949970	0.796950
C2911	C291	0.125150	0.953090	0.766510
C2921	C292	0.121870	0.964470	0.733130
C2931	C293	0.088560	0.972300	0.731900
C2941	C294	0.179170	0.987130	0.541210
C2951	C295	0.149600	0.980700	0.572100
C2961	C296	0.148090	0.978070	0.604390
C2971	C297	0.177040	0.981280	0.605040
C2981	C298	0.205330	0.987890	0.572930
C2991	C299	0.176880	0.979680	0.638680
C3001	C300	0.151830	0.970870	0.698630
C3011	C301	0.202440	0.986440	0.666080
C3021	C302	0.227770	0.998030	0.695190
C3031	C303	0.229810	0.996430	0.664170
C3041	C304	0.257850	0.004770	0.632230
C3051	C305	0.282460	0.013880	0.633020
C3061	C306	0.278750	0.013810	0.665390
C3071	C307	0.238050	0.038550	0.795910
C3081	C308	0.231350	0.043930	0.826370
C3091	C309	0.230460	0.015160	0.858640
C3101	C310	0.236470	0.981470	0.858850
C3111	C311	0.242320	0.978500	0.827160
C3121	C312	0.235480	0.949800	0.892420
C3131	C313	0.836610	0.459330	0.974950
C3141	C314	0.055270	0.446930	0.795470
C3151	C315	0.815300	0.539900	0.706940
C3161	C316	0.841690	0.550030	0.703050
C3171	C317	0.844750	0.546910	0.733490
C3181	C318	0.819470	0.535530	0.766870
C3191	C319	0.792760	0.527700	0.768100
C3201	C320	0.707510	0.512870	0.958790
C3211	C321	0.702400	0.519300	0.927900
C3221	C322	0.730550	0.521930	0.895610
C3231	C323	0.763360	0.518720	0.894960
C3241	C324	0.766150	0.512110	0.927070
C3251	C325	0.795240	0.520320	0.861320
C3261	C326	0.821330	0.529130	0.801370
C3271	C327	0.854960	0.513560	0.833920
C3281	C328	0.920990	0.501970	0.804810
C3291	C329	0.890410	0.503570	0.835830
C3301	C330	0.894850	0.495230	0.867770
C3311	C331	0.929360	0.486120	0.866980
C3321	C332	0.957950	0.486190	0.834610
C3331	C333	0.072510	0.461450	0.704090
C3341	C334	0.101650	0.456070	0.673630
C3351	C335	0.104260	0.484840	0.641360
C3361	C336	0.076790	0.518530	0.641150
C3371	C337	0.047980	0.521500	0.672840
C3381	C338	0.077700	0.550200	0.607580
C3391	C339	0.959330	0.336610	0.729110
C3401	C340	0.946930	0.555270	0.702330
C3411	C341	0.039900	0.315300	0.937860
C3421	C342	0.050030	0.341690	0.905230
C3431	C343	0.046910	0.344750	0.874850
C3441	C344	0.035530	0.319470	0.878130
C3451	C345	0.027700	0.292760	0.911440
C3461	C346	0.012870	0.207510	0.820830
C3471	C347	0.019300	0.202400	0.850400
C3481	C348	0.021930	0.230550	0.851910
C3491	C349	0.018720	0.263360	0.822960
C3501	C350	0.012110	0.266150	0.794670
C3511	C351	0.020320	0.295240	0.823120
C3521	C352	0.029130	0.321330	0.848170
C3531	C353	0.013560	0.354960	0.797560
C3541	C354	0.001970	0.420990	0.772230
C3551	C355	0.003570	0.390410	0.770190
C3561	C356	0.995230	0.394850	0.742150
C3571	C357	0.986120	0.429360	0.717540
C3581	C358	0.986190	0.457950	0.721250
C3591	C359	0.961450	0.572510	0.761950
C3601	C360	0.956070	0.601650	0.768650
C3611	C361	0.984840	0.604260	0.769540
C3621	C362	0.018530	0.576790	0.763530
C3631	C363	0.021500	0.547980	0.757680
C3641	C364	0.050200	0.577700	0.764520
C3651	C365	0.229110	0.974950	0.459330
C3661	C366	0.202330	0.795470	0.446930
C3671	C367	0.437860	0.706940	0.539900
C3681	C368	0.405230	0.703050	0.550030
C3691	C369	0.374850	0.733490	0.546910
C3701	C370	0.378130	0.766870	0.535530
C3711	C371	0.411440	0.768100	0.527700
C3721	C372	0.320830	0.958790	0.512870
C3731	C373	0.350400	0.927900	0.519300
C3741	C374	0.351910	0.895610	0.521930
C3751	C375	0.322960	0.894960	0.518720
C3761	C376	0.294670	0.927070	0.512110
C3771	C377	0.323120	0.861320	0.520320
C3781	C378	0.348170	0.801370	0.529130
C3791	C379	0.297560	0.833920	0.513560
C3801	C380	0.272230	0.804810	0.501970
C3811	C381	0.270190	0.835830	0.503570
C3821	C382	0.242150	0.867770	0.495230
C3831	C383	0.217540	0.866980	0.486120
C3841	C384	0.221250	0.834610	0.486190
C3851	C385	0.261950	0.704090	0.461450
C3861	C386	0.268650	0.673630	0.456070
C3871	C387	0.269540	0.641360	0.484840
C3881	C388	0.263530	0.641150	0.518530
C3891	C389	0.257680	0.672840	0.521500
C3901	C390	0.264520	0.607580	0.550200
C3911	C391	0.474950	0.729110	0.336610
C3921	C392	0.295470	0.702330	0.555270
C3931	C393	0.206940	0.937860	0.315300
C3941	C394	0.203050	0.905230	0.341690
C3951	C395	0.233490	0.874850	0.344750
C3961	C396	0.266870	0.878130	0.319470
C3971	C397	0.268100	0.911440	0.292760
C3981	C398	0.458790	0.820830	0.207510
C3991	C399	0.427900	0.850400	0.202400
C4001	C400	0.395610	0.851910	0.230550
C4011	C401	0.394960	0.822960	0.263360
C4021	C402	0.427070	0.794670	0.266150
C4031	C403	0.361320	0.823120	0.295240
C4041	C404	0.301370	0.848170	0.321330
C4051	C405	0.333920	0.797560	0.354960
C4061	C406	0.304810	0.772230	0.420990
C4071	C407	0.335830	0.770190	0.390410
C4081	C408	0.367770	0.742150	0.394850
C4091	C409	0.366980	0.717540	0.429360
C4101	C410	0.334610	0.721250	0.457950
C4111	C411	0.204090	0.761950	0.572510
C4121	C412	0.173630	0.768650	0.601650
C4131	C413	0.141360	0.769540	0.604260
C4141	C414	0.141150	0.763530	0.576790
C4151	C415	0.172840	0.757680	0.547980
C4161	C416	0.107580	0.764520	0.577700
C4171	C417	0.474950	0.459330	0.729110
C4181	C418	0.295470	0.446930	0.702330
C4191	C419	0.206940	0.539900	0.937860
C4201	C420	0.203050	0.550030	0.905230
C4211	C421	0.233490	0.546910	0.874850
C4221	C422	0.266870	0.535530	0.878130
C4231	C423	0.268100	0.527700	0.911440
C4241	C424	0.458790	0.512870	0.820830
C4251	C425	0.427900	0.519300	0.850400
C4261	C426	0.395610	0.521930	0.851910
C4271	C427	0.394960	0.518720	0.822960
C4281	C428	0.427070	0.512110	0.794670
C4291	C429	0.361320	0.520320	0.823120
C4301	C430	0.301370	0.529130	0.848170
C4311	C431	0.333920	0.513560	0.797560
C4321	C432	0.304810	0.501970	0.772230
C4331	C433	0.335830	0.503570	0.770190
C4341	C434	0.367770	0.495230	0.742150
C4351	C435	0.366980	0.486120	0.717540
C4361	C436	0.334610	0.486190	0.721250
C4371	C437	0.204090	0.461450	0.761950
C4381	C438	0.173630	0.456070	0.768650
C4391	C439	0.141360	0.484840	0.769540
C4401	C440	0.141150	0.518530	0.763530
C4411	C441	0.172840	0.521500	0.757680
C4421	C442	0.107580	0.550200	0.764520
C4431	C443	0.229110	0.336610	0.974950
C4441	C444	0.202330	0.555270	0.795470
C4451	C445	0.437860	0.315300	0.706940
C4461	C446	0.405230	0.341690	0.703050
C4471	C447	0.374850	0.344750	0.733490
C4481	C448	0.378130	0.319470	0.766870
C4491	C449	0.411440	0.292760	0.768100
C4501	C450	0.320830	0.207510	0.958790
C4511	C451	0.350400	0.202400	0.927900
C4521	C452	0.351910	0.230550	0.895610
C4531	C453	0.322960	0.263360	0.894960
C4541	C454	0.294670	0.266150	0.927070
C4551	C455	0.323120	0.295240	0.861320
C4561	C456	0.348170	0.321330	0.801370
C4571	C457	0.297560	0.354960	0.833920
C4581	C458	0.272230	0.420990	0.804810
C4591	C459	0.270190	0.390410	0.835830
C4601	C460	0.242150	0.394850	0.867770
C4611	C461	0.217540	0.429360	0.866980
C4621	C462	0.221250	0.457950	0.834610
C4631	C463	0.261950	0.572510	0.704090
C4641	C464	0.268650	0.601650	0.673630
C4651	C465	0.269540	0.604260	0.641360
C4661	C466	0.263530	0.576790	0.641150
C4671	C467	0.257680	0.547980	0.672840
C4681	C468	0.264520	0.577700	0.607580
C4691	C469	0.959330	0.974950	0.336610
C4701	C470	0.946930	0.795470	0.555270
C4711	C471	0.039900	0.706940	0.315300
C4721	C472	0.050030	0.703050	0.341690
C4731	C473	0.046910	0.733490	0.344750
C4741	C474	0.035530	0.766870	0.319470
C4751	C475	0.027700	0.768100	0.292760
C4761	C476	0.012870	0.958790	0.207510
C4771	C477	0.019300	0.927900	0.202400
C4781	C478	0.021930	0.895610	0.230550
C4791	C479	0.018720	0.894960	0.263360
C4801	C480	0.012110	0.927070	0.266150
C4811	C481	0.020320	0.861320	0.295240
C4821	C482	0.029130	0.801370	0.321330
C4831	C483	0.013560	0.833920	0.354960
C4841	C484	0.001970	0.804810	0.420990
C4851	C485	0.003570	0.835830	0.390410
C4861	C486	0.995230	0.867770	0.394850
C4871	C487	0.986120	0.866980	0.429360
C4881	C488	0.986190	0.834610	0.457950
C4891	C489	0.961450	0.704090	0.572510
C4901	C490	0.956070	0.673630	0.601650
C4911	C491	0.984840	0.641360	0.604260
C4921	C492	0.018530	0.641150	0.576790
C4931	C493	0.021500	0.672840	0.547980
C4941	C494	0.050200	0.607580	0.577700
C4951	C495	0.836610	0.729110	0.459330
C4961	C496	0.055270	0.702330	0.446930
C4971	C497	0.815300	0.937860	0.539900
C4981	C498	0.841690	0.905230	0.550030
C4991	C499	0.844750	0.874850	0.546910
C5001	C500	0.819470	0.878130	0.535530
C5011	C501	0.792760	0.911440	0.527700
C5021	C502	0.707510	0.820830	0.512870
C5031	C503	0.702400	0.850400	0.519300
C5041	C504	0.730550	0.851910	0.521930
C5051	C505	0.763360	0.822960	0.518720
C5061	C506	0.766150	0.794670	0.512110
C5071	C507	0.795240	0.823120	0.520320
C5081	C508	0.821330	0.848170	0.529130
C5091	C509	0.854960	0.797560	0.513560
C5101	C510	0.920990	0.772230	0.501970
C5111	C511	0.890410	0.770190	0.503570
C5121	C512	0.894850	0.742150	0.495230
C5131	C513	0.929360	0.717540	0.486120
C5141	C514	0.957950	0.721250	0.486190
C5151	C515	0.072510	0.761950	0.461450
C5161	C516	0.101650	0.768650	0.456070
C5171	C517	0.104260	0.769540	0.484840
C5181	C518	0.076790	0.763530	0.518530
C5191	C519	0.047980	0.757680	0.521500
C5201	C520	0.077700	0.764520	0.550200
C5211	C521	0.229110	0.459330	0.336610
C5221	C522	0.202330	0.446930	0.555270
C5231	C523	0.437860	0.539900	0.315300
C5241	C524	0.405230	0.550030	0.341690
C5251	C525	0.374850	0.546910	0.344750
C5261	C526	0.378130	0.535530	0.319470
C5271	C527	0.411440	0.527700	0.292760
C5281	C528	0.320830	0.512870	0.207510
C5291	C529	0.350400	0.519300	0.202400
C5301	C530	0.351910	0.521930	0.230550
C5311	C531	0.322960	0.518720	0.263360
C5321	C532	0.294670	0.512110	0.266150
C5331	C533	0.323120	0.520320	0.295240
C5341	C534	0.348170	0.529130	0.321330
C5351	C535	0.297560	0.513560	0.354960
C5361	C536	0.272230	0.501970	0.420990
C5371	C537	0.270190	0.503570	0.390410
C5381	C538	0.242150	0.495230	0.394850
C5391	C539	0.217540	0.486120	0.429360
C5401	C540	0.221250	0.486190	0.457950
C5411	C541	0.261950	0.461450	0.572510
C5421	C542	0.268650	0.456070	0.601650
C5431	C543	0.269540	0.484840	0.604260
C5441	C544	0.263530	0.518530	0.576790
C5451	C545	0.257680	0.521500	0.547980
C5461	C546	0.264520	0.550200	0.577700
C5471	C547	0.474950	0.336610	0.459330
C5481	C548	0.295470	0.555270	0.446930
C5491	C549	0.206940	0.315300	0.539900
C5501	C550	0.203050	0.341690	0.550030
C5511	C551	0.233490	0.344750	0.546910
C5521	C552	0.266870	0.319470	0.535530
C5531	C553	0.268100	0.292760	0.527700
C5541	C554	0.458790	0.207510	0.512870
C5551	C555	0.427900	0.202400	0.519300
C5561	C556	0.395610	0.230550	0.521930
C5571	C557	0.394960	0.263360	0.518720
C5581	C558	0.427070	0.266150	0.512110
C5591	C559	0.361320	0.295240	0.520320
C5601	C560	0.301370	0.321330	0.529130
C5611	C561	0.333920	0.354960	0.513560
C5621	C562	0.304810	0.420990	0.501970
C5631	C563	0.335830	0.390410	0.503570
C5641	C564	0.367770	0.394850	0.495230
C5651	C565	0.366980	0.429360	0.486120
C5661	C566	0.334610	0.457950	0.486190
C5671	C567	0.204090	0.572510	0.461450
C5681	C568	0.173630	0.601650	0.456070
C5691	C569	0.141360	0.604260	0.484840
C5701	C570	0.141150	0.576790	0.518530
C5711	C571	0.172840	0.547980	0.521500
C5721	C572	0.107580	0.577700	0.550200
C5731	C573	0.836610	0.974950	0.729110
C5741	C574	0.055270	0.795470	0.702330
C5751	C575	0.815300	0.706940	0.937860
C5761	C576	0.841690	0.703050	0.905230
C5771	C577	0.844750	0.733490	0.874850
C5781	C578	0.819470	0.766870	0.878130
C5791	C579	0.792760	0.768100	0.911440
C5801	C580	0.707510	0.958790	0.820830
C5811	C581	0.702400	0.927900	0.850400
C5821	C582	0.730550	0.895610	0.851910
C5831	C583	0.763360	0.894960	0.822960
C5841	C584	0.766150	0.927070	0.794670
C5851	C585	0.795240	0.861320	0.823120
C5861	C586	0.821330	0.801370	0.848170
C5871	C587	0.854960	0.833920	0.797560
C5881	C588	0.920990	0.804810	0.772230
C5891	C589	0.890410	0.835830	0.770190
C5901	C590	0.894850	0.867770	0.742150
C5911	C591	0.929360	0.866980	0.717540
C5921	C592	0.957950	0.834610	0.721250
C5931	C593	0.072510	0.704090	0.761950
C5941	C594	0.101650	0.673630	0.768650
C5951	C595	0.104260	0.641360	0.769540
C5961	C596	0.076790	0.641150	0.763530
C5971	C597	0.047980	0.672840	0.757680
C5981	C598	0.077700	0.607580	0.764520
C5991	C599	0.959330	0.729110	0.974950
C6001	C600	0.946930	0.702330	0.795470
C6011	C601	0.039900	0.937860	0.706940
C6021	C602	0.050030	0.905230	0.703050
C6031	C603	0.046910	0.874850	0.733490
C6041	C604	0.035530	0.878130	0.766870
C6051	C605	0.027700	0.911440	0.768100
C6061	C606	0.012870	0.820830	0.958790
C6071	C607	0.019300	0.850400	0.927900
C6081	C608	0.021930	0.851910	0.895610
C6091	C609	0.018720	0.822960	0.894960
C6101	C610	0.012110	0.794670	0.927070
C6111	C611	0.020320	0.823120	0.861320
C6121	C612	0.029130	0.848170	0.801370
C6131	C613	0.013560	0.797560	0.833920
C6141	C614	0.001970	0.772230	0.804810
C6151	C615	0.003570	0.770190	0.835830
C6161	C616	0.995230	0.742150	0.867770
C6171	C617	0.986120	0.717540	0.866980
C6181	C618	0.986190	0.721250	0.834610
C6191	C619	0.961450	0.761950	0.704090
C6201	C620	0.956070	0.768650	0.673630
C6211	C621	0.984840	0.769540	0.641360
C6221	C622	0.018530	0.763530	0.641150
C6231	C623	0.021500	0.757680	0.672840
C6241	C624	0.050200	0.764520	0.607580
C6251	C625	0.459330	0.836610	0.474950
C6261	C626	0.446930	0.055270	0.295470
C6271	C627	0.539900	0.815300	0.206940
C6281	C628	0.550030	0.841690	0.203050
C6291	C629	0.546910	0.844750	0.233490
C6301	C630	0.535530	0.819470	0.266870
C6311	C631	0.527700	0.792760	0.268100
C6321	C632	0.512870	0.707510	0.458790
C6331	C633	0.519300	0.702400	0.427900
C6341	C634	0.521930	0.730550	0.395610
C6351	C635	0.518720	0.763360	0.394960
C6361	C636	0.512110	0.766150	0.427070
C6371	C637	0.520320	0.795240	0.361320
C6381	C638	0.529130	0.821330	0.301370
C6391	C639	0.513560	0.854960	0.333920
C6401	C640	0.501970	0.920990	0.304810
C6411	C641	0.503570	0.890410	0.335830
C6421	C642	0.495230	0.894850	0.367770
C6431	C643	0.486120	0.929360	0.366980
C6441	C644	0.486190	0.957950	0.334610
C6451	C645	0.461450	0.072510	0.204090
C6461	C646	0.456070	0.101650	0.173630
C6471	C647	0.484840	0.104260	0.141360
C6481	C648	0.518530	0.076790	0.141150
C6491	C649	0.521500	0.047980	0.172840
C6501	C650	0.550200	0.077700	0.107580
C6511	C651	0.336610	0.959330	0.229110
C6521	C652	0.555270	0.946930	0.202330
C6531	C653	0.315300	0.039900	0.437860
C6541	C654	0.341690	0.050030	0.405230
C6551	C655	0.344750	0.046910	0.374850
C6561	C656	0.319470	0.035530	0.378130
C6571	C657	0.292760	0.027700	0.411440
C6581	C658	0.207510	0.012870	0.320830
C6591	C659	0.202400	0.019300	0.350400
C6601	C660	0.230550	0.021930	0.351910
C6611	C661	0.263360	0.018720	0.322960
C6621	C662	0.266150	0.012110	0.294670
C6631	C663	0.295240	0.020320	0.323120
C6641	C664	0.321330	0.029130	0.348170
C6651	C665	0.354960	0.013560	0.297560
C6661	C666	0.420990	0.001970	0.272230
C6671	C667	0.390410	0.003570	0.270190
C6681	C668	0.394850	0.995230	0.242150
C6691	C669	0.429360	0.986120	0.217540
C6701	C670	0.457950	0.986190	0.221250
C6711	C671	0.572510	0.961450	0.261950
C6721	C672	0.601650	0.956070	0.268650
C6731	C673	0.604260	0.984840	0.269540
C6741	C674	0.576790	0.018530	0.263530
C6751	C675	0.547980	0.021500	0.257680
C6761	C676	0.577700	0.050200	0.264520
C6771	C677	0.974950	0.229110	0.959330
C6781	C678	0.795470	0.202330	0.946930
C6791	C679	0.706940	0.437860	0.039900
C6801	C680	0.703050	0.405230	0.050030
C6811	C681	0.733490	0.374850	0.046910
C6821	C682	0.766870	0.378130	0.035530
C6831	C683	0.768100	0.411440	0.027700
C6841	C684	0.958790	0.320830	0.012870
C6851	C685	0.927900	0.350400	0.019300
C6861	C686	0.895610	0.351910	0.021930
C6871	C687	0.894960	0.322960	0.018720
C6881	C688	0.927070	0.294670	0.012110
C6891	C689	0.861320	0.323120	0.020320
C6901	C690	0.801370	0.348170	0.029130
C6911	C691	0.833920	0.297560	0.013560
C6921	C692	0.804810	0.272230	0.001970
C6931	C693	0.835830	0.270190	0.003570
C6941	C694	0.867770	0.242150	0.995230
C6951	C695	0.866980	0.217540	0.986120
C6961	C696	0.834610	0.221250	0.986190
C6971	C697	0.704090	0.261950	0.961450
C6981	C698	0.673630	0.268650	0.956070
C6991	C699	0.641360	0.269540	0.984840
C7001	C700	0.641150	0.263530	0.018530
C7011	C701	0.672840	0.257680	0.021500
C7021	C702	0.607580	0.264520	0.050200
C7031	C703	0.729110	0.474950	0.836610
C7041	C704	0.702330	0.295470	0.055270
C7051	C705	0.937860	0.206940	0.815300
C7061	C706	0.905230	0.203050	0.841690
C7071	C707	0.874850	0.233490	0.844750
C7081	C708	0.878130	0.266870	0.819470
C7091	C709	0.911440	0.268100	0.792760
C7101	C710	0.820830	0.458790	0.707510
C7111	C711	0.850400	0.427900	0.702400
C7121	C712	0.851910	0.395610	0.730550
C7131	C713	0.822960	0.394960	0.763360
C7141	C714	0.794670	0.427070	0.766150
C7151	C715	0.823120	0.361320	0.795240
C7161	C716	0.848170	0.301370	0.821330
C7171	C717	0.797560	0.333920	0.854960
C7181	C718	0.772230	0.304810	0.920990
C7191	C719	0.770190	0.335830	0.890410
C7201	C720	0.742150	0.367770	0.894850
C7211	C721	0.717540	0.366980	0.929360
C7221	C722	0.721250	0.334610	0.957950
C7231	C723	0.761950	0.204090	0.072510
C7241	C724	0.768650	0.173630	0.101650
C7251	C725	0.769540	0.141360	0.104260
C7261	C726	0.763530	0.141150	0.076790
C7271	C727	0.757680	0.172840	0.047980
C7281	C728	0.764520	0.107580	0.077700
C7291	C729	0.459330	0.474950	0.229110
C7301	C730	0.446930	0.295470	0.202330
C7311	C731	0.539900	0.206940	0.437860
C7321	C732	0.550030	0.203050	0.405230
C7331	C733	0.546910	0.233490	0.374850
C7341	C734	0.535530	0.266870	0.378130
C7351	C735	0.527700	0.268100	0.411440
C7361	C736	0.512870	0.458790	0.320830
C7371	C737	0.519300	0.427900	0.350400
C7381	C738	0.521930	0.395610	0.351910
C7391	C739	0.518720	0.394960	0.322960
C7401	C740	0.512110	0.427070	0.294670
C7411	C741	0.520320	0.361320	0.323120
C7421	C742	0.529130	0.301370	0.348170
C7431	C743	0.513560	0.333920	0.297560
C7441	C744	0.501970	0.304810	0.272230
C7451	C745	0.503570	0.335830	0.270190
C7461	C746	0.495230	0.367770	0.242150
C7471	C747	0.486120	0.366980	0.217540
C7481	C748	0.486190	0.334610	0.221250
C7491	C749	0.461450	0.204090	0.261950
C7501	C750	0.456070	0.173630	0.268650
C7511	C751	0.484840	0.141360	0.269540
C7521	C752	0.518530	0.141150	0.263530
C7531	C753	0.521500	0.172840	0.257680
C7541	C754	0.550200	0.107580	0.264520
C7551	C755	0.336610	0.229110	0.474950
C7561	C756	0.555270	0.202330	0.295470
C7571	C757	0.315300	0.437860	0.206940
C7581	C758	0.341690	0.405230	0.203050
C7591	C759	0.344750	0.374850	0.233490
C7601	C760	0.319470	0.378130	0.266870
C7611	C761	0.292760	0.411440	0.268100
C7621	C762	0.207510	0.320830	0.458790
C7631	C763	0.202400	0.350400	0.427900
C7641	C764	0.230550	0.351910	0.395610
C7651	C765	0.263360	0.322960	0.394960
C7661	C766	0.266150	0.294670	0.427070
C7671	C767	0.295240	0.323120	0.361320
C7681	C768	0.321330	0.348170	0.301370
C7691	C769	0.354960	0.297560	0.333920
C7701	C770	0.420990	0.272230	0.304810
C7711	C771	0.390410	0.270190	0.335830
C7721	C772	0.394850	0.242150	0.367770
C7731	C773	0.429360	0.217540	0.366980
C7741	C774	0.457950	0.221250	0.334610
C7751	C775	0.572510	0.261950	0.204090
C7761	C776	0.601650	0.268650	0.173630
C7771	C777	0.604260	0.269540	0.141360
C7781	C778	0.576790	0.263530	0.141150
C7791	C779	0.547980	0.257680	0.172840
C7801	C780	0.577700	0.264520	0.107580
C7811	C781	0.974950	0.959330	0.836610
C7821	C782	0.795470	0.946930	0.055270
C7831	C783	0.706940	0.039900	0.815300
C7841	C784	0.703050	0.050030	0.841690
C7851	C785	0.733490	0.046910	0.844750
C7861	C786	0.766870	0.035530	0.819470
C7871	C787	0.768100	0.027700	0.792760
C7881	C788	0.958790	0.012870	0.707510
C7891	C789	0.927900	0.019300	0.702400
C7901	C790	0.895610	0.021930	0.730550
C7911	C791	0.894960	0.018720	0.763360
C7921	C792	0.927070	0.012110	0.766150
C7931	C793	0.861320	0.020320	0.795240
C7941	C794	0.801370	0.029130	0.821330
C7951	C795	0.833920	0.013560	0.854960
C7961	C796	0.804810	0.001970	0.920990
C7971	C797	0.835830	0.003570	0.890410
C7981	C798	0.867770	0.995230	0.894850
C7991	C799	0.866980	0.986120	0.929360
C8001	C800	0.834610	0.986190	0.957950
C8011	C801	0.704090	0.961450	0.072510
C8021	C802	0.673630	0.956070	0.101650
C8031	C803	0.641360	0.984840	0.104260
C8041	C804	0.641150	0.018530	0.076790
C8051	C805	0.672840	0.021500	0.047980
C8061	C806	0.607580	0.050200	0.077700
C8071	C807	0.729110	0.836610	0.959330
C8081	C808	0.702330	0.055270	0.946930
C8091	C809	0.937860	0.815300	0.039900
C8101	C810	0.905230	0.841690	0.050030
C8111	C811	0.874850	0.844750	0.046910
C8121	C812	0.878130	0.819470	0.035530
C8131	C813	0.911440	0.792760	0.027700
C8141	C814	0.820830	0.707510	0.012870
C8151	C815	0.850400	0.702400	0.019300
C8161	C816	0.851910	0.730550	0.021930
C8171	C817	0.822960	0.763360	0.018720
C8181	C818	0.794670	0.766150	0.012110
C8191	C819	0.823120	0.795240	0.020320
C8201	C820	0.848170	0.821330	0.029130
C8211	C821	0.797560	0.854960	0.013560
C8221	C822	0.772230	0.920990	0.001970
C8231	C823	0.770190	0.890410	0.003570
C8241	C824	0.742150	0.894850	0.995230
C8251	C825	0.717540	0.929360	0.986120
C8261	C826	0.721250	0.957950	0.986190
C8271	C827	0.761950	0.072510	0.961450
C8281	C828	0.768650	0.101650	0.956070
C8291	C829	0.769540	0.104260	0.984840
C8301	C830	0.763530	0.076790	0.018530
C8311	C831	0.757680	0.047980	0.021500
C8321	C832	0.764520	0.077700	0.050200
C8331	C833	0.459330	0.229110	0.836610
C8341	C834	0.446930	0.202330	0.055270
C8351	C835	0.539900	0.437860	0.815300
C8361	C836	0.550030	0.405230	0.841690
C8371	C837	0.546910	0.374850	0.844750
C8381	C838	0.535530	0.378130	0.819470
C8391	C839	0.527700	0.411440	0.792760
C8401	C840	0.512870	0.320830	0.707510
C8411	C841	0.519300	0.350400	0.702400
C8421	C842	0.521930	0.351910	0.730550
C8431	C843	0.518720	0.322960	0.763360
C8441	C844	0.512110	0.294670	0.766150
C8451	C845	0.520320	0.323120	0.795240
C8461	C846	0.529130	0.348170	0.821330
C8471	C847	0.513560	0.297560	0.854960
C8481	C848	0.501970	0.272230	0.920990
C8491	C849	0.503570	0.270190	0.890410
C8501	C850	0.495230	0.242150	0.894850
C8511	C851	0.486120	0.217540	0.929360
C8521	C852	0.486190	0.221250	0.957950
C8531	C853	0.461450	0.261950	0.072510
C8541	C854	0.456070	0.268650	0.101650
C8551	C855	0.484840	0.269540	0.104260
C8561	C856	0.518530	0.263530	0.076790
C8571	C857	0.521500	0.257680	0.047980
C8581	C858	0.550200	0.264520	0.077700
C8591	C859	0.336610	0.474950	0.959330
C8601	C860	0.555270	0.295470	0.946930
C8611	C861	0.315300	0.206940	0.039900
C8621	C862	0.341690	0.203050	0.050030
C8631	C863	0.344750	0.233490	0.046910
C8641	C864	0.319470	0.266870	0.035530
C8651	C865	0.292760	0.268100	0.027700
C8661	C866	0.207510	0.458790	0.012870
C8671	C867	0.202400	0.427900	0.019300
C8681	C868	0.230550	0.395610	0.021930
C8691	C869	0.263360	0.394960	0.018720
C8701	C870	0.266150	0.427070	0.012110
C8711	C871	0.295240	0.361320	0.020320
C8721	C872	0.321330	0.301370	0.029130
C8731	C873	0.354960	0.333920	0.013560
C8741	C874	0.420990	0.304810	0.001970
C8751	C875	0.390410	0.335830	0.003570
C8761	C876	0.394850	0.367770	0.995230
C8771	C877	0.429360	0.366980	0.986120
C8781	C878	0.457950	0.334610	0.986190
C8791	C879	0.572510	0.204090	0.961450
C8801	C880	0.601650	0.173630	0.956070
C8811	C881	0.604260	0.141360	0.984840
C8821	C882	0.576790	0.141150	0.018530
C8831	C883	0.547980	0.172840	0.021500
C8841	C884	0.577700	0.107580	0.050200
C8851	C885	0.974950	0.836610	0.229110
C8861	C886	0.795470	0.055270	0.202330
C8871	C887	0.706940	0.815300	0.437860
C8881	C888	0.703050	0.841690	0.405230
C8891	C889	0.733490	0.844750	0.374850
C8901	C890	0.766870	0.819470	0.378130
C8911	C891	0.768100	0.792760	0.411440
C8921	C892	0.958790	0.707510	0.320830
C8931	C893	0.927900	0.702400	0.350400
C8941	C894	0.895610	0.730550	0.351910
C8951	C895	0.894960	0.763360	0.322960
C8961	C896	0.927070	0.766150	0.294670
C8971	C897	0.861320	0.795240	0.323120
C8981	C898	0.801370	0.821330	0.348170
C8991	C899	0.833920	0.854960	0.297560
C9001	C900	0.804810	0.920990	0.272230
C9011	C901	0.835830	0.890410	0.270190
C9021	C902	0.867770	0.894850	0.242150
C9031	C903	0.866980	0.929360	0.217540
C9041	C904	0.834610	0.957950	0.221250
C9051	C905	0.704090	0.072510	0.261950
C9061	C906	0.673630	0.101650	0.268650
C9071	C907	0.641360	0.104260	0.269540
C9081	C908	0.641150	0.076790	0.263530
C9091	C909	0.672840	0.047980	0.257680
C9101	C910	0.607580	0.077700	0.264520
C9111	C911	0.729110	0.959330	0.474950
C9121	C912	0.702330	0.946930	0.295470
C9131	C913	0.937860	0.039900	0.206940
C9141	C914	0.905230	0.050030	0.203050
C9151	C915	0.874850	0.046910	0.233490
C9161	C916	0.878130	0.035530	0.266870
C9171	C917	0.911440	0.027700	0.268100
C9181	C918	0.820830	0.012870	0.458790
C9191	C919	0.850400	0.019300	0.427900
C9201	C920	0.851910	0.021930	0.395610
C9211	C921	0.822960	0.018720	0.394960
C9221	C922	0.794670	0.012110	0.427070
C9231	C923	0.823120	0.020320	0.361320
C9241	C924	0.848170	0.029130	0.301370
C9251	C925	0.797560	0.013560	0.333920
C9261	C926	0.772230	0.001970	0.304810
C9271	C927	0.770190	0.003570	0.335830
C9281	C928	0.742150	0.995230	0.367770
C9291	C929	0.717540	0.986120	0.366980
C9301	C930	0.721250	0.986190	0.334610
C9311	C931	0.761950	0.961450	0.204090
C9321	C932	0.768650	0.956070	0.173630
C9331	C933	0.769540	0.984840	0.141360
C9341	C934	0.763530	0.018530	0.141150
C9351	C935	0.757680	0.021500	0.172840
C9361	C936	0.764520	0.050200	0.107580
C9371	C937	0.163390	0.540670	0.025050
C9381	C938	0.944730	0.553070	0.204530
C9391	C939	0.184700	0.460100	0.293060
C9401	C940	0.158310	0.449970	0.296950
C9411	C941	0.155250	0.453090	0.266510
C9421	C942	0.180530	0.464470	0.233130
C9431	C943	0.207240	0.472300	0.231900
C9441	C944	0.292490	0.487130	0.041210
C9451	C945	0.297600	0.480700	0.072100
C9461	C946	0.269450	0.478070	0.104390
C9471	C947	0.236640	0.481280	0.105040
C9481	C948	0.233850	0.487890	0.072930
C9491	C949	0.204760	0.479680	0.138680
C9501	C950	0.178670	0.470870	0.198630
C9511	C951	0.145040	0.486440	0.166080
C9521	C952	0.079010	0.498030	0.195190
C9531	C953	0.109590	0.496430	0.164170
C9541	C954	0.105150	0.504770	0.132230
C9551	C955	0.070640	0.513880	0.133020
C9561	C956	0.042050	0.513810	0.165390
C9571	C957	0.927490	0.538550	0.295910
C9581	C958	0.898350	0.543930	0.326370
C9591	C959	0.895740	0.515160	0.358640
C9601	C960	0.923210	0.481470	0.358850
C9611	C961	0.952020	0.478500	0.327160
C9621	C962	0.922300	0.449800	0.392420
C9631	C963	0.040670	0.663390	0.270890
C9641	C964	0.053070	0.444730	0.297670
C9651	C965	0.960100	0.684700	0.062140
C9661	C966	0.949970	0.658310	0.094770
C9671	C967	0.953090	0.655250	0.125150
C9681	C968	0.964470	0.680530	0.121870
C9691	C969	0.972300	0.707240	0.088560
C9701	C970	0.987130	0.792490	0.179170
C9711	C971	0.980700	0.797600	0.149600
C9721	C972	0.978070	0.769450	0.148090
C9731	C973	0.981280	0.736640	0.177040
C9741	C974	0.987890	0.733850	0.205330
C9751	C975	0.979680	0.704760	0.176880
C9761	C976	0.970870	0.678670	0.151830
C9771	C977	0.986440	0.645040	0.202440
C9781	C978	0.998030	0.579010	0.227770
C9791	C979	0.996430	0.609590	0.229810
C9801	C980	0.004770	0.605150	0.257850
C9811	C981	0.013880	0.570640	0.282460
C9821	C982	0.013810	0.542050	0.278750
C9831	C983	0.038550	0.427490	0.238050
C9841	C984	0.043930	0.398350	0.231350
C9851	C985	0.015160	0.395740	0.230460
C9861	C986	0.981470	0.423210	0.236470
C9871	C987	0.978500	0.452020	0.242320
C9881	C988	0.949800	0.422300	0.235480
C9891	C989	0.770890	0.025050	0.540670
C9901	C990	0.797670	0.204530	0.553070
C9911	C991	0.562140	0.293060	0.460100
C9921	C992	0.594770	0.296950	0.449970
C9931	C993	0.625150	0.266510	0.453090
C9941	C994	0.621870	0.233130	0.464470
C9951	C995	0.588560	0.231900	0.472300
C9961	C996	0.679170	0.041210	0.487130
C9971	C997	0.649600	0.072100	0.480700
C9981	C998	0.648090	0.104390	0.478070
C9991	C999	0.677040	0.105040	0.481280
C10001	C1000	0.705330	0.072930	0.487890
C10011	C1001	0.676880	0.138680	0.479680
C10021	C1002	0.651830	0.198630	0.470870
C10031	C1003	0.702440	0.166080	0.486440
C10041	C1004	0.727770	0.195190	0.498030
C10051	C1005	0.729810	0.164170	0.496430
C10061	C1006	0.757850	0.132230	0.504770
C10071	C1007	0.782460	0.133020	0.513880
C10081	C1008	0.778750	0.165390	0.513810
C10091	C1009	0.738050	0.295910	0.538550
C10101	C1010	0.731350	0.326370	0.543930
C10111	C1011	0.730460	0.358640	0.515160
C10121	C1012	0.736470	0.358850	0.481470
C10131	C1013	0.742320	0.327160	0.478500
C10141	C1014	0.735480	0.392420	0.449800
C10151	C1015	0.525050	0.270890	0.663390
C10161	C1016	0.704530	0.297670	0.444730
C10171	C1017	0.793060	0.062140	0.684700
C10181	C1018	0.796950	0.094770	0.658310
C10191	C1019	0.766510	0.125150	0.655250
C10201	C1020	0.733130	0.121870	0.680530
C10211	C1021	0.731900	0.088560	0.707240
C10221	C1022	0.541210	0.179170	0.792490
C10231	C1023	0.572100	0.149600	0.797600
C10241	C1024	0.604390	0.148090	0.769450
C10251	C1025	0.605040	0.177040	0.736640
C10261	C1026	0.572930	0.205330	0.733850
C10271	C1027	0.638680	0.176880	0.704760
C10281	C1028	0.698630	0.151830	0.678670
C10291	C1029	0.666080	0.202440	0.645040
C10301	C1030	0.695190	0.227770	0.579010
C10311	C1031	0.664170	0.229810	0.609590
C10321	C1032	0.632230	0.257850	0.605150
C10331	C1033	0.633020	0.282460	0.570640
C10341	C1034	0.665390	0.278750	0.542050
C10351	C1035	0.795910	0.238050	0.427490
C10361	C1036	0.826370	0.231350	0.398350
C10371	C1037	0.858640	0.230460	0.395740
C10381	C1038	0.858850	0.236470	0.423210
C10391	C1039	0.827160	0.242320	0.452020
C10401	C1040	0.892420	0.235480	0.422300
C10411	C1041	0.525050	0.540670	0.270890
C10421	C1042	0.704530	0.553070	0.297670
C10431	C1043	0.793060	0.460100	0.062140
C10441	C1044	0.796950	0.449970	0.094770
C10451	C1045	0.766510	0.453090	0.125150
C10461	C1046	0.733130	0.464470	0.121870
C10471	C1047	0.731900	0.472300	0.088560
C10481	C1048	0.541210	0.487130	0.179170
C10491	C1049	0.572100	0.480700	0.149600
C10501	C1050	0.604390	0.478070	0.148090
C10511	C1051	0.605040	0.481280	0.177040
C10521	C1052	0.572930	0.487890	0.205330
C10531	C1053	0.638680	0.479680	0.176880
C10541	C1054	0.698630	0.470870	0.151830
C10551	C1055	0.666080	0.486440	0.202440
C10561	C1056	0.695190	0.498030	0.227770
C10571	C1057	0.664170	0.496430	0.229810
C10581	C1058	0.632230	0.504770	0.257850
C10591	C1059	0.633020	0.513880	0.282460
C10601	C1060	0.665390	0.513810	0.278750
C10611	C1061	0.795910	0.538550	0.238050
C10621	C1062	0.826370	0.543930	0.231350
C10631	C1063	0.858640	0.515160	0.230460
C10641	C1064	0.858850	0.481470	0.236470
C10651	C1065	0.827160	0.478500	0.242320
C10661	C1066	0.892420	0.449800	0.235480
C10671	C1067	0.770890	0.663390	0.025050
C10681	C1068	0.797670	0.444730	0.204530
C10691	C1069	0.562140	0.684700	0.293060
C10701	C1070	0.594770	0.658310	0.296950
C10711	C1071	0.625150	0.655250	0.266510
C10721	C1072	0.621870	0.680530	0.233130
C10731	C1073	0.588560	0.707240	0.231900
C10741	C1074	0.679170	0.792490	0.041210
C10751	C1075	0.649600	0.797600	0.072100
C10761	C1076	0.648090	0.769450	0.104390
C10771	C1077	0.677040	0.736640	0.105040
C10781	C1078	0.705330	0.733850	0.072930
C10791	C1079	0.676880	0.704760	0.138680
C10801	C1080	0.651830	0.678670	0.198630
C10811	C1081	0.702440	0.645040	0.166080
C10821	C1082	0.727770	0.579010	0.195190
C10831	C1083	0.729810	0.609590	0.164170
C10841	C1084	0.757850	0.605150	0.132230
C10851	C1085	0.782460	0.570640	0.133020
C10861	C1086	0.778750	0.542050	0.165390
C10871	C1087	0.738050	0.427490	0.295910
C10881	C1088	0.731350	0.398350	0.326370
C10891	C1089	0.730460	0.395740	0.358640
C10901	C1090	0.736470	0.423210	0.358850
C10911	C1091	0.742320	0.452020	0.327160
C10921	C1092	0.735480	0.422300	0.392420
C10931	C1093	0.040670	0.025050	0.663390
C10941	C1094	0.053070	0.204530	0.444730
C10951	C1095	0.960100	0.293060	0.684700
C10961	C1096	0.949970	0.296950	0.658310
C10971	C1097	0.953090	0.266510	0.655250
C10981	C1098	0.964470	0.233130	0.680530
C10991	C1099	0.972300	0.231900	0.707240
C11001	C1100	0.987130	0.041210	0.792490
C11011	C1101	0.980700	0.072100	0.797600
C11021	C1102	0.978070	0.104390	0.769450
C11031	C1103	0.981280	0.105040	0.736640
C11041	C1104	0.987890	0.072930	0.733850
C11051	C1105	0.979680	0.138680	0.704760
C11061	C1106	0.970870	0.198630	0.678670
C11071	C1107	0.986440	0.166080	0.645040
C11081	C1108	0.998030	0.195190	0.579010
C11091	C1109	0.996430	0.164170	0.609590
C11101	C1110	0.004770	0.132230	0.605150
C11111	C1111	0.013880	0.133020	0.570640
C11121	C1112	0.013810	0.165390	0.542050
C11131	C1113	0.038550	0.295910	0.427490
C11141	C1114	0.043930	0.326370	0.398350
C11151	C1115	0.015160	0.358640	0.395740
C11161	C1116	0.981470	0.358850	0.423210
C11171	C1117	0.978500	0.327160	0.452020
C11181	C1118	0.949800	0.392420	0.422300
C11191	C1119	0.163390	0.270890	0.540670
C11201	C1120	0.944730	0.297670	0.553070
C11211	C1121	0.184700	0.062140	0.460100
C11221	C1122	0.158310	0.094770	0.449970
C11231	C1123	0.155250	0.125150	0.453090
C11241	C1124	0.180530	0.121870	0.464470
C11251	C1125	0.207240	0.088560	0.472300
C11261	C1126	0.292490	0.179170	0.487130
C11271	C1127	0.297600	0.149600	0.480700
C11281	C1128	0.269450	0.148090	0.478070
C11291	C1129	0.236640	0.177040	0.481280
C11301	C1130	0.233850	0.205330	0.487890
C11311	C1131	0.204760	0.176880	0.479680
C11321	C1132	0.178670	0.151830	0.470870
C11331	C1133	0.145040	0.202440	0.486440
C11341	C1134	0.079010	0.227770	0.498030
C11351	C1135	0.109590	0.229810	0.496430
C11361	C1136	0.105150	0.257850	0.504770
C11371	C1137	0.070640	0.282460	0.513880
C11381	C1138	0.042050	0.278750	0.513810
C11391	C1139	0.927490	0.238050	0.538550
C11401	C1140	0.898350	0.231350	0.543930
C11411	C1141	0.895740	0.230460	0.515160
C11421	C1142	0.923210	0.236470	0.481470
C11431	C1143	0.952020	0.242320	0.478500
C11441	C1144	0.922300	0.235480	0.449800
C11451	C1145	0.770890	0.540670	0.663390
C11461	C1146	0.797670	0.553070	0.444730
C11471	C1147	0.562140	0.460100	0.684700
C11481	C1148	0.594770	0.449970	0.658310
C11491	C1149	0.625150	0.453090	0.655250
C11501	C1150	0.621870	0.464470	0.680530
C11511	C1151	0.588560	0.472300	0.707240
C11521	C1152	0.679170	0.487130	0.792490
C11531	C1153	0.649600	0.480700	0.797600
C11541	C1154	0.648090	0.478070	0.769450
C11551	C1155	0.677040	0.481280	0.736640
C11561	C1156	0.705330	0.487890	0.733850
C11571	C1157	0.676880	0.479680	0.704760
C11581	C1158	0.651830	0.470870	0.678670
C11591	C1159	0.702440	0.486440	0.645040
C11601	C1160	0.727770	0.498030	0.579010
C11611	C1161	0.729810	0.496430	0.609590
C11621	C1162	0.757850	0.504770	0.605150
C11631	C1163	0.782460	0.513880	0.570640
C11641	C1164	0.778750	0.513810	0.542050
C11651	C1165	0.738050	0.538550	0.427490
C11661	C1166	0.731350	0.543930	0.398350
C11671	C1167	0.730460	0.515160	0.395740
C11681	C1168	0.736470	0.481470	0.423210
C11691	C1169	0.742320	0.478500	0.452020
C11701	C1170	0.735480	0.449800	0.422300
C11711	C1171	0.525050	0.663390	0.540670
C11721	C1172	0.704530	0.444730	0.553070
C11731	C1173	0.793060	0.684700	0.460100
C11741	C1174	0.796950	0.658310	0.449970
C11751	C1175	0.766510	0.655250	0.453090
C11761	C1176	0.733130	0.680530	0.464470
C11771	C1177	0.731900	0.707240	0.472300
C11781	C1178	0.541210	0.792490	0.487130
C11791	C1179	0.572100	0.797600	0.480700
C11801	C1180	0.604390	0.769450	0.478070
C11811	C1181	0.605040	0.736640	0.481280
C11821	C1182	0.572930	0.733850	0.487890
C11831	C1183	0.638680	0.704760	0.479680
C11841	C1184	0.698630	0.678670	0.470870
C11851	C1185	0.666080	0.645040	0.486440
C11861	C1186	0.695190	0.579010	0.498030
C11871	C1187	0.664170	0.609590	0.496430
C11881	C1188	0.632230	0.605150	0.504770
C11891	C1189	0.633020	0.570640	0.513880
C11901	C1190	0.665390	0.542050	0.513810
C11911	C1191	0.795910	0.427490	0.538550
C11921	C1192	0.826370	0.398350	0.543930
C11931	C1193	0.858640	0.395740	0.515160
C11941	C1194	0.858850	0.423210	0.481470
C11951	C1195	0.827160	0.452020	0.478500
C11961	C1196	0.892420	0.422300	0.449800
C11971	C1197	0.163390	0.025050	0.270890
C11981	C1198	0.944730	0.204530	0.297670
C11991	C1199	0.184700	0.293060	0.062140
C12001	C1200	0.158310	0.296950	0.094770
C12011	C1201	0.155250	0.266510	0.125150
C12021	C1202	0.180530	0.233130	0.121870
C12031	C1203	0.207240	0.231900	0.088560
C12041	C1204	0.292490	0.041210	0.179170
C12051	C1205	0.297600	0.072100	0.149600
C12061	C1206	0.269450	0.104390	0.148090
C12071	C1207	0.236640	0.105040	0.177040
C12081	C1208	0.233850	0.072930	0.205330
C12091	C1209	0.204760	0.138680	0.176880
C12101	C1210	0.178670	0.198630	0.151830
C12111	C1211	0.145040	0.166080	0.202440
C12121	C1212	0.079010	0.195190	0.227770
C12131	C1213	0.109590	0.164170	0.229810
C12141	C1214	0.105150	0.132230	0.257850
C12151	C1215	0.070640	0.133020	0.282460
C12161	C1216	0.042050	0.165390	0.278750
C12171	C1217	0.927490	0.295910	0.238050
C12181	C1218	0.898350	0.326370	0.231350
C12191	C1219	0.895740	0.358640	0.230460
C12201	C1220	0.923210	0.358850	0.236470
C12211	C1221	0.952020	0.327160	0.242320
C12221	C1222	0.922300	0.392420	0.235480
C12231	C1223	0.040670	0.270890	0.025050
C12241	C1224	0.053070	0.297670	0.204530
C12251	C1225	0.960100	0.062140	0.293060
C12261	C1226	0.949970	0.094770	0.296950
C12271	C1227	0.953090	0.125150	0.266510
C12281	C1228	0.964470	0.121870	0.233130
C12291	C1229	0.972300	0.088560	0.231900
C12301	C1230	0.987130	0.179170	0.041210
C12311	C1231	0.980700	0.149600	0.072100
C12321	C1232	0.978070	0.148090	0.104390
C12331	C1233	0.981280	0.177040	0.105040
C12341	C1234	0.987890	0.205330	0.072930
C12351	C1235	0.979680	0.176880	0.138680
C12361	C1236	0.970870	0.151830	0.198630
C12371	C1237	0.986440	0.202440	0.166080
C12381	C1238	0.998030	0.227770	0.195190
C12391	C1239	0.996430	0.229810	0.164170
C12401	C1240	0.004770	0.257850	0.132230
C12411	C1241	0.013880	0.282460	0.133020
C12421	C1242	0.013810	0.278750	0.165390
C12431	C1243	0.038550	0.238050	0.295910
C12441	C1244	0.043930	0.231350	0.326370
C12451	C1245	0.015160	0.230460	0.358640
C12461	C1246	0.981470	0.236470	0.358850
C12471	C1247	0.978500	0.242320	0.327160
C12481	C1248	0.949800	0.235480	0.392420
S11	S1	0.552750	0.119950	0.534930
S21	S2	0.577430	0.914270	0.684450
S31	S3	0.619950	0.052750	0.792370
S41	S4	0.414270	0.077430	0.823850
S51	S5	0.034930	0.792370	0.052750
S61	S6	0.184450	0.823850	0.077430
S71	S7	0.292370	0.534930	0.119950
S81	S8	0.323850	0.684450	0.914270
S91	S9	0.552750	0.534930	0.792370
S101	S10	0.577430	0.684450	0.823850
S111	S11	0.619950	0.792370	0.534930
S121	S12	0.414270	0.823850	0.684450
S131	S13	0.034930	0.052750	0.119950
S141	S14	0.184450	0.077430	0.914270
S151	S15	0.292370	0.119950	0.052750
S161	S16	0.323850	0.914270	0.077430
S171	S17	0.552750	0.792370	0.119950
S181	S18	0.577430	0.823850	0.914270
S191	S19	0.619950	0.534930	0.052750
S201	S20	0.414270	0.684450	0.077430
S211	S21	0.034930	0.119950	0.792370
S221	S22	0.184450	0.914270	0.823850
S231	S23	0.292370	0.052750	0.534930
S241	S24	0.323850	0.077430	0.684450
S251	S25	0.880050	0.447250	0.965070
S261	S26	0.085730	0.422570	0.815550
S271	S27	0.947250	0.380050	0.707630
S281	S28	0.922570	0.585730	0.676150
S291	S29	0.207630	0.965070	0.447250
S301	S30	0.176150	0.815550	0.422570
S311	S31	0.465070	0.707630	0.380050
S321	S32	0.315550	0.676150	0.585730
S331	S33	0.465070	0.447250	0.707630
S341	S34	0.315550	0.422570	0.676150
S351	S35	0.207630	0.380050	0.965070
S361	S36	0.176150	0.585730	0.815550
S371	S37	0.947250	0.965070	0.380050
S381	S38	0.922570	0.815550	0.585730
S391	S39	0.880050	0.707630	0.447250
S401	S40	0.085730	0.676150	0.422570
S411	S41	0.207630	0.447250	0.380050
S421	S42	0.176150	0.422570	0.585730
S431	S43	0.465070	0.380050	0.447250
S441	S44	0.315550	0.585730	0.422570
S451	S45	0.880050	0.965070	0.707630
S461	S46	0.085730	0.815550	0.676150
S471	S47	0.947250	0.707630	0.965070
S481	S48	0.922570	0.676150	0.815550
S491	S49	0.447250	0.880050	0.465070
S501	S50	0.422570	0.085730	0.315550
S511	S51	0.380050	0.947250	0.207630
S521	S52	0.585730	0.922570	0.176150
S531	S53	0.965070	0.207630	0.947250
S541	S54	0.815550	0.176150	0.922570
S551	S55	0.707630	0.465070	0.880050
S561	S56	0.676150	0.315550	0.085730
S571	S57	0.447250	0.465070	0.207630
S581	S58	0.422570	0.315550	0.176150
S591	S59	0.380050	0.207630	0.465070
S601	S60	0.585730	0.176150	0.315550
S611	S61	0.965070	0.947250	0.880050
S621	S62	0.815550	0.922570	0.085730
S631	S63	0.707630	0.880050	0.947250
S641	S64	0.676150	0.085730	0.922570
S651	S65	0.447250	0.207630	0.880050
S661	S66	0.422570	0.176150	0.085730
S671	S67	0.380050	0.465070	0.947250
S681	S68	0.585730	0.315550	0.922570
S691	S69	0.965070	0.880050	0.207630
S701	S70	0.815550	0.085730	0.176150
S711	S71	0.707630	0.947250	0.465070
S721	S72	0.676150	0.922570	0.315550
S731	S73	0.119950	0.552750	0.034930
S741	S74	0.914270	0.577430	0.184450
S751	S75	0.052750	0.619950	0.292370
S761	S76	0.077430	0.414270	0.323850
S771	S77	0.792370	0.034930	0.552750
S781	S78	0.823850	0.184450	0.577430
S791	S79	0.534930	0.292370	0.619950
S801	S80	0.684450	0.323850	0.414270
S811	S81	0.534930	0.552750	0.292370
S821	S82	0.684450	0.577430	0.323850
S831	S83	0.792370	0.619950	0.034930
S841	S84	0.823850	0.414270	0.184450
S851	S85	0.052750	0.034930	0.619950
S861	S86	0.077430	0.184450	0.414270
S871	S87	0.119950	0.292370	0.552750
S881	S88	0.914270	0.323850	0.577430
S891	S89	0.792370	0.552750	0.619950
S901	S90	0.823850	0.577430	0.414270
S911	S91	0.534930	0.619950	0.552750
S921	S92	0.684450	0.414270	0.577430
S931	S93	0.119950	0.034930	0.292370
S941	S94	0.914270	0.184450	0.323850
S951	S95	0.052750	0.292370	0.034930
S961	S96	0.077430	0.323850	0.184450
N11	N1	0.531440	0.194700	0.516920
N21	N2	0.535960	0.966140	0.718820
N31	N3	0.471150	0.209370	0.760950
N41	N4	0.491030	0.261150	0.540990
N51	N5	0.471330	0.208890	0.669490
N61	N6	0.488180	0.173300	0.635100
N71	N7	0.477420	0.146440	0.698700
N81	N8	0.506510	0.045870	0.696110
N91	N9	0.506350	0.954430	0.795770
N101	N10	0.420490	0.952090	0.891650
N111	N11	0.694700	0.031440	0.756940
N121	N12	0.466140	0.035960	0.779080
N131	N13	0.709370	0.971150	0.558530
N141	N14	0.761150	0.991030	0.706830
N151	N15	0.708890	0.971330	0.650290
N161	N16	0.673300	0.988180	0.703420
N171	N17	0.646440	0.977420	0.677440
N181	N18	0.545870	0.006510	0.751510
N191	N19	0.454430	0.006350	0.743450
N201	N20	0.452090	0.920490	0.735770
N211	N21	0.016920	0.756940	0.031440
N221	N22	0.218820	0.779080	0.035960
N231	N23	0.260950	0.558530	0.971150
N241	N24	0.040990	0.706830	0.991030
N251	N25	0.169490	0.650290	0.971330
N261	N26	0.135100	0.703420	0.988180
N271	N27	0.198700	0.677440	0.977420
N281	N28	0.196110	0.751510	0.006510
N291	N29	0.295770	0.743450	0.006350
N301	N30	0.391650	0.735770	0.920490
N311	N31	0.256940	0.516920	0.194700
N321	N32	0.279080	0.718820	0.966140
N331	N33	0.058530	0.760950	0.209370
N341	N34	0.206830	0.540990	0.261150
N351	N35	0.150290	0.669490	0.208890
N361	N36	0.203420	0.635100	0.173300
N371	N37	0.177440	0.698700	0.146440
N381	N38	0.251510	0.696110	0.045870
N391	N39	0.243450	0.795770	0.954430
N401	N40	0.235770	0.891650	0.952090
N411	N41	0.531440	0.516920	0.756940
N421	N42	0.535960	0.718820	0.779080
N431	N43	0.471150	0.760950	0.558530
N441	N44	0.491030	0.540990	0.706830
N451	N45	0.471330	0.669490	0.650290
N461	N46	0.488180	0.635100	0.703420
N471	N47	0.477420	0.698700	0.677440
N481	N48	0.506510	0.696110	0.751510
N491	N49	0.506350	0.795770	0.743450
N501	N50	0.420490	0.891650	0.735770
N511	N51	0.694700	0.756940	0.516920
N521	N52	0.466140	0.779080	0.718820
N531	N53	0.709370	0.558530	0.760950
N541	N54	0.761150	0.706830	0.540990
N551	N55	0.708890	0.650290	0.669490
N561	N56	0.673300	0.703420	0.635100
N571	N57	0.646440	0.677440	0.698700
N581	N58	0.545870	0.751510	0.696110
N591	N59	0.454430	0.743450	0.795770
N601	N60	0.452090	0.735770	0.891650
N611	N61	0.016920	0.031440	0.194700
N621	N62	0.218820	0.035960	0.966140
N631	N63	0.260950	0.971150	0.209370
N641	N64	0.040990	0.991030	0.261150
N651	N65	0.169490	0.971330	0.208890
N661	N66	0.135100	0.988180	0.173300
N671	N67	0.198700	0.977420	0.146440
N681	N68	0.196110	0.006510	0.045870
N691	N69	0.295770	0.006350	0.954430
N701	N70	0.391650	0.920490	0.952090
N711	N71	0.256940	0.194700	0.031440
N721	N72	0.279080	0.966140	0.035960
N731	N73	0.058530	0.209370	0.971150
N741	N74	0.206830	0.261150	0.991030
N751	N75	0.150290	0.208890	0.971330
N761	N76	0.203420	0.173300	0.988180
N771	N77	0.177440	0.146440	0.977420
N781	N78	0.251510	0.045870	0.006510
N791	N79	0.243450	0.954430	0.006350
N801	N80	0.235770	0.952090	0.920490
N811	N81	0.531440	0.756940	0.194700
N821	N82	0.535960	0.779080	0.966140
N831	N83	0.471150	0.558530	0.209370
N841	N84	0.491030	0.706830	0.261150
N851	N85	0.471330	0.650290	0.208890
N861	N86	0.488180	0.703420	0.173300
N871	N87	0.477420	0.677440	0.146440
N881	N88	0.506510	0.751510	0.045870
N891	N89	0.506350	0.743450	0.954430
N901	N90	0.420490	0.735770	0.952090
N911	N91	0.694700	0.516920	0.031440
N921	N92	0.466140	0.718820	0.035960
N931	N93	0.709370	0.760950	0.971150
N941	N94	0.761150	0.540990	0.991030
N951	N95	0.708890	0.669490	0.971330
N961	N96	0.673300	0.635100	0.988180
N971	N97	0.646440	0.698700	0.977420
N981	N98	0.545870	0.696110	0.006510
N991	N99	0.454430	0.795770	0.006350
N1001	N100	0.452090	0.891650	0.920490
N1011	N101	0.016920	0.194700	0.756940
N1021	N102	0.218820	0.966140	0.779080
N1031	N103	0.260950	0.209370	0.558530
N1041	N104	0.040990	0.261150	0.706830
N1051	N105	0.169490	0.208890	0.650290
N1061	N106	0.135100	0.173300	0.703420
N1071	N107	0.198700	0.146440	0.677440
N1081	N108	0.196110	0.045870	0.751510
N1091	N109	0.295770	0.954430	0.743450
N1101	N110	0.391650	0.952090	0.735770
N1111	N111	0.256940	0.031440	0.516920
N1121	N112	0.279080	0.035960	0.718820
N1131	N113	0.058530	0.971150	0.760950
N1141	N114	0.206830	0.991030	0.540990
N1151	N115	0.150290	0.971330	0.669490
N1161	N116	0.203420	0.988180	0.635100
N1171	N117	0.177440	0.977420	0.698700
N1181	N118	0.251510	0.006510	0.696110
N1191	N119	0.243450	0.006350	0.795770
N1201	N120	0.235770	0.920490	0.891650
N1211	N121	0.805300	0.468560	0.983080
N1221	N122	0.033860	0.464040	0.781180
N1231	N123	0.790630	0.528850	0.739050
N1241	N124	0.738850	0.508970	0.959010
N1251	N125	0.791110	0.528670	0.830510
N1261	N126	0.826700	0.511820	0.864900
N1271	N127	0.853560	0.522580	0.801300
N1281	N128	0.954130	0.493490	0.803890
N1291	N129	0.045570	0.493650	0.704230
N1301	N130	0.047910	0.579510	0.608350
N1311	N131	0.968560	0.305300	0.743060
N1321	N132	0.964040	0.533860	0.720920
N1331	N133	0.028850	0.290630	0.941470
N1341	N134	0.008970	0.238850	0.793170
N1351	N135	0.028670	0.291110	0.849710
N1361	N136	0.011820	0.326700	0.796580
N1371	N137	0.022580	0.353560	0.822560
N1381	N138	0.993490	0.454130	0.748490
N1391	N139	0.993650	0.545570	0.756550
N1401	N140	0.079510	0.547910	0.764230
N1411	N141	0.243060	0.983080	0.468560
N1421	N142	0.220920	0.781180	0.464040
N1431	N143	0.441470	0.739050	0.528850
N1441	N144	0.293170	0.959010	0.508970
N1451	N145	0.349710	0.830510	0.528670
N1461	N146	0.296580	0.864900	0.511820
N1471	N147	0.322560	0.801300	0.522580
N1481	N148	0.248490	0.803890	0.493490
N1491	N149	0.256550	0.704230	0.493650
N1501	N150	0.264230	0.608350	0.579510
N1511	N151	0.483080	0.743060	0.305300
N1521	N152	0.281180	0.720920	0.533860
N1531	N153	0.239050	0.941470	0.290630
N1541	N154	0.459010	0.793170	0.238850
N1551	N155	0.330510	0.849710	0.291110
N1561	N156	0.364900	0.796580	0.326700
N1571	N157	0.301300	0.822560	0.353560
N1581	N158	0.303890	0.748490	0.454130
N1591	N159	0.204230	0.756550	0.545570
N1601	N160	0.108350	0.764230	0.547910
N1611	N161	0.483080	0.468560	0.743060
N1621	N162	0.281180	0.464040	0.720920
N1631	N163	0.239050	0.528850	0.941470
N1641	N164	0.459010	0.508970	0.793170
N1651	N165	0.330510	0.528670	0.849710
N1661	N166	0.364900	0.511820	0.796580
N1671	N167	0.301300	0.522580	0.822560
N1681	N168	0.303890	0.493490	0.748490
N1691	N169	0.204230	0.493650	0.756550
N1701	N170	0.108350	0.579510	0.764230
N1711	N171	0.243060	0.305300	0.983080
N1721	N172	0.220920	0.533860	0.781180
N1731	N173	0.441470	0.290630	0.739050
N1741	N174	0.293170	0.238850	0.959010
N1751	N175	0.349710	0.291110	0.830510
N1761	N176	0.296580	0.326700	0.864900
N1771	N177	0.322560	0.353560	0.801300
N1781	N178	0.248490	0.454130	0.803890
N1791	N179	0.256550	0.545570	0.704230
N1801	N180	0.264230	0.547910	0.608350
N1811	N181	0.968560	0.983080	0.305300
N1821	N182	0.964040	0.781180	0.533860
N1831	N183	0.028850	0.739050	0.290630
N1841	N184	0.008970	0.959010	0.238850
N1851	N185	0.028670	0.830510	0.291110
N1861	N186	0.011820	0.864900	0.326700
N1871	N187	0.022580	0.801300	0.353560
N1881	N188	0.993490	0.803890	0.454130
N1891	N189	0.993650	0.704230	0.545570
N1901	N190	0.079510	0.608350	0.547910
N1911	N191	0.805300	0.743060	0.468560
N1921	N192	0.033860	0.720920	0.464040
N1931	N193	0.790630	0.941470	0.528850
N1941	N194	0.738850	0.793170	0.508970
N1951	N195	0.791110	0.849710	0.528670
N1961	N196	0.826700	0.796580	0.511820
N1971	N197	0.853560	0.822560	0.522580
N1981	N198	0.954130	0.748490	0.493490
N1991	N199	0.045570	0.756550	0.493650
N2001	N200	0.047910	0.764230	0.579510
N2011	N201	0.243060	0.468560	0.305300
N2021	N202	0.220920	0.464040	0.533860
N2031	N203	0.441470	0.528850	0.290630
N2041	N204	0.293170	0.508970	0.238850
N2051	N205	0.349710	0.528670	0.291110
N2061	N206	0.296580	0.511820	0.326700
N2071	N207	0.322560	0.522580	0.353560
N2081	N208	0.248490	0.493490	0.454130
N2091	N209	0.256550	0.493650	0.545570
N2101	N210	0.264230	0.579510	0.547910
N2111	N211	0.483080	0.305300	0.468560
N2121	N212	0.281180	0.533860	0.464040
N2131	N213	0.239050	0.290630	0.528850
N2141	N214	0.459010	0.238850	0.508970
N2151	N215	0.330510	0.291110	0.528670
N2161	N216	0.364900	0.326700	0.511820
N2171	N217	0.301300	0.353560	0.522580
N2181	N218	0.303890	0.454130	0.493490
N2191	N219	0.204230	0.545570	0.493650
N2201	N220	0.108350	0.547910	0.579510
N2211	N221	0.805300	0.983080	0.743060
N2221	N222	0.033860	0.781180	0.720920
N2231	N223	0.790630	0.739050	0.941470
N2241	N224	0.738850	0.959010	0.793170
N2251	N225	0.791110	0.830510	0.849710
N2261	N226	0.826700	0.864900	0.796580
N2271	N227	0.853560	0.801300	0.822560
N2281	N228	0.954130	0.803890	0.748490
N2291	N229	0.045570	0.704230	0.756550
N2301	N230	0.047910	0.608350	0.764230
N2311	N231	0.968560	0.743060	0.983080
N2321	N232	0.964040	0.720920	0.781180
N2331	N233	0.028850	0.941470	0.739050
N2341	N234	0.008970	0.793170	0.959010
N2351	N235	0.028670	0.849710	0.830510
N2361	N236	0.011820	0.796580	0.864900
N2371	N237	0.022580	0.822560	0.801300
N2381	N238	0.993490	0.748490	0.803890
N2391	N239	0.993650	0.756550	0.704230
N2401	N240	0.079510	0.764230	0.608350
N2411	N241	0.468560	0.805300	0.483080
N2421	N242	0.464040	0.033860	0.281180
N2431	N243	0.528850	0.790630	0.239050
N2441	N244	0.508970	0.738850	0.459010
N2451	N245	0.528670	0.791110	0.330510
N2461	N246	0.511820	0.826700	0.364900
N2471	N247	0.522580	0.853560	0.301300
N2481	N248	0.493490	0.954130	0.303890
N2491	N249	0.493650	0.045570	0.204230
N2501	N250	0.579510	0.047910	0.108350
N2511	N251	0.305300	0.968560	0.243060
N2521	N252	0.533860	0.964040	0.220920
N2531	N253	0.290630	0.028850	0.441470
N2541	N254	0.238850	0.008970	0.293170
N2551	N255	0.291110	0.028670	0.349710
N2561	N256	0.326700	0.011820	0.296580
N2571	N257	0.353560	0.022580	0.322560
N2581	N258	0.454130	0.993490	0.248490
N2591	N259	0.545570	0.993650	0.256550
N2601	N260	0.547910	0.079510	0.264230
N2611	N261	0.983080	0.243060	0.968560
N2621	N262	0.781180	0.220920	0.964040
N2631	N263	0.739050	0.441470	0.028850
N2641	N264	0.959010	0.293170	0.008970
N2651	N265	0.830510	0.349710	0.028670
N2661	N266	0.864900	0.296580	0.011820
N2671	N267	0.801300	0.322560	0.022580
N2681	N268	0.803890	0.248490	0.993490
N2691	N269	0.704230	0.256550	0.993650
N2701	N270	0.608350	0.264230	0.079510
N2711	N271	0.743060	0.483080	0.805300
N2721	N272	0.720920	0.281180	0.033860
N2731	N273	0.941470	0.239050	0.790630
N2741	N274	0.793170	0.459010	0.738850
N2751	N275	0.849710	0.330510	0.791110
N2761	N276	0.796580	0.364900	0.826700
N2771	N277	0.822560	0.301300	0.853560
N2781	N278	0.748490	0.303890	0.954130
N2791	N279	0.756550	0.204230	0.045570
N2801	N280	0.764230	0.108350	0.047910
N2811	N281	0.468560	0.483080	0.243060
N2821	N282	0.464040	0.281180	0.220920
N2831	N283	0.528850	0.239050	0.441470
N2841	N284	0.508970	0.459010	0.293170
N2851	N285	0.528670	0.330510	0.349710
N2861	N286	0.511820	0.364900	0.296580
N2871	N287	0.522580	0.301300	0.322560
N2881	N288	0.493490	0.303890	0.248490
N2891	N289	0.493650	0.204230	0.256550
N2901	N290	0.579510	0.108350	0.264230
N2911	N291	0.305300	0.243060	0.483080
N2921	N292	0.533860	0.220920	0.281180
N2931	N293	0.290630	0.441470	0.239050
N2941	N294	0.238850	0.293170	0.459010
N2951	N295	0.291110	0.349710	0.330510
N2961	N296	0.326700	0.296580	0.364900
N2971	N297	0.353560	0.322560	0.301300
N2981	N298	0.454130	0.248490	0.303890
N2991	N299	0.545570	0.256550	0.204230
N3001	N300	0.547910	0.264230	0.108350
N3011	N301	0.983080	0.968560	0.805300
N3021	N302	0.781180	0.964040	0.033860
N3031	N303	0.739050	0.028850	0.790630
N3041	N304	0.959010	0.008970	0.738850
N3051	N305	0.830510	0.028670	0.791110
N3061	N306	0.864900	0.011820	0.826700
N3071	N307	0.801300	0.022580	0.853560
N3081	N308	0.803890	0.993490	0.954130
N3091	N309	0.704230	0.993650	0.045570
N3101	N310	0.608350	0.079510	0.047910
N3111	N311	0.743060	0.805300	0.968560
N3121	N312	0.720920	0.033860	0.964040
N3131	N313	0.941470	0.790630	0.028850
N3141	N314	0.793170	0.738850	0.008970
N3151	N315	0.849710	0.791110	0.028670
N3161	N316	0.796580	0.826700	0.011820
N3171	N317	0.822560	0.853560	0.022580
N3181	N318	0.748490	0.954130	0.993490
N3191	N319	0.756550	0.045570	0.993650
N3201	N320	0.764230	0.047910	0.079510
N3211	N321	0.468560	0.243060	0.805300
N3221	N322	0.464040	0.220920	0.033860
N3231	N323	0.528850	0.441470	0.790630
N3241	N324	0.508970	0.293170	0.738850
N3251	N325	0.528670	0.349710	0.791110
N3261	N326	0.511820	0.296580	0.826700
N3271	N327	0.522580	0.322560	0.853560
N3281	N328	0.493490	0.248490	0.954130
N3291	N329	0.493650	0.256550	0.045570
N3301	N330	0.579510	0.264230	0.047910
N3311	N331	0.305300	0.483080	0.968560
N3321	N332	0.533860	0.281180	0.964040
N3331	N333	0.290630	0.239050	0.028850
N3341	N334	0.238850	0.459010	0.008970
N3351	N335	0.291110	0.330510	0.028670
N3361	N336	0.326700	0.364900	0.011820
N3371	N337	0.353560	0.301300	0.022580
N3381	N338	0.454130	0.303890	0.993490
N3391	N339	0.545570	0.204230	0.993650
N3401	N340	0.547910	0.108350	0.079510
N3411	N341	0.983080	0.805300	0.243060
N3421	N342	0.781180	0.033860	0.220920
N3431	N343	0.739050	0.790630	0.441470
N3441	N344	0.959010	0.738850	0.293170
N3451	N345	0.830510	0.791110	0.349710
N3461	N346	0.864900	0.826700	0.296580
N3471	N347	0.801300	0.853560	0.322560
N3481	N348	0.803890	0.954130	0.248490
N3491	N349	0.704230	0.045570	0.256550
N3501	N350	0.608350	0.047910	0.264230
N3511	N351	0.743060	0.968560	0.483080
N3521	N352	0.720920	0.964040	0.281180
N3531	N353	0.941470	0.028850	0.239050
N3541	N354	0.793170	0.008970	0.459010
N3551	N355	0.849710	0.028670	0.330510
N3561	N356	0.796580	0.011820	0.364900
N3571	N357	0.822560	0.022580	0.301300
N3581	N358	0.748490	0.993490	0.303890
N3591	N359	0.756550	0.993650	0.204230
N3601	N360	0.764230	0.079510	0.108350
N3611	N361	0.194700	0.531440	0.016920
N3621	N362	0.966140	0.535960	0.218820
N3631	N363	0.209370	0.471150	0.260950
N3641	N364	0.261150	0.491030	0.040990
N3651	N365	0.208890	0.471330	0.169490
N3661	N366	0.173300	0.488180	0.135100
N3671	N367	0.146440	0.477420	0.198700
N3681	N368	0.045870	0.506510	0.196110
N3691	N369	0.954430	0.506350	0.295770
N3701	N370	0.952090	0.420490	0.391650
N3711	N371	0.031440	0.694700	0.256940
N3721	N372	0.035960	0.466140	0.279080
N3731	N373	0.971150	0.709370	0.058530
N3741	N374	0.991030	0.761150	0.206830
N3751	N375	0.971330	0.708890	0.150290
N3761	N376	0.988180	0.673300	0.203420
N3771	N377	0.977420	0.646440	0.177440
N3781	N378	0.006510	0.545870	0.251510
N3791	N379	0.006350	0.454430	0.243450
N3801	N380	0.920490	0.452090	0.235770
N3811	N381	0.756940	0.016920	0.531440
N3821	N382	0.779080	0.218820	0.535960
N3831	N383	0.558530	0.260950	0.471150
N3841	N384	0.706830	0.040990	0.491030
N3851	N385	0.650290	0.169490	0.471330
N3861	N386	0.703420	0.135100	0.488180
N3871	N387	0.677440	0.198700	0.477420
N3881	N388	0.751510	0.196110	0.506510
N3891	N389	0.743450	0.295770	0.506350
N3901	N390	0.735770	0.391650	0.420490
N3911	N391	0.516920	0.256940	0.694700
N3921	N392	0.718820	0.279080	0.466140
N3931	N393	0.760950	0.058530	0.709370
N3941	N394	0.540990	0.206830	0.761150
N3951	N395	0.669490	0.150290	0.708890
N3961	N396	0.635100	0.203420	0.673300
N3971	N397	0.698700	0.177440	0.646440
N3981	N398	0.696110	0.251510	0.545870
N3991	N399	0.795770	0.243450	0.454430
N4001	N400	0.891650	0.235770	0.452090
N4011	N401	0.516920	0.531440	0.256940
N4021	N402	0.718820	0.535960	0.279080
N4031	N403	0.760950	0.471150	0.058530
N4041	N404	0.540990	0.491030	0.206830
N4051	N405	0.669490	0.471330	0.150290
N4061	N406	0.635100	0.488180	0.203420
N4071	N407	0.698700	0.477420	0.177440
N4081	N408	0.696110	0.506510	0.251510
N4091	N409	0.795770	0.506350	0.243450
N4101	N410	0.891650	0.420490	0.235770
N4111	N411	0.756940	0.694700	0.016920
N4121	N412	0.779080	0.466140	0.218820
N4131	N413	0.558530	0.709370	0.260950
N4141	N414	0.706830	0.761150	0.040990
N4151	N415	0.650290	0.708890	0.169490
N4161	N416	0.703420	0.673300	0.135100
N4171	N417	0.677440	0.646440	0.198700
N4181	N418	0.751510	0.545870	0.196110
N4191	N419	0.743450	0.454430	0.295770
N4201	N420	0.735770	0.452090	0.391650
N4211	N421	0.031440	0.016920	0.694700
N4221	N422	0.035960	0.218820	0.466140
N4231	N423	0.971150	0.260950	0.709370
N4241	N424	0.991030	0.040990	0.761150
N4251	N425	0.971330	0.169490	0.708890
N4261	N426	0.988180	0.135100	0.673300
N4271	N427	0.977420	0.198700	0.646440
N4281	N428	0.006510	0.196110	0.545870
N4291	N429	0.006350	0.295770	0.454430
N4301	N430	0.920490	0.391650	0.452090
N4311	N431	0.194700	0.256940	0.531440
N4321	N432	0.966140	0.279080	0.535960
N4331	N433	0.209370	0.058530	0.471150
N4341	N434	0.261150	0.206830	0.491030
N4351	N435	0.208890	0.150290	0.471330
N4361	N436	0.173300	0.203420	0.488180
N4371	N437	0.146440	0.177440	0.477420
N4381	N438	0.045870	0.251510	0.506510
N4391	N439	0.954430	0.243450	0.506350
N4401	N440	0.952090	0.235770	0.420490
N4411	N441	0.756940	0.531440	0.694700
N4421	N442	0.779080	0.535960	0.466140
N4431	N443	0.558530	0.471150	0.709370
N4441	N444	0.706830	0.491030	0.761150
N4451	N445	0.650290	0.471330	0.708890
N4461	N446	0.703420	0.488180	0.673300
N4471	N447	0.677440	0.477420	0.646440
N4481	N448	0.751510	0.506510	0.545870
N4491	N449	0.743450	0.506350	0.454430
N4501	N450	0.735770	0.420490	0.452090
N4511	N451	0.516920	0.694700	0.531440
N4521	N452	0.718820	0.466140	0.535960
N4531	N453	0.760950	0.709370	0.471150
N4541	N454	0.540990	0.761150	0.491030
N4551	N455	0.669490	0.708890	0.471330
N4561	N456	0.635100	0.673300	0.488180
N4571	N457	0.698700	0.646440	0.477420
N4581	N458	0.696110	0.545870	0.506510
N4591	N459	0.795770	0.454430	0.506350
N4601	N460	0.891650	0.452090	0.420490
N4611	N461	0.194700	0.016920	0.256940
N4621	N462	0.966140	0.218820	0.279080
N4631	N463	0.209370	0.260950	0.058530
N4641	N464	0.261150	0.040990	0.206830
N4651	N465	0.208890	0.169490	0.150290
N4661	N466	0.173300	0.135100	0.203420
N4671	N467	0.146440	0.198700	0.177440
N4681	N468	0.045870	0.196110	0.251510
N4691	N469	0.954430	0.295770	0.243450
N4701	N470	0.952090	0.391650	0.235770
N4711	N471	0.031440	0.256940	0.016920
N4721	N472	0.035960	0.279080	0.218820
N4731	N473	0.971150	0.058530	0.260950
N4741	N474	0.991030	0.206830	0.040990
N4751	N475	0.971330	0.150290	0.169490
N4761	N476	0.988180	0.203420	0.135100
N4771	N477	0.977420	0.177440	0.198700
N4781	N478	0.006510	0.251510	0.196110
N4791	N479	0.006350	0.243450	0.295770
N4801	N480	0.920490	0.235770	0.391650
