data_LAGDII_ion_b_PM
_symmetry_space_group_name_H-M	'P1'
_cell_length_a	15.808400
_cell_length_b	15.808400
_cell_length_c	16.582300
_cell_angle_alpha	90.000000
_cell_angle_beta	90.000000
_cell_angle_gamma	120.000000
_symmetry_Int_Tables_number 1

loop_
_symmetry_equiv_pos_as_xyz
'x,y,z'

loop_
_atom_site_label
_atom_site_type_symbol
_atom_site_fract_x
_atom_site_fract_y
_atom_site_fract_z
C11	C1	0.870700	0.406800	0.240200
C21	C2	0.919100	0.485200	0.299000
H31	H3	0.979100	0.538500	0.285100
C41	C4	0.880900	0.485400	0.375200
C51	C5	0.947500	0.560000	0.436300
C61	C6	0.911000	0.552800	0.513800
H71	H7	0.848100	0.502500	0.524900
C81	C8	0.041000	0.629000	0.422300
H91	H9	0.067500	0.631500	0.371700
C101	C10	0.962900	0.615700	0.574100
H111	H11	0.935800	0.609100	0.625100
C121	C12	0.099100	0.696000	0.479600
H131	H13	0.163100	0.743600	0.468000
C141	C14	0.057600	0.690100	0.557900
C151	C15	0.117000	0.757400	0.621100
C161	C16	0.927900	0.407200	0.166700
C171	C17	0.874900	0.352700	0.103100
H181	H18	0.807100	0.316700	0.106300
C191	C19	0.023300	0.455200	0.160100
H201	H20	0.060800	0.493100	0.203100
C211	C21	0.923000	0.351000	0.032200
H221	H22	0.887100	0.316000	0.987500
C231	C23	0.071100	0.450700	0.088600
H241	H24	0.138900	0.484800	0.085500
C251	C25	0.021200	0.400200	0.029500
C261	C26	0.071100	0.402600	0.957200
N271	N27	0.105800	0.398200	0.895500
N281	N28	0.161300	0.806700	0.669100
O291	O29	0.785700	0.340600	0.244700
O301	O30	0.797600	0.427300	0.398800
Ag311	Ag31	0.871690	0.597980	0.235050
O321	O32	0.036700	0.734300	0.250200
O331	O33	0.237700	0.872100	0.263800
O341	O34	0.147700	0.822400	0.111600
Re351	Re35	0.150670	0.783700	0.205120
O361	O36	0.176600	0.688700	0.200600
C371	C37	0.593200	0.463900	0.240200
C381	C38	0.514800	0.433900	0.299000
H391	H39	0.461500	0.440600	0.285100
C401	C40	0.514600	0.395500	0.375200
C411	C41	0.440000	0.387500	0.436300
C421	C42	0.447200	0.358200	0.513800
H431	H43	0.497500	0.345600	0.524900
C441	C44	0.371000	0.412000	0.422300
H451	H45	0.368500	0.436000	0.371700
C461	C46	0.384300	0.347200	0.574100
H471	H47	0.390900	0.326700	0.625100
C481	C48	0.304000	0.403100	0.479600
H491	H49	0.256400	0.419500	0.468000
C501	C50	0.309900	0.367500	0.557900
C511	C51	0.242600	0.359600	0.621100
C521	C52	0.592800	0.520700	0.166700
C531	C53	0.647300	0.522200	0.103100
H541	H54	0.683300	0.490400	0.106300
C551	C55	0.544800	0.568100	0.160100
H561	H56	0.506900	0.567700	0.203100
C571	C57	0.649000	0.572000	0.032200
H581	H58	0.684000	0.571100	0.987500
C591	C59	0.549300	0.620400	0.088600
H601	H60	0.515200	0.654100	0.085500
C611	C61	0.599800	0.621000	0.029500
C621	C62	0.597400	0.668500	0.957200
N631	N63	0.601800	0.707600	0.895500
N641	N64	0.193300	0.354600	0.669100
O651	O65	0.659400	0.445100	0.244700
O661	O66	0.572700	0.370300	0.398800
Ag671	Ag67	0.402020	0.273710	0.235050
O681	O68	0.265700	0.302400	0.250200
O691	O69	0.127900	0.365600	0.263800
O701	O70	0.177600	0.325300	0.111600
Re711	Re71	0.216300	0.366970	0.205120
O721	O72	0.311300	0.487900	0.200600
C731	C73	0.536100	0.129300	0.240200
C741	C74	0.566100	0.080900	0.299000
H751	H75	0.559400	0.020900	0.285100
C761	C76	0.604500	0.119100	0.375200
C771	C77	0.612500	0.052500	0.436300
C781	C78	0.641800	0.089000	0.513800
H791	H79	0.654400	0.151900	0.524900
C801	C80	0.588000	0.959000	0.422300
H811	H81	0.564000	0.932500	0.371700
C821	C82	0.652800	0.037100	0.574100
H831	H83	0.673300	0.064200	0.625100
C841	C84	0.596900	0.900900	0.479600
H851	H85	0.580500	0.836900	0.468000
C861	C86	0.632500	0.942400	0.557900
C871	C87	0.640400	0.883000	0.621100
C881	C88	0.479300	0.072100	0.166700
C891	C89	0.477800	0.125100	0.103100
H901	H90	0.509600	0.192900	0.106300
C911	C91	0.431900	0.976700	0.160100
H921	H92	0.432300	0.939200	0.203100
C931	C93	0.428000	0.077000	0.032200
H941	H94	0.428900	0.112900	0.987500
C951	C95	0.379600	0.928900	0.088600
H961	H96	0.345900	0.861100	0.085500
C971	C97	0.379000	0.978800	0.029500
C981	C98	0.331500	0.928900	0.957200
N991	N99	0.292400	0.894200	0.895500
N1001	N100	0.645400	0.838700	0.669100
O1011	O101	0.554900	0.214300	0.244700
O1021	O102	0.629700	0.202400	0.398800
Ag1031	Ag103	0.726290	0.128310	0.235050
O1041	O104	0.697600	0.963300	0.250200
O1051	O105	0.634400	0.762300	0.263800
O1061	O106	0.674700	0.852300	0.111600
Re1071	Re107	0.633030	0.849330	0.205120
O1081	O108	0.512100	0.823400	0.200600
C1091	C109	0.129300	0.593200	0.759800
C1101	C110	0.080900	0.514800	0.701000
H1111	H111	0.020900	0.461500	0.714900
C1121	C112	0.119100	0.514600	0.624800
C1131	C113	0.052500	0.440000	0.563700
C1141	C114	0.089000	0.447200	0.486200
H1151	H115	0.151900	0.497500	0.475100
C1161	C116	0.959000	0.371000	0.577700
H1171	H117	0.932500	0.368500	0.628300
C1181	C118	0.037100	0.384300	0.425900
H1191	H119	0.064200	0.390900	0.374900
C1201	C120	0.900900	0.304000	0.520400
H1211	H121	0.836900	0.256400	0.532000
C1221	C122	0.942400	0.309900	0.442100
C1231	C123	0.883000	0.242600	0.378900
C1241	C124	0.072100	0.592800	0.833300
C1251	C125	0.125100	0.647300	0.896900
H1261	H126	0.192900	0.683300	0.893700
C1271	C127	0.976700	0.544800	0.839900
H1281	H128	0.939200	0.506900	0.796900
C1291	C129	0.077000	0.649000	0.967800
H1301	H130	0.112900	0.684000	0.012500
C1311	C131	0.928900	0.549300	0.911400
H1321	H132	0.861100	0.515200	0.914500
C1331	C133	0.978800	0.599800	0.970500
C1341	C134	0.928900	0.597400	0.042800
N1351	N135	0.894200	0.601800	0.104500
N1361	N136	0.838700	0.193300	0.330900
O1371	O137	0.214300	0.659400	0.755300
O1381	O138	0.202400	0.572700	0.601200
Ag1391	Ag139	0.128310	0.402020	0.764950
O1401	O140	0.963300	0.265700	0.749800
O1411	O141	0.762300	0.127900	0.736200
O1421	O142	0.852300	0.177600	0.888400
Re1431	Re143	0.849330	0.216300	0.794880
O1441	O144	0.823400	0.311300	0.799400
C1451	C145	0.406800	0.536100	0.759800
C1461	C146	0.485200	0.566100	0.701000
H1471	H147	0.538500	0.559400	0.714900
C1481	C148	0.485400	0.604500	0.624800
C1491	C149	0.560000	0.612500	0.563700
C1501	C150	0.552800	0.641800	0.486200
H1511	H151	0.502500	0.654400	0.475100
C1521	C152	0.629000	0.588000	0.577700
H1531	H153	0.631500	0.564000	0.628300
C1541	C154	0.615700	0.652800	0.425900
H1551	H155	0.609100	0.673300	0.374900
C1561	C156	0.696000	0.596900	0.520400
H1571	H157	0.743600	0.580500	0.532000
C1581	C158	0.690100	0.632500	0.442100
C1591	C159	0.757400	0.640400	0.378900
C1601	C160	0.407200	0.479300	0.833300
C1611	C161	0.352700	0.477800	0.896900
H1621	H162	0.316700	0.509600	0.893700
C1631	C163	0.455200	0.431900	0.839900
H1641	H164	0.493100	0.432300	0.796900
C1651	C165	0.351000	0.428000	0.967800
H1661	H166	0.316000	0.428900	0.012500
C1671	C167	0.450700	0.379600	0.911400
H1681	H168	0.484800	0.345900	0.914500
C1691	C169	0.400200	0.379000	0.970500
C1701	C170	0.402600	0.331500	0.042800
N1711	N171	0.398200	0.292400	0.104500
N1721	N172	0.806700	0.645400	0.330900
O1731	O173	0.340600	0.554900	0.755300
O1741	O174	0.427300	0.629700	0.601200
Ag1751	Ag175	0.597980	0.726290	0.764950
O1761	O176	0.734300	0.697600	0.749800
O1771	O177	0.872100	0.634400	0.736200
O1781	O178	0.822400	0.674700	0.888400
Re1791	Re179	0.783700	0.633030	0.794880
O1801	O180	0.688700	0.512100	0.799400
C1811	C181	0.463900	0.870700	0.759800
C1821	C182	0.433900	0.919100	0.701000
H1831	H183	0.440600	0.979100	0.714900
C1841	C184	0.395500	0.880900	0.624800
C1851	C185	0.387500	0.947500	0.563700
C1861	C186	0.358200	0.911000	0.486200
H1871	H187	0.345600	0.848100	0.475100
C1881	C188	0.412000	0.041000	0.577700
H1891	H189	0.436000	0.067500	0.628300
C1901	C190	0.347200	0.962900	0.425900
H1911	H191	0.326700	0.935800	0.374900
C1921	C192	0.403100	0.099100	0.520400
H1931	H193	0.419500	0.163100	0.532000
C1941	C194	0.367500	0.057600	0.442100
C1951	C195	0.359600	0.117000	0.378900
C1961	C196	0.520700	0.927900	0.833300
C1971	C197	0.522200	0.874900	0.896900
H1981	H198	0.490400	0.807100	0.893700
C1991	C199	0.568100	0.023300	0.839900
H2001	H200	0.567700	0.060800	0.796900
C2011	C201	0.572000	0.923000	0.967800
H2021	H202	0.571100	0.887100	0.012500
C2031	C203	0.620400	0.071100	0.911400
H2041	H204	0.654100	0.138900	0.914500
C2051	C205	0.621000	0.021200	0.970500
C2061	C206	0.668500	0.071100	0.042800
N2071	N207	0.707600	0.105800	0.104500
N2081	N208	0.354600	0.161300	0.330900
O2091	O209	0.445100	0.785700	0.755300
O2101	O210	0.370300	0.797600	0.601200
Ag2111	Ag211	0.273710	0.871690	0.764950
O2121	O212	0.302400	0.036700	0.749800
O2131	O213	0.365600	0.237700	0.736200
O2141	O214	0.325300	0.147700	0.888400
Re2151	Re215	0.366970	0.150670	0.794880
O2161	O216	0.487900	0.176600	0.799400
Cd2171	Cd217	0.666670	0.333330	0.324060
Cd2181	Cd218	0.333330	0.666670	0.675940
