data_LAGMUD_clean_PM
_symmetry_space_group_name_H-M	'P1'
_cell_length_a	9.819600
_cell_length_b	10.342100
_cell_length_c	11.013300
_cell_angle_alpha	77.278000
_cell_angle_beta	76.398000
_cell_angle_gamma	65.793000
_symmetry_Int_Tables_number 1

loop_
_symmetry_equiv_pos_as_xyz
'x,y,z'

loop_
_atom_site_label
_atom_site_type_symbol
_atom_site_fract_x
_atom_site_fract_y
_atom_site_fract_z
Y11	Y1	0.943870	0.227670	0.824060
Y21	Y2	0.056130	0.772330	0.175940
H11	H1	0.649700	0.859700	0.151600
H21	H2	0.599300	0.117800	0.819300
H31	H3	0.434500	0.416300	0.709500
H41	H4	0.741700	0.500100	0.423500
H51	H5	0.309100	0.921200	0.503900
H61	H6	0.453100	0.187000	0.607400
H71	H7	0.350300	0.140300	0.848400
H81	H8	0.400700	0.882200	0.180700
H91	H9	0.565500	0.583700	0.290500
H101	H10	0.258300	0.499900	0.576500
H111	H11	0.690900	0.078800	0.496100
H121	H12	0.546900	0.813000	0.392600
C11	C1	0.649500	0.986600	0.982200
C21	C2	0.589500	0.915800	0.091100
C31	C3	0.559200	0.070700	0.891600
C41	C4	0.808900	0.977000	0.966700
C51	C5	0.607600	0.448500	0.580600
C61	C6	0.460600	0.449800	0.625300
C71	C7	0.645000	0.499900	0.454200
C81	C8	0.722800	0.389400	0.666600
C91	C9	0.355800	0.066000	0.567200
C101	C10	0.385500	0.952900	0.502300
C111	C11	0.471900	0.112100	0.564200
C121	C12	0.203900	0.132600	0.646000
C131	C13	0.350500	0.013400	0.017800
C141	C14	0.410500	0.084200	0.908900
C151	C15	0.440800	0.929300	0.108400
C161	C16	0.191100	0.023000	0.033300
C171	C17	0.392400	0.551500	0.419400
C181	C18	0.539400	0.550200	0.374700
C191	C19	0.355000	0.500100	0.545800
C201	C20	0.277200	0.610600	0.333400
C211	C21	0.644200	0.934000	0.432800
C221	C22	0.614500	0.047100	0.497700
C231	C23	0.528100	0.887900	0.435800
C241	C24	0.796100	0.867400	0.354000
O11	O1	0.857900	0.046400	0.870400
O21	O2	0.884300	0.899700	0.052000
O31	O3	0.858500	0.375100	0.624900
O41	O4	0.684100	0.349800	0.782100
O51	O5	0.169900	0.249700	0.684000
O61	O6	0.115300	0.064700	0.677500
O71	O7	0.142100	0.953600	0.129600
O81	O8	0.115700	0.100300	0.948000
O91	O9	0.141500	0.624900	0.375100
O101	O10	0.315900	0.650200	0.217900
O111	O11	0.830100	0.750300	0.316000
O121	O12	0.884700	0.935300	0.322500
