data_LAGNUE_clean_PM
_symmetry_space_group_name_H-M	'P1'
_cell_length_a	9.629200
_cell_length_b	11.100600
_cell_length_c	16.026300
_cell_angle_alpha	91.066000
_cell_angle_beta	90.000000
_cell_angle_gamma	90.000000
_symmetry_Int_Tables_number 1

loop_
_symmetry_equiv_pos_as_xyz
'x,y,z'

loop_
_atom_site_label
_atom_site_type_symbol
_atom_site_fract_x
_atom_site_fract_y
_atom_site_fract_z
Y11	Y1	0.789420	0.504880	0.009660
Y21	Y2	0.289420	0.995120	0.490340
Y31	Y3	0.210580	0.495120	0.990340
Y41	Y4	0.710580	0.004880	0.509660
H11	H1	0.161800	0.370200	0.772000
H21	H2	0.186200	0.252500	0.652800
H31	H3	0.780500	0.282400	0.607300
H41	H4	0.754000	0.399300	0.727000
H51	H5	0.202800	0.102400	0.032600
H61	H6	0.793100	0.104700	0.984500
H71	H7	0.661800	0.129800	0.728000
H81	H8	0.686200	0.247500	0.847200
H91	H9	0.280500	0.217600	0.892700
H101	H10	0.254000	0.100700	0.773000
H111	H11	0.702800	0.397600	0.467400
H121	H12	0.293100	0.395300	0.515500
H131	H13	0.838200	0.629800	0.228000
H141	H14	0.813800	0.747500	0.347200
H151	H15	0.219500	0.717600	0.392700
H161	H16	0.246000	0.600700	0.273000
H171	H17	0.797200	0.897600	0.967400
H181	H18	0.206900	0.895300	0.015500
H191	H19	0.338200	0.870200	0.272000
H201	H20	0.313800	0.752500	0.152800
H211	H21	0.719500	0.782400	0.107300
H221	H22	0.746000	0.899300	0.227000
H231	H23	0.297200	0.602400	0.532600
H241	H24	0.706900	0.604700	0.484500
C11	C1	0.954800	0.392700	0.764400
C21	C2	0.084100	0.350900	0.740000
C31	C3	0.098800	0.280800	0.668400
C41	C4	0.984200	0.252400	0.619600
C51	C5	0.857000	0.298400	0.641200
C61	C6	0.840900	0.368400	0.713000
C71	C7	0.930900	0.453500	0.848000
C81	C8	0.998300	0.165100	0.546700
C91	C9	0.998600	0.124900	0.009400
C101	C10	0.121400	0.061200	0.019300
C111	C11	0.876000	0.062800	0.990500
C121	C12	0.998700	0.260400	0.018900
C131	C13	0.454800	0.107300	0.735600
C141	C14	0.584100	0.149100	0.760000
C151	C15	0.598800	0.219200	0.831600
C161	C16	0.484200	0.247600	0.880400
C171	C17	0.357000	0.201600	0.858800
C181	C18	0.340900	0.131600	0.787000
C191	C19	0.430900	0.046500	0.652000
C201	C20	0.498300	0.334900	0.953300
C211	C21	0.498600	0.375100	0.490600
C221	C22	0.621400	0.438800	0.480700
C231	C23	0.376000	0.437200	0.509500
C241	C24	0.498700	0.239600	0.481100
C251	C25	0.045200	0.607300	0.235600
C261	C26	0.915900	0.649100	0.260000
C271	C27	0.901200	0.719200	0.331600
C281	C28	0.015800	0.747600	0.380400
C291	C29	0.143000	0.701600	0.358800
C301	C30	0.159100	0.631600	0.287000
C311	C31	0.069100	0.546500	0.152000
C321	C32	0.001700	0.834900	0.453300
C331	C33	0.001400	0.875100	0.990600
C341	C34	0.878600	0.938800	0.980700
C351	C35	0.124000	0.937200	0.009500
C361	C36	0.001300	0.739600	0.981100
C371	C37	0.545200	0.892700	0.264400
C381	C38	0.415900	0.850900	0.240000
C391	C39	0.401200	0.780800	0.168400
C401	C40	0.515800	0.752400	0.119600
C411	C41	0.643000	0.798400	0.141200
C421	C42	0.659100	0.868400	0.213000
C431	C43	0.569100	0.953500	0.348000
C441	C44	0.501700	0.665100	0.046700
C451	C45	0.501400	0.624900	0.509400
C461	C46	0.378600	0.561200	0.519300
C471	C47	0.624000	0.562800	0.490500
C481	C48	0.501300	0.760400	0.518900
O11	O1	0.810400	0.487500	0.865300
O21	O2	0.029700	0.462800	0.898700
O31	O3	0.891200	0.136000	0.507500
O41	O4	0.117100	0.126600	0.530200
O51	O5	0.880600	0.311700	0.021000
O61	O6	0.113300	0.311700	0.022100
O71	O7	0.310400	0.012500	0.634700
O81	O8	0.529700	0.037200	0.601300
O91	O9	0.391200	0.364000	0.992500
O101	O10	0.617100	0.373400	0.969800
O111	O11	0.380600	0.188300	0.479000
O121	O12	0.613300	0.188300	0.477900
O131	O13	0.189600	0.512500	0.134700
O141	O14	0.970300	0.537200	0.101300
O151	O15	0.108800	0.864000	0.492500
O161	O16	0.882900	0.873400	0.469800
O171	O17	0.119400	0.688300	0.979000
O181	O18	0.886700	0.688300	0.977900
O191	O19	0.689600	0.987500	0.365300
O201	O20	0.470300	0.962800	0.398700
O211	O21	0.608800	0.636000	0.007500
O221	O22	0.382900	0.626600	0.030200
O231	O23	0.619400	0.811700	0.521000
O241	O24	0.386700	0.811700	0.522100
