data_LAGQOB_clean_PM
_symmetry_space_group_name_H-M	'P1'
_cell_length_a	9.873900
_cell_length_b	10.476700
_cell_length_c	11.073500
_cell_angle_alpha	77.230000
_cell_angle_beta	76.421000
_cell_angle_gamma	66.166000
_symmetry_Int_Tables_number 1

loop_
_symmetry_equiv_pos_as_xyz
'x,y,z'

loop_
_atom_site_label
_atom_site_type_symbol
_atom_site_fract_x
_atom_site_fract_y
_atom_site_fract_z
Gd11	Gd1	0.944450	0.227500	0.822790
Gd21	Gd2	0.055550	0.772500	0.177210
H11	H1	0.648300	0.860700	0.150300
H21	H2	0.599900	0.116800	0.821600
H31	H3	0.435800	0.414500	0.707600
H41	H4	0.737800	0.502800	0.425100
H51	H5	0.310000	0.921500	0.506000
H61	H6	0.455000	0.183600	0.606200
H71	H7	0.351700	0.139300	0.849700
H81	H8	0.400100	0.883200	0.178400
H91	H9	0.564200	0.585500	0.292400
H101	H10	0.262200	0.497200	0.574900
H111	H11	0.690000	0.078500	0.494000
H121	H12	0.545000	0.816400	0.393800
C11	C1	0.648400	0.986300	0.982400
C21	C2	0.588800	0.916300	0.090100
C31	C3	0.559700	0.069900	0.893100
C41	C4	0.808400	0.975500	0.966100
C51	C5	0.607100	0.448600	0.580100
C61	C6	0.461900	0.448600	0.624100
C71	C7	0.642200	0.501300	0.455400
C81	C8	0.720900	0.389700	0.665400
C91	C9	0.357300	0.065200	0.566700
C101	C10	0.386000	0.953500	0.503400
C111	C11	0.472800	0.110000	0.563200
C121	C12	0.206700	0.130200	0.644200
C131	C13	0.351600	0.013700	0.017600
C141	C14	0.411200	0.083700	0.909900
C151	C15	0.440300	0.930100	0.106900
C161	C16	0.191600	0.024500	0.033900
C171	C17	0.392900	0.551400	0.419900
C181	C18	0.538100	0.551400	0.375900
C191	C19	0.357800	0.498700	0.544600
C201	C20	0.279100	0.610300	0.334600
C211	C21	0.642700	0.934800	0.433300
C221	C22	0.614000	0.046500	0.496600
C231	C23	0.527200	0.890000	0.436800
C241	C24	0.793300	0.869800	0.355800
O11	O1	0.856400	0.045700	0.871300
O21	O2	0.882700	0.897100	0.049800
O31	O3	0.854700	0.378400	0.624000
O41	O4	0.683100	0.349200	0.779700
O51	O5	0.172300	0.246900	0.680400
O61	O6	0.118100	0.064000	0.676300
O71	O7	0.143600	0.954300	0.128700
O81	O8	0.117300	0.102900	0.950200
O91	O9	0.145300	0.621600	0.376000
O101	O10	0.316900	0.650800	0.220300
O111	O11	0.827700	0.753100	0.319600
O121	O12	0.881900	0.936000	0.323700
