data_LAGQER_clean_PM
_symmetry_space_group_name_H-M	'P1'
_cell_length_a	9.909800
_cell_length_b	10.531400
_cell_length_c	11.061900
_cell_angle_alpha	77.711000
_cell_angle_beta	76.638000
_cell_angle_gamma	66.320000
_symmetry_Int_Tables_number 1

loop_
_symmetry_equiv_pos_as_xyz
'x,y,z'

loop_
_atom_site_label
_atom_site_type_symbol
_atom_site_fract_x
_atom_site_fract_y
_atom_site_fract_z
Sm11	Sm1	0.943980	0.226390	0.822870
Sm21	Sm2	0.056020	0.773610	0.177130
H11	H1	0.651300	0.861000	0.147100
H21	H2	0.596900	0.117000	0.822500
H31	H3	0.438200	0.412300	0.706500
H41	H4	0.738100	0.504300	0.426500
H51	H5	0.313600	0.919000	0.507300
H61	H6	0.453400	0.182700	0.607800
H71	H7	0.348700	0.139000	0.852900
H81	H8	0.403100	0.883000	0.177500
H91	H9	0.561800	0.587700	0.293500
H101	H10	0.261900	0.495700	0.573500
H111	H11	0.686400	0.081000	0.492700
H121	H12	0.546600	0.817300	0.392200
C11	C1	0.648700	0.987200	0.981800
C21	C2	0.591100	0.916800	0.088000
C31	C3	0.558100	0.069900	0.894000
C41	C4	0.808600	0.974400	0.964800
C51	C5	0.605800	0.448600	0.579100
C61	C6	0.463000	0.447200	0.623400
C71	C7	0.643100	0.502200	0.455900
C81	C8	0.720300	0.389700	0.664800
C91	C9	0.358400	0.063500	0.566100
C101	C10	0.388400	0.952500	0.503800
C111	C11	0.471600	0.109800	0.563900
C121	C12	0.207400	0.128600	0.644300
C131	C13	0.351300	0.012800	0.018200
C141	C14	0.408900	0.083200	0.912000
C151	C15	0.441900	0.930100	0.106000
C161	C16	0.191400	0.025600	0.035200
C171	C17	0.394200	0.551400	0.420900
C181	C18	0.537000	0.552800	0.376600
C191	C19	0.356900	0.497800	0.544100
C201	C20	0.279700	0.610300	0.335200
C211	C21	0.641600	0.936500	0.433900
C221	C22	0.611600	0.047500	0.496200
C231	C23	0.528400	0.890200	0.436100
C241	C24	0.792600	0.871400	0.355700
O11	O1	0.856300	0.044200	0.870700
O21	O2	0.880500	0.898000	0.048400
O31	O3	0.853100	0.379800	0.624200
O41	O4	0.681200	0.348400	0.779800
O51	O5	0.172900	0.244800	0.679300
O61	O6	0.119500	0.061200	0.675000
O71	O7	0.143700	0.955800	0.129300
O81	O8	0.119500	0.102000	0.951600
O91	O9	0.146900	0.620200	0.375800
O101	O10	0.318800	0.651600	0.220200
O111	O11	0.827100	0.755200	0.320700
O121	O12	0.880500	0.938800	0.325000
