data_LAGRIW_clean_PM
_symmetry_space_group_name_H-M	'P1'
_cell_length_a	8.567900
_cell_length_b	10.186800
_cell_length_c	10.872400
_cell_angle_alpha	66.791000
_cell_angle_beta	69.316000
_cell_angle_gamma	78.246000
_symmetry_Int_Tables_number 1

loop_
_symmetry_equiv_pos_as_xyz
'x,y,z'

loop_
_atom_site_label
_atom_site_type_symbol
_atom_site_fract_x
_atom_site_fract_y
_atom_site_fract_z
Yb11	Yb1	0.345630	0.566980	0.843610
Yb21	Yb2	0.654370	0.433020	0.156390
H11	H1	0.794800	0.373100	0.514600
H21	H2	0.933300	0.659400	0.616900
H31	H3	0.285900	0.176500	0.016500
H41	H4	0.759200	0.031100	0.998600
H51	H5	0.853500	0.877200	0.728600
H61	H6	0.286400	0.953800	0.418300
H71	H7	0.205200	0.626900	0.485400
H81	H8	0.066700	0.340600	0.383100
H91	H9	0.714100	0.823500	0.983500
H101	H10	0.240800	0.968900	0.001400
H111	H11	0.146500	0.122800	0.271400
H121	H12	0.713600	0.046200	0.581700
C11	C1	0.660800	0.539600	0.667300
C21	C2	0.836100	0.518200	0.581800
C31	C3	0.877200	0.423800	0.509300
C41	C4	0.960200	0.594700	0.570200
C51	C5	0.555800	0.260000	0.018100
C61	C6	0.527300	0.126500	0.007400
C71	C7	0.372900	0.105800	0.009500
C81	C8	0.654400	0.019100	0.998800
C91	C9	0.171800	0.779300	0.685700
C101	C10	0.083200	0.896000	0.589000
C111	C11	0.912800	0.926400	0.636200
C121	C12	0.171200	0.971800	0.451200
C131	C13	0.339200	0.460400	0.332700
C141	C14	0.163900	0.481800	0.418200
C151	C15	0.122800	0.576200	0.490700
C161	C16	0.039800	0.405300	0.429800
C171	C17	0.444200	0.740000	0.981900
C181	C18	0.472700	0.873500	0.992600
C191	C19	0.627100	0.894200	0.990500
C201	C20	0.345600	0.980900	0.001200
C211	C21	0.828200	0.220700	0.314300
C221	C22	0.916800	0.104000	0.411000
C231	C23	0.087200	0.073600	0.363800
C241	C24	0.828800	0.028200	0.548800
O11	O1	0.629800	0.617900	0.741700
O21	O2	0.545600	0.481500	0.667200
O31	O3	0.470300	0.372900	0.971900
O41	O4	0.658500	0.252500	0.078500
O51	O5	0.326500	0.751400	0.635700
O61	O6	0.092700	0.713800	0.809200
O71	O7	0.370200	0.382100	0.258300
O81	O8	0.454400	0.518500	0.332800
O91	O9	0.529700	0.627100	0.028100
O101	O10	0.341500	0.747500	0.921500
O111	O11	0.673500	0.248600	0.364300
O121	O12	0.907300	0.286200	0.190800
