data_LAGVOG_clean_PM
_symmetry_space_group_name_H-M	'P1'
_cell_length_a	9.652000
_cell_length_b	14.067000
_cell_length_c	16.212000
_cell_angle_alpha	90.000000
_cell_angle_beta	90.000000
_cell_angle_gamma	106.580000
_symmetry_Int_Tables_number 1

loop_
_symmetry_equiv_pos_as_xyz
'x,y,z'

loop_
_atom_site_label
_atom_site_type_symbol
_atom_site_fract_x
_atom_site_fract_y
_atom_site_fract_z
Y11	Y1	0.826910	0.552580	0.017480
Y21	Y2	0.673090	0.947420	0.517480
Y31	Y3	0.173090	0.447420	0.982520
Y41	Y4	0.326910	0.052580	0.482520
H11	H1	0.297200	0.633900	0.806000
H21	H2	0.413900	0.729000	0.700900
H31	H3	0.107500	0.869000	0.690400
H41	H4	0.994700	0.778800	0.799900
H51	H5	0.202800	0.866100	0.306000
H61	H6	0.086100	0.771000	0.200900
H71	H7	0.392500	0.631000	0.190400
H81	H8	0.505300	0.721200	0.299900
H91	H9	0.702800	0.366100	0.194000
H101	H10	0.586100	0.271000	0.299100
H111	H11	0.892500	0.131000	0.309600
H121	H12	0.005300	0.221200	0.200100
H131	H13	0.797200	0.133900	0.694000
H141	H14	0.913900	0.229000	0.799100
H151	H15	0.607500	0.369000	0.809600
H161	H16	0.494700	0.278800	0.700100
C11	C1	0.135500	0.696500	0.815200
C21	C2	0.260000	0.682600	0.783800
C31	C3	0.329000	0.738800	0.721200
C41	C4	0.276000	0.811500	0.685900
C51	C5	0.147000	0.823200	0.715200
C61	C6	0.079000	0.768700	0.779300
C71	C7	0.055000	0.633100	0.889600
C81	C8	0.350000	0.876100	0.613600
C91	C9	0.508800	0.534600	0.963300
C101	C10	0.364500	0.803500	0.315200
C111	C11	0.240000	0.817400	0.283800
C121	C12	0.171000	0.761200	0.221200
C131	C13	0.224000	0.688500	0.185900
C141	C14	0.353000	0.676800	0.215200
C151	C15	0.421000	0.731300	0.279300
C161	C16	0.445000	0.866900	0.389600
C171	C17	0.150000	0.623900	0.113600
C181	C18	0.991200	0.965400	0.463300
C191	C19	0.864500	0.303500	0.184800
C201	C20	0.740000	0.317400	0.216200
C211	C21	0.671000	0.261200	0.278800
C221	C22	0.724000	0.188500	0.314100
C231	C23	0.853000	0.176800	0.284800
C241	C24	0.921000	0.231300	0.220700
C251	C25	0.945000	0.366900	0.110400
C261	C26	0.650000	0.123900	0.386400
C271	C27	0.491200	0.465400	0.036700
C281	C28	0.635500	0.196500	0.684800
C291	C29	0.760000	0.182600	0.716200
C301	C30	0.829000	0.238800	0.778800
C311	C31	0.776000	0.311500	0.814100
C321	C32	0.647000	0.323200	0.784800
C331	C33	0.579000	0.268700	0.720700
C341	C34	0.555000	0.133100	0.610400
C351	C35	0.850000	0.376100	0.886400
C361	C36	0.008800	0.034600	0.536700
O11	O1	0.946500	0.657700	0.914400
O21	O2	0.104300	0.568600	0.914500
O31	O3	0.293400	0.934400	0.583600
O41	O4	0.473200	0.861900	0.592300
O51	O5	0.393900	0.544700	0.930500
O61	O6	0.634400	0.578100	0.940200
O71	O7	0.553500	0.842300	0.414400
O81	O8	0.395700	0.931400	0.414500
O91	O9	0.206600	0.565600	0.083600
O101	O10	0.026800	0.638100	0.092300
O111	O11	0.106100	0.955300	0.430500
O121	O12	0.865600	0.921900	0.440200
O131	O13	0.053500	0.342300	0.085600
O141	O14	0.895700	0.431400	0.085500
O151	O15	0.706600	0.065600	0.416400
O161	O16	0.526800	0.138100	0.407700
O171	O17	0.606100	0.455300	0.069500
O181	O18	0.365600	0.421900	0.059800
O191	O19	0.446500	0.157700	0.585600
O201	O20	0.604300	0.068600	0.585500
O211	O21	0.793400	0.434400	0.916400
O221	O22	0.973200	0.361900	0.907700
O231	O23	0.893900	0.044700	0.569500
O241	O24	0.134400	0.078100	0.559800
