data_LAHTUM_clean_PM
_symmetry_space_group_name_H-M	'P1'
_cell_length_a	10.819000
_cell_length_b	24.514000
_cell_length_c	16.607000
_cell_angle_alpha	90.000000
_cell_angle_beta	91.681000
_cell_angle_gamma	90.000000
_symmetry_Int_Tables_number 1

loop_
_symmetry_equiv_pos_as_xyz
'x,y,z'

loop_
_atom_site_label
_atom_site_type_symbol
_atom_site_fract_x
_atom_site_fract_y
_atom_site_fract_z
Cd11	Cd1	0.999950	0.197980	0.964130
Cd21	Cd2	0.715150	0.867840	0.007400
C11	C1	0.988000	0.289400	0.057900
C21	C2	0.989000	0.338550	0.110800
C31	C3	0.092000	0.351100	0.160600
H11	H1	0.162500	0.329500	0.158300
C41	C4	0.090600	0.395200	0.213300
H21	H2	0.158800	0.402500	0.246900
C51	C5	0.986100	0.428280	0.215300
C61	C6	0.885000	0.416500	0.163500
H31	H3	0.816000	0.439100	0.163200
C71	C7	0.886300	0.371960	0.113200
H41	H4	0.817300	0.364300	0.080400
C81	C8	0.982500	0.476480	0.268900
C91	C9	0.028400	0.476590	0.348200
C101	C10	0.074900	0.425370	0.391200
C111	C11	0.028800	0.524950	0.391700
H51	H5	0.062000	0.525100	0.444000
C121	C12	0.980800	0.573460	0.359400
C131	C13	0.932600	0.573840	0.280800
C141	C14	0.936300	0.525650	0.236700
H61	H6	0.906800	0.526000	0.183500
C151	C15	0.882500	0.623040	0.239500
C161	C16	0.938800	0.674030	0.246500
H71	H7	0.008600	0.678400	0.280000
C171	C17	0.891200	0.718460	0.203800
H81	H8	0.930200	0.752200	0.208400
C181	C18	0.785800	0.713050	0.154100
C191	C19	0.729700	0.663300	0.147900
H91	H9	0.658300	0.659500	0.115800
C201	C20	0.777200	0.618530	0.188400
H101	H10	0.738900	0.584800	0.181900
C211	C21	0.983200	0.621710	0.415000
C221	C22	0.749500	0.251200	0.890300
H111	H11	0.744100	0.262100	0.943700
C231	C23	0.661400	0.270300	0.835500
H121	H12	0.596400	0.291900	0.852500
C241	C24	0.670900	0.257080	0.755300
C251	C25	0.767400	0.222200	0.734900
H131	H13	0.777300	0.212200	0.681400
C261	C26	0.848100	0.202460	0.794100
H141	H14	0.908500	0.177500	0.779900
C271	C27	0.583300	0.277720	0.692300
C281	C28	0.458300	0.284000	0.708100
H151	H15	0.428700	0.273800	0.757900
C291	C29	0.379300	0.305200	0.650600
H161	H16	0.296600	0.309600	0.662900
C301	C30	0.535400	0.313400	0.561300
H171	H17	0.562500	0.323300	0.510600
C311	C31	0.619600	0.292800	0.616800
H181	H18	0.702000	0.289100	0.603200
C321	C32	0.730800	0.761780	0.111100
N11	N1	0.415300	0.319880	0.577400
N21	N2	0.842000	0.218030	0.871100
O11	O1	0.888600	0.264200	0.047200
O21	O2	0.085200	0.274350	0.027100
O31	O3	0.009800	0.383640	0.387560
O41	O4	0.176500	0.432020	0.430370
O51	O5	0.083700	0.634590	0.448080
O61	O6	0.883400	0.646910	0.428180
O71	O7	0.615700	0.762670	0.102500
O81	O8	0.802000	0.799600	0.088880
Cd31	Cd3	0.000050	0.697980	0.535870
Cd41	Cd4	0.284850	0.367840	0.492600
C331	C33	0.012000	0.789400	0.442100
C341	C34	0.011000	0.838550	0.389200
C351	C35	0.908000	0.851100	0.339400
H191	H19	0.837500	0.829500	0.341700
C361	C36	0.909400	0.895200	0.286700
H201	H20	0.841200	0.902500	0.253100
C371	C37	0.013900	0.928280	0.284700
C381	C38	0.115000	0.916500	0.336500
H211	H21	0.184000	0.939100	0.336800
C391	C39	0.113700	0.871960	0.386800
H221	H22	0.182700	0.864300	0.419600
C401	C40	0.017500	0.976480	0.231100
C411	C41	0.971600	0.976590	0.151800
C421	C42	0.925100	0.925370	0.108800
C431	C43	0.971200	0.024950	0.108300
H231	H23	0.938000	0.025100	0.056000
C441	C44	0.019200	0.073460	0.140600
C451	C45	0.067400	0.073840	0.219200
C461	C46	0.063700	0.025650	0.263300
H241	H24	0.093200	0.026000	0.316500
C471	C47	0.117500	0.123040	0.260500
C481	C48	0.061200	0.174030	0.253500
H251	H25	0.991400	0.178400	0.220000
C491	C49	0.108800	0.218460	0.296200
H261	H26	0.069800	0.252200	0.291600
C501	C50	0.214200	0.213050	0.345900
C511	C51	0.270300	0.163300	0.352100
H271	H27	0.341700	0.159500	0.384200
C521	C52	0.222800	0.118530	0.311600
H281	H28	0.261100	0.084800	0.318100
C531	C53	0.016800	0.121710	0.085000
C541	C54	0.250500	0.751200	0.609700
H291	H29	0.255900	0.762100	0.556300
C551	C55	0.338600	0.770300	0.664500
H301	H30	0.403600	0.791900	0.647500
C561	C56	0.329100	0.757080	0.744700
C571	C57	0.232600	0.722200	0.765100
H311	H31	0.222700	0.712200	0.818600
C581	C58	0.151900	0.702460	0.705900
H321	H32	0.091500	0.677500	0.720100
C591	C59	0.416700	0.777720	0.807700
C601	C60	0.541700	0.784000	0.791900
H331	H33	0.571300	0.773800	0.742100
C611	C61	0.620700	0.805200	0.849400
H341	H34	0.703400	0.809600	0.837100
C621	C62	0.464600	0.813400	0.938700
H351	H35	0.437500	0.823300	0.989400
C631	C63	0.380400	0.792800	0.883200
H361	H36	0.298000	0.789100	0.896800
C641	C64	0.269200	0.261780	0.388900
N31	N3	0.584700	0.819880	0.922600
N41	N4	0.158000	0.718030	0.628900
O91	O9	0.111400	0.764200	0.452800
O101	O10	0.914800	0.774350	0.472900
O111	O11	0.990200	0.883640	0.112440
O121	O12	0.823500	0.932020	0.069630
O131	O13	0.916300	0.134590	0.051920
O141	O14	0.116600	0.146910	0.071820
O151	O15	0.384300	0.262670	0.397500
O161	O16	0.198000	0.299600	0.411120
Cd51	Cd5	0.000050	0.802020	0.035870
Cd61	Cd6	0.284850	0.132160	0.992600
C651	C65	0.012000	0.710600	0.942100
C661	C66	0.011000	0.661450	0.889200
C671	C67	0.908000	0.648900	0.839400
H371	H37	0.837500	0.670500	0.841700
C681	C68	0.909400	0.604800	0.786700
H381	H38	0.841200	0.597500	0.753100
C691	C69	0.013900	0.571720	0.784700
C701	C70	0.115000	0.583500	0.836500
H391	H39	0.184000	0.560900	0.836800
C711	C71	0.113700	0.628040	0.886800
H401	H40	0.182700	0.635700	0.919600
C721	C72	0.017500	0.523520	0.731100
C731	C73	0.971600	0.523410	0.651800
C741	C74	0.925100	0.574630	0.608800
C751	C75	0.971200	0.475050	0.608300
H411	H41	0.938000	0.474900	0.556000
C761	C76	0.019200	0.426540	0.640600
C771	C77	0.067400	0.426160	0.719200
C781	C78	0.063700	0.474350	0.763300
H421	H42	0.093200	0.474000	0.816500
C791	C79	0.117500	0.376960	0.760500
C801	C80	0.061200	0.325970	0.753500
H431	H43	0.991400	0.321600	0.720000
C811	C81	0.108800	0.281540	0.796200
H441	H44	0.069800	0.247800	0.791600
C821	C82	0.214200	0.286950	0.845900
C831	C83	0.270300	0.336700	0.852100
H451	H45	0.341700	0.340500	0.884200
C841	C84	0.222800	0.381470	0.811600
H461	H46	0.261100	0.415200	0.818100
C851	C85	0.016800	0.378290	0.585000
C861	C86	0.250500	0.748800	0.109700
H471	H47	0.255900	0.737900	0.056300
C871	C87	0.338600	0.729700	0.164500
H481	H48	0.403600	0.708100	0.147500
C881	C88	0.329100	0.742920	0.244700
C891	C89	0.232600	0.777800	0.265100
H491	H49	0.222700	0.787800	0.318600
C901	C90	0.151900	0.797540	0.205900
H501	H50	0.091500	0.822500	0.220100
C911	C91	0.416700	0.722280	0.307700
C921	C92	0.541700	0.716000	0.291900
H511	H51	0.571300	0.726200	0.242100
C931	C93	0.620700	0.694800	0.349400
H521	H52	0.703400	0.690400	0.337100
C941	C94	0.464600	0.686600	0.438700
H531	H53	0.437500	0.676700	0.489400
C951	C95	0.380400	0.707200	0.383200
H541	H54	0.298000	0.710900	0.396800
C961	C96	0.269200	0.238220	0.888900
N51	N5	0.584700	0.680120	0.422600
N61	N6	0.158000	0.781970	0.128900
O171	O17	0.111400	0.735800	0.952800
O181	O18	0.914800	0.725650	0.972900
O191	O19	0.990200	0.616360	0.612440
O201	O20	0.823500	0.567980	0.569630
O211	O21	0.916300	0.365410	0.551920
O221	O22	0.116600	0.353090	0.571820
O231	O23	0.384300	0.237330	0.897500
O241	O24	0.198000	0.200400	0.911120
Cd71	Cd7	0.999950	0.302020	0.464130
Cd81	Cd8	0.715150	0.632160	0.507400
C971	C97	0.988000	0.210600	0.557900
C981	C98	0.989000	0.161450	0.610800
C991	C99	0.092000	0.148900	0.660600
H551	H55	0.162500	0.170500	0.658300
C1001	C100	0.090600	0.104800	0.713300
H561	H56	0.158800	0.097500	0.746900
C1011	C101	0.986100	0.071720	0.715300
C1021	C102	0.885000	0.083500	0.663500
H571	H57	0.816000	0.060900	0.663200
C1031	C103	0.886300	0.128040	0.613200
H581	H58	0.817300	0.135700	0.580400
C1041	C104	0.982500	0.023520	0.768900
C1051	C105	0.028400	0.023410	0.848200
C1061	C106	0.074900	0.074630	0.891200
C1071	C107	0.028800	0.975050	0.891700
H591	H59	0.062000	0.974900	0.944000
C1081	C108	0.980800	0.926540	0.859400
C1091	C109	0.932600	0.926160	0.780800
C1101	C110	0.936300	0.974350	0.736700
H601	H60	0.906800	0.974000	0.683500
C1111	C111	0.882500	0.876960	0.739500
C1121	C112	0.938800	0.825970	0.746500
H611	H61	0.008600	0.821600	0.780000
C1131	C113	0.891200	0.781540	0.703800
H621	H62	0.930200	0.747800	0.708400
C1141	C114	0.785800	0.786950	0.654100
C1151	C115	0.729700	0.836700	0.647900
H631	H63	0.658300	0.840500	0.615800
C1161	C116	0.777200	0.881470	0.688400
H641	H64	0.738900	0.915200	0.681900
C1171	C117	0.983200	0.878290	0.915000
C1181	C118	0.749500	0.248800	0.390300
H651	H65	0.744100	0.237900	0.443700
C1191	C119	0.661400	0.229700	0.335500
H661	H66	0.596400	0.208100	0.352500
C1201	C120	0.670900	0.242920	0.255300
C1211	C121	0.767400	0.277800	0.234900
H671	H67	0.777300	0.287800	0.181400
C1221	C122	0.848100	0.297540	0.294100
H681	H68	0.908500	0.322500	0.279900
C1231	C123	0.583300	0.222280	0.192300
C1241	C124	0.458300	0.216000	0.208100
H691	H69	0.428700	0.226200	0.257900
C1251	C125	0.379300	0.194800	0.150600
H701	H70	0.296600	0.190400	0.162900
C1261	C126	0.535400	0.186600	0.061300
H711	H71	0.562500	0.176700	0.010600
C1271	C127	0.619600	0.207200	0.116800
H721	H72	0.702000	0.210900	0.103200
C1281	C128	0.730800	0.738220	0.611100
N71	N7	0.415300	0.180120	0.077400
N81	N8	0.842000	0.281970	0.371100
O251	O25	0.888600	0.235800	0.547200
O261	O26	0.085200	0.225650	0.527100
O271	O27	0.009800	0.116360	0.887560
O281	O28	0.176500	0.067980	0.930370
O291	O29	0.083700	0.865410	0.948080
O301	O30	0.883400	0.853090	0.928180
O311	O31	0.615700	0.737330	0.602500
O321	O32	0.802000	0.700400	0.588880
