data_LAHYOL_clean_PM
_symmetry_space_group_name_H-M	'P1'
_cell_length_a	10.817700
_cell_length_b	19.848300
_cell_length_c	25.868700
_cell_angle_alpha	101.117000
_cell_angle_beta	101.108000
_cell_angle_gamma	94.827000
_symmetry_Int_Tables_number 1

loop_
_symmetry_equiv_pos_as_xyz
'x,y,z'

loop_
_atom_site_label
_atom_site_type_symbol
_atom_site_fract_x
_atom_site_fract_y
_atom_site_fract_z
Ba11	Ba1	0.826530	0.188940	0.289470
Ba21	Ba2	0.535670	0.298640	0.192530
Ba31	Ba3	0.464620	0.207230	0.342930
Ba41	Ba4	0.930150	0.363990	0.228170
O11	O1	0.923300	0.215800	0.397400
O21	O2	0.893600	0.215300	0.193700
O31	O3	0.597900	0.820500	0.780600
O41	O4	0.712000	0.710800	0.839100
O51	O5	0.791500	0.062600	0.317400
O61	O6	0.682300	0.200200	0.181500
O71	O7	0.808200	0.045500	0.229900
O81	O8	0.950800	0.854100	0.708800
C11	C1	0.514000	0.865100	0.778500
O91	O9	0.716500	0.225200	0.380900
C21	C2	0.785000	0.189100	0.166300
O101	O10	0.570600	0.308500	0.300900
O111	O11	0.771300	0.329200	0.290500
O121	O12	0.898100	0.683000	0.824800
O131	O13	0.588600	0.440300	0.222700
O141	O14	0.751600	0.880500	0.698500
O151	O15	0.936000	0.705900	0.705800
C31	C3	0.856000	0.882000	0.686700
O161	O16	0.553600	0.305600	0.088200
C41	C4	0.889000	0.188900	0.676700
H11	H1	0.907700	0.210000	0.713200
C51	C5	0.880000	0.137600	0.476700
H21	H2	0.955200	0.136800	0.464700
O171	O17	0.429100	0.860300	0.737600
O181	O18	0.738800	0.338300	0.146200
O191	O19	0.730800	0.719800	0.691200
O201	O20	0.800900	0.472700	0.248800
C61	C6	0.817000	0.208600	0.408800
C71	C7	0.827000	0.693400	0.676900
C81	C8	0.659000	0.455000	0.997200
C91	C9	0.881000	0.678800	0.496100
H31	H3	0.894400	0.710500	0.528800
C101	C10	0.025000	0.772200	0.165200
H41	H4	0.084500	0.792400	0.149600
C111	C11	0.675000	0.459500	0.855100
H51	H5	0.679200	0.490900	0.832900
C121	C12	0.616000	0.930900	0.869800
H61	H6	0.684000	0.905700	0.866200
C131	C13	0.628000	0.982300	0.920900
C141	C14	0.802000	0.673400	0.843900
C151	C15	0.666000	0.527900	0.019300
C161	C16	0.834000	0.009800	0.589900
C171	C17	0.777000	0.141000	0.112500
H71	H7	0.849900	0.123900	0.104700
C181	C18	0.663000	0.340100	0.103200
C191	C19	0.688000	0.577900	0.988400
C201	C20	0.844000	0.023700	0.497400
C211	C21	0.708000	0.976900	0.069300
H81	H8	0.721500	0.006000	0.103100
C221	C22	0.896000	0.226800	0.643800
H91	H9	0.905900	0.274600	0.656000
C231	C23	0.704000	0.610100	0.903700
H101	H10	0.647500	0.642600	0.905600
C241	C24	0.863000	0.095000	0.514900
C251	C25	0.787000	0.879500	0.460500
H111	H11	0.766800	0.832000	0.447800
C261	C26	0.618000	0.096800	0.976500
C271	C27	0.798000	0.025100	0.272600
C281	C28	0.672000	0.793300	0.254700
C291	C29	0.682000	0.339000	0.316900
C301	C30	0.693000	0.484300	0.234700
C311	C31	0.943000	0.809200	0.184900
H121	H12	0.944600	0.855100	0.181600
C321	C32	0.521000	0.918800	0.830700
H131	H13	0.452300	0.943400	0.833800
C331	C33	0.608000	0.050700	0.923900
C341	C34	0.678000	0.484100	0.910900
C351	C35	0.798000	0.177900	0.456800
H141	H14	0.729100	0.187400	0.472500
C361	C36	0.852000	0.654400	0.399200
H151	H15	0.846400	0.671300	0.367800
C371	C37	0.850000	0.711100	0.214600
C381	C38	0.799000	0.949600	0.272600
H161	H16	0.822900	0.937300	0.305700
C391	C39	0.853000	0.482900	0.588100
H171	H17	0.865500	0.513400	0.621300
C401	C40	0.704000	0.864400	0.014800
H181	H18	0.714400	0.818000	0.013000
C411	C41	0.718000	0.908600	0.064700
H191	H19	0.733900	0.890800	0.095700
C421	C42	0.767000	0.898500	0.228400
H201	H20	0.745400	0.909700	0.194800
C431	C43	0.632000	0.403100	0.027300
H211	H21	0.557700	0.372700	0.013100
C441	C44	0.676000	0.887600	0.969400
H221	H22	0.667400	0.856600	0.936600
C451	C45	0.763000	0.682000	0.240500
C461	C46	0.487000	0.800100	0.295800
H231	H23	0.423000	0.824800	0.306200
C471	C47	0.792000	0.616800	0.872500
H241	H24	0.847800	0.583800	0.869300
C481	C48	0.651000	0.552500	0.075000
H251	H25	0.635600	0.520400	0.095600
C491	C49	0.865000	0.605800	0.495400
C501	C50	0.824000	0.980700	0.534500
C511	C51	0.577000	0.080200	0.876500
H261	H26	0.573000	0.052300	0.842800
C521	C52	0.799000	0.647700	0.621900
H271	H27	0.715000	0.630900	0.605700
C531	C53	0.669000	0.435700	0.943300
C541	C54	0.705000	0.650900	0.014600
H281	H28	0.725400	0.684300	0.995800
C551	C55	0.853000	0.083600	0.608800
C561	C56	0.660000	0.957000	0.969400
C571	C57	0.877000	0.702100	0.449800
H291	H29	0.890500	0.749400	0.451200
C581	C58	0.765000	0.608300	0.245600
H301	H30	0.842600	0.597100	0.262400
C591	C59	0.656000	0.072500	0.023000
C601	C60	0.851000	0.782900	0.210900
C611	C61	0.832000	0.990600	0.440800
H311	H31	0.841600	0.017600	0.415800
C621	C62	0.021000	0.700000	0.168000
H321	H32	0.073900	0.672300	0.151500
C631	C63	0.819000	0.389500	0.488800
H331	H33	0.812700	0.357700	0.456600
C641	C64	0.864000	0.125600	0.568300
C651	C65	0.765000	0.823500	0.231600
C661	C66	0.666000	0.388700	0.833400
H341	H34	0.662200	0.373200	0.796700
C671	C67	0.883000	0.922500	0.644600
H351	H35	0.950800	0.913100	0.628300
C681	C68	0.865000	0.581400	0.542800
C691	C69	0.807000	0.922100	0.424900
H361	H36	0.803500	0.901900	0.389000
C701	C70	0.941000	0.673700	0.195000
H371	H37	0.946100	0.629100	0.200700
C711	C71	0.849000	0.507800	0.540400
C721	C72	0.677000	0.004000	0.021500
C731	C73	0.671000	0.721800	0.259700
C741	C74	0.856000	0.116300	0.662800
H381	H38	0.837600	0.091400	0.687800
C751	C75	0.661000	0.620100	0.096400
H391	H39	0.647800	0.634400	0.131100
C761	C76	0.669000	0.122000	0.075700
H401	H40	0.596400	0.140600	0.083300
C771	C77	0.816000	0.968300	0.631100
H411	H41	0.750100	0.977000	0.648600
C781	C78	0.841000	0.557400	0.443200
C791	C79	0.671000	0.557600	0.229200
H421	H42	0.590600	0.566600	0.214100
C801	C80	0.691000	0.670800	0.066500
H431	H43	0.700900	0.717700	0.082600
C811	C81	0.588000	0.166800	0.977100
H441	H44	0.590200	0.196400	0.010000
C821	C82	0.694000	0.556200	0.933800
C831	C83	0.825000	0.487300	0.441100
C841	C84	0.576000	0.830300	0.272400
H451	H45	0.572900	0.875700	0.268200
C851	C85	0.829000	0.461400	0.488300
C861	C86	0.554000	0.145800	0.879500
H461	H46	0.536200	0.162800	0.848100
C871	C87	0.835000	0.584300	0.395500
H471	H47	0.820900	0.554200	0.362000
C881	C88	0.840000	0.414100	0.584600
H481	H48	0.843400	0.397400	0.616000
C891	C89	0.796000	0.907800	0.514300
H491	H49	0.784400	0.879000	0.537800
C901	C90	0.557000	0.190100	0.930400
H501	H50	0.537000	0.235100	0.931800
C911	C91	0.890000	0.629500	0.594400
H511	H51	0.973800	0.649100	0.609700
C921	C92	0.492000	0.732400	0.303800
H521	H52	0.432700	0.712100	0.319600
C931	C93	0.709000	0.387900	0.369300
H531	H53	0.652400	0.383600	0.391500
C941	C94	0.587000	0.696200	0.288000
H541	H54	0.594500	0.653200	0.296600
C951	C95	0.807000	0.437800	0.388700
H551	H55	0.867600	0.441800	0.368000
C961	C96	0.820000	0.366100	0.534400
H561	H56	0.807200	0.318800	0.533000
C971	C97	0.703000	0.394400	0.073300
H571	H57	0.779200	0.422700	0.087800
C981	C98	0.890000	0.200400	0.590300
H581	H58	0.901700	0.230200	0.567600
C991	C99	0.667000	0.362500	0.919500
H591	H59	0.668600	0.330200	0.941200
C1001	C100	0.664000	0.341200	0.866600
H601	H60	0.660000	0.294300	0.852000
Ba51	Ba5	0.148410	0.192820	0.210560
Ba61	Ba6	0.173470	0.811060	0.710530
Ba71	Ba7	0.464330	0.701360	0.807470
Ba81	Ba8	0.535380	0.792770	0.657070
Ba91	Ba9	0.069850	0.636010	0.771830
O211	O21	0.076700	0.784200	0.602600
O221	O22	0.106400	0.784700	0.806300
O231	O23	0.402100	0.179500	0.219400
O241	O24	0.288000	0.289200	0.160900
O251	O25	0.208500	0.937400	0.682600
O261	O26	0.317700	0.799800	0.818500
O271	O27	0.191800	0.954500	0.770100
O281	O28	0.049200	0.145900	0.291200
C1011	C101	0.486000	0.134900	0.221500
O291	O29	0.283500	0.774800	0.619100
C1021	C102	0.215000	0.810900	0.833700
O301	O30	0.429400	0.691500	0.699100
O311	O31	0.228700	0.670800	0.709500
O321	O32	0.101900	0.317000	0.175200
O331	O33	0.411400	0.559700	0.777300
O341	O34	0.248400	0.119500	0.301500
O351	O35	0.064000	0.294100	0.294200
C1031	C103	0.144000	0.118000	0.313300
O361	O36	0.446400	0.694400	0.911800
C1041	C104	0.111000	0.811100	0.323300
H611	H61	0.092300	0.790000	0.286800
C1051	C105	0.120000	0.862400	0.523300
H621	H62	0.044800	0.863200	0.535300
O371	O37	0.570900	0.139700	0.262400
O381	O38	0.261200	0.661700	0.853800
O391	O39	0.269200	0.280200	0.308800
O401	O40	0.199100	0.527300	0.751200
C1061	C106	0.183000	0.791400	0.591200
C1071	C107	0.173000	0.306600	0.323100
C1081	C108	0.341000	0.545000	0.002800
C1091	C109	0.119000	0.321200	0.503900
H631	H63	0.105600	0.289500	0.471200
C1101	C110	0.975000	0.227800	0.834800
H641	H64	0.915500	0.207600	0.850400
C1111	C111	0.325000	0.540500	0.144900
H651	H65	0.320800	0.509100	0.167100
C1121	C112	0.384000	0.069100	0.130200
H661	H66	0.316000	0.094300	0.133800
C1131	C113	0.372000	0.017700	0.079100
C1141	C114	0.198000	0.326600	0.156100
C1151	C115	0.334000	0.472100	0.980700
C1161	C116	0.166000	0.990200	0.410100
C1171	C117	0.223000	0.859000	0.887500
H671	H67	0.150100	0.876100	0.895300
C1181	C118	0.337000	0.659900	0.896800
C1191	C119	0.312000	0.422100	0.011600
C1201	C120	0.156000	0.976300	0.502600
C1211	C121	0.292000	0.023100	0.930700
H681	H68	0.278500	0.994000	0.896900
C1221	C122	0.104000	0.773200	0.356200
H691	H69	0.094100	0.725400	0.344000
C1231	C123	0.296000	0.389900	0.096300
H701	H70	0.352500	0.357400	0.094400
C1241	C124	0.137000	0.905000	0.485100
C1251	C125	0.213000	0.120500	0.539500
H711	H71	0.233200	0.168000	0.552200
C1261	C126	0.382000	0.903200	0.023500
C1271	C127	0.202000	0.974900	0.727400
C1281	C128	0.328000	0.206700	0.745300
C1291	C129	0.318000	0.661000	0.683100
C1301	C130	0.307000	0.515700	0.765300
C1311	C131	0.057000	0.190800	0.815100
H721	H72	0.055400	0.144900	0.818400
C1321	C132	0.479000	0.081200	0.169300
H731	H73	0.547700	0.056600	0.166200
C1331	C133	0.392000	0.949300	0.076100
C1341	C134	0.322000	0.515900	0.089100
C1351	C135	0.202000	0.822100	0.543200
H741	H74	0.270900	0.812600	0.527500
C1361	C136	0.148000	0.345600	0.600800
H751	H75	0.153600	0.328700	0.632200
C1371	C137	0.150000	0.288900	0.785400
C1381	C138	0.201000	0.050400	0.727400
H761	H76	0.177100	0.062700	0.694300
C1391	C139	0.147000	0.517100	0.411900
H771	H77	0.134500	0.486600	0.378700
C1401	C140	0.296000	0.135600	0.985200
H781	H78	0.285600	0.182000	0.987000
C1411	C141	0.282000	0.091400	0.935300
H791	H79	0.266100	0.109200	0.904300
C1421	C142	0.233000	0.101500	0.771600
H801	H80	0.254600	0.090300	0.805200
C1431	C143	0.368000	0.596900	0.972700
H811	H81	0.442300	0.627300	0.986900
C1441	C144	0.324000	0.112400	0.030600
H821	H82	0.332600	0.143400	0.063400
C1451	C145	0.237000	0.318000	0.759500
C1461	C146	0.513000	0.199900	0.704200
H831	H83	0.577000	0.175200	0.693800
C1471	C147	0.208000	0.383200	0.127500
H841	H84	0.152200	0.416200	0.130700
C1481	C148	0.349000	0.447500	0.925000
H851	H85	0.364400	0.479600	0.904400
C1491	C149	0.135000	0.394200	0.504600
C1501	C150	0.176000	0.019300	0.465500
C1511	C151	0.423000	0.919800	0.123500
H861	H86	0.427000	0.947700	0.157200
C1521	C152	0.201000	0.352300	0.378100
H871	H87	0.285000	0.369100	0.394300
C1531	C153	0.331000	0.564300	0.056700
C1541	C154	0.295000	0.349100	0.985400
H881	H88	0.274600	0.315700	0.004200
C1551	C155	0.147000	0.916400	0.391200
C1561	C156	0.340000	0.043000	0.030600
C1571	C157	0.123000	0.297900	0.550200
H891	H89	0.109500	0.250600	0.548800
C1581	C158	0.235000	0.391700	0.754400
H901	H90	0.157400	0.402900	0.737600
C1591	C159	0.344000	0.927500	0.977000
C1601	C160	0.149000	0.217100	0.789100
C1611	C161	0.168000	0.009400	0.559200
H911	H91	0.158400	0.982400	0.584200
C1621	C162	0.979000	0.300000	0.832000
H921	H92	0.926100	0.327700	0.848500
C1631	C163	0.181000	0.610500	0.511200
H931	H93	0.187300	0.642300	0.543400
C1641	C164	0.136000	0.874400	0.431700
C1651	C165	0.235000	0.176500	0.768400
C1661	C166	0.334000	0.611300	0.166600
H941	H94	0.337800	0.626800	0.203300
C1671	C167	0.117000	0.077500	0.355400
H951	H95	0.049200	0.086900	0.371700
C1681	C168	0.135000	0.418600	0.457200
C1691	C169	0.193000	0.077900	0.575100
H961	H96	0.196500	0.098100	0.611000
C1701	C170	0.059000	0.326300	0.805000
H971	H97	0.053900	0.370900	0.799300
C1711	C171	0.151000	0.492200	0.459600
C1721	C172	0.323000	0.996000	0.978500
C1731	C173	0.329000	0.278200	0.740300
C1741	C174	0.144000	0.883700	0.337200
H981	H98	0.162400	0.908600	0.312200
C1751	C175	0.339000	0.379900	0.903600
H991	H99	0.352200	0.365600	0.868900
C1761	C176	0.331000	0.878000	0.924300
H1001	H100	0.403600	0.859400	0.916700
C1771	C177	0.184000	0.031700	0.368900
H1011	H101	0.249900	0.023000	0.351400
C1781	C178	0.159000	0.442600	0.556800
C1791	C179	0.329000	0.442400	0.770800
H1021	H102	0.409400	0.433400	0.785900
C1801	C180	0.309000	0.329200	0.933500
H1031	H103	0.299100	0.282300	0.917400
C1811	C181	0.412000	0.833200	0.022900
H1041	H104	0.409800	0.803600	0.990000
C1821	C182	0.306000	0.443800	0.066200
C1831	C183	0.175000	0.512700	0.558900
C1841	C184	0.424000	0.169700	0.727600
H1051	H105	0.427100	0.124300	0.731800
C1851	C185	0.171000	0.538600	0.511700
C1861	C186	0.446000	0.854200	0.120500
H1061	H106	0.463800	0.837200	0.151900
C1871	C187	0.165000	0.415700	0.604500
H1071	H107	0.179100	0.445800	0.638000
C1881	C188	0.160000	0.585900	0.415400
H1081	H108	0.156600	0.602600	0.384000
C1891	C189	0.204000	0.092200	0.485700
H1091	H109	0.215600	0.121000	0.462200
C1901	C190	0.443000	0.809900	0.069600
H1101	H110	0.463000	0.764900	0.068200
C1911	C191	0.110000	0.370500	0.405600
H1111	H111	0.026200	0.350900	0.390300
C1921	C192	0.508000	0.267600	0.696200
H1121	H112	0.567300	0.287900	0.680400
C1931	C193	0.291000	0.612100	0.630700
H1131	H113	0.347600	0.616400	0.608500
C1941	C194	0.413000	0.303800	0.712000
H1141	H114	0.405500	0.346800	0.703400
C1951	C195	0.193000	0.562200	0.611300
H1151	H115	0.132400	0.558200	0.632000
C1961	C196	0.180000	0.633900	0.465600
H1161	H116	0.192800	0.681200	0.467000
C1971	C197	0.297000	0.605600	0.926700
H1171	H117	0.220800	0.577300	0.912200
C1981	C198	0.110000	0.799600	0.409700
H1181	H118	0.098300	0.769800	0.432400
C1991	C199	0.333000	0.637500	0.080500
H1191	H119	0.331400	0.669800	0.058800
C2001	C200	0.336000	0.658800	0.133400
H1201	H120	0.340000	0.705700	0.148000
Ba101	Ba10	0.851590	0.807180	0.789440
