data_LAJDUV_charged_PM
_symmetry_space_group_name_H-M	'P1'
_cell_length_a	8.935000
_cell_length_b	8.935000
_cell_length_c	10.878000
_cell_angle_alpha	90.000000
_cell_angle_beta	90.000000
_cell_angle_gamma	120.000000
_symmetry_Int_Tables_number 1

loop_
_symmetry_equiv_pos_as_xyz
'x,y,z'

loop_
_atom_site_label
_atom_site_type_symbol
_atom_site_fract_x
_atom_site_fract_y
_atom_site_fract_z
Ti11	Ti1	0.500000	0.000000	0.666670
Ti21	Ti2	0.500000	0.500000	0.000000
Ti31	Ti3	0.000000	0.500000	0.333330
C11	C1	0.308000	0.692000	0.500000
C21	C2	0.210450	0.789550	0.500000
C31	C3	0.384000	0.692000	0.833330
C41	C4	0.579100	0.789550	0.833330
C51	C5	0.308000	0.616000	0.166670
C61	C6	0.210450	0.420900	0.166670
C71	C7	0.692000	0.308000	0.500000
C81	C8	0.789550	0.210450	0.500000
C91	C9	0.616000	0.308000	0.833330
C101	C10	0.420900	0.210450	0.833330
C111	C11	0.692000	0.384000	0.166670
C121	C12	0.789550	0.579100	0.166670
O11	O1	0.448900	0.762900	0.557000
O21	O2	0.076800	0.727300	0.437200
O31	O3	0.314000	0.551100	0.890330
O41	O4	0.650500	0.923200	0.770530
O51	O5	0.237100	0.686000	0.223670
O61	O6	0.272700	0.349500	0.103870
O71	O7	0.551100	0.237100	0.557000
O81	O8	0.923200	0.272700	0.437200
O91	O9	0.686000	0.448900	0.890330
O101	O10	0.349500	0.076800	0.770530
O111	O11	0.762900	0.314000	0.223670
O121	O12	0.727300	0.650500	0.103870
O131	O13	0.686000	0.237100	0.776330
O141	O14	0.349500	0.272700	0.896130
O151	O15	0.762900	0.448900	0.443000
O161	O16	0.727300	0.076800	0.562800
O171	O17	0.551100	0.314000	0.109670
O181	O18	0.923200	0.650500	0.229470
O191	O19	0.314000	0.762900	0.776330
O201	O20	0.650500	0.727300	0.896130
O211	O21	0.237100	0.551100	0.443000
O221	O22	0.272700	0.923200	0.562800
O231	O23	0.448900	0.686000	0.109670
O241	O24	0.076800	0.349500	0.229470
H11	H1	0.028200	0.109700	0.949400
H21	H2	0.971800	0.890300	0.949400
H31	H3	0.109700	0.028200	0.050600
H41	H4	0.890300	0.971800	0.050600
N11	N1	0.000000	0.000000	0.000000
H51	H5	0.081500	0.971800	0.282730
H61	H6	0.918500	0.028200	0.282730
H71	H7	0.918500	0.890300	0.383930
H81	H8	0.081500	0.109700	0.383930
N21	N2	0.000000	0.000000	0.333330
H91	H9	0.890300	0.918500	0.616070
H101	H10	0.109700	0.081500	0.616070
H111	H11	0.971800	0.081500	0.717270
H121	H12	0.028200	0.918500	0.717270
N31	N3	0.000000	0.000000	0.666670
