data_LAJDUV03_charged_PM
_symmetry_space_group_name_H-M	'P1'
_cell_length_a	8.947000
_cell_length_b	8.947000
_cell_length_c	10.898000
_cell_angle_alpha	90.000000
_cell_angle_beta	90.000000
_cell_angle_gamma	120.000000
_symmetry_Int_Tables_number 1

loop_
_symmetry_equiv_pos_as_xyz
'x,y,z'

loop_
_atom_site_label
_atom_site_type_symbol
_atom_site_fract_x
_atom_site_fract_y
_atom_site_fract_z
Ti11	Ti1	0.000000	0.500000	0.166670
Ti21	Ti2	0.500000	0.000000	0.833330
Ti31	Ti3	0.500000	0.500000	0.500000
C11	C1	0.308470	0.616940	0.333330
C21	C2	0.210520	0.421040	0.333330
C31	C3	0.308470	0.691530	0.000000
C41	C4	0.210520	0.789480	0.000000
C51	C5	0.383060	0.691530	0.666670
C61	C6	0.578960	0.789480	0.666670
C71	C7	0.691530	0.383060	0.333330
C81	C8	0.789480	0.578960	0.333330
C91	C9	0.691530	0.308470	0.000000
C101	C10	0.789480	0.210520	0.000000
C111	C11	0.616940	0.308470	0.666670
C121	C12	0.421040	0.210520	0.666670
O11	O1	0.237100	0.686000	0.276290
O21	O2	0.076100	0.348500	0.269990
O31	O3	0.448900	0.762900	0.942960
O41	O4	0.272400	0.923900	0.936660
O51	O5	0.314000	0.551100	0.609620
O61	O6	0.651500	0.727600	0.603320
O71	O7	0.762900	0.314000	0.276290
O81	O8	0.923900	0.651500	0.269990
O91	O9	0.551100	0.237100	0.942960
O101	O10	0.727600	0.076100	0.936660
O111	O11	0.686000	0.448900	0.609620
O121	O12	0.348500	0.272400	0.603320
O131	O13	0.551100	0.314000	0.390380
O141	O14	0.727600	0.651500	0.396680
O151	O15	0.686000	0.237100	0.723710
O161	O16	0.348500	0.076100	0.730010
O171	O17	0.762900	0.448900	0.057040
O181	O18	0.923900	0.272400	0.063340
O191	O19	0.448900	0.686000	0.390380
O201	O20	0.272400	0.348500	0.396680
O211	O21	0.314000	0.762900	0.723710
O221	O22	0.651500	0.923900	0.730010
O231	O23	0.237100	0.551100	0.057040
O241	O24	0.076100	0.727600	0.063340
H11	H1	0.895290	0.910300	0.882840
H21	H2	0.104710	0.089700	0.882840
H31	H3	0.984990	0.089700	0.783830
H41	H4	0.015010	0.910300	0.783830
N11	N1	0.000000	0.000000	0.833330
H51	H5	0.015010	0.104710	0.549510
H61	H6	0.984990	0.895290	0.549510
H71	H7	0.104710	0.015010	0.450490
H81	H8	0.895290	0.984990	0.450490
N21	N2	0.000000	0.000000	0.500000
H91	H9	0.089700	0.984990	0.216170
H101	H10	0.910300	0.015010	0.216170
H111	H11	0.910300	0.895290	0.117160
H121	H12	0.089700	0.104710	0.117160
N31	N3	0.000000	0.000000	0.166670
