data_LAJLIT_charged_PM
_symmetry_space_group_name_H-M	'P1'
_cell_length_a	26.389600
_cell_length_b	26.389600
_cell_length_c	26.389600
_cell_angle_alpha	107.825000
_cell_angle_beta	107.825000
_cell_angle_gamma	107.825000
_symmetry_Int_Tables_number 1

loop_
_symmetry_equiv_pos_as_xyz
'x,y,z'

loop_
_atom_site_label
_atom_site_type_symbol
_atom_site_fract_x
_atom_site_fract_y
_atom_site_fract_z
K11	K1	0.682830	0.371500	0.689410
K21	K2	0.689410	0.682830	0.371500
K31	K3	0.371500	0.689410	0.682830
K41	K4	0.628500	0.317170	0.310590
K51	K5	0.317170	0.310590	0.628500
K61	K6	0.310590	0.628500	0.317170
K71	K7	0.689710	0.310290	0.000000
K81	K8	0.000000	0.689710	0.310290
K91	K9	0.310290	0.000000	0.689710
K101	K10	0.000000	0.299270	0.700730
K111	K11	0.700730	0.000000	0.299270
K121	K12	0.299270	0.700730	0.000000
H11	H1	0.867900	0.201200	0.731400
H21	H2	0.909900	0.193100	0.701700
H31	H3	0.825800	0.167200	0.659600
H41	H4	0.833200	0.269800	0.672300
H51	H5	0.746400	0.162600	0.617300
H61	H6	0.752700	0.258800	0.606600
H71	H7	0.778000	0.217100	0.553400
H81	H8	0.809300	0.155900	0.509200
H91	H9	0.848300	0.241200	0.886200
H101	H10	0.786900	0.227100	0.890000
H111	H11	0.773100	0.209600	0.794700
H121	H12	0.754800	0.310000	0.849400
H131	H13	0.701100	0.237400	0.723700
H141	H14	0.795800	0.358400	0.789100
H151	H15	0.858300	0.318500	0.762600
H161	H16	0.476400	0.988600	0.732800
H171	H17	0.677300	0.157300	0.857300
H181	H18	0.571900	0.153200	0.871100
H191	H19	0.587600	0.133400	0.765700
H201	H20	0.495400	0.109600	0.781800
H211	H21	0.581400	0.235900	0.836500
H221	H22	0.617300	0.252000	0.762000
H231	H23	0.620000	0.942400	0.846000
H241	H24	0.573200	0.891500	0.781400
H251	H25	0.515300	0.867900	0.818800
H261	H26	0.576400	0.981000	0.783800
H271	H27	0.724000	0.183500	0.957800
H281	H28	0.664900	0.123400	0.929100
H291	H29	0.458800	0.997500	0.837500
H301	H30	0.558500	0.078500	0.892900
H311	H31	0.531200	0.753500	0.707300
H321	H32	0.529500	0.731900	0.642700
H331	H33	0.517000	0.819500	0.667200
H341	H34	0.405700	0.719000	0.572400
H351	H35	0.455500	0.842200	0.593800
H361	H36	0.345900	0.777800	0.517900
H371	H37	0.354700	0.777000	0.605000
H381	H38	0.375300	0.870100	0.592700
H391	H39	0.404000	0.834200	0.705800
H401	H40	0.640500	0.746700	0.531600
H411	H41	0.621600	0.718400	0.572500
H421	H42	0.568200	0.767000	0.543700
H431	H43	0.518500	0.676500	0.425600
H441	H44	0.476500	0.762600	0.462800
H451	H45	0.420200	0.636800	0.427700
H461	H46	0.435000	0.664500	0.528300
H471	H47	0.745900	0.797400	0.530300
H481	H48	0.777500	0.863000	0.536600
H491	H49	0.678600	0.835200	0.505800
H501	H50	0.702600	0.829200	0.404100
H511	H51	0.608400	0.854400	0.421500
H521	H52	0.604400	0.858400	0.337200
H531	H53	0.595900	0.751900	0.333100
H541	H54	0.529900	0.799900	0.346600
H551	H55	0.565300	0.696800	0.381300
H561	H56	0.860700	0.071000	0.614400
H571	H57	0.872000	0.016500	0.587100
H581	H58	0.895500	0.044600	0.670200
H591	H59	0.761700	0.993900	0.545700
H601	H60	0.826400	0.069000	0.510000
H611	H61	0.701100	0.997900	0.457400
H621	H62	0.787700	0.982900	0.412500
H631	H63	0.769600	0.895200	0.425600
H641	H64	0.468500	0.906700	0.785100
H651	H65	0.668900	0.123200	0.490600
H661	H66	0.731400	0.867900	0.201200
H671	H67	0.701700	0.909900	0.193100
H681	H68	0.659600	0.825800	0.167200
H691	H69	0.672300	0.833200	0.269800
H701	H70	0.617300	0.746400	0.162600
H711	H71	0.606600	0.752700	0.258800
H721	H72	0.553400	0.778000	0.217100
H731	H73	0.509200	0.809300	0.155900
H741	H74	0.886200	0.848300	0.241200
H751	H75	0.890000	0.786900	0.227100
H761	H76	0.794700	0.773100	0.209600
H771	H77	0.849400	0.754800	0.310000
H781	H78	0.723700	0.701100	0.237400
H791	H79	0.789100	0.795800	0.358400
H801	H80	0.762600	0.858300	0.318500
H811	H81	0.732800	0.476400	0.988600
H821	H82	0.857300	0.677300	0.157300
H831	H83	0.871100	0.571900	0.153200
H841	H84	0.765700	0.587600	0.133400
H851	H85	0.781800	0.495400	0.109600
H861	H86	0.836500	0.581400	0.235900
H871	H87	0.762000	0.617300	0.252000
H881	H88	0.846000	0.620000	0.942400
H891	H89	0.781400	0.573200	0.891500
H901	H90	0.818800	0.515300	0.867900
H911	H91	0.783800	0.576400	0.981000
H921	H92	0.957800	0.724000	0.183500
H931	H93	0.929100	0.664900	0.123400
H941	H94	0.837500	0.458800	0.997500
H951	H95	0.892900	0.558500	0.078500
H961	H96	0.707300	0.531200	0.753500
H971	H97	0.642700	0.529500	0.731900
H981	H98	0.667200	0.517000	0.819500
H991	H99	0.572400	0.405700	0.719000
H1001	H100	0.593800	0.455500	0.842200
H1011	H101	0.517900	0.345900	0.777800
H1021	H102	0.605000	0.354700	0.777000
H1031	H103	0.592700	0.375300	0.870100
H1041	H104	0.705800	0.404000	0.834200
H1051	H105	0.531600	0.640500	0.746700
H1061	H106	0.572500	0.621600	0.718400
H1071	H107	0.543700	0.568200	0.767000
H1081	H108	0.425600	0.518500	0.676500
H1091	H109	0.462800	0.476500	0.762600
H1101	H110	0.427700	0.420200	0.636800
H1111	H111	0.528300	0.435000	0.664500
H1121	H112	0.530300	0.745900	0.797400
H1131	H113	0.536600	0.777500	0.863000
H1141	H114	0.505800	0.678600	0.835200
H1151	H115	0.404100	0.702600	0.829200
H1161	H116	0.421500	0.608400	0.854400
H1171	H117	0.337200	0.604400	0.858400
H1181	H118	0.333100	0.595900	0.751900
H1191	H119	0.346600	0.529900	0.799900
H1201	H120	0.381300	0.565300	0.696800
H1211	H121	0.614400	0.860700	0.071000
H1221	H122	0.587100	0.872000	0.016500
H1231	H123	0.670200	0.895500	0.044600
H1241	H124	0.545700	0.761700	0.993900
H1251	H125	0.510000	0.826400	0.069000
H1261	H126	0.457400	0.701100	0.997900
H1271	H127	0.412500	0.787700	0.982900
H1281	H128	0.425600	0.769600	0.895200
H1291	H129	0.785100	0.468500	0.906700
H1301	H130	0.490600	0.668900	0.123200
H1311	H131	0.201200	0.731400	0.867900
H1321	H132	0.193100	0.701700	0.909900
H1331	H133	0.167200	0.659600	0.825800
H1341	H134	0.269800	0.672300	0.833200
H1351	H135	0.162600	0.617300	0.746400
H1361	H136	0.258800	0.606600	0.752700
H1371	H137	0.217100	0.553400	0.778000
H1381	H138	0.155900	0.509200	0.809300
H1391	H139	0.241200	0.886200	0.848300
H1401	H140	0.227100	0.890000	0.786900
H1411	H141	0.209600	0.794700	0.773100
H1421	H142	0.310000	0.849400	0.754800
H1431	H143	0.237400	0.723700	0.701100
H1441	H144	0.358400	0.789100	0.795800
H1451	H145	0.318500	0.762600	0.858300
H1461	H146	0.988600	0.732800	0.476400
H1471	H147	0.157300	0.857300	0.677300
H1481	H148	0.153200	0.871100	0.571900
H1491	H149	0.133400	0.765700	0.587600
H1501	H150	0.109600	0.781800	0.495400
H1511	H151	0.235900	0.836500	0.581400
H1521	H152	0.252000	0.762000	0.617300
H1531	H153	0.942400	0.846000	0.620000
H1541	H154	0.891500	0.781400	0.573200
H1551	H155	0.867900	0.818800	0.515300
H1561	H156	0.981000	0.783800	0.576400
H1571	H157	0.183500	0.957800	0.724000
H1581	H158	0.123400	0.929100	0.664900
H1591	H159	0.997500	0.837500	0.458800
H1601	H160	0.078500	0.892900	0.558500
H1611	H161	0.753500	0.707300	0.531200
H1621	H162	0.731900	0.642700	0.529500
H1631	H163	0.819500	0.667200	0.517000
H1641	H164	0.719000	0.572400	0.405700
H1651	H165	0.842200	0.593800	0.455500
H1661	H166	0.777800	0.517900	0.345900
H1671	H167	0.777000	0.605000	0.354700
H1681	H168	0.870100	0.592700	0.375300
H1691	H169	0.834200	0.705800	0.404000
H1701	H170	0.746700	0.531600	0.640500
H1711	H171	0.718400	0.572500	0.621600
H1721	H172	0.767000	0.543700	0.568200
H1731	H173	0.676500	0.425600	0.518500
H1741	H174	0.762600	0.462800	0.476500
H1751	H175	0.636800	0.427700	0.420200
H1761	H176	0.664500	0.528300	0.435000
H1771	H177	0.797400	0.530300	0.745900
H1781	H178	0.863000	0.536600	0.777500
H1791	H179	0.835200	0.505800	0.678600
H1801	H180	0.829200	0.404100	0.702600
H1811	H181	0.854400	0.421500	0.608400
H1821	H182	0.858400	0.337200	0.604400
H1831	H183	0.751900	0.333100	0.595900
H1841	H184	0.799900	0.346600	0.529900
H1851	H185	0.696800	0.381300	0.565300
H1861	H186	0.071000	0.614400	0.860700
H1871	H187	0.016500	0.587100	0.872000
H1881	H188	0.044600	0.670200	0.895500
H1891	H189	0.993900	0.545700	0.761700
H1901	H190	0.069000	0.510000	0.826400
H1911	H191	0.997900	0.457400	0.701100
H1921	H192	0.982900	0.412500	0.787700
H1931	H193	0.895200	0.425600	0.769600
H1941	H194	0.906700	0.785100	0.468500
H1951	H195	0.123200	0.490600	0.668900
H1961	H196	0.798800	0.132100	0.268600
H1971	H197	0.806900	0.090100	0.298300
H1981	H198	0.832800	0.174200	0.340400
H1991	H199	0.730200	0.166800	0.327700
H2001	H200	0.837400	0.253600	0.382700
H2011	H201	0.741200	0.247300	0.393400
H2021	H202	0.782900	0.222000	0.446600
H2031	H203	0.844100	0.190700	0.490800
H2041	H204	0.758800	0.151700	0.113800
H2051	H205	0.772900	0.213100	0.110000
H2061	H206	0.790400	0.226900	0.205300
H2071	H207	0.690000	0.245200	0.150600
H2081	H208	0.762600	0.298900	0.276300
H2091	H209	0.641600	0.204200	0.210900
H2101	H210	0.681500	0.141700	0.237400
H2111	H211	0.011400	0.523600	0.267200
H2121	H212	0.842700	0.322700	0.142700
H2131	H213	0.846800	0.428100	0.128900
H2141	H214	0.866600	0.412400	0.234300
H2151	H215	0.890400	0.504600	0.218200
H2161	H216	0.764100	0.418600	0.163500
H2171	H217	0.748000	0.382700	0.238000
H2181	H218	0.057600	0.380000	0.154000
H2191	H219	0.108500	0.426800	0.218600
H2201	H220	0.132100	0.484700	0.181200
H2211	H221	0.019000	0.423600	0.216200
H2221	H222	0.816500	0.276000	0.042200
H2231	H223	0.876600	0.335100	0.070900
H2241	H224	0.002500	0.541200	0.162500
H2251	H225	0.921500	0.441500	0.107100
H2261	H226	0.246500	0.468800	0.292700
H2271	H227	0.268100	0.470500	0.357300
H2281	H228	0.180500	0.483000	0.332800
H2291	H229	0.281000	0.594300	0.427600
H2301	H230	0.157800	0.544500	0.406200
H2311	H231	0.222200	0.654100	0.482100
H2321	H232	0.223000	0.645300	0.395000
H2331	H233	0.129900	0.624700	0.407300
H2341	H234	0.165800	0.596000	0.294200
H2351	H235	0.253300	0.359500	0.468400
H2361	H236	0.281600	0.378400	0.427500
H2371	H237	0.233000	0.431800	0.456300
H2381	H238	0.323500	0.481500	0.574400
H2391	H239	0.237400	0.523500	0.537200
H2401	H240	0.363200	0.579800	0.572300
H2411	H241	0.335500	0.565000	0.471700
H2421	H242	0.202600	0.254100	0.469700
H2431	H243	0.137000	0.222500	0.463400
H2441	H244	0.164800	0.321400	0.494200
H2451	H245	0.170800	0.297400	0.595900
H2461	H246	0.145600	0.391600	0.578500
H2471	H247	0.141600	0.395600	0.662800
H2481	H248	0.248100	0.404100	0.666900
H2491	H249	0.200100	0.470100	0.653400
H2501	H250	0.303200	0.434700	0.618700
H2511	H251	0.929000	0.139300	0.385600
H2521	H252	0.983500	0.128000	0.412900
H2531	H253	0.955400	0.104500	0.329800
H2541	H254	0.006100	0.238300	0.454300
H2551	H255	0.931000	0.173600	0.490000
H2561	H256	0.002100	0.298900	0.542600
H2571	H257	0.017100	0.212300	0.587500
H2581	H258	0.104800	0.230400	0.574400
H2591	H259	0.093300	0.531500	0.214900
H2601	H260	0.876800	0.331100	0.509400
H2611	H261	0.132100	0.268600	0.798800
H2621	H262	0.090100	0.298300	0.806900
H2631	H263	0.174200	0.340400	0.832800
H2641	H264	0.166800	0.327700	0.730200
H2651	H265	0.253600	0.382700	0.837400
H2661	H266	0.247300	0.393400	0.741200
H2671	H267	0.222000	0.446600	0.782900
H2681	H268	0.190700	0.490800	0.844100
H2691	H269	0.151700	0.113800	0.758800
H2701	H270	0.213100	0.110000	0.772900
H2711	H271	0.226900	0.205300	0.790400
H2721	H272	0.245200	0.150600	0.690000
H2731	H273	0.298900	0.276300	0.762600
H2741	H274	0.204200	0.210900	0.641600
H2751	H275	0.141700	0.237400	0.681500
H2761	H276	0.523600	0.267200	0.011400
H2771	H277	0.322700	0.142700	0.842700
H2781	H278	0.428100	0.128900	0.846800
H2791	H279	0.412400	0.234300	0.866600
H2801	H280	0.504600	0.218200	0.890400
H2811	H281	0.418600	0.163500	0.764100
H2821	H282	0.382700	0.238000	0.748000
H2831	H283	0.380000	0.154000	0.057600
H2841	H284	0.426800	0.218600	0.108500
H2851	H285	0.484700	0.181200	0.132100
H2861	H286	0.423600	0.216200	0.019000
H2871	H287	0.276000	0.042200	0.816500
H2881	H288	0.335100	0.070900	0.876600
H2891	H289	0.541200	0.162500	0.002500
H2901	H290	0.441500	0.107100	0.921500
H2911	H291	0.468800	0.292700	0.246500
H2921	H292	0.470500	0.357300	0.268100
H2931	H293	0.483000	0.332800	0.180500
H2941	H294	0.594300	0.427600	0.281000
H2951	H295	0.544500	0.406200	0.157800
H2961	H296	0.654100	0.482100	0.222200
H2971	H297	0.645300	0.395000	0.223000
H2981	H298	0.624700	0.407300	0.129900
H2991	H299	0.596000	0.294200	0.165800
H3001	H300	0.359500	0.468400	0.253300
H3011	H301	0.378400	0.427500	0.281600
H3021	H302	0.431800	0.456300	0.233000
H3031	H303	0.481500	0.574400	0.323500
H3041	H304	0.523500	0.537200	0.237400
H3051	H305	0.579800	0.572300	0.363200
H3061	H306	0.565000	0.471700	0.335500
H3071	H307	0.254100	0.469700	0.202600
H3081	H308	0.222500	0.463400	0.137000
H3091	H309	0.321400	0.494200	0.164800
H3101	H310	0.297400	0.595900	0.170800
H3111	H311	0.391600	0.578500	0.145600
H3121	H312	0.395600	0.662800	0.141600
H3131	H313	0.404100	0.666900	0.248100
H3141	H314	0.470100	0.653400	0.200100
H3151	H315	0.434700	0.618700	0.303200
H3161	H316	0.139300	0.385600	0.929000
H3171	H317	0.128000	0.412900	0.983500
H3181	H318	0.104500	0.329800	0.955400
H3191	H319	0.238300	0.454300	0.006100
H3201	H320	0.173600	0.490000	0.931000
H3211	H321	0.298900	0.542600	0.002100
H3221	H322	0.212300	0.587500	0.017100
H3231	H323	0.230400	0.574400	0.104800
H3241	H324	0.531500	0.214900	0.093300
H3251	H325	0.331100	0.509400	0.876800
H3261	H326	0.268600	0.798800	0.132100
H3271	H327	0.298300	0.806900	0.090100
H3281	H328	0.340400	0.832800	0.174200
H3291	H329	0.327700	0.730200	0.166800
H3301	H330	0.382700	0.837400	0.253600
H3311	H331	0.393400	0.741200	0.247300
H3321	H332	0.446600	0.782900	0.222000
H3331	H333	0.490800	0.844100	0.190700
H3341	H334	0.113800	0.758800	0.151700
H3351	H335	0.110000	0.772900	0.213100
H3361	H336	0.205300	0.790400	0.226900
H3371	H337	0.150600	0.690000	0.245200
H3381	H338	0.276300	0.762600	0.298900
H3391	H339	0.210900	0.641600	0.204200
H3401	H340	0.237400	0.681500	0.141700
H3411	H341	0.267200	0.011400	0.523600
H3421	H342	0.142700	0.842700	0.322700
H3431	H343	0.128900	0.846800	0.428100
H3441	H344	0.234300	0.866600	0.412400
H3451	H345	0.218200	0.890400	0.504600
H3461	H346	0.163500	0.764100	0.418600
H3471	H347	0.238000	0.748000	0.382700
H3481	H348	0.154000	0.057600	0.380000
H3491	H349	0.218600	0.108500	0.426800
H3501	H350	0.181200	0.132100	0.484700
H3511	H351	0.216200	0.019000	0.423600
H3521	H352	0.042200	0.816500	0.276000
H3531	H353	0.070900	0.876600	0.335100
H3541	H354	0.162500	0.002500	0.541200
H3551	H355	0.107100	0.921500	0.441500
H3561	H356	0.292700	0.246500	0.468800
H3571	H357	0.357300	0.268100	0.470500
H3581	H358	0.332800	0.180500	0.483000
H3591	H359	0.427600	0.281000	0.594300
H3601	H360	0.406200	0.157800	0.544500
H3611	H361	0.482100	0.222200	0.654100
H3621	H362	0.395000	0.223000	0.645300
H3631	H363	0.407300	0.129900	0.624700
H3641	H364	0.294200	0.165800	0.596000
H3651	H365	0.468400	0.253300	0.359500
H3661	H366	0.427500	0.281600	0.378400
H3671	H367	0.456300	0.233000	0.431800
H3681	H368	0.574400	0.323500	0.481500
H3691	H369	0.537200	0.237400	0.523500
H3701	H370	0.572300	0.363200	0.579800
H3711	H371	0.471700	0.335500	0.565000
H3721	H372	0.469700	0.202600	0.254100
H3731	H373	0.463400	0.137000	0.222500
H3741	H374	0.494200	0.164800	0.321400
H3751	H375	0.595900	0.170800	0.297400
H3761	H376	0.578500	0.145600	0.391600
H3771	H377	0.662800	0.141600	0.395600
H3781	H378	0.666900	0.248100	0.404100
H3791	H379	0.653400	0.200100	0.470100
H3801	H380	0.618700	0.303200	0.434700
H3811	H381	0.385600	0.929000	0.139300
H3821	H382	0.412900	0.983500	0.128000
H3831	H383	0.329800	0.955400	0.104500
H3841	H384	0.454300	0.006100	0.238300
H3851	H385	0.490000	0.931000	0.173600
H3861	H386	0.542600	0.002100	0.298900
H3871	H387	0.587500	0.017100	0.212300
H3881	H388	0.574400	0.104800	0.230400
H3891	H389	0.214900	0.093300	0.531500
H3901	H390	0.509400	0.876800	0.331100
C11	C1	0.891200	0.219200	0.713200
C21	C2	0.851900	0.206500	0.664400
C31	C3	0.814200	0.228700	0.668200
C41	C4	0.771300	0.198900	0.616100
C51	C5	0.762800	0.178700	0.555700
C61	C6	0.801000	0.156500	0.543900
C71	C7	0.817500	0.255400	0.885100
C81	C8	0.789400	0.251400	0.824800
C91	C9	0.740690	0.271010	0.815200
C101	C10	0.721750	0.277390	0.758460
C111	C11	0.777400	0.317800	0.755700
C121	C12	0.822300	0.292500	0.763400
C131	C13	0.460700	0.969800	0.755900
C141	C14	0.658700	0.173300	0.882100
C151	C15	0.591400	0.140300	0.845900
C161	C16	0.572900	0.152200	0.793400
C171	C17	0.599940	0.218560	0.812500
C181	C18	0.664640	0.247860	0.850200
C191	C19	0.577100	0.920000	0.818600
C201	C20	0.556100	0.963000	0.804700
C211	C21	0.680100	0.166200	0.939500
C221	C22	0.476600	0.016900	0.816200
C231	C23	0.547700	0.048300	0.852600
C241	C24	0.505400	0.737600	0.664400
C251	C25	0.482700	0.780900	0.653700
C261	C26	0.440400	0.757700	0.587200
C271	C27	0.420700	0.804670	0.582130
C281	C28	0.389700	0.815470	0.619730
C291	C29	0.428100	0.832270	0.683030
C301	C30	0.608200	0.715400	0.531900
C311	C31	0.556200	0.724900	0.516500
C321	C32	0.526600	0.716800	0.453400
C331	C33	0.468700	0.721100	0.438600
C341	C34	0.428200	0.678000	0.452900
C351	C35	0.460600	0.692100	0.517700
C361	C36	0.749400	0.821300	0.508000
C371	C37	0.692700	0.817800	0.476700
C381	C38	0.685800	0.844200	0.431400
C391	C39	0.623100	0.833600	0.395200
C401	C40	0.585200	0.770700	0.364900
C411	C41	0.589600	0.740500	0.406300
C421	C42	0.843300	0.027300	0.599300
C431	C43	0.799600	0.011200	0.543000
C441	C44	0.789700	0.048500	0.513500
C451	C45	0.738900	0.015200	0.454200
C461	C46	0.750800	0.963200	0.416000
C471	C47	0.762800	0.928000	0.449100
C481	C48	0.487500	0.929000	0.766300
C491	C49	0.713200	0.891200	0.219200
C501	C50	0.664400	0.851900	0.206500
C511	C51	0.668200	0.814200	0.228700
C521	C52	0.616100	0.771300	0.198900
C531	C53	0.555700	0.762800	0.178700
C541	C54	0.543900	0.801000	0.156500
C551	C55	0.885100	0.817500	0.255400
C561	C56	0.824800	0.789400	0.251400
C571	C57	0.815200	0.740690	0.271010
C581	C58	0.758460	0.721750	0.277390
C591	C59	0.755700	0.777400	0.317800
C601	C60	0.763400	0.822300	0.292500
C611	C61	0.755900	0.460700	0.969800
C621	C62	0.882100	0.658700	0.173300
C631	C63	0.845900	0.591400	0.140300
C641	C64	0.793400	0.572900	0.152200
C651	C65	0.812500	0.599940	0.218560
C661	C66	0.850200	0.664640	0.247860
C671	C67	0.818600	0.577100	0.920000
C681	C68	0.804700	0.556100	0.963000
C691	C69	0.939500	0.680100	0.166200
C701	C70	0.816200	0.476600	0.016900
C711	C71	0.852600	0.547700	0.048300
C721	C72	0.664400	0.505400	0.737600
C731	C73	0.653700	0.482700	0.780900
C741	C74	0.587200	0.440400	0.757700
C751	C75	0.582130	0.420700	0.804670
C761	C76	0.619730	0.389700	0.815470
C771	C77	0.683030	0.428100	0.832270
C781	C78	0.531900	0.608200	0.715400
C791	C79	0.516500	0.556200	0.724900
C801	C80	0.453400	0.526600	0.716800
C811	C81	0.438600	0.468700	0.721100
C821	C82	0.452900	0.428200	0.678000
C831	C83	0.517700	0.460600	0.692100
C841	C84	0.508000	0.749400	0.821300
C851	C85	0.476700	0.692700	0.817800
C861	C86	0.431400	0.685800	0.844200
C871	C87	0.395200	0.623100	0.833600
C881	C88	0.364900	0.585200	0.770700
C891	C89	0.406300	0.589600	0.740500
C901	C90	0.599300	0.843300	0.027300
C911	C91	0.543000	0.799600	0.011200
C921	C92	0.513500	0.789700	0.048500
C931	C93	0.454200	0.738900	0.015200
C941	C94	0.416000	0.750800	0.963200
C951	C95	0.449100	0.762800	0.928000
C961	C96	0.766300	0.487500	0.929000
C971	C97	0.219200	0.713200	0.891200
C981	C98	0.206500	0.664400	0.851900
C991	C99	0.228700	0.668200	0.814200
C1001	C100	0.198900	0.616100	0.771300
C1011	C101	0.178700	0.555700	0.762800
C1021	C102	0.156500	0.543900	0.801000
C1031	C103	0.255400	0.885100	0.817500
C1041	C104	0.251400	0.824800	0.789400
C1051	C105	0.271010	0.815200	0.740690
C1061	C106	0.277390	0.758460	0.721750
C1071	C107	0.317800	0.755700	0.777400
C1081	C108	0.292500	0.763400	0.822300
C1091	C109	0.969800	0.755900	0.460700
C1101	C110	0.173300	0.882100	0.658700
C1111	C111	0.140300	0.845900	0.591400
C1121	C112	0.152200	0.793400	0.572900
C1131	C113	0.218560	0.812500	0.599940
C1141	C114	0.247860	0.850200	0.664640
C1151	C115	0.920000	0.818600	0.577100
C1161	C116	0.963000	0.804700	0.556100
C1171	C117	0.166200	0.939500	0.680100
C1181	C118	0.016900	0.816200	0.476600
C1191	C119	0.048300	0.852600	0.547700
C1201	C120	0.737600	0.664400	0.505400
C1211	C121	0.780900	0.653700	0.482700
C1221	C122	0.757700	0.587200	0.440400
C1231	C123	0.804670	0.582130	0.420700
C1241	C124	0.815470	0.619730	0.389700
C1251	C125	0.832270	0.683030	0.428100
C1261	C126	0.715400	0.531900	0.608200
C1271	C127	0.724900	0.516500	0.556200
C1281	C128	0.716800	0.453400	0.526600
C1291	C129	0.721100	0.438600	0.468700
C1301	C130	0.678000	0.452900	0.428200
C1311	C131	0.692100	0.517700	0.460600
C1321	C132	0.821300	0.508000	0.749400
C1331	C133	0.817800	0.476700	0.692700
C1341	C134	0.844200	0.431400	0.685800
C1351	C135	0.833600	0.395200	0.623100
C1361	C136	0.770700	0.364900	0.585200
C1371	C137	0.740500	0.406300	0.589600
C1381	C138	0.027300	0.599300	0.843300
C1391	C139	0.011200	0.543000	0.799600
C1401	C140	0.048500	0.513500	0.789700
C1411	C141	0.015200	0.454200	0.738900
C1421	C142	0.963200	0.416000	0.750800
C1431	C143	0.928000	0.449100	0.762800
C1441	C144	0.929000	0.766300	0.487500
C1451	C145	0.780800	0.108800	0.286800
C1461	C146	0.793500	0.148100	0.335600
C1471	C147	0.771300	0.185800	0.331800
C1481	C148	0.801100	0.228700	0.383900
C1491	C149	0.821300	0.237200	0.444300
C1501	C150	0.843500	0.199000	0.456100
C1511	C151	0.744600	0.182500	0.114900
C1521	C152	0.748600	0.210600	0.175200
C1531	C153	0.728990	0.259310	0.184800
C1541	C154	0.722610	0.278250	0.241540
C1551	C155	0.682200	0.222600	0.244300
C1561	C156	0.707500	0.177700	0.236600
C1571	C157	0.030200	0.539300	0.244100
C1581	C158	0.826700	0.341300	0.117900
C1591	C159	0.859700	0.408600	0.154100
C1601	C160	0.847800	0.427100	0.206600
C1611	C161	0.781440	0.400060	0.187500
C1621	C162	0.752140	0.335360	0.149800
C1631	C163	0.080000	0.422900	0.181400
C1641	C164	0.037000	0.443900	0.195300
C1651	C165	0.833800	0.319900	0.060500
C1661	C166	0.983100	0.523400	0.183800
C1671	C167	0.951700	0.452300	0.147400
C1681	C168	0.262400	0.494600	0.335600
C1691	C169	0.219100	0.517300	0.346300
C1701	C170	0.242300	0.559600	0.412800
C1711	C171	0.195330	0.579300	0.417870
C1721	C172	0.184530	0.610300	0.380270
C1731	C173	0.167730	0.571900	0.316970
C1741	C174	0.284600	0.391800	0.468100
C1751	C175	0.275100	0.443800	0.483500
C1761	C176	0.283200	0.473400	0.546600
C1771	C177	0.278900	0.531300	0.561400
C1781	C178	0.322000	0.571800	0.547100
C1791	C179	0.307900	0.539400	0.482300
C1801	C180	0.178700	0.250600	0.492000
C1811	C181	0.182200	0.307300	0.523300
C1821	C182	0.155800	0.314200	0.568600
C1831	C183	0.166400	0.376900	0.604800
C1841	C184	0.229300	0.414800	0.635100
C1851	C185	0.259500	0.410400	0.593700
C1861	C186	0.972700	0.156700	0.400700
C1871	C187	0.988800	0.200400	0.457000
C1881	C188	0.951500	0.210300	0.486500
C1891	C189	0.984800	0.261100	0.545800
C1901	C190	0.036800	0.249200	0.584000
C1911	C191	0.072000	0.237200	0.550900
C1921	C192	0.071000	0.512500	0.233700
C1931	C193	0.108800	0.286800	0.780800
C1941	C194	0.148100	0.335600	0.793500
C1951	C195	0.185800	0.331800	0.771300
C1961	C196	0.228700	0.383900	0.801100
C1971	C197	0.237200	0.444300	0.821300
C1981	C198	0.199000	0.456100	0.843500
C1991	C199	0.182500	0.114900	0.744600
C2001	C200	0.210600	0.175200	0.748600
C2011	C201	0.259310	0.184800	0.728990
C2021	C202	0.278250	0.241540	0.722610
C2031	C203	0.222600	0.244300	0.682200
C2041	C204	0.177700	0.236600	0.707500
C2051	C205	0.539300	0.244100	0.030200
C2061	C206	0.341300	0.117900	0.826700
C2071	C207	0.408600	0.154100	0.859700
C2081	C208	0.427100	0.206600	0.847800
C2091	C209	0.400060	0.187500	0.781440
C2101	C210	0.335360	0.149800	0.752140
C2111	C211	0.422900	0.181400	0.080000
C2121	C212	0.443900	0.195300	0.037000
C2131	C213	0.319900	0.060500	0.833800
C2141	C214	0.523400	0.183800	0.983100
C2151	C215	0.452300	0.147400	0.951700
C2161	C216	0.494600	0.335600	0.262400
C2171	C217	0.517300	0.346300	0.219100
C2181	C218	0.559600	0.412800	0.242300
C2191	C219	0.579300	0.417870	0.195330
C2201	C220	0.610300	0.380270	0.184530
C2211	C221	0.571900	0.316970	0.167730
C2221	C222	0.391800	0.468100	0.284600
C2231	C223	0.443800	0.483500	0.275100
C2241	C224	0.473400	0.546600	0.283200
C2251	C225	0.531300	0.561400	0.278900
C2261	C226	0.571800	0.547100	0.322000
C2271	C227	0.539400	0.482300	0.307900
C2281	C228	0.250600	0.492000	0.178700
C2291	C229	0.307300	0.523300	0.182200
C2301	C230	0.314200	0.568600	0.155800
C2311	C231	0.376900	0.604800	0.166400
C2321	C232	0.414800	0.635100	0.229300
C2331	C233	0.410400	0.593700	0.259500
C2341	C234	0.156700	0.400700	0.972700
C2351	C235	0.200400	0.457000	0.988800
C2361	C236	0.210300	0.486500	0.951500
C2371	C237	0.261100	0.545800	0.984800
C2381	C238	0.249200	0.584000	0.036800
C2391	C239	0.237200	0.550900	0.072000
C2401	C240	0.512500	0.233700	0.071000
C2411	C241	0.286800	0.780800	0.108800
C2421	C242	0.335600	0.793500	0.148100
C2431	C243	0.331800	0.771300	0.185800
C2441	C244	0.383900	0.801100	0.228700
C2451	C245	0.444300	0.821300	0.237200
C2461	C246	0.456100	0.843500	0.199000
C2471	C247	0.114900	0.744600	0.182500
C2481	C248	0.175200	0.748600	0.210600
C2491	C249	0.184800	0.728990	0.259310
C2501	C250	0.241540	0.722610	0.278250
C2511	C251	0.244300	0.682200	0.222600
C2521	C252	0.236600	0.707500	0.177700
C2531	C253	0.244100	0.030200	0.539300
C2541	C254	0.117900	0.826700	0.341300
C2551	C255	0.154100	0.859700	0.408600
C2561	C256	0.206600	0.847800	0.427100
C2571	C257	0.187500	0.781440	0.400060
C2581	C258	0.149800	0.752140	0.335360
C2591	C259	0.181400	0.080000	0.422900
C2601	C260	0.195300	0.037000	0.443900
C2611	C261	0.060500	0.833800	0.319900
C2621	C262	0.183800	0.983100	0.523400
C2631	C263	0.147400	0.951700	0.452300
C2641	C264	0.335600	0.262400	0.494600
C2651	C265	0.346300	0.219100	0.517300
C2661	C266	0.412800	0.242300	0.559600
C2671	C267	0.417870	0.195330	0.579300
C2681	C268	0.380270	0.184530	0.610300
C2691	C269	0.316970	0.167730	0.571900
C2701	C270	0.468100	0.284600	0.391800
C2711	C271	0.483500	0.275100	0.443800
C2721	C272	0.546600	0.283200	0.473400
C2731	C273	0.561400	0.278900	0.531300
C2741	C274	0.547100	0.322000	0.571800
C2751	C275	0.482300	0.307900	0.539400
C2761	C276	0.492000	0.178700	0.250600
C2771	C277	0.523300	0.182200	0.307300
C2781	C278	0.568600	0.155800	0.314200
C2791	C279	0.604800	0.166400	0.376900
C2801	C280	0.635100	0.229300	0.414800
C2811	C281	0.593700	0.259500	0.410400
C2821	C282	0.400700	0.972700	0.156700
C2831	C283	0.457000	0.988800	0.200400
C2841	C284	0.486500	0.951500	0.210300
C2851	C285	0.545800	0.984800	0.261100
C2861	C286	0.584000	0.036800	0.249200
C2871	C287	0.550900	0.072000	0.237200
C2881	C288	0.233700	0.071000	0.512500
O11	O1	0.949700	0.280400	0.773200
O21	O2	0.733500	0.225200	0.603600
O31	O3	0.857800	0.182000	0.611600
O41	O4	0.841800	0.305800	0.931000
O51	O5	0.838160	0.289620	0.817680
O61	O6	0.691320	0.227410	0.813820
O71	O7	0.682730	0.305650	0.756020
O81	O8	0.759170	0.321960	0.700770
O91	O9	0.796230	0.235070	0.716040
O101	O10	0.396300	0.939010	0.725690
O111	O11	0.679050	0.233990	0.898530
O121	O12	0.573940	0.077280	0.825820
O131	O13	0.509790	0.126440	0.763740
O141	O14	0.585960	0.230410	0.761230
O151	O15	0.551500	0.888800	0.842100
O161	O16	0.663500	0.191600	0.979600
O171	O17	0.457200	0.061500	0.812600
O181	O18	0.566200	0.008300	0.859700
O191	O19	0.457090	0.682360	0.644950
O201	O20	0.379170	0.780770	0.520210
O211	O21	0.367140	0.857460	0.616200
O221	O22	0.450140	0.789040	0.687150
O231	O23	0.598000	0.658100	0.491400
O241	O24	0.514830	0.688130	0.528940
O251	O25	0.564800	0.759350	0.443750
O261	O26	0.440160	0.706270	0.377270
O271	O27	0.372610	0.681330	0.439760
O281	O28	0.475150	0.751860	0.553580
O291	O29	0.770960	0.799540	0.466800
O301	O30	0.636000	0.862400	0.361900
O311	O31	0.528200	0.765900	0.338500
O321	O32	0.648700	0.751060	0.436240
O331	O33	0.858700	0.024300	0.649600
O341	O34	0.804100	0.956400	0.506600
O351	O35	0.779700	0.093400	0.553600
O361	O36	0.736100	0.053400	0.426000
O371	O37	0.704200	0.934300	0.359800
O381	O38	0.717500	0.906200	0.463100
O391	O39	0.477530	0.888830	0.709160
O401	O40	0.027000	0.364300	0.822000
O411	O41	0.699700	0.134000	0.485600
O421	O42	0.773200	0.949700	0.280400
O431	O43	0.603600	0.733500	0.225200
O441	O44	0.611600	0.857800	0.182000
O451	O45	0.931000	0.841800	0.305800
O461	O46	0.817680	0.838160	0.289620
O471	O47	0.813820	0.691320	0.227410
O481	O48	0.756020	0.682730	0.305650
O491	O49	0.700770	0.759170	0.321960
O501	O50	0.716040	0.796230	0.235070
O511	O51	0.725690	0.396300	0.939010
O521	O52	0.898530	0.679050	0.233990
O531	O53	0.825820	0.573940	0.077280
O541	O54	0.763740	0.509790	0.126440
O551	O55	0.761230	0.585960	0.230410
O561	O56	0.842100	0.551500	0.888800
O571	O57	0.979600	0.663500	0.191600
O581	O58	0.812600	0.457200	0.061500
O591	O59	0.859700	0.566200	0.008300
O601	O60	0.644950	0.457090	0.682360
O611	O61	0.520210	0.379170	0.780770
O621	O62	0.616200	0.367140	0.857460
O631	O63	0.687150	0.450140	0.789040
O641	O64	0.491400	0.598000	0.658100
O651	O65	0.528940	0.514830	0.688130
O661	O66	0.443750	0.564800	0.759350
O671	O67	0.377270	0.440160	0.706270
O681	O68	0.439760	0.372610	0.681330
O691	O69	0.553580	0.475150	0.751860
O701	O70	0.466800	0.770960	0.799540
O711	O71	0.361900	0.636000	0.862400
O721	O72	0.338500	0.528200	0.765900
O731	O73	0.436240	0.648700	0.751060
O741	O74	0.649600	0.858700	0.024300
O751	O75	0.506600	0.804100	0.956400
O761	O76	0.553600	0.779700	0.093400
O771	O77	0.426000	0.736100	0.053400
O781	O78	0.359800	0.704200	0.934300
O791	O79	0.463100	0.717500	0.906200
O801	O80	0.709160	0.477530	0.888830
O811	O81	0.822000	0.027000	0.364300
O821	O82	0.485600	0.699700	0.134000
O831	O83	0.280400	0.773200	0.949700
O841	O84	0.225200	0.603600	0.733500
O851	O85	0.182000	0.611600	0.857800
O861	O86	0.305800	0.931000	0.841800
O871	O87	0.289620	0.817680	0.838160
O881	O88	0.227410	0.813820	0.691320
O891	O89	0.305650	0.756020	0.682730
O901	O90	0.321960	0.700770	0.759170
O911	O91	0.235070	0.716040	0.796230
O921	O92	0.939010	0.725690	0.396300
O931	O93	0.233990	0.898530	0.679050
O941	O94	0.077280	0.825820	0.573940
O951	O95	0.126440	0.763740	0.509790
O961	O96	0.230410	0.761230	0.585960
O971	O97	0.888800	0.842100	0.551500
O981	O98	0.191600	0.979600	0.663500
O991	O99	0.061500	0.812600	0.457200
O1001	O100	0.008300	0.859700	0.566200
O1011	O101	0.682360	0.644950	0.457090
O1021	O102	0.780770	0.520210	0.379170
O1031	O103	0.857460	0.616200	0.367140
O1041	O104	0.789040	0.687150	0.450140
O1051	O105	0.658100	0.491400	0.598000
O1061	O106	0.688130	0.528940	0.514830
O1071	O107	0.759350	0.443750	0.564800
O1081	O108	0.706270	0.377270	0.440160
O1091	O109	0.681330	0.439760	0.372610
O1101	O110	0.751860	0.553580	0.475150
O1111	O111	0.799540	0.466800	0.770960
O1121	O112	0.862400	0.361900	0.636000
O1131	O113	0.765900	0.338500	0.528200
O1141	O114	0.751060	0.436240	0.648700
O1151	O115	0.024300	0.649600	0.858700
O1161	O116	0.956400	0.506600	0.804100
O1171	O117	0.093400	0.553600	0.779700
O1181	O118	0.053400	0.426000	0.736100
O1191	O119	0.934300	0.359800	0.704200
O1201	O120	0.906200	0.463100	0.717500
O1211	O121	0.888830	0.709160	0.477530
O1221	O122	0.364300	0.822000	0.027000
O1231	O123	0.134000	0.485600	0.699700
O1241	O124	0.719600	0.050300	0.226800
O1251	O125	0.774800	0.266500	0.396400
O1261	O126	0.818000	0.142200	0.388400
O1271	O127	0.694200	0.158200	0.069000
O1281	O128	0.710380	0.161840	0.182320
O1291	O129	0.772590	0.308680	0.186180
O1301	O130	0.694350	0.317270	0.243980
O1311	O131	0.678040	0.240830	0.299230
O1321	O132	0.764930	0.203770	0.283960
O1331	O133	0.060990	0.603700	0.274310
O1341	O134	0.766010	0.320950	0.101470
O1351	O135	0.922720	0.426060	0.174180
O1361	O136	0.873560	0.490210	0.236260
O1371	O137	0.769590	0.414040	0.238770
O1381	O138	0.111200	0.448500	0.157900
O1391	O139	0.808400	0.336500	0.020400
O1401	O140	0.938500	0.542800	0.187400
O1411	O141	0.991700	0.433800	0.140300
O1421	O142	0.317640	0.542910	0.355050
O1431	O143	0.219230	0.620830	0.479790
O1441	O144	0.142540	0.632860	0.383800
O1451	O145	0.210960	0.549860	0.312850
O1461	O146	0.341900	0.402000	0.508600
O1471	O147	0.311870	0.485170	0.471060
O1481	O148	0.240650	0.435200	0.556250
O1491	O149	0.293730	0.559840	0.622730
O1501	O150	0.318670	0.627390	0.560240
O1511	O151	0.248140	0.524850	0.446420
O1521	O152	0.200460	0.229040	0.533200
O1531	O153	0.137600	0.364000	0.638100
O1541	O154	0.234100	0.471800	0.661500
O1551	O155	0.248940	0.351300	0.563760
O1561	O156	0.975700	0.141300	0.350400
O1571	O157	0.043600	0.195900	0.493400
O1581	O158	0.906600	0.220300	0.446400
O1591	O159	0.946600	0.263900	0.574000
O1601	O160	0.065700	0.295800	0.640200
O1611	O161	0.093800	0.282500	0.536900
O1621	O162	0.111170	0.522470	0.290840
O1631	O163	0.635700	0.973000	0.178000
O1641	O164	0.866000	0.300300	0.514400
O1651	O165	0.050300	0.226800	0.719600
O1661	O166	0.266500	0.396400	0.774800
O1671	O167	0.142200	0.388400	0.818000
O1681	O168	0.158200	0.069000	0.694200
O1691	O169	0.161840	0.182320	0.710380
O1701	O170	0.308680	0.186180	0.772590
O1711	O171	0.317270	0.243980	0.694350
O1721	O172	0.240830	0.299230	0.678040
O1731	O173	0.203770	0.283960	0.764930
O1741	O174	0.603700	0.274310	0.060990
O1751	O175	0.320950	0.101470	0.766010
O1761	O176	0.426060	0.174180	0.922720
O1771	O177	0.490210	0.236260	0.873560
O1781	O178	0.414040	0.238770	0.769590
O1791	O179	0.448500	0.157900	0.111200
O1801	O180	0.336500	0.020400	0.808400
O1811	O181	0.542800	0.187400	0.938500
O1821	O182	0.433800	0.140300	0.991700
O1831	O183	0.542910	0.355050	0.317640
O1841	O184	0.620830	0.479790	0.219230
O1851	O185	0.632860	0.383800	0.142540
O1861	O186	0.549860	0.312850	0.210960
O1871	O187	0.402000	0.508600	0.341900
O1881	O188	0.485170	0.471060	0.311870
O1891	O189	0.435200	0.556250	0.240650
O1901	O190	0.559840	0.622730	0.293730
O1911	O191	0.627390	0.560240	0.318670
O1921	O192	0.524850	0.446420	0.248140
O1931	O193	0.229040	0.533200	0.200460
O1941	O194	0.364000	0.638100	0.137600
O1951	O195	0.471800	0.661500	0.234100
O1961	O196	0.351300	0.563760	0.248940
O1971	O197	0.141300	0.350400	0.975700
O1981	O198	0.195900	0.493400	0.043600
O1991	O199	0.220300	0.446400	0.906600
O2001	O200	0.263900	0.574000	0.946600
O2011	O201	0.295800	0.640200	0.065700
O2021	O202	0.282500	0.536900	0.093800
O2031	O203	0.522470	0.290840	0.111170
O2041	O204	0.973000	0.178000	0.635700
O2051	O205	0.300300	0.514400	0.866000
O2061	O206	0.226800	0.719600	0.050300
O2071	O207	0.396400	0.774800	0.266500
O2081	O208	0.388400	0.818000	0.142200
O2091	O209	0.069000	0.694200	0.158200
O2101	O210	0.182320	0.710380	0.161840
O2111	O211	0.186180	0.772590	0.308680
O2121	O212	0.243980	0.694350	0.317270
O2131	O213	0.299230	0.678040	0.240830
O2141	O214	0.283960	0.764930	0.203770
O2151	O215	0.274310	0.060990	0.603700
O2161	O216	0.101470	0.766010	0.320950
O2171	O217	0.174180	0.922720	0.426060
O2181	O218	0.236260	0.873560	0.490210
O2191	O219	0.238770	0.769590	0.414040
O2201	O220	0.157900	0.111200	0.448500
O2211	O221	0.020400	0.808400	0.336500
O2221	O222	0.187400	0.938500	0.542800
O2231	O223	0.140300	0.991700	0.433800
O2241	O224	0.355050	0.317640	0.542910
O2251	O225	0.479790	0.219230	0.620830
O2261	O226	0.383800	0.142540	0.632860
O2271	O227	0.312850	0.210960	0.549860
O2281	O228	0.508600	0.341900	0.402000
O2291	O229	0.471060	0.311870	0.485170
O2301	O230	0.556250	0.240650	0.435200
O2311	O231	0.622730	0.293730	0.559840
O2321	O232	0.560240	0.318670	0.627390
O2331	O233	0.446420	0.248140	0.524850
O2341	O234	0.533200	0.200460	0.229040
O2351	O235	0.638100	0.137600	0.364000
O2361	O236	0.661500	0.234100	0.471800
O2371	O237	0.563760	0.248940	0.351300
O2381	O238	0.350400	0.975700	0.141300
O2391	O239	0.493400	0.043600	0.195900
O2401	O240	0.446400	0.906600	0.220300
O2411	O241	0.574000	0.946600	0.263900
O2421	O242	0.640200	0.065700	0.295800
O2431	O243	0.536900	0.093800	0.282500
O2441	O244	0.290840	0.111170	0.522470
O2451	O245	0.178000	0.635700	0.973000
O2461	O246	0.514400	0.866000	0.300300
O2471	O247	0.628150	0.371850	0.000000
O2481	O248	0.000000	0.628150	0.371850
O2491	O249	0.371850	0.000000	0.628150
H3911	H391	0.342800	0.855900	0.379400
H3921	H392	0.310900	0.901600	0.314300
H3931	H393	0.309100	0.993400	0.360500
H3941	H394	0.328300	0.033700	0.454300
H3951	H395	0.364300	0.996200	0.521500
C2891	C289	0.373000	0.891500	0.492100
C2901	C290	0.357500	0.923100	0.454400
C2911	C291	0.341300	0.892800	0.394700
C2921	C292	0.321700	0.919500	0.355500
C2931	C293	0.320200	0.973900	0.383900
C2941	C294	0.333100	0.998700	0.439800
C2951	C295	0.353800	0.976700	0.480400
O2501	O250	0.396960	0.858890	0.479750
O2511	O251	0.356640	0.898860	0.534190
H3961	H396	0.379400	0.342800	0.855900
H3971	H397	0.314300	0.310900	0.901600
H3981	H398	0.360500	0.309100	0.993400
H3991	H399	0.454300	0.328300	0.033700
H4001	H400	0.521500	0.364300	0.996200
C2961	C296	0.492100	0.373000	0.891500
C2971	C297	0.454400	0.357500	0.923100
C2981	C298	0.394700	0.341300	0.892800
C2991	C299	0.355500	0.321700	0.919500
C3001	C300	0.383900	0.320200	0.973900
C3011	C301	0.439800	0.333100	0.998700
C3021	C302	0.480400	0.353800	0.976700
O2521	O252	0.479750	0.396960	0.858890
O2531	O253	0.534190	0.356640	0.898860
H4011	H401	0.855900	0.379400	0.342800
H4021	H402	0.901600	0.314300	0.310900
H4031	H403	0.993400	0.360500	0.309100
H4041	H404	0.033700	0.454300	0.328300
H4051	H405	0.996200	0.521500	0.364300
C3031	C303	0.891500	0.492100	0.373000
C3041	C304	0.923100	0.454400	0.357500
C3051	C305	0.892800	0.394700	0.341300
C3061	C306	0.919500	0.355500	0.321700
C3071	C307	0.973900	0.383900	0.320200
C3081	C308	0.998700	0.439800	0.333100
C3091	C309	0.976700	0.480400	0.353800
O2541	O254	0.858890	0.479750	0.396960
O2551	O255	0.898860	0.534190	0.356640
H4061	H406	0.144100	0.657200	0.620600
H4071	H407	0.098400	0.689100	0.685700
H4081	H408	0.006600	0.690900	0.639500
H4091	H409	0.966300	0.671700	0.545700
H4101	H410	0.003800	0.635700	0.478500
C3101	C310	0.108500	0.627000	0.507900
C3111	C311	0.076900	0.642500	0.545600
C3121	C312	0.107200	0.658700	0.605300
C3131	C313	0.080500	0.678300	0.644500
C3141	C314	0.026100	0.679800	0.616100
C3151	C315	0.001300	0.666900	0.560200
C3161	C316	0.023300	0.646200	0.519600
O2561	O256	0.141110	0.603040	0.520250
O2571	O257	0.101140	0.643360	0.465810
H4111	H411	0.657200	0.620600	0.144100
H4121	H412	0.689100	0.685700	0.098400
H4131	H413	0.690900	0.639500	0.006600
H4141	H414	0.671700	0.545700	0.966300
H4151	H415	0.635700	0.478500	0.003800
C3171	C317	0.627000	0.507900	0.108500
C3181	C318	0.642500	0.545600	0.076900
C3191	C319	0.658700	0.605300	0.107200
C3201	C320	0.678300	0.644500	0.080500
C3211	C321	0.679800	0.616100	0.026100
C3221	C322	0.666900	0.560200	0.001300
C3231	C323	0.646200	0.519600	0.023300
O2581	O258	0.603040	0.520250	0.141110
O2591	O259	0.643360	0.465810	0.101140
H4161	H416	0.620600	0.144100	0.657200
H4171	H417	0.685700	0.098400	0.689100
H4181	H418	0.639500	0.006600	0.690900
H4191	H419	0.545700	0.966300	0.671700
H4201	H420	0.478500	0.003800	0.635700
C3241	C324	0.507900	0.108500	0.627000
C3251	C325	0.545600	0.076900	0.642500
C3261	C326	0.605300	0.107200	0.658700
C3271	C327	0.644500	0.080500	0.678300
C3281	C328	0.616100	0.026100	0.679800
C3291	C329	0.560200	0.001300	0.666900
C3301	C330	0.519600	0.023300	0.646200
O2601	O260	0.520250	0.141110	0.603040
O2611	O261	0.465810	0.101140	0.643360
