data_LAJTIC_clean_PM
_symmetry_space_group_name_H-M	'P1'
_cell_length_a	12.064800
_cell_length_b	8.191800
_cell_length_c	7.480700
_cell_angle_alpha	90.000000
_cell_angle_beta	97.035000
_cell_angle_gamma	90.000000
_symmetry_Int_Tables_number 1

loop_
_symmetry_equiv_pos_as_xyz
'x,y,z'

loop_
_atom_site_label
_atom_site_type_symbol
_atom_site_fract_x
_atom_site_fract_y
_atom_site_fract_z
Cu11	Cu1	0.432500	0.383200	0.881800
Cu21	Cu2	0.105800	0.212700	0.181600
N11	N1	0.526800	0.190800	0.826000
N21	N2	0.308600	0.303000	0.995900
C11	C1	0.032500	0.017000	0.234300
C21	C2	0.543300	0.077500	0.740900
C31	C3	0.232100	0.262600	0.064100
N31	N3	0.978500	0.907500	0.260500
Cu31	Cu3	0.567500	0.883200	0.618200
Cu41	Cu4	0.894200	0.712700	0.318400
N41	N4	0.473200	0.690800	0.674000
N51	N5	0.691400	0.803000	0.504100
C41	C4	0.967500	0.517000	0.265700
C51	C5	0.456700	0.577500	0.759100
C61	C6	0.767900	0.762600	0.435900
N61	N6	0.021500	0.407500	0.239500
Cu51	Cu5	0.567500	0.616800	0.118200
Cu61	Cu6	0.894200	0.787300	0.818400
N71	N7	0.473200	0.809200	0.174000
N81	N8	0.691400	0.697000	0.004100
C71	C7	0.967500	0.983000	0.765700
C81	C8	0.456700	0.922500	0.259100
C91	C9	0.767900	0.737400	0.935900
N91	N9	0.021500	0.092500	0.739500
Cu71	Cu7	0.432500	0.116800	0.381800
Cu81	Cu8	0.105800	0.287300	0.681600
N101	N10	0.526800	0.309200	0.326000
N111	N11	0.308600	0.197000	0.495900
C101	C10	0.032500	0.483000	0.734300
C111	C11	0.543300	0.422500	0.240900
C121	C12	0.232100	0.237400	0.564100
N121	N12	0.978500	0.592500	0.760500
