data_LAQNID_clean_PM
_symmetry_space_group_name_H-M	'P1'
_cell_length_a	18.692400
_cell_length_b	18.692400
_cell_length_c	35.919600
_cell_angle_alpha	90.000000
_cell_angle_beta	90.000000
_cell_angle_gamma	90.000000
_symmetry_Int_Tables_number 1

loop_
_symmetry_equiv_pos_as_xyz
'x,y,z'

loop_
_atom_site_label
_atom_site_type_symbol
_atom_site_fract_x
_atom_site_fract_y
_atom_site_fract_z
O11	O1	0.316330	0.786760	0.699070
O21	O2	0.373930	0.730490	0.745530
O31	O3	0.693650	0.796300	0.702900
O41	O4	0.635690	0.739740	0.748960
C11	C1	0.505210	0.922330	0.535380
C21	C2	0.558660	0.937130	0.560930
H11	H1	0.594700	0.971000	0.554900
C31	C3	0.560330	0.903230	0.595290
H21	H2	0.597500	0.914000	0.612500
C41	C4	0.508400	0.854050	0.604650
C51	C5	0.456530	0.835560	0.578230
H31	H3	0.421900	0.800000	0.583800
C61	C6	0.455890	0.869200	0.543890
H41	H4	0.421200	0.855800	0.525900
C71	C7	0.506510	0.822390	0.643000
C81	C8	0.570380	0.810000	0.662110
H51	H5	0.614800	0.821000	0.650600
C91	C9	0.569480	0.781760	0.697700
C101	C10	0.504820	0.764830	0.714630
H61	H6	0.504400	0.744700	0.738900
C111	C11	0.441470	0.777230	0.696280
C121	C12	0.442860	0.805910	0.660010
H71	H7	0.399200	0.814000	0.647200
C131	C13	0.371650	0.763810	0.714820
C141	C14	0.638480	0.771690	0.718200
O51	O5	0.816330	0.286760	0.199070
O61	O6	0.873930	0.230490	0.245530
O71	O7	0.193650	0.296300	0.202900
O81	O8	0.135690	0.239740	0.248960
C151	C15	0.005210	0.422330	0.035380
C161	C16	0.058660	0.437130	0.060930
H81	H8	0.094700	0.471000	0.054900
C171	C17	0.060330	0.403230	0.095290
H91	H9	0.097500	0.414000	0.112500
C181	C18	0.008400	0.354050	0.104650
C191	C19	0.956530	0.335560	0.078230
H101	H10	0.921900	0.300000	0.083800
C201	C20	0.955890	0.369200	0.043890
H111	H11	0.921200	0.355800	0.025900
C211	C21	0.006510	0.322390	0.143000
C221	C22	0.070380	0.310000	0.162110
H121	H12	0.114800	0.321000	0.150600
C231	C23	0.069480	0.281760	0.197700
C241	C24	0.004820	0.264830	0.214630
H131	H13	0.004400	0.244700	0.238900
C251	C25	0.941470	0.277230	0.196280
C261	C26	0.942860	0.305910	0.160010
H141	H14	0.899200	0.314000	0.147200
C271	C27	0.871650	0.263810	0.214820
C281	C28	0.138480	0.271690	0.218200
O91	O9	0.683670	0.213240	0.699070
O101	O10	0.626070	0.269510	0.745530
O111	O11	0.306350	0.203700	0.702900
O121	O12	0.364310	0.260260	0.748960
C291	C29	0.494790	0.077670	0.535380
C301	C30	0.441340	0.062870	0.560930
H151	H15	0.405300	0.029000	0.554900
C311	C31	0.439670	0.096770	0.595290
H161	H16	0.402500	0.086000	0.612500
C321	C32	0.491600	0.145950	0.604650
C331	C33	0.543470	0.164440	0.578230
H171	H17	0.578100	0.200000	0.583800
C341	C34	0.544110	0.130800	0.543890
H181	H18	0.578800	0.144200	0.525900
C351	C35	0.493490	0.177610	0.643000
C361	C36	0.429620	0.190000	0.662110
H191	H19	0.385200	0.179000	0.650600
C371	C37	0.430520	0.218240	0.697700
C381	C38	0.495180	0.235170	0.714630
H201	H20	0.495600	0.255300	0.738900
C391	C39	0.558530	0.222770	0.696280
C401	C40	0.557140	0.194090	0.660010
H211	H21	0.600800	0.186000	0.647200
C411	C41	0.628350	0.236190	0.714820
C421	C42	0.361520	0.228310	0.718200
O131	O13	0.183670	0.713240	0.199070
O141	O14	0.126070	0.769510	0.245530
O151	O15	0.806350	0.703700	0.202900
O161	O16	0.864310	0.760260	0.248960
C431	C43	0.994790	0.577670	0.035380
C441	C44	0.941340	0.562870	0.060930
H221	H22	0.905300	0.529000	0.054900
C451	C45	0.939670	0.596770	0.095290
H231	H23	0.902500	0.586000	0.112500
C461	C46	0.991600	0.645950	0.104650
C471	C47	0.043470	0.664440	0.078230
H241	H24	0.078100	0.700000	0.083800
C481	C48	0.044110	0.630800	0.043890
H251	H25	0.078800	0.644200	0.025900
C491	C49	0.993490	0.677610	0.143000
C501	C50	0.929620	0.690000	0.162110
H261	H26	0.885200	0.679000	0.150600
C511	C51	0.930520	0.718240	0.197700
C521	C52	0.995180	0.735170	0.214630
H271	H27	0.995600	0.755300	0.238900
C531	C53	0.058530	0.722770	0.196280
C541	C54	0.057140	0.694090	0.160010
H281	H28	0.100800	0.686000	0.147200
C551	C55	0.128350	0.736190	0.214820
C561	C56	0.861520	0.728310	0.218200
O171	O17	0.786760	0.683670	0.300930
O181	O18	0.730490	0.626070	0.254470
O191	O19	0.796300	0.306350	0.297100
O201	O20	0.739740	0.364310	0.251040
C571	C57	0.922330	0.494790	0.464620
C581	C58	0.937130	0.441340	0.439070
H291	H29	0.971000	0.405300	0.445100
C591	C59	0.903230	0.439670	0.404710
H301	H30	0.914000	0.402500	0.387500
C601	C60	0.854050	0.491600	0.395350
C611	C61	0.835560	0.543470	0.421770
H311	H31	0.800000	0.578100	0.416200
C621	C62	0.869200	0.544110	0.456110
H321	H32	0.855800	0.578800	0.474100
C631	C63	0.822390	0.493490	0.357000
C641	C64	0.810000	0.429620	0.337890
H331	H33	0.821000	0.385200	0.349400
C651	C65	0.781760	0.430520	0.302300
C661	C66	0.764830	0.495180	0.285370
H341	H34	0.744700	0.495600	0.261100
C671	C67	0.777230	0.558530	0.303720
C681	C68	0.805910	0.557140	0.339990
H351	H35	0.814000	0.600800	0.352800
C691	C69	0.763810	0.628350	0.285180
C701	C70	0.771690	0.361520	0.281800
O211	O21	0.286760	0.183670	0.800930
O221	O22	0.230490	0.126070	0.754470
O231	O23	0.296300	0.806350	0.797100
O241	O24	0.239740	0.864310	0.751040
C711	C71	0.422330	0.994790	0.964620
C721	C72	0.437130	0.941340	0.939070
H361	H36	0.471000	0.905300	0.945100
C731	C73	0.403230	0.939670	0.904710
H371	H37	0.414000	0.902500	0.887500
C741	C74	0.354050	0.991600	0.895350
C751	C75	0.335560	0.043470	0.921770
H381	H38	0.300000	0.078100	0.916200
C761	C76	0.369200	0.044110	0.956110
H391	H39	0.355800	0.078800	0.974100
C771	C77	0.322390	0.993490	0.857000
C781	C78	0.310000	0.929620	0.837890
H401	H40	0.321000	0.885200	0.849400
C791	C79	0.281760	0.930520	0.802300
C801	C80	0.264830	0.995180	0.785370
H411	H41	0.244700	0.995600	0.761100
C811	C81	0.277230	0.058530	0.803720
C821	C82	0.305910	0.057140	0.839990
H421	H42	0.314000	0.100800	0.852800
C831	C83	0.263810	0.128350	0.785180
C841	C84	0.271690	0.861520	0.781800
O251	O25	0.213240	0.316330	0.300930
O261	O26	0.269510	0.373930	0.254470
O271	O27	0.203700	0.693650	0.297100
O281	O28	0.260260	0.635690	0.251040
C851	C85	0.077670	0.505210	0.464620
C861	C86	0.062870	0.558660	0.439070
H431	H43	0.029000	0.594700	0.445100
C871	C87	0.096770	0.560330	0.404710
H441	H44	0.086000	0.597500	0.387500
C881	C88	0.145950	0.508400	0.395350
C891	C89	0.164440	0.456530	0.421770
H451	H45	0.200000	0.421900	0.416200
C901	C90	0.130800	0.455890	0.456110
H461	H46	0.144200	0.421200	0.474100
C911	C91	0.177610	0.506510	0.357000
C921	C92	0.190000	0.570380	0.337890
H471	H47	0.179000	0.614800	0.349400
C931	C93	0.218240	0.569480	0.302300
C941	C94	0.235170	0.504820	0.285370
H481	H48	0.255300	0.504400	0.261100
C951	C95	0.222770	0.441470	0.303720
C961	C96	0.194090	0.442860	0.339990
H491	H49	0.186000	0.399200	0.352800
C971	C97	0.236190	0.371650	0.285180
C981	C98	0.228310	0.638480	0.281800
O291	O29	0.713240	0.816330	0.800930
O301	O30	0.769510	0.873930	0.754470
O311	O31	0.703700	0.193650	0.797100
O321	O32	0.760260	0.135690	0.751040
C991	C99	0.577670	0.005210	0.964620
C1001	C100	0.562870	0.058660	0.939070
H501	H50	0.529000	0.094700	0.945100
C1011	C101	0.596770	0.060330	0.904710
H511	H51	0.586000	0.097500	0.887500
C1021	C102	0.645950	0.008400	0.895350
C1031	C103	0.664440	0.956530	0.921770
H521	H52	0.700000	0.921900	0.916200
C1041	C104	0.630800	0.955890	0.956110
H531	H53	0.644200	0.921200	0.974100
C1051	C105	0.677610	0.006510	0.857000
C1061	C106	0.690000	0.070380	0.837890
H541	H54	0.679000	0.114800	0.849400
C1071	C107	0.718240	0.069480	0.802300
C1081	C108	0.735170	0.004820	0.785370
H551	H55	0.755300	0.004400	0.761100
C1091	C109	0.722770	0.941470	0.803720
C1101	C110	0.694090	0.942860	0.839990
H561	H56	0.686000	0.899200	0.852800
C1111	C111	0.736190	0.871650	0.785180
C1121	C112	0.728310	0.138480	0.781800
O331	O33	0.683670	0.786760	0.300930
O341	O34	0.626070	0.730490	0.254470
O351	O35	0.306350	0.796300	0.297100
O361	O36	0.364310	0.739740	0.251040
C1131	C113	0.494790	0.922330	0.464620
C1141	C114	0.441340	0.937130	0.439070
H571	H57	0.405300	0.971000	0.445100
C1151	C115	0.439670	0.903230	0.404710
H581	H58	0.402500	0.914000	0.387500
C1161	C116	0.491600	0.854050	0.395350
C1171	C117	0.543470	0.835560	0.421770
H591	H59	0.578100	0.800000	0.416200
C1181	C118	0.544110	0.869200	0.456110
H601	H60	0.578800	0.855800	0.474100
C1191	C119	0.493490	0.822390	0.357000
C1201	C120	0.429620	0.810000	0.337890
H611	H61	0.385200	0.821000	0.349400
C1211	C121	0.430520	0.781760	0.302300
C1221	C122	0.495180	0.764830	0.285370
H621	H62	0.495600	0.744700	0.261100
C1231	C123	0.558530	0.777230	0.303720
C1241	C124	0.557140	0.805910	0.339990
H631	H63	0.600800	0.814000	0.352800
C1251	C125	0.628350	0.763810	0.285180
C1261	C126	0.361520	0.771690	0.281800
O371	O37	0.183670	0.286760	0.800930
O381	O38	0.126070	0.230490	0.754470
O391	O39	0.806350	0.296300	0.797100
O401	O40	0.864310	0.239740	0.751040
C1271	C127	0.994790	0.422330	0.964620
C1281	C128	0.941340	0.437130	0.939070
H641	H64	0.905300	0.471000	0.945100
C1291	C129	0.939670	0.403230	0.904710
H651	H65	0.902500	0.414000	0.887500
C1301	C130	0.991600	0.354050	0.895350
C1311	C131	0.043470	0.335560	0.921770
H661	H66	0.078100	0.300000	0.916200
C1321	C132	0.044110	0.369200	0.956110
H671	H67	0.078800	0.355800	0.974100
C1331	C133	0.993490	0.322390	0.857000
C1341	C134	0.929620	0.310000	0.837890
H681	H68	0.885200	0.321000	0.849400
C1351	C135	0.930520	0.281760	0.802300
C1361	C136	0.995180	0.264830	0.785370
H691	H69	0.995600	0.244700	0.761100
C1371	C137	0.058530	0.277230	0.803720
C1381	C138	0.057140	0.305910	0.839990
H701	H70	0.100800	0.314000	0.852800
C1391	C139	0.128350	0.263810	0.785180
C1401	C140	0.861520	0.271690	0.781800
O411	O41	0.316330	0.213240	0.300930
O421	O42	0.373930	0.269510	0.254470
O431	O43	0.693650	0.203700	0.297100
O441	O44	0.635690	0.260260	0.251040
C1411	C141	0.505210	0.077670	0.464620
C1421	C142	0.558660	0.062870	0.439070
H711	H71	0.594700	0.029000	0.445100
C1431	C143	0.560330	0.096770	0.404710
H721	H72	0.597500	0.086000	0.387500
C1441	C144	0.508400	0.145950	0.395350
C1451	C145	0.456530	0.164440	0.421770
H731	H73	0.421900	0.200000	0.416200
C1461	C146	0.455890	0.130800	0.456110
H741	H74	0.421200	0.144200	0.474100
C1471	C147	0.506510	0.177610	0.357000
C1481	C148	0.570380	0.190000	0.337890
H751	H75	0.614800	0.179000	0.349400
C1491	C149	0.569480	0.218240	0.302300
C1501	C150	0.504820	0.235170	0.285370
H761	H76	0.504400	0.255300	0.261100
C1511	C151	0.441470	0.222770	0.303720
C1521	C152	0.442860	0.194090	0.339990
H771	H77	0.399200	0.186000	0.352800
C1531	C153	0.371650	0.236190	0.285180
C1541	C154	0.638480	0.228310	0.281800
O451	O45	0.816330	0.713240	0.800930
O461	O46	0.873930	0.769510	0.754470
O471	O47	0.193650	0.703700	0.797100
O481	O48	0.135690	0.760260	0.751040
C1551	C155	0.005210	0.577670	0.964620
C1561	C156	0.058660	0.562870	0.939070
H781	H78	0.094700	0.529000	0.945100
C1571	C157	0.060330	0.596770	0.904710
H791	H79	0.097500	0.586000	0.887500
C1581	C158	0.008400	0.645950	0.895350
C1591	C159	0.956530	0.664440	0.921770
H801	H80	0.921900	0.700000	0.916200
C1601	C160	0.955890	0.630800	0.956110
H811	H81	0.921200	0.644200	0.974100
C1611	C161	0.006510	0.677610	0.857000
C1621	C162	0.070380	0.690000	0.837890
H821	H82	0.114800	0.679000	0.849400
C1631	C163	0.069480	0.718240	0.802300
C1641	C164	0.004820	0.735170	0.785370
H831	H83	0.004400	0.755300	0.761100
C1651	C165	0.941470	0.722770	0.803720
C1661	C166	0.942860	0.694090	0.839990
H841	H84	0.899200	0.686000	0.852800
C1671	C167	0.871650	0.736190	0.785180
C1681	C168	0.138480	0.728310	0.781800
O491	O49	0.213240	0.683670	0.699070
O501	O50	0.269510	0.626070	0.745530
O511	O51	0.203700	0.306350	0.702900
O521	O52	0.260260	0.364310	0.748960
C1691	C169	0.077670	0.494790	0.535380
C1701	C170	0.062870	0.441340	0.560930
H851	H85	0.029000	0.405300	0.554900
C1711	C171	0.096770	0.439670	0.595290
H861	H86	0.086000	0.402500	0.612500
C1721	C172	0.145950	0.491600	0.604650
C1731	C173	0.164440	0.543470	0.578230
H871	H87	0.200000	0.578100	0.583800
C1741	C174	0.130800	0.544110	0.543890
H881	H88	0.144200	0.578800	0.525900
C1751	C175	0.177610	0.493490	0.643000
C1761	C176	0.190000	0.429620	0.662110
H891	H89	0.179000	0.385200	0.650600
C1771	C177	0.218240	0.430520	0.697700
C1781	C178	0.235170	0.495180	0.714630
H901	H90	0.255300	0.495600	0.738900
C1791	C179	0.222770	0.558530	0.696280
C1801	C180	0.194090	0.557140	0.660010
H911	H91	0.186000	0.600800	0.647200
C1811	C181	0.236190	0.628350	0.714820
C1821	C182	0.228310	0.361520	0.718200
O531	O53	0.713240	0.183670	0.199070
O541	O54	0.769510	0.126070	0.245530
O551	O55	0.703700	0.806350	0.202900
O561	O56	0.760260	0.864310	0.248960
C1831	C183	0.577670	0.994790	0.035380
C1841	C184	0.562870	0.941340	0.060930
H921	H92	0.529000	0.905300	0.054900
C1851	C185	0.596770	0.939670	0.095290
H931	H93	0.586000	0.902500	0.112500
C1861	C186	0.645950	0.991600	0.104650
C1871	C187	0.664440	0.043470	0.078230
H941	H94	0.700000	0.078100	0.083800
C1881	C188	0.630800	0.044110	0.043890
H951	H95	0.644200	0.078800	0.025900
C1891	C189	0.677610	0.993490	0.143000
C1901	C190	0.690000	0.929620	0.162110
H961	H96	0.679000	0.885200	0.150600
C1911	C191	0.718240	0.930520	0.197700
C1921	C192	0.735170	0.995180	0.214630
H971	H97	0.755300	0.995600	0.238900
C1931	C193	0.722770	0.058530	0.196280
C1941	C194	0.694090	0.057140	0.160010
H981	H98	0.686000	0.100800	0.147200
C1951	C195	0.736190	0.128350	0.214820
C1961	C196	0.728310	0.861520	0.218200
O571	O57	0.786760	0.316330	0.699070
O581	O58	0.730490	0.373930	0.745530
O591	O59	0.796300	0.693650	0.702900
O601	O60	0.739740	0.635690	0.748960
C1971	C197	0.922330	0.505210	0.535380
C1981	C198	0.937130	0.558660	0.560930
H991	H99	0.971000	0.594700	0.554900
C1991	C199	0.903230	0.560330	0.595290
H1001	H100	0.914000	0.597500	0.612500
C2001	C200	0.854050	0.508400	0.604650
C2011	C201	0.835560	0.456530	0.578230
H1011	H101	0.800000	0.421900	0.583800
C2021	C202	0.869200	0.455890	0.543890
H1021	H102	0.855800	0.421200	0.525900
C2031	C203	0.822390	0.506510	0.643000
C2041	C204	0.810000	0.570380	0.662110
H1031	H103	0.821000	0.614800	0.650600
C2051	C205	0.781760	0.569480	0.697700
C2061	C206	0.764830	0.504820	0.714630
H1041	H104	0.744700	0.504400	0.738900
C2071	C207	0.777230	0.441470	0.696280
C2081	C208	0.805910	0.442860	0.660010
H1051	H105	0.814000	0.399200	0.647200
C2091	C209	0.763810	0.371650	0.714820
C2101	C210	0.771690	0.638480	0.718200
O611	O61	0.286760	0.816330	0.199070
O621	O62	0.230490	0.873930	0.245530
O631	O63	0.296300	0.193650	0.202900
O641	O64	0.239740	0.135690	0.248960
C2111	C211	0.422330	0.005210	0.035380
C2121	C212	0.437130	0.058660	0.060930
H1061	H106	0.471000	0.094700	0.054900
C2131	C213	0.403230	0.060330	0.095290
H1071	H107	0.414000	0.097500	0.112500
C2141	C214	0.354050	0.008400	0.104650
C2151	C215	0.335560	0.956530	0.078230
H1081	H108	0.300000	0.921900	0.083800
C2161	C216	0.369200	0.955890	0.043890
H1091	H109	0.355800	0.921200	0.025900
C2171	C217	0.322390	0.006510	0.143000
C2181	C218	0.310000	0.070380	0.162110
H1101	H110	0.321000	0.114800	0.150600
C2191	C219	0.281760	0.069480	0.197700
C2201	C220	0.264830	0.004820	0.214630
H1111	H111	0.244700	0.004400	0.238900
C2211	C221	0.277230	0.941470	0.196280
C2221	C222	0.305910	0.942860	0.160010
H1121	H112	0.314000	0.899200	0.147200
C2231	C223	0.263810	0.871650	0.214820
C2241	C224	0.271690	0.138480	0.218200
Cu11	Cu1	0.220910	0.779090	0.720970
Cu21	Cu2	0.720910	0.279090	0.220970
Cu31	Cu3	0.779090	0.220910	0.720970
Cu41	Cu4	0.279090	0.720910	0.220970
Cu51	Cu5	0.779090	0.779090	0.279030
Cu61	Cu6	0.279090	0.279090	0.779030
Cu71	Cu7	0.220910	0.220910	0.279030
Cu81	Cu8	0.720910	0.720910	0.779030
Cu91	Cu9	0.788870	0.788870	0.724570
Cu101	Cu10	0.288870	0.288870	0.224570
Cu111	Cu11	0.211130	0.211130	0.724570
Cu121	Cu12	0.711130	0.711130	0.224570
Cu131	Cu13	0.788870	0.211130	0.275430
Cu141	Cu14	0.288870	0.711130	0.775430
Cu151	Cu15	0.211130	0.788870	0.275430
Cu161	Cu16	0.711130	0.288870	0.775430
C2251	C225	0.500000	0.964100	0.500000
C2261	C226	0.000000	0.464100	0.000000
C2271	C227	0.500000	0.035900	0.500000
C2281	C228	0.000000	0.535900	0.000000
C2291	C229	0.964100	0.500000	0.500000
C2301	C230	0.464100	0.000000	0.000000
C2311	C231	0.035900	0.500000	0.500000
C2321	C232	0.535900	0.000000	0.000000
