data_LAQZOV_clean_PM
_symmetry_space_group_name_H-M	'P1'
_cell_length_a	25.514700
_cell_length_b	13.413700
_cell_length_c	14.632900
_cell_angle_alpha	90.000000
_cell_angle_beta	101.966000
_cell_angle_gamma	90.000000
_symmetry_Int_Tables_number 1

loop_
_symmetry_equiv_pos_as_xyz
'x,y,z'

loop_
_atom_site_label
_atom_site_type_symbol
_atom_site_fract_x
_atom_site_fract_y
_atom_site_fract_z
Ce11	Ce1	0.325950	0.308950	0.548660
O11	O1	0.223800	0.346800	0.447900
O21	O2	0.289100	0.450700	0.442900
O31	O3	0.262800	0.644400	0.145100
O41	O4	0.187100	0.729300	0.105600
O51	O5	0.409900	0.344700	0.476700
O61	O6	0.411700	0.200800	0.539500
O71	O7	0.471800	0.233500	0.463800
N11	N1	0.431400	0.259400	0.494100
C11	C1	0.242000	0.425600	0.417900
C21	C2	0.204400	0.486600	0.347700
C31	C3	0.226300	0.548300	0.288100
H11	H1	0.263200	0.553200	0.295000
C41	C4	0.192700	0.602600	0.218300
C51	C5	0.137600	0.596700	0.210700
H21	H2	0.115400	0.634100	0.165000
C61	C6	0.114800	0.537300	0.268700
C71	C7	0.149500	0.482500	0.339800
H31	H3	0.135100	0.443700	0.381200
C81	C8	0.215700	0.663500	0.151500
C91	C9	0.055900	0.534400	0.260600
C101	C10	0.033000	0.532300	0.337100
H41	H4	0.054600	0.530800	0.396700
C111	C11	0.977600	0.532500	0.326100
H51	H5	0.962700	0.531300	0.378900
Ce21	Ce2	0.825950	0.808950	0.548660
O81	O8	0.723800	0.846800	0.447900
O91	O9	0.789100	0.950700	0.442900
O101	O10	0.762800	0.144400	0.145100
O111	O11	0.687100	0.229300	0.105600
O121	O12	0.909900	0.844700	0.476700
O131	O13	0.911700	0.700800	0.539500
O141	O14	0.971800	0.733500	0.463800
N21	N2	0.931400	0.759400	0.494100
C121	C12	0.742000	0.925600	0.417900
C131	C13	0.704400	0.986600	0.347700
C141	C14	0.726300	0.048300	0.288100
H61	H6	0.763200	0.053200	0.295000
C151	C15	0.692700	0.102600	0.218300
C161	C16	0.637600	0.096700	0.210700
H71	H7	0.615400	0.134100	0.165000
C171	C17	0.614800	0.037300	0.268700
C181	C18	0.649500	0.982500	0.339800
H81	H8	0.635100	0.943700	0.381200
C191	C19	0.715700	0.163500	0.151500
C201	C20	0.555900	0.034400	0.260600
C211	C21	0.533000	0.032300	0.337100
H91	H9	0.554600	0.030800	0.396700
C221	C22	0.477600	0.032500	0.326100
H101	H10	0.462700	0.031300	0.378900
Ce31	Ce3	0.674050	0.308950	0.951340
O151	O15	0.776200	0.346800	0.052100
O161	O16	0.710900	0.450700	0.057100
O171	O17	0.737200	0.644400	0.354900
O181	O18	0.812900	0.729300	0.394400
O191	O19	0.590100	0.344700	0.023300
O201	O20	0.588300	0.200800	0.960500
O211	O21	0.528200	0.233500	0.036200
N31	N3	0.568600	0.259400	0.005900
C231	C23	0.758000	0.425600	0.082100
C241	C24	0.795600	0.486600	0.152300
C251	C25	0.773700	0.548300	0.211900
H111	H11	0.736800	0.553200	0.205000
C261	C26	0.807300	0.602600	0.281700
C271	C27	0.862400	0.596700	0.289300
H121	H12	0.884600	0.634100	0.335000
C281	C28	0.885200	0.537300	0.231300
C291	C29	0.850500	0.482500	0.160200
H131	H13	0.864900	0.443700	0.118800
C301	C30	0.784300	0.663500	0.348500
C311	C31	0.944100	0.534400	0.239400
C321	C32	0.967000	0.532300	0.162900
H141	H14	0.945400	0.530800	0.103300
C331	C33	0.022400	0.532500	0.173900
H151	H15	0.037300	0.531300	0.121100
Ce41	Ce4	0.174050	0.808950	0.951340
O221	O22	0.276200	0.846800	0.052100
O231	O23	0.210900	0.950700	0.057100
O241	O24	0.237200	0.144400	0.354900
O251	O25	0.312900	0.229300	0.394400
O261	O26	0.090100	0.844700	0.023300
O271	O27	0.088300	0.700800	0.960500
O281	O28	0.028200	0.733500	0.036200
N41	N4	0.068600	0.759400	0.005900
C341	C34	0.258000	0.925600	0.082100
C351	C35	0.295600	0.986600	0.152300
C361	C36	0.273700	0.048300	0.211900
H161	H16	0.236800	0.053200	0.205000
C371	C37	0.307300	0.102600	0.281700
C381	C38	0.362400	0.096700	0.289300
H171	H17	0.384600	0.134100	0.335000
C391	C39	0.385200	0.037300	0.231300
C401	C40	0.350500	0.982500	0.160200
H181	H18	0.364900	0.943700	0.118800
C411	C41	0.284300	0.163500	0.348500
C421	C42	0.444100	0.034400	0.239400
C431	C43	0.467000	0.032300	0.162900
H191	H19	0.445400	0.030800	0.103300
C441	C44	0.522400	0.032500	0.173900
H201	H20	0.537300	0.031300	0.121100
Ce51	Ce5	0.674050	0.691050	0.451340
O291	O29	0.776200	0.653200	0.552100
O301	O30	0.710900	0.549300	0.557100
O311	O31	0.737200	0.355600	0.854900
O321	O32	0.812900	0.270700	0.894400
O331	O33	0.590100	0.655300	0.523300
O341	O34	0.588300	0.799200	0.460500
O351	O35	0.528200	0.766500	0.536200
N51	N5	0.568600	0.740600	0.505900
C451	C45	0.758000	0.574400	0.582100
C461	C46	0.795600	0.513400	0.652300
C471	C47	0.773700	0.451700	0.711900
H211	H21	0.736800	0.446800	0.705000
C481	C48	0.807300	0.397400	0.781700
C491	C49	0.862400	0.403300	0.789300
H221	H22	0.884600	0.365900	0.835000
C501	C50	0.885200	0.462700	0.731300
C511	C51	0.850500	0.517500	0.660200
H231	H23	0.864900	0.556300	0.618800
C521	C52	0.784300	0.336500	0.848500
C531	C53	0.944100	0.465600	0.739400
C541	C54	0.967000	0.467700	0.662900
H241	H24	0.945400	0.469200	0.603300
C551	C55	0.022400	0.467500	0.673900
H251	H25	0.037300	0.468700	0.621100
Ce61	Ce6	0.174050	0.191050	0.451340
O361	O36	0.276200	0.153200	0.552100
O371	O37	0.210900	0.049300	0.557100
O381	O38	0.237200	0.855600	0.854900
O391	O39	0.312900	0.770700	0.894400
O401	O40	0.090100	0.155300	0.523300
O411	O41	0.088300	0.299200	0.460500
O421	O42	0.028200	0.266500	0.536200
N61	N6	0.068600	0.240600	0.505900
C561	C56	0.258000	0.074400	0.582100
C571	C57	0.295600	0.013400	0.652300
C581	C58	0.273700	0.951700	0.711900
H261	H26	0.236800	0.946800	0.705000
C591	C59	0.307300	0.897400	0.781700
C601	C60	0.362400	0.903300	0.789300
H271	H27	0.384600	0.865900	0.835000
C611	C61	0.385200	0.962700	0.731300
C621	C62	0.350500	0.017500	0.660200
H281	H28	0.364900	0.056300	0.618800
C631	C63	0.284300	0.836500	0.848500
C641	C64	0.444100	0.965600	0.739400
C651	C65	0.467000	0.967700	0.662900
H291	H29	0.445400	0.969200	0.603300
C661	C66	0.522400	0.967500	0.673900
H301	H30	0.537300	0.968700	0.621100
Ce71	Ce7	0.325950	0.691050	0.048660
O431	O43	0.223800	0.653200	0.947900
O441	O44	0.289100	0.549300	0.942900
O451	O45	0.262800	0.355600	0.645100
O461	O46	0.187100	0.270700	0.605600
O471	O47	0.409900	0.655300	0.976700
O481	O48	0.411700	0.799200	0.039500
O491	O49	0.471800	0.766500	0.963800
N71	N7	0.431400	0.740600	0.994100
C671	C67	0.242000	0.574400	0.917900
C681	C68	0.204400	0.513400	0.847700
C691	C69	0.226300	0.451700	0.788100
H311	H31	0.263200	0.446800	0.795000
C701	C70	0.192700	0.397400	0.718300
C711	C71	0.137600	0.403300	0.710700
H321	H32	0.115400	0.365900	0.665000
C721	C72	0.114800	0.462700	0.768700
C731	C73	0.149500	0.517500	0.839800
H331	H33	0.135100	0.556300	0.881200
C741	C74	0.215700	0.336500	0.651500
C751	C75	0.055900	0.465600	0.760600
C761	C76	0.033000	0.467700	0.837100
H341	H34	0.054600	0.469200	0.896700
C771	C77	0.977600	0.467500	0.826100
H351	H35	0.962700	0.468700	0.878900
Ce81	Ce8	0.825950	0.191050	0.048660
O501	O50	0.723800	0.153200	0.947900
O511	O51	0.789100	0.049300	0.942900
O521	O52	0.762800	0.855600	0.645100
O531	O53	0.687100	0.770700	0.605600
O541	O54	0.909900	0.155300	0.976700
O551	O55	0.911700	0.299200	0.039500
O561	O56	0.971800	0.266500	0.963800
N81	N8	0.931400	0.240600	0.994100
C781	C78	0.742000	0.074400	0.917900
C791	C79	0.704400	0.013400	0.847700
C801	C80	0.726300	0.951700	0.788100
H361	H36	0.763200	0.946800	0.795000
C811	C81	0.692700	0.897400	0.718300
C821	C82	0.637600	0.903300	0.710700
H371	H37	0.615400	0.865900	0.665000
C831	C83	0.614800	0.962700	0.768700
C841	C84	0.649500	0.017500	0.839800
H381	H38	0.635100	0.056300	0.881200
C851	C85	0.715700	0.836500	0.651500
C861	C86	0.555900	0.965600	0.760600
C871	C87	0.533000	0.967700	0.837100
H391	H39	0.554600	0.969200	0.896700
C881	C88	0.477600	0.967500	0.826100
H401	H40	0.462700	0.968700	0.878900
