data_LARNIE_clean_PM
_symmetry_space_group_name_H-M	'P1'
_cell_length_a	9.407800
_cell_length_b	11.653800
_cell_length_c	32.662100
_cell_angle_alpha	90.000000
_cell_angle_beta	90.000000
_cell_angle_gamma	90.000000
_symmetry_Int_Tables_number 1

loop_
_symmetry_equiv_pos_as_xyz
'x,y,z'

loop_
_atom_site_label
_atom_site_type_symbol
_atom_site_fract_x
_atom_site_fract_y
_atom_site_fract_z
Mn11	Mn1	0.193160	0.093820	0.637590
Mn21	Mn2	0.240420	0.714620	0.599620
Mn31	Mn3	0.216170	0.408780	0.625890
O11	O1	0.321900	0.246500	0.609880
O21	O2	0.441700	0.100800	0.635960
O31	O3	0.695700	0.206100	0.617400
O41	O4	0.032600	0.329400	0.600740
O51	O5	0.981300	0.155900	0.626600
O61	O6	0.105600	0.575800	0.626430
O71	O7	0.982100	0.718800	0.600200
O81	O8	0.731400	0.613300	0.624680
O91	O9	0.396800	0.493000	0.650110
O101	O10	0.447300	0.648600	0.612150
O111	O11	0.698400	0.869200	0.460080
O121	O12	0.762700	0.045400	0.439620
O131	O13	0.506200	0.953200	0.512210
O141	O14	0.217300	0.006300	0.580000
O151	O15	0.325200	0.844100	0.560300
O161	O16	0.854000	0.877600	0.811710
O171	O17	0.779300	0.695000	0.808900
O181	O18	0.000800	0.839300	0.737970
O191	O19	0.239300	0.809900	0.653890
O201	O20	0.122100	0.963200	0.676930
C11	C1	0.438000	0.196800	0.618500
C21	C2	0.569200	0.253200	0.604700
C31	C3	0.590800	0.342700	0.579500
H11	H1	0.520400	0.388600	0.566600
C41	C4	0.739200	0.354600	0.576100
H21	H2	0.787900	0.409700	0.559900
C51	C5	0.800300	0.273500	0.599900
C61	C6	0.949200	0.250200	0.610200
C71	C7	0.989500	0.626000	0.619700
C81	C8	0.861700	0.574600	0.638400
C91	C9	0.843200	0.491200	0.667100
H31	H3	0.916100	0.450900	0.681200
C101	C10	0.695700	0.475900	0.672000
H41	H4	0.650200	0.424100	0.690200
C111	C11	0.630600	0.549800	0.645600
C121	C12	0.480900	0.566700	0.634800
C131	C13	0.690300	0.975700	0.460800
C141	C14	0.584100	0.029500	0.488700
C151	C15	0.536200	0.135600	0.495100
H51	H5	0.571900	0.203700	0.482800
C161	C16	0.420400	0.128900	0.524100
H61	H6	0.365000	0.190600	0.534500
C171	C17	0.407700	0.017100	0.533400
C181	C18	0.311500	0.952500	0.560400
C191	C19	0.852800	0.776800	0.796500
C201	C20	0.944900	0.750500	0.761400
C211	C21	0.993300	0.650900	0.748400
H71	H7	0.970300	0.577800	0.759500
C221	C22	0.085600	0.672000	0.715100
H81	H8	0.136700	0.616000	0.699900
C231	C23	0.087500	0.786200	0.709000
C241	C24	0.154200	0.857900	0.677300
Mn41	Mn4	0.306840	0.906180	0.137590
Mn51	Mn5	0.259580	0.285380	0.099620
Mn61	Mn6	0.283830	0.591220	0.125890
O211	O21	0.178100	0.753500	0.109880
O221	O22	0.058300	0.899200	0.135960
O231	O23	0.804300	0.793900	0.117400
O241	O24	0.467400	0.670600	0.100740
O251	O25	0.518700	0.844100	0.126600
O261	O26	0.394400	0.424200	0.126430
O271	O27	0.517900	0.281200	0.100200
O281	O28	0.768600	0.386700	0.124680
O291	O29	0.103200	0.507000	0.150110
O301	O30	0.052700	0.351400	0.112150
O311	O31	0.801600	0.130800	0.960080
O321	O32	0.737300	0.954600	0.939620
O331	O33	0.993800	0.046800	0.012210
O341	O34	0.282700	0.993700	0.080000
O351	O35	0.174800	0.155900	0.060300
O361	O36	0.646000	0.122400	0.311710
O371	O37	0.720700	0.305000	0.308900
O381	O38	0.499200	0.160700	0.237970
O391	O39	0.260700	0.190100	0.153890
O401	O40	0.377900	0.036800	0.176930
C251	C25	0.062000	0.803200	0.118500
C261	C26	0.930800	0.746800	0.104700
C271	C27	0.909200	0.657300	0.079500
H91	H9	0.979600	0.611400	0.066600
C281	C28	0.760800	0.645400	0.076100
H101	H10	0.712100	0.590300	0.059900
C291	C29	0.699700	0.726500	0.099900
C301	C30	0.550800	0.749800	0.110200
C311	C31	0.510500	0.374000	0.119700
C321	C32	0.638300	0.425400	0.138400
C331	C33	0.656800	0.508800	0.167100
H111	H11	0.583900	0.549100	0.181200
C341	C34	0.804300	0.524100	0.172000
H121	H12	0.849800	0.575900	0.190200
C351	C35	0.869400	0.450200	0.145600
C361	C36	0.019100	0.433300	0.134800
C371	C37	0.809700	0.024300	0.960800
C381	C38	0.915900	0.970500	0.988700
C391	C39	0.963800	0.864400	0.995100
H131	H13	0.928100	0.796300	0.982800
C401	C40	0.079600	0.871100	0.024100
H141	H14	0.135000	0.809400	0.034500
C411	C41	0.092300	0.982900	0.033400
C421	C42	0.188500	0.047500	0.060400
C431	C43	0.647200	0.223200	0.296500
C441	C44	0.555100	0.249500	0.261400
C451	C45	0.506700	0.349100	0.248400
H151	H15	0.529700	0.422200	0.259500
C461	C46	0.414400	0.328000	0.215100
H161	H16	0.363300	0.384000	0.199900
C471	C47	0.412500	0.213800	0.209000
C481	C48	0.345800	0.142100	0.177300
Mn71	Mn7	0.806840	0.593820	0.862410
Mn81	Mn8	0.759580	0.214620	0.900380
Mn91	Mn9	0.783830	0.908780	0.874110
O411	O41	0.678100	0.746500	0.890120
O421	O42	0.558300	0.600800	0.864040
O431	O43	0.304300	0.706100	0.882600
O441	O44	0.967400	0.829400	0.899260
O451	O45	0.018700	0.655900	0.873400
O461	O46	0.894400	0.075800	0.873570
O471	O47	0.017900	0.218800	0.899800
O481	O48	0.268600	0.113300	0.875320
O491	O49	0.603200	0.993000	0.849890
O501	O50	0.552700	0.148600	0.887850
O511	O51	0.301600	0.369200	0.039920
O521	O52	0.237300	0.545400	0.060380
O531	O53	0.493800	0.453200	0.987790
O541	O54	0.782700	0.506300	0.920000
O551	O55	0.674800	0.344100	0.939700
O561	O56	0.146000	0.377600	0.688290
O571	O57	0.220700	0.195000	0.691100
O581	O58	0.999200	0.339300	0.762030
O591	O59	0.760700	0.309900	0.846110
O601	O60	0.877900	0.463200	0.823070
C491	C49	0.562000	0.696800	0.881500
C501	C50	0.430800	0.753200	0.895300
C511	C51	0.409200	0.842700	0.920500
H171	H17	0.479600	0.888600	0.933400
C521	C52	0.260800	0.854600	0.923900
H181	H18	0.212100	0.909700	0.940100
C531	C53	0.199700	0.773500	0.900100
C541	C54	0.050800	0.750200	0.889800
C551	C55	0.010500	0.126000	0.880300
C561	C56	0.138300	0.074600	0.861600
C571	C57	0.156800	0.991200	0.832900
H191	H19	0.083900	0.950900	0.818800
C581	C58	0.304300	0.975900	0.828000
H201	H20	0.349800	0.924100	0.809800
C591	C59	0.369400	0.049800	0.854400
C601	C60	0.519100	0.066700	0.865200
C611	C61	0.309700	0.475700	0.039200
C621	C62	0.415900	0.529500	0.011300
C631	C63	0.463800	0.635600	0.004900
H211	H21	0.428100	0.703700	0.017200
C641	C64	0.579600	0.628900	0.975900
H221	H22	0.635000	0.690600	0.965500
C651	C65	0.592300	0.517100	0.966600
C661	C66	0.688500	0.452500	0.939600
C671	C67	0.147200	0.276800	0.703500
C681	C68	0.055100	0.250500	0.738600
C691	C69	0.006700	0.150900	0.751600
H231	H23	0.029700	0.077800	0.740500
C701	C70	0.914400	0.172000	0.784900
H241	H24	0.863300	0.116000	0.800100
C711	C71	0.912500	0.286200	0.791000
C721	C72	0.845800	0.357900	0.822700
Mn101	Mn10	0.693160	0.406180	0.362410
Mn111	Mn11	0.740420	0.785380	0.400380
Mn121	Mn12	0.716170	0.091220	0.374110
O611	O61	0.821900	0.253500	0.390120
O621	O62	0.941700	0.399200	0.364040
O631	O63	0.195700	0.293900	0.382600
O641	O64	0.532600	0.170600	0.399260
O651	O65	0.481300	0.344100	0.373400
O661	O66	0.605600	0.924200	0.373570
O671	O67	0.482100	0.781200	0.399800
O681	O68	0.231400	0.886700	0.375320
O691	O69	0.896800	0.007000	0.349890
O701	O70	0.947300	0.851400	0.387850
O711	O71	0.198400	0.630800	0.539920
O721	O72	0.262700	0.454600	0.560380
O731	O73	0.006200	0.546800	0.487790
O741	O74	0.717300	0.493700	0.420000
O751	O75	0.825200	0.655900	0.439700
O761	O76	0.354000	0.622400	0.188290
O771	O77	0.279300	0.805000	0.191100
O781	O78	0.500800	0.660700	0.262030
O791	O79	0.739300	0.690100	0.346110
O801	O80	0.622100	0.536800	0.323070
C731	C73	0.938000	0.303200	0.381500
C741	C74	0.069200	0.246800	0.395300
C751	C75	0.090800	0.157300	0.420500
H251	H25	0.020400	0.111400	0.433400
C761	C76	0.239200	0.145400	0.423900
H261	H26	0.287900	0.090300	0.440100
C771	C77	0.300300	0.226500	0.400100
C781	C78	0.449200	0.249800	0.389800
C791	C79	0.489500	0.874000	0.380300
C801	C80	0.361700	0.925400	0.361600
C811	C81	0.343200	0.008800	0.332900
H271	H27	0.416100	0.049100	0.318800
C821	C82	0.195700	0.024100	0.328000
H281	H28	0.150200	0.075900	0.309800
C831	C83	0.130600	0.950200	0.354400
C841	C84	0.980900	0.933300	0.365200
C851	C85	0.190300	0.524300	0.539200
C861	C86	0.084100	0.470500	0.511300
C871	C87	0.036200	0.364400	0.504900
H291	H29	0.071900	0.296300	0.517200
C881	C88	0.920400	0.371100	0.475900
H301	H30	0.865000	0.309400	0.465500
C891	C89	0.907700	0.482900	0.466600
C901	C90	0.811500	0.547500	0.439600
C911	C91	0.352800	0.723200	0.203500
C921	C92	0.444900	0.749500	0.238600
C931	C93	0.493300	0.849100	0.251600
H311	H31	0.470300	0.922200	0.240500
C941	C94	0.585600	0.828000	0.284900
H321	H32	0.636700	0.884000	0.300100
C951	C95	0.587500	0.713800	0.291000
C961	C96	0.654200	0.642100	0.322700
