data_LARZEL_SL_part_PM
_symmetry_space_group_name_H-M	'P1'
_cell_length_a	16.318000
_cell_length_b	16.318000
_cell_length_c	6.508000
_cell_angle_alpha	90.000000
_cell_angle_beta	90.000000
_cell_angle_gamma	90.000000
_symmetry_Int_Tables_number 1

loop_
_symmetry_equiv_pos_as_xyz
'x,y,z'

loop_
_atom_site_label
_atom_site_type_symbol
_atom_site_fract_x
_atom_site_fract_y
_atom_site_fract_z
C11	C1	0.602200	0.784600	0.361600
C21	C2	0.542200	0.754000	0.210200
N31	N3	0.568600	0.714100	0.037500
O41	O4	0.676860	0.767150	0.326800
O51	O5	0.579300	0.825300	0.517100
C61	C6	0.397800	0.215400	0.361600
C71	C7	0.457800	0.246000	0.210200
N81	N8	0.431400	0.285900	0.037500
O91	O9	0.323140	0.232850	0.326800
O101	O10	0.420700	0.174700	0.517100
C111	C11	0.715400	0.102200	0.861600
C121	C12	0.746000	0.042200	0.710200
N131	N13	0.785900	0.068600	0.537500
O141	O14	0.732850	0.176860	0.826800
O151	O15	0.674700	0.079300	0.017100
C161	C16	0.284600	0.897800	0.861600
C171	C17	0.254000	0.957800	0.710200
N181	N18	0.214100	0.931400	0.537500
O191	O19	0.267150	0.823140	0.826800
O201	O20	0.325300	0.920700	0.017100
Cd211	Cd21	0.705380	0.294620	0.000000
C221	C22	0.500000	0.691600	0.937800
C231	C23	0.500000	0.641600	0.742900
C241	C24	0.500000	0.308400	0.937800
C251	C25	0.500000	0.358400	0.742900
H261	H26	0.564850	0.619320	0.709410
H271	H27	0.477540	0.681080	0.609800
H281	H28	0.457610	0.586610	0.762170
H291	H29	0.564850	0.361320	0.678180
H301	H30	0.477540	0.423070	0.777780
H311	H31	0.457610	0.328600	0.625420
C321	C32	0.784600	0.602200	0.638400
C331	C33	0.754000	0.542200	0.789800
N341	N34	0.714100	0.568600	0.962500
O351	O35	0.767150	0.676860	0.673200
O361	O36	0.825300	0.579300	0.482900
C371	C37	0.215400	0.397800	0.638400
C381	C38	0.246000	0.457800	0.789800
N391	N39	0.285900	0.431400	0.962500
O401	O40	0.232850	0.323140	0.673200
O411	O41	0.174700	0.420700	0.482900
C421	C42	0.102200	0.715400	0.138400
C431	C43	0.042200	0.746000	0.289800
N441	N44	0.068600	0.785900	0.462500
O451	O45	0.176860	0.732850	0.173200
O461	O46	0.079300	0.674700	0.982900
C471	C47	0.897800	0.284600	0.138400
C481	C48	0.957800	0.254000	0.289800
N491	N49	0.931400	0.214100	0.462500
O501	O50	0.823140	0.267150	0.173200
O511	O51	0.920700	0.325300	0.982900
Cd521	Cd52	0.294620	0.705380	0.000000
C531	C53	0.691600	0.500000	0.062200
C541	C54	0.641600	0.500000	0.257100
C551	C55	0.308400	0.500000	0.062200
C561	C56	0.358400	0.500000	0.257100
H571	H57	0.619320	0.564850	0.290590
H581	H58	0.681080	0.477540	0.390200
H591	H59	0.586610	0.457610	0.237830
H601	H60	0.361320	0.564850	0.321820
H611	H61	0.423070	0.477540	0.222220
H621	H62	0.328600	0.457610	0.374580
C631	C63	0.284600	0.102200	0.861600
C641	C64	0.254000	0.042200	0.710200
N651	N65	0.214100	0.068600	0.537500
O661	O66	0.267150	0.176860	0.826800
O671	O67	0.325300	0.079300	0.017100
C681	C68	0.715400	0.897800	0.861600
C691	C69	0.746000	0.957800	0.710200
N701	N70	0.785900	0.931400	0.537500
O711	O71	0.732850	0.823140	0.826800
O721	O72	0.674700	0.920700	0.017100
C731	C73	0.602200	0.215400	0.361600
C741	C74	0.542200	0.246000	0.210200
N751	N75	0.568600	0.285900	0.037500
O761	O76	0.676860	0.232850	0.326800
O771	O77	0.579300	0.174700	0.517100
C781	C78	0.397800	0.784600	0.361600
C791	C79	0.457800	0.754000	0.210200
N801	N80	0.431400	0.714100	0.037500
O811	O81	0.323140	0.767150	0.326800
O821	O82	0.420700	0.825300	0.517100
Cd831	Cd83	0.794620	0.205380	0.500000
C841	C84	0.191600	0.000000	0.437800
C851	C85	0.141600	0.000000	0.242900
C861	C86	0.808400	0.000000	0.437800
C871	C87	0.858400	0.000000	0.242900
H881	H88	0.119320	0.064850	0.209410
H891	H89	0.181080	0.977540	0.109800
H901	H90	0.086610	0.957610	0.262170
H911	H91	0.861320	0.064850	0.178180
H921	H92	0.923070	0.977540	0.277780
H931	H93	0.828600	0.957610	0.125420
C941	C94	0.102200	0.284600	0.138400
C951	C95	0.042200	0.254000	0.289800
N961	N96	0.068600	0.214100	0.462500
O971	O97	0.176860	0.267150	0.173200
O981	O98	0.079300	0.325300	0.982900
C991	C99	0.897800	0.715400	0.138400
C1001	C100	0.957800	0.746000	0.289800
N1011	N101	0.931400	0.785900	0.462500
O1021	O102	0.823140	0.732850	0.173200
O1031	O103	0.920700	0.674700	0.982900
C1041	C104	0.215400	0.602200	0.638400
C1051	C105	0.246000	0.542200	0.789800
N1061	N106	0.285900	0.568600	0.962500
O1071	O107	0.232850	0.676860	0.673200
O1081	O108	0.174700	0.579300	0.482900
C1091	C109	0.784600	0.397800	0.638400
C1101	C110	0.754000	0.457800	0.789800
N1111	N111	0.714100	0.431400	0.962500
O1121	O112	0.767150	0.323140	0.673200
O1131	O113	0.825300	0.420700	0.482900
Cd1141	Cd114	0.205380	0.794620	0.500000
C1151	C115	0.000000	0.191600	0.562200
C1161	C116	0.000000	0.141600	0.757100
C1171	C117	0.000000	0.808400	0.562200
C1181	C118	0.000000	0.858400	0.757100
H1191	H119	0.064850	0.119320	0.790590
H1201	H120	0.977540	0.181080	0.890200
H1211	H121	0.957610	0.086610	0.737830
H1221	H122	0.064850	0.861320	0.821820
H1231	H123	0.977540	0.923070	0.722220
H1241	H124	0.957610	0.828600	0.874580
Cd1251	Cd125	0.794620	0.794620	0.500000
Cd1261	Cd126	0.205380	0.205380	0.500000
Cd1271	Cd127	0.294620	0.294620	0.000000
Cd1281	Cd128	0.705380	0.705380	0.000000
