data_LASDEQ_clean_PM
_symmetry_space_group_name_H-M	'P1'
_cell_length_a	23.567000
_cell_length_b	23.567000
_cell_length_c	46.997000
_cell_angle_alpha	90.000000
_cell_angle_beta	90.000000
_cell_angle_gamma	90.000000
_symmetry_Int_Tables_number 1

loop_
_symmetry_equiv_pos_as_xyz
'x,y,z'

loop_
_atom_site_label
_atom_site_type_symbol
_atom_site_fract_x
_atom_site_fract_y
_atom_site_fract_z
Cu11	Cu1	0.684590	0.960640	0.159050
Cu21	Cu2	0.762730	0.969610	0.118890
Cu31	Cu3	0.315410	0.039360	0.159050
Cu41	Cu4	0.237270	0.030390	0.118890
Cu51	Cu5	0.039360	0.684590	0.159050
Cu61	Cu6	0.030390	0.762730	0.118890
Cu71	Cu7	0.960640	0.315410	0.159050
Cu81	Cu8	0.969610	0.237270	0.118890
Cu91	Cu9	0.315410	0.960640	0.340950
Cu101	Cu10	0.237270	0.969610	0.381110
Cu111	Cu11	0.684590	0.039360	0.340950
Cu121	Cu12	0.762730	0.030390	0.381110
Cu131	Cu13	0.960640	0.684590	0.340950
Cu141	Cu14	0.969610	0.762730	0.381110
Cu151	Cu15	0.039360	0.315410	0.340950
Cu161	Cu16	0.030390	0.237270	0.381110
Cu171	Cu17	0.315410	0.039360	0.840950
Cu181	Cu18	0.237270	0.030390	0.881110
Cu191	Cu19	0.684590	0.960640	0.840950
Cu201	Cu20	0.762730	0.969610	0.881110
Cu211	Cu21	0.960640	0.315410	0.840950
Cu221	Cu22	0.969610	0.237270	0.881110
Cu231	Cu23	0.039360	0.684590	0.840950
Cu241	Cu24	0.030390	0.762730	0.881110
Cu251	Cu25	0.684590	0.039360	0.659050
Cu261	Cu26	0.762730	0.030390	0.618890
Cu271	Cu27	0.315410	0.960640	0.659050
Cu281	Cu28	0.237270	0.969610	0.618890
Cu291	Cu29	0.039360	0.315410	0.659050
Cu301	Cu30	0.030390	0.237270	0.618890
Cu311	Cu31	0.960640	0.684590	0.659050
Cu321	Cu32	0.969610	0.762730	0.618890
Cu331	Cu33	0.786730	0.736270	0.000000
Cu341	Cu34	0.716930	0.648810	0.000000
Cu351	Cu35	0.213270	0.263730	0.000000
Cu361	Cu36	0.283070	0.351190	0.000000
Cu371	Cu37	0.263730	0.786730	0.000000
Cu381	Cu38	0.351190	0.716930	0.000000
Cu391	Cu39	0.736270	0.213270	0.000000
Cu401	Cu40	0.648810	0.283070	0.000000
Cu411	Cu41	0.213270	0.736270	0.500000
Cu421	Cu42	0.283070	0.648810	0.500000
Cu431	Cu43	0.786730	0.263730	0.500000
Cu441	Cu44	0.716930	0.351190	0.500000
Cu451	Cu45	0.736270	0.786730	0.500000
Cu461	Cu46	0.648810	0.716930	0.500000
Cu471	Cu47	0.263730	0.213270	0.500000
Cu481	Cu48	0.351190	0.283070	0.500000
H11	H1	0.714300	0.828700	0.068400
H21	H2	0.589800	0.714900	0.058200
H31	H3	0.578900	0.831700	0.120300
H41	H4	0.519700	0.755000	0.136400
H51	H5	0.461000	0.740300	0.122700
H61	H6	0.421200	0.904400	0.132500
H71	H7	0.435500	0.781500	0.074000
H81	H8	0.314200	0.900800	0.066600
H91	H9	0.901500	0.733800	0.212100
H101	H10	0.762700	0.831500	0.210200
H111	H11	0.882200	0.848900	0.150200
H121	H12	0.751400	0.731000	0.265000
H131	H13	0.285700	0.171300	0.068400
H141	H14	0.410200	0.285100	0.058200
H151	H15	0.421100	0.168300	0.120300
H161	H16	0.480300	0.245000	0.136400
H171	H17	0.539000	0.259700	0.122700
H181	H18	0.578800	0.095600	0.132500
H191	H19	0.564500	0.218500	0.074000
H201	H20	0.685800	0.099200	0.066600
H211	H21	0.098500	0.266200	0.212100
H221	H22	0.237300	0.168500	0.210200
H231	H23	0.117800	0.151100	0.150200
H241	H24	0.248600	0.269000	0.265000
H251	H25	0.171300	0.714300	0.068400
H261	H26	0.285100	0.589800	0.058200
H271	H27	0.168300	0.578900	0.120300
H281	H28	0.245000	0.519700	0.136400
H291	H29	0.259700	0.461000	0.122700
H301	H30	0.095600	0.421200	0.132500
H311	H31	0.218500	0.435500	0.074000
H321	H32	0.099200	0.314200	0.066600
H331	H33	0.266200	0.901500	0.212100
H341	H34	0.168500	0.762700	0.210200
H351	H35	0.151100	0.882200	0.150200
H361	H36	0.269000	0.751400	0.265000
H371	H37	0.828700	0.285700	0.068400
H381	H38	0.714900	0.410200	0.058200
H391	H39	0.831700	0.421100	0.120300
H401	H40	0.755000	0.480300	0.136400
H411	H41	0.740300	0.539000	0.122700
H421	H42	0.904400	0.578800	0.132500
H431	H43	0.781500	0.564500	0.074000
H441	H44	0.900800	0.685800	0.066600
H451	H45	0.733800	0.098500	0.212100
H461	H46	0.831500	0.237300	0.210200
H471	H47	0.848900	0.117800	0.150200
H481	H48	0.731000	0.248600	0.265000
H491	H49	0.285700	0.828700	0.431600
H501	H50	0.410200	0.714900	0.441800
H511	H51	0.421100	0.831700	0.379700
H521	H52	0.480300	0.755000	0.363600
H531	H53	0.539000	0.740300	0.377300
H541	H54	0.578800	0.904400	0.367500
H551	H55	0.564500	0.781500	0.426000
H561	H56	0.685800	0.900800	0.433400
H571	H57	0.098500	0.733800	0.287900
H581	H58	0.237300	0.831500	0.289800
H591	H59	0.117800	0.848900	0.349800
H601	H60	0.248600	0.731000	0.235000
H611	H61	0.714300	0.171300	0.431600
H621	H62	0.589800	0.285100	0.441800
H631	H63	0.578900	0.168300	0.379700
H641	H64	0.519700	0.245000	0.363600
H651	H65	0.461000	0.259700	0.377300
H661	H66	0.421200	0.095600	0.367500
H671	H67	0.435500	0.218500	0.426000
H681	H68	0.314200	0.099200	0.433400
H691	H69	0.901500	0.266200	0.287900
H701	H70	0.762700	0.168500	0.289800
H711	H71	0.882200	0.151100	0.349800
H721	H72	0.751400	0.269000	0.235000
H731	H73	0.828700	0.714300	0.431600
H741	H74	0.714900	0.589800	0.441800
H751	H75	0.831700	0.578900	0.379700
H761	H76	0.755000	0.519700	0.363600
H771	H77	0.740300	0.461000	0.377300
H781	H78	0.904400	0.421200	0.367500
H791	H79	0.781500	0.435500	0.426000
H801	H80	0.900800	0.314200	0.433400
H811	H81	0.733800	0.901500	0.287900
H821	H82	0.831500	0.762700	0.289800
H831	H83	0.848900	0.882200	0.349800
H841	H84	0.731000	0.751400	0.235000
H851	H85	0.171300	0.285700	0.431600
H861	H86	0.285100	0.410200	0.441800
H871	H87	0.168300	0.421100	0.379700
H881	H88	0.245000	0.480300	0.363600
H891	H89	0.259700	0.539000	0.377300
H901	H90	0.095600	0.578800	0.367500
H911	H91	0.218500	0.564500	0.426000
H921	H92	0.099200	0.685800	0.433400
H931	H93	0.266200	0.098500	0.287900
H941	H94	0.168500	0.237300	0.289800
H951	H95	0.151100	0.117800	0.349800
H961	H96	0.269000	0.248600	0.235000
H971	H97	0.285700	0.171300	0.931600
H981	H98	0.410200	0.285100	0.941800
H991	H99	0.421100	0.168300	0.879700
H1001	H100	0.480300	0.245000	0.863600
H1011	H101	0.539000	0.259700	0.877300
H1021	H102	0.578800	0.095600	0.867500
H1031	H103	0.564500	0.218500	0.926000
H1041	H104	0.685800	0.099200	0.933400
H1051	H105	0.098500	0.266200	0.787900
H1061	H106	0.237300	0.168500	0.789800
H1071	H107	0.117800	0.151100	0.849800
H1081	H108	0.248600	0.269000	0.735000
H1091	H109	0.714300	0.828700	0.931600
H1101	H110	0.589800	0.714900	0.941800
H1111	H111	0.578900	0.831700	0.879700
H1121	H112	0.519700	0.755000	0.863600
H1131	H113	0.461000	0.740300	0.877300
H1141	H114	0.421200	0.904400	0.867500
H1151	H115	0.435500	0.781500	0.926000
H1161	H116	0.314200	0.900800	0.933400
H1171	H117	0.901500	0.733800	0.787900
H1181	H118	0.762700	0.831500	0.789800
H1191	H119	0.882200	0.848900	0.849800
H1201	H120	0.751400	0.731000	0.735000
H1211	H121	0.828700	0.285700	0.931600
H1221	H122	0.714900	0.410200	0.941800
H1231	H123	0.831700	0.421100	0.879700
H1241	H124	0.755000	0.480300	0.863600
H1251	H125	0.740300	0.539000	0.877300
H1261	H126	0.904400	0.578800	0.867500
H1271	H127	0.781500	0.564500	0.926000
H1281	H128	0.900800	0.685800	0.933400
H1291	H129	0.733800	0.098500	0.787900
H1301	H130	0.831500	0.237300	0.789800
H1311	H131	0.848900	0.117800	0.849800
H1321	H132	0.731000	0.248600	0.735000
H1331	H133	0.171300	0.714300	0.931600
H1341	H134	0.285100	0.589800	0.941800
H1351	H135	0.168300	0.578900	0.879700
H1361	H136	0.245000	0.519700	0.863600
H1371	H137	0.259700	0.461000	0.877300
H1381	H138	0.095600	0.421200	0.867500
H1391	H139	0.218500	0.435500	0.926000
H1401	H140	0.099200	0.314200	0.933400
H1411	H141	0.266200	0.901500	0.787900
H1421	H142	0.168500	0.762700	0.789800
H1431	H143	0.151100	0.882200	0.849800
H1441	H144	0.269000	0.751400	0.735000
H1451	H145	0.714300	0.171300	0.568400
H1461	H146	0.589800	0.285100	0.558200
H1471	H147	0.578900	0.168300	0.620300
H1481	H148	0.519700	0.245000	0.636400
H1491	H149	0.461000	0.259700	0.622700
H1501	H150	0.421200	0.095600	0.632500
H1511	H151	0.435500	0.218500	0.574000
H1521	H152	0.314200	0.099200	0.566600
H1531	H153	0.901500	0.266200	0.712100
H1541	H154	0.762700	0.168500	0.710200
H1551	H155	0.882200	0.151100	0.650200
H1561	H156	0.751400	0.269000	0.765000
H1571	H157	0.285700	0.828700	0.568400
H1581	H158	0.410200	0.714900	0.558200
H1591	H159	0.421100	0.831700	0.620300
H1601	H160	0.480300	0.755000	0.636400
H1611	H161	0.539000	0.740300	0.622700
H1621	H162	0.578800	0.904400	0.632500
H1631	H163	0.564500	0.781500	0.574000
H1641	H164	0.685800	0.900800	0.566600
H1651	H165	0.098500	0.733800	0.712100
H1661	H166	0.237300	0.831500	0.710200
H1671	H167	0.117800	0.848900	0.650200
H1681	H168	0.248600	0.731000	0.765000
H1691	H169	0.171300	0.285700	0.568400
H1701	H170	0.285100	0.410200	0.558200
H1711	H171	0.168300	0.421100	0.620300
H1721	H172	0.245000	0.480300	0.636400
H1731	H173	0.259700	0.539000	0.622700
H1741	H174	0.095600	0.578800	0.632500
H1751	H175	0.218500	0.564500	0.574000
H1761	H176	0.099200	0.685800	0.566600
H1771	H177	0.266200	0.098500	0.712100
H1781	H178	0.168500	0.237300	0.710200
H1791	H179	0.151100	0.117800	0.650200
H1801	H180	0.269000	0.248600	0.765000
H1811	H181	0.828700	0.714300	0.568400
H1821	H182	0.714900	0.589800	0.558200
H1831	H183	0.831700	0.578900	0.620300
H1841	H184	0.755000	0.519700	0.636400
H1851	H185	0.740300	0.461000	0.622700
H1861	H186	0.904400	0.421200	0.632500
H1871	H187	0.781500	0.435500	0.574000
H1881	H188	0.900800	0.314200	0.566600
H1891	H189	0.733800	0.901500	0.712100
H1901	H190	0.831500	0.762700	0.710200
H1911	H191	0.848900	0.882200	0.650200
H1921	H192	0.731000	0.751400	0.765000
C11	C1	0.676280	0.885770	0.112640
C21	C2	0.651340	0.837000	0.096730
C31	C3	0.679890	0.813280	0.074300
C41	C4	0.657680	0.766410	0.060320
C51	C5	0.691760	0.737620	0.037600
C61	C6	0.605170	0.745810	0.067870
C71	C7	0.574880	0.771300	0.090010
C81	C8	0.598160	0.815820	0.104950
C91	C9	0.494600	0.763600	0.120640
C101	C10	0.332270	0.959820	0.113930
C111	C11	0.363010	0.909830	0.101220
C121	C12	0.408510	0.887040	0.115900
C131	C13	0.434820	0.839140	0.106170
C141	C14	0.417130	0.813520	0.080930
C151	C15	0.371270	0.837130	0.066390
C161	C16	0.349670	0.808150	0.039790
C171	C17	0.344540	0.885180	0.076490
C181	C18	0.953350	0.767400	0.165020
C191	C19	0.899940	0.787960	0.178940
C201	C20	0.880200	0.762270	0.203460
C211	C21	0.829380	0.778610	0.215060
C221	C22	0.797320	0.820760	0.202420
C231	C23	0.868600	0.830840	0.166460
C241	C24	0.817440	0.846840	0.177930
C251	C25	0.782860	0.892300	0.164030
C261	C26	0.323720	0.114230	0.112640
C271	C27	0.348660	0.163000	0.096730
C281	C28	0.320110	0.186720	0.074300
C291	C29	0.342320	0.233590	0.060320
C301	C30	0.308240	0.262380	0.037600
C311	C31	0.394830	0.254190	0.067870
C321	C32	0.425120	0.228700	0.090010
C331	C33	0.401840	0.184180	0.104950
C341	C34	0.505400	0.236400	0.120640
C351	C35	0.667730	0.040180	0.113930
C361	C36	0.636990	0.090170	0.101220
C371	C37	0.591490	0.112960	0.115900
C381	C38	0.565180	0.160860	0.106170
C391	C39	0.582870	0.186480	0.080930
C401	C40	0.628730	0.162870	0.066390
C411	C41	0.650330	0.191850	0.039790
C421	C42	0.655460	0.114820	0.076490
C431	C43	0.046650	0.232600	0.165020
C441	C44	0.100060	0.212040	0.178940
C451	C45	0.119800	0.237730	0.203460
C461	C46	0.170620	0.221390	0.215060
C471	C47	0.202680	0.179240	0.202420
C481	C48	0.131400	0.169160	0.166460
C491	C49	0.182560	0.153160	0.177930
C501	C50	0.217140	0.107700	0.164030
C511	C51	0.114230	0.676280	0.112640
C521	C52	0.163000	0.651340	0.096730
C531	C53	0.186720	0.679890	0.074300
C541	C54	0.233590	0.657680	0.060320
C551	C55	0.262380	0.691760	0.037600
C561	C56	0.254190	0.605170	0.067870
C571	C57	0.228700	0.574880	0.090010
C581	C58	0.184180	0.598160	0.104950
C591	C59	0.236400	0.494600	0.120640
C601	C60	0.040180	0.332270	0.113930
C611	C61	0.090170	0.363010	0.101220
C621	C62	0.112960	0.408510	0.115900
C631	C63	0.160860	0.434820	0.106170
C641	C64	0.186480	0.417130	0.080930
C651	C65	0.162870	0.371270	0.066390
C661	C66	0.191850	0.349670	0.039790
C671	C67	0.114820	0.344540	0.076490
C681	C68	0.232600	0.953350	0.165020
C691	C69	0.212040	0.899940	0.178940
C701	C70	0.237730	0.880200	0.203460
C711	C71	0.221390	0.829380	0.215060
C721	C72	0.179240	0.797320	0.202420
C731	C73	0.169160	0.868600	0.166460
C741	C74	0.153160	0.817440	0.177930
C751	C75	0.107700	0.782860	0.164030
C761	C76	0.885770	0.323720	0.112640
C771	C77	0.837000	0.348660	0.096730
C781	C78	0.813280	0.320110	0.074300
C791	C79	0.766410	0.342320	0.060320
C801	C80	0.737620	0.308240	0.037600
C811	C81	0.745810	0.394830	0.067870
C821	C82	0.771300	0.425120	0.090010
C831	C83	0.815820	0.401840	0.104950
C841	C84	0.763600	0.505400	0.120640
C851	C85	0.959820	0.667730	0.113930
C861	C86	0.909830	0.636990	0.101220
C871	C87	0.887040	0.591490	0.115900
C881	C88	0.839140	0.565180	0.106170
C891	C89	0.813520	0.582870	0.080930
C901	C90	0.837130	0.628730	0.066390
C911	C91	0.808150	0.650330	0.039790
C921	C92	0.885180	0.655460	0.076490
C931	C93	0.767400	0.046650	0.165020
C941	C94	0.787960	0.100060	0.178940
C951	C95	0.762270	0.119800	0.203460
C961	C96	0.778610	0.170620	0.215060
C971	C97	0.820760	0.202680	0.202420
C981	C98	0.830840	0.131400	0.166460
C991	C99	0.846840	0.182560	0.177930
C1001	C100	0.892300	0.217140	0.164030
C1011	C101	0.323720	0.885770	0.387360
C1021	C102	0.348660	0.837000	0.403270
C1031	C103	0.320110	0.813280	0.425700
C1041	C104	0.342320	0.766410	0.439680
C1051	C105	0.308240	0.737620	0.462400
C1061	C106	0.394830	0.745810	0.432130
C1071	C107	0.425120	0.771300	0.409990
C1081	C108	0.401840	0.815820	0.395050
C1091	C109	0.505400	0.763600	0.379360
C1101	C110	0.667730	0.959820	0.386070
C1111	C111	0.636990	0.909830	0.398780
C1121	C112	0.591490	0.887040	0.384100
C1131	C113	0.565180	0.839140	0.393830
C1141	C114	0.582870	0.813520	0.419070
C1151	C115	0.628730	0.837130	0.433610
C1161	C116	0.650330	0.808150	0.460210
C1171	C117	0.655460	0.885180	0.423510
C1181	C118	0.046650	0.767400	0.334980
C1191	C119	0.100060	0.787960	0.321060
C1201	C120	0.119800	0.762270	0.296540
C1211	C121	0.170620	0.778610	0.284940
C1221	C122	0.202680	0.820760	0.297580
C1231	C123	0.131400	0.830840	0.333540
C1241	C124	0.182560	0.846840	0.322070
C1251	C125	0.217140	0.892300	0.335970
C1261	C126	0.676280	0.114230	0.387360
C1271	C127	0.651340	0.163000	0.403270
C1281	C128	0.679890	0.186720	0.425700
C1291	C129	0.657680	0.233590	0.439680
C1301	C130	0.691760	0.262380	0.462400
C1311	C131	0.605170	0.254190	0.432130
C1321	C132	0.574880	0.228700	0.409990
C1331	C133	0.598160	0.184180	0.395050
C1341	C134	0.494600	0.236400	0.379360
C1351	C135	0.332270	0.040180	0.386070
C1361	C136	0.363010	0.090170	0.398780
C1371	C137	0.408510	0.112960	0.384100
C1381	C138	0.434820	0.160860	0.393830
C1391	C139	0.417130	0.186480	0.419070
C1401	C140	0.371270	0.162870	0.433610
C1411	C141	0.349670	0.191850	0.460210
C1421	C142	0.344540	0.114820	0.423510
C1431	C143	0.953350	0.232600	0.334980
C1441	C144	0.899940	0.212040	0.321060
C1451	C145	0.880200	0.237730	0.296540
C1461	C146	0.829380	0.221390	0.284940
C1471	C147	0.797320	0.179240	0.297580
C1481	C148	0.868600	0.169160	0.333540
C1491	C149	0.817440	0.153160	0.322070
C1501	C150	0.782860	0.107700	0.335970
C1511	C151	0.885770	0.676280	0.387360
C1521	C152	0.837000	0.651340	0.403270
C1531	C153	0.813280	0.679890	0.425700
C1541	C154	0.766410	0.657680	0.439680
C1551	C155	0.737620	0.691760	0.462400
C1561	C156	0.745810	0.605170	0.432130
C1571	C157	0.771300	0.574880	0.409990
C1581	C158	0.815820	0.598160	0.395050
C1591	C159	0.763600	0.494600	0.379360
C1601	C160	0.959820	0.332270	0.386070
C1611	C161	0.909830	0.363010	0.398780
C1621	C162	0.887040	0.408510	0.384100
C1631	C163	0.839140	0.434820	0.393830
C1641	C164	0.813520	0.417130	0.419070
C1651	C165	0.837130	0.371270	0.433610
C1661	C166	0.808150	0.349670	0.460210
C1671	C167	0.885180	0.344540	0.423510
C1681	C168	0.767400	0.953350	0.334980
C1691	C169	0.787960	0.899940	0.321060
C1701	C170	0.762270	0.880200	0.296540
C1711	C171	0.778610	0.829380	0.284940
C1721	C172	0.820760	0.797320	0.297580
C1731	C173	0.830840	0.868600	0.333540
C1741	C174	0.846840	0.817440	0.322070
C1751	C175	0.892300	0.782860	0.335970
C1761	C176	0.114230	0.323720	0.387360
C1771	C177	0.163000	0.348660	0.403270
C1781	C178	0.186720	0.320110	0.425700
C1791	C179	0.233590	0.342320	0.439680
C1801	C180	0.262380	0.308240	0.462400
C1811	C181	0.254190	0.394830	0.432130
C1821	C182	0.228700	0.425120	0.409990
C1831	C183	0.184180	0.401840	0.395050
C1841	C184	0.236400	0.505400	0.379360
C1851	C185	0.040180	0.667730	0.386070
C1861	C186	0.090170	0.636990	0.398780
C1871	C187	0.112960	0.591490	0.384100
C1881	C188	0.160860	0.565180	0.393830
C1891	C189	0.186480	0.582870	0.419070
C1901	C190	0.162870	0.628730	0.433610
C1911	C191	0.191850	0.650330	0.460210
C1921	C192	0.114820	0.655460	0.423510
C1931	C193	0.232600	0.046650	0.334980
C1941	C194	0.212040	0.100060	0.321060
C1951	C195	0.237730	0.119800	0.296540
C1961	C196	0.221390	0.170620	0.284940
C1971	C197	0.179240	0.202680	0.297580
C1981	C198	0.169160	0.131400	0.333540
C1991	C199	0.153160	0.182560	0.322070
C2001	C200	0.107700	0.217140	0.335970
C2011	C201	0.323720	0.114230	0.887360
C2021	C202	0.348660	0.163000	0.903270
C2031	C203	0.320110	0.186720	0.925700
C2041	C204	0.342320	0.233590	0.939680
C2051	C205	0.308240	0.262380	0.962400
C2061	C206	0.394830	0.254190	0.932130
C2071	C207	0.425120	0.228700	0.909990
C2081	C208	0.401840	0.184180	0.895050
C2091	C209	0.505400	0.236400	0.879360
C2101	C210	0.667730	0.040180	0.886070
C2111	C211	0.636990	0.090170	0.898780
C2121	C212	0.591490	0.112960	0.884100
C2131	C213	0.565180	0.160860	0.893830
C2141	C214	0.582870	0.186480	0.919070
C2151	C215	0.628730	0.162870	0.933610
C2161	C216	0.650330	0.191850	0.960210
C2171	C217	0.655460	0.114820	0.923510
C2181	C218	0.046650	0.232600	0.834980
C2191	C219	0.100060	0.212040	0.821060
C2201	C220	0.119800	0.237730	0.796540
C2211	C221	0.170620	0.221390	0.784940
C2221	C222	0.202680	0.179240	0.797580
C2231	C223	0.131400	0.169160	0.833540
C2241	C224	0.182560	0.153160	0.822070
C2251	C225	0.217140	0.107700	0.835970
C2261	C226	0.676280	0.885770	0.887360
C2271	C227	0.651340	0.837000	0.903270
C2281	C228	0.679890	0.813280	0.925700
C2291	C229	0.657680	0.766410	0.939680
C2301	C230	0.691760	0.737620	0.962400
C2311	C231	0.605170	0.745810	0.932130
C2321	C232	0.574880	0.771300	0.909990
C2331	C233	0.598160	0.815820	0.895050
C2341	C234	0.494600	0.763600	0.879360
C2351	C235	0.332270	0.959820	0.886070
C2361	C236	0.363010	0.909830	0.898780
C2371	C237	0.408510	0.887040	0.884100
C2381	C238	0.434820	0.839140	0.893830
C2391	C239	0.417130	0.813520	0.919070
C2401	C240	0.371270	0.837130	0.933610
C2411	C241	0.349670	0.808150	0.960210
C2421	C242	0.344540	0.885180	0.923510
C2431	C243	0.953350	0.767400	0.834980
C2441	C244	0.899940	0.787960	0.821060
C2451	C245	0.880200	0.762270	0.796540
C2461	C246	0.829380	0.778610	0.784940
C2471	C247	0.797320	0.820760	0.797580
C2481	C248	0.868600	0.830840	0.833540
C2491	C249	0.817440	0.846840	0.822070
C2501	C250	0.782860	0.892300	0.835970
C2511	C251	0.885770	0.323720	0.887360
C2521	C252	0.837000	0.348660	0.903270
C2531	C253	0.813280	0.320110	0.925700
C2541	C254	0.766410	0.342320	0.939680
C2551	C255	0.737620	0.308240	0.962400
C2561	C256	0.745810	0.394830	0.932130
C2571	C257	0.771300	0.425120	0.909990
C2581	C258	0.815820	0.401840	0.895050
C2591	C259	0.763600	0.505400	0.879360
C2601	C260	0.959820	0.667730	0.886070
C2611	C261	0.909830	0.636990	0.898780
C2621	C262	0.887040	0.591490	0.884100
C2631	C263	0.839140	0.565180	0.893830
C2641	C264	0.813520	0.582870	0.919070
C2651	C265	0.837130	0.628730	0.933610
C2661	C266	0.808150	0.650330	0.960210
C2671	C267	0.885180	0.655460	0.923510
C2681	C268	0.767400	0.046650	0.834980
C2691	C269	0.787960	0.100060	0.821060
C2701	C270	0.762270	0.119800	0.796540
C2711	C271	0.778610	0.170620	0.784940
C2721	C272	0.820760	0.202680	0.797580
C2731	C273	0.830840	0.131400	0.833540
C2741	C274	0.846840	0.182560	0.822070
C2751	C275	0.892300	0.217140	0.835970
C2761	C276	0.114230	0.676280	0.887360
C2771	C277	0.163000	0.651340	0.903270
C2781	C278	0.186720	0.679890	0.925700
C2791	C279	0.233590	0.657680	0.939680
C2801	C280	0.262380	0.691760	0.962400
C2811	C281	0.254190	0.605170	0.932130
C2821	C282	0.228700	0.574880	0.909990
C2831	C283	0.184180	0.598160	0.895050
C2841	C284	0.236400	0.494600	0.879360
C2851	C285	0.040180	0.332270	0.886070
C2861	C286	0.090170	0.363010	0.898780
C2871	C287	0.112960	0.408510	0.884100
C2881	C288	0.160860	0.434820	0.893830
C2891	C289	0.186480	0.417130	0.919070
C2901	C290	0.162870	0.371270	0.933610
C2911	C291	0.191850	0.349670	0.960210
C2921	C292	0.114820	0.344540	0.923510
C2931	C293	0.232600	0.953350	0.834980
C2941	C294	0.212040	0.899940	0.821060
C2951	C295	0.237730	0.880200	0.796540
C2961	C296	0.221390	0.829380	0.784940
C2971	C297	0.179240	0.797320	0.797580
C2981	C298	0.169160	0.868600	0.833540
C2991	C299	0.153160	0.817440	0.822070
C3001	C300	0.107700	0.782860	0.835970
C3011	C301	0.676280	0.114230	0.612640
C3021	C302	0.651340	0.163000	0.596730
C3031	C303	0.679890	0.186720	0.574300
C3041	C304	0.657680	0.233590	0.560320
C3051	C305	0.691760	0.262380	0.537600
C3061	C306	0.605170	0.254190	0.567870
C3071	C307	0.574880	0.228700	0.590010
C3081	C308	0.598160	0.184180	0.604950
C3091	C309	0.494600	0.236400	0.620640
C3101	C310	0.332270	0.040180	0.613930
C3111	C311	0.363010	0.090170	0.601220
C3121	C312	0.408510	0.112960	0.615900
C3131	C313	0.434820	0.160860	0.606170
C3141	C314	0.417130	0.186480	0.580930
C3151	C315	0.371270	0.162870	0.566390
C3161	C316	0.349670	0.191850	0.539790
C3171	C317	0.344540	0.114820	0.576490
C3181	C318	0.953350	0.232600	0.665020
C3191	C319	0.899940	0.212040	0.678940
C3201	C320	0.880200	0.237730	0.703460
C3211	C321	0.829380	0.221390	0.715060
C3221	C322	0.797320	0.179240	0.702420
C3231	C323	0.868600	0.169160	0.666460
C3241	C324	0.817440	0.153160	0.677930
C3251	C325	0.782860	0.107700	0.664030
C3261	C326	0.323720	0.885770	0.612640
C3271	C327	0.348660	0.837000	0.596730
C3281	C328	0.320110	0.813280	0.574300
C3291	C329	0.342320	0.766410	0.560320
C3301	C330	0.308240	0.737620	0.537600
C3311	C331	0.394830	0.745810	0.567870
C3321	C332	0.425120	0.771300	0.590010
C3331	C333	0.401840	0.815820	0.604950
C3341	C334	0.505400	0.763600	0.620640
C3351	C335	0.667730	0.959820	0.613930
C3361	C336	0.636990	0.909830	0.601220
C3371	C337	0.591490	0.887040	0.615900
C3381	C338	0.565180	0.839140	0.606170
C3391	C339	0.582870	0.813520	0.580930
C3401	C340	0.628730	0.837130	0.566390
C3411	C341	0.650330	0.808150	0.539790
C3421	C342	0.655460	0.885180	0.576490
C3431	C343	0.046650	0.767400	0.665020
C3441	C344	0.100060	0.787960	0.678940
C3451	C345	0.119800	0.762270	0.703460
C3461	C346	0.170620	0.778610	0.715060
C3471	C347	0.202680	0.820760	0.702420
C3481	C348	0.131400	0.830840	0.666460
C3491	C349	0.182560	0.846840	0.677930
C3501	C350	0.217140	0.892300	0.664030
C3511	C351	0.114230	0.323720	0.612640
C3521	C352	0.163000	0.348660	0.596730
C3531	C353	0.186720	0.320110	0.574300
C3541	C354	0.233590	0.342320	0.560320
C3551	C355	0.262380	0.308240	0.537600
C3561	C356	0.254190	0.394830	0.567870
C3571	C357	0.228700	0.425120	0.590010
C3581	C358	0.184180	0.401840	0.604950
C3591	C359	0.236400	0.505400	0.620640
C3601	C360	0.040180	0.667730	0.613930
C3611	C361	0.090170	0.636990	0.601220
C3621	C362	0.112960	0.591490	0.615900
C3631	C363	0.160860	0.565180	0.606170
C3641	C364	0.186480	0.582870	0.580930
C3651	C365	0.162870	0.628730	0.566390
C3661	C366	0.191850	0.650330	0.539790
C3671	C367	0.114820	0.655460	0.576490
C3681	C368	0.232600	0.046650	0.665020
C3691	C369	0.212040	0.100060	0.678940
C3701	C370	0.237730	0.119800	0.703460
C3711	C371	0.221390	0.170620	0.715060
C3721	C372	0.179240	0.202680	0.702420
C3731	C373	0.169160	0.131400	0.666460
C3741	C374	0.153160	0.182560	0.677930
C3751	C375	0.107700	0.217140	0.664030
C3761	C376	0.885770	0.676280	0.612640
C3771	C377	0.837000	0.651340	0.596730
C3781	C378	0.813280	0.679890	0.574300
C3791	C379	0.766410	0.657680	0.560320
C3801	C380	0.737620	0.691760	0.537600
C3811	C381	0.745810	0.605170	0.567870
C3821	C382	0.771300	0.574880	0.590010
C3831	C383	0.815820	0.598160	0.604950
C3841	C384	0.763600	0.494600	0.620640
C3851	C385	0.959820	0.332270	0.613930
C3861	C386	0.909830	0.363010	0.601220
C3871	C387	0.887040	0.408510	0.615900
C3881	C388	0.839140	0.434820	0.606170
C3891	C389	0.813520	0.417130	0.580930
C3901	C390	0.837130	0.371270	0.566390
C3911	C391	0.808150	0.349670	0.539790
C3921	C392	0.885180	0.344540	0.576490
C3931	C393	0.767400	0.953350	0.665020
C3941	C394	0.787960	0.899940	0.678940
C3951	C395	0.762270	0.880200	0.703460
C3961	C396	0.778610	0.829380	0.715060
C3971	C397	0.820760	0.797320	0.702420
C3981	C398	0.830840	0.868600	0.666460
C3991	C399	0.846840	0.817440	0.677930
C4001	C400	0.892300	0.782860	0.664030
C4011	C401	0.758400	0.758400	0.250000
C4021	C402	0.241600	0.241600	0.250000
C4031	C403	0.241600	0.758400	0.250000
C4041	C404	0.758400	0.241600	0.250000
C4051	C405	0.241600	0.241600	0.750000
C4061	C406	0.758400	0.758400	0.750000
C4071	C407	0.758400	0.241600	0.750000
C4081	C408	0.241600	0.758400	0.750000
O11	O1	0.650760	0.902580	0.134190
O21	O2	0.722010	0.905240	0.102860
O31	O3	0.735070	0.763750	0.029210
O41	O4	0.674570	0.690650	0.028530
O51	O5	0.351200	0.979650	0.136760
O61	O6	0.290070	0.977970	0.100410
O71	O7	0.377960	0.767590	0.030660
O81	O8	0.305190	0.827520	0.029840
O91	O9	0.522440	0.748390	0.094780
O101	O10	0.479070	0.819720	0.122220
O111	O11	0.980480	0.729090	0.177520
O121	O12	0.966500	0.789570	0.141800
O131	O13	0.734710	0.902250	0.174560
O141	O14	0.804330	0.916600	0.143050
O151	O15	0.813850	0.749370	0.238970
O161	O16	0.349240	0.097420	0.134190
O171	O17	0.277990	0.094760	0.102860
O181	O18	0.264930	0.236250	0.029210
O191	O19	0.325430	0.309350	0.028530
O201	O20	0.648800	0.020350	0.136760
O211	O21	0.709930	0.022030	0.100410
O221	O22	0.622040	0.232410	0.030660
O231	O23	0.694810	0.172480	0.029840
O241	O24	0.477560	0.251610	0.094780
O251	O25	0.520930	0.180280	0.122220
O261	O26	0.019520	0.270910	0.177520
O271	O27	0.033500	0.210430	0.141800
O281	O28	0.265290	0.097750	0.174560
O291	O29	0.195670	0.083400	0.143050
O301	O30	0.186150	0.250630	0.238970
O311	O31	0.097420	0.650760	0.134190
O321	O32	0.094760	0.722010	0.102860
O331	O33	0.236250	0.735070	0.029210
O341	O34	0.309350	0.674570	0.028530
O351	O35	0.020350	0.351200	0.136760
O361	O36	0.022030	0.290070	0.100410
O371	O37	0.232410	0.377960	0.030660
O381	O38	0.172480	0.305190	0.029840
O391	O39	0.251610	0.522440	0.094780
O401	O40	0.180280	0.479070	0.122220
O411	O41	0.270910	0.980480	0.177520
O421	O42	0.210430	0.966500	0.141800
O431	O43	0.097750	0.734710	0.174560
O441	O44	0.083400	0.804330	0.143050
O451	O45	0.250630	0.813850	0.238970
O461	O46	0.902580	0.349240	0.134190
O471	O47	0.905240	0.277990	0.102860
O481	O48	0.763750	0.264930	0.029210
O491	O49	0.690650	0.325430	0.028530
O501	O50	0.979650	0.648800	0.136760
O511	O51	0.977970	0.709930	0.100410
O521	O52	0.767590	0.622040	0.030660
O531	O53	0.827520	0.694810	0.029840
O541	O54	0.748390	0.477560	0.094780
O551	O55	0.819720	0.520930	0.122220
O561	O56	0.729090	0.019520	0.177520
O571	O57	0.789570	0.033500	0.141800
O581	O58	0.902250	0.265290	0.174560
O591	O59	0.916600	0.195670	0.143050
O601	O60	0.749370	0.186150	0.238970
O611	O61	0.349240	0.902580	0.365810
O621	O62	0.277990	0.905240	0.397140
O631	O63	0.264930	0.763750	0.470790
O641	O64	0.325430	0.690650	0.471470
O651	O65	0.648800	0.979650	0.363240
O661	O66	0.709930	0.977970	0.399590
O671	O67	0.622040	0.767590	0.469340
O681	O68	0.694810	0.827520	0.470160
O691	O69	0.477560	0.748390	0.405220
O701	O70	0.520930	0.819720	0.377780
O711	O71	0.019520	0.729090	0.322480
O721	O72	0.033500	0.789570	0.358200
O731	O73	0.265290	0.902250	0.325440
O741	O74	0.195670	0.916600	0.356950
O751	O75	0.186150	0.749370	0.261030
O761	O76	0.650760	0.097420	0.365810
O771	O77	0.722010	0.094760	0.397140
O781	O78	0.735070	0.236250	0.470790
O791	O79	0.674570	0.309350	0.471470
O801	O80	0.351200	0.020350	0.363240
O811	O81	0.290070	0.022030	0.399590
O821	O82	0.377960	0.232410	0.469340
O831	O83	0.305190	0.172480	0.470160
O841	O84	0.522440	0.251610	0.405220
O851	O85	0.479070	0.180280	0.377780
O861	O86	0.980480	0.270910	0.322480
O871	O87	0.966500	0.210430	0.358200
O881	O88	0.734710	0.097750	0.325440
O891	O89	0.804330	0.083400	0.356950
O901	O90	0.813850	0.250630	0.261030
O911	O91	0.902580	0.650760	0.365810
O921	O92	0.905240	0.722010	0.397140
O931	O93	0.763750	0.735070	0.470790
O941	O94	0.690650	0.674570	0.471470
O951	O95	0.979650	0.351200	0.363240
O961	O96	0.977970	0.290070	0.399590
O971	O97	0.767590	0.377960	0.469340
O981	O98	0.827520	0.305190	0.470160
O991	O99	0.748390	0.522440	0.405220
O1001	O100	0.819720	0.479070	0.377780
O1011	O101	0.729090	0.980480	0.322480
O1021	O102	0.789570	0.966500	0.358200
O1031	O103	0.902250	0.734710	0.325440
O1041	O104	0.916600	0.804330	0.356950
O1051	O105	0.749370	0.813850	0.261030
O1061	O106	0.097420	0.349240	0.365810
O1071	O107	0.094760	0.277990	0.397140
O1081	O108	0.236250	0.264930	0.470790
O1091	O109	0.309350	0.325430	0.471470
O1101	O110	0.020350	0.648800	0.363240
O1111	O111	0.022030	0.709930	0.399590
O1121	O112	0.232410	0.622040	0.469340
O1131	O113	0.172480	0.694810	0.470160
O1141	O114	0.251610	0.477560	0.405220
O1151	O115	0.180280	0.520930	0.377780
O1161	O116	0.270910	0.019520	0.322480
O1171	O117	0.210430	0.033500	0.358200
O1181	O118	0.097750	0.265290	0.325440
O1191	O119	0.083400	0.195670	0.356950
O1201	O120	0.250630	0.186150	0.261030
O1211	O121	0.349240	0.097420	0.865810
O1221	O122	0.277990	0.094760	0.897140
O1231	O123	0.264930	0.236250	0.970790
O1241	O124	0.325430	0.309350	0.971470
O1251	O125	0.648800	0.020350	0.863240
O1261	O126	0.709930	0.022030	0.899590
O1271	O127	0.622040	0.232410	0.969340
O1281	O128	0.694810	0.172480	0.970160
O1291	O129	0.477560	0.251610	0.905220
O1301	O130	0.520930	0.180280	0.877780
O1311	O131	0.019520	0.270910	0.822480
O1321	O132	0.033500	0.210430	0.858200
O1331	O133	0.265290	0.097750	0.825440
O1341	O134	0.195670	0.083400	0.856950
O1351	O135	0.186150	0.250630	0.761030
O1361	O136	0.650760	0.902580	0.865810
O1371	O137	0.722010	0.905240	0.897140
O1381	O138	0.735070	0.763750	0.970790
O1391	O139	0.674570	0.690650	0.971470
O1401	O140	0.351200	0.979650	0.863240
O1411	O141	0.290070	0.977970	0.899590
O1421	O142	0.377960	0.767590	0.969340
O1431	O143	0.305190	0.827520	0.970160
O1441	O144	0.522440	0.748390	0.905220
O1451	O145	0.479070	0.819720	0.877780
O1461	O146	0.980480	0.729090	0.822480
O1471	O147	0.966500	0.789570	0.858200
O1481	O148	0.734710	0.902250	0.825440
O1491	O149	0.804330	0.916600	0.856950
O1501	O150	0.813850	0.749370	0.761030
O1511	O151	0.902580	0.349240	0.865810
O1521	O152	0.905240	0.277990	0.897140
O1531	O153	0.763750	0.264930	0.970790
O1541	O154	0.690650	0.325430	0.971470
O1551	O155	0.979650	0.648800	0.863240
O1561	O156	0.977970	0.709930	0.899590
O1571	O157	0.767590	0.622040	0.969340
O1581	O158	0.827520	0.694810	0.970160
O1591	O159	0.748390	0.477560	0.905220
O1601	O160	0.819720	0.520930	0.877780
O1611	O161	0.729090	0.019520	0.822480
O1621	O162	0.789570	0.033500	0.858200
O1631	O163	0.902250	0.265290	0.825440
O1641	O164	0.916600	0.195670	0.856950
O1651	O165	0.749370	0.186150	0.761030
O1661	O166	0.097420	0.650760	0.865810
O1671	O167	0.094760	0.722010	0.897140
O1681	O168	0.236250	0.735070	0.970790
O1691	O169	0.309350	0.674570	0.971470
O1701	O170	0.020350	0.351200	0.863240
O1711	O171	0.022030	0.290070	0.899590
O1721	O172	0.232410	0.377960	0.969340
O1731	O173	0.172480	0.305190	0.970160
O1741	O174	0.251610	0.522440	0.905220
O1751	O175	0.180280	0.479070	0.877780
O1761	O176	0.270910	0.980480	0.822480
O1771	O177	0.210430	0.966500	0.858200
O1781	O178	0.097750	0.734710	0.825440
O1791	O179	0.083400	0.804330	0.856950
O1801	O180	0.250630	0.813850	0.761030
O1811	O181	0.650760	0.097420	0.634190
O1821	O182	0.722010	0.094760	0.602860
O1831	O183	0.735070	0.236250	0.529210
O1841	O184	0.674570	0.309350	0.528530
O1851	O185	0.351200	0.020350	0.636760
O1861	O186	0.290070	0.022030	0.600410
O1871	O187	0.377960	0.232410	0.530660
O1881	O188	0.305190	0.172480	0.529840
O1891	O189	0.522440	0.251610	0.594780
O1901	O190	0.479070	0.180280	0.622220
O1911	O191	0.980480	0.270910	0.677520
O1921	O192	0.966500	0.210430	0.641800
O1931	O193	0.734710	0.097750	0.674560
O1941	O194	0.804330	0.083400	0.643050
O1951	O195	0.813850	0.250630	0.738970
O1961	O196	0.349240	0.902580	0.634190
O1971	O197	0.277990	0.905240	0.602860
O1981	O198	0.264930	0.763750	0.529210
O1991	O199	0.325430	0.690650	0.528530
O2001	O200	0.648800	0.979650	0.636760
O2011	O201	0.709930	0.977970	0.600410
O2021	O202	0.622040	0.767590	0.530660
O2031	O203	0.694810	0.827520	0.529840
O2041	O204	0.477560	0.748390	0.594780
O2051	O205	0.520930	0.819720	0.622220
O2061	O206	0.019520	0.729090	0.677520
O2071	O207	0.033500	0.789570	0.641800
O2081	O208	0.265290	0.902250	0.674560
O2091	O209	0.195670	0.916600	0.643050
O2101	O210	0.186150	0.749370	0.738970
O2111	O211	0.097420	0.349240	0.634190
O2121	O212	0.094760	0.277990	0.602860
O2131	O213	0.236250	0.264930	0.529210
O2141	O214	0.309350	0.325430	0.528530
O2151	O215	0.020350	0.648800	0.636760
O2161	O216	0.022030	0.709930	0.600410
O2171	O217	0.232410	0.622040	0.530660
O2181	O218	0.172480	0.694810	0.529840
O2191	O219	0.251610	0.477560	0.594780
O2201	O220	0.180280	0.520930	0.622220
O2211	O221	0.270910	0.019520	0.677520
O2221	O222	0.210430	0.033500	0.641800
O2231	O223	0.097750	0.265290	0.674560
O2241	O224	0.083400	0.195670	0.643050
O2251	O225	0.250630	0.186150	0.738970
O2261	O226	0.902580	0.650760	0.634190
O2271	O227	0.905240	0.722010	0.602860
O2281	O228	0.763750	0.735070	0.529210
O2291	O229	0.690650	0.674570	0.528530
O2301	O230	0.979650	0.351200	0.636760
O2311	O231	0.977970	0.290070	0.600410
O2321	O232	0.767590	0.377960	0.530660
O2331	O233	0.827520	0.305190	0.529840
O2341	O234	0.748390	0.522440	0.594780
O2351	O235	0.819720	0.479070	0.622220
O2361	O236	0.729090	0.980480	0.677520
O2371	O237	0.789570	0.966500	0.641800
O2381	O238	0.902250	0.734710	0.674560
O2391	O239	0.916600	0.804330	0.643050
O2401	O240	0.749370	0.813850	0.738970
