data_LASRAB_clean_PM
_symmetry_space_group_name_H-M	'P1'
_cell_length_a	16.217000
_cell_length_b	17.983100
_cell_length_c	19.640200
_cell_angle_alpha	90.000000
_cell_angle_beta	90.000000
_cell_angle_gamma	90.000000
_symmetry_Int_Tables_number 1

loop_
_symmetry_equiv_pos_as_xyz
'x,y,z'

loop_
_atom_site_label
_atom_site_type_symbol
_atom_site_fract_x
_atom_site_fract_y
_atom_site_fract_z
Mn11	Mn1	0.897640	0.428200	0.897290
Cu11	Cu1	0.219090	0.069050	0.849180
Cu21	Cu2	0.029920	0.149150	0.800370
Cu31	Cu3	0.155290	0.212030	0.931190
Br11	Br1	0.253420	0.214120	0.818670
C11	C1	0.190440	0.004190	0.725300
C21	C2	0.307200	0.041320	0.965840
C31	C3	0.043160	0.324960	0.930900
C41	C4	0.103610	0.018330	0.755600
C51	C5	0.232890	0.088200	0.991200
C61	C6	0.999820	0.260120	0.892650
C71	C7	0.040590	0.044890	0.702400
C81	C8	0.265230	0.161240	0.023280
C91	C9	0.964660	0.285230	0.822960
O11	O1	0.250210	0.021690	0.763340
O21	O2	0.310970	0.028590	0.902250
O31	O3	0.117580	0.313260	0.947980
O41	O4	0.197860	0.975020	0.667520
O51	O5	0.358230	0.018200	0.008340
O61	O6	0.004680	0.382270	0.944330
O71	O7	0.109190	0.069840	0.807300
O81	O8	0.178960	0.103890	0.938750
O91	O9	0.053520	0.202060	0.882670
O101	O10	0.075320	0.950760	0.785310
H11	H1	0.070200	0.919100	0.755600
O111	O11	0.189960	0.047720	0.042080
H21	H2	0.221400	0.038200	0.073600
O121	O12	0.933220	0.233900	0.933030
H31	H3	0.899600	0.267500	0.938400
O131	O13	0.028610	0.008130	0.649800
O141	O14	0.315530	0.157540	0.071280
O151	O15	0.929830	0.346180	0.816590
O161	O16	0.999710	0.101870	0.715680
O171	O17	0.239340	0.221420	0.000680
O181	O18	0.971100	0.239260	0.775420
Mn21	Mn2	0.602360	0.571800	0.397290
Cu41	Cu4	0.280910	0.930950	0.349180
Cu51	Cu5	0.470080	0.850850	0.300370
Cu61	Cu6	0.344710	0.787970	0.431190
Br21	Br2	0.246580	0.785880	0.318670
C101	C10	0.309560	0.995810	0.225300
C111	C11	0.192800	0.958680	0.465840
C121	C12	0.456840	0.675040	0.430900
C131	C13	0.396390	0.981670	0.255600
C141	C14	0.267110	0.911800	0.491200
C151	C15	0.500180	0.739880	0.392650
C161	C16	0.459410	0.955110	0.202400
C171	C17	0.234770	0.838760	0.523280
C181	C18	0.535340	0.714770	0.322960
O191	O19	0.249790	0.978310	0.263340
O201	O20	0.189030	0.971410	0.402250
O211	O21	0.382420	0.686740	0.447980
O221	O22	0.302140	0.024980	0.167520
O231	O23	0.141770	0.981800	0.508340
O241	O24	0.495320	0.617730	0.444330
O251	O25	0.390810	0.930160	0.307300
O261	O26	0.321040	0.896110	0.438750
O271	O27	0.446480	0.797940	0.382670
O281	O28	0.424680	0.049240	0.285310
H41	H4	0.429800	0.080900	0.255600
O291	O29	0.310040	0.952280	0.542080
H51	H5	0.278600	0.961800	0.573600
O301	O30	0.566780	0.766100	0.433030
H61	H6	0.600400	0.732500	0.438400
O311	O31	0.471390	0.991870	0.149800
O321	O32	0.184470	0.842460	0.571280
O331	O33	0.570170	0.653820	0.316590
O341	O34	0.500290	0.898130	0.215680
O351	O35	0.260660	0.778580	0.500680
O361	O36	0.528900	0.760740	0.275420
Mn31	Mn3	0.102360	0.928200	0.602710
Cu71	Cu7	0.780910	0.569050	0.650820
Cu81	Cu8	0.970080	0.649150	0.699630
Cu91	Cu9	0.844710	0.712030	0.568810
Br31	Br3	0.746580	0.714120	0.681330
C191	C19	0.809560	0.504190	0.774700
C201	C20	0.692800	0.541320	0.534160
C211	C21	0.956840	0.824960	0.569100
C221	C22	0.896390	0.518330	0.744400
C231	C23	0.767110	0.588200	0.508800
C241	C24	0.000180	0.760120	0.607350
C251	C25	0.959410	0.544890	0.797600
C261	C26	0.734770	0.661240	0.476720
C271	C27	0.035340	0.785230	0.677040
O371	O37	0.749790	0.521690	0.736660
O381	O38	0.689030	0.528590	0.597750
O391	O39	0.882420	0.813260	0.552020
O401	O40	0.802140	0.475020	0.832480
O411	O41	0.641770	0.518200	0.491660
O421	O42	0.995320	0.882270	0.555670
O431	O43	0.890810	0.569840	0.692700
O441	O44	0.821040	0.603890	0.561250
O451	O45	0.946480	0.702060	0.617330
O461	O46	0.924680	0.450760	0.714690
H71	H7	0.929800	0.419100	0.744400
O471	O47	0.810040	0.547720	0.457920
H81	H8	0.778600	0.538200	0.426400
O481	O48	0.066780	0.733900	0.566970
H91	H9	0.100400	0.767500	0.561600
O491	O49	0.971390	0.508130	0.850200
O501	O50	0.684470	0.657540	0.428720
O511	O51	0.070170	0.846180	0.683410
O521	O52	0.000290	0.601870	0.784320
O531	O53	0.760660	0.721420	0.499320
O541	O54	0.028900	0.739260	0.724580
Mn41	Mn4	0.397640	0.071800	0.102710
Cu101	Cu10	0.719090	0.430950	0.150820
Cu111	Cu11	0.529920	0.350850	0.199630
Cu121	Cu12	0.655290	0.287970	0.068810
Br41	Br4	0.753420	0.285880	0.181330
C281	C28	0.690440	0.495810	0.274700
C291	C29	0.807200	0.458680	0.034160
C301	C30	0.543160	0.175040	0.069100
C311	C31	0.603610	0.481670	0.244400
C321	C32	0.732890	0.411800	0.008800
C331	C33	0.499820	0.239880	0.107350
C341	C34	0.540590	0.455110	0.297600
C351	C35	0.765230	0.338760	0.976720
C361	C36	0.464660	0.214770	0.177040
O551	O55	0.750210	0.478310	0.236660
O561	O56	0.810970	0.471410	0.097750
O571	O57	0.617580	0.186740	0.052020
O581	O58	0.697860	0.524980	0.332480
O591	O59	0.858230	0.481800	0.991660
O601	O60	0.504680	0.117730	0.055670
O611	O61	0.609190	0.430160	0.192700
O621	O62	0.678960	0.396110	0.061250
O631	O63	0.553520	0.297940	0.117330
O641	O64	0.575320	0.549240	0.214690
H101	H10	0.570200	0.580900	0.244400
O651	O65	0.689960	0.452280	0.957920
H111	H11	0.721400	0.461800	0.926400
O661	O66	0.433220	0.266100	0.066970
H121	H12	0.399600	0.232500	0.061600
O671	O67	0.528610	0.491870	0.350200
O681	O68	0.815530	0.342460	0.928720
O691	O69	0.429830	0.153820	0.183410
O701	O70	0.499710	0.398130	0.284320
O711	O71	0.739340	0.278580	0.999320
O721	O72	0.471100	0.260740	0.224580
