data_LATCEO_clean_PM
_symmetry_space_group_name_H-M	'P1'
_cell_length_a	15.176000
_cell_length_b	25.732000
_cell_length_c	8.464000
_cell_angle_alpha	90.000000
_cell_angle_beta	132.722000
_cell_angle_gamma	90.000000
_symmetry_Int_Tables_number 1

loop_
_symmetry_equiv_pos_as_xyz
'x,y,z'

loop_
_atom_site_label
_atom_site_type_symbol
_atom_site_fract_x
_atom_site_fract_y
_atom_site_fract_z
Cd11	Cd1	0.340840	0.151400	0.560410
C11	C1	0.142400	0.061800	0.216000
C21	C2	0.209000	0.091200	0.335700
C31	C3	0.467200	0.159300	0.511900
C41	C4	0.268000	0.229800	0.511200
C51	C5	0.466200	0.138700	0.909200
Cd21	Cd2	0.840840	0.651400	0.560410
C61	C6	0.642400	0.561800	0.216000
C71	C7	0.709000	0.591200	0.335700
C81	C8	0.967200	0.659300	0.511900
C91	C9	0.768000	0.729800	0.511200
C101	C10	0.966200	0.638700	0.909200
Cd31	Cd3	0.659160	0.151400	0.439590
C111	C11	0.857600	0.061800	0.784000
C121	C12	0.791000	0.091200	0.664300
C131	C13	0.532800	0.159300	0.488100
C141	C14	0.732000	0.229800	0.488800
C151	C15	0.533800	0.138700	0.090800
Cd41	Cd4	0.159160	0.651400	0.439590
C161	C16	0.357600	0.561800	0.784000
C171	C17	0.291000	0.591200	0.664300
C181	C18	0.032800	0.659300	0.488100
C191	C19	0.232000	0.729800	0.488800
C201	C20	0.033800	0.638700	0.090800
Cd51	Cd5	0.659160	0.848600	0.439590
C211	C21	0.857600	0.938200	0.784000
C221	C22	0.791000	0.908800	0.664300
C231	C23	0.532800	0.840700	0.488100
C241	C24	0.732000	0.770200	0.488800
C251	C25	0.533800	0.861300	0.090800
Cd61	Cd6	0.159160	0.348600	0.439590
C261	C26	0.357600	0.438200	0.784000
C271	C27	0.291000	0.408800	0.664300
C281	C28	0.032800	0.340700	0.488100
C291	C29	0.232000	0.270200	0.488800
C301	C30	0.033800	0.361300	0.090800
Cd71	Cd7	0.340840	0.848600	0.560410
C311	C31	0.142400	0.938200	0.216000
C321	C32	0.209000	0.908800	0.335700
C331	C33	0.467200	0.840700	0.511900
C341	C34	0.268000	0.770200	0.511200
C351	C35	0.466200	0.861300	0.909200
Cd81	Cd8	0.840840	0.348600	0.560410
C361	C36	0.642400	0.438200	0.216000
C371	C37	0.709000	0.408800	0.335700
C381	C38	0.967200	0.340700	0.511900
C391	C39	0.768000	0.270200	0.511200
C401	C40	0.966200	0.361300	0.909200
Cd91	Cd9	0.000000	0.000000	0.000000
Cd101	Cd10	0.500000	0.500000	0.000000
