data_LAVCUJ_clean_PM
_symmetry_space_group_name_H-M	'P1'
_cell_length_a	9.059500
_cell_length_b	7.462800
_cell_length_c	9.432100
_cell_angle_alpha	90.000000
_cell_angle_beta	90.000000
_cell_angle_gamma	90.000000
_symmetry_Int_Tables_number 1

loop_
_symmetry_equiv_pos_as_xyz
'x,y,z'

loop_
_atom_site_label
_atom_site_type_symbol
_atom_site_fract_x
_atom_site_fract_y
_atom_site_fract_z
F11	F1	0.647000	0.556300	0.633200
F21	F2	0.147000	0.056300	0.133200
F31	F3	0.353000	0.943700	0.633200
F41	F4	0.853000	0.443700	0.133200
F51	F5	0.353000	0.056300	0.366800
F61	F6	0.853000	0.556300	0.866800
F71	F7	0.647000	0.443700	0.366800
F81	F8	0.147000	0.943700	0.866800
F91	F9	0.353000	0.443700	0.366800
F101	F10	0.853000	0.943700	0.866800
F111	F11	0.647000	0.056300	0.366800
F121	F12	0.147000	0.556300	0.866800
F131	F13	0.647000	0.943700	0.633200
F141	F14	0.147000	0.443700	0.133200
F151	F15	0.353000	0.556300	0.633200
F161	F16	0.853000	0.056300	0.133200
Zn11	Zn1	0.750000	0.750000	0.750000
Zn21	Zn2	0.250000	0.750000	0.750000
Zn31	Zn3	0.250000	0.250000	0.250000
Zn41	Zn4	0.750000	0.250000	0.250000
V11	V1	0.500000	0.500000	0.500000
V21	V2	0.000000	0.000000	0.000000
V31	V3	0.500000	0.000000	0.500000
V41	V4	0.000000	0.500000	0.000000
F171	F17	0.500000	0.750000	0.424500
F181	F18	0.000000	0.250000	0.924500
F191	F19	0.500000	0.250000	0.575500
F201	F20	0.000000	0.750000	0.075500
