data_LAVCOD_clean_PM
_symmetry_space_group_name_H-M	'P1'
_cell_length_a	9.019300
_cell_length_b	7.342100
_cell_length_c	9.390100
_cell_angle_alpha	90.000000
_cell_angle_beta	90.000000
_cell_angle_gamma	90.000000
_symmetry_Int_Tables_number 1

loop_
_symmetry_equiv_pos_as_xyz
'x,y,z'

loop_
_atom_site_label
_atom_site_type_symbol
_atom_site_fract_x
_atom_site_fract_y
_atom_site_fract_z
F11	F1	0.648900	0.549600	0.634600
F21	F2	0.148900	0.049600	0.134600
F31	F3	0.351100	0.950400	0.634600
F41	F4	0.851100	0.450400	0.134600
F51	F5	0.351100	0.049600	0.365400
F61	F6	0.851100	0.549600	0.865400
F71	F7	0.648900	0.450400	0.365400
F81	F8	0.148900	0.950400	0.865400
F91	F9	0.351100	0.450400	0.365400
F101	F10	0.851100	0.950400	0.865400
F111	F11	0.648900	0.049600	0.365400
F121	F12	0.148900	0.549600	0.865400
F131	F13	0.648900	0.950400	0.634600
F141	F14	0.148900	0.450400	0.134600
F151	F15	0.351100	0.549600	0.634600
F161	F16	0.851100	0.049600	0.134600
Co11	Co1	0.750000	0.750000	0.750000
Co21	Co2	0.250000	0.750000	0.750000
Co31	Co3	0.250000	0.250000	0.250000
Co41	Co4	0.750000	0.250000	0.250000
Ga11	Ga1	0.500000	0.500000	0.500000
Ga21	Ga2	0.000000	0.000000	0.000000
Ga31	Ga3	0.500000	0.000000	0.500000
Ga41	Ga4	0.000000	0.500000	0.000000
F171	F17	0.500000	0.750000	0.425500
F181	F18	0.000000	0.250000	0.925500
F191	F19	0.500000	0.250000	0.574500
F201	F20	0.000000	0.750000	0.074500
