data_LAVTOT_clean_PM
_symmetry_space_group_name_H-M	'P1'
_cell_length_a	10.267000
_cell_length_b	10.267000
_cell_length_c	14.462000
_cell_angle_alpha	90.000000
_cell_angle_beta	90.000000
_cell_angle_gamma	90.000000
_symmetry_Int_Tables_number 1

loop_
_symmetry_equiv_pos_as_xyz
'x,y,z'

loop_
_atom_site_label
_atom_site_type_symbol
_atom_site_fract_x
_atom_site_fract_y
_atom_site_fract_z
Er11	Er1	0.852580	0.852580	0.875000
Er21	Er2	0.147410	0.147410	0.375000
Er31	Er3	0.147410	0.852580	0.125000
Er41	Er4	0.852580	0.147410	0.625000
H11	H1	0.925400	0.441800	0.871400
H21	H2	0.074600	0.558200	0.371400
H31	H3	0.558200	0.925400	0.121400
H41	H4	0.441800	0.074600	0.621400
H51	H5	0.074600	0.441800	0.128600
H61	H6	0.925400	0.558200	0.628600
H71	H7	0.441800	0.925400	0.878600
H81	H8	0.558200	0.074600	0.378600
H91	H9	0.000000	0.102500	0.000000
H101	H10	0.000000	0.897500	0.500000
H111	H11	0.897500	0.000000	0.250000
H121	H12	0.102500	0.000000	0.750000
C11	C1	0.955600	0.396700	0.922900
C21	C2	0.956200	0.260800	0.922700
C31	C3	0.913200	0.184000	0.839500
C41	C4	0.044400	0.603300	0.422900
C51	C5	0.043800	0.739200	0.422700
C61	C6	0.086800	0.816000	0.339500
C71	C7	0.603300	0.955600	0.172900
C81	C8	0.739200	0.956200	0.172700
C91	C9	0.816000	0.913200	0.089500
C101	C10	0.396700	0.044400	0.672900
C111	C11	0.260800	0.043800	0.672700
C121	C12	0.184000	0.086800	0.589500
C131	C13	0.044400	0.396700	0.077100
C141	C14	0.043800	0.260800	0.077300
C151	C15	0.086800	0.184000	0.160500
C161	C16	0.955600	0.603300	0.577100
C171	C17	0.956200	0.739200	0.577300
C181	C18	0.913200	0.816000	0.660500
C191	C19	0.396700	0.955600	0.827100
C201	C20	0.260800	0.956200	0.827300
C211	C21	0.184000	0.913200	0.910500
C221	C22	0.603300	0.044400	0.327100
C231	C23	0.739200	0.043800	0.327300
C241	C24	0.816000	0.086800	0.410500
C251	C25	0.000000	0.465100	0.000000
C261	C26	0.000000	0.610600	0.000000
C271	C27	0.000000	0.193000	0.000000
C281	C28	0.000000	0.534900	0.500000
C291	C29	0.000000	0.389400	0.500000
C301	C30	0.000000	0.807000	0.500000
C311	C31	0.534900	0.000000	0.250000
C321	C32	0.389400	0.000000	0.250000
C331	C33	0.807000	0.000000	0.250000
C341	C34	0.465100	0.000000	0.750000
C351	C35	0.610600	0.000000	0.750000
C361	C36	0.193000	0.000000	0.750000
O11	O1	0.905700	0.241400	0.762860
O21	O2	0.928100	0.665300	0.941750
O31	O3	0.888400	0.068000	0.849600
O41	O4	0.094300	0.758600	0.262860
O51	O5	0.071900	0.334700	0.441750
O61	O6	0.111600	0.932000	0.349600
O71	O7	0.758600	0.905700	0.012860
O81	O8	0.334700	0.928100	0.191750
O91	O9	0.932000	0.888400	0.099600
O101	O10	0.241400	0.094300	0.512860
O111	O11	0.665300	0.071900	0.691750
O121	O12	0.068000	0.111600	0.599600
O131	O13	0.094300	0.241400	0.237140
O141	O14	0.071900	0.665300	0.058250
O151	O15	0.111600	0.068000	0.150400
O161	O16	0.905700	0.758600	0.737140
O171	O17	0.928100	0.334700	0.558250
O181	O18	0.888400	0.932000	0.650400
O191	O19	0.241400	0.905700	0.987140
O201	O20	0.665300	0.928100	0.808250
O211	O21	0.068000	0.888400	0.900400
O221	O22	0.758600	0.094300	0.487140
O231	O23	0.334700	0.071900	0.308250
O241	O24	0.932000	0.111600	0.400400
