data_LAVTIN_clean_PM
_symmetry_space_group_name_H-M	'P1'
_cell_length_a	10.270000
_cell_length_b	10.270000
_cell_length_c	14.460000
_cell_angle_alpha	90.000000
_cell_angle_beta	90.000000
_cell_angle_gamma	90.000000
_symmetry_Int_Tables_number 1

loop_
_symmetry_equiv_pos_as_xyz
'x,y,z'

loop_
_atom_site_label
_atom_site_type_symbol
_atom_site_fract_x
_atom_site_fract_y
_atom_site_fract_z
Er11	Er1	0.351330	0.648670	0.875000
Er21	Er2	0.648670	0.351330	0.375000
Er31	Er3	0.351330	0.351330	0.625000
Er41	Er4	0.648670	0.648670	0.125000
H11	H1	0.424900	0.059200	0.871600
H21	H2	0.575100	0.940800	0.371600
H31	H3	0.940800	0.424900	0.621600
H41	H4	0.059200	0.575100	0.121600
H51	H5	0.575100	0.059200	0.128400
H61	H6	0.424900	0.940800	0.628400
H71	H7	0.059200	0.424900	0.378400
H81	H8	0.940800	0.575100	0.878400
H91	H9	0.500000	0.399200	0.000000
H101	H10	0.500000	0.600800	0.500000
H111	H11	0.600800	0.500000	0.750000
H121	H12	0.399200	0.500000	0.250000
C11	C1	0.412200	0.316600	0.839300
C21	C2	0.455400	0.104600	0.922800
C31	C3	0.456800	0.240000	0.922700
C41	C4	0.587800	0.683400	0.339300
C51	C5	0.544600	0.895400	0.422800
C61	C6	0.543200	0.760000	0.422700
C71	C7	0.683400	0.412200	0.589300
C81	C8	0.895400	0.455400	0.672800
C91	C9	0.760000	0.456800	0.672700
C101	C10	0.316600	0.587800	0.089300
C111	C11	0.104600	0.544600	0.172800
C121	C12	0.240000	0.543200	0.172700
C131	C13	0.587800	0.316600	0.160700
C141	C14	0.544600	0.104600	0.077200
C151	C15	0.543200	0.240000	0.077300
C161	C16	0.412200	0.683400	0.660700
C171	C17	0.455400	0.895400	0.577200
C181	C18	0.456800	0.760000	0.577300
C191	C19	0.316600	0.412200	0.410700
C201	C20	0.104600	0.455400	0.327200
C211	C21	0.240000	0.456800	0.327300
C221	C22	0.683400	0.587800	0.910700
C231	C23	0.895400	0.544600	0.827200
C241	C24	0.760000	0.543200	0.827300
C251	C25	0.500000	0.889700	0.000000
C261	C26	0.500000	0.037400	0.000000
C271	C27	0.500000	0.308700	0.000000
C281	C28	0.500000	0.110300	0.500000
C291	C29	0.500000	0.962600	0.500000
C301	C30	0.500000	0.691300	0.500000
C311	C31	0.110300	0.500000	0.750000
C321	C32	0.962600	0.500000	0.750000
C331	C33	0.691300	0.500000	0.750000
C341	C34	0.889700	0.500000	0.250000
C351	C35	0.037400	0.500000	0.250000
C361	C36	0.308700	0.500000	0.250000
O11	O1	0.427700	0.836100	0.942000
O21	O2	0.388600	0.433100	0.849900
O31	O3	0.404100	0.258300	0.763300
O41	O4	0.572300	0.163900	0.442000
O51	O5	0.611400	0.566900	0.349900
O61	O6	0.595900	0.741700	0.263300
O71	O7	0.163900	0.427700	0.692000
O81	O8	0.566900	0.388600	0.599900
O91	O9	0.741700	0.404100	0.513300
O101	O10	0.836100	0.572300	0.192000
O111	O11	0.433100	0.611400	0.099900
O121	O12	0.258300	0.595900	0.013300
O131	O13	0.572300	0.836100	0.058000
O141	O14	0.611400	0.433100	0.150100
O151	O15	0.595900	0.258300	0.236700
O161	O16	0.427700	0.163900	0.558000
O171	O17	0.388600	0.566900	0.650100
O181	O18	0.404100	0.741700	0.736700
O191	O19	0.836100	0.427700	0.308000
O201	O20	0.433100	0.388600	0.400100
O211	O21	0.258300	0.404100	0.486700
O221	O22	0.163900	0.572300	0.808000
O231	O23	0.566900	0.611400	0.900100
O241	O24	0.741700	0.595900	0.986700
