data_LAVTUZ_clean_PM
_symmetry_space_group_name_H-M	'P1'
_cell_length_a	10.240000
_cell_length_b	10.240000
_cell_length_c	14.420000
_cell_angle_alpha	90.000000
_cell_angle_beta	90.000000
_cell_angle_gamma	90.000000
_symmetry_Int_Tables_number 1

loop_
_symmetry_equiv_pos_as_xyz
'x,y,z'

loop_
_atom_site_label
_atom_site_type_symbol
_atom_site_fract_x
_atom_site_fract_y
_atom_site_fract_z
Yb11	Yb1	0.352150	0.647850	0.875000
Yb21	Yb2	0.647850	0.352150	0.375000
Yb31	Yb3	0.352150	0.352150	0.625000
Yb41	Yb4	0.647850	0.647850	0.125000
H11	H1	0.425100	0.059000	0.870900
H21	H2	0.574900	0.941000	0.370900
H31	H3	0.941000	0.425100	0.620900
H41	H4	0.059000	0.574900	0.120900
H51	H5	0.574900	0.059000	0.129100
H61	H6	0.425100	0.941000	0.629100
H71	H7	0.059000	0.425100	0.379100
H81	H8	0.941000	0.574900	0.879100
H91	H9	0.500000	0.398900	0.000000
H101	H10	0.500000	0.601100	0.500000
H111	H11	0.601100	0.500000	0.750000
H121	H12	0.398900	0.500000	0.250000
C11	C1	0.411000	0.317800	0.839000
C21	C2	0.455400	0.104200	0.922500
C31	C3	0.456500	0.239800	0.922600
C41	C4	0.589000	0.682200	0.339000
C51	C5	0.544600	0.895800	0.422500
C61	C6	0.543500	0.760200	0.422600
C71	C7	0.682200	0.411000	0.589000
C81	C8	0.895800	0.455400	0.672500
C91	C9	0.760200	0.456500	0.672600
C101	C10	0.317800	0.589000	0.089000
C111	C11	0.104200	0.544600	0.172500
C121	C12	0.239800	0.543500	0.172600
C131	C13	0.589000	0.317800	0.161000
C141	C14	0.544600	0.104200	0.077500
C151	C15	0.543500	0.239800	0.077400
C161	C16	0.411000	0.682200	0.661000
C171	C17	0.455400	0.895800	0.577500
C181	C18	0.456500	0.760200	0.577400
C191	C19	0.317800	0.411000	0.411000
C201	C20	0.104200	0.455400	0.327500
C211	C21	0.239800	0.456500	0.327400
C221	C22	0.682200	0.589000	0.911000
C231	C23	0.895800	0.544600	0.827500
C241	C24	0.760200	0.543500	0.827400
C251	C25	0.500000	0.888400	0.000000
C261	C26	0.500000	0.035700	0.000000
C271	C27	0.500000	0.308100	0.000000
C281	C28	0.500000	0.111600	0.500000
C291	C29	0.500000	0.964300	0.500000
C301	C30	0.500000	0.691900	0.500000
C311	C31	0.111600	0.500000	0.750000
C321	C32	0.964300	0.500000	0.750000
C331	C33	0.691900	0.500000	0.750000
C341	C34	0.888400	0.500000	0.250000
C351	C35	0.035700	0.500000	0.250000
C361	C36	0.308100	0.500000	0.250000
O11	O1	0.426100	0.834000	0.941400
O21	O2	0.387600	0.433800	0.850200
O31	O3	0.404900	0.259800	0.762400
O41	O4	0.573900	0.166000	0.441400
O51	O5	0.612400	0.566200	0.350200
O61	O6	0.595100	0.740200	0.262400
O71	O7	0.166000	0.426100	0.691400
O81	O8	0.566200	0.387600	0.600200
O91	O9	0.740200	0.404900	0.512400
O101	O10	0.834000	0.573900	0.191400
O111	O11	0.433800	0.612400	0.100200
O121	O12	0.259800	0.595100	0.012400
O131	O13	0.573900	0.834000	0.058600
O141	O14	0.612400	0.433800	0.149800
O151	O15	0.595100	0.259800	0.237600
O161	O16	0.426100	0.166000	0.558600
O171	O17	0.387600	0.566200	0.649800
O181	O18	0.404900	0.740200	0.737600
O191	O19	0.834000	0.426100	0.308600
O201	O20	0.433800	0.387600	0.399800
O211	O21	0.259800	0.404900	0.487600
O221	O22	0.166000	0.573900	0.808600
O231	O23	0.566200	0.612400	0.899800
O241	O24	0.740200	0.595100	0.987600
