data_LAWGAS_clean_PM
_symmetry_space_group_name_H-M	'P1'
_cell_length_a	25.882000
_cell_length_b	25.882000
_cell_length_c	25.882000
_cell_angle_alpha	90.000000
_cell_angle_beta	90.000000
_cell_angle_gamma	90.000000
_symmetry_Int_Tables_number 1

loop_
_symmetry_equiv_pos_as_xyz
'x,y,z'

loop_
_atom_site_label
_atom_site_type_symbol
_atom_site_fract_x
_atom_site_fract_y
_atom_site_fract_z
Zn11	Zn1	0.293370	0.293370	0.206630
Zn21	Zn2	0.706630	0.706630	0.206630
Zn31	Zn3	0.206630	0.206630	0.206630
Zn41	Zn4	0.706630	0.293370	0.793370
Zn51	Zn5	0.206630	0.293370	0.293370
Zn61	Zn6	0.293370	0.706630	0.793370
Zn71	Zn7	0.293370	0.206630	0.293370
Zn81	Zn8	0.206630	0.793370	0.793370
Zn91	Zn9	0.206630	0.706630	0.706630
Zn101	Zn10	0.793370	0.706630	0.293370
Zn111	Zn11	0.793370	0.206630	0.793370
Zn121	Zn12	0.793370	0.293370	0.706630
Zn131	Zn13	0.793370	0.793370	0.206630
Zn141	Zn14	0.706630	0.206630	0.706630
Zn151	Zn15	0.293370	0.793370	0.706630
Zn161	Zn16	0.706630	0.793370	0.293370
Zn171	Zn17	0.293370	0.293370	0.793370
Zn181	Zn18	0.706630	0.706630	0.793370
Zn191	Zn19	0.706630	0.206630	0.293370
Zn201	Zn20	0.206630	0.706630	0.293370
Zn211	Zn21	0.293370	0.706630	0.206630
Zn221	Zn22	0.706630	0.293370	0.206630
Zn231	Zn23	0.206630	0.793370	0.206630
Zn241	Zn24	0.293370	0.206630	0.706630
Zn251	Zn25	0.206630	0.206630	0.793370
Zn261	Zn26	0.706630	0.793370	0.706630
Zn271	Zn27	0.206630	0.293370	0.706630
Zn281	Zn28	0.293370	0.793370	0.293370
Zn291	Zn29	0.793370	0.293370	0.293370
Zn301	Zn30	0.793370	0.793370	0.793370
Zn311	Zn31	0.793370	0.706630	0.706630
Zn321	Zn32	0.793370	0.206630	0.206630
O11	O1	0.250000	0.250000	0.250000
O21	O2	0.750000	0.750000	0.250000
O31	O3	0.750000	0.250000	0.750000
O41	O4	0.250000	0.750000	0.750000
O51	O5	0.250000	0.250000	0.750000
O61	O6	0.750000	0.750000	0.750000
O71	O7	0.750000	0.250000	0.250000
O81	O8	0.250000	0.750000	0.250000
O91	O9	0.280400	0.366670	0.219600
C11	C1	0.283090	0.473000	0.216910
H11	H1	0.305500	0.454600	0.194500
O101	O10	0.280400	0.866670	0.719600
C21	C2	0.283090	0.973000	0.716910
H21	H2	0.305500	0.954600	0.694500
O111	O11	0.719600	0.633330	0.219600
C31	C3	0.716910	0.527000	0.216910
H31	H3	0.694500	0.545400	0.194500
O121	O12	0.719600	0.133330	0.719600
C41	C4	0.716910	0.027000	0.716910
H41	H4	0.694500	0.045400	0.694500
O131	O13	0.219600	0.133330	0.219600
C51	C5	0.216910	0.027000	0.216910
H51	H5	0.194500	0.045400	0.194500
O141	O14	0.719600	0.366670	0.780400
C61	C6	0.716910	0.473000	0.783090
H61	H6	0.694500	0.454600	0.805500
O151	O15	0.719600	0.866670	0.280400
C71	C7	0.716910	0.973000	0.283090
H71	H7	0.694500	0.954600	0.305500
O161	O16	0.219600	0.366670	0.280400
C81	C8	0.216910	0.473000	0.283090
H81	H8	0.194500	0.454600	0.305500
O171	O17	0.280400	0.633330	0.780400
C91	C9	0.283090	0.527000	0.783090
H91	H9	0.305500	0.545400	0.805500
O181	O18	0.280400	0.133330	0.280400
C101	C10	0.283090	0.027000	0.283090
H101	H10	0.305500	0.045400	0.305500
O191	O19	0.219600	0.280400	0.366670
C111	C11	0.216910	0.283090	0.473000
H111	H11	0.194500	0.305500	0.454600
O201	O20	0.219600	0.780400	0.866670
C121	C12	0.216910	0.783090	0.973000
H121	H12	0.194500	0.805500	0.954600
O211	O21	0.219600	0.719600	0.633330
C131	C13	0.216910	0.716910	0.527000
H131	H13	0.194500	0.694500	0.545400
O221	O22	0.219600	0.219600	0.133330
C141	C14	0.216910	0.216910	0.027000
H141	H14	0.194500	0.194500	0.045400
O231	O23	0.780400	0.719600	0.366670
C151	C15	0.783090	0.716910	0.473000
H151	H15	0.805500	0.694500	0.454600
O241	O24	0.780400	0.219600	0.866670
C161	C16	0.783090	0.216910	0.973000
H161	H16	0.805500	0.194500	0.954600
O251	O25	0.280400	0.219600	0.366670
C171	C17	0.283090	0.216910	0.473000
H171	H17	0.305500	0.194500	0.454600
O261	O26	0.780400	0.280400	0.633330
C181	C18	0.783090	0.283090	0.527000
H181	H18	0.805500	0.305500	0.545400
O271	O27	0.780400	0.780400	0.133330
C191	C19	0.783090	0.783090	0.027000
H191	H19	0.805500	0.805500	0.045400
O281	O28	0.280400	0.280400	0.133330
C201	C20	0.283090	0.283090	0.027000
H201	H20	0.305500	0.305500	0.045400
O291	O29	0.366670	0.219600	0.280400
C211	C21	0.473000	0.216910	0.283090
H211	H21	0.454600	0.194500	0.305500
O301	O30	0.866670	0.219600	0.780400
C221	C22	0.973000	0.216910	0.783090
H221	H22	0.954600	0.194500	0.805500
O311	O31	0.633330	0.219600	0.719600
C231	C23	0.527000	0.216910	0.716910
H231	H23	0.545400	0.194500	0.694500
O321	O32	0.133330	0.219600	0.219600
C241	C24	0.027000	0.216910	0.216910
H241	H24	0.045400	0.194500	0.194500
O331	O33	0.366670	0.780400	0.719600
C251	C25	0.473000	0.783090	0.716910
H251	H25	0.454600	0.805500	0.694500
O341	O34	0.366670	0.280400	0.219600
C261	C26	0.473000	0.283090	0.216910
H261	H26	0.454600	0.305500	0.194500
O351	O35	0.866670	0.780400	0.219600
C271	C27	0.973000	0.783090	0.216910
H271	H27	0.954600	0.805500	0.194500
O361	O36	0.633330	0.780400	0.280400
C281	C28	0.527000	0.783090	0.283090
H281	H28	0.545400	0.805500	0.305500
O371	O37	0.133330	0.780400	0.780400
C291	C29	0.027000	0.783090	0.783090
H291	H29	0.045400	0.805500	0.805500
O381	O38	0.133330	0.280400	0.280400
C301	C30	0.027000	0.283090	0.283090
H301	H30	0.045400	0.305500	0.305500
O391	O39	0.366670	0.280400	0.780400
C311	C31	0.473000	0.283090	0.783090
H311	H31	0.454600	0.305500	0.805500
O401	O40	0.866670	0.280400	0.280400
C321	C32	0.973000	0.283090	0.283090
H321	H32	0.954600	0.305500	0.305500
O411	O41	0.633330	0.719600	0.780400
C331	C33	0.527000	0.716910	0.783090
H331	H33	0.545400	0.694500	0.805500
O421	O42	0.633330	0.219600	0.280400
C341	C34	0.527000	0.216910	0.283090
H341	H34	0.545400	0.194500	0.305500
O431	O43	0.133330	0.719600	0.280400
C351	C35	0.027000	0.716910	0.283090
H351	H35	0.045400	0.694500	0.305500
O441	O44	0.366670	0.719600	0.219600
C361	C36	0.473000	0.716910	0.216910
H361	H36	0.454600	0.694500	0.194500
O451	O45	0.866670	0.719600	0.719600
C371	C37	0.973000	0.716910	0.716910
H371	H37	0.954600	0.694500	0.694500
O461	O46	0.866670	0.219600	0.219600
C381	C38	0.973000	0.216910	0.216910
H381	H38	0.954600	0.194500	0.194500
O471	O47	0.633330	0.280400	0.219600
C391	C39	0.527000	0.283090	0.216910
H391	H39	0.545400	0.305500	0.194500
O481	O48	0.133330	0.280400	0.719600
C401	C40	0.027000	0.283090	0.716910
H401	H40	0.045400	0.305500	0.694500
O491	O49	0.280400	0.219600	0.633330
C411	C41	0.283090	0.216910	0.527000
H411	H41	0.305500	0.194500	0.545400
O501	O50	0.280400	0.719600	0.133330
C421	C42	0.283090	0.716910	0.027000
H421	H42	0.305500	0.694500	0.045400
O511	O51	0.719600	0.219600	0.366670
C431	C43	0.716910	0.216910	0.473000
H431	H43	0.694500	0.194500	0.454600
O521	O52	0.719600	0.719600	0.866670
C441	C44	0.716910	0.716910	0.973000
H441	H44	0.694500	0.694500	0.954600
O531	O53	0.219600	0.219600	0.866670
C451	C45	0.216910	0.216910	0.973000
H451	H45	0.194500	0.194500	0.954600
O541	O54	0.719600	0.780400	0.633330
C461	C46	0.716910	0.783090	0.527000
H461	H46	0.694500	0.805500	0.545400
O551	O55	0.719600	0.280400	0.133330
C471	C47	0.716910	0.283090	0.027000
H471	H47	0.694500	0.305500	0.045400
O561	O56	0.219600	0.280400	0.633330
C481	C48	0.216910	0.283090	0.527000
H481	H48	0.194500	0.305500	0.545400
O571	O57	0.280400	0.780400	0.366670
C491	C49	0.283090	0.783090	0.473000
H491	H49	0.305500	0.805500	0.454600
O581	O58	0.280400	0.280400	0.866670
C501	C50	0.283090	0.283090	0.973000
H501	H50	0.305500	0.305500	0.954600
O591	O59	0.219600	0.366670	0.719600
C511	C51	0.216910	0.473000	0.716910
H511	H51	0.194500	0.454600	0.694500
O601	O60	0.219600	0.866670	0.219600
C521	C52	0.216910	0.973000	0.216910
H521	H52	0.194500	0.954600	0.194500
O611	O61	0.219600	0.633330	0.280400
C531	C53	0.216910	0.527000	0.283090
H531	H53	0.194500	0.545400	0.305500
O621	O62	0.219600	0.133330	0.780400
C541	C54	0.216910	0.027000	0.783090
H541	H54	0.194500	0.045400	0.805500
O631	O63	0.780400	0.366670	0.280400
C551	C55	0.783090	0.473000	0.283090
H551	H55	0.805500	0.454600	0.305500
O641	O64	0.780400	0.866670	0.780400
C561	C56	0.783090	0.973000	0.783090
H561	H56	0.805500	0.954600	0.805500
O651	O65	0.280400	0.866670	0.280400
C571	C57	0.283090	0.973000	0.283090
H571	H57	0.305500	0.954600	0.305500
O661	O66	0.780400	0.633330	0.719600
C581	C58	0.783090	0.527000	0.716910
H581	H58	0.805500	0.545400	0.694500
O671	O67	0.780400	0.133330	0.219600
C591	C59	0.783090	0.027000	0.216910
H591	H59	0.805500	0.045400	0.194500
O681	O68	0.280400	0.633330	0.219600
C601	C60	0.283090	0.527000	0.216910
H601	H60	0.305500	0.545400	0.194500
O691	O69	0.719600	0.633330	0.780400
C611	C61	0.716910	0.527000	0.783090
H611	H61	0.694500	0.545400	0.805500
O701	O70	0.719600	0.133330	0.280400
C621	C62	0.716910	0.027000	0.283090
H621	H62	0.694500	0.045400	0.305500
O711	O71	0.280400	0.366670	0.780400
C631	C63	0.283090	0.473000	0.783090
H631	H63	0.305500	0.454600	0.805500
O721	O72	0.280400	0.133330	0.719600
C641	C64	0.283090	0.027000	0.716910
H641	H64	0.305500	0.045400	0.694500
O731	O73	0.719600	0.366670	0.219600
C651	C65	0.716910	0.473000	0.216910
H651	H65	0.694500	0.454600	0.194500
O741	O74	0.719600	0.866670	0.719600
C661	C66	0.716910	0.973000	0.716910
H661	H66	0.694500	0.954600	0.694500
O751	O75	0.780400	0.719600	0.633330
C671	C67	0.783090	0.716910	0.527000
H671	H67	0.805500	0.694500	0.545400
O761	O76	0.780400	0.219600	0.133330
C681	C68	0.783090	0.216910	0.027000
H681	H68	0.805500	0.194500	0.045400
O771	O77	0.780400	0.280400	0.366670
C691	C69	0.783090	0.283090	0.473000
H691	H69	0.805500	0.305500	0.454600
O781	O78	0.780400	0.780400	0.866670
C701	C70	0.783090	0.783090	0.973000
H701	H70	0.805500	0.805500	0.954600
O791	O79	0.219600	0.780400	0.133330
C711	C71	0.216910	0.783090	0.027000
H711	H71	0.194500	0.805500	0.045400
O801	O80	0.219600	0.719600	0.366670
C721	C72	0.216910	0.716910	0.473000
H721	H72	0.194500	0.694500	0.454600
O811	O81	0.633330	0.780400	0.719600
C731	C73	0.527000	0.783090	0.716910
H731	H73	0.545400	0.805500	0.694500
O821	O82	0.133330	0.780400	0.219600
C741	C74	0.027000	0.783090	0.216910
H741	H74	0.045400	0.805500	0.194500
O831	O83	0.366670	0.780400	0.280400
C751	C75	0.473000	0.783090	0.283090
H751	H75	0.454600	0.805500	0.305500
O841	O84	0.866670	0.780400	0.780400
C761	C76	0.973000	0.783090	0.783090
H761	H76	0.954600	0.805500	0.805500
O851	O85	0.133330	0.219600	0.780400
C771	C77	0.027000	0.216910	0.783090
H771	H77	0.045400	0.194500	0.805500
O861	O86	0.366670	0.219600	0.719600
C781	C78	0.473000	0.216910	0.716910
H781	H78	0.454600	0.194500	0.694500
O871	O87	0.633330	0.719600	0.219600
C791	C79	0.527000	0.716910	0.216910
H791	H79	0.545400	0.694500	0.194500
O881	O88	0.133330	0.719600	0.719600
C801	C80	0.027000	0.716910	0.716910
H801	H80	0.045400	0.694500	0.694500
O891	O89	0.866670	0.280400	0.719600
C811	C81	0.973000	0.283090	0.716910
H811	H81	0.954600	0.305500	0.694500
O901	O90	0.633330	0.280400	0.780400
C821	C82	0.527000	0.283090	0.783090
H821	H82	0.545400	0.305500	0.805500
O911	O91	0.366670	0.719600	0.780400
C831	C83	0.473000	0.716910	0.783090
H831	H83	0.454600	0.694500	0.805500
O921	O92	0.866670	0.719600	0.280400
C841	C84	0.973000	0.716910	0.283090
H841	H84	0.954600	0.694500	0.305500
O931	O93	0.719600	0.780400	0.366670
C851	C85	0.716910	0.783090	0.473000
H851	H85	0.694500	0.805500	0.454600
O941	O94	0.719600	0.280400	0.866670
C861	C86	0.716910	0.283090	0.973000
H861	H86	0.694500	0.305500	0.954600
O951	O95	0.280400	0.780400	0.633330
C871	C87	0.283090	0.783090	0.527000
H871	H87	0.305500	0.805500	0.545400
O961	O96	0.280400	0.719600	0.866670
C881	C88	0.283090	0.716910	0.973000
H881	H88	0.305500	0.694500	0.954600
O971	O97	0.719600	0.219600	0.633330
C891	C89	0.716910	0.216910	0.527000
H891	H89	0.694500	0.194500	0.545400
O981	O98	0.719600	0.719600	0.133330
C901	C90	0.716910	0.716910	0.027000
H901	H90	0.694500	0.694500	0.045400
O991	O99	0.780400	0.633330	0.280400
C911	C91	0.783090	0.527000	0.283090
H911	H91	0.805500	0.545400	0.305500
O1001	O100	0.780400	0.133330	0.780400
C921	C92	0.783090	0.027000	0.783090
H921	H92	0.805500	0.045400	0.805500
O1011	O101	0.780400	0.366670	0.719600
C931	C93	0.783090	0.473000	0.716910
H931	H93	0.805500	0.454600	0.694500
O1021	O102	0.780400	0.866670	0.219600
C941	C94	0.783090	0.973000	0.216910
H941	H94	0.805500	0.954600	0.194500
O1031	O103	0.219600	0.633330	0.719600
C951	C95	0.216910	0.527000	0.716910
H951	H95	0.194500	0.545400	0.694500
O1041	O104	0.219600	0.866670	0.780400
C961	C96	0.216910	0.973000	0.783090
H961	H96	0.194500	0.954600	0.805500
C971	C97	0.250000	0.388300	0.250000
C981	C98	0.250000	0.446400	0.250000
C991	C99	0.250000	0.888300	0.750000
C1001	C100	0.250000	0.946400	0.750000
C1011	C101	0.750000	0.611700	0.250000
C1021	C102	0.750000	0.553600	0.250000
C1031	C103	0.750000	0.111700	0.750000
C1041	C104	0.750000	0.053600	0.750000
C1051	C105	0.250000	0.111700	0.250000
C1061	C106	0.250000	0.053600	0.250000
C1071	C107	0.750000	0.388300	0.750000
C1081	C108	0.750000	0.446400	0.750000
C1091	C109	0.750000	0.888300	0.250000
C1101	C110	0.750000	0.946400	0.250000
C1111	C111	0.250000	0.611700	0.750000
C1121	C112	0.250000	0.553600	0.750000
C1131	C113	0.250000	0.250000	0.388300
C1141	C114	0.250000	0.250000	0.446400
C1151	C115	0.250000	0.750000	0.888300
C1161	C116	0.250000	0.750000	0.946400
C1171	C117	0.250000	0.750000	0.611700
C1181	C118	0.250000	0.750000	0.553600
C1191	C119	0.250000	0.250000	0.111700
C1201	C120	0.250000	0.250000	0.053600
C1211	C121	0.750000	0.750000	0.388300
C1221	C122	0.750000	0.750000	0.446400
C1231	C123	0.750000	0.250000	0.888300
C1241	C124	0.750000	0.250000	0.946400
C1251	C125	0.750000	0.250000	0.611700
C1261	C126	0.750000	0.250000	0.553600
C1271	C127	0.750000	0.750000	0.111700
C1281	C128	0.750000	0.750000	0.053600
C1291	C129	0.388300	0.250000	0.250000
C1301	C130	0.446400	0.250000	0.250000
C1311	C131	0.888300	0.250000	0.750000
C1321	C132	0.946400	0.250000	0.750000
C1331	C133	0.611700	0.250000	0.750000
C1341	C134	0.553600	0.250000	0.750000
C1351	C135	0.111700	0.250000	0.250000
C1361	C136	0.053600	0.250000	0.250000
C1371	C137	0.388300	0.750000	0.750000
C1381	C138	0.446400	0.750000	0.750000
C1391	C139	0.888300	0.750000	0.250000
C1401	C140	0.946400	0.750000	0.250000
C1411	C141	0.611700	0.750000	0.250000
C1421	C142	0.553600	0.750000	0.250000
C1431	C143	0.111700	0.750000	0.750000
C1441	C144	0.053600	0.750000	0.750000
C1451	C145	0.388300	0.250000	0.750000
C1461	C146	0.446400	0.250000	0.750000
C1471	C147	0.888300	0.250000	0.250000
C1481	C148	0.946400	0.250000	0.250000
C1491	C149	0.611700	0.750000	0.750000
C1501	C150	0.553600	0.750000	0.750000
C1511	C151	0.611700	0.250000	0.250000
C1521	C152	0.553600	0.250000	0.250000
C1531	C153	0.111700	0.750000	0.250000
C1541	C154	0.053600	0.750000	0.250000
C1551	C155	0.388300	0.750000	0.250000
C1561	C156	0.446400	0.750000	0.250000
C1571	C157	0.888300	0.750000	0.750000
C1581	C158	0.946400	0.750000	0.750000
C1591	C159	0.111700	0.250000	0.750000
C1601	C160	0.053600	0.250000	0.750000
C1611	C161	0.250000	0.250000	0.611700
C1621	C162	0.250000	0.250000	0.553600
C1631	C163	0.250000	0.750000	0.111700
C1641	C164	0.250000	0.750000	0.053600
C1651	C165	0.750000	0.250000	0.388300
C1661	C166	0.750000	0.250000	0.446400
C1671	C167	0.750000	0.750000	0.888300
C1681	C168	0.750000	0.750000	0.946400
C1691	C169	0.250000	0.250000	0.888300
C1701	C170	0.250000	0.250000	0.946400
C1711	C171	0.750000	0.750000	0.611700
C1721	C172	0.750000	0.750000	0.553600
C1731	C173	0.750000	0.250000	0.111700
C1741	C174	0.750000	0.250000	0.053600
C1751	C175	0.250000	0.750000	0.388300
C1761	C176	0.250000	0.750000	0.446400
C1771	C177	0.250000	0.388300	0.750000
C1781	C178	0.250000	0.446400	0.750000
C1791	C179	0.250000	0.888300	0.250000
C1801	C180	0.250000	0.946400	0.250000
C1811	C181	0.250000	0.611700	0.250000
C1821	C182	0.250000	0.553600	0.250000
C1831	C183	0.250000	0.111700	0.750000
C1841	C184	0.250000	0.053600	0.750000
C1851	C185	0.750000	0.388300	0.250000
C1861	C186	0.750000	0.446400	0.250000
C1871	C187	0.750000	0.888300	0.750000
C1881	C188	0.750000	0.946400	0.750000
C1891	C189	0.750000	0.611700	0.750000
C1901	C190	0.750000	0.553600	0.750000
C1911	C191	0.750000	0.111700	0.250000
C1921	C192	0.750000	0.053600	0.250000
