data_LAXGOH01_clean_PM
_symmetry_space_group_name_H-M	'P1'
_cell_length_a	8.485600
_cell_length_b	9.522500
_cell_length_c	13.128100
_cell_angle_alpha	90.000000
_cell_angle_beta	90.000000
_cell_angle_gamma	94.620000
_symmetry_Int_Tables_number 1

loop_
_symmetry_equiv_pos_as_xyz
'x,y,z'

loop_
_atom_site_label
_atom_site_type_symbol
_atom_site_fract_x
_atom_site_fract_y
_atom_site_fract_z
Gd11	Gd1	0.960810	0.008110	0.768780
Gd21	Gd2	0.539190	0.491890	0.268780
Gd31	Gd3	0.039190	0.991890	0.231220
Gd41	Gd4	0.460810	0.508110	0.731220
C11	C1	0.475000	0.125100	0.549300
C21	C2	0.381800	0.003200	0.574700
C31	C3	0.591000	0.124300	0.474000
C41	C4	0.461000	0.256800	0.610600
C51	C5	0.246300	0.009900	0.647700
C61	C6	0.700600	0.257300	0.447600
C71	C7	0.025000	0.374900	0.049300
C81	C8	0.118200	0.496800	0.074700
C91	C9	0.909000	0.375700	0.974000
C101	C10	0.039000	0.243200	0.110600
C111	C11	0.253700	0.490100	0.147700
C121	C12	0.799400	0.242700	0.947600
C131	C13	0.525000	0.874900	0.450700
C141	C14	0.618200	0.996800	0.425300
C151	C15	0.409000	0.875700	0.526000
C161	C16	0.539000	0.743200	0.389400
C171	C17	0.753700	0.990100	0.352300
C181	C18	0.299400	0.742700	0.552400
C191	C19	0.975000	0.625100	0.950700
C201	C20	0.881800	0.503200	0.925300
C211	C21	0.091000	0.624300	0.026000
C221	C22	0.961000	0.756800	0.889400
C231	C23	0.746300	0.509900	0.852300
C241	C24	0.200600	0.757300	0.052400
O11	O1	0.158400	0.111400	0.638900
O21	O2	0.217800	0.916700	0.712100
O31	O3	0.451700	0.373700	0.567700
O41	O4	0.833900	0.267700	0.489000
O51	O5	0.650400	0.342100	0.386000
O61	O6	0.462900	0.248400	0.706500
O71	O7	0.341600	0.388600	0.138900
O81	O8	0.282200	0.583300	0.212100
O91	O9	0.048300	0.126300	0.067700
O101	O10	0.666100	0.232300	0.989000
O111	O11	0.849600	0.157900	0.886000
O121	O12	0.037100	0.251600	0.206500
O131	O13	0.841600	0.888600	0.361100
O141	O14	0.782200	0.083300	0.287900
O151	O15	0.548300	0.626300	0.432300
O161	O16	0.166100	0.732300	0.511000
O171	O17	0.349600	0.657900	0.614000
O181	O18	0.537100	0.751600	0.293500
O191	O19	0.658400	0.611400	0.861100
O201	O20	0.717800	0.416700	0.787900
O211	O21	0.951700	0.873700	0.932300
O221	O22	0.333900	0.767700	0.011000
O231	O23	0.150400	0.842100	0.114000
O241	O24	0.962900	0.748400	0.793500
