data_LAXGOH03_clean_PM
_symmetry_space_group_name_H-M	'P1'
_cell_length_a	8.532600
_cell_length_b	13.212800
_cell_length_c	9.588300
_cell_angle_alpha	90.000000
_cell_angle_beta	94.585000
_cell_angle_gamma	90.000000
_symmetry_Int_Tables_number 1

loop_
_symmetry_equiv_pos_as_xyz
'x,y,z'

loop_
_atom_site_label
_atom_site_type_symbol
_atom_site_fract_x
_atom_site_fract_y
_atom_site_fract_z
Gd11	Gd1	0.539410	0.268820	0.492060
C11	C1	0.539300	0.389400	0.743700
C21	C2	0.524400	0.450900	0.875800
C31	C3	0.616400	0.425700	0.995800
C41	C4	0.408300	0.527000	0.875500
C51	C5	0.753700	0.351000	0.989600
C61	C6	0.301700	0.551400	0.744500
O11	O1	0.550200	0.432400	0.626500
O21	O2	0.536300	0.293600	0.751800
O31	O3	0.783200	0.288300	0.082700
O41	O4	0.841000	0.359800	0.888000
O51	O5	0.350500	0.614600	0.657300
O61	O6	0.167600	0.510100	0.731200
Gd21	Gd2	0.960590	0.768820	0.007940
C71	C7	0.960700	0.889400	0.756300
C81	C8	0.975600	0.950900	0.624200
C91	C9	0.883600	0.925700	0.504200
C101	C10	0.091700	0.027000	0.624500
C111	C11	0.746300	0.851000	0.510400
C121	C12	0.198300	0.051400	0.755500
O71	O7	0.949800	0.932400	0.873500
O81	O8	0.963700	0.793600	0.748200
O91	O9	0.716800	0.788300	0.417300
O101	O10	0.659000	0.859800	0.612000
O111	O11	0.149500	0.114600	0.842700
O121	O12	0.332400	0.010100	0.768800
Gd31	Gd3	0.460590	0.731180	0.507940
C131	C13	0.460700	0.610600	0.256300
C141	C14	0.475600	0.549100	0.124200
C151	C15	0.383600	0.574300	0.004200
C161	C16	0.591700	0.473000	0.124500
C171	C17	0.246300	0.649000	0.010400
C181	C18	0.698300	0.448600	0.255500
O131	O13	0.449800	0.567600	0.373500
O141	O14	0.463700	0.706400	0.248200
O151	O15	0.216800	0.711700	0.917300
O161	O16	0.159000	0.640200	0.112000
O171	O17	0.649500	0.385400	0.342700
O181	O18	0.832400	0.489900	0.268800
Gd41	Gd4	0.039410	0.231180	0.992060
C191	C19	0.039300	0.110600	0.243700
C201	C20	0.024400	0.049100	0.375800
C211	C21	0.116400	0.074300	0.495800
C221	C22	0.908300	0.973000	0.375500
C231	C23	0.253700	0.149000	0.489600
C241	C24	0.801700	0.948600	0.244500
O191	O19	0.050200	0.067600	0.126500
O201	O20	0.036300	0.206400	0.251800
O211	O21	0.283200	0.211700	0.582700
O221	O22	0.341000	0.140200	0.388000
O231	O23	0.850500	0.885400	0.157300
O241	O24	0.667600	0.989900	0.231200
