data_LAXJAX_clean_PM
_symmetry_space_group_name_H-M	'P1'
_cell_length_a	45.295800
_cell_length_b	45.295800
_cell_length_c	45.295800
_cell_angle_alpha	60.000000
_cell_angle_beta	60.000000
_cell_angle_gamma	60.000000
_symmetry_Int_Tables_number 1

loop_
_symmetry_equiv_pos_as_xyz
'x,y,z'

loop_
_atom_site_label
_atom_site_type_symbol
_atom_site_fract_x
_atom_site_fract_y
_atom_site_fract_z
Co11	Co1	0.989520	0.010480	0.250000
Co21	Co2	0.510480	0.489520	0.750000
Co31	Co3	0.750000	0.750000	0.489520
Co41	Co4	0.250000	0.250000	0.010480
Co51	Co5	0.989520	0.250000	0.750000
Co61	Co6	0.510480	0.750000	0.250000
Co71	Co7	0.750000	0.489520	0.010480
Co81	Co8	0.250000	0.010480	0.489520
Co91	Co9	0.989520	0.750000	0.010480
Co101	Co10	0.510480	0.250000	0.489520
Co111	Co11	0.750000	0.010480	0.750000
Co121	Co12	0.250000	0.489520	0.250000
Co131	Co13	0.010480	0.989520	0.750000
Co141	Co14	0.489520	0.510480	0.250000
Co151	Co15	0.250000	0.250000	0.510480
Co161	Co16	0.750000	0.750000	0.989520
Co171	Co17	0.010480	0.750000	0.250000
Co181	Co18	0.489520	0.250000	0.750000
Co191	Co19	0.250000	0.510480	0.989520
Co201	Co20	0.750000	0.989520	0.510480
Co211	Co21	0.010480	0.250000	0.989520
Co221	Co22	0.489520	0.750000	0.510480
Co231	Co23	0.250000	0.989520	0.250000
Co241	Co24	0.750000	0.510480	0.750000
Co251	Co25	0.002200	0.247800	0.247800
Co261	Co26	0.747800	0.502200	0.502200
Co271	Co27	0.002200	0.247800	0.502200
Co281	Co28	0.747800	0.502200	0.247800
Co291	Co29	0.002200	0.502200	0.247800
Co301	Co30	0.747800	0.247800	0.502200
Co311	Co31	0.752200	0.997800	0.252200
Co321	Co32	0.497800	0.252200	0.997800
Co331	Co33	0.752200	0.997800	0.997800
Co341	Co34	0.497800	0.252200	0.252200
Co351	Co35	0.497800	0.997800	0.252200
Co361	Co36	0.752200	0.252200	0.997800
Co371	Co37	0.997800	0.752200	0.752200
Co381	Co38	0.252200	0.497800	0.497800
Co391	Co39	0.997800	0.752200	0.497800
Co401	Co40	0.252200	0.497800	0.752200
Co411	Co41	0.997800	0.497800	0.752200
Co421	Co42	0.252200	0.752200	0.497800
Co431	Co43	0.247800	0.002200	0.747800
Co441	Co44	0.502200	0.747800	0.002200
Co451	Co45	0.247800	0.002200	0.002200
Co461	Co46	0.502200	0.747800	0.747800
Co471	Co47	0.502200	0.002200	0.747800
Co481	Co48	0.247800	0.747800	0.002200
H11	H1	0.953200	0.045600	0.313200
H21	H2	0.935100	0.100900	0.318300
H31	H3	0.945600	0.150400	0.266000
H41	H4	0.979100	0.088900	0.207500
H51	H5	0.992600	0.179200	0.017600
H61	H6	0.983100	0.130100	0.069100
H71	H7	0.976200	0.129400	0.124600
H81	H8	0.992100	0.225500	0.071700
H91	H9	0.991700	0.209700	0.216500
H101	H10	0.020800	0.295800	0.165400
H111	H11	0.017400	0.304000	0.112800
H121	H12	0.004400	0.261600	0.109600
H131	H13	0.928900	0.274700	0.238500
H141	H14	0.881900	0.325900	0.225300
H151	H15	0.878500	0.380700	0.222500
H161	H16	0.971000	0.327800	0.245600
H171	H17	0.545600	0.453200	0.688000
H181	H18	0.600900	0.435100	0.645700
H191	H19	0.650400	0.445600	0.638000
H201	H20	0.588900	0.479100	0.724500
H211	H21	0.679200	0.492600	0.810600
H221	H22	0.630100	0.483100	0.817700
H231	H23	0.629400	0.476200	0.769800
H241	H24	0.725500	0.492100	0.710700
H251	H25	0.709700	0.491700	0.582100
H261	H26	0.795800	0.520800	0.518000
H271	H27	0.804000	0.517400	0.565800
H281	H28	0.761600	0.504400	0.624400
H291	H29	0.774700	0.428900	0.557900
H301	H30	0.825900	0.381900	0.566900
H311	H31	0.880700	0.378500	0.518300
H321	H32	0.827800	0.471000	0.455600
H331	H33	0.813200	0.688000	0.453200
H341	H34	0.818300	0.645700	0.435100
H351	H35	0.766000	0.638000	0.445600
H361	H36	0.707500	0.724500	0.479100
H371	H37	0.517600	0.810600	0.492600
H381	H38	0.569100	0.817700	0.483100
H391	H39	0.624600	0.769800	0.476200
H401	H40	0.571700	0.710700	0.492100
H411	H41	0.716500	0.582100	0.491700
H421	H42	0.665400	0.518000	0.520800
H431	H43	0.612800	0.565800	0.517400
H441	H44	0.609600	0.624400	0.504400
H451	H45	0.738500	0.557900	0.428900
H461	H46	0.725300	0.566900	0.381900
H471	H47	0.722500	0.518300	0.378500
H481	H48	0.745600	0.455600	0.471000
H491	H49	0.188000	0.313200	0.045600
H501	H50	0.145700	0.318300	0.100900
H511	H51	0.138000	0.266000	0.150400
H521	H52	0.224500	0.207500	0.088900
H531	H53	0.310600	0.017600	0.179200
H541	H54	0.317700	0.069100	0.130100
H551	H55	0.269800	0.124600	0.129400
H561	H56	0.210700	0.071700	0.225500
H571	H57	0.082100	0.216500	0.209700
H581	H58	0.018000	0.165400	0.295800
H591	H59	0.065800	0.112800	0.304000
H601	H60	0.124400	0.109600	0.261600
H611	H61	0.057900	0.238500	0.274700
H621	H62	0.066900	0.225300	0.325900
H631	H63	0.018300	0.222500	0.380700
H641	H64	0.955600	0.245600	0.327800
H651	H65	0.953200	0.313200	0.688000
H661	H66	0.935100	0.318300	0.645700
H671	H67	0.945600	0.266000	0.638000
H681	H68	0.979100	0.207500	0.724500
H691	H69	0.992600	0.017600	0.810600
H701	H70	0.983100	0.069100	0.817700
H711	H71	0.976200	0.124600	0.769800
H721	H72	0.992100	0.071700	0.710700
H731	H73	0.991700	0.216500	0.582100
H741	H74	0.020800	0.165400	0.518000
H751	H75	0.017400	0.112800	0.565800
H761	H76	0.004400	0.109600	0.624400
H771	H77	0.928900	0.238500	0.557900
H781	H78	0.881900	0.225300	0.566900
H791	H79	0.878500	0.222500	0.518300
H801	H80	0.971000	0.245600	0.455600
H811	H81	0.545600	0.688000	0.313200
H821	H82	0.600900	0.645700	0.318300
H831	H83	0.650400	0.638000	0.266000
H841	H84	0.588900	0.724500	0.207500
H851	H85	0.679200	0.810600	0.017600
H861	H86	0.630100	0.817700	0.069100
H871	H87	0.629400	0.769800	0.124600
H881	H88	0.725500	0.710700	0.071700
H891	H89	0.709700	0.582100	0.216500
H901	H90	0.795800	0.518000	0.165400
H911	H91	0.804000	0.565800	0.112800
H921	H92	0.761600	0.624400	0.109600
H931	H93	0.774700	0.557900	0.238500
H941	H94	0.825900	0.566900	0.225300
H951	H95	0.880700	0.518300	0.222500
H961	H96	0.827800	0.455600	0.245600
H971	H97	0.813200	0.453200	0.045600
H981	H98	0.818300	0.435100	0.100900
H991	H99	0.766000	0.445600	0.150400
H1001	H100	0.707500	0.479100	0.088900
H1011	H101	0.517600	0.492600	0.179200
H1021	H102	0.569100	0.483100	0.130100
H1031	H103	0.624600	0.476200	0.129400
H1041	H104	0.571700	0.492100	0.225500
H1051	H105	0.716500	0.491700	0.209700
H1061	H106	0.665400	0.520800	0.295800
H1071	H107	0.612800	0.517400	0.304000
H1081	H108	0.609600	0.504400	0.261600
H1091	H109	0.738500	0.428900	0.274700
H1101	H110	0.725300	0.381900	0.325900
H1111	H111	0.722500	0.378500	0.380700
H1121	H112	0.745600	0.471000	0.327800
H1131	H113	0.188000	0.045600	0.453200
H1141	H114	0.145700	0.100900	0.435100
H1151	H115	0.138000	0.150400	0.445600
H1161	H116	0.224500	0.088900	0.479100
H1171	H117	0.310600	0.179200	0.492600
H1181	H118	0.317700	0.130100	0.483100
H1191	H119	0.269800	0.129400	0.476200
H1201	H120	0.210700	0.225500	0.492100
H1211	H121	0.082100	0.209700	0.491700
H1221	H122	0.018000	0.295800	0.520800
H1231	H123	0.065800	0.304000	0.517400
H1241	H124	0.124400	0.261600	0.504400
H1251	H125	0.057900	0.274700	0.428900
H1261	H126	0.066900	0.325900	0.381900
H1271	H127	0.018300	0.380700	0.378500
H1281	H128	0.955600	0.327800	0.471000
H1291	H129	0.953200	0.688000	0.045600
H1301	H130	0.935100	0.645700	0.100900
H1311	H131	0.945600	0.638000	0.150400
H1321	H132	0.979100	0.724500	0.088900
H1331	H133	0.992600	0.810600	0.179200
H1341	H134	0.983100	0.817700	0.130100
H1351	H135	0.976200	0.769800	0.129400
H1361	H136	0.992100	0.710700	0.225500
H1371	H137	0.991700	0.582100	0.209700
H1381	H138	0.020800	0.518000	0.295800
H1391	H139	0.017400	0.565800	0.304000
H1401	H140	0.004400	0.624400	0.261600
H1411	H141	0.928900	0.557900	0.274700
H1421	H142	0.881900	0.566900	0.325900
H1431	H143	0.878500	0.518300	0.380700
H1441	H144	0.971000	0.455600	0.327800
H1451	H145	0.545600	0.313200	0.453200
H1461	H146	0.600900	0.318300	0.435100
H1471	H147	0.650400	0.266000	0.445600
H1481	H148	0.588900	0.207500	0.479100
H1491	H149	0.679200	0.017600	0.492600
H1501	H150	0.630100	0.069100	0.483100
H1511	H151	0.629400	0.124600	0.476200
H1521	H152	0.725500	0.071700	0.492100
H1531	H153	0.709700	0.216500	0.491700
H1541	H154	0.795800	0.165400	0.520800
H1551	H155	0.804000	0.112800	0.517400
H1561	H156	0.761600	0.109600	0.504400
H1571	H157	0.774700	0.238500	0.428900
H1581	H158	0.825900	0.225300	0.381900
H1591	H159	0.880700	0.222500	0.378500
H1601	H160	0.827800	0.245600	0.471000
H1611	H161	0.813200	0.045600	0.688000
H1621	H162	0.818300	0.100900	0.645700
H1631	H163	0.766000	0.150400	0.638000
H1641	H164	0.707500	0.088900	0.724500
H1651	H165	0.517600	0.179200	0.810600
H1661	H166	0.569100	0.130100	0.817700
H1671	H167	0.624600	0.129400	0.769800
H1681	H168	0.571700	0.225500	0.710700
H1691	H169	0.716500	0.209700	0.582100
H1701	H170	0.665400	0.295800	0.518000
H1711	H171	0.612800	0.304000	0.565800
H1721	H172	0.609600	0.261600	0.624400
H1731	H173	0.738500	0.274700	0.557900
H1741	H174	0.725300	0.325900	0.566900
H1751	H175	0.722500	0.380700	0.518300
H1761	H176	0.745600	0.327800	0.455600
H1771	H177	0.188000	0.453200	0.313200
H1781	H178	0.145700	0.435100	0.318300
H1791	H179	0.138000	0.445600	0.266000
H1801	H180	0.224500	0.479100	0.207500
H1811	H181	0.310600	0.492600	0.017600
H1821	H182	0.317700	0.483100	0.069100
H1831	H183	0.269800	0.476200	0.124600
H1841	H184	0.210700	0.492100	0.071700
H1851	H185	0.082100	0.491700	0.216500
H1861	H186	0.018000	0.520800	0.165400
H1871	H187	0.065800	0.517400	0.112800
H1881	H188	0.124400	0.504400	0.109600
H1891	H189	0.057900	0.428900	0.238500
H1901	H190	0.066900	0.381900	0.225300
H1911	H191	0.018300	0.378500	0.222500
H1921	H192	0.955600	0.471000	0.245600
H1931	H193	0.954400	0.046800	0.186800
H1941	H194	0.899100	0.064900	0.181700
H1951	H195	0.849600	0.054400	0.234000
H1961	H196	0.911100	0.020900	0.292500
H1971	H197	0.820800	0.007400	0.482400
H1981	H198	0.869900	0.016900	0.430900
H1991	H199	0.870600	0.023800	0.375400
H2001	H200	0.774500	0.007900	0.428300
H2011	H201	0.790300	0.008300	0.283500
H2021	H202	0.704200	0.979200	0.334600
H2031	H203	0.696000	0.982600	0.387200
H2041	H204	0.738400	0.995600	0.390400
H2051	H205	0.725300	0.071100	0.261500
H2061	H206	0.674100	0.118100	0.274700
H2071	H207	0.619300	0.121500	0.277500
H2081	H208	0.672200	0.029000	0.254400
H2091	H209	0.546800	0.454400	0.812000
H2101	H210	0.564900	0.399100	0.854300
H2111	H211	0.554400	0.349600	0.862000
H2121	H212	0.520900	0.411100	0.775500
H2131	H213	0.507400	0.320800	0.689400
H2141	H214	0.516900	0.369900	0.682300
H2151	H215	0.523800	0.370600	0.730200
H2161	H216	0.507900	0.274500	0.789300
H2171	H217	0.508300	0.290300	0.917900
H2181	H218	0.479200	0.204200	0.982000
H2191	H219	0.482600	0.196000	0.934200
H2201	H220	0.495600	0.238400	0.875600
H2211	H221	0.571100	0.225300	0.942100
H2221	H222	0.618100	0.174100	0.933100
H2231	H223	0.621500	0.119300	0.981700
H2241	H224	0.529000	0.172200	0.044400
H2251	H225	0.312000	0.186800	0.046800
H2261	H226	0.354300	0.181700	0.064900
H2271	H227	0.362000	0.234000	0.054400
H2281	H228	0.275500	0.292500	0.020900
H2291	H229	0.189400	0.482400	0.007400
H2301	H230	0.182300	0.430900	0.016900
H2311	H231	0.230200	0.375400	0.023800
H2321	H232	0.289300	0.428300	0.007900
H2331	H233	0.417900	0.283500	0.008300
H2341	H234	0.482000	0.334600	0.979200
H2351	H235	0.434200	0.387200	0.982600
H2361	H236	0.375600	0.390400	0.995600
H2371	H237	0.442100	0.261500	0.071100
H2381	H238	0.433100	0.274700	0.118100
H2391	H239	0.481700	0.277500	0.121500
H2401	H240	0.544400	0.254400	0.029000
H2411	H241	0.686800	0.812000	0.454400
H2421	H242	0.681700	0.854300	0.399100
H2431	H243	0.734000	0.862000	0.349600
H2441	H244	0.792500	0.775500	0.411100
H2451	H245	0.982400	0.689400	0.320800
H2461	H246	0.930900	0.682300	0.369900
H2471	H247	0.875400	0.730200	0.370600
H2481	H248	0.928300	0.789300	0.274500
H2491	H249	0.783500	0.917900	0.290300
H2501	H250	0.834600	0.982000	0.204200
H2511	H251	0.887200	0.934200	0.196000
H2521	H252	0.890400	0.875600	0.238400
H2531	H253	0.761500	0.942100	0.225300
H2541	H254	0.774700	0.933100	0.174100
H2551	H255	0.777500	0.981700	0.119300
H2561	H256	0.754400	0.044400	0.172200
H2571	H257	0.686800	0.046800	0.812000
H2581	H258	0.681700	0.064900	0.854300
H2591	H259	0.734000	0.054400	0.862000
H2601	H260	0.792500	0.020900	0.775500
H2611	H261	0.982400	0.007400	0.689400
H2621	H262	0.930900	0.016900	0.682300
H2631	H263	0.875400	0.023800	0.730200
H2641	H264	0.928300	0.007900	0.789300
H2651	H265	0.783500	0.008300	0.917900
H2661	H266	0.834600	0.979200	0.982000
H2671	H267	0.887200	0.982600	0.934200
H2681	H268	0.890400	0.995600	0.875600
H2691	H269	0.761500	0.071100	0.942100
H2701	H270	0.774700	0.118100	0.933100
H2711	H271	0.777500	0.121500	0.981700
H2721	H272	0.754400	0.029000	0.044400
H2731	H273	0.312000	0.454400	0.186800
H2741	H274	0.354300	0.399100	0.181700
H2751	H275	0.362000	0.349600	0.234000
H2761	H276	0.275500	0.411100	0.292500
H2771	H277	0.189400	0.320800	0.482400
H2781	H278	0.182300	0.369900	0.430900
H2791	H279	0.230200	0.370600	0.375400
H2801	H280	0.289300	0.274500	0.428300
H2811	H281	0.417900	0.290300	0.283500
H2821	H282	0.482000	0.204200	0.334600
H2831	H283	0.434200	0.196000	0.387200
H2841	H284	0.375600	0.238400	0.390400
H2851	H285	0.442100	0.225300	0.261500
H2861	H286	0.433100	0.174100	0.274700
H2871	H287	0.481700	0.119300	0.277500
H2881	H288	0.544400	0.172200	0.254400
H2891	H289	0.546800	0.186800	0.454400
H2901	H290	0.564900	0.181700	0.399100
H2911	H291	0.554400	0.234000	0.349600
H2921	H292	0.520900	0.292500	0.411100
H2931	H293	0.507400	0.482400	0.320800
H2941	H294	0.516900	0.430900	0.369900
H2951	H295	0.523800	0.375400	0.370600
H2961	H296	0.507900	0.428300	0.274500
H2971	H297	0.508300	0.283500	0.290300
H2981	H298	0.479200	0.334600	0.204200
H2991	H299	0.482600	0.387200	0.196000
H3001	H300	0.495600	0.390400	0.238400
H3011	H301	0.571100	0.261500	0.225300
H3021	H302	0.618100	0.274700	0.174100
H3031	H303	0.621500	0.277500	0.119300
H3041	H304	0.529000	0.254400	0.172200
H3051	H305	0.954400	0.812000	0.046800
H3061	H306	0.899100	0.854300	0.064900
H3071	H307	0.849600	0.862000	0.054400
H3081	H308	0.911100	0.775500	0.020900
H3091	H309	0.820800	0.689400	0.007400
H3101	H310	0.869900	0.682300	0.016900
H3111	H311	0.870600	0.730200	0.023800
H3121	H312	0.774500	0.789300	0.007900
H3131	H313	0.790300	0.917900	0.008300
H3141	H314	0.704200	0.982000	0.979200
H3151	H315	0.696000	0.934200	0.982600
H3161	H316	0.738400	0.875600	0.995600
H3171	H317	0.725300	0.942100	0.071100
H3181	H318	0.674100	0.933100	0.118100
H3191	H319	0.619300	0.981700	0.121500
H3201	H320	0.672200	0.044400	0.029000
H3211	H321	0.312000	0.046800	0.454400
H3221	H322	0.354300	0.064900	0.399100
H3231	H323	0.362000	0.054400	0.349600
H3241	H324	0.275500	0.020900	0.411100
H3251	H325	0.189400	0.007400	0.320800
H3261	H326	0.182300	0.016900	0.369900
H3271	H327	0.230200	0.023800	0.370600
H3281	H328	0.289300	0.007900	0.274500
H3291	H329	0.417900	0.008300	0.290300
H3301	H330	0.482000	0.979200	0.204200
H3311	H331	0.434200	0.982600	0.196000
H3321	H332	0.375600	0.995600	0.238400
H3331	H333	0.442100	0.071100	0.225300
H3341	H334	0.433100	0.118100	0.174100
H3351	H335	0.481700	0.121500	0.119300
H3361	H336	0.544400	0.029000	0.172200
H3371	H337	0.686800	0.454400	0.046800
H3381	H338	0.681700	0.399100	0.064900
H3391	H339	0.734000	0.349600	0.054400
H3401	H340	0.792500	0.411100	0.020900
H3411	H341	0.982400	0.320800	0.007400
H3421	H342	0.930900	0.369900	0.016900
H3431	H343	0.875400	0.370600	0.023800
H3441	H344	0.928300	0.274500	0.007900
H3451	H345	0.783500	0.290300	0.008300
H3461	H346	0.834600	0.204200	0.979200
H3471	H347	0.887200	0.196000	0.982600
H3481	H348	0.890400	0.238400	0.995600
H3491	H349	0.761500	0.225300	0.071100
H3501	H350	0.774700	0.174100	0.118100
H3511	H351	0.777500	0.119300	0.121500
H3521	H352	0.754400	0.172200	0.029000
H3531	H353	0.954400	0.186800	0.812000
H3541	H354	0.899100	0.181700	0.854300
H3551	H355	0.849600	0.234000	0.862000
H3561	H356	0.911100	0.292500	0.775500
H3571	H357	0.820800	0.482400	0.689400
H3581	H358	0.869900	0.430900	0.682300
H3591	H359	0.870600	0.375400	0.730200
H3601	H360	0.774500	0.428300	0.789300
H3611	H361	0.790300	0.283500	0.917900
H3621	H362	0.704200	0.334600	0.982000
H3631	H363	0.696000	0.387200	0.934200
H3641	H364	0.738400	0.390400	0.875600
H3651	H365	0.725300	0.261500	0.942100
H3661	H366	0.674100	0.274700	0.933100
H3671	H367	0.619300	0.277500	0.981700
H3681	H368	0.672200	0.254400	0.044400
H3691	H369	0.546800	0.812000	0.186800
H3701	H370	0.564900	0.854300	0.181700
H3711	H371	0.554400	0.862000	0.234000
H3721	H372	0.520900	0.775500	0.292500
H3731	H373	0.507400	0.689400	0.482400
H3741	H374	0.516900	0.682300	0.430900
H3751	H375	0.523800	0.730200	0.375400
H3761	H376	0.507900	0.789300	0.428300
H3771	H377	0.508300	0.917900	0.283500
H3781	H378	0.479200	0.982000	0.334600
H3791	H379	0.482600	0.934200	0.387200
H3801	H380	0.495600	0.875600	0.390400
H3811	H381	0.571100	0.942100	0.261500
H3821	H382	0.618100	0.933100	0.274700
H3831	H383	0.621500	0.981700	0.277500
H3841	H384	0.529000	0.044400	0.254400
H3851	H385	0.046800	0.954400	0.686800
H3861	H386	0.064900	0.899100	0.681700
H3871	H387	0.054400	0.849600	0.734000
H3881	H388	0.020900	0.911100	0.792500
H3891	H389	0.007400	0.820800	0.982400
H3901	H390	0.016900	0.869900	0.930900
H3911	H391	0.023800	0.870600	0.875400
H3921	H392	0.007900	0.774500	0.928300
H3931	H393	0.008300	0.790300	0.783500
H3941	H394	0.979200	0.704200	0.834600
H3951	H395	0.982600	0.696000	0.887200
H3961	H396	0.995600	0.738400	0.890400
H3971	H397	0.071100	0.725300	0.761500
H3981	H398	0.118100	0.674100	0.774700
H3991	H399	0.121500	0.619300	0.777500
H4001	H400	0.029000	0.672200	0.754400
H4011	H401	0.454400	0.546800	0.312000
H4021	H402	0.399100	0.564900	0.354300
H4031	H403	0.349600	0.554400	0.362000
H4041	H404	0.411100	0.520900	0.275500
H4051	H405	0.320800	0.507400	0.189400
H4061	H406	0.369900	0.516900	0.182300
H4071	H407	0.370600	0.523800	0.230200
H4081	H408	0.274500	0.507900	0.289300
H4091	H409	0.290300	0.508300	0.417900
H4101	H410	0.204200	0.479200	0.482000
H4111	H411	0.196000	0.482600	0.434200
H4121	H412	0.238400	0.495600	0.375600
H4131	H413	0.225300	0.571100	0.442100
H4141	H414	0.174100	0.618100	0.433100
H4151	H415	0.119300	0.621500	0.481700
H4161	H416	0.172200	0.529000	0.544400
H4171	H417	0.186800	0.312000	0.546800
H4181	H418	0.181700	0.354300	0.564900
H4191	H419	0.234000	0.362000	0.554400
H4201	H420	0.292500	0.275500	0.520900
H4211	H421	0.482400	0.189400	0.507400
H4221	H422	0.430900	0.182300	0.516900
H4231	H423	0.375400	0.230200	0.523800
H4241	H424	0.428300	0.289300	0.507900
H4251	H425	0.283500	0.417900	0.508300
H4261	H426	0.334600	0.482000	0.479200
H4271	H427	0.387200	0.434200	0.482600
H4281	H428	0.390400	0.375600	0.495600
H4291	H429	0.261500	0.442100	0.571100
H4301	H430	0.274700	0.433100	0.618100
H4311	H431	0.277500	0.481700	0.621500
H4321	H432	0.254400	0.544400	0.529000
H4331	H433	0.812000	0.686800	0.954400
H4341	H434	0.854300	0.681700	0.899100
H4351	H435	0.862000	0.734000	0.849600
H4361	H436	0.775500	0.792500	0.911100
H4371	H437	0.689400	0.982400	0.820800
H4381	H438	0.682300	0.930900	0.869900
H4391	H439	0.730200	0.875400	0.870600
H4401	H440	0.789300	0.928300	0.774500
H4411	H441	0.917900	0.783500	0.790300
H4421	H442	0.982000	0.834600	0.704200
H4431	H443	0.934200	0.887200	0.696000
H4441	H444	0.875600	0.890400	0.738400
H4451	H445	0.942100	0.761500	0.725300
H4461	H446	0.933100	0.774700	0.674100
H4471	H447	0.981700	0.777500	0.619300
H4481	H448	0.044400	0.754400	0.672200
H4491	H449	0.046800	0.686800	0.312000
H4501	H450	0.064900	0.681700	0.354300
H4511	H451	0.054400	0.734000	0.362000
H4521	H452	0.020900	0.792500	0.275500
H4531	H453	0.007400	0.982400	0.189400
H4541	H454	0.016900	0.930900	0.182300
H4551	H455	0.023800	0.875400	0.230200
H4561	H456	0.007900	0.928300	0.289300
H4571	H457	0.008300	0.783500	0.417900
H4581	H458	0.979200	0.834600	0.482000
H4591	H459	0.982600	0.887200	0.434200
H4601	H460	0.995600	0.890400	0.375600
H4611	H461	0.071100	0.761500	0.442100
H4621	H462	0.118100	0.774700	0.433100
H4631	H463	0.121500	0.777500	0.481700
H4641	H464	0.029000	0.754400	0.544400
H4651	H465	0.454400	0.312000	0.686800
H4661	H466	0.399100	0.354300	0.681700
H4671	H467	0.349600	0.362000	0.734000
H4681	H468	0.411100	0.275500	0.792500
H4691	H469	0.320800	0.189400	0.982400
H4701	H470	0.369900	0.182300	0.930900
H4711	H471	0.370600	0.230200	0.875400
H4721	H472	0.274500	0.289300	0.928300
H4731	H473	0.290300	0.417900	0.783500
H4741	H474	0.204200	0.482000	0.834600
H4751	H475	0.196000	0.434200	0.887200
H4761	H476	0.238400	0.375600	0.890400
H4771	H477	0.225300	0.442100	0.761500
H4781	H478	0.174100	0.433100	0.774700
H4791	H479	0.119300	0.481700	0.777500
H4801	H480	0.172200	0.544400	0.754400
H4811	H481	0.186800	0.546800	0.954400
H4821	H482	0.181700	0.564900	0.899100
H4831	H483	0.234000	0.554400	0.849600
H4841	H484	0.292500	0.520900	0.911100
H4851	H485	0.482400	0.507400	0.820800
H4861	H486	0.430900	0.516900	0.869900
H4871	H487	0.375400	0.523800	0.870600
H4881	H488	0.428300	0.507900	0.774500
H4891	H489	0.283500	0.508300	0.790300
H4901	H490	0.334600	0.479200	0.704200
H4911	H491	0.387200	0.482600	0.696000
H4921	H492	0.390400	0.495600	0.738400
H4931	H493	0.261500	0.571100	0.725300
H4941	H494	0.274700	0.618100	0.674100
H4951	H495	0.277500	0.621500	0.619300
H4961	H496	0.254400	0.529000	0.672200
H4971	H497	0.812000	0.954400	0.546800
H4981	H498	0.854300	0.899100	0.564900
H4991	H499	0.862000	0.849600	0.554400
H5001	H500	0.775500	0.911100	0.520900
H5011	H501	0.689400	0.820800	0.507400
H5021	H502	0.682300	0.869900	0.516900
H5031	H503	0.730200	0.870600	0.523800
H5041	H504	0.789300	0.774500	0.507900
H5051	H505	0.917900	0.790300	0.508300
H5061	H506	0.982000	0.704200	0.479200
H5071	H507	0.934200	0.696000	0.482600
H5081	H508	0.875600	0.738400	0.495600
H5091	H509	0.942100	0.725300	0.571100
H5101	H510	0.933100	0.674100	0.618100
H5111	H511	0.981700	0.619300	0.621500
H5121	H512	0.044400	0.672200	0.529000
H5131	H513	0.046800	0.312000	0.954400
H5141	H514	0.064900	0.354300	0.899100
H5151	H515	0.054400	0.362000	0.849600
H5161	H516	0.020900	0.275500	0.911100
H5171	H517	0.007400	0.189400	0.820800
H5181	H518	0.016900	0.182300	0.869900
H5191	H519	0.023800	0.230200	0.870600
H5201	H520	0.007900	0.289300	0.774500
H5211	H521	0.008300	0.417900	0.790300
H5221	H522	0.979200	0.482000	0.704200
H5231	H523	0.982600	0.434200	0.696000
H5241	H524	0.995600	0.375600	0.738400
H5251	H525	0.071100	0.442100	0.725300
H5261	H526	0.118100	0.433100	0.674100
H5271	H527	0.121500	0.481700	0.619300
H5281	H528	0.029000	0.544400	0.672200
H5291	H529	0.454400	0.686800	0.546800
H5301	H530	0.399100	0.681700	0.564900
H5311	H531	0.349600	0.734000	0.554400
H5321	H532	0.411100	0.792500	0.520900
H5331	H533	0.320800	0.982400	0.507400
H5341	H534	0.369900	0.930900	0.516900
H5351	H535	0.370600	0.875400	0.523800
H5361	H536	0.274500	0.928300	0.507900
H5371	H537	0.290300	0.783500	0.508300
H5381	H538	0.204200	0.834600	0.479200
H5391	H539	0.196000	0.887200	0.482600
H5401	H540	0.238400	0.890400	0.495600
H5411	H541	0.225300	0.761500	0.571100
H5421	H542	0.174100	0.774700	0.618100
H5431	H543	0.119300	0.777500	0.621500
H5441	H544	0.172200	0.754400	0.529000
H5451	H545	0.186800	0.954400	0.312000
H5461	H546	0.181700	0.899100	0.354300
H5471	H547	0.234000	0.849600	0.362000
H5481	H548	0.292500	0.911100	0.275500
H5491	H549	0.482400	0.820800	0.189400
H5501	H550	0.430900	0.869900	0.182300
H5511	H551	0.375400	0.870600	0.230200
H5521	H552	0.428300	0.774500	0.289300
H5531	H553	0.283500	0.790300	0.417900
H5541	H554	0.334600	0.704200	0.482000
H5551	H555	0.387200	0.696000	0.434200
H5561	H556	0.390400	0.738400	0.375600
H5571	H557	0.261500	0.725300	0.442100
H5581	H558	0.274700	0.674100	0.433100
H5591	H559	0.277500	0.619300	0.481700
H5601	H560	0.254400	0.672200	0.544400
H5611	H561	0.812000	0.546800	0.686800
H5621	H562	0.854300	0.564900	0.681700
H5631	H563	0.862000	0.554400	0.734000
H5641	H564	0.775500	0.520900	0.792500
H5651	H565	0.689400	0.507400	0.982400
H5661	H566	0.682300	0.516900	0.930900
H5671	H567	0.730200	0.523800	0.875400
H5681	H568	0.789300	0.507900	0.928300
H5691	H569	0.917900	0.508300	0.783500
H5701	H570	0.982000	0.479200	0.834600
H5711	H571	0.934200	0.482600	0.887200
H5721	H572	0.875600	0.495600	0.890400
H5731	H573	0.942100	0.571100	0.761500
H5741	H574	0.933100	0.618100	0.774700
H5751	H575	0.981700	0.621500	0.777500
H5761	H576	0.044400	0.529000	0.754400
H5771	H577	0.045600	0.953200	0.813200
H5781	H578	0.100900	0.935100	0.818300
H5791	H579	0.150400	0.945600	0.766000
H5801	H580	0.088900	0.979100	0.707500
H5811	H581	0.179200	0.992600	0.517600
H5821	H582	0.130100	0.983100	0.569100
H5831	H583	0.129400	0.976200	0.624600
H5841	H584	0.225500	0.992100	0.571700
H5851	H585	0.209700	0.991700	0.716500
H5861	H586	0.295800	0.020800	0.665400
H5871	H587	0.304000	0.017400	0.612800
H5881	H588	0.261600	0.004400	0.609600
H5891	H589	0.274700	0.928900	0.738500
H5901	H590	0.325900	0.881900	0.725300
H5911	H591	0.380700	0.878500	0.722500
H5921	H592	0.327800	0.971000	0.745600
H5931	H593	0.453200	0.545600	0.188000
H5941	H594	0.435100	0.600900	0.145700
H5951	H595	0.445600	0.650400	0.138000
H5961	H596	0.479100	0.588900	0.224500
H5971	H597	0.492600	0.679200	0.310600
H5981	H598	0.483100	0.630100	0.317700
H5991	H599	0.476200	0.629400	0.269800
H6001	H600	0.492100	0.725500	0.210700
H6011	H601	0.491700	0.709700	0.082100
H6021	H602	0.520800	0.795800	0.018000
H6031	H603	0.517400	0.804000	0.065800
H6041	H604	0.504400	0.761600	0.124400
H6051	H605	0.428900	0.774700	0.057900
H6061	H606	0.381900	0.825900	0.066900
H6071	H607	0.378500	0.880700	0.018300
H6081	H608	0.471000	0.827800	0.955600
H6091	H609	0.688000	0.813200	0.953200
H6101	H610	0.645700	0.818300	0.935100
H6111	H611	0.638000	0.766000	0.945600
H6121	H612	0.724500	0.707500	0.979100
H6131	H613	0.810600	0.517600	0.992600
H6141	H614	0.817700	0.569100	0.983100
H6151	H615	0.769800	0.624600	0.976200
H6161	H616	0.710700	0.571700	0.992100
H6171	H617	0.582100	0.716500	0.991700
H6181	H618	0.518000	0.665400	0.020800
H6191	H619	0.565800	0.612800	0.017400
H6201	H620	0.624400	0.609600	0.004400
H6211	H621	0.557900	0.738500	0.928900
H6221	H622	0.566900	0.725300	0.881900
H6231	H623	0.518300	0.722500	0.878500
H6241	H624	0.455600	0.745600	0.971000
H6251	H625	0.313200	0.188000	0.545600
H6261	H626	0.318300	0.145700	0.600900
H6271	H627	0.266000	0.138000	0.650400
H6281	H628	0.207500	0.224500	0.588900
H6291	H629	0.017600	0.310600	0.679200
H6301	H630	0.069100	0.317700	0.630100
H6311	H631	0.124600	0.269800	0.629400
H6321	H632	0.071700	0.210700	0.725500
H6331	H633	0.216500	0.082100	0.709700
H6341	H634	0.165400	0.018000	0.795800
H6351	H635	0.112800	0.065800	0.804000
H6361	H636	0.109600	0.124400	0.761600
H6371	H637	0.238500	0.057900	0.774700
H6381	H638	0.225300	0.066900	0.825900
H6391	H639	0.222500	0.018300	0.880700
H6401	H640	0.245600	0.955600	0.827800
H6411	H641	0.313200	0.953200	0.188000
H6421	H642	0.318300	0.935100	0.145700
H6431	H643	0.266000	0.945600	0.138000
H6441	H644	0.207500	0.979100	0.224500
H6451	H645	0.017600	0.992600	0.310600
H6461	H646	0.069100	0.983100	0.317700
H6471	H647	0.124600	0.976200	0.269800
H6481	H648	0.071700	0.992100	0.210700
H6491	H649	0.216500	0.991700	0.082100
H6501	H650	0.165400	0.020800	0.018000
H6511	H651	0.112800	0.017400	0.065800
H6521	H652	0.109600	0.004400	0.124400
H6531	H653	0.238500	0.928900	0.057900
H6541	H654	0.225300	0.881900	0.066900
H6551	H655	0.222500	0.878500	0.018300
H6561	H656	0.245600	0.971000	0.955600
H6571	H657	0.688000	0.545600	0.813200
H6581	H658	0.645700	0.600900	0.818300
H6591	H659	0.638000	0.650400	0.766000
H6601	H660	0.724500	0.588900	0.707500
H6611	H661	0.810600	0.679200	0.517600
H6621	H662	0.817700	0.630100	0.569100
H6631	H663	0.769800	0.629400	0.624600
H6641	H664	0.710700	0.725500	0.571700
H6651	H665	0.582100	0.709700	0.716500
H6661	H666	0.518000	0.795800	0.665400
H6671	H667	0.565800	0.804000	0.612800
H6681	H668	0.624400	0.761600	0.609600
H6691	H669	0.557900	0.774700	0.738500
H6701	H670	0.566900	0.825900	0.725300
H6711	H671	0.518300	0.880700	0.722500
H6721	H672	0.455600	0.827800	0.745600
H6731	H673	0.453200	0.813200	0.545600
H6741	H674	0.435100	0.818300	0.600900
H6751	H675	0.445600	0.766000	0.650400
H6761	H676	0.479100	0.707500	0.588900
H6771	H677	0.492600	0.517600	0.679200
H6781	H678	0.483100	0.569100	0.630100
H6791	H679	0.476200	0.624600	0.629400
H6801	H680	0.492100	0.571700	0.725500
H6811	H681	0.491700	0.716500	0.709700
H6821	H682	0.520800	0.665400	0.795800
H6831	H683	0.517400	0.612800	0.804000
H6841	H684	0.504400	0.609600	0.761600
H6851	H685	0.428900	0.738500	0.774700
H6861	H686	0.381900	0.725300	0.825900
H6871	H687	0.378500	0.722500	0.880700
H6881	H688	0.471000	0.745600	0.827800
H6891	H689	0.045600	0.188000	0.953200
H6901	H690	0.100900	0.145700	0.935100
H6911	H691	0.150400	0.138000	0.945600
H6921	H692	0.088900	0.224500	0.979100
H6931	H693	0.179200	0.310600	0.992600
H6941	H694	0.130100	0.317700	0.983100
H6951	H695	0.129400	0.269800	0.976200
H6961	H696	0.225500	0.210700	0.992100
H6971	H697	0.209700	0.082100	0.991700
H6981	H698	0.295800	0.018000	0.020800
H6991	H699	0.304000	0.065800	0.017400
H7001	H700	0.261600	0.124400	0.004400
H7011	H701	0.274700	0.057900	0.928900
H7021	H702	0.325900	0.066900	0.881900
H7031	H703	0.380700	0.018300	0.878500
H7041	H704	0.327800	0.955600	0.971000
H7051	H705	0.688000	0.953200	0.545600
H7061	H706	0.645700	0.935100	0.600900
H7071	H707	0.638000	0.945600	0.650400
H7081	H708	0.724500	0.979100	0.588900
H7091	H709	0.810600	0.992600	0.679200
H7101	H710	0.817700	0.983100	0.630100
H7111	H711	0.769800	0.976200	0.629400
H7121	H712	0.710700	0.992100	0.725500
H7131	H713	0.582100	0.991700	0.709700
H7141	H714	0.518000	0.020800	0.795800
H7151	H715	0.565800	0.017400	0.804000
H7161	H716	0.624400	0.004400	0.761600
H7171	H717	0.557900	0.928900	0.774700
H7181	H718	0.566900	0.881900	0.825900
H7191	H719	0.518300	0.878500	0.880700
H7201	H720	0.455600	0.971000	0.827800
H7211	H721	0.313200	0.545600	0.953200
H7221	H722	0.318300	0.600900	0.935100
H7231	H723	0.266000	0.650400	0.945600
H7241	H724	0.207500	0.588900	0.979100
H7251	H725	0.017600	0.679200	0.992600
H7261	H726	0.069100	0.630100	0.983100
H7271	H727	0.124600	0.629400	0.976200
H7281	H728	0.071700	0.725500	0.992100
H7291	H729	0.216500	0.709700	0.991700
H7301	H730	0.165400	0.795800	0.020800
H7311	H731	0.112800	0.804000	0.017400
H7321	H732	0.109600	0.761600	0.004400
H7331	H733	0.238500	0.774700	0.928900
H7341	H734	0.225300	0.825900	0.881900
H7351	H735	0.222500	0.880700	0.878500
H7361	H736	0.245600	0.827800	0.971000
H7371	H737	0.045600	0.813200	0.188000
H7381	H738	0.100900	0.818300	0.145700
H7391	H739	0.150400	0.766000	0.138000
H7401	H740	0.088900	0.707500	0.224500
H7411	H741	0.179200	0.517600	0.310600
H7421	H742	0.130100	0.569100	0.317700
H7431	H743	0.129400	0.624600	0.269800
H7441	H744	0.225500	0.571700	0.210700
H7451	H745	0.209700	0.716500	0.082100
H7461	H746	0.295800	0.665400	0.018000
H7471	H747	0.304000	0.612800	0.065800
H7481	H748	0.261600	0.609600	0.124400
H7491	H749	0.274700	0.738500	0.057900
H7501	H750	0.325900	0.725300	0.066900
H7511	H751	0.380700	0.722500	0.018300
H7521	H752	0.327800	0.745600	0.955600
H7531	H753	0.453200	0.188000	0.813200
H7541	H754	0.435100	0.145700	0.818300
H7551	H755	0.445600	0.138000	0.766000
H7561	H756	0.479100	0.224500	0.707500
H7571	H757	0.492600	0.310600	0.517600
H7581	H758	0.483100	0.317700	0.569100
H7591	H759	0.476200	0.269800	0.624600
H7601	H760	0.492100	0.210700	0.571700
H7611	H761	0.491700	0.082100	0.716500
H7621	H762	0.520800	0.018000	0.665400
H7631	H763	0.517400	0.065800	0.612800
H7641	H764	0.504400	0.124400	0.609600
H7651	H765	0.428900	0.057900	0.738500
H7661	H766	0.381900	0.066900	0.725300
H7671	H767	0.378500	0.018300	0.722500
H7681	H768	0.471000	0.955600	0.745600
C11	C1	0.960140	0.977780	0.335820
C21	C2	0.955630	0.065970	0.291890
C31	C3	0.945450	0.098690	0.295150
C41	C4	0.950540	0.128200	0.264380
C51	C5	0.962920	0.124500	0.231340
C61	C6	0.971270	0.091050	0.230330
C71	C7	0.990740	0.178840	0.039600
C81	C8	0.984720	0.149560	0.070240
C91	C9	0.981000	0.148940	0.102940
C101	C10	0.984470	0.177610	0.103110
C111	C11	0.990440	0.205680	0.071240
C121	C12	0.981680	0.178220	0.136740
C131	C13	0.970740	0.153960	0.196860
C141	C14	0.985350	0.204210	0.165350
C151	C15	0.995300	0.231380	0.164060
C161	C16	0.997040	0.229040	0.194900
C171	C17	0.013860	0.279300	0.165140
C181	C18	0.012530	0.283890	0.133650
C191	C19	0.004120	0.259460	0.131760
C201	C20	0.945800	0.204580	0.296780
C211	C21	0.927960	0.296780	0.237120
C221	C22	0.899950	0.326830	0.229550
C231	C23	0.897820	0.359180	0.228080
C241	C24	0.924190	0.359550	0.234810
C251	C25	0.952530	0.327530	0.241610
C261	C26	0.923440	0.393100	0.233560
C271	C27	0.477780	0.460140	0.726260
C281	C28	0.565970	0.455630	0.686510
C291	C29	0.598690	0.445450	0.660710
C301	C30	0.628200	0.450540	0.656880
C311	C31	0.624500	0.462920	0.681240
C321	C32	0.591050	0.471270	0.707350
C331	C33	0.678840	0.490740	0.790820
C341	C34	0.649560	0.484720	0.795480
C351	C35	0.648940	0.481000	0.767120
C361	C36	0.677610	0.484470	0.734810
C371	C37	0.705680	0.490440	0.732640
C381	C38	0.678220	0.481680	0.703360
C391	C39	0.653960	0.470740	0.678440
C401	C40	0.704210	0.485350	0.645090
C411	C41	0.731380	0.495300	0.609260
C421	C42	0.729040	0.497040	0.579020
C431	C43	0.779300	0.513860	0.541700
C441	C44	0.783890	0.512530	0.569930
C451	C45	0.759460	0.504120	0.604660
C461	C46	0.704580	0.445800	0.552840
C471	C47	0.796780	0.427960	0.538140
C481	C48	0.826830	0.399950	0.543670
C491	C49	0.859180	0.397820	0.514920
C501	C50	0.859550	0.424190	0.481450
C511	C51	0.827530	0.452530	0.478330
C521	C52	0.893100	0.423440	0.449900
C531	C53	0.835820	0.726260	0.460140
C541	C54	0.791890	0.686510	0.455630
C551	C55	0.795150	0.660710	0.445450
C561	C56	0.764380	0.656880	0.450540
C571	C57	0.731340	0.681240	0.462920
C581	C58	0.730330	0.707350	0.471270
C591	C59	0.539600	0.790820	0.490740
C601	C60	0.570240	0.795480	0.484720
C611	C61	0.602940	0.767120	0.481000
C621	C62	0.603110	0.734810	0.484470
C631	C63	0.571240	0.732640	0.490440
C641	C64	0.636740	0.703360	0.481680
C651	C65	0.696860	0.678440	0.470740
C661	C66	0.665350	0.645090	0.485350
C671	C67	0.664060	0.609260	0.495300
C681	C68	0.694900	0.579020	0.497040
C691	C69	0.665140	0.541700	0.513860
C701	C70	0.633650	0.569930	0.512530
C711	C71	0.631760	0.604660	0.504120
C721	C72	0.796780	0.552840	0.445800
C731	C73	0.737120	0.538140	0.427960
C741	C74	0.729550	0.543670	0.399950
C751	C75	0.728080	0.514920	0.397820
C761	C76	0.734810	0.481450	0.424190
C771	C77	0.741610	0.478330	0.452530
C781	C78	0.733560	0.449900	0.423440
C791	C79	0.226260	0.335820	0.977780
C801	C80	0.186510	0.291890	0.065970
C811	C81	0.160710	0.295150	0.098690
C821	C82	0.156880	0.264380	0.128200
C831	C83	0.181240	0.231340	0.124500
C841	C84	0.207350	0.230330	0.091050
C851	C85	0.290820	0.039600	0.178840
C861	C86	0.295480	0.070240	0.149560
C871	C87	0.267120	0.102940	0.148940
C881	C88	0.234810	0.103110	0.177610
C891	C89	0.232640	0.071240	0.205680
C901	C90	0.203360	0.136740	0.178220
C911	C91	0.178440	0.196860	0.153960
C921	C92	0.145090	0.165350	0.204210
C931	C93	0.109260	0.164060	0.231380
C941	C94	0.079020	0.194900	0.229040
C951	C95	0.041700	0.165140	0.279300
C961	C96	0.069930	0.133650	0.283890
C971	C97	0.104660	0.131760	0.259460
C981	C98	0.052840	0.296780	0.204580
C991	C99	0.038140	0.237120	0.296780
C1001	C100	0.043670	0.229550	0.326830
C1011	C101	0.014920	0.228080	0.359180
C1021	C102	0.981450	0.234810	0.359550
C1031	C103	0.978330	0.241610	0.327530
C1041	C104	0.949900	0.233560	0.393100
C1051	C105	0.960140	0.335820	0.726260
C1061	C106	0.955630	0.291890	0.686510
C1071	C107	0.945450	0.295150	0.660710
C1081	C108	0.950540	0.264380	0.656880
C1091	C109	0.962920	0.231340	0.681240
C1101	C110	0.971270	0.230330	0.707350
C1111	C111	0.990740	0.039600	0.790820
C1121	C112	0.984720	0.070240	0.795480
C1131	C113	0.981000	0.102940	0.767120
C1141	C114	0.984470	0.103110	0.734810
C1151	C115	0.990440	0.071240	0.732640
C1161	C116	0.981680	0.136740	0.703360
C1171	C117	0.970740	0.196860	0.678440
C1181	C118	0.985350	0.165350	0.645090
C1191	C119	0.995300	0.164060	0.609260
C1201	C120	0.997040	0.194900	0.579020
C1211	C121	0.013860	0.165140	0.541700
C1221	C122	0.012530	0.133650	0.569930
C1231	C123	0.004120	0.131760	0.604660
C1241	C124	0.945800	0.296780	0.552840
C1251	C125	0.927960	0.237120	0.538140
C1261	C126	0.899950	0.229550	0.543670
C1271	C127	0.897820	0.228080	0.514920
C1281	C128	0.924190	0.234810	0.481450
C1291	C129	0.952530	0.241610	0.478330
C1301	C130	0.923440	0.233560	0.449900
C1311	C131	0.477780	0.726260	0.335820
C1321	C132	0.565970	0.686510	0.291890
C1331	C133	0.598690	0.660710	0.295150
C1341	C134	0.628200	0.656880	0.264380
C1351	C135	0.624500	0.681240	0.231340
C1361	C136	0.591050	0.707350	0.230330
C1371	C137	0.678840	0.790820	0.039600
C1381	C138	0.649560	0.795480	0.070240
C1391	C139	0.648940	0.767120	0.102940
C1401	C140	0.677610	0.734810	0.103110
C1411	C141	0.705680	0.732640	0.071240
C1421	C142	0.678220	0.703360	0.136740
C1431	C143	0.653960	0.678440	0.196860
C1441	C144	0.704210	0.645090	0.165350
C1451	C145	0.731380	0.609260	0.164060
C1461	C146	0.729040	0.579020	0.194900
C1471	C147	0.779300	0.541700	0.165140
C1481	C148	0.783890	0.569930	0.133650
C1491	C149	0.759460	0.604660	0.131760
C1501	C150	0.704580	0.552840	0.296780
C1511	C151	0.796780	0.538140	0.237120
C1521	C152	0.826830	0.543670	0.229550
C1531	C153	0.859180	0.514920	0.228080
C1541	C154	0.859550	0.481450	0.234810
C1551	C155	0.827530	0.478330	0.241610
C1561	C156	0.893100	0.449900	0.233560
C1571	C157	0.835820	0.460140	0.977780
C1581	C158	0.791890	0.455630	0.065970
C1591	C159	0.795150	0.445450	0.098690
C1601	C160	0.764380	0.450540	0.128200
C1611	C161	0.731340	0.462920	0.124500
C1621	C162	0.730330	0.471270	0.091050
C1631	C163	0.539600	0.490740	0.178840
C1641	C164	0.570240	0.484720	0.149560
C1651	C165	0.602940	0.481000	0.148940
C1661	C166	0.603110	0.484470	0.177610
C1671	C167	0.571240	0.490440	0.205680
C1681	C168	0.636740	0.481680	0.178220
C1691	C169	0.696860	0.470740	0.153960
C1701	C170	0.665350	0.485350	0.204210
C1711	C171	0.664060	0.495300	0.231380
C1721	C172	0.694900	0.497040	0.229040
C1731	C173	0.665140	0.513860	0.279300
C1741	C174	0.633650	0.512530	0.283890
C1751	C175	0.631760	0.504120	0.259460
C1761	C176	0.796780	0.445800	0.204580
C1771	C177	0.737120	0.427960	0.296780
C1781	C178	0.729550	0.399950	0.326830
C1791	C179	0.728080	0.397820	0.359180
C1801	C180	0.734810	0.424190	0.359550
C1811	C181	0.741610	0.452530	0.327530
C1821	C182	0.733560	0.423440	0.393100
C1831	C183	0.226260	0.977780	0.460140
C1841	C184	0.186510	0.065970	0.455630
C1851	C185	0.160710	0.098690	0.445450
C1861	C186	0.156880	0.128200	0.450540
C1871	C187	0.181240	0.124500	0.462920
C1881	C188	0.207350	0.091050	0.471270
C1891	C189	0.290820	0.178840	0.490740
C1901	C190	0.295480	0.149560	0.484720
C1911	C191	0.267120	0.148940	0.481000
C1921	C192	0.234810	0.177610	0.484470
C1931	C193	0.232640	0.205680	0.490440
C1941	C194	0.203360	0.178220	0.481680
C1951	C195	0.178440	0.153960	0.470740
C1961	C196	0.145090	0.204210	0.485350
C1971	C197	0.109260	0.231380	0.495300
C1981	C198	0.079020	0.229040	0.497040
C1991	C199	0.041700	0.279300	0.513860
C2001	C200	0.069930	0.283890	0.512530
C2011	C201	0.104660	0.259460	0.504120
C2021	C202	0.052840	0.204580	0.445800
C2031	C203	0.038140	0.296780	0.427960
C2041	C204	0.043670	0.326830	0.399950
C2051	C205	0.014920	0.359180	0.397820
C2061	C206	0.981450	0.359550	0.424190
C2071	C207	0.978330	0.327530	0.452530
C2081	C208	0.949900	0.393100	0.423440
C2091	C209	0.960140	0.726260	0.977780
C2101	C210	0.955630	0.686510	0.065970
C2111	C211	0.945450	0.660710	0.098690
C2121	C212	0.950540	0.656880	0.128200
C2131	C213	0.962920	0.681240	0.124500
C2141	C214	0.971270	0.707350	0.091050
C2151	C215	0.990740	0.790820	0.178840
C2161	C216	0.984720	0.795480	0.149560
C2171	C217	0.981000	0.767120	0.148940
C2181	C218	0.984470	0.734810	0.177610
C2191	C219	0.990440	0.732640	0.205680
C2201	C220	0.981680	0.703360	0.178220
C2211	C221	0.970740	0.678440	0.153960
C2221	C222	0.985350	0.645090	0.204210
C2231	C223	0.995300	0.609260	0.231380
C2241	C224	0.997040	0.579020	0.229040
C2251	C225	0.013860	0.541700	0.279300
C2261	C226	0.012530	0.569930	0.283890
C2271	C227	0.004120	0.604660	0.259460
C2281	C228	0.945800	0.552840	0.204580
C2291	C229	0.927960	0.538140	0.296780
C2301	C230	0.899950	0.543670	0.326830
C2311	C231	0.897820	0.514920	0.359180
C2321	C232	0.924190	0.481450	0.359550
C2331	C233	0.952530	0.478330	0.327530
C2341	C234	0.923440	0.449900	0.393100
C2351	C235	0.477780	0.335820	0.460140
C2361	C236	0.565970	0.291890	0.455630
C2371	C237	0.598690	0.295150	0.445450
C2381	C238	0.628200	0.264380	0.450540
C2391	C239	0.624500	0.231340	0.462920
C2401	C240	0.591050	0.230330	0.471270
C2411	C241	0.678840	0.039600	0.490740
C2421	C242	0.649560	0.070240	0.484720
C2431	C243	0.648940	0.102940	0.481000
C2441	C244	0.677610	0.103110	0.484470
C2451	C245	0.705680	0.071240	0.490440
C2461	C246	0.678220	0.136740	0.481680
C2471	C247	0.653960	0.196860	0.470740
C2481	C248	0.704210	0.165350	0.485350
C2491	C249	0.731380	0.164060	0.495300
C2501	C250	0.729040	0.194900	0.497040
C2511	C251	0.779300	0.165140	0.513860
C2521	C252	0.783890	0.133650	0.512530
C2531	C253	0.759460	0.131760	0.504120
C2541	C254	0.704580	0.296780	0.445800
C2551	C255	0.796780	0.237120	0.427960
C2561	C256	0.826830	0.229550	0.399950
C2571	C257	0.859180	0.228080	0.397820
C2581	C258	0.859550	0.234810	0.424190
C2591	C259	0.827530	0.241610	0.452530
C2601	C260	0.893100	0.233560	0.423440
C2611	C261	0.835820	0.977780	0.726260
C2621	C262	0.791890	0.065970	0.686510
C2631	C263	0.795150	0.098690	0.660710
C2641	C264	0.764380	0.128200	0.656880
C2651	C265	0.731340	0.124500	0.681240
C2661	C266	0.730330	0.091050	0.707350
C2671	C267	0.539600	0.178840	0.790820
C2681	C268	0.570240	0.149560	0.795480
C2691	C269	0.602940	0.148940	0.767120
C2701	C270	0.603110	0.177610	0.734810
C2711	C271	0.571240	0.205680	0.732640
C2721	C272	0.636740	0.178220	0.703360
C2731	C273	0.696860	0.153960	0.678440
C2741	C274	0.665350	0.204210	0.645090
C2751	C275	0.664060	0.231380	0.609260
C2761	C276	0.694900	0.229040	0.579020
C2771	C277	0.665140	0.279300	0.541700
C2781	C278	0.633650	0.283890	0.569930
C2791	C279	0.631760	0.259460	0.604660
C2801	C280	0.796780	0.204580	0.552840
C2811	C281	0.737120	0.296780	0.538140
C2821	C282	0.729550	0.326830	0.543670
C2831	C283	0.728080	0.359180	0.514920
C2841	C284	0.734810	0.359550	0.481450
C2851	C285	0.741610	0.327530	0.478330
C2861	C286	0.733560	0.393100	0.449900
C2871	C287	0.226260	0.460140	0.335820
C2881	C288	0.186510	0.455630	0.291890
C2891	C289	0.160710	0.445450	0.295150
C2901	C290	0.156880	0.450540	0.264380
C2911	C291	0.181240	0.462920	0.231340
C2921	C292	0.207350	0.471270	0.230330
C2931	C293	0.290820	0.490740	0.039600
C2941	C294	0.295480	0.484720	0.070240
C2951	C295	0.267120	0.481000	0.102940
C2961	C296	0.234810	0.484470	0.103110
C2971	C297	0.232640	0.490440	0.071240
C2981	C298	0.203360	0.481680	0.136740
C2991	C299	0.178440	0.470740	0.196860
C3001	C300	0.145090	0.485350	0.165350
C3011	C301	0.109260	0.495300	0.164060
C3021	C302	0.079020	0.497040	0.194900
C3031	C303	0.041700	0.513860	0.165140
C3041	C304	0.069930	0.512530	0.133650
C3051	C305	0.104660	0.504120	0.131760
C3061	C306	0.052840	0.445800	0.296780
C3071	C307	0.038140	0.427960	0.237120
C3081	C308	0.043670	0.399950	0.229550
C3091	C309	0.014920	0.397820	0.228080
C3101	C310	0.981450	0.424190	0.234810
C3111	C311	0.978330	0.452530	0.241610
C3121	C312	0.949900	0.423440	0.233560
C3131	C313	0.022220	0.039860	0.164180
C3141	C314	0.934030	0.044370	0.208110
C3151	C315	0.901310	0.054550	0.204850
C3161	C316	0.871800	0.049460	0.235620
C3171	C317	0.875500	0.037080	0.268660
C3181	C318	0.908950	0.028730	0.269670
C3191	C319	0.821160	0.009260	0.460400
C3201	C320	0.850440	0.015280	0.429760
C3211	C321	0.851060	0.019000	0.397060
C3221	C322	0.822390	0.015530	0.396890
C3231	C323	0.794320	0.009560	0.428760
C3241	C324	0.821780	0.018320	0.363260
C3251	C325	0.846040	0.029260	0.303140
C3261	C326	0.795790	0.014650	0.334650
C3271	C327	0.768620	0.004700	0.335940
C3281	C328	0.770960	0.002960	0.305100
C3291	C329	0.720700	0.986140	0.334860
C3301	C330	0.716110	0.987470	0.366350
C3311	C331	0.740540	0.995880	0.368240
C3321	C332	0.795420	0.054200	0.203220
C3331	C333	0.703220	0.072040	0.262880
C3341	C334	0.673170	0.100050	0.270450
C3351	C335	0.640820	0.102180	0.271920
C3361	C336	0.640450	0.075810	0.265190
C3371	C337	0.672470	0.047470	0.258390
C3381	C338	0.606900	0.076560	0.266440
C3391	C339	0.539860	0.522220	0.773740
C3401	C340	0.544370	0.434030	0.813490
C3411	C341	0.554550	0.401310	0.839290
C3421	C342	0.549460	0.371800	0.843120
C3431	C343	0.537080	0.375500	0.818760
C3441	C344	0.528730	0.408950	0.792650
C3451	C345	0.509260	0.321160	0.709180
C3461	C346	0.515280	0.350440	0.704520
C3471	C347	0.519000	0.351060	0.732880
C3481	C348	0.515530	0.322390	0.765190
C3491	C349	0.509560	0.294320	0.767360
C3501	C350	0.518320	0.321780	0.796640
C3511	C351	0.529260	0.346040	0.821560
C3521	C352	0.514650	0.295790	0.854910
C3531	C353	0.504700	0.268620	0.890740
C3541	C354	0.502960	0.270960	0.920980
C3551	C355	0.486140	0.220700	0.958300
C3561	C356	0.487470	0.216110	0.930070
C3571	C357	0.495880	0.240540	0.895340
C3581	C358	0.554200	0.295420	0.947160
C3591	C359	0.572040	0.203220	0.961860
C3601	C360	0.600050	0.173170	0.956330
C3611	C361	0.602180	0.140820	0.985080
C3621	C362	0.575810	0.140450	0.018550
C3631	C363	0.547470	0.172470	0.021670
C3641	C364	0.576560	0.106900	0.050100
C3651	C365	0.273740	0.164180	0.039860
C3661	C366	0.313490	0.208110	0.044370
C3671	C367	0.339290	0.204850	0.054550
C3681	C368	0.343120	0.235620	0.049460
C3691	C369	0.318760	0.268660	0.037080
C3701	C370	0.292650	0.269670	0.028730
C3711	C371	0.209180	0.460400	0.009260
C3721	C372	0.204520	0.429760	0.015280
C3731	C373	0.232880	0.397060	0.019000
C3741	C374	0.265190	0.396890	0.015530
C3751	C375	0.267360	0.428760	0.009560
C3761	C376	0.296640	0.363260	0.018320
C3771	C377	0.321560	0.303140	0.029260
C3781	C378	0.354910	0.334650	0.014650
C3791	C379	0.390740	0.335940	0.004700
C3801	C380	0.420980	0.305100	0.002960
C3811	C381	0.458300	0.334860	0.986140
C3821	C382	0.430070	0.366350	0.987470
C3831	C383	0.395340	0.368240	0.995880
C3841	C384	0.447160	0.203220	0.054200
C3851	C385	0.461860	0.262880	0.072040
C3861	C386	0.456330	0.270450	0.100050
C3871	C387	0.485080	0.271920	0.102180
C3881	C388	0.518550	0.265190	0.075810
C3891	C389	0.521670	0.258390	0.047470
C3901	C390	0.550100	0.266440	0.076560
C3911	C391	0.664180	0.773740	0.522220
C3921	C392	0.708110	0.813490	0.434030
C3931	C393	0.704850	0.839290	0.401310
C3941	C394	0.735620	0.843120	0.371800
C3951	C395	0.768660	0.818760	0.375500
C3961	C396	0.769670	0.792650	0.408950
C3971	C397	0.960400	0.709180	0.321160
C3981	C398	0.929760	0.704520	0.350440
C3991	C399	0.897060	0.732880	0.351060
C4001	C400	0.896890	0.765190	0.322390
C4011	C401	0.928760	0.767360	0.294320
C4021	C402	0.863260	0.796640	0.321780
C4031	C403	0.803140	0.821560	0.346040
C4041	C404	0.834650	0.854910	0.295790
C4051	C405	0.835940	0.890740	0.268620
C4061	C406	0.805100	0.920980	0.270960
C4071	C407	0.834860	0.958300	0.220700
C4081	C408	0.866350	0.930070	0.216110
C4091	C409	0.868240	0.895340	0.240540
C4101	C410	0.703220	0.947160	0.295420
C4111	C411	0.762880	0.961860	0.203220
C4121	C412	0.770450	0.956330	0.173170
C4131	C413	0.771920	0.985080	0.140820
C4141	C414	0.765190	0.018550	0.140450
C4151	C415	0.758390	0.021670	0.172470
C4161	C416	0.766440	0.050100	0.106900
C4171	C417	0.664180	0.039860	0.773740
C4181	C418	0.708110	0.044370	0.813490
C4191	C419	0.704850	0.054550	0.839290
C4201	C420	0.735620	0.049460	0.843120
C4211	C421	0.768660	0.037080	0.818760
C4221	C422	0.769670	0.028730	0.792650
C4231	C423	0.960400	0.009260	0.709180
C4241	C424	0.929760	0.015280	0.704520
C4251	C425	0.897060	0.019000	0.732880
C4261	C426	0.896890	0.015530	0.765190
C4271	C427	0.928760	0.009560	0.767360
C4281	C428	0.863260	0.018320	0.796640
C4291	C429	0.803140	0.029260	0.821560
C4301	C430	0.834650	0.014650	0.854910
C4311	C431	0.835940	0.004700	0.890740
C4321	C432	0.805100	0.002960	0.920980
C4331	C433	0.834860	0.986140	0.958300
C4341	C434	0.866350	0.987470	0.930070
C4351	C435	0.868240	0.995880	0.895340
C4361	C436	0.703220	0.054200	0.947160
C4371	C437	0.762880	0.072040	0.961860
C4381	C438	0.770450	0.100050	0.956330
C4391	C439	0.771920	0.102180	0.985080
C4401	C440	0.765190	0.075810	0.018550
C4411	C441	0.758390	0.047470	0.021670
C4421	C442	0.766440	0.076560	0.050100
C4431	C443	0.273740	0.522220	0.164180
C4441	C444	0.313490	0.434030	0.208110
C4451	C445	0.339290	0.401310	0.204850
C4461	C446	0.343120	0.371800	0.235620
C4471	C447	0.318760	0.375500	0.268660
C4481	C448	0.292650	0.408950	0.269670
C4491	C449	0.209180	0.321160	0.460400
C4501	C450	0.204520	0.350440	0.429760
C4511	C451	0.232880	0.351060	0.397060
C4521	C452	0.265190	0.322390	0.396890
C4531	C453	0.267360	0.294320	0.428760
C4541	C454	0.296640	0.321780	0.363260
C4551	C455	0.321560	0.346040	0.303140
C4561	C456	0.354910	0.295790	0.334650
C4571	C457	0.390740	0.268620	0.335940
C4581	C458	0.420980	0.270960	0.305100
C4591	C459	0.458300	0.220700	0.334860
C4601	C460	0.430070	0.216110	0.366350
C4611	C461	0.395340	0.240540	0.368240
C4621	C462	0.447160	0.295420	0.203220
C4631	C463	0.461860	0.203220	0.262880
C4641	C464	0.456330	0.173170	0.270450
C4651	C465	0.485080	0.140820	0.271920
C4661	C466	0.518550	0.140450	0.265190
C4671	C467	0.521670	0.172470	0.258390
C4681	C468	0.550100	0.106900	0.266440
C4691	C469	0.539860	0.164180	0.522220
C4701	C470	0.544370	0.208110	0.434030
C4711	C471	0.554550	0.204850	0.401310
C4721	C472	0.549460	0.235620	0.371800
C4731	C473	0.537080	0.268660	0.375500
C4741	C474	0.528730	0.269670	0.408950
C4751	C475	0.509260	0.460400	0.321160
C4761	C476	0.515280	0.429760	0.350440
C4771	C477	0.519000	0.397060	0.351060
C4781	C478	0.515530	0.396890	0.322390
C4791	C479	0.509560	0.428760	0.294320
C4801	C480	0.518320	0.363260	0.321780
C4811	C481	0.529260	0.303140	0.346040
C4821	C482	0.514650	0.334650	0.295790
C4831	C483	0.504700	0.335940	0.268620
C4841	C484	0.502960	0.305100	0.270960
C4851	C485	0.486140	0.334860	0.220700
C4861	C486	0.487470	0.366350	0.216110
C4871	C487	0.495880	0.368240	0.240540
C4881	C488	0.554200	0.203220	0.295420
C4891	C489	0.572040	0.262880	0.203220
C4901	C490	0.600050	0.270450	0.173170
C4911	C491	0.602180	0.271920	0.140820
C4921	C492	0.575810	0.265190	0.140450
C4931	C493	0.547470	0.258390	0.172470
C4941	C494	0.576560	0.266440	0.106900
C4951	C495	0.022220	0.773740	0.039860
C4961	C496	0.934030	0.813490	0.044370
C4971	C497	0.901310	0.839290	0.054550
C4981	C498	0.871800	0.843120	0.049460
C4991	C499	0.875500	0.818760	0.037080
C5001	C500	0.908950	0.792650	0.028730
C5011	C501	0.821160	0.709180	0.009260
C5021	C502	0.850440	0.704520	0.015280
C5031	C503	0.851060	0.732880	0.019000
C5041	C504	0.822390	0.765190	0.015530
C5051	C505	0.794320	0.767360	0.009560
C5061	C506	0.821780	0.796640	0.018320
C5071	C507	0.846040	0.821560	0.029260
C5081	C508	0.795790	0.854910	0.014650
C5091	C509	0.768620	0.890740	0.004700
C5101	C510	0.770960	0.920980	0.002960
C5111	C511	0.720700	0.958300	0.986140
C5121	C512	0.716110	0.930070	0.987470
C5131	C513	0.740540	0.895340	0.995880
C5141	C514	0.795420	0.947160	0.054200
C5151	C515	0.703220	0.961860	0.072040
C5161	C516	0.673170	0.956330	0.100050
C5171	C517	0.640820	0.985080	0.102180
C5181	C518	0.640450	0.018550	0.075810
C5191	C519	0.672470	0.021670	0.047470
C5201	C520	0.606900	0.050100	0.076560
C5211	C521	0.273740	0.039860	0.522220
C5221	C522	0.313490	0.044370	0.434030
C5231	C523	0.339290	0.054550	0.401310
C5241	C524	0.343120	0.049460	0.371800
C5251	C525	0.318760	0.037080	0.375500
C5261	C526	0.292650	0.028730	0.408950
C5271	C527	0.209180	0.009260	0.321160
C5281	C528	0.204520	0.015280	0.350440
C5291	C529	0.232880	0.019000	0.351060
C5301	C530	0.265190	0.015530	0.322390
C5311	C531	0.267360	0.009560	0.294320
C5321	C532	0.296640	0.018320	0.321780
C5331	C533	0.321560	0.029260	0.346040
C5341	C534	0.354910	0.014650	0.295790
C5351	C535	0.390740	0.004700	0.268620
C5361	C536	0.420980	0.002960	0.270960
C5371	C537	0.458300	0.986140	0.220700
C5381	C538	0.430070	0.987470	0.216110
C5391	C539	0.395340	0.995880	0.240540
C5401	C540	0.447160	0.054200	0.295420
C5411	C541	0.461860	0.072040	0.203220
C5421	C542	0.456330	0.100050	0.173170
C5431	C543	0.485080	0.102180	0.140820
C5441	C544	0.518550	0.075810	0.140450
C5451	C545	0.521670	0.047470	0.172470
C5461	C546	0.550100	0.076560	0.106900
C5471	C547	0.664180	0.522220	0.039860
C5481	C548	0.708110	0.434030	0.044370
C5491	C549	0.704850	0.401310	0.054550
C5501	C550	0.735620	0.371800	0.049460
C5511	C551	0.768660	0.375500	0.037080
C5521	C552	0.769670	0.408950	0.028730
C5531	C553	0.960400	0.321160	0.009260
C5541	C554	0.929760	0.350440	0.015280
C5551	C555	0.897060	0.351060	0.019000
C5561	C556	0.896890	0.322390	0.015530
C5571	C557	0.928760	0.294320	0.009560
C5581	C558	0.863260	0.321780	0.018320
C5591	C559	0.803140	0.346040	0.029260
C5601	C560	0.834650	0.295790	0.014650
C5611	C561	0.835940	0.268620	0.004700
C5621	C562	0.805100	0.270960	0.002960
C5631	C563	0.834860	0.220700	0.986140
C5641	C564	0.866350	0.216110	0.987470
C5651	C565	0.868240	0.240540	0.995880
C5661	C566	0.703220	0.295420	0.054200
C5671	C567	0.762880	0.203220	0.072040
C5681	C568	0.770450	0.173170	0.100050
C5691	C569	0.771920	0.140820	0.102180
C5701	C570	0.765190	0.140450	0.075810
C5711	C571	0.758390	0.172470	0.047470
C5721	C572	0.766440	0.106900	0.076560
C5731	C573	0.022220	0.164180	0.773740
C5741	C574	0.934030	0.208110	0.813490
C5751	C575	0.901310	0.204850	0.839290
C5761	C576	0.871800	0.235620	0.843120
C5771	C577	0.875500	0.268660	0.818760
C5781	C578	0.908950	0.269670	0.792650
C5791	C579	0.821160	0.460400	0.709180
C5801	C580	0.850440	0.429760	0.704520
C5811	C581	0.851060	0.397060	0.732880
C5821	C582	0.822390	0.396890	0.765190
C5831	C583	0.794320	0.428760	0.767360
C5841	C584	0.821780	0.363260	0.796640
C5851	C585	0.846040	0.303140	0.821560
C5861	C586	0.795790	0.334650	0.854910
C5871	C587	0.768620	0.335940	0.890740
C5881	C588	0.770960	0.305100	0.920980
C5891	C589	0.720700	0.334860	0.958300
C5901	C590	0.716110	0.366350	0.930070
C5911	C591	0.740540	0.368240	0.895340
C5921	C592	0.795420	0.203220	0.947160
C5931	C593	0.703220	0.262880	0.961860
C5941	C594	0.673170	0.270450	0.956330
C5951	C595	0.640820	0.271920	0.985080
C5961	C596	0.640450	0.265190	0.018550
C5971	C597	0.672470	0.258390	0.021670
C5981	C598	0.606900	0.266440	0.050100
C5991	C599	0.539860	0.773740	0.164180
C6001	C600	0.544370	0.813490	0.208110
C6011	C601	0.554550	0.839290	0.204850
C6021	C602	0.549460	0.843120	0.235620
C6031	C603	0.537080	0.818760	0.268660
C6041	C604	0.528730	0.792650	0.269670
C6051	C605	0.509260	0.709180	0.460400
C6061	C606	0.515280	0.704520	0.429760
C6071	C607	0.519000	0.732880	0.397060
C6081	C608	0.515530	0.765190	0.396890
C6091	C609	0.509560	0.767360	0.428760
C6101	C610	0.518320	0.796640	0.363260
C6111	C611	0.529260	0.821560	0.303140
C6121	C612	0.514650	0.854910	0.334650
C6131	C613	0.504700	0.890740	0.335940
C6141	C614	0.502960	0.920980	0.305100
C6151	C615	0.486140	0.958300	0.334860
C6161	C616	0.487470	0.930070	0.366350
C6171	C617	0.495880	0.895340	0.368240
C6181	C618	0.554200	0.947160	0.203220
C6191	C619	0.572040	0.961860	0.262880
C6201	C620	0.600050	0.956330	0.270450
C6211	C621	0.602180	0.985080	0.271920
C6221	C622	0.575810	0.018550	0.265190
C6231	C623	0.547470	0.021670	0.258390
C6241	C624	0.576560	0.050100	0.266440
C6251	C625	0.039860	0.022220	0.664180
C6261	C626	0.044370	0.934030	0.708110
C6271	C627	0.054550	0.901310	0.704850
C6281	C628	0.049460	0.871800	0.735620
C6291	C629	0.037080	0.875500	0.768660
C6301	C630	0.028730	0.908950	0.769670
C6311	C631	0.009260	0.821160	0.960400
C6321	C632	0.015280	0.850440	0.929760
C6331	C633	0.019000	0.851060	0.897060
C6341	C634	0.015530	0.822390	0.896890
C6351	C635	0.009560	0.794320	0.928760
C6361	C636	0.018320	0.821780	0.863260
C6371	C637	0.029260	0.846040	0.803140
C6381	C638	0.014650	0.795790	0.834650
C6391	C639	0.004700	0.768620	0.835940
C6401	C640	0.002960	0.770960	0.805100
C6411	C641	0.986140	0.720700	0.834860
C6421	C642	0.987470	0.716110	0.866350
C6431	C643	0.995880	0.740540	0.868240
C6441	C644	0.054200	0.795420	0.703220
C6451	C645	0.072040	0.703220	0.762880
C6461	C646	0.100050	0.673170	0.770450
C6471	C647	0.102180	0.640820	0.771920
C6481	C648	0.075810	0.640450	0.765190
C6491	C649	0.047470	0.672470	0.758390
C6501	C650	0.076560	0.606900	0.766440
C6511	C651	0.522220	0.539860	0.273740
C6521	C652	0.434030	0.544370	0.313490
C6531	C653	0.401310	0.554550	0.339290
C6541	C654	0.371800	0.549460	0.343120
C6551	C655	0.375500	0.537080	0.318760
C6561	C656	0.408950	0.528730	0.292650
C6571	C657	0.321160	0.509260	0.209180
C6581	C658	0.350440	0.515280	0.204520
C6591	C659	0.351060	0.519000	0.232880
C6601	C660	0.322390	0.515530	0.265190
C6611	C661	0.294320	0.509560	0.267360
C6621	C662	0.321780	0.518320	0.296640
C6631	C663	0.346040	0.529260	0.321560
C6641	C664	0.295790	0.514650	0.354910
C6651	C665	0.268620	0.504700	0.390740
C6661	C666	0.270960	0.502960	0.420980
C6671	C667	0.220700	0.486140	0.458300
C6681	C668	0.216110	0.487470	0.430070
C6691	C669	0.240540	0.495880	0.395340
C6701	C670	0.295420	0.554200	0.447160
C6711	C671	0.203220	0.572040	0.461860
C6721	C672	0.173170	0.600050	0.456330
C6731	C673	0.140820	0.602180	0.485080
C6741	C674	0.140450	0.575810	0.518550
C6751	C675	0.172470	0.547470	0.521670
C6761	C676	0.106900	0.576560	0.550100
C6771	C677	0.164180	0.273740	0.539860
C6781	C678	0.208110	0.313490	0.544370
C6791	C679	0.204850	0.339290	0.554550
C6801	C680	0.235620	0.343120	0.549460
C6811	C681	0.268660	0.318760	0.537080
C6821	C682	0.269670	0.292650	0.528730
C6831	C683	0.460400	0.209180	0.509260
C6841	C684	0.429760	0.204520	0.515280
C6851	C685	0.397060	0.232880	0.519000
C6861	C686	0.396890	0.265190	0.515530
C6871	C687	0.428760	0.267360	0.509560
C6881	C688	0.363260	0.296640	0.518320
C6891	C689	0.303140	0.321560	0.529260
C6901	C690	0.334650	0.354910	0.514650
C6911	C691	0.335940	0.390740	0.504700
C6921	C692	0.305100	0.420980	0.502960
C6931	C693	0.334860	0.458300	0.486140
C6941	C694	0.366350	0.430070	0.487470
C6951	C695	0.368240	0.395340	0.495880
C6961	C696	0.203220	0.447160	0.554200
C6971	C697	0.262880	0.461860	0.572040
C6981	C698	0.270450	0.456330	0.600050
C6991	C699	0.271920	0.485080	0.602180
C7001	C700	0.265190	0.518550	0.575810
C7011	C701	0.258390	0.521670	0.547470
C7021	C702	0.266440	0.550100	0.576560
C7031	C703	0.773740	0.664180	0.022220
C7041	C704	0.813490	0.708110	0.934030
C7051	C705	0.839290	0.704850	0.901310
C7061	C706	0.843120	0.735620	0.871800
C7071	C707	0.818760	0.768660	0.875500
C7081	C708	0.792650	0.769670	0.908950
C7091	C709	0.709180	0.960400	0.821160
C7101	C710	0.704520	0.929760	0.850440
C7111	C711	0.732880	0.897060	0.851060
C7121	C712	0.765190	0.896890	0.822390
C7131	C713	0.767360	0.928760	0.794320
C7141	C714	0.796640	0.863260	0.821780
C7151	C715	0.821560	0.803140	0.846040
C7161	C716	0.854910	0.834650	0.795790
C7171	C717	0.890740	0.835940	0.768620
C7181	C718	0.920980	0.805100	0.770960
C7191	C719	0.958300	0.834860	0.720700
C7201	C720	0.930070	0.866350	0.716110
C7211	C721	0.895340	0.868240	0.740540
C7221	C722	0.947160	0.703220	0.795420
C7231	C723	0.961860	0.762880	0.703220
C7241	C724	0.956330	0.770450	0.673170
C7251	C725	0.985080	0.771920	0.640820
C7261	C726	0.018550	0.765190	0.640450
C7271	C727	0.021670	0.758390	0.672470
C7281	C728	0.050100	0.766440	0.606900
C7291	C729	0.039860	0.664180	0.273740
C7301	C730	0.044370	0.708110	0.313490
C7311	C731	0.054550	0.704850	0.339290
C7321	C732	0.049460	0.735620	0.343120
C7331	C733	0.037080	0.768660	0.318760
C7341	C734	0.028730	0.769670	0.292650
C7351	C735	0.009260	0.960400	0.209180
C7361	C736	0.015280	0.929760	0.204520
C7371	C737	0.019000	0.897060	0.232880
C7381	C738	0.015530	0.896890	0.265190
C7391	C739	0.009560	0.928760	0.267360
C7401	C740	0.018320	0.863260	0.296640
C7411	C741	0.029260	0.803140	0.321560
C7421	C742	0.014650	0.834650	0.354910
C7431	C743	0.004700	0.835940	0.390740
C7441	C744	0.002960	0.805100	0.420980
C7451	C745	0.986140	0.834860	0.458300
C7461	C746	0.987470	0.866350	0.430070
C7471	C747	0.995880	0.868240	0.395340
C7481	C748	0.054200	0.703220	0.447160
C7491	C749	0.072040	0.762880	0.461860
C7501	C750	0.100050	0.770450	0.456330
C7511	C751	0.102180	0.771920	0.485080
C7521	C752	0.075810	0.765190	0.518550
C7531	C753	0.047470	0.758390	0.521670
C7541	C754	0.076560	0.766440	0.550100
C7551	C755	0.522220	0.273740	0.664180
C7561	C756	0.434030	0.313490	0.708110
C7571	C757	0.401310	0.339290	0.704850
C7581	C758	0.371800	0.343120	0.735620
C7591	C759	0.375500	0.318760	0.768660
C7601	C760	0.408950	0.292650	0.769670
C7611	C761	0.321160	0.209180	0.960400
C7621	C762	0.350440	0.204520	0.929760
C7631	C763	0.351060	0.232880	0.897060
C7641	C764	0.322390	0.265190	0.896890
C7651	C765	0.294320	0.267360	0.928760
C7661	C766	0.321780	0.296640	0.863260
C7671	C767	0.346040	0.321560	0.803140
C7681	C768	0.295790	0.354910	0.834650
C7691	C769	0.268620	0.390740	0.835940
C7701	C770	0.270960	0.420980	0.805100
C7711	C771	0.220700	0.458300	0.834860
C7721	C772	0.216110	0.430070	0.866350
C7731	C773	0.240540	0.395340	0.868240
C7741	C774	0.295420	0.447160	0.703220
C7751	C775	0.203220	0.461860	0.762880
C7761	C776	0.173170	0.456330	0.770450
C7771	C777	0.140820	0.485080	0.771920
C7781	C778	0.140450	0.518550	0.765190
C7791	C779	0.172470	0.521670	0.758390
C7801	C780	0.106900	0.550100	0.766440
C7811	C781	0.164180	0.539860	0.022220
C7821	C782	0.208110	0.544370	0.934030
C7831	C783	0.204850	0.554550	0.901310
C7841	C784	0.235620	0.549460	0.871800
C7851	C785	0.268660	0.537080	0.875500
C7861	C786	0.269670	0.528730	0.908950
C7871	C787	0.460400	0.509260	0.821160
C7881	C788	0.429760	0.515280	0.850440
C7891	C789	0.397060	0.519000	0.851060
C7901	C790	0.396890	0.515530	0.822390
C7911	C791	0.428760	0.509560	0.794320
C7921	C792	0.363260	0.518320	0.821780
C7931	C793	0.303140	0.529260	0.846040
C7941	C794	0.334650	0.514650	0.795790
C7951	C795	0.335940	0.504700	0.768620
C7961	C796	0.305100	0.502960	0.770960
C7971	C797	0.334860	0.486140	0.720700
C7981	C798	0.366350	0.487470	0.716110
C7991	C799	0.368240	0.495880	0.740540
C8001	C800	0.203220	0.554200	0.795420
C8011	C801	0.262880	0.572040	0.703220
C8021	C802	0.270450	0.600050	0.673170
C8031	C803	0.271920	0.602180	0.640820
C8041	C804	0.265190	0.575810	0.640450
C8051	C805	0.258390	0.547470	0.672470
C8061	C806	0.266440	0.576560	0.606900
C8071	C807	0.773740	0.022220	0.539860
C8081	C808	0.813490	0.934030	0.544370
C8091	C809	0.839290	0.901310	0.554550
C8101	C810	0.843120	0.871800	0.549460
C8111	C811	0.818760	0.875500	0.537080
C8121	C812	0.792650	0.908950	0.528730
C8131	C813	0.709180	0.821160	0.509260
C8141	C814	0.704520	0.850440	0.515280
C8151	C815	0.732880	0.851060	0.519000
C8161	C816	0.765190	0.822390	0.515530
C8171	C817	0.767360	0.794320	0.509560
C8181	C818	0.796640	0.821780	0.518320
C8191	C819	0.821560	0.846040	0.529260
C8201	C820	0.854910	0.795790	0.514650
C8211	C821	0.890740	0.768620	0.504700
C8221	C822	0.920980	0.770960	0.502960
C8231	C823	0.958300	0.720700	0.486140
C8241	C824	0.930070	0.716110	0.487470
C8251	C825	0.895340	0.740540	0.495880
C8261	C826	0.947160	0.795420	0.554200
C8271	C827	0.961860	0.703220	0.572040
C8281	C828	0.956330	0.673170	0.600050
C8291	C829	0.985080	0.640820	0.602180
C8301	C830	0.018550	0.640450	0.575810
C8311	C831	0.021670	0.672470	0.547470
C8321	C832	0.050100	0.606900	0.576560
C8331	C833	0.039860	0.273740	0.022220
C8341	C834	0.044370	0.313490	0.934030
C8351	C835	0.054550	0.339290	0.901310
C8361	C836	0.049460	0.343120	0.871800
C8371	C837	0.037080	0.318760	0.875500
C8381	C838	0.028730	0.292650	0.908950
C8391	C839	0.009260	0.209180	0.821160
C8401	C840	0.015280	0.204520	0.850440
C8411	C841	0.019000	0.232880	0.851060
C8421	C842	0.015530	0.265190	0.822390
C8431	C843	0.009560	0.267360	0.794320
C8441	C844	0.018320	0.296640	0.821780
C8451	C845	0.029260	0.321560	0.846040
C8461	C846	0.014650	0.354910	0.795790
C8471	C847	0.004700	0.390740	0.768620
C8481	C848	0.002960	0.420980	0.770960
C8491	C849	0.986140	0.458300	0.720700
C8501	C850	0.987470	0.430070	0.716110
C8511	C851	0.995880	0.395340	0.740540
C8521	C852	0.054200	0.447160	0.795420
C8531	C853	0.072040	0.461860	0.703220
C8541	C854	0.100050	0.456330	0.673170
C8551	C855	0.102180	0.485080	0.640820
C8561	C856	0.075810	0.518550	0.640450
C8571	C857	0.047470	0.521670	0.672470
C8581	C858	0.076560	0.550100	0.606900
C8591	C859	0.522220	0.664180	0.539860
C8601	C860	0.434030	0.708110	0.544370
C8611	C861	0.401310	0.704850	0.554550
C8621	C862	0.371800	0.735620	0.549460
C8631	C863	0.375500	0.768660	0.537080
C8641	C864	0.408950	0.769670	0.528730
C8651	C865	0.321160	0.960400	0.509260
C8661	C866	0.350440	0.929760	0.515280
C8671	C867	0.351060	0.897060	0.519000
C8681	C868	0.322390	0.896890	0.515530
C8691	C869	0.294320	0.928760	0.509560
C8701	C870	0.321780	0.863260	0.518320
C8711	C871	0.346040	0.803140	0.529260
C8721	C872	0.295790	0.834650	0.514650
C8731	C873	0.268620	0.835940	0.504700
C8741	C874	0.270960	0.805100	0.502960
C8751	C875	0.220700	0.834860	0.486140
C8761	C876	0.216110	0.866350	0.487470
C8771	C877	0.240540	0.868240	0.495880
C8781	C878	0.295420	0.703220	0.554200
C8791	C879	0.203220	0.762880	0.572040
C8801	C880	0.173170	0.770450	0.600050
C8811	C881	0.140820	0.771920	0.602180
C8821	C882	0.140450	0.765190	0.575810
C8831	C883	0.172470	0.758390	0.547470
C8841	C884	0.106900	0.766440	0.576560
C8851	C885	0.164180	0.022220	0.273740
C8861	C886	0.208110	0.934030	0.313490
C8871	C887	0.204850	0.901310	0.339290
C8881	C888	0.235620	0.871800	0.343120
C8891	C889	0.268660	0.875500	0.318760
C8901	C890	0.269670	0.908950	0.292650
C8911	C891	0.460400	0.821160	0.209180
C8921	C892	0.429760	0.850440	0.204520
C8931	C893	0.397060	0.851060	0.232880
C8941	C894	0.396890	0.822390	0.265190
C8951	C895	0.428760	0.794320	0.267360
C8961	C896	0.363260	0.821780	0.296640
C8971	C897	0.303140	0.846040	0.321560
C8981	C898	0.334650	0.795790	0.354910
C8991	C899	0.335940	0.768620	0.390740
C9001	C900	0.305100	0.770960	0.420980
C9011	C901	0.334860	0.720700	0.458300
C9021	C902	0.366350	0.716110	0.430070
C9031	C903	0.368240	0.740540	0.395340
C9041	C904	0.203220	0.795420	0.447160
C9051	C905	0.262880	0.703220	0.461860
C9061	C906	0.270450	0.673170	0.456330
C9071	C907	0.271920	0.640820	0.485080
C9081	C908	0.265190	0.640450	0.518550
C9091	C909	0.258390	0.672470	0.521670
C9101	C910	0.266440	0.606900	0.550100
C9111	C911	0.773740	0.539860	0.664180
C9121	C912	0.813490	0.544370	0.708110
C9131	C913	0.839290	0.554550	0.704850
C9141	C914	0.843120	0.549460	0.735620
C9151	C915	0.818760	0.537080	0.768660
C9161	C916	0.792650	0.528730	0.769670
C9171	C917	0.709180	0.509260	0.960400
C9181	C918	0.704520	0.515280	0.929760
C9191	C919	0.732880	0.519000	0.897060
C9201	C920	0.765190	0.515530	0.896890
C9211	C921	0.767360	0.509560	0.928760
C9221	C922	0.796640	0.518320	0.863260
C9231	C923	0.821560	0.529260	0.803140
C9241	C924	0.854910	0.514650	0.834650
C9251	C925	0.890740	0.504700	0.835940
C9261	C926	0.920980	0.502960	0.805100
C9271	C927	0.958300	0.486140	0.834860
C9281	C928	0.930070	0.487470	0.866350
C9291	C929	0.895340	0.495880	0.868240
C9301	C930	0.947160	0.554200	0.703220
C9311	C931	0.961860	0.572040	0.762880
C9321	C932	0.956330	0.600050	0.770450
C9331	C933	0.985080	0.602180	0.771920
C9341	C934	0.018550	0.575810	0.765190
C9351	C935	0.021670	0.547470	0.758390
C9361	C936	0.050100	0.576560	0.766440
C9371	C937	0.977780	0.960140	0.835820
C9381	C938	0.065970	0.955630	0.791890
C9391	C939	0.098690	0.945450	0.795150
C9401	C940	0.128200	0.950540	0.764380
C9411	C941	0.124500	0.962920	0.731340
C9421	C942	0.091050	0.971270	0.730330
C9431	C943	0.178840	0.990740	0.539600
C9441	C944	0.149560	0.984720	0.570240
C9451	C945	0.148940	0.981000	0.602940
C9461	C946	0.177610	0.984470	0.603110
C9471	C947	0.205680	0.990440	0.571240
C9481	C948	0.178220	0.981680	0.636740
C9491	C949	0.153960	0.970740	0.696860
C9501	C950	0.204210	0.985350	0.665350
C9511	C951	0.231380	0.995300	0.664060
C9521	C952	0.229040	0.997040	0.694900
C9531	C953	0.279300	0.013860	0.665140
C9541	C954	0.283890	0.012530	0.633650
C9551	C955	0.259460	0.004120	0.631760
C9561	C956	0.204580	0.945800	0.796780
C9571	C957	0.296780	0.927960	0.737120
C9581	C958	0.326830	0.899950	0.729550
C9591	C959	0.359180	0.897820	0.728080
C9601	C960	0.359550	0.924190	0.734810
C9611	C961	0.327530	0.952530	0.741610
C9621	C962	0.393100	0.923440	0.733560
C9631	C963	0.460140	0.477780	0.226260
C9641	C964	0.455630	0.565970	0.186510
C9651	C965	0.445450	0.598690	0.160710
C9661	C966	0.450540	0.628200	0.156880
C9671	C967	0.462920	0.624500	0.181240
C9681	C968	0.471270	0.591050	0.207350
C9691	C969	0.490740	0.678840	0.290820
C9701	C970	0.484720	0.649560	0.295480
C9711	C971	0.481000	0.648940	0.267120
C9721	C972	0.484470	0.677610	0.234810
C9731	C973	0.490440	0.705680	0.232640
C9741	C974	0.481680	0.678220	0.203360
C9751	C975	0.470740	0.653960	0.178440
C9761	C976	0.485350	0.704210	0.145090
C9771	C977	0.495300	0.731380	0.109260
C9781	C978	0.497040	0.729040	0.079020
C9791	C979	0.513860	0.779300	0.041700
C9801	C980	0.512530	0.783890	0.069930
C9811	C981	0.504120	0.759460	0.104660
C9821	C982	0.445800	0.704580	0.052840
C9831	C983	0.427960	0.796780	0.038140
C9841	C984	0.399950	0.826830	0.043670
C9851	C985	0.397820	0.859180	0.014920
C9861	C986	0.424190	0.859550	0.981450
C9871	C987	0.452530	0.827530	0.978330
C9881	C988	0.423440	0.893100	0.949900
C9891	C989	0.726260	0.835820	0.960140
C9901	C990	0.686510	0.791890	0.955630
C9911	C991	0.660710	0.795150	0.945450
C9921	C992	0.656880	0.764380	0.950540
C9931	C993	0.681240	0.731340	0.962920
C9941	C994	0.707350	0.730330	0.971270
C9951	C995	0.790820	0.539600	0.990740
C9961	C996	0.795480	0.570240	0.984720
C9971	C997	0.767120	0.602940	0.981000
C9981	C998	0.734810	0.603110	0.984470
C9991	C999	0.732640	0.571240	0.990440
C10001	C1000	0.703360	0.636740	0.981680
C10011	C1001	0.678440	0.696860	0.970740
C10021	C1002	0.645090	0.665350	0.985350
C10031	C1003	0.609260	0.664060	0.995300
C10041	C1004	0.579020	0.694900	0.997040
C10051	C1005	0.541700	0.665140	0.013860
C10061	C1006	0.569930	0.633650	0.012530
C10071	C1007	0.604660	0.631760	0.004120
C10081	C1008	0.552840	0.796780	0.945800
C10091	C1009	0.538140	0.737120	0.927960
C10101	C1010	0.543670	0.729550	0.899950
C10111	C1011	0.514920	0.728080	0.897820
C10121	C1012	0.481450	0.734810	0.924190
C10131	C1013	0.478330	0.741610	0.952530
C10141	C1014	0.449900	0.733560	0.923440
C10151	C1015	0.335820	0.226260	0.477780
C10161	C1016	0.291890	0.186510	0.565970
C10171	C1017	0.295150	0.160710	0.598690
C10181	C1018	0.264380	0.156880	0.628200
C10191	C1019	0.231340	0.181240	0.624500
C10201	C1020	0.230330	0.207350	0.591050
C10211	C1021	0.039600	0.290820	0.678840
C10221	C1022	0.070240	0.295480	0.649560
C10231	C1023	0.102940	0.267120	0.648940
C10241	C1024	0.103110	0.234810	0.677610
C10251	C1025	0.071240	0.232640	0.705680
C10261	C1026	0.136740	0.203360	0.678220
C10271	C1027	0.196860	0.178440	0.653960
C10281	C1028	0.165350	0.145090	0.704210
C10291	C1029	0.164060	0.109260	0.731380
C10301	C1030	0.194900	0.079020	0.729040
C10311	C1031	0.165140	0.041700	0.779300
C10321	C1032	0.133650	0.069930	0.783890
C10331	C1033	0.131760	0.104660	0.759460
C10341	C1034	0.296780	0.052840	0.704580
C10351	C1035	0.237120	0.038140	0.796780
C10361	C1036	0.229550	0.043670	0.826830
C10371	C1037	0.228080	0.014920	0.859180
C10381	C1038	0.234810	0.981450	0.859550
C10391	C1039	0.241610	0.978330	0.827530
C10401	C1040	0.233560	0.949900	0.893100
C10411	C1041	0.335820	0.960140	0.226260
C10421	C1042	0.291890	0.955630	0.186510
C10431	C1043	0.295150	0.945450	0.160710
C10441	C1044	0.264380	0.950540	0.156880
C10451	C1045	0.231340	0.962920	0.181240
C10461	C1046	0.230330	0.971270	0.207350
C10471	C1047	0.039600	0.990740	0.290820
C10481	C1048	0.070240	0.984720	0.295480
C10491	C1049	0.102940	0.981000	0.267120
C10501	C1050	0.103110	0.984470	0.234810
C10511	C1051	0.071240	0.990440	0.232640
C10521	C1052	0.136740	0.981680	0.203360
C10531	C1053	0.196860	0.970740	0.178440
C10541	C1054	0.165350	0.985350	0.145090
C10551	C1055	0.164060	0.995300	0.109260
C10561	C1056	0.194900	0.997040	0.079020
C10571	C1057	0.165140	0.013860	0.041700
C10581	C1058	0.133650	0.012530	0.069930
C10591	C1059	0.131760	0.004120	0.104660
C10601	C1060	0.296780	0.945800	0.052840
C10611	C1061	0.237120	0.927960	0.038140
C10621	C1062	0.229550	0.899950	0.043670
C10631	C1063	0.228080	0.897820	0.014920
C10641	C1064	0.234810	0.924190	0.981450
C10651	C1065	0.241610	0.952530	0.978330
C10661	C1066	0.233560	0.923440	0.949900
C10671	C1067	0.726260	0.477780	0.835820
C10681	C1068	0.686510	0.565970	0.791890
C10691	C1069	0.660710	0.598690	0.795150
C10701	C1070	0.656880	0.628200	0.764380
C10711	C1071	0.681240	0.624500	0.731340
C10721	C1072	0.707350	0.591050	0.730330
C10731	C1073	0.790820	0.678840	0.539600
C10741	C1074	0.795480	0.649560	0.570240
C10751	C1075	0.767120	0.648940	0.602940
C10761	C1076	0.734810	0.677610	0.603110
C10771	C1077	0.732640	0.705680	0.571240
C10781	C1078	0.703360	0.678220	0.636740
C10791	C1079	0.678440	0.653960	0.696860
C10801	C1080	0.645090	0.704210	0.665350
C10811	C1081	0.609260	0.731380	0.664060
C10821	C1082	0.579020	0.729040	0.694900
C10831	C1083	0.541700	0.779300	0.665140
C10841	C1084	0.569930	0.783890	0.633650
C10851	C1085	0.604660	0.759460	0.631760
C10861	C1086	0.552840	0.704580	0.796780
C10871	C1087	0.538140	0.796780	0.737120
C10881	C1088	0.543670	0.826830	0.729550
C10891	C1089	0.514920	0.859180	0.728080
C10901	C1090	0.481450	0.859550	0.734810
C10911	C1091	0.478330	0.827530	0.741610
C10921	C1092	0.449900	0.893100	0.733560
C10931	C1093	0.460140	0.835820	0.477780
C10941	C1094	0.455630	0.791890	0.565970
C10951	C1095	0.445450	0.795150	0.598690
C10961	C1096	0.450540	0.764380	0.628200
C10971	C1097	0.462920	0.731340	0.624500
C10981	C1098	0.471270	0.730330	0.591050
C10991	C1099	0.490740	0.539600	0.678840
C11001	C1100	0.484720	0.570240	0.649560
C11011	C1101	0.481000	0.602940	0.648940
C11021	C1102	0.484470	0.603110	0.677610
C11031	C1103	0.490440	0.571240	0.705680
C11041	C1104	0.481680	0.636740	0.678220
C11051	C1105	0.470740	0.696860	0.653960
C11061	C1106	0.485350	0.665350	0.704210
C11071	C1107	0.495300	0.664060	0.731380
C11081	C1108	0.497040	0.694900	0.729040
C11091	C1109	0.513860	0.665140	0.779300
C11101	C1110	0.512530	0.633650	0.783890
C11111	C1111	0.504120	0.631760	0.759460
C11121	C1112	0.445800	0.796780	0.704580
C11131	C1113	0.427960	0.737120	0.796780
C11141	C1114	0.399950	0.729550	0.826830
C11151	C1115	0.397820	0.728080	0.859180
C11161	C1116	0.424190	0.734810	0.859550
C11171	C1117	0.452530	0.741610	0.827530
C11181	C1118	0.423440	0.733560	0.893100
C11191	C1119	0.977780	0.226260	0.960140
C11201	C1120	0.065970	0.186510	0.955630
C11211	C1121	0.098690	0.160710	0.945450
C11221	C1122	0.128200	0.156880	0.950540
C11231	C1123	0.124500	0.181240	0.962920
C11241	C1124	0.091050	0.207350	0.971270
C11251	C1125	0.178840	0.290820	0.990740
C11261	C1126	0.149560	0.295480	0.984720
C11271	C1127	0.148940	0.267120	0.981000
C11281	C1128	0.177610	0.234810	0.984470
C11291	C1129	0.205680	0.232640	0.990440
C11301	C1130	0.178220	0.203360	0.981680
C11311	C1131	0.153960	0.178440	0.970740
C11321	C1132	0.204210	0.145090	0.985350
C11331	C1133	0.231380	0.109260	0.995300
C11341	C1134	0.229040	0.079020	0.997040
C11351	C1135	0.279300	0.041700	0.013860
C11361	C1136	0.283890	0.069930	0.012530
C11371	C1137	0.259460	0.104660	0.004120
C11381	C1138	0.204580	0.052840	0.945800
C11391	C1139	0.296780	0.038140	0.927960
C11401	C1140	0.326830	0.043670	0.899950
C11411	C1141	0.359180	0.014920	0.897820
C11421	C1142	0.359550	0.981450	0.924190
C11431	C1143	0.327530	0.978330	0.952530
C11441	C1144	0.393100	0.949900	0.923440
C11451	C1145	0.726260	0.960140	0.477780
C11461	C1146	0.686510	0.955630	0.565970
C11471	C1147	0.660710	0.945450	0.598690
C11481	C1148	0.656880	0.950540	0.628200
C11491	C1149	0.681240	0.962920	0.624500
C11501	C1150	0.707350	0.971270	0.591050
C11511	C1151	0.790820	0.990740	0.678840
C11521	C1152	0.795480	0.984720	0.649560
C11531	C1153	0.767120	0.981000	0.648940
C11541	C1154	0.734810	0.984470	0.677610
C11551	C1155	0.732640	0.990440	0.705680
C11561	C1156	0.703360	0.981680	0.678220
C11571	C1157	0.678440	0.970740	0.653960
C11581	C1158	0.645090	0.985350	0.704210
C11591	C1159	0.609260	0.995300	0.731380
C11601	C1160	0.579020	0.997040	0.729040
C11611	C1161	0.541700	0.013860	0.779300
C11621	C1162	0.569930	0.012530	0.783890
C11631	C1163	0.604660	0.004120	0.759460
C11641	C1164	0.552840	0.945800	0.704580
C11651	C1165	0.538140	0.927960	0.796780
C11661	C1166	0.543670	0.899950	0.826830
C11671	C1167	0.514920	0.897820	0.859180
C11681	C1168	0.481450	0.924190	0.859550
C11691	C1169	0.478330	0.952530	0.827530
C11701	C1170	0.449900	0.923440	0.893100
C11711	C1171	0.335820	0.477780	0.960140
C11721	C1172	0.291890	0.565970	0.955630
C11731	C1173	0.295150	0.598690	0.945450
C11741	C1174	0.264380	0.628200	0.950540
C11751	C1175	0.231340	0.624500	0.962920
C11761	C1176	0.230330	0.591050	0.971270
C11771	C1177	0.039600	0.678840	0.990740
C11781	C1178	0.070240	0.649560	0.984720
C11791	C1179	0.102940	0.648940	0.981000
C11801	C1180	0.103110	0.677610	0.984470
C11811	C1181	0.071240	0.705680	0.990440
C11821	C1182	0.136740	0.678220	0.981680
C11831	C1183	0.196860	0.653960	0.970740
C11841	C1184	0.165350	0.704210	0.985350
C11851	C1185	0.164060	0.731380	0.995300
C11861	C1186	0.194900	0.729040	0.997040
C11871	C1187	0.165140	0.779300	0.013860
C11881	C1188	0.133650	0.783890	0.012530
C11891	C1189	0.131760	0.759460	0.004120
C11901	C1190	0.296780	0.704580	0.945800
C11911	C1191	0.237120	0.796780	0.927960
C11921	C1192	0.229550	0.826830	0.899950
C11931	C1193	0.228080	0.859180	0.897820
C11941	C1194	0.234810	0.859550	0.924190
C11951	C1195	0.241610	0.827530	0.952530
C11961	C1196	0.233560	0.893100	0.923440
C11971	C1197	0.977780	0.835820	0.226260
C11981	C1198	0.065970	0.791890	0.186510
C11991	C1199	0.098690	0.795150	0.160710
C12001	C1200	0.128200	0.764380	0.156880
C12011	C1201	0.124500	0.731340	0.181240
C12021	C1202	0.091050	0.730330	0.207350
C12031	C1203	0.178840	0.539600	0.290820
C12041	C1204	0.149560	0.570240	0.295480
C12051	C1205	0.148940	0.602940	0.267120
C12061	C1206	0.177610	0.603110	0.234810
C12071	C1207	0.205680	0.571240	0.232640
C12081	C1208	0.178220	0.636740	0.203360
C12091	C1209	0.153960	0.696860	0.178440
C12101	C1210	0.204210	0.665350	0.145090
C12111	C1211	0.231380	0.664060	0.109260
C12121	C1212	0.229040	0.694900	0.079020
C12131	C1213	0.279300	0.665140	0.041700
C12141	C1214	0.283890	0.633650	0.069930
C12151	C1215	0.259460	0.631760	0.104660
C12161	C1216	0.204580	0.796780	0.052840
C12171	C1217	0.296780	0.737120	0.038140
C12181	C1218	0.326830	0.729550	0.043670
C12191	C1219	0.359180	0.728080	0.014920
C12201	C1220	0.359550	0.734810	0.981450
C12211	C1221	0.327530	0.741610	0.978330
C12221	C1222	0.393100	0.733560	0.949900
C12231	C1223	0.460140	0.226260	0.835820
C12241	C1224	0.455630	0.186510	0.791890
C12251	C1225	0.445450	0.160710	0.795150
C12261	C1226	0.450540	0.156880	0.764380
C12271	C1227	0.462920	0.181240	0.731340
C12281	C1228	0.471270	0.207350	0.730330
C12291	C1229	0.490740	0.290820	0.539600
C12301	C1230	0.484720	0.295480	0.570240
C12311	C1231	0.481000	0.267120	0.602940
C12321	C1232	0.484470	0.234810	0.603110
C12331	C1233	0.490440	0.232640	0.571240
C12341	C1234	0.481680	0.203360	0.636740
C12351	C1235	0.470740	0.178440	0.696860
C12361	C1236	0.485350	0.145090	0.665350
C12371	C1237	0.495300	0.109260	0.664060
C12381	C1238	0.497040	0.079020	0.694900
C12391	C1239	0.513860	0.041700	0.665140
C12401	C1240	0.512530	0.069930	0.633650
C12411	C1241	0.504120	0.104660	0.631760
C12421	C1242	0.445800	0.052840	0.796780
C12431	C1243	0.427960	0.038140	0.737120
C12441	C1244	0.399950	0.043670	0.729550
C12451	C1245	0.397820	0.014920	0.728080
C12461	C1246	0.424190	0.981450	0.734810
C12471	C1247	0.452530	0.978330	0.741610
C12481	C1248	0.423440	0.949900	0.733560
S11	S1	0.951140	0.968000	0.378760
S21	S2	0.916070	0.183830	0.323650
S31	S3	0.468000	0.451140	0.702100
S41	S4	0.683830	0.416070	0.576450
S51	S5	0.878760	0.702100	0.451140
S61	S6	0.823650	0.576450	0.416070
S71	S7	0.202100	0.378760	0.968000
S81	S8	0.076450	0.323650	0.183830
S91	S9	0.951140	0.378760	0.702100
S101	S10	0.916070	0.323650	0.576450
S111	S11	0.468000	0.702100	0.378760
S121	S12	0.683830	0.576450	0.323650
S131	S13	0.878760	0.451140	0.968000
S141	S14	0.823650	0.416070	0.183830
S151	S15	0.202100	0.968000	0.451140
S161	S16	0.076450	0.183830	0.416070
S171	S17	0.951140	0.702100	0.968000
S181	S18	0.916070	0.576450	0.183830
S191	S19	0.468000	0.378760	0.451140
S201	S20	0.683830	0.323650	0.416070
S211	S21	0.878760	0.968000	0.702100
S221	S22	0.823650	0.183830	0.576450
S231	S23	0.202100	0.451140	0.378760
S241	S24	0.076450	0.416070	0.323650
S251	S25	0.032000	0.048860	0.121240
S261	S26	0.816170	0.083930	0.176350
S271	S27	0.548860	0.532000	0.797900
S281	S28	0.583930	0.316170	0.923550
S291	S29	0.297900	0.121240	0.048860
S301	S30	0.423550	0.176350	0.083930
S311	S31	0.621240	0.797900	0.532000
S321	S32	0.676350	0.923550	0.316170
S331	S33	0.621240	0.048860	0.797900
S341	S34	0.676350	0.083930	0.923550
S351	S35	0.297900	0.532000	0.121240
S361	S36	0.423550	0.316170	0.176350
S371	S37	0.548860	0.121240	0.532000
S381	S38	0.583930	0.176350	0.316170
S391	S39	0.032000	0.797900	0.048860
S401	S40	0.816170	0.923550	0.083930
S411	S41	0.297900	0.048860	0.532000
S421	S42	0.423550	0.083930	0.316170
S431	S43	0.621240	0.532000	0.048860
S441	S44	0.676350	0.316170	0.083930
S451	S45	0.032000	0.121240	0.797900
S461	S46	0.816170	0.176350	0.923550
S471	S47	0.548860	0.797900	0.121240
S481	S48	0.583930	0.923550	0.176350
S491	S49	0.048860	0.032000	0.621240
S501	S50	0.083930	0.816170	0.676350
S511	S51	0.532000	0.548860	0.297900
S521	S52	0.316170	0.583930	0.423550
S531	S53	0.121240	0.297900	0.548860
S541	S54	0.176350	0.423550	0.583930
S551	S55	0.797900	0.621240	0.032000
S561	S56	0.923550	0.676350	0.816170
S571	S57	0.048860	0.621240	0.297900
S581	S58	0.083930	0.676350	0.423550
S591	S59	0.532000	0.297900	0.621240
S601	S60	0.316170	0.423550	0.676350
S611	S61	0.121240	0.548860	0.032000
S621	S62	0.176350	0.583930	0.816170
S631	S63	0.797900	0.032000	0.548860
S641	S64	0.923550	0.816170	0.583930
S651	S65	0.048860	0.297900	0.032000
S661	S66	0.083930	0.423550	0.816170
S671	S67	0.532000	0.621240	0.548860
S681	S68	0.316170	0.676350	0.583930
S691	S69	0.121240	0.032000	0.297900
S701	S70	0.176350	0.816170	0.423550
S711	S71	0.797900	0.548860	0.621240
S721	S72	0.923550	0.583930	0.676350
S731	S73	0.968000	0.951140	0.878760
S741	S74	0.183830	0.916070	0.823650
S751	S75	0.451140	0.468000	0.202100
S761	S76	0.416070	0.683830	0.076450
S771	S77	0.702100	0.878760	0.951140
S781	S78	0.576450	0.823650	0.916070
S791	S79	0.378760	0.202100	0.468000
S801	S80	0.323650	0.076450	0.683830
S811	S81	0.378760	0.951140	0.202100
S821	S82	0.323650	0.916070	0.076450
S831	S83	0.702100	0.468000	0.878760
S841	S84	0.576450	0.683830	0.823650
S851	S85	0.451140	0.878760	0.468000
S861	S86	0.416070	0.823650	0.683830
S871	S87	0.968000	0.202100	0.951140
S881	S88	0.183830	0.076450	0.916070
S891	S89	0.702100	0.951140	0.468000
S901	S90	0.576450	0.916070	0.683830
S911	S91	0.378760	0.468000	0.951140
S921	S92	0.323650	0.683830	0.916070
S931	S93	0.968000	0.878760	0.202100
S941	S94	0.183830	0.823650	0.076450
S951	S95	0.451140	0.202100	0.878760
S961	S96	0.416070	0.076450	0.823650
N11	N1	0.967340	0.985920	0.305240
N21	N2	0.968980	0.061520	0.259640
N31	N3	0.994210	0.206630	0.039210
N41	N4	0.973310	0.151510	0.167210
N51	N5	0.988270	0.205330	0.133830
N61	N6	0.975840	0.179560	0.197540
N71	N7	0.005710	0.252310	0.195890
N81	N8	0.966130	0.219030	0.278570
N91	N9	0.954650	0.296330	0.242810
N101	N10	0.952600	0.392400	0.234260
N111	N11	0.485920	0.467340	0.741500
N121	N12	0.561520	0.468980	0.709860
N131	N13	0.706630	0.494210	0.759950
N141	N14	0.651510	0.473310	0.707970
N151	N15	0.705330	0.488270	0.672570
N161	N16	0.679560	0.475840	0.647060
N171	N17	0.752310	0.505710	0.546090
N181	N18	0.719030	0.466130	0.536270
N191	N19	0.796330	0.454650	0.506210
N201	N20	0.892400	0.452600	0.420740
N211	N21	0.805240	0.741500	0.467340
N221	N22	0.759640	0.709860	0.468980
N231	N23	0.539210	0.759950	0.494210
N241	N24	0.667210	0.707970	0.473310
N251	N25	0.633830	0.672570	0.488270
N261	N26	0.697540	0.647060	0.475840
N271	N27	0.695890	0.546090	0.505710
N281	N28	0.778570	0.536270	0.466130
N291	N29	0.742810	0.506210	0.454650
N301	N30	0.734260	0.420740	0.452600
N311	N31	0.241500	0.305240	0.985920
N321	N32	0.209860	0.259640	0.061520
N331	N33	0.259950	0.039210	0.206630
N341	N34	0.207970	0.167210	0.151510
N351	N35	0.172570	0.133830	0.205330
N361	N36	0.147060	0.197540	0.179560
N371	N37	0.046090	0.195890	0.252310
N381	N38	0.036270	0.278570	0.219030
N391	N39	0.006210	0.242810	0.296330
N401	N40	0.920740	0.234260	0.392400
N411	N41	0.967340	0.305240	0.741500
N421	N42	0.968980	0.259640	0.709860
N431	N43	0.994210	0.039210	0.759950
N441	N44	0.973310	0.167210	0.707970
N451	N45	0.988270	0.133830	0.672570
N461	N46	0.975840	0.197540	0.647060
N471	N47	0.005710	0.195890	0.546090
N481	N48	0.966130	0.278570	0.536270
N491	N49	0.954650	0.242810	0.506210
N501	N50	0.952600	0.234260	0.420740
N511	N51	0.485920	0.741500	0.305240
N521	N52	0.561520	0.709860	0.259640
N531	N53	0.706630	0.759950	0.039210
N541	N54	0.651510	0.707970	0.167210
N551	N55	0.705330	0.672570	0.133830
N561	N56	0.679560	0.647060	0.197540
N571	N57	0.752310	0.546090	0.195890
N581	N58	0.719030	0.536270	0.278570
N591	N59	0.796330	0.506210	0.242810
N601	N60	0.892400	0.420740	0.234260
N611	N61	0.805240	0.467340	0.985920
N621	N62	0.759640	0.468980	0.061520
N631	N63	0.539210	0.494210	0.206630
N641	N64	0.667210	0.473310	0.151510
N651	N65	0.633830	0.488270	0.205330
N661	N66	0.697540	0.475840	0.179560
N671	N67	0.695890	0.505710	0.252310
N681	N68	0.778570	0.466130	0.219030
N691	N69	0.742810	0.454650	0.296330
N701	N70	0.734260	0.452600	0.392400
N711	N71	0.241500	0.985920	0.467340
N721	N72	0.209860	0.061520	0.468980
N731	N73	0.259950	0.206630	0.494210
N741	N74	0.207970	0.151510	0.473310
N751	N75	0.172570	0.205330	0.488270
N761	N76	0.147060	0.179560	0.475840
N771	N77	0.046090	0.252310	0.505710
N781	N78	0.036270	0.219030	0.466130
N791	N79	0.006210	0.296330	0.454650
N801	N80	0.920740	0.392400	0.452600
N811	N81	0.967340	0.741500	0.985920
N821	N82	0.968980	0.709860	0.061520
N831	N83	0.994210	0.759950	0.206630
N841	N84	0.973310	0.707970	0.151510
N851	N85	0.988270	0.672570	0.205330
N861	N86	0.975840	0.647060	0.179560
N871	N87	0.005710	0.546090	0.252310
N881	N88	0.966130	0.536270	0.219030
N891	N89	0.954650	0.506210	0.296330
N901	N90	0.952600	0.420740	0.392400
N911	N91	0.485920	0.305240	0.467340
N921	N92	0.561520	0.259640	0.468980
N931	N93	0.706630	0.039210	0.494210
N941	N94	0.651510	0.167210	0.473310
N951	N95	0.705330	0.133830	0.488270
N961	N96	0.679560	0.197540	0.475840
N971	N97	0.752310	0.195890	0.505710
N981	N98	0.719030	0.278570	0.466130
N991	N99	0.796330	0.242810	0.454650
N1001	N100	0.892400	0.234260	0.452600
N1011	N101	0.805240	0.985920	0.741500
N1021	N102	0.759640	0.061520	0.709860
N1031	N103	0.539210	0.206630	0.759950
N1041	N104	0.667210	0.151510	0.707970
N1051	N105	0.633830	0.205330	0.672570
N1061	N106	0.697540	0.179560	0.647060
N1071	N107	0.695890	0.252310	0.546090
N1081	N108	0.778570	0.219030	0.536270
N1091	N109	0.742810	0.296330	0.506210
N1101	N110	0.734260	0.392400	0.420740
N1111	N111	0.241500	0.467340	0.305240
N1121	N112	0.209860	0.468980	0.259640
N1131	N113	0.259950	0.494210	0.039210
N1141	N114	0.207970	0.473310	0.167210
N1151	N115	0.172570	0.488270	0.133830
N1161	N116	0.147060	0.475840	0.197540
N1171	N117	0.046090	0.505710	0.195890
N1181	N118	0.036270	0.466130	0.278570
N1191	N119	0.006210	0.454650	0.242810
N1201	N120	0.920740	0.452600	0.234260
N1211	N121	0.014080	0.032660	0.194760
N1221	N122	0.938480	0.031020	0.240360
N1231	N123	0.793370	0.005790	0.460790
N1241	N124	0.848490	0.026690	0.332790
N1251	N125	0.794670	0.011730	0.366170
N1261	N126	0.820440	0.024160	0.302460
N1271	N127	0.747690	0.994290	0.304110
N1281	N128	0.780970	0.033870	0.221430
N1291	N129	0.703670	0.045350	0.257190
N1301	N130	0.607600	0.047400	0.265740
N1311	N131	0.532660	0.514080	0.758500
N1321	N132	0.531020	0.438480	0.790140
N1331	N133	0.505790	0.293370	0.740050
N1341	N134	0.526690	0.348490	0.792030
N1351	N135	0.511730	0.294670	0.827430
N1361	N136	0.524160	0.320440	0.852940
N1371	N137	0.494290	0.247690	0.953910
N1381	N138	0.533870	0.280970	0.963730
N1391	N139	0.545350	0.203670	0.993790
N1401	N140	0.547400	0.107600	0.079260
N1411	N141	0.258500	0.194760	0.032660
N1421	N142	0.290140	0.240360	0.031020
N1431	N143	0.240050	0.460790	0.005790
N1441	N144	0.292030	0.332790	0.026690
N1451	N145	0.327430	0.366170	0.011730
N1461	N146	0.352940	0.302460	0.024160
N1471	N147	0.453910	0.304110	0.994290
N1481	N148	0.463730	0.221430	0.033870
N1491	N149	0.493790	0.257190	0.045350
N1501	N150	0.579260	0.265740	0.047400
N1511	N151	0.694760	0.758500	0.514080
N1521	N152	0.740360	0.790140	0.438480
N1531	N153	0.960790	0.740050	0.293370
N1541	N154	0.832790	0.792030	0.348490
N1551	N155	0.866170	0.827430	0.294670
N1561	N156	0.802460	0.852940	0.320440
N1571	N157	0.804110	0.953910	0.247690
N1581	N158	0.721430	0.963730	0.280970
N1591	N159	0.757190	0.993790	0.203670
N1601	N160	0.765740	0.079260	0.107600
N1611	N161	0.694760	0.032660	0.758500
N1621	N162	0.740360	0.031020	0.790140
N1631	N163	0.960790	0.005790	0.740050
N1641	N164	0.832790	0.026690	0.792030
N1651	N165	0.866170	0.011730	0.827430
N1661	N166	0.802460	0.024160	0.852940
N1671	N167	0.804110	0.994290	0.953910
N1681	N168	0.721430	0.033870	0.963730
N1691	N169	0.757190	0.045350	0.993790
N1701	N170	0.765740	0.047400	0.079260
N1711	N171	0.258500	0.514080	0.194760
N1721	N172	0.290140	0.438480	0.240360
N1731	N173	0.240050	0.293370	0.460790
N1741	N174	0.292030	0.348490	0.332790
N1751	N175	0.327430	0.294670	0.366170
N1761	N176	0.352940	0.320440	0.302460
N1771	N177	0.453910	0.247690	0.304110
N1781	N178	0.463730	0.280970	0.221430
N1791	N179	0.493790	0.203670	0.257190
N1801	N180	0.579260	0.107600	0.265740
N1811	N181	0.532660	0.194760	0.514080
N1821	N182	0.531020	0.240360	0.438480
N1831	N183	0.505790	0.460790	0.293370
N1841	N184	0.526690	0.332790	0.348490
N1851	N185	0.511730	0.366170	0.294670
N1861	N186	0.524160	0.302460	0.320440
N1871	N187	0.494290	0.304110	0.247690
N1881	N188	0.533870	0.221430	0.280970
N1891	N189	0.545350	0.257190	0.203670
N1901	N190	0.547400	0.265740	0.107600
N1911	N191	0.014080	0.758500	0.032660
N1921	N192	0.938480	0.790140	0.031020
N1931	N193	0.793370	0.740050	0.005790
N1941	N194	0.848490	0.792030	0.026690
N1951	N195	0.794670	0.827430	0.011730
N1961	N196	0.820440	0.852940	0.024160
N1971	N197	0.747690	0.953910	0.994290
N1981	N198	0.780970	0.963730	0.033870
N1991	N199	0.703670	0.993790	0.045350
N2001	N200	0.607600	0.079260	0.047400
N2011	N201	0.258500	0.032660	0.514080
N2021	N202	0.290140	0.031020	0.438480
N2031	N203	0.240050	0.005790	0.293370
N2041	N204	0.292030	0.026690	0.348490
N2051	N205	0.327430	0.011730	0.294670
N2061	N206	0.352940	0.024160	0.320440
N2071	N207	0.453910	0.994290	0.247690
N2081	N208	0.463730	0.033870	0.280970
N2091	N209	0.493790	0.045350	0.203670
N2101	N210	0.579260	0.047400	0.107600
N2111	N211	0.694760	0.514080	0.032660
N2121	N212	0.740360	0.438480	0.031020
N2131	N213	0.960790	0.293370	0.005790
N2141	N214	0.832790	0.348490	0.026690
N2151	N215	0.866170	0.294670	0.011730
N2161	N216	0.802460	0.320440	0.024160
N2171	N217	0.804110	0.247690	0.994290
N2181	N218	0.721430	0.280970	0.033870
N2191	N219	0.757190	0.203670	0.045350
N2201	N220	0.765740	0.107600	0.047400
N2211	N221	0.014080	0.194760	0.758500
N2221	N222	0.938480	0.240360	0.790140
N2231	N223	0.793370	0.460790	0.740050
N2241	N224	0.848490	0.332790	0.792030
N2251	N225	0.794670	0.366170	0.827430
N2261	N226	0.820440	0.302460	0.852940
N2271	N227	0.747690	0.304110	0.953910
N2281	N228	0.780970	0.221430	0.963730
N2291	N229	0.703670	0.257190	0.993790
N2301	N230	0.607600	0.265740	0.079260
N2311	N231	0.532660	0.758500	0.194760
N2321	N232	0.531020	0.790140	0.240360
N2331	N233	0.505790	0.740050	0.460790
N2341	N234	0.526690	0.792030	0.332790
N2351	N235	0.511730	0.827430	0.366170
N2361	N236	0.524160	0.852940	0.302460
N2371	N237	0.494290	0.953910	0.304110
N2381	N238	0.533870	0.963730	0.221430
N2391	N239	0.545350	0.993790	0.257190
N2401	N240	0.547400	0.079260	0.265740
N2411	N241	0.032660	0.014080	0.694760
N2421	N242	0.031020	0.938480	0.740360
N2431	N243	0.005790	0.793370	0.960790
N2441	N244	0.026690	0.848490	0.832790
N2451	N245	0.011730	0.794670	0.866170
N2461	N246	0.024160	0.820440	0.802460
N2471	N247	0.994290	0.747690	0.804110
N2481	N248	0.033870	0.780970	0.721430
N2491	N249	0.045350	0.703670	0.757190
N2501	N250	0.047400	0.607600	0.765740
N2511	N251	0.514080	0.532660	0.258500
N2521	N252	0.438480	0.531020	0.290140
N2531	N253	0.293370	0.505790	0.240050
N2541	N254	0.348490	0.526690	0.292030
N2551	N255	0.294670	0.511730	0.327430
N2561	N256	0.320440	0.524160	0.352940
N2571	N257	0.247690	0.494290	0.453910
N2581	N258	0.280970	0.533870	0.463730
N2591	N259	0.203670	0.545350	0.493790
N2601	N260	0.107600	0.547400	0.579260
N2611	N261	0.194760	0.258500	0.532660
N2621	N262	0.240360	0.290140	0.531020
N2631	N263	0.460790	0.240050	0.505790
N2641	N264	0.332790	0.292030	0.526690
N2651	N265	0.366170	0.327430	0.511730
N2661	N266	0.302460	0.352940	0.524160
N2671	N267	0.304110	0.453910	0.494290
N2681	N268	0.221430	0.463730	0.533870
N2691	N269	0.257190	0.493790	0.545350
N2701	N270	0.265740	0.579260	0.547400
N2711	N271	0.758500	0.694760	0.014080
N2721	N272	0.790140	0.740360	0.938480
N2731	N273	0.740050	0.960790	0.793370
N2741	N274	0.792030	0.832790	0.848490
N2751	N275	0.827430	0.866170	0.794670
N2761	N276	0.852940	0.802460	0.820440
N2771	N277	0.953910	0.804110	0.747690
N2781	N278	0.963730	0.721430	0.780970
N2791	N279	0.993790	0.757190	0.703670
N2801	N280	0.079260	0.765740	0.607600
N2811	N281	0.032660	0.694760	0.258500
N2821	N282	0.031020	0.740360	0.290140
N2831	N283	0.005790	0.960790	0.240050
N2841	N284	0.026690	0.832790	0.292030
N2851	N285	0.011730	0.866170	0.327430
N2861	N286	0.024160	0.802460	0.352940
N2871	N287	0.994290	0.804110	0.453910
N2881	N288	0.033870	0.721430	0.463730
N2891	N289	0.045350	0.757190	0.493790
N2901	N290	0.047400	0.765740	0.579260
N2911	N291	0.514080	0.258500	0.694760
N2921	N292	0.438480	0.290140	0.740360
N2931	N293	0.293370	0.240050	0.960790
N2941	N294	0.348490	0.292030	0.832790
N2951	N295	0.294670	0.327430	0.866170
N2961	N296	0.320440	0.352940	0.802460
N2971	N297	0.247690	0.453910	0.804110
N2981	N298	0.280970	0.463730	0.721430
N2991	N299	0.203670	0.493790	0.757190
N3001	N300	0.107600	0.579260	0.765740
N3011	N301	0.194760	0.532660	0.014080
N3021	N302	0.240360	0.531020	0.938480
N3031	N303	0.460790	0.505790	0.793370
N3041	N304	0.332790	0.526690	0.848490
N3051	N305	0.366170	0.511730	0.794670
N3061	N306	0.302460	0.524160	0.820440
N3071	N307	0.304110	0.494290	0.747690
N3081	N308	0.221430	0.533870	0.780970
N3091	N309	0.257190	0.545350	0.703670
N3101	N310	0.265740	0.547400	0.607600
N3111	N311	0.758500	0.014080	0.532660
N3121	N312	0.790140	0.938480	0.531020
N3131	N313	0.740050	0.793370	0.505790
N3141	N314	0.792030	0.848490	0.526690
N3151	N315	0.827430	0.794670	0.511730
N3161	N316	0.852940	0.820440	0.524160
N3171	N317	0.953910	0.747690	0.494290
N3181	N318	0.963730	0.780970	0.533870
N3191	N319	0.993790	0.703670	0.545350
N3201	N320	0.079260	0.607600	0.547400
N3211	N321	0.032660	0.258500	0.014080
N3221	N322	0.031020	0.290140	0.938480
N3231	N323	0.005790	0.240050	0.793370
N3241	N324	0.026690	0.292030	0.848490
N3251	N325	0.011730	0.327430	0.794670
N3261	N326	0.024160	0.352940	0.820440
N3271	N327	0.994290	0.453910	0.747690
N3281	N328	0.033870	0.463730	0.780970
N3291	N329	0.045350	0.493790	0.703670
N3301	N330	0.047400	0.579260	0.607600
N3311	N331	0.514080	0.694760	0.532660
N3321	N332	0.438480	0.740360	0.531020
N3331	N333	0.293370	0.960790	0.505790
N3341	N334	0.348490	0.832790	0.526690
N3351	N335	0.294670	0.866170	0.511730
N3361	N336	0.320440	0.802460	0.524160
N3371	N337	0.247690	0.804110	0.494290
N3381	N338	0.280970	0.721430	0.533870
N3391	N339	0.203670	0.757190	0.545350
N3401	N340	0.107600	0.765740	0.547400
N3411	N341	0.194760	0.014080	0.258500
N3421	N342	0.240360	0.938480	0.290140
N3431	N343	0.460790	0.793370	0.240050
N3441	N344	0.332790	0.848490	0.292030
N3451	N345	0.366170	0.794670	0.327430
N3461	N346	0.302460	0.820440	0.352940
N3471	N347	0.304110	0.747690	0.453910
N3481	N348	0.221430	0.780970	0.463730
N3491	N349	0.257190	0.703670	0.493790
N3501	N350	0.265740	0.607600	0.579260
N3511	N351	0.758500	0.532660	0.694760
N3521	N352	0.790140	0.531020	0.740360
N3531	N353	0.740050	0.505790	0.960790
N3541	N354	0.792030	0.526690	0.832790
N3551	N355	0.827430	0.511730	0.866170
N3561	N356	0.852940	0.524160	0.802460
N3571	N357	0.953910	0.494290	0.804110
N3581	N358	0.963730	0.533870	0.721430
N3591	N359	0.993790	0.545350	0.757190
N3601	N360	0.079260	0.547400	0.765740
N3611	N361	0.985920	0.967340	0.805240
N3621	N362	0.061520	0.968980	0.759640
N3631	N363	0.206630	0.994210	0.539210
N3641	N364	0.151510	0.973310	0.667210
N3651	N365	0.205330	0.988270	0.633830
N3661	N366	0.179560	0.975840	0.697540
N3671	N367	0.252310	0.005710	0.695890
N3681	N368	0.219030	0.966130	0.778570
N3691	N369	0.296330	0.954650	0.742810
N3701	N370	0.392400	0.952600	0.734260
N3711	N371	0.467340	0.485920	0.241500
N3721	N372	0.468980	0.561520	0.209860
N3731	N373	0.494210	0.706630	0.259950
N3741	N374	0.473310	0.651510	0.207970
N3751	N375	0.488270	0.705330	0.172570
N3761	N376	0.475840	0.679560	0.147060
N3771	N377	0.505710	0.752310	0.046090
N3781	N378	0.466130	0.719030	0.036270
N3791	N379	0.454650	0.796330	0.006210
N3801	N380	0.452600	0.892400	0.920740
N3811	N381	0.741500	0.805240	0.967340
N3821	N382	0.709860	0.759640	0.968980
N3831	N383	0.759950	0.539210	0.994210
N3841	N384	0.707970	0.667210	0.973310
N3851	N385	0.672570	0.633830	0.988270
N3861	N386	0.647060	0.697540	0.975840
N3871	N387	0.546090	0.695890	0.005710
N3881	N388	0.536270	0.778570	0.966130
N3891	N389	0.506210	0.742810	0.954650
N3901	N390	0.420740	0.734260	0.952600
N3911	N391	0.305240	0.241500	0.485920
N3921	N392	0.259640	0.209860	0.561520
N3931	N393	0.039210	0.259950	0.706630
N3941	N394	0.167210	0.207970	0.651510
N3951	N395	0.133830	0.172570	0.705330
N3961	N396	0.197540	0.147060	0.679560
N3971	N397	0.195890	0.046090	0.752310
N3981	N398	0.278570	0.036270	0.719030
N3991	N399	0.242810	0.006210	0.796330
N4001	N400	0.234260	0.920740	0.892400
N4011	N401	0.305240	0.967340	0.241500
N4021	N402	0.259640	0.968980	0.209860
N4031	N403	0.039210	0.994210	0.259950
N4041	N404	0.167210	0.973310	0.207970
N4051	N405	0.133830	0.988270	0.172570
N4061	N406	0.197540	0.975840	0.147060
N4071	N407	0.195890	0.005710	0.046090
N4081	N408	0.278570	0.966130	0.036270
N4091	N409	0.242810	0.954650	0.006210
N4101	N410	0.234260	0.952600	0.920740
N4111	N411	0.741500	0.485920	0.805240
N4121	N412	0.709860	0.561520	0.759640
N4131	N413	0.759950	0.706630	0.539210
N4141	N414	0.707970	0.651510	0.667210
N4151	N415	0.672570	0.705330	0.633830
N4161	N416	0.647060	0.679560	0.697540
N4171	N417	0.546090	0.752310	0.695890
N4181	N418	0.536270	0.719030	0.778570
N4191	N419	0.506210	0.796330	0.742810
N4201	N420	0.420740	0.892400	0.734260
N4211	N421	0.467340	0.805240	0.485920
N4221	N422	0.468980	0.759640	0.561520
N4231	N423	0.494210	0.539210	0.706630
N4241	N424	0.473310	0.667210	0.651510
N4251	N425	0.488270	0.633830	0.705330
N4261	N426	0.475840	0.697540	0.679560
N4271	N427	0.505710	0.695890	0.752310
N4281	N428	0.466130	0.778570	0.719030
N4291	N429	0.454650	0.742810	0.796330
N4301	N430	0.452600	0.734260	0.892400
N4311	N431	0.985920	0.241500	0.967340
N4321	N432	0.061520	0.209860	0.968980
N4331	N433	0.206630	0.259950	0.994210
N4341	N434	0.151510	0.207970	0.973310
N4351	N435	0.205330	0.172570	0.988270
N4361	N436	0.179560	0.147060	0.975840
N4371	N437	0.252310	0.046090	0.005710
N4381	N438	0.219030	0.036270	0.966130
N4391	N439	0.296330	0.006210	0.954650
N4401	N440	0.392400	0.920740	0.952600
N4411	N441	0.741500	0.967340	0.485920
N4421	N442	0.709860	0.968980	0.561520
N4431	N443	0.759950	0.994210	0.706630
N4441	N444	0.707970	0.973310	0.651510
N4451	N445	0.672570	0.988270	0.705330
N4461	N446	0.647060	0.975840	0.679560
N4471	N447	0.546090	0.005710	0.752310
N4481	N448	0.536270	0.966130	0.719030
N4491	N449	0.506210	0.954650	0.796330
N4501	N450	0.420740	0.952600	0.892400
N4511	N451	0.305240	0.485920	0.967340
N4521	N452	0.259640	0.561520	0.968980
N4531	N453	0.039210	0.706630	0.994210
N4541	N454	0.167210	0.651510	0.973310
N4551	N455	0.133830	0.705330	0.988270
N4561	N456	0.197540	0.679560	0.975840
N4571	N457	0.195890	0.752310	0.005710
N4581	N458	0.278570	0.719030	0.966130
N4591	N459	0.242810	0.796330	0.954650
N4601	N460	0.234260	0.892400	0.952600
N4611	N461	0.985920	0.805240	0.241500
N4621	N462	0.061520	0.759640	0.209860
N4631	N463	0.206630	0.539210	0.259950
N4641	N464	0.151510	0.667210	0.207970
N4651	N465	0.205330	0.633830	0.172570
N4661	N466	0.179560	0.697540	0.147060
N4671	N467	0.252310	0.695890	0.046090
N4681	N468	0.219030	0.778570	0.036270
N4691	N469	0.296330	0.742810	0.006210
N4701	N470	0.392400	0.734260	0.920740
N4711	N471	0.467340	0.241500	0.805240
N4721	N472	0.468980	0.209860	0.759640
N4731	N473	0.494210	0.259950	0.539210
N4741	N474	0.473310	0.207970	0.667210
N4751	N475	0.488270	0.172570	0.633830
N4761	N476	0.475840	0.147060	0.697540
N4771	N477	0.505710	0.046090	0.695890
N4781	N478	0.466130	0.036270	0.778570
N4791	N479	0.454650	0.006210	0.742810
N4801	N480	0.452600	0.920740	0.734260
