data_LAZGOK_manual_PM
_symmetry_space_group_name_H-M	'P1'
_cell_length_a	11.583000
_cell_length_b	11.665000
_cell_length_c	14.159000
_cell_angle_alpha	93.932000
_cell_angle_beta	111.980000
_cell_angle_gamma	110.018000
_symmetry_Int_Tables_number 1

loop_
_symmetry_equiv_pos_as_xyz
'x,y,z'

loop_
_atom_site_label
_atom_site_type_symbol
_atom_site_fract_x
_atom_site_fract_y
_atom_site_fract_z
Cu11	Cu1	0.391200	0.353410	0.355170
Cu21	Cu2	0.368430	0.912680	0.524510
Cu31	Cu3	0.608800	0.646590	0.644830
Cu41	Cu4	0.631570	0.087320	0.475490
Cu51	Cu5	0.500000	0.000000	0.000000
H11	H1	0.110400	0.965400	0.326600
H21	H2	0.146200	0.107400	0.376100
H31	H3	0.278900	0.180800	0.558700
H41	H4	0.174100	0.100800	0.600700
H51	H5	0.694900	0.600000	0.165100
H61	H6	0.791400	0.741200	0.228200
H71	H7	0.707000	0.434900	0.245100
H81	H8	0.806100	0.460600	0.365600
H91	H9	0.966500	0.535900	0.621400
H101	H10	0.002300	0.585200	0.741100
H111	H11	0.087300	0.894400	0.742700
H121	H12	0.062700	0.790500	0.808800
H131	H13	0.889600	0.034600	0.673400
H141	H14	0.853800	0.892600	0.623900
H151	H15	0.721100	0.819200	0.441300
H161	H16	0.825900	0.899200	0.399300
H171	H17	0.305100	0.400000	0.834900
H181	H18	0.208600	0.258800	0.771800
H191	H19	0.293000	0.565100	0.754900
H201	H20	0.193900	0.539400	0.634400
H211	H21	0.033500	0.464100	0.378600
H221	H22	0.997700	0.414800	0.258900
H231	H23	0.912700	0.105600	0.257300
H241	H24	0.937300	0.209500	0.191200
C11	C1	0.321300	0.079100	0.383700
C21	C2	0.176700	0.037700	0.385600
C31	C3	0.244300	0.099600	0.577200
C41	C4	0.358300	0.092600	0.667900
C51	C5	0.088500	0.889100	0.481800
C61	C6	0.929500	0.697300	0.399700
C71	C7	0.789800	0.656600	0.211700
C81	C8	0.873400	0.662200	0.155100
C91	C9	0.746900	0.492700	0.314000
C101	C10	0.634900	0.488000	0.343000
C111	C11	0.023900	0.751400	0.573000
C121	C12	0.960400	0.596900	0.669500
C131	C13	0.812900	0.568400	0.640900
C141	C14	0.104900	0.819800	0.761000
C151	C15	0.255800	0.859100	0.819000
C161	C16	0.678700	0.920900	0.616300
C171	C17	0.823300	0.962300	0.614400
C181	C18	0.755700	0.900400	0.422800
C191	C19	0.641700	0.907400	0.332100
C201	C20	0.911500	0.110900	0.518200
C211	C21	0.070500	0.302700	0.600300
C221	C22	0.210200	0.343400	0.788300
C231	C23	0.126600	0.337800	0.844900
C241	C24	0.253100	0.507300	0.686000
C251	C25	0.365100	0.512000	0.657000
C261	C26	0.976100	0.248600	0.427000
C271	C27	0.039600	0.403100	0.330500
C281	C28	0.187100	0.431600	0.359100
C291	C29	0.895100	0.180200	0.239000
C301	C30	0.744200	0.140900	0.181000
N11	N1	0.179300	0.003200	0.484000
N21	N2	0.001500	0.809300	0.388800
N31	N3	0.830600	0.613900	0.308500
N41	N4	0.938200	0.659600	0.488300
N51	N5	0.037200	0.721400	0.665300
N61	N6	0.096900	0.870200	0.574400
N71	N7	0.820700	0.996800	0.516000
N81	N8	0.998500	0.190700	0.611200
N91	N9	0.169400	0.386100	0.691500
N101	N10	0.061800	0.340400	0.511700
N111	N11	0.962800	0.278600	0.334700
N121	N12	0.903100	0.129800	0.425600
O11	O1	0.334600	0.140200	0.316500
O21	O2	0.404500	0.041900	0.444000
O31	O3	0.422200	0.029600	0.652000
O41	O4	0.390100	0.154200	0.753900
O51	O5	0.979500	0.624000	0.195800
O61	O6	0.818400	0.700900	0.061100
O71	O7	0.611400	0.584500	0.353500
O81	O8	0.566500	0.384000	0.354200
O91	O9	0.779700	0.661800	0.645900
O101	O10	0.731100	0.456500	0.620100
O111	O11	0.319100	0.814700	0.784200
O121	O12	0.309000	0.939800	0.904200
O131	O13	0.665400	0.859800	0.683500
O141	O14	0.595500	0.958100	0.556000
O151	O15	0.577800	0.970400	0.348000
O161	O16	0.609900	0.845800	0.246100
O171	O17	0.020500	0.376000	0.804200
O181	O18	0.181600	0.299100	0.938900
O191	O19	0.388600	0.415500	0.646500
O201	O20	0.433500	0.616000	0.645800
O211	O21	0.220300	0.338200	0.354100
O221	O22	0.268900	0.543500	0.379900
O231	O23	0.680900	0.185300	0.215800
O241	O24	0.691000	0.060200	0.095800
