data_LAZPIN_clean_PM
_symmetry_space_group_name_H-M	'P1'
_cell_length_a	8.019100
_cell_length_b	17.305000
_cell_length_c	23.303400
_cell_angle_alpha	90.000000
_cell_angle_beta	90.000000
_cell_angle_gamma	90.000000
_symmetry_Int_Tables_number 1

loop_
_symmetry_equiv_pos_as_xyz
'x,y,z'

loop_
_atom_site_label
_atom_site_type_symbol
_atom_site_fract_x
_atom_site_fract_y
_atom_site_fract_z
La11	La1	0.637020	0.896710	0.782410
La21	La2	0.862980	0.103290	0.282410
La31	La3	0.362980	0.396710	0.717590
La41	La4	0.137020	0.603290	0.217590
La51	La5	0.362980	0.103290	0.217590
La61	La6	0.137020	0.896710	0.717590
La71	La7	0.637020	0.603290	0.282410
La81	La8	0.862980	0.396710	0.782410
Cu11	Cu1	0.000000	0.000000	0.500000
Cu21	Cu2	0.500000	0.000000	0.000000
Cu31	Cu3	0.000000	0.500000	0.000000
Cu41	Cu4	0.500000	0.500000	0.500000
H11	H1	0.372800	0.831900	0.492300
H21	H2	0.614700	0.757800	0.489900
H31	H3	0.812900	0.774500	0.560500
H41	H4	0.797300	0.162900	0.661500
H51	H5	0.781600	0.069000	0.591300
H61	H6	0.249600	0.101100	0.550900
H71	H7	0.271300	0.201200	0.615300
H81	H8	0.127200	0.168100	0.992300
H91	H9	0.885300	0.242200	0.989900
H101	H10	0.687100	0.225500	0.060500
H111	H11	0.702700	0.837100	0.161500
H121	H12	0.718400	0.931000	0.091300
H131	H13	0.250400	0.898900	0.050900
H141	H14	0.228700	0.798800	0.115300
H151	H15	0.627200	0.331900	0.007700
H161	H16	0.385300	0.257800	0.010100
H171	H17	0.187100	0.274500	0.939500
H181	H18	0.202700	0.662900	0.838500
H191	H19	0.218400	0.569000	0.908700
H201	H20	0.750400	0.601100	0.949100
H211	H21	0.728700	0.701200	0.884700
H221	H22	0.872800	0.668100	0.507700
H231	H23	0.114700	0.742200	0.510100
H241	H24	0.312900	0.725500	0.439500
H251	H25	0.297300	0.337100	0.338500
H261	H26	0.281600	0.431000	0.408700
H271	H27	0.749600	0.398900	0.449100
H281	H28	0.771300	0.298800	0.384700
H291	H29	0.627200	0.168100	0.507700
H301	H30	0.385300	0.242200	0.510100
H311	H31	0.187100	0.225500	0.439500
H321	H32	0.202700	0.837100	0.338500
H331	H33	0.218400	0.931000	0.408700
H341	H34	0.750400	0.898900	0.449100
H351	H35	0.728700	0.798800	0.384700
H361	H36	0.872800	0.831900	0.007700
H371	H37	0.114700	0.757800	0.010100
H381	H38	0.312900	0.774500	0.939500
H391	H39	0.297300	0.162900	0.838500
H401	H40	0.281600	0.069000	0.908700
H411	H41	0.749600	0.101100	0.949100
H421	H42	0.771300	0.201200	0.884700
H431	H43	0.372800	0.668100	0.992300
H441	H44	0.614700	0.742200	0.989900
H451	H45	0.812900	0.725500	0.060500
H461	H46	0.797300	0.337100	0.161500
H471	H47	0.781600	0.431000	0.091300
H481	H48	0.249600	0.398900	0.050900
H491	H49	0.271300	0.298800	0.115300
H501	H50	0.127200	0.331900	0.492300
H511	H51	0.885300	0.257800	0.489900
H521	H52	0.687100	0.274500	0.560500
H531	H53	0.702700	0.662900	0.661500
H541	H54	0.718400	0.569000	0.591300
H551	H55	0.250400	0.601100	0.550900
H561	H56	0.228700	0.701200	0.615300
C11	C1	0.825700	0.859680	0.651140
C21	C2	0.507700	0.962620	0.652220
C31	C3	0.259700	0.930520	0.567700
C41	C4	0.691200	0.855860	0.606330
C51	C5	0.544700	0.899660	0.608750
C61	C6	0.425000	0.889140	0.565640
C71	C7	0.452200	0.837300	0.521080
C81	C8	0.597400	0.793400	0.519270
C91	C9	0.715200	0.803380	0.561690
C101	C10	0.055500	0.256910	0.689960
C111	C11	0.036300	0.193190	0.646060
C121	C12	0.889600	0.152360	0.638620
C131	C13	0.881400	0.095500	0.596710
C141	C14	0.156600	0.115190	0.572350
C151	C15	0.171400	0.174300	0.611760
C161	C16	0.674300	0.140320	0.151140
C171	C17	0.992300	0.037380	0.152220
C181	C18	0.240300	0.069480	0.067700
C191	C19	0.808800	0.144140	0.106330
C201	C20	0.955300	0.100340	0.108750
C211	C21	0.075000	0.110860	0.065640
C221	C22	0.047800	0.162700	0.021080
C231	C23	0.902600	0.206600	0.019270
C241	C24	0.784800	0.196620	0.061690
C251	C25	0.444500	0.743090	0.189960
C261	C26	0.463700	0.806810	0.146060
C271	C27	0.610400	0.847640	0.138620
C281	C28	0.618600	0.904500	0.096710
C291	C29	0.343400	0.884810	0.072350
C301	C30	0.328600	0.825700	0.111760
C311	C31	0.174300	0.359680	0.848860
C321	C32	0.492300	0.462620	0.847780
C331	C33	0.740300	0.430520	0.932300
C341	C34	0.308800	0.355860	0.893670
C351	C35	0.455300	0.399660	0.891250
C361	C36	0.575000	0.389140	0.934360
C371	C37	0.547800	0.337300	0.978920
C381	C38	0.402600	0.293400	0.980730
C391	C39	0.284800	0.303380	0.938310
C401	C40	0.944500	0.756910	0.810040
C411	C41	0.963700	0.693190	0.853940
C421	C42	0.110400	0.652360	0.861380
C431	C43	0.118600	0.595500	0.903290
C441	C44	0.843400	0.615190	0.927650
C451	C45	0.828600	0.674300	0.888240
C461	C46	0.325700	0.640320	0.348860
C471	C47	0.007700	0.537380	0.347780
C481	C48	0.759700	0.569480	0.432300
C491	C49	0.191200	0.644140	0.393670
C501	C50	0.044700	0.600340	0.391250
C511	C51	0.925000	0.610860	0.434360
C521	C52	0.952200	0.662700	0.478920
C531	C53	0.097400	0.706600	0.480730
C541	C54	0.215200	0.696620	0.438310
C551	C55	0.555500	0.243090	0.310040
C561	C56	0.536300	0.306810	0.353940
C571	C57	0.389600	0.347640	0.361380
C581	C58	0.381400	0.404500	0.403290
C591	C59	0.656600	0.384810	0.427650
C601	C60	0.671400	0.325700	0.388240
C611	C61	0.174300	0.140320	0.348860
C621	C62	0.492300	0.037380	0.347780
C631	C63	0.740300	0.069480	0.432300
C641	C64	0.308800	0.144140	0.393670
C651	C65	0.455300	0.100340	0.391250
C661	C66	0.575000	0.110860	0.434360
C671	C67	0.547800	0.162700	0.478920
C681	C68	0.402600	0.206600	0.480730
C691	C69	0.284800	0.196620	0.438310
C701	C70	0.944500	0.743090	0.310040
C711	C71	0.963700	0.806810	0.353940
C721	C72	0.110400	0.847640	0.361380
C731	C73	0.118600	0.904500	0.403290
C741	C74	0.843400	0.884810	0.427650
C751	C75	0.828600	0.825700	0.388240
C761	C76	0.325700	0.859680	0.848860
C771	C77	0.007700	0.962620	0.847780
C781	C78	0.759700	0.930520	0.932300
C791	C79	0.191200	0.855860	0.893670
C801	C80	0.044700	0.899660	0.891250
C811	C81	0.925000	0.889140	0.934360
C821	C82	0.952200	0.837300	0.978920
C831	C83	0.097400	0.793400	0.980730
C841	C84	0.215200	0.803380	0.938310
C851	C85	0.555500	0.256910	0.810040
C861	C86	0.536300	0.193190	0.853940
C871	C87	0.389600	0.152360	0.861380
C881	C88	0.381400	0.095500	0.903290
C891	C89	0.656600	0.115190	0.927650
C901	C90	0.671400	0.174300	0.888240
C911	C91	0.825700	0.640320	0.151140
C921	C92	0.507700	0.537380	0.152220
C931	C93	0.259700	0.569480	0.067700
C941	C94	0.691200	0.644140	0.106330
C951	C95	0.544700	0.600340	0.108750
C961	C96	0.425000	0.610860	0.065640
C971	C97	0.452200	0.662700	0.021080
C981	C98	0.597400	0.706600	0.019270
C991	C99	0.715200	0.696620	0.061690
C1001	C100	0.055500	0.243090	0.189960
C1011	C101	0.036300	0.306810	0.146060
C1021	C102	0.889600	0.347640	0.138620
C1031	C103	0.881400	0.404500	0.096710
C1041	C104	0.156600	0.384810	0.072350
C1051	C105	0.171400	0.325700	0.111760
C1061	C106	0.674300	0.359680	0.651140
C1071	C107	0.992300	0.462620	0.652220
C1081	C108	0.240300	0.430520	0.567700
C1091	C109	0.808800	0.355860	0.606330
C1101	C110	0.955300	0.399660	0.608750
C1111	C111	0.075000	0.389140	0.565640
C1121	C112	0.047800	0.337300	0.521080
C1131	C113	0.902600	0.293400	0.519270
C1141	C114	0.784800	0.303380	0.561690
C1151	C115	0.444500	0.756910	0.689960
C1161	C116	0.463700	0.693190	0.646060
C1171	C117	0.610400	0.652360	0.638620
C1181	C118	0.618600	0.595500	0.596710
C1191	C119	0.343400	0.615190	0.572350
C1201	C120	0.328600	0.674300	0.611760
N11	N1	0.012700	0.077460	0.563860
N21	N2	0.487300	0.922540	0.063860
N31	N3	0.987300	0.577460	0.936140
N41	N4	0.512700	0.422540	0.436140
N51	N5	0.987300	0.922540	0.436140
N61	N6	0.512700	0.077460	0.936140
N71	N7	0.012700	0.422540	0.063860
N81	N8	0.487300	0.577460	0.563860
O11	O1	0.812100	0.908650	0.692320
O21	O2	0.949500	0.816880	0.647110
O31	O3	0.450800	0.941780	0.701330
O41	O4	0.528300	0.029540	0.636010
O51	O5	0.184000	0.936720	0.613470
O61	O6	0.209300	0.954230	0.519250
O71	O7	0.198100	0.285710	0.693300
O81	O8	0.932300	0.276550	0.719510
O91	O9	0.687900	0.091350	0.192320
O101	O10	0.550500	0.183120	0.147110
O111	O11	0.049200	0.058220	0.201330
O121	O12	0.971700	0.970460	0.136010
O131	O13	0.316000	0.063280	0.113470
O141	O14	0.290700	0.045770	0.019250
O151	O15	0.301900	0.714290	0.193300
O161	O16	0.567700	0.723450	0.219510
O171	O17	0.187900	0.408650	0.807680
O181	O18	0.050500	0.316880	0.852890
O191	O19	0.549200	0.441780	0.798670
O201	O20	0.471700	0.529540	0.863990
O211	O21	0.816000	0.436720	0.886530
O221	O22	0.790700	0.454230	0.980750
O231	O23	0.801900	0.785710	0.806700
O241	O24	0.067700	0.776550	0.780490
O251	O25	0.312100	0.591350	0.307680
O261	O26	0.449500	0.683120	0.352890
O271	O27	0.950800	0.558220	0.298670
O281	O28	0.028300	0.470460	0.363990
O291	O29	0.684000	0.563280	0.386530
O301	O30	0.709300	0.545770	0.480750
O311	O31	0.698100	0.214290	0.306700
O321	O32	0.432300	0.223450	0.280490
O331	O33	0.187900	0.091350	0.307680
O341	O34	0.050500	0.183120	0.352890
O351	O35	0.549200	0.058220	0.298670
O361	O36	0.471700	0.970460	0.363990
O371	O37	0.816000	0.063280	0.386530
O381	O38	0.790700	0.045770	0.480750
O391	O39	0.801900	0.714290	0.306700
O401	O40	0.067700	0.723450	0.280490
O411	O41	0.312100	0.908650	0.807680
O421	O42	0.449500	0.816880	0.852890
O431	O43	0.950800	0.941780	0.798670
O441	O44	0.028300	0.029540	0.863990
O451	O45	0.684000	0.936720	0.886530
O461	O46	0.709300	0.954230	0.980750
O471	O47	0.698100	0.285710	0.806700
O481	O48	0.432300	0.276550	0.780490
O491	O49	0.812100	0.591350	0.192320
O501	O50	0.949500	0.683120	0.147110
O511	O51	0.450800	0.558220	0.201330
O521	O52	0.528300	0.470460	0.136010
O531	O53	0.184000	0.563280	0.113470
O541	O54	0.209300	0.545770	0.019250
O551	O55	0.198100	0.214290	0.193300
O561	O56	0.932300	0.223450	0.219510
O571	O57	0.687900	0.408650	0.692320
O581	O58	0.550500	0.316880	0.647110
O591	O59	0.049200	0.441780	0.701330
O601	O60	0.971700	0.529540	0.636010
O611	O61	0.316000	0.436720	0.613470
O621	O62	0.290700	0.454230	0.519250
O631	O63	0.301900	0.785710	0.693300
O641	O64	0.567700	0.776550	0.719510
