data_LECHUX_clean_PM
_symmetry_space_group_name_H-M	'P1'
_cell_length_a	8.233100
_cell_length_b	10.865100
_cell_length_c	28.558200
_cell_angle_alpha	90.000000
_cell_angle_beta	90.000000
_cell_angle_gamma	90.000000
_symmetry_Int_Tables_number 1

loop_
_symmetry_equiv_pos_as_xyz
'x,y,z'

loop_
_atom_site_label
_atom_site_type_symbol
_atom_site_fract_x
_atom_site_fract_y
_atom_site_fract_z
U11	U1	0.647610	0.666510	0.927790
U21	U2	0.396590	0.167860	0.929750
U31	U3	0.281460	0.557060	0.750860
U41	U4	0.852390	0.333490	0.427790
U51	U5	0.103410	0.832140	0.429750
U61	U6	0.218540	0.442940	0.250860
U71	U7	0.352390	0.166510	0.572210
U81	U8	0.603410	0.667860	0.570250
U91	U9	0.718540	0.057060	0.749140
U101	U10	0.147610	0.833490	0.072210
U111	U11	0.896590	0.332140	0.070250
U121	U12	0.781460	0.942940	0.249140
H11	H1	0.334000	0.786600	0.961800
H21	H2	0.706900	0.252100	0.963500
H31	H3	0.093400	0.877500	0.918300
H41	H4	0.048200	0.814000	0.870500
H51	H5	0.202400	0.553600	0.937400
H61	H6	0.057800	0.591900	0.904900
H71	H7	0.953700	0.367100	0.912900
H81	H8	0.984200	0.303500	0.864500
H91	H9	0.986800	0.094200	0.901900
H101	H10	0.840000	0.055100	0.933400
H111	H11	0.166000	0.213400	0.461800
H121	H12	0.793100	0.747900	0.463500
H131	H13	0.406600	0.122500	0.418300
H141	H14	0.451800	0.186000	0.370500
H151	H15	0.297600	0.446400	0.437400
H161	H16	0.442200	0.408100	0.404900
H171	H17	0.546300	0.632900	0.412900
H181	H18	0.515800	0.696500	0.364500
H191	H19	0.513200	0.905800	0.401900
H201	H20	0.660000	0.944900	0.433400
H211	H21	0.666000	0.286600	0.538200
H221	H22	0.293100	0.752100	0.536500
H231	H23	0.906600	0.377500	0.581700
H241	H24	0.951800	0.314000	0.629500
H251	H25	0.797600	0.053600	0.562600
H261	H26	0.942200	0.091900	0.595100
H271	H27	0.046300	0.867100	0.587100
H281	H28	0.015800	0.803500	0.635500
H291	H29	0.013200	0.594200	0.598100
H301	H30	0.160000	0.555100	0.566600
H311	H31	0.834000	0.713400	0.038200
H321	H32	0.206900	0.247900	0.036500
H331	H33	0.593400	0.622500	0.081700
H341	H34	0.548200	0.686000	0.129500
H351	H35	0.702400	0.946400	0.062600
H361	H36	0.557800	0.908100	0.095100
H371	H37	0.453700	0.132900	0.087100
H381	H38	0.484200	0.196500	0.135500
H391	H39	0.486800	0.405800	0.098100
H401	H40	0.340000	0.444900	0.066600
C11	C1	0.244000	0.722200	0.904600
C21	C2	0.319400	0.659300	0.861200
C31	C3	0.137800	0.839000	0.890400
C41	C4	0.244900	0.928700	0.864800
C51	C5	0.134800	0.622200	0.927800
C61	C6	0.043300	0.669100	0.969600
C71	C7	0.802100	0.223100	0.901300
C81	C8	0.715900	0.163100	0.859800
C91	C9	0.900400	0.331400	0.885900
C101	C10	0.798000	0.431300	0.861500
C111	C11	0.908500	0.123900	0.924600
C121	C12	0.998700	0.167900	0.967500
C131	C13	0.256000	0.277800	0.404600
C141	C14	0.180600	0.340700	0.361200
C151	C15	0.362200	0.161000	0.390400
C161	C16	0.255100	0.071300	0.364800
C171	C17	0.365200	0.377800	0.427800
C181	C18	0.456700	0.330900	0.469600
C191	C19	0.697900	0.776900	0.401300
C201	C20	0.784100	0.836900	0.359800
C211	C21	0.599600	0.668600	0.385900
C221	C22	0.702000	0.568700	0.361500
C231	C23	0.591500	0.876100	0.424600
C241	C24	0.501300	0.832100	0.467500
C251	C25	0.756000	0.222200	0.595400
C261	C26	0.680600	0.159300	0.638800
C271	C27	0.862200	0.339000	0.609600
C281	C28	0.755100	0.428700	0.635200
C291	C29	0.865200	0.122200	0.572200
C301	C30	0.956700	0.169100	0.530400
C311	C31	0.197900	0.723100	0.598700
C321	C32	0.284100	0.663100	0.640200
C331	C33	0.099600	0.831400	0.614100
C341	C34	0.202000	0.931300	0.638500
C351	C35	0.091500	0.623900	0.575400
C361	C36	0.001300	0.667900	0.532500
C371	C37	0.744000	0.777800	0.095400
C381	C38	0.819400	0.840700	0.138800
C391	C39	0.637800	0.661000	0.109600
C401	C40	0.744900	0.571300	0.135200
C411	C41	0.634800	0.877800	0.072200
C421	C42	0.543300	0.830900	0.030400
C431	C43	0.302100	0.276900	0.098700
C441	C44	0.215900	0.336900	0.140200
C451	C45	0.400400	0.168600	0.114100
C461	C46	0.298000	0.068700	0.138500
C471	C47	0.408500	0.376100	0.075400
C481	C48	0.498700	0.332100	0.032500
O11	O1	0.373500	0.759800	0.933800
O21	O2	0.469200	0.642700	0.862500
O31	O3	0.226700	0.628700	0.828700
O41	O4	0.252900	0.038400	0.881100
O51	O5	0.313000	0.896800	0.827500
O61	O6	0.893200	0.646900	0.972800
O71	O7	0.121900	0.723400	0.000700
O81	O8	0.672600	0.264200	0.932400
O91	O9	0.565400	0.144400	0.862900
O101	O10	0.803400	0.130200	0.825900
O111	O11	0.796800	0.539400	0.877500
O121	O12	0.722200	0.400400	0.825800
O131	O13	0.918800	0.226700	0.998500
O141	O14	0.147400	0.145500	0.971600
O151	O15	0.126500	0.240200	0.433800
O161	O16	0.030800	0.357300	0.362500
O171	O17	0.273300	0.371300	0.328700
O181	O18	0.247100	0.961600	0.381100
O191	O19	0.187000	0.103200	0.327500
O201	O20	0.606800	0.353100	0.472800
O211	O21	0.378100	0.276600	0.500700
O221	O22	0.827400	0.735800	0.432400
O231	O23	0.934600	0.855600	0.362900
O241	O24	0.696600	0.869800	0.325900
O251	O25	0.703200	0.460600	0.377500
O261	O26	0.777800	0.599600	0.325800
O271	O27	0.581200	0.773300	0.498500
O281	O28	0.352600	0.854500	0.471600
O291	O29	0.626500	0.259800	0.566200
O301	O30	0.530800	0.142700	0.637500
O311	O31	0.773300	0.128700	0.671300
O321	O32	0.747100	0.538400	0.618900
O331	O33	0.687000	0.396800	0.672500
O341	O34	0.106800	0.146900	0.527200
O351	O35	0.878100	0.223400	0.499300
O361	O36	0.327400	0.764200	0.567600
O371	O37	0.434600	0.644400	0.637100
O381	O38	0.196600	0.630200	0.674100
O391	O39	0.203200	0.039400	0.622500
O401	O40	0.277800	0.900400	0.674200
O411	O41	0.081200	0.726700	0.501500
O421	O42	0.852600	0.645500	0.528400
O431	O43	0.873500	0.740200	0.066200
O441	O44	0.969200	0.857300	0.137500
O451	O45	0.726700	0.871300	0.171300
O461	O46	0.752900	0.461600	0.118900
O471	O47	0.813000	0.603200	0.172500
O481	O48	0.393200	0.853100	0.027200
O491	O49	0.621900	0.776600	0.999300
O501	O50	0.172600	0.235800	0.067600
O511	O51	0.065400	0.355600	0.137100
O521	O52	0.303400	0.369800	0.174100
O531	O53	0.296800	0.960600	0.122500
O541	O54	0.222200	0.099600	0.174200
O551	O55	0.418800	0.273300	0.001500
O561	O56	0.647400	0.354500	0.028400
