data_LEDLEN_clean_PM
_symmetry_space_group_name_H-M	'P1'
_cell_length_a	15.868000
_cell_length_b	15.868000
_cell_length_c	21.280000
_cell_angle_alpha	85.271400
_cell_angle_beta	85.271400
_cell_angle_gamma	60.605400
_symmetry_Int_Tables_number 1

loop_
_symmetry_equiv_pos_as_xyz
'x,y,z'

loop_
_atom_site_label
_atom_site_type_symbol
_atom_site_fract_x
_atom_site_fract_y
_atom_site_fract_z
Cu11	Cu1	0.490060	0.496760	0.313070
Cu21	Cu2	0.941680	0.461440	0.005870
Cu31	Cu3	0.503240	0.509940	0.186930
Cu41	Cu4	0.538560	0.058320	0.494130
Cu51	Cu5	0.509940	0.503240	0.686930
Cu61	Cu6	0.058320	0.538560	0.994130
Cu71	Cu7	0.496760	0.490060	0.813070
Cu81	Cu8	0.461440	0.941680	0.505870
H11	H1	0.400900	0.813500	0.159500
H21	H2	0.358900	0.974500	0.154500
H31	H3	0.414200	0.954200	0.337700
H41	H4	0.452600	0.793000	0.344200
H51	H5	0.093300	0.233900	0.146300
H61	H6	0.202100	0.101700	0.207600
H71	H7	0.381500	0.216300	0.196900
H81	H8	0.271600	0.346600	0.132700
H91	H9	0.716500	0.664500	0.134900
H101	H10	0.601700	0.795500	0.190300
H111	H11	0.773700	0.918100	0.165800
H121	H12	0.888100	0.785100	0.109300
H131	H13	0.596200	0.212600	0.135200
H141	H14	0.618200	0.060000	0.126900
H151	H15	0.562900	0.041100	0.314000
H161	H16	0.536000	0.199000	0.321900
H171	H17	0.186500	0.599100	0.340500
H181	H18	0.025500	0.641100	0.345500
H191	H19	0.045800	0.585800	0.162300
H201	H20	0.207000	0.547400	0.155800
H211	H21	0.766100	0.906700	0.353700
H221	H22	0.898300	0.797900	0.292400
H231	H23	0.783700	0.618500	0.303100
H241	H24	0.653400	0.728400	0.367300
H251	H25	0.335500	0.283500	0.365100
H261	H26	0.204500	0.398300	0.309700
H271	H27	0.081900	0.226300	0.334200
H281	H28	0.214900	0.111900	0.390700
H291	H29	0.787400	0.403800	0.364800
H301	H30	0.940000	0.381800	0.373100
H311	H31	0.958900	0.437100	0.186000
H321	H32	0.801000	0.464000	0.178100
H331	H33	0.599100	0.186500	0.840500
H341	H34	0.641100	0.025500	0.845500
H351	H35	0.585800	0.045800	0.662300
H361	H36	0.547400	0.207000	0.655800
H371	H37	0.906700	0.766100	0.853700
H381	H38	0.797900	0.898300	0.792400
H391	H39	0.618500	0.783700	0.803100
H401	H40	0.728400	0.653400	0.867300
H411	H41	0.283500	0.335500	0.865100
H421	H42	0.398300	0.204500	0.809700
H431	H43	0.226300	0.081900	0.834200
H441	H44	0.111900	0.214900	0.890700
H451	H45	0.403800	0.787400	0.864800
H461	H46	0.381800	0.940000	0.873100
H471	H47	0.437100	0.958900	0.686000
H481	H48	0.464000	0.801000	0.678100
H491	H49	0.813500	0.400900	0.659500
H501	H50	0.974500	0.358900	0.654500
H511	H51	0.954200	0.414200	0.837700
H521	H52	0.793000	0.452600	0.844200
H531	H53	0.233900	0.093300	0.646300
H541	H54	0.101700	0.202100	0.707600
H551	H55	0.216300	0.381500	0.696900
H561	H56	0.346600	0.271600	0.632700
H571	H57	0.664500	0.716500	0.634900
H581	H58	0.795500	0.601700	0.690300
H591	H59	0.918100	0.773700	0.665800
H601	H60	0.785100	0.888100	0.609300
H611	H61	0.212600	0.596200	0.635200
H621	H62	0.060000	0.618200	0.626900
H631	H63	0.041100	0.562900	0.814000
H641	H64	0.199000	0.536000	0.821900
C11	C1	0.450300	0.681900	0.254900
C21	C2	0.427100	0.784700	0.252000
C31	C3	0.401800	0.841600	0.195900
C41	C4	0.378100	0.937700	0.192200
C51	C5	0.383400	0.979400	0.247000
C61	C6	0.410700	0.925900	0.302200
C71	C7	0.433400	0.829000	0.306300
C81	C8	0.106700	0.381100	0.085500
C91	C9	0.173300	0.303500	0.129600
C101	C10	0.151900	0.229500	0.155100
C111	C11	0.216000	0.150600	0.192800
C121	C12	0.300500	0.147900	0.207400
C131	C13	0.324300	0.219500	0.186100
C141	C14	0.257500	0.297700	0.147000
C151	C15	0.886700	0.628900	0.076400
C161	C16	0.814400	0.713000	0.116300
C171	C17	0.727500	0.715700	0.141000
C181	C18	0.658600	0.794000	0.174100
C191	C19	0.675600	0.870600	0.183000
C201	C20	0.761900	0.867700	0.159300
C211	C21	0.830800	0.787200	0.125400
C221	C22	0.541300	0.327100	0.233000
C231	C23	0.560500	0.224100	0.228800
C241	C24	0.588000	0.179200	0.171000
C251	C25	0.603300	0.087500	0.166000
C261	C26	0.596000	0.035400	0.220600
C271	C27	0.569500	0.075900	0.278400
C281	C28	0.552600	0.171200	0.282800
C291	C29	0.318100	0.549700	0.245100
C301	C30	0.215300	0.572900	0.248000
C311	C31	0.158400	0.598200	0.304100
C321	C32	0.062300	0.621900	0.307800
C331	C33	0.020600	0.616600	0.253000
C341	C34	0.074100	0.589300	0.197800
C351	C35	0.171000	0.566600	0.193700
C361	C36	0.618900	0.893300	0.414500
C371	C37	0.696500	0.826700	0.370400
C381	C38	0.770500	0.848100	0.344900
C391	C39	0.849400	0.784000	0.307200
C401	C40	0.852100	0.699500	0.292600
C411	C41	0.780500	0.675700	0.313900
C421	C42	0.702300	0.742500	0.353000
C431	C43	0.371100	0.113300	0.423600
C441	C44	0.287000	0.185600	0.383700
C451	C45	0.284300	0.272500	0.359000
C461	C46	0.206000	0.341400	0.325900
C471	C47	0.129400	0.324400	0.317000
C481	C48	0.132300	0.238100	0.340700
C491	C49	0.212800	0.169200	0.374600
C501	C50	0.672900	0.458700	0.267000
C511	C51	0.775900	0.439500	0.271200
C521	C52	0.820800	0.412000	0.329000
C531	C53	0.912500	0.396700	0.334000
C541	C54	0.964600	0.404000	0.279400
C551	C55	0.924100	0.430500	0.221600
C561	C56	0.828800	0.447400	0.217200
C571	C57	0.549700	0.318100	0.745100
C581	C58	0.572900	0.215300	0.748000
C591	C59	0.598200	0.158400	0.804100
C601	C60	0.621900	0.062300	0.807800
C611	C61	0.616600	0.020600	0.753000
C621	C62	0.589300	0.074100	0.697800
C631	C63	0.566600	0.171000	0.693700
C641	C64	0.893300	0.618900	0.914500
C651	C65	0.826700	0.696500	0.870400
C661	C66	0.848100	0.770500	0.844900
C671	C67	0.784000	0.849400	0.807200
C681	C68	0.699500	0.852100	0.792600
C691	C69	0.675700	0.780500	0.813900
C701	C70	0.742500	0.702300	0.853000
C711	C71	0.113300	0.371100	0.923600
C721	C72	0.185600	0.287000	0.883700
C731	C73	0.272500	0.284300	0.859000
C741	C74	0.341400	0.206000	0.825900
C751	C75	0.324400	0.129400	0.817000
C761	C76	0.238100	0.132300	0.840700
C771	C77	0.169200	0.212800	0.874600
C781	C78	0.458700	0.672900	0.767000
C791	C79	0.439500	0.775900	0.771200
C801	C80	0.412000	0.820800	0.829000
C811	C81	0.396700	0.912500	0.834000
C821	C82	0.404000	0.964600	0.779400
C831	C83	0.430500	0.924100	0.721600
C841	C84	0.447400	0.828800	0.717200
C851	C85	0.681900	0.450300	0.754900
C861	C86	0.784700	0.427100	0.752000
C871	C87	0.841600	0.401800	0.695900
C881	C88	0.937700	0.378100	0.692200
C891	C89	0.979400	0.383400	0.747000
C901	C90	0.925900	0.410700	0.802200
C911	C91	0.829000	0.433400	0.806300
C921	C92	0.381100	0.106700	0.585500
C931	C93	0.303500	0.173300	0.629600
C941	C94	0.229500	0.151900	0.655100
C951	C95	0.150600	0.216000	0.692800
C961	C96	0.147900	0.300500	0.707400
C971	C97	0.219500	0.324300	0.686100
C981	C98	0.297700	0.257500	0.647000
C991	C99	0.628900	0.886700	0.576400
C1001	C100	0.713000	0.814400	0.616300
C1011	C101	0.715700	0.727500	0.641000
C1021	C102	0.794000	0.658600	0.674100
C1031	C103	0.870600	0.675600	0.683000
C1041	C104	0.867700	0.761900	0.659300
C1051	C105	0.787200	0.830800	0.625400
C1061	C106	0.327100	0.541300	0.733000
C1071	C107	0.224100	0.560500	0.728800
C1081	C108	0.179200	0.588000	0.671000
C1091	C109	0.087500	0.603300	0.666000
C1101	C110	0.035400	0.596000	0.720600
C1111	C111	0.075900	0.569500	0.778400
C1121	C112	0.171200	0.552600	0.782800
O11	O1	0.465200	0.634000	0.306400
O21	O2	0.455600	0.647400	0.200300
O31	O3	0.030300	0.379100	0.071700
O41	O4	0.130500	0.444100	0.062600
O51	O5	0.368000	0.071200	0.247800
O61	O6	0.863900	0.563500	0.067100
O71	O7	0.963300	0.629100	0.056500
O81	O8	0.517400	0.362200	0.289600
O91	O9	0.549500	0.371900	0.186000
O101	O10	0.605100	0.944300	0.220100
O111	O11	0.366000	0.534800	0.193600
O121	O12	0.352600	0.544400	0.299700
O131	O13	0.620900	0.969700	0.428300
O141	O14	0.555900	0.869500	0.437400
O151	O15	0.928800	0.632000	0.252200
O161	O16	0.436500	0.136100	0.432900
O171	O17	0.370900	0.036700	0.443500
O181	O18	0.637800	0.482600	0.210400
O191	O19	0.628100	0.450500	0.314000
O201	O20	0.055700	0.394900	0.279900
O211	O21	0.534800	0.366000	0.693600
O221	O22	0.544400	0.352600	0.799700
O231	O23	0.969700	0.620900	0.928300
O241	O24	0.869500	0.555900	0.937400
O251	O25	0.632000	0.928800	0.752200
O261	O26	0.136100	0.436500	0.932900
O271	O27	0.036700	0.370900	0.943500
O281	O28	0.482600	0.637800	0.710400
O291	O29	0.450500	0.628100	0.814000
O301	O30	0.394900	0.055700	0.779900
O311	O31	0.634000	0.465200	0.806400
O321	O32	0.647400	0.455600	0.700300
O331	O33	0.379100	0.030300	0.571700
O341	O34	0.444100	0.130500	0.562600
O351	O35	0.071200	0.368000	0.747800
O361	O36	0.563500	0.863900	0.567100
O371	O37	0.629100	0.963300	0.556500
O381	O38	0.362200	0.517400	0.789600
O391	O39	0.371900	0.549500	0.686000
O401	O40	0.944300	0.605100	0.720100
