data_LEGGEK_clean_PM
_symmetry_space_group_name_H-M	'P1'
_cell_length_a	7.797000
_cell_length_b	10.047000
_cell_length_c	13.577000
_cell_angle_alpha	110.180000
_cell_angle_beta	105.460000
_cell_angle_gamma	93.900000
_symmetry_Int_Tables_number 1

loop_
_symmetry_equiv_pos_as_xyz
'x,y,z'

loop_
_atom_site_label
_atom_site_type_symbol
_atom_site_fract_x
_atom_site_fract_y
_atom_site_fract_z
Zn11	Zn1	0.369180	0.122260	0.744780
Zn21	Zn2	0.630820	0.877740	0.255220
Zn31	Zn3	0.000000	0.500000	0.500000
Zn41	Zn4	0.500000	0.500000	0.500000
H11	H1	0.085000	0.842500	0.632200
H21	H2	0.590200	0.857800	0.636700
H31	H3	0.040100	0.266700	0.625600
H41	H4	0.539000	0.270600	0.619700
H51	H5	0.862300	0.055800	0.847200
H61	H6	0.313000	0.002900	0.053200
H71	H7	0.967800	0.290800	0.845300
H81	H8	0.745000	0.571100	0.050900
H91	H9	0.915000	0.157500	0.367800
H101	H10	0.409800	0.142200	0.363300
H111	H11	0.959900	0.733300	0.374400
H121	H12	0.461000	0.729400	0.380300
H131	H13	0.137700	0.944200	0.152800
H141	H14	0.687000	0.997100	0.946800
H151	H15	0.032200	0.709200	0.154700
H161	H16	0.255000	0.428900	0.949100
C11	C1	0.194900	0.815200	0.621300
C21	C2	0.466500	0.823500	0.623900
C31	C3	0.151500	0.288200	0.613500
C41	C4	0.419500	0.290200	0.610300
C51	C5	0.217700	0.075500	0.877900
C61	C6	0.103900	0.036100	0.940600
C71	C7	0.918200	0.033400	0.909400
C81	C8	0.186400	0.002000	0.031700
C91	C9	0.981200	0.375600	0.908000
C101	C10	0.848100	0.542400	0.030300
C111	C11	0.828500	0.417300	0.938000
C121	C12	0.643300	0.328500	0.872400
C131	C13	0.805100	0.184800	0.378700
C141	C14	0.533500	0.176500	0.376100
C151	C15	0.848500	0.711800	0.386500
C161	C16	0.580500	0.709800	0.389700
C171	C17	0.782300	0.924500	0.122100
C181	C18	0.896100	0.963900	0.059400
C191	C19	0.081800	0.966600	0.090600
C201	C20	0.813600	0.998000	0.968300
C211	C21	0.018800	0.624400	0.092000
C221	C22	0.151900	0.457600	0.969700
C231	C23	0.171500	0.582700	0.062000
C241	C24	0.356700	0.671500	0.127600
N11	N1	0.211400	0.681500	0.569700
N21	N2	0.389300	0.685900	0.571400
N31	N3	0.351100	0.909600	0.657100
N41	N4	0.179300	0.378100	0.565000
N51	N5	0.355400	0.378900	0.563000
N61	N6	0.297800	0.230500	0.643800
N71	N7	0.788600	0.318500	0.430300
N81	N8	0.610700	0.314100	0.428600
N91	N9	0.648900	0.090400	0.342900
N101	N10	0.820700	0.621900	0.435000
N111	N11	0.644600	0.621100	0.437000
N121	N12	0.702200	0.769500	0.356200
O11	O1	0.140700	0.093600	0.790200
O21	O2	0.385200	0.092900	0.913000
O31	O3	0.635800	0.203300	0.800900
O41	O4	0.506800	0.380200	0.887400
O51	O5	0.859300	0.906400	0.209800
O61	O6	0.614800	0.907100	0.087000
O71	O7	0.364200	0.796700	0.199100
O81	O8	0.493200	0.619800	0.112600
