data_LEJBUX_clean_PM
_symmetry_space_group_name_H-M	'P1'
_cell_length_a	9.003000
_cell_length_b	12.046000
_cell_length_c	18.870000
_cell_angle_alpha	90.000000
_cell_angle_beta	96.230000
_cell_angle_gamma	90.000000
_symmetry_Int_Tables_number 1

loop_
_symmetry_equiv_pos_as_xyz
'x,y,z'

loop_
_atom_site_label
_atom_site_type_symbol
_atom_site_fract_x
_atom_site_fract_y
_atom_site_fract_z
Cd11	Cd1	0.755170	0.760370	0.592380
Cd21	Cd2	0.730930	0.002810	0.845120
Cd31	Cd3	0.244830	0.260370	0.907620
Cd41	Cd4	0.269070	0.502810	0.654880
Cd51	Cd5	0.244830	0.239630	0.407620
Cd61	Cd6	0.269070	0.997190	0.154880
Cd71	Cd7	0.755170	0.739630	0.092380
Cd81	Cd8	0.730930	0.497190	0.345120
C11	C1	0.732000	0.912800	0.742200
C21	C2	0.740000	0.868400	0.690100
C31	C3	0.752000	0.616300	0.437500
C41	C4	0.758000	0.670900	0.486400
C51	C5	0.070000	0.615000	0.643300
C61	C6	0.964700	0.666100	0.634700
C71	C7	0.477000	0.598700	0.644300
C81	C8	0.582500	0.644100	0.632000
C91	C9	0.268000	0.412800	0.757800
C101	C10	0.260000	0.368400	0.809900
C111	C11	0.248000	0.116300	0.062500
C121	C12	0.242000	0.170900	0.013600
C131	C13	0.930000	0.115000	0.856700
C141	C14	0.035300	0.166100	0.865300
C151	C15	0.523000	0.098700	0.855700
C161	C16	0.417500	0.144100	0.868000
C171	C17	0.268000	0.087200	0.257800
C181	C18	0.260000	0.131600	0.309900
C191	C19	0.248000	0.383700	0.562500
C201	C20	0.242000	0.329100	0.513600
C211	C21	0.930000	0.385000	0.356700
C221	C22	0.035300	0.333900	0.365300
C231	C23	0.523000	0.401300	0.355700
C241	C24	0.417500	0.355900	0.368000
C251	C25	0.732000	0.587200	0.242200
C261	C26	0.740000	0.631600	0.190100
C271	C27	0.752000	0.883700	0.937500
C281	C28	0.758000	0.829100	0.986400
C291	C29	0.070000	0.885000	0.143300
C301	C30	0.964700	0.833900	0.134700
C311	C31	0.477000	0.901300	0.144300
C321	C32	0.582500	0.855900	0.132000
