data_LEJKIW_clean_PM
_symmetry_space_group_name_H-M	'P1'
_cell_length_a	13.767600
_cell_length_b	13.767600
_cell_length_c	28.061900
_cell_angle_alpha	90.000000
_cell_angle_beta	90.000000
_cell_angle_gamma	120.000000
_symmetry_Int_Tables_number 1

loop_
_symmetry_equiv_pos_as_xyz
'x,y,z'

loop_
_atom_site_label
_atom_site_type_symbol
_atom_site_fract_x
_atom_site_fract_y
_atom_site_fract_z
In11	In1	0.853160	0.559700	0.975370
P11	P1	0.974670	0.809140	0.916830
P21	P2	0.629420	0.507370	0.040110
O11	O1	0.032400	0.888800	0.957980
O21	O2	0.714500	0.571000	0.001620
O31	O3	0.878800	0.696300	0.932180
O41	O4	0.562700	0.564800	0.051460
O51	O5	0.930800	0.854000	0.878310
O61	O6	0.759900	0.447900	0.920500
O71	O7	0.556000	0.384100	0.029680
O81	O8	0.090300	0.941400	0.795240
H11	H1	0.050600	0.801300	0.890000
O91	O9	0.695800	0.508400	0.082100
In21	In2	0.440300	0.293460	0.975370
P31	P3	0.190860	0.165530	0.916830
P41	P4	0.492630	0.122050	0.040110
O101	O10	0.111200	0.143600	0.957980
O111	O11	0.429000	0.143500	0.001620
O121	O12	0.303700	0.182500	0.932180
O131	O13	0.435200	0.997900	0.051460
O141	O14	0.146000	0.076800	0.878310
O151	O15	0.552100	0.312000	0.920500
O161	O16	0.615900	0.171900	0.029680
O171	O17	0.058600	0.148900	0.795240
H21	H2	0.198700	0.249300	0.890000
O181	O18	0.491600	0.187400	0.082100
In31	In3	0.706540	0.146840	0.975370
P51	P5	0.834470	0.025330	0.916830
P61	P6	0.877950	0.370580	0.040110
O191	O19	0.856400	0.967600	0.957980
O201	O20	0.856500	0.285500	0.001620
O211	O21	0.817500	0.121200	0.932180
O221	O22	0.002100	0.437300	0.051460
O231	O23	0.923200	0.069200	0.878310
O241	O24	0.688000	0.240100	0.920500
O251	O25	0.828100	0.444000	0.029680
O261	O26	0.851100	0.909700	0.795240
H31	H3	0.750700	0.949400	0.890000
O271	O27	0.812600	0.304200	0.082100
In41	In4	0.146840	0.440300	0.475370
P71	P7	0.025330	0.190860	0.416830
P81	P8	0.370580	0.492630	0.540110
O281	O28	0.967600	0.111200	0.457980
O291	O29	0.285500	0.429000	0.501620
O301	O30	0.121200	0.303700	0.432180
O311	O31	0.437300	0.435200	0.551460
O321	O32	0.069200	0.146000	0.378310
O331	O33	0.240100	0.552100	0.420500
O341	O34	0.444000	0.615900	0.529680
O351	O35	0.909700	0.058600	0.295240
H41	H4	0.949400	0.198700	0.390000
O361	O36	0.304200	0.491600	0.582100
In51	In5	0.559700	0.706540	0.475370
P91	P9	0.809140	0.834470	0.416830
P101	P10	0.507370	0.877950	0.540110
O371	O37	0.888800	0.856400	0.457980
O381	O38	0.571000	0.856500	0.501620
O391	O39	0.696300	0.817500	0.432180
O401	O40	0.564800	0.002100	0.551460
O411	O41	0.854000	0.923200	0.378310
O421	O42	0.447900	0.688000	0.420500
O431	O43	0.384100	0.828100	0.529680
O441	O44	0.941400	0.851100	0.295240
H51	H5	0.801300	0.750700	0.390000
O451	O45	0.508400	0.812600	0.582100
In61	In6	0.293460	0.853160	0.475370
P111	P11	0.165530	0.974670	0.416830
P121	P12	0.122050	0.629420	0.540110
O461	O46	0.143600	0.032400	0.457980
O471	O47	0.143500	0.714500	0.501620
O481	O48	0.182500	0.878800	0.432180
O491	O49	0.997900	0.562700	0.551460
O501	O50	0.076800	0.930800	0.378310
O511	O51	0.312000	0.759900	0.420500
O521	O52	0.171900	0.556000	0.529680
O531	O53	0.148900	0.090300	0.295240
H61	H6	0.249300	0.050600	0.390000
O541	O54	0.187400	0.695800	0.582100
In71	In7	0.146840	0.440300	0.024630
P131	P13	0.025330	0.190860	0.083170
P141	P14	0.370580	0.492630	0.959890
O551	O55	0.967600	0.111200	0.042020
O561	O56	0.285500	0.429000	0.998380
O571	O57	0.121200	0.303700	0.067820
O581	O58	0.437300	0.435200	0.948540
O591	O59	0.069200	0.146000	0.121690
O601	O60	0.240100	0.552100	0.079500
O611	O61	0.444000	0.615900	0.970320
O621	O62	0.909700	0.058600	0.204760
H71	H7	0.949400	0.198700	0.110000
O631	O63	0.304200	0.491600	0.917900
In81	In8	0.559700	0.706540	0.024630
P151	P15	0.809140	0.834470	0.083170
P161	P16	0.507370	0.877950	0.959890
O641	O64	0.888800	0.856400	0.042020
O651	O65	0.571000	0.856500	0.998380
O661	O66	0.696300	0.817500	0.067820
O671	O67	0.564800	0.002100	0.948540
O681	O68	0.854000	0.923200	0.121690
O691	O69	0.447900	0.688000	0.079500
O701	O70	0.384100	0.828100	0.970320
O711	O71	0.941400	0.851100	0.204760
H81	H8	0.801300	0.750700	0.110000
O721	O72	0.508400	0.812600	0.917900
In91	In9	0.293460	0.853160	0.024630
P171	P17	0.165530	0.974670	0.083170
P181	P18	0.122050	0.629420	0.959890
O731	O73	0.143600	0.032400	0.042020
O741	O74	0.143500	0.714500	0.998380
O751	O75	0.182500	0.878800	0.067820
O761	O76	0.997900	0.562700	0.948540
O771	O77	0.076800	0.930800	0.121690
O781	O78	0.312000	0.759900	0.079500
O791	O79	0.171900	0.556000	0.970320
O801	O80	0.148900	0.090300	0.204760
H91	H9	0.249300	0.050600	0.110000
O811	O81	0.187400	0.695800	0.917900
In101	In10	0.853160	0.559700	0.524630
P191	P19	0.974670	0.809140	0.583170
P201	P20	0.629420	0.507370	0.459890
O821	O82	0.032400	0.888800	0.542020
O831	O83	0.714500	0.571000	0.498380
O841	O84	0.878800	0.696300	0.567820
O851	O85	0.562700	0.564800	0.448540
O861	O86	0.930800	0.854000	0.621690
O871	O87	0.759900	0.447900	0.579500
O881	O88	0.556000	0.384100	0.470320
O891	O89	0.090300	0.941400	0.704760
H101	H10	0.050600	0.801300	0.610000
O901	O90	0.695800	0.508400	0.417900
In111	In11	0.440300	0.293460	0.524630
P211	P21	0.190860	0.165530	0.583170
P221	P22	0.492630	0.122050	0.459890
O911	O91	0.111200	0.143600	0.542020
O921	O92	0.429000	0.143500	0.498380
O931	O93	0.303700	0.182500	0.567820
O941	O94	0.435200	0.997900	0.448540
O951	O95	0.146000	0.076800	0.621690
O961	O96	0.552100	0.312000	0.579500
O971	O97	0.615900	0.171900	0.470320
O981	O98	0.058600	0.148900	0.704760
H111	H11	0.198700	0.249300	0.610000
O991	O99	0.491600	0.187400	0.417900
In121	In12	0.706540	0.146840	0.524630
P231	P23	0.834470	0.025330	0.583170
P241	P24	0.877950	0.370580	0.459890
O1001	O100	0.856400	0.967600	0.542020
O1011	O101	0.856500	0.285500	0.498380
O1021	O102	0.817500	0.121200	0.567820
O1031	O103	0.002100	0.437300	0.448540
O1041	O104	0.923200	0.069200	0.621690
O1051	O105	0.688000	0.240100	0.579500
O1061	O106	0.828100	0.444000	0.470320
O1071	O107	0.851100	0.909700	0.704760
H121	H12	0.750700	0.949400	0.610000
O1081	O108	0.812600	0.304200	0.417900
In131	In13	0.000000	0.000000	0.000000
In141	In14	0.000000	0.000000	0.500000
In151	In15	0.000000	0.000000	0.835590
In161	In16	0.000000	0.000000	0.335590
In171	In17	0.000000	0.000000	0.164410
In181	In18	0.000000	0.000000	0.664410
P251	P25	0.666670	0.333330	0.907640
H131	H13	0.666670	0.333330	0.860600
P261	P26	0.333330	0.666670	0.407640
H141	H14	0.333330	0.666670	0.360600
P271	P27	0.333330	0.666670	0.092360
H151	H15	0.333330	0.666670	0.139400
P281	P28	0.666670	0.333330	0.592360
H161	H16	0.666670	0.333330	0.639400
P291	P29	0.072770	0.876100	0.750000
O1091	O109	0.152970	0.828000	0.750000
O1101	O110	0.962700	0.773400	0.750000
H171	H17	0.151700	0.768100	0.750000
P301	P30	0.123900	0.196670	0.750000
O1111	O111	0.172000	0.324970	0.750000
O1121	O112	0.226600	0.189300	0.750000
H181	H18	0.231900	0.383600	0.750000
P311	P31	0.803330	0.927230	0.750000
O1131	O113	0.675030	0.847030	0.750000
O1141	O114	0.810700	0.037300	0.750000
H191	H19	0.616400	0.848300	0.750000
P321	P32	0.927230	0.123900	0.250000
O1151	O115	0.847030	0.172000	0.250000
O1161	O116	0.037300	0.226600	0.250000
H201	H20	0.848300	0.231900	0.250000
P331	P33	0.876100	0.803330	0.250000
O1171	O117	0.828000	0.675030	0.250000
O1181	O118	0.773400	0.810700	0.250000
H211	H21	0.768100	0.616400	0.250000
P341	P34	0.196670	0.072770	0.250000
O1191	O119	0.324970	0.152970	0.250000
O1201	O120	0.189300	0.962700	0.250000
H221	H22	0.383600	0.151700	0.250000
