data_LELDUD_clean_PM
_symmetry_space_group_name_H-M	'P1'
_cell_length_a	39.484000
_cell_length_b	39.484000
_cell_length_c	39.484000
_cell_angle_alpha	90.000000
_cell_angle_beta	90.000000
_cell_angle_gamma	90.000000
_symmetry_Int_Tables_number 1

loop_
_symmetry_equiv_pos_as_xyz
'x,y,z'

loop_
_atom_site_label
_atom_site_type_symbol
_atom_site_fract_x
_atom_site_fract_y
_atom_site_fract_z
Cu11	Cu1	0.964570	0.459130	0.736190
Cu21	Cu2	0.974460	0.470710	0.671470
Cu31	Cu3	0.535430	0.540870	0.236190
Cu41	Cu4	0.525540	0.529290	0.171470
Cu51	Cu5	0.035430	0.959130	0.763810
Cu61	Cu6	0.025540	0.970710	0.828530
Cu71	Cu7	0.464570	0.040870	0.263810
Cu81	Cu8	0.474460	0.029290	0.328530
Cu91	Cu9	0.736190	0.964570	0.459130
Cu101	Cu10	0.671470	0.974460	0.470710
Cu111	Cu11	0.236190	0.535430	0.540870
Cu121	Cu12	0.171470	0.525540	0.529290
Cu131	Cu13	0.763810	0.035430	0.959130
Cu141	Cu14	0.828530	0.025540	0.970710
Cu151	Cu15	0.263810	0.464570	0.040870
Cu161	Cu16	0.328530	0.474460	0.029290
Cu171	Cu17	0.459130	0.736190	0.964570
Cu181	Cu18	0.470710	0.671470	0.974460
Cu191	Cu19	0.540870	0.236190	0.535430
Cu201	Cu20	0.529290	0.171470	0.525540
Cu211	Cu21	0.959130	0.763810	0.035430
Cu221	Cu22	0.970710	0.828530	0.025540
Cu231	Cu23	0.040870	0.263810	0.464570
Cu241	Cu24	0.029290	0.328530	0.474460
Cu251	Cu25	0.035430	0.540870	0.263810
Cu261	Cu26	0.025540	0.529290	0.328530
Cu271	Cu27	0.464570	0.459130	0.763810
Cu281	Cu28	0.474460	0.470710	0.828530
Cu291	Cu29	0.964570	0.040870	0.236190
Cu301	Cu30	0.974460	0.029290	0.171470
Cu311	Cu31	0.535430	0.959130	0.736190
Cu321	Cu32	0.525540	0.970710	0.671470
Cu331	Cu33	0.263810	0.035430	0.540870
Cu341	Cu34	0.328530	0.025540	0.529290
Cu351	Cu35	0.763810	0.464570	0.459130
Cu361	Cu36	0.828530	0.474460	0.470710
Cu371	Cu37	0.236190	0.964570	0.040870
Cu381	Cu38	0.171470	0.974460	0.029290
Cu391	Cu39	0.736190	0.535430	0.959130
Cu401	Cu40	0.671470	0.525540	0.970710
Cu411	Cu41	0.540870	0.263810	0.035430
Cu421	Cu42	0.529290	0.328530	0.025540
Cu431	Cu43	0.459130	0.763810	0.464570
Cu441	Cu44	0.470710	0.828530	0.474460
Cu451	Cu45	0.040870	0.236190	0.964570
Cu461	Cu46	0.029290	0.171470	0.974460
Cu471	Cu47	0.959130	0.736190	0.535430
Cu481	Cu48	0.970710	0.671470	0.525540
H11	H1	0.963300	0.580800	0.669700
H21	H2	0.968200	0.558200	0.772300
H31	H3	0.968200	0.622400	0.783800
H41	H4	0.962600	0.729500	0.701500
H51	H5	0.959100	0.739900	0.643000
H61	H6	0.959900	0.636500	0.627800
H71	H7	0.011200	0.672900	0.777700
H81	H8	0.015300	0.712500	0.818800
H91	H9	0.934100	0.759200	0.789500
H101	H10	0.925000	0.718700	0.746000
H111	H11	0.967500	0.717800	0.877200
H121	H12	0.963000	0.728200	0.931900
H131	H13	0.989000	0.828300	0.918600
H141	H14	0.006600	0.867900	0.860600
H151	H15	0.002100	0.799600	0.766300
H161	H16	0.015900	0.852000	0.761200
H171	H17	0.536700	0.419200	0.169700
H181	H18	0.531800	0.441800	0.272300
H191	H19	0.531800	0.377600	0.283800
H201	H20	0.537400	0.270500	0.201500
H211	H21	0.540900	0.260100	0.143000
H221	H22	0.540100	0.363500	0.127800
H231	H23	0.488800	0.327100	0.277700
H241	H24	0.484700	0.287500	0.318800
H251	H25	0.565900	0.240800	0.289500
H261	H26	0.575000	0.281300	0.246000
H271	H27	0.532500	0.282200	0.377200
H281	H28	0.537000	0.271800	0.431900
H291	H29	0.511000	0.171700	0.418600
H301	H30	0.493400	0.132100	0.360600
H311	H31	0.497900	0.200400	0.266300
H321	H32	0.484100	0.148000	0.261200
H331	H33	0.036700	0.080800	0.830300
H341	H34	0.031800	0.058200	0.727700
H351	H35	0.031800	0.122400	0.716200
H361	H36	0.037400	0.229500	0.798500
H371	H37	0.040900	0.239900	0.857000
H381	H38	0.040100	0.136500	0.872200
H391	H39	0.988800	0.172900	0.722300
H401	H40	0.984700	0.212500	0.681200
H411	H41	0.065900	0.259200	0.710500
H421	H42	0.075000	0.218700	0.754000
H431	H43	0.032500	0.217800	0.622800
H441	H44	0.037000	0.228200	0.568100
H451	H45	0.011000	0.328300	0.581400
H461	H46	0.993400	0.367900	0.639400
H471	H47	0.997900	0.299600	0.733700
H481	H48	0.984100	0.352000	0.738800
H491	H49	0.463300	0.919200	0.330300
H501	H50	0.468200	0.941800	0.227700
H511	H51	0.468200	0.877600	0.216200
H521	H52	0.462600	0.770500	0.298500
H531	H53	0.459100	0.760100	0.357000
H541	H54	0.459900	0.863500	0.372200
H551	H55	0.511200	0.827100	0.222300
H561	H56	0.515300	0.787500	0.181200
H571	H57	0.434100	0.740800	0.210500
H581	H58	0.425000	0.781300	0.254000
H591	H59	0.467500	0.782200	0.122800
H601	H60	0.463000	0.771800	0.068100
H611	H61	0.489000	0.671700	0.081400
H621	H62	0.506600	0.632100	0.139400
H631	H63	0.502100	0.700400	0.233700
H641	H64	0.515900	0.648000	0.238800
H651	H65	0.669700	0.963300	0.580800
H661	H66	0.772300	0.968200	0.558200
H671	H67	0.783800	0.968200	0.622400
H681	H68	0.701500	0.962600	0.729500
H691	H69	0.643000	0.959100	0.739900
H701	H70	0.627800	0.959900	0.636500
H711	H71	0.777700	0.011200	0.672900
H721	H72	0.818800	0.015300	0.712500
H731	H73	0.789500	0.934100	0.759200
H741	H74	0.746000	0.925000	0.718700
H751	H75	0.877200	0.967500	0.717800
H761	H76	0.931900	0.963000	0.728200
H771	H77	0.918600	0.989000	0.828300
H781	H78	0.860600	0.006600	0.867900
H791	H79	0.766300	0.002100	0.799600
H801	H80	0.761200	0.015900	0.852000
H811	H81	0.169700	0.536700	0.419200
H821	H82	0.272300	0.531800	0.441800
H831	H83	0.283800	0.531800	0.377600
H841	H84	0.201500	0.537400	0.270500
H851	H85	0.143000	0.540900	0.260100
H861	H86	0.127800	0.540100	0.363500
H871	H87	0.277700	0.488800	0.327100
H881	H88	0.318800	0.484700	0.287500
H891	H89	0.289500	0.565900	0.240800
H901	H90	0.246000	0.575000	0.281300
H911	H91	0.377200	0.532500	0.282200
H921	H92	0.431900	0.537000	0.271800
H931	H93	0.418600	0.511000	0.171700
H941	H94	0.360600	0.493400	0.132100
H951	H95	0.266300	0.497900	0.200400
H961	H96	0.261200	0.484100	0.148000
H971	H97	0.830300	0.036700	0.080800
H981	H98	0.727700	0.031800	0.058200
H991	H99	0.716200	0.031800	0.122400
H1001	H100	0.798500	0.037400	0.229500
H1011	H101	0.857000	0.040900	0.239900
H1021	H102	0.872200	0.040100	0.136500
H1031	H103	0.722300	0.988800	0.172900
H1041	H104	0.681200	0.984700	0.212500
H1051	H105	0.710500	0.065900	0.259200
H1061	H106	0.754000	0.075000	0.218700
H1071	H107	0.622800	0.032500	0.217800
H1081	H108	0.568100	0.037000	0.228200
H1091	H109	0.581400	0.011000	0.328300
H1101	H110	0.639400	0.993400	0.367900
H1111	H111	0.733700	0.997900	0.299600
H1121	H112	0.738800	0.984100	0.352000
H1131	H113	0.330300	0.463300	0.919200
H1141	H114	0.227700	0.468200	0.941800
H1151	H115	0.216200	0.468200	0.877600
H1161	H116	0.298500	0.462600	0.770500
H1171	H117	0.357000	0.459100	0.760100
H1181	H118	0.372200	0.459900	0.863500
H1191	H119	0.222300	0.511200	0.827100
H1201	H120	0.181200	0.515300	0.787500
H1211	H121	0.210500	0.434100	0.740800
H1221	H122	0.254000	0.425000	0.781300
H1231	H123	0.122800	0.467500	0.782200
H1241	H124	0.068100	0.463000	0.771800
H1251	H125	0.081400	0.489000	0.671700
H1261	H126	0.139400	0.506600	0.632100
H1271	H127	0.233700	0.502100	0.700400
H1281	H128	0.238800	0.515900	0.648000
H1291	H129	0.580800	0.669700	0.963300
H1301	H130	0.558200	0.772300	0.968200
H1311	H131	0.622400	0.783800	0.968200
H1321	H132	0.729500	0.701500	0.962600
H1331	H133	0.739900	0.643000	0.959100
H1341	H134	0.636500	0.627800	0.959900
H1351	H135	0.672900	0.777700	0.011200
H1361	H136	0.712500	0.818800	0.015300
H1371	H137	0.759200	0.789500	0.934100
H1381	H138	0.718700	0.746000	0.925000
H1391	H139	0.717800	0.877200	0.967500
H1401	H140	0.728200	0.931900	0.963000
H1411	H141	0.828300	0.918600	0.989000
H1421	H142	0.867900	0.860600	0.006600
H1431	H143	0.799600	0.766300	0.002100
H1441	H144	0.852000	0.761200	0.015900
H1451	H145	0.419200	0.169700	0.536700
H1461	H146	0.441800	0.272300	0.531800
H1471	H147	0.377600	0.283800	0.531800
H1481	H148	0.270500	0.201500	0.537400
H1491	H149	0.260100	0.143000	0.540900
H1501	H150	0.363500	0.127800	0.540100
H1511	H151	0.327100	0.277700	0.488800
H1521	H152	0.287500	0.318800	0.484700
H1531	H153	0.240800	0.289500	0.565900
H1541	H154	0.281300	0.246000	0.575000
H1551	H155	0.282200	0.377200	0.532500
H1561	H156	0.271800	0.431900	0.537000
H1571	H157	0.171700	0.418600	0.511000
H1581	H158	0.132100	0.360600	0.493400
H1591	H159	0.200400	0.266300	0.497900
H1601	H160	0.148000	0.261200	0.484100
H1611	H161	0.080800	0.830300	0.036700
H1621	H162	0.058200	0.727700	0.031800
H1631	H163	0.122400	0.716200	0.031800
H1641	H164	0.229500	0.798500	0.037400
H1651	H165	0.239900	0.857000	0.040900
H1661	H166	0.136500	0.872200	0.040100
H1671	H167	0.172900	0.722300	0.988800
H1681	H168	0.212500	0.681200	0.984700
H1691	H169	0.259200	0.710500	0.065900
H1701	H170	0.218700	0.754000	0.075000
H1711	H171	0.217800	0.622800	0.032500
H1721	H172	0.228200	0.568100	0.037000
H1731	H173	0.328300	0.581400	0.011000
H1741	H174	0.367900	0.639400	0.993400
H1751	H175	0.299600	0.733700	0.997900
H1761	H176	0.352000	0.738800	0.984100
H1771	H177	0.919200	0.330300	0.463300
H1781	H178	0.941800	0.227700	0.468200
H1791	H179	0.877600	0.216200	0.468200
H1801	H180	0.770500	0.298500	0.462600
H1811	H181	0.760100	0.357000	0.459100
H1821	H182	0.863500	0.372200	0.459900
H1831	H183	0.827100	0.222300	0.511200
H1841	H184	0.787500	0.181200	0.515300
H1851	H185	0.740800	0.210500	0.434100
H1861	H186	0.781300	0.254000	0.425000
H1871	H187	0.782200	0.122800	0.467500
H1881	H188	0.771800	0.068100	0.463000
H1891	H189	0.671700	0.081400	0.489000
H1901	H190	0.632100	0.139400	0.506600
H1911	H191	0.700400	0.233700	0.502100
H1921	H192	0.648000	0.238800	0.515900
H1931	H193	0.036700	0.419200	0.330300
H1941	H194	0.031800	0.441800	0.227700
H1951	H195	0.031800	0.377600	0.216200
H1961	H196	0.037400	0.270500	0.298500
H1971	H197	0.040900	0.260100	0.357000
H1981	H198	0.040100	0.363500	0.372200
H1991	H199	0.988800	0.327100	0.222300
H2001	H200	0.984700	0.287500	0.181200
H2011	H201	0.065900	0.240800	0.210500
H2021	H202	0.075000	0.281300	0.254000
H2031	H203	0.032500	0.282200	0.122800
H2041	H204	0.037000	0.271800	0.068100
H2051	H205	0.011000	0.171700	0.081400
H2061	H206	0.993400	0.132100	0.139400
H2071	H207	0.997900	0.200400	0.233700
H2081	H208	0.984100	0.148000	0.238800
H2091	H209	0.463300	0.580800	0.830300
H2101	H210	0.468200	0.558200	0.727700
H2111	H211	0.468200	0.622400	0.716200
H2121	H212	0.462600	0.729500	0.798500
H2131	H213	0.459100	0.739900	0.857000
H2141	H214	0.459900	0.636500	0.872200
H2151	H215	0.511200	0.672900	0.722300
H2161	H216	0.515300	0.712500	0.681200
H2171	H217	0.434100	0.759200	0.710500
H2181	H218	0.425000	0.718700	0.754000
H2191	H219	0.467500	0.717800	0.622800
H2201	H220	0.463000	0.728200	0.568100
H2211	H221	0.489000	0.828300	0.581400
H2221	H222	0.506600	0.867900	0.639400
H2231	H223	0.502100	0.799600	0.733700
H2241	H224	0.515900	0.852000	0.738800
H2251	H225	0.963300	0.919200	0.169700
H2261	H226	0.968200	0.941800	0.272300
H2271	H227	0.968200	0.877600	0.283800
H2281	H228	0.962600	0.770500	0.201500
H2291	H229	0.959100	0.760100	0.143000
H2301	H230	0.959900	0.863500	0.127800
H2311	H231	0.011200	0.827100	0.277700
H2321	H232	0.015300	0.787500	0.318800
H2331	H233	0.934100	0.740800	0.289500
H2341	H234	0.925000	0.781300	0.246000
H2351	H235	0.967500	0.782200	0.377200
H2361	H236	0.963000	0.771800	0.431900
H2371	H237	0.989000	0.671700	0.418600
H2381	H238	0.006600	0.632100	0.360600
H2391	H239	0.002100	0.700400	0.266300
H2401	H240	0.015900	0.648000	0.261200
H2411	H241	0.536700	0.080800	0.669700
H2421	H242	0.531800	0.058200	0.772300
H2431	H243	0.531800	0.122400	0.783800
H2441	H244	0.537400	0.229500	0.701500
H2451	H245	0.540900	0.239900	0.643000
H2461	H246	0.540100	0.136500	0.627800
H2471	H247	0.488800	0.172900	0.777700
H2481	H248	0.484700	0.212500	0.818800
H2491	H249	0.565900	0.259200	0.789500
H2501	H250	0.575000	0.218700	0.746000
H2511	H251	0.532500	0.217800	0.877200
H2521	H252	0.537000	0.228200	0.931900
H2531	H253	0.511000	0.328300	0.918600
H2541	H254	0.493400	0.367900	0.860600
H2551	H255	0.497900	0.299600	0.766300
H2561	H256	0.484100	0.352000	0.761200
H2571	H257	0.330300	0.036700	0.419200
H2581	H258	0.227700	0.031800	0.441800
H2591	H259	0.216200	0.031800	0.377600
H2601	H260	0.298500	0.037400	0.270500
H2611	H261	0.357000	0.040900	0.260100
H2621	H262	0.372200	0.040100	0.363500
H2631	H263	0.222300	0.988800	0.327100
H2641	H264	0.181200	0.984700	0.287500
H2651	H265	0.210500	0.065900	0.240800
H2661	H266	0.254000	0.075000	0.281300
H2671	H267	0.122800	0.032500	0.282200
H2681	H268	0.068100	0.037000	0.271800
H2691	H269	0.081400	0.011000	0.171700
H2701	H270	0.139400	0.993400	0.132100
H2711	H271	0.233700	0.997900	0.200400
H2721	H272	0.238800	0.984100	0.148000
H2731	H273	0.830300	0.463300	0.580800
H2741	H274	0.727700	0.468200	0.558200
H2751	H275	0.716200	0.468200	0.622400
H2761	H276	0.798500	0.462600	0.729500
H2771	H277	0.857000	0.459100	0.739900
H2781	H278	0.872200	0.459900	0.636500
H2791	H279	0.722300	0.511200	0.672900
H2801	H280	0.681200	0.515300	0.712500
H2811	H281	0.710500	0.434100	0.759200
H2821	H282	0.754000	0.425000	0.718700
H2831	H283	0.622800	0.467500	0.717800
H2841	H284	0.568100	0.463000	0.728200
H2851	H285	0.581400	0.489000	0.828300
H2861	H286	0.639400	0.506600	0.867900
H2871	H287	0.733700	0.502100	0.799600
H2881	H288	0.738800	0.515900	0.852000
H2891	H289	0.169700	0.963300	0.919200
H2901	H290	0.272300	0.968200	0.941800
H2911	H291	0.283800	0.968200	0.877600
H2921	H292	0.201500	0.962600	0.770500
H2931	H293	0.143000	0.959100	0.760100
H2941	H294	0.127800	0.959900	0.863500
H2951	H295	0.277700	0.011200	0.827100
H2961	H296	0.318800	0.015300	0.787500
H2971	H297	0.289500	0.934100	0.740800
H2981	H298	0.246000	0.925000	0.781300
H2991	H299	0.377200	0.967500	0.782200
H3001	H300	0.431900	0.963000	0.771800
H3011	H301	0.418600	0.989000	0.671700
H3021	H302	0.360600	0.006600	0.632100
H3031	H303	0.266300	0.002100	0.700400
H3041	H304	0.261200	0.015900	0.648000
H3051	H305	0.669700	0.536700	0.080800
H3061	H306	0.772300	0.531800	0.058200
H3071	H307	0.783800	0.531800	0.122400
H3081	H308	0.701500	0.537400	0.229500
H3091	H309	0.643000	0.540900	0.239900
H3101	H310	0.627800	0.540100	0.136500
H3111	H311	0.777700	0.488800	0.172900
H3121	H312	0.818800	0.484700	0.212500
H3131	H313	0.789500	0.565900	0.259200
H3141	H314	0.746000	0.575000	0.218700
H3151	H315	0.877200	0.532500	0.217800
H3161	H316	0.931900	0.537000	0.228200
H3171	H317	0.918600	0.511000	0.328300
H3181	H318	0.860600	0.493400	0.367900
H3191	H319	0.766300	0.497900	0.299600
H3201	H320	0.761200	0.484100	0.352000
H3211	H321	0.419200	0.330300	0.036700
H3221	H322	0.441800	0.227700	0.031800
H3231	H323	0.377600	0.216200	0.031800
H3241	H324	0.270500	0.298500	0.037400
H3251	H325	0.260100	0.357000	0.040900
H3261	H326	0.363500	0.372200	0.040100
H3271	H327	0.327100	0.222300	0.988800
H3281	H328	0.287500	0.181200	0.984700
H3291	H329	0.240800	0.210500	0.065900
H3301	H330	0.281300	0.254000	0.075000
H3311	H331	0.282200	0.122800	0.032500
H3321	H332	0.271800	0.068100	0.037000
H3331	H333	0.171700	0.081400	0.011000
H3341	H334	0.132100	0.139400	0.993400
H3351	H335	0.200400	0.233700	0.997900
H3361	H336	0.148000	0.238800	0.984100
H3371	H337	0.580800	0.830300	0.463300
H3381	H338	0.558200	0.727700	0.468200
H3391	H339	0.622400	0.716200	0.468200
H3401	H340	0.729500	0.798500	0.462600
H3411	H341	0.739900	0.857000	0.459100
H3421	H342	0.636500	0.872200	0.459900
H3431	H343	0.672900	0.722300	0.511200
H3441	H344	0.712500	0.681200	0.515300
H3451	H345	0.759200	0.710500	0.434100
H3461	H346	0.718700	0.754000	0.425000
H3471	H347	0.717800	0.622800	0.467500
H3481	H348	0.728200	0.568100	0.463000
H3491	H349	0.828300	0.581400	0.489000
H3501	H350	0.867900	0.639400	0.506600
H3511	H351	0.799600	0.733700	0.502100
H3521	H352	0.852000	0.738800	0.515900
H3531	H353	0.919200	0.169700	0.963300
H3541	H354	0.941800	0.272300	0.968200
H3551	H355	0.877600	0.283800	0.968200
H3561	H356	0.770500	0.201500	0.962600
H3571	H357	0.760100	0.143000	0.959100
H3581	H358	0.863500	0.127800	0.959900
H3591	H359	0.827100	0.277700	0.011200
H3601	H360	0.787500	0.318800	0.015300
H3611	H361	0.740800	0.289500	0.934100
H3621	H362	0.781300	0.246000	0.925000
H3631	H363	0.782200	0.377200	0.967500
H3641	H364	0.771800	0.431900	0.963000
H3651	H365	0.671700	0.418600	0.989000
H3661	H366	0.632100	0.360600	0.006600
H3671	H367	0.700400	0.266300	0.002100
H3681	H368	0.648000	0.261200	0.015900
H3691	H369	0.080800	0.669700	0.536700
H3701	H370	0.058200	0.772300	0.531800
H3711	H371	0.122400	0.783800	0.531800
H3721	H372	0.229500	0.701500	0.537400
H3731	H373	0.239900	0.643000	0.540900
H3741	H374	0.136500	0.627800	0.540100
H3751	H375	0.172900	0.777700	0.488800
H3761	H376	0.212500	0.818800	0.484700
H3771	H377	0.259200	0.789500	0.565900
H3781	H378	0.218700	0.746000	0.575000
H3791	H379	0.217800	0.877200	0.532500
H3801	H380	0.228200	0.931900	0.537000
H3811	H381	0.328300	0.918600	0.511000
H3821	H382	0.367900	0.860600	0.493400
H3831	H383	0.299600	0.766300	0.497900
H3841	H384	0.352000	0.761200	0.484100
C11	C1	0.966490	0.528100	0.714890
C21	C2	0.964220	0.588390	0.692540
C31	C3	0.965950	0.563340	0.719150
C41	C4	0.967300	0.574190	0.754390
C51	C5	0.967150	0.613000	0.761600
C61	C6	0.965210	0.633700	0.730200
C71	C7	0.963840	0.620290	0.698260
C81	C8	0.962110	0.648170	0.677390
C91	C9	0.962370	0.679870	0.699190
C101	C10	0.961720	0.710800	0.686300
C111	C11	0.959850	0.717500	0.651800
C121	C12	0.959170	0.688300	0.630360
C131	C13	0.960350	0.654880	0.643220
C141	C14	0.957680	0.692650	0.592720
C151	C15	0.968680	0.690510	0.756400
C161	C16	0.994500	0.690200	0.779000
C171	C17	0.996700	0.714400	0.803600
C181	C18	0.977290	0.738580	0.808590
C191	C19	0.949690	0.741010	0.786700
C201	C20	0.944200	0.717200	0.760400
C211	C21	0.988140	0.800870	0.875000
C221	C22	0.982050	0.769000	0.862600
C231	C23	0.971800	0.739840	0.885970
C241	C24	0.969230	0.745840	0.916800
C251	C25	0.975670	0.779490	0.929910
C261	C26	0.984950	0.806490	0.909240
C271	C27	0.971520	0.785690	0.968060
C281	C28	0.005550	0.853290	0.841520
C291	C29	0.996410	0.819880	0.848120
C301	C30	0.995170	0.797500	0.817500
C311	C31	0.002980	0.813090	0.786190
C321	C32	0.010960	0.843780	0.783240
C331	C33	0.013120	0.867630	0.811400
C341	C34	0.021620	0.900840	0.807110
C351	C35	0.533510	0.471900	0.214890
C361	C36	0.535780	0.411610	0.192540
C371	C37	0.534050	0.436660	0.219150
C381	C38	0.532700	0.425810	0.254390
C391	C39	0.532850	0.387000	0.261600
C401	C40	0.534790	0.366300	0.230200
C411	C41	0.536160	0.379710	0.198260
C421	C42	0.537890	0.351830	0.177390
C431	C43	0.537630	0.320130	0.199190
C441	C44	0.538280	0.289200	0.186300
C451	C45	0.540150	0.282500	0.151800
C461	C46	0.540830	0.311700	0.130360
C471	C47	0.539650	0.345120	0.143220
C481	C48	0.542320	0.307350	0.092720
C491	C49	0.531320	0.309490	0.256400
C501	C50	0.505500	0.309800	0.279000
C511	C51	0.503300	0.285600	0.303600
C521	C52	0.522710	0.261420	0.308590
C531	C53	0.550310	0.258990	0.286700
C541	C54	0.555800	0.282800	0.260400
C551	C55	0.511860	0.199130	0.375000
C561	C56	0.517950	0.231000	0.362600
C571	C57	0.528200	0.260160	0.385970
C581	C58	0.530770	0.254160	0.416800
C591	C59	0.524330	0.220510	0.429910
C601	C60	0.515050	0.193510	0.409240
C611	C61	0.528480	0.214310	0.468060
C621	C62	0.494450	0.146710	0.341520
C631	C63	0.503590	0.180120	0.348120
C641	C64	0.504830	0.202500	0.317500
C651	C65	0.497020	0.186910	0.286190
C661	C66	0.489040	0.156220	0.283240
C671	C67	0.486880	0.132370	0.311400
C681	C68	0.478380	0.099160	0.307110
C691	C69	0.033510	0.028100	0.785110
C701	C70	0.035780	0.088390	0.807460
C711	C71	0.034050	0.063340	0.780850
C721	C72	0.032700	0.074190	0.745610
C731	C73	0.032850	0.113000	0.738400
C741	C74	0.034790	0.133700	0.769800
C751	C75	0.036160	0.120290	0.801740
C761	C76	0.037890	0.148170	0.822610
C771	C77	0.037630	0.179870	0.800810
C781	C78	0.038280	0.210800	0.813700
C791	C79	0.040150	0.217500	0.848200
C801	C80	0.040830	0.188300	0.869640
C811	C81	0.039650	0.154880	0.856780
C821	C82	0.042320	0.192650	0.907280
C831	C83	0.031320	0.190510	0.743600
C841	C84	0.005500	0.190200	0.721000
C851	C85	0.003300	0.214400	0.696400
C861	C86	0.022710	0.238580	0.691410
C871	C87	0.050310	0.241010	0.713300
C881	C88	0.055800	0.217200	0.739600
C891	C89	0.011860	0.300870	0.625000
C901	C90	0.017950	0.269000	0.637400
C911	C91	0.028200	0.239840	0.614030
C921	C92	0.030770	0.245840	0.583200
C931	C93	0.024330	0.279490	0.570090
C941	C94	0.015050	0.306490	0.590760
C951	C95	0.028480	0.285690	0.531940
C961	C96	0.994450	0.353290	0.658480
C971	C97	0.003590	0.319880	0.651880
C981	C98	0.004830	0.297500	0.682500
C991	C99	0.997020	0.313090	0.713810
C1001	C100	0.989040	0.343780	0.716760
C1011	C101	0.986880	0.367630	0.688600
C1021	C102	0.978380	0.400840	0.692890
C1031	C103	0.466490	0.971900	0.285110
C1041	C104	0.464220	0.911610	0.307460
C1051	C105	0.465950	0.936660	0.280850
C1061	C106	0.467300	0.925810	0.245610
C1071	C107	0.467150	0.887000	0.238400
C1081	C108	0.465210	0.866300	0.269800
C1091	C109	0.463840	0.879710	0.301740
C1101	C110	0.462110	0.851830	0.322610
C1111	C111	0.462370	0.820130	0.300810
C1121	C112	0.461720	0.789200	0.313700
C1131	C113	0.459850	0.782500	0.348200
C1141	C114	0.459170	0.811700	0.369640
C1151	C115	0.460350	0.845120	0.356780
C1161	C116	0.457680	0.807350	0.407280
C1171	C117	0.468680	0.809490	0.243600
C1181	C118	0.494500	0.809800	0.221000
C1191	C119	0.496700	0.785600	0.196400
C1201	C120	0.477290	0.761420	0.191410
C1211	C121	0.449690	0.758990	0.213300
C1221	C122	0.444200	0.782800	0.239600
C1231	C123	0.488140	0.699130	0.125000
C1241	C124	0.482050	0.731000	0.137400
C1251	C125	0.471800	0.760160	0.114030
C1261	C126	0.469230	0.754160	0.083200
C1271	C127	0.475670	0.720510	0.070090
C1281	C128	0.484950	0.693510	0.090760
C1291	C129	0.471520	0.714310	0.031940
C1301	C130	0.505550	0.646710	0.158480
C1311	C131	0.496410	0.680120	0.151880
C1321	C132	0.495170	0.702500	0.182500
C1331	C133	0.502980	0.686910	0.213810
C1341	C134	0.510960	0.656220	0.216760
C1351	C135	0.513120	0.632370	0.188600
C1361	C136	0.521620	0.599160	0.192890
C1371	C137	0.714890	0.966490	0.528100
C1381	C138	0.692540	0.964220	0.588390
C1391	C139	0.719150	0.965950	0.563340
C1401	C140	0.754390	0.967300	0.574190
C1411	C141	0.761600	0.967150	0.613000
C1421	C142	0.730200	0.965210	0.633700
C1431	C143	0.698260	0.963840	0.620290
C1441	C144	0.677390	0.962110	0.648170
C1451	C145	0.699190	0.962370	0.679870
C1461	C146	0.686300	0.961720	0.710800
C1471	C147	0.651800	0.959850	0.717500
C1481	C148	0.630360	0.959170	0.688300
C1491	C149	0.643220	0.960350	0.654880
C1501	C150	0.592720	0.957680	0.692650
C1511	C151	0.756400	0.968680	0.690510
C1521	C152	0.779000	0.994500	0.690200
C1531	C153	0.803600	0.996700	0.714400
C1541	C154	0.808590	0.977290	0.738580
C1551	C155	0.786700	0.949690	0.741010
C1561	C156	0.760400	0.944200	0.717200
C1571	C157	0.875000	0.988140	0.800870
C1581	C158	0.862600	0.982050	0.769000
C1591	C159	0.885970	0.971800	0.739840
C1601	C160	0.916800	0.969230	0.745840
C1611	C161	0.929910	0.975670	0.779490
C1621	C162	0.909240	0.984950	0.806490
C1631	C163	0.968060	0.971520	0.785690
C1641	C164	0.841520	0.005550	0.853290
C1651	C165	0.848120	0.996410	0.819880
C1661	C166	0.817500	0.995170	0.797500
C1671	C167	0.786190	0.002980	0.813090
C1681	C168	0.783240	0.010960	0.843780
C1691	C169	0.811400	0.013120	0.867630
C1701	C170	0.807110	0.021620	0.900840
C1711	C171	0.214890	0.533510	0.471900
C1721	C172	0.192540	0.535780	0.411610
C1731	C173	0.219150	0.534050	0.436660
C1741	C174	0.254390	0.532700	0.425810
C1751	C175	0.261600	0.532850	0.387000
C1761	C176	0.230200	0.534790	0.366300
C1771	C177	0.198260	0.536160	0.379710
C1781	C178	0.177390	0.537890	0.351830
C1791	C179	0.199190	0.537630	0.320130
C1801	C180	0.186300	0.538280	0.289200
C1811	C181	0.151800	0.540150	0.282500
C1821	C182	0.130360	0.540830	0.311700
C1831	C183	0.143220	0.539650	0.345120
C1841	C184	0.092720	0.542320	0.307350
C1851	C185	0.256400	0.531320	0.309490
C1861	C186	0.279000	0.505500	0.309800
C1871	C187	0.303600	0.503300	0.285600
C1881	C188	0.308590	0.522710	0.261420
C1891	C189	0.286700	0.550310	0.258990
C1901	C190	0.260400	0.555800	0.282800
C1911	C191	0.375000	0.511860	0.199130
C1921	C192	0.362600	0.517950	0.231000
C1931	C193	0.385970	0.528200	0.260160
C1941	C194	0.416800	0.530770	0.254160
C1951	C195	0.429910	0.524330	0.220510
C1961	C196	0.409240	0.515050	0.193510
C1971	C197	0.468060	0.528480	0.214310
C1981	C198	0.341520	0.494450	0.146710
C1991	C199	0.348120	0.503590	0.180120
C2001	C200	0.317500	0.504830	0.202500
C2011	C201	0.286190	0.497020	0.186910
C2021	C202	0.283240	0.489040	0.156220
C2031	C203	0.311400	0.486880	0.132370
C2041	C204	0.307110	0.478380	0.099160
C2051	C205	0.785110	0.033510	0.028100
C2061	C206	0.807460	0.035780	0.088390
C2071	C207	0.780850	0.034050	0.063340
C2081	C208	0.745610	0.032700	0.074190
C2091	C209	0.738400	0.032850	0.113000
C2101	C210	0.769800	0.034790	0.133700
C2111	C211	0.801740	0.036160	0.120290
C2121	C212	0.822610	0.037890	0.148170
C2131	C213	0.800810	0.037630	0.179870
C2141	C214	0.813700	0.038280	0.210800
C2151	C215	0.848200	0.040150	0.217500
C2161	C216	0.869640	0.040830	0.188300
C2171	C217	0.856780	0.039650	0.154880
C2181	C218	0.907280	0.042320	0.192650
C2191	C219	0.743600	0.031320	0.190510
C2201	C220	0.721000	0.005500	0.190200
C2211	C221	0.696400	0.003300	0.214400
C2221	C222	0.691410	0.022710	0.238580
C2231	C223	0.713300	0.050310	0.241010
C2241	C224	0.739600	0.055800	0.217200
C2251	C225	0.625000	0.011860	0.300870
C2261	C226	0.637400	0.017950	0.269000
C2271	C227	0.614030	0.028200	0.239840
C2281	C228	0.583200	0.030770	0.245840
C2291	C229	0.570090	0.024330	0.279490
C2301	C230	0.590760	0.015050	0.306490
C2311	C231	0.531940	0.028480	0.285690
C2321	C232	0.658480	0.994450	0.353290
C2331	C233	0.651880	0.003590	0.319880
C2341	C234	0.682500	0.004830	0.297500
C2351	C235	0.713810	0.997020	0.313090
C2361	C236	0.716760	0.989040	0.343780
C2371	C237	0.688600	0.986880	0.367630
C2381	C238	0.692890	0.978380	0.400840
C2391	C239	0.285110	0.466490	0.971900
C2401	C240	0.307460	0.464220	0.911610
C2411	C241	0.280850	0.465950	0.936660
C2421	C242	0.245610	0.467300	0.925810
C2431	C243	0.238400	0.467150	0.887000
C2441	C244	0.269800	0.465210	0.866300
C2451	C245	0.301740	0.463840	0.879710
C2461	C246	0.322610	0.462110	0.851830
C2471	C247	0.300810	0.462370	0.820130
C2481	C248	0.313700	0.461720	0.789200
C2491	C249	0.348200	0.459850	0.782500
C2501	C250	0.369640	0.459170	0.811700
C2511	C251	0.356780	0.460350	0.845120
C2521	C252	0.407280	0.457680	0.807350
C2531	C253	0.243600	0.468680	0.809490
C2541	C254	0.221000	0.494500	0.809800
C2551	C255	0.196400	0.496700	0.785600
C2561	C256	0.191410	0.477290	0.761420
C2571	C257	0.213300	0.449690	0.758990
C2581	C258	0.239600	0.444200	0.782800
C2591	C259	0.125000	0.488140	0.699130
C2601	C260	0.137400	0.482050	0.731000
C2611	C261	0.114030	0.471800	0.760160
C2621	C262	0.083200	0.469230	0.754160
C2631	C263	0.070090	0.475670	0.720510
C2641	C264	0.090760	0.484950	0.693510
C2651	C265	0.031940	0.471520	0.714310
C2661	C266	0.158480	0.505550	0.646710
C2671	C267	0.151880	0.496410	0.680120
C2681	C268	0.182500	0.495170	0.702500
C2691	C269	0.213810	0.502980	0.686910
C2701	C270	0.216760	0.510960	0.656220
C2711	C271	0.188600	0.513120	0.632370
C2721	C272	0.192890	0.521620	0.599160
C2731	C273	0.528100	0.714890	0.966490
C2741	C274	0.588390	0.692540	0.964220
C2751	C275	0.563340	0.719150	0.965950
C2761	C276	0.574190	0.754390	0.967300
C2771	C277	0.613000	0.761600	0.967150
C2781	C278	0.633700	0.730200	0.965210
C2791	C279	0.620290	0.698260	0.963840
C2801	C280	0.648170	0.677390	0.962110
C2811	C281	0.679870	0.699190	0.962370
C2821	C282	0.710800	0.686300	0.961720
C2831	C283	0.717500	0.651800	0.959850
C2841	C284	0.688300	0.630360	0.959170
C2851	C285	0.654880	0.643220	0.960350
C2861	C286	0.692650	0.592720	0.957680
C2871	C287	0.690510	0.756400	0.968680
C2881	C288	0.690200	0.779000	0.994500
C2891	C289	0.714400	0.803600	0.996700
C2901	C290	0.738580	0.808590	0.977290
C2911	C291	0.741010	0.786700	0.949690
C2921	C292	0.717200	0.760400	0.944200
C2931	C293	0.800870	0.875000	0.988140
C2941	C294	0.769000	0.862600	0.982050
C2951	C295	0.739840	0.885970	0.971800
C2961	C296	0.745840	0.916800	0.969230
C2971	C297	0.779490	0.929910	0.975670
C2981	C298	0.806490	0.909240	0.984950
C2991	C299	0.785690	0.968060	0.971520
C3001	C300	0.853290	0.841520	0.005550
C3011	C301	0.819880	0.848120	0.996410
C3021	C302	0.797500	0.817500	0.995170
C3031	C303	0.813090	0.786190	0.002980
C3041	C304	0.843780	0.783240	0.010960
C3051	C305	0.867630	0.811400	0.013120
C3061	C306	0.900840	0.807110	0.021620
C3071	C307	0.471900	0.214890	0.533510
C3081	C308	0.411610	0.192540	0.535780
C3091	C309	0.436660	0.219150	0.534050
C3101	C310	0.425810	0.254390	0.532700
C3111	C311	0.387000	0.261600	0.532850
C3121	C312	0.366300	0.230200	0.534790
C3131	C313	0.379710	0.198260	0.536160
C3141	C314	0.351830	0.177390	0.537890
C3151	C315	0.320130	0.199190	0.537630
C3161	C316	0.289200	0.186300	0.538280
C3171	C317	0.282500	0.151800	0.540150
C3181	C318	0.311700	0.130360	0.540830
C3191	C319	0.345120	0.143220	0.539650
C3201	C320	0.307350	0.092720	0.542320
C3211	C321	0.309490	0.256400	0.531320
C3221	C322	0.309800	0.279000	0.505500
C3231	C323	0.285600	0.303600	0.503300
C3241	C324	0.261420	0.308590	0.522710
C3251	C325	0.258990	0.286700	0.550310
C3261	C326	0.282800	0.260400	0.555800
C3271	C327	0.199130	0.375000	0.511860
C3281	C328	0.231000	0.362600	0.517950
C3291	C329	0.260160	0.385970	0.528200
C3301	C330	0.254160	0.416800	0.530770
C3311	C331	0.220510	0.429910	0.524330
C3321	C332	0.193510	0.409240	0.515050
C3331	C333	0.214310	0.468060	0.528480
C3341	C334	0.146710	0.341520	0.494450
C3351	C335	0.180120	0.348120	0.503590
C3361	C336	0.202500	0.317500	0.504830
C3371	C337	0.186910	0.286190	0.497020
C3381	C338	0.156220	0.283240	0.489040
C3391	C339	0.132370	0.311400	0.486880
C3401	C340	0.099160	0.307110	0.478380
C3411	C341	0.028100	0.785110	0.033510
C3421	C342	0.088390	0.807460	0.035780
C3431	C343	0.063340	0.780850	0.034050
C3441	C344	0.074190	0.745610	0.032700
C3451	C345	0.113000	0.738400	0.032850
C3461	C346	0.133700	0.769800	0.034790
C3471	C347	0.120290	0.801740	0.036160
C3481	C348	0.148170	0.822610	0.037890
C3491	C349	0.179870	0.800810	0.037630
C3501	C350	0.210800	0.813700	0.038280
C3511	C351	0.217500	0.848200	0.040150
C3521	C352	0.188300	0.869640	0.040830
C3531	C353	0.154880	0.856780	0.039650
C3541	C354	0.192650	0.907280	0.042320
C3551	C355	0.190510	0.743600	0.031320
C3561	C356	0.190200	0.721000	0.005500
C3571	C357	0.214400	0.696400	0.003300
C3581	C358	0.238580	0.691410	0.022710
C3591	C359	0.241010	0.713300	0.050310
C3601	C360	0.217200	0.739600	0.055800
C3611	C361	0.300870	0.625000	0.011860
C3621	C362	0.269000	0.637400	0.017950
C3631	C363	0.239840	0.614030	0.028200
C3641	C364	0.245840	0.583200	0.030770
C3651	C365	0.279490	0.570090	0.024330
C3661	C366	0.306490	0.590760	0.015050
C3671	C367	0.285690	0.531940	0.028480
C3681	C368	0.353290	0.658480	0.994450
C3691	C369	0.319880	0.651880	0.003590
C3701	C370	0.297500	0.682500	0.004830
C3711	C371	0.313090	0.713810	0.997020
C3721	C372	0.343780	0.716760	0.989040
C3731	C373	0.367630	0.688600	0.986880
C3741	C374	0.400840	0.692890	0.978380
C3751	C375	0.971900	0.285110	0.466490
C3761	C376	0.911610	0.307460	0.464220
C3771	C377	0.936660	0.280850	0.465950
C3781	C378	0.925810	0.245610	0.467300
C3791	C379	0.887000	0.238400	0.467150
C3801	C380	0.866300	0.269800	0.465210
C3811	C381	0.879710	0.301740	0.463840
C3821	C382	0.851830	0.322610	0.462110
C3831	C383	0.820130	0.300810	0.462370
C3841	C384	0.789200	0.313700	0.461720
C3851	C385	0.782500	0.348200	0.459850
C3861	C386	0.811700	0.369640	0.459170
C3871	C387	0.845120	0.356780	0.460350
C3881	C388	0.807350	0.407280	0.457680
C3891	C389	0.809490	0.243600	0.468680
C3901	C390	0.809800	0.221000	0.494500
C3911	C391	0.785600	0.196400	0.496700
C3921	C392	0.761420	0.191410	0.477290
C3931	C393	0.758990	0.213300	0.449690
C3941	C394	0.782800	0.239600	0.444200
C3951	C395	0.699130	0.125000	0.488140
C3961	C396	0.731000	0.137400	0.482050
C3971	C397	0.760160	0.114030	0.471800
C3981	C398	0.754160	0.083200	0.469230
C3991	C399	0.720510	0.070090	0.475670
C4001	C400	0.693510	0.090760	0.484950
C4011	C401	0.714310	0.031940	0.471520
C4021	C402	0.646710	0.158480	0.505550
C4031	C403	0.680120	0.151880	0.496410
C4041	C404	0.702500	0.182500	0.495170
C4051	C405	0.686910	0.213810	0.502980
C4061	C406	0.656220	0.216760	0.510960
C4071	C407	0.632370	0.188600	0.513120
C4081	C408	0.599160	0.192890	0.521620
C4091	C409	0.033510	0.471900	0.285110
C4101	C410	0.035780	0.411610	0.307460
C4111	C411	0.034050	0.436660	0.280850
C4121	C412	0.032700	0.425810	0.245610
C4131	C413	0.032850	0.387000	0.238400
C4141	C414	0.034790	0.366300	0.269800
C4151	C415	0.036160	0.379710	0.301740
C4161	C416	0.037890	0.351830	0.322610
C4171	C417	0.037630	0.320130	0.300810
C4181	C418	0.038280	0.289200	0.313700
C4191	C419	0.040150	0.282500	0.348200
C4201	C420	0.040830	0.311700	0.369640
C4211	C421	0.039650	0.345120	0.356780
C4221	C422	0.042320	0.307350	0.407280
C4231	C423	0.031320	0.309490	0.243600
C4241	C424	0.005500	0.309800	0.221000
C4251	C425	0.003300	0.285600	0.196400
C4261	C426	0.022710	0.261420	0.191410
C4271	C427	0.050310	0.258990	0.213300
C4281	C428	0.055800	0.282800	0.239600
C4291	C429	0.011860	0.199130	0.125000
C4301	C430	0.017950	0.231000	0.137400
C4311	C431	0.028200	0.260160	0.114030
C4321	C432	0.030770	0.254160	0.083200
C4331	C433	0.024330	0.220510	0.070090
C4341	C434	0.015050	0.193510	0.090760
C4351	C435	0.028480	0.214310	0.031940
C4361	C436	0.994450	0.146710	0.158480
C4371	C437	0.003590	0.180120	0.151880
C4381	C438	0.004830	0.202500	0.182500
C4391	C439	0.997020	0.186910	0.213810
C4401	C440	0.989040	0.156220	0.216760
C4411	C441	0.986880	0.132370	0.188600
C4421	C442	0.978380	0.099160	0.192890
C4431	C443	0.466490	0.528100	0.785110
C4441	C444	0.464220	0.588390	0.807460
C4451	C445	0.465950	0.563340	0.780850
C4461	C446	0.467300	0.574190	0.745610
C4471	C447	0.467150	0.613000	0.738400
C4481	C448	0.465210	0.633700	0.769800
C4491	C449	0.463840	0.620290	0.801740
C4501	C450	0.462110	0.648170	0.822610
C4511	C451	0.462370	0.679870	0.800810
C4521	C452	0.461720	0.710800	0.813700
C4531	C453	0.459850	0.717500	0.848200
C4541	C454	0.459170	0.688300	0.869640
C4551	C455	0.460350	0.654880	0.856780
C4561	C456	0.457680	0.692650	0.907280
C4571	C457	0.468680	0.690510	0.743600
C4581	C458	0.494500	0.690200	0.721000
C4591	C459	0.496700	0.714400	0.696400
C4601	C460	0.477290	0.738580	0.691410
C4611	C461	0.449690	0.741010	0.713300
C4621	C462	0.444200	0.717200	0.739600
C4631	C463	0.488140	0.800870	0.625000
C4641	C464	0.482050	0.769000	0.637400
C4651	C465	0.471800	0.739840	0.614030
C4661	C466	0.469230	0.745840	0.583200
C4671	C467	0.475670	0.779490	0.570090
C4681	C468	0.484950	0.806490	0.590760
C4691	C469	0.471520	0.785690	0.531940
C4701	C470	0.505550	0.853290	0.658480
C4711	C471	0.496410	0.819880	0.651880
C4721	C472	0.495170	0.797500	0.682500
C4731	C473	0.502980	0.813090	0.713810
C4741	C474	0.510960	0.843780	0.716760
C4751	C475	0.513120	0.867630	0.688600
C4761	C476	0.521620	0.900840	0.692890
C4771	C477	0.966490	0.971900	0.214890
C4781	C478	0.964220	0.911610	0.192540
C4791	C479	0.965950	0.936660	0.219150
C4801	C480	0.967300	0.925810	0.254390
C4811	C481	0.967150	0.887000	0.261600
C4821	C482	0.965210	0.866300	0.230200
C4831	C483	0.963840	0.879710	0.198260
C4841	C484	0.962110	0.851830	0.177390
C4851	C485	0.962370	0.820130	0.199190
C4861	C486	0.961720	0.789200	0.186300
C4871	C487	0.959850	0.782500	0.151800
C4881	C488	0.959170	0.811700	0.130360
C4891	C489	0.960350	0.845120	0.143220
C4901	C490	0.957680	0.807350	0.092720
C4911	C491	0.968680	0.809490	0.256400
C4921	C492	0.994500	0.809800	0.279000
C4931	C493	0.996700	0.785600	0.303600
C4941	C494	0.977290	0.761420	0.308590
C4951	C495	0.949690	0.758990	0.286700
C4961	C496	0.944200	0.782800	0.260400
C4971	C497	0.988140	0.699130	0.375000
C4981	C498	0.982050	0.731000	0.362600
C4991	C499	0.971800	0.760160	0.385970
C5001	C500	0.969230	0.754160	0.416800
C5011	C501	0.975670	0.720510	0.429910
C5021	C502	0.984950	0.693510	0.409240
C5031	C503	0.971520	0.714310	0.468060
C5041	C504	0.005550	0.646710	0.341520
C5051	C505	0.996410	0.680120	0.348120
C5061	C506	0.995170	0.702500	0.317500
C5071	C507	0.002980	0.686910	0.286190
C5081	C508	0.010960	0.656220	0.283240
C5091	C509	0.013120	0.632370	0.311400
C5101	C510	0.021620	0.599160	0.307110
C5111	C511	0.533510	0.028100	0.714890
C5121	C512	0.535780	0.088390	0.692540
C5131	C513	0.534050	0.063340	0.719150
C5141	C514	0.532700	0.074190	0.754390
C5151	C515	0.532850	0.113000	0.761600
C5161	C516	0.534790	0.133700	0.730200
C5171	C517	0.536160	0.120290	0.698260
C5181	C518	0.537890	0.148170	0.677390
C5191	C519	0.537630	0.179870	0.699190
C5201	C520	0.538280	0.210800	0.686300
C5211	C521	0.540150	0.217500	0.651800
C5221	C522	0.540830	0.188300	0.630360
C5231	C523	0.539650	0.154880	0.643220
C5241	C524	0.542320	0.192650	0.592720
C5251	C525	0.531320	0.190510	0.756400
C5261	C526	0.505500	0.190200	0.779000
C5271	C527	0.503300	0.214400	0.803600
C5281	C528	0.522710	0.238580	0.808590
C5291	C529	0.550310	0.241010	0.786700
C5301	C530	0.555800	0.217200	0.760400
C5311	C531	0.511860	0.300870	0.875000
C5321	C532	0.517950	0.269000	0.862600
C5331	C533	0.528200	0.239840	0.885970
C5341	C534	0.530770	0.245840	0.916800
C5351	C535	0.524330	0.279490	0.929910
C5361	C536	0.515050	0.306490	0.909240
C5371	C537	0.528480	0.285690	0.968060
C5381	C538	0.494450	0.353290	0.841520
C5391	C539	0.503590	0.319880	0.848120
C5401	C540	0.504830	0.297500	0.817500
C5411	C541	0.497020	0.313090	0.786190
C5421	C542	0.489040	0.343780	0.783240
C5431	C543	0.486880	0.367630	0.811400
C5441	C544	0.478380	0.400840	0.807110
C5451	C545	0.285110	0.033510	0.471900
C5461	C546	0.307460	0.035780	0.411610
C5471	C547	0.280850	0.034050	0.436660
C5481	C548	0.245610	0.032700	0.425810
C5491	C549	0.238400	0.032850	0.387000
C5501	C550	0.269800	0.034790	0.366300
C5511	C551	0.301740	0.036160	0.379710
C5521	C552	0.322610	0.037890	0.351830
C5531	C553	0.300810	0.037630	0.320130
C5541	C554	0.313700	0.038280	0.289200
C5551	C555	0.348200	0.040150	0.282500
C5561	C556	0.369640	0.040830	0.311700
C5571	C557	0.356780	0.039650	0.345120
C5581	C558	0.407280	0.042320	0.307350
C5591	C559	0.243600	0.031320	0.309490
C5601	C560	0.221000	0.005500	0.309800
C5611	C561	0.196400	0.003300	0.285600
C5621	C562	0.191410	0.022710	0.261420
C5631	C563	0.213300	0.050310	0.258990
C5641	C564	0.239600	0.055800	0.282800
C5651	C565	0.125000	0.011860	0.199130
C5661	C566	0.137400	0.017950	0.231000
C5671	C567	0.114030	0.028200	0.260160
C5681	C568	0.083200	0.030770	0.254160
C5691	C569	0.070090	0.024330	0.220510
C5701	C570	0.090760	0.015050	0.193510
C5711	C571	0.031940	0.028480	0.214310
C5721	C572	0.158480	0.994450	0.146710
C5731	C573	0.151880	0.003590	0.180120
C5741	C574	0.182500	0.004830	0.202500
C5751	C575	0.213810	0.997020	0.186910
C5761	C576	0.216760	0.989040	0.156220
C5771	C577	0.188600	0.986880	0.132370
C5781	C578	0.192890	0.978380	0.099160
C5791	C579	0.785110	0.466490	0.528100
C5801	C580	0.807460	0.464220	0.588390
C5811	C581	0.780850	0.465950	0.563340
C5821	C582	0.745610	0.467300	0.574190
C5831	C583	0.738400	0.467150	0.613000
C5841	C584	0.769800	0.465210	0.633700
C5851	C585	0.801740	0.463840	0.620290
C5861	C586	0.822610	0.462110	0.648170
C5871	C587	0.800810	0.462370	0.679870
C5881	C588	0.813700	0.461720	0.710800
C5891	C589	0.848200	0.459850	0.717500
C5901	C590	0.869640	0.459170	0.688300
C5911	C591	0.856780	0.460350	0.654880
C5921	C592	0.907280	0.457680	0.692650
C5931	C593	0.743600	0.468680	0.690510
C5941	C594	0.721000	0.494500	0.690200
C5951	C595	0.696400	0.496700	0.714400
C5961	C596	0.691410	0.477290	0.738580
C5971	C597	0.713300	0.449690	0.741010
C5981	C598	0.739600	0.444200	0.717200
C5991	C599	0.625000	0.488140	0.800870
C6001	C600	0.637400	0.482050	0.769000
C6011	C601	0.614030	0.471800	0.739840
C6021	C602	0.583200	0.469230	0.745840
C6031	C603	0.570090	0.475670	0.779490
C6041	C604	0.590760	0.484950	0.806490
C6051	C605	0.531940	0.471520	0.785690
C6061	C606	0.658480	0.505550	0.853290
C6071	C607	0.651880	0.496410	0.819880
C6081	C608	0.682500	0.495170	0.797500
C6091	C609	0.713810	0.502980	0.813090
C6101	C610	0.716760	0.510960	0.843780
C6111	C611	0.688600	0.513120	0.867630
C6121	C612	0.692890	0.521620	0.900840
C6131	C613	0.214890	0.966490	0.971900
C6141	C614	0.192540	0.964220	0.911610
C6151	C615	0.219150	0.965950	0.936660
C6161	C616	0.254390	0.967300	0.925810
C6171	C617	0.261600	0.967150	0.887000
C6181	C618	0.230200	0.965210	0.866300
C6191	C619	0.198260	0.963840	0.879710
C6201	C620	0.177390	0.962110	0.851830
C6211	C621	0.199190	0.962370	0.820130
C6221	C622	0.186300	0.961720	0.789200
C6231	C623	0.151800	0.959850	0.782500
C6241	C624	0.130360	0.959170	0.811700
C6251	C625	0.143220	0.960350	0.845120
C6261	C626	0.092720	0.957680	0.807350
C6271	C627	0.256400	0.968680	0.809490
C6281	C628	0.279000	0.994500	0.809800
C6291	C629	0.303600	0.996700	0.785600
C6301	C630	0.308590	0.977290	0.761420
C6311	C631	0.286700	0.949690	0.758990
C6321	C632	0.260400	0.944200	0.782800
C6331	C633	0.375000	0.988140	0.699130
C6341	C634	0.362600	0.982050	0.731000
C6351	C635	0.385970	0.971800	0.760160
C6361	C636	0.416800	0.969230	0.754160
C6371	C637	0.429910	0.975670	0.720510
C6381	C638	0.409240	0.984950	0.693510
C6391	C639	0.468060	0.971520	0.714310
C6401	C640	0.341520	0.005550	0.646710
C6411	C641	0.348120	0.996410	0.680120
C6421	C642	0.317500	0.995170	0.702500
C6431	C643	0.286190	0.002980	0.686910
C6441	C644	0.283240	0.010960	0.656220
C6451	C645	0.311400	0.013120	0.632370
C6461	C646	0.307110	0.021620	0.599160
C6471	C647	0.714890	0.533510	0.028100
C6481	C648	0.692540	0.535780	0.088390
C6491	C649	0.719150	0.534050	0.063340
C6501	C650	0.754390	0.532700	0.074190
C6511	C651	0.761600	0.532850	0.113000
C6521	C652	0.730200	0.534790	0.133700
C6531	C653	0.698260	0.536160	0.120290
C6541	C654	0.677390	0.537890	0.148170
C6551	C655	0.699190	0.537630	0.179870
C6561	C656	0.686300	0.538280	0.210800
C6571	C657	0.651800	0.540150	0.217500
C6581	C658	0.630360	0.540830	0.188300
C6591	C659	0.643220	0.539650	0.154880
C6601	C660	0.592720	0.542320	0.192650
C6611	C661	0.756400	0.531320	0.190510
C6621	C662	0.779000	0.505500	0.190200
C6631	C663	0.803600	0.503300	0.214400
C6641	C664	0.808590	0.522710	0.238580
C6651	C665	0.786700	0.550310	0.241010
C6661	C666	0.760400	0.555800	0.217200
C6671	C667	0.875000	0.511860	0.300870
C6681	C668	0.862600	0.517950	0.269000
C6691	C669	0.885970	0.528200	0.239840
C6701	C670	0.916800	0.530770	0.245840
C6711	C671	0.929910	0.524330	0.279490
C6721	C672	0.909240	0.515050	0.306490
C6731	C673	0.968060	0.528480	0.285690
C6741	C674	0.841520	0.494450	0.353290
C6751	C675	0.848120	0.503590	0.319880
C6761	C676	0.817500	0.504830	0.297500
C6771	C677	0.786190	0.497020	0.313090
C6781	C678	0.783240	0.489040	0.343780
C6791	C679	0.811400	0.486880	0.367630
C6801	C680	0.807110	0.478380	0.400840
C6811	C681	0.471900	0.285110	0.033510
C6821	C682	0.411610	0.307460	0.035780
C6831	C683	0.436660	0.280850	0.034050
C6841	C684	0.425810	0.245610	0.032700
C6851	C685	0.387000	0.238400	0.032850
C6861	C686	0.366300	0.269800	0.034790
C6871	C687	0.379710	0.301740	0.036160
C6881	C688	0.351830	0.322610	0.037890
C6891	C689	0.320130	0.300810	0.037630
C6901	C690	0.289200	0.313700	0.038280
C6911	C691	0.282500	0.348200	0.040150
C6921	C692	0.311700	0.369640	0.040830
C6931	C693	0.345120	0.356780	0.039650
C6941	C694	0.307350	0.407280	0.042320
C6951	C695	0.309490	0.243600	0.031320
C6961	C696	0.309800	0.221000	0.005500
C6971	C697	0.285600	0.196400	0.003300
C6981	C698	0.261420	0.191410	0.022710
C6991	C699	0.258990	0.213300	0.050310
C7001	C700	0.282800	0.239600	0.055800
C7011	C701	0.199130	0.125000	0.011860
C7021	C702	0.231000	0.137400	0.017950
C7031	C703	0.260160	0.114030	0.028200
C7041	C704	0.254160	0.083200	0.030770
C7051	C705	0.220510	0.070090	0.024330
C7061	C706	0.193510	0.090760	0.015050
C7071	C707	0.214310	0.031940	0.028480
C7081	C708	0.146710	0.158480	0.994450
C7091	C709	0.180120	0.151880	0.003590
C7101	C710	0.202500	0.182500	0.004830
C7111	C711	0.186910	0.213810	0.997020
C7121	C712	0.156220	0.216760	0.989040
C7131	C713	0.132370	0.188600	0.986880
C7141	C714	0.099160	0.192890	0.978380
C7151	C715	0.528100	0.785110	0.466490
C7161	C716	0.588390	0.807460	0.464220
C7171	C717	0.563340	0.780850	0.465950
C7181	C718	0.574190	0.745610	0.467300
C7191	C719	0.613000	0.738400	0.467150
C7201	C720	0.633700	0.769800	0.465210
C7211	C721	0.620290	0.801740	0.463840
C7221	C722	0.648170	0.822610	0.462110
C7231	C723	0.679870	0.800810	0.462370
C7241	C724	0.710800	0.813700	0.461720
C7251	C725	0.717500	0.848200	0.459850
C7261	C726	0.688300	0.869640	0.459170
C7271	C727	0.654880	0.856780	0.460350
C7281	C728	0.692650	0.907280	0.457680
C7291	C729	0.690510	0.743600	0.468680
C7301	C730	0.690200	0.721000	0.494500
C7311	C731	0.714400	0.696400	0.496700
C7321	C732	0.738580	0.691410	0.477290
C7331	C733	0.741010	0.713300	0.449690
C7341	C734	0.717200	0.739600	0.444200
C7351	C735	0.800870	0.625000	0.488140
C7361	C736	0.769000	0.637400	0.482050
C7371	C737	0.739840	0.614030	0.471800
C7381	C738	0.745840	0.583200	0.469230
C7391	C739	0.779490	0.570090	0.475670
C7401	C740	0.806490	0.590760	0.484950
C7411	C741	0.785690	0.531940	0.471520
C7421	C742	0.853290	0.658480	0.505550
C7431	C743	0.819880	0.651880	0.496410
C7441	C744	0.797500	0.682500	0.495170
C7451	C745	0.813090	0.713810	0.502980
C7461	C746	0.843780	0.716760	0.510960
C7471	C747	0.867630	0.688600	0.513120
C7481	C748	0.900840	0.692890	0.521620
C7491	C749	0.971900	0.214890	0.966490
C7501	C750	0.911610	0.192540	0.964220
C7511	C751	0.936660	0.219150	0.965950
C7521	C752	0.925810	0.254390	0.967300
C7531	C753	0.887000	0.261600	0.967150
C7541	C754	0.866300	0.230200	0.965210
C7551	C755	0.879710	0.198260	0.963840
C7561	C756	0.851830	0.177390	0.962110
C7571	C757	0.820130	0.199190	0.962370
C7581	C758	0.789200	0.186300	0.961720
C7591	C759	0.782500	0.151800	0.959850
C7601	C760	0.811700	0.130360	0.959170
C7611	C761	0.845120	0.143220	0.960350
C7621	C762	0.807350	0.092720	0.957680
C7631	C763	0.809490	0.256400	0.968680
C7641	C764	0.809800	0.279000	0.994500
C7651	C765	0.785600	0.303600	0.996700
C7661	C766	0.761420	0.308590	0.977290
C7671	C767	0.758990	0.286700	0.949690
C7681	C768	0.782800	0.260400	0.944200
C7691	C769	0.699130	0.375000	0.988140
C7701	C770	0.731000	0.362600	0.982050
C7711	C771	0.760160	0.385970	0.971800
C7721	C772	0.754160	0.416800	0.969230
C7731	C773	0.720510	0.429910	0.975670
C7741	C774	0.693510	0.409240	0.984950
C7751	C775	0.714310	0.468060	0.971520
C7761	C776	0.646710	0.341520	0.005550
C7771	C777	0.680120	0.348120	0.996410
C7781	C778	0.702500	0.317500	0.995170
C7791	C779	0.686910	0.286190	0.002980
C7801	C780	0.656220	0.283240	0.010960
C7811	C781	0.632370	0.311400	0.013120
C7821	C782	0.599160	0.307110	0.021620
C7831	C783	0.028100	0.714890	0.533510
C7841	C784	0.088390	0.692540	0.535780
C7851	C785	0.063340	0.719150	0.534050
C7861	C786	0.074190	0.754390	0.532700
C7871	C787	0.113000	0.761600	0.532850
C7881	C788	0.133700	0.730200	0.534790
C7891	C789	0.120290	0.698260	0.536160
C7901	C790	0.148170	0.677390	0.537890
C7911	C791	0.179870	0.699190	0.537630
C7921	C792	0.210800	0.686300	0.538280
C7931	C793	0.217500	0.651800	0.540150
C7941	C794	0.188300	0.630360	0.540830
C7951	C795	0.154880	0.643220	0.539650
C7961	C796	0.192650	0.592720	0.542320
C7971	C797	0.190510	0.756400	0.531320
C7981	C798	0.190200	0.779000	0.505500
C7991	C799	0.214400	0.803600	0.503300
C8001	C800	0.238580	0.808590	0.522710
C8011	C801	0.241010	0.786700	0.550310
C8021	C802	0.217200	0.760400	0.555800
C8031	C803	0.300870	0.875000	0.511860
C8041	C804	0.269000	0.862600	0.517950
C8051	C805	0.239840	0.885970	0.528200
C8061	C806	0.245840	0.916800	0.530770
C8071	C807	0.279490	0.929910	0.524330
C8081	C808	0.306490	0.909240	0.515050
C8091	C809	0.285690	0.968060	0.528480
C8101	C810	0.353290	0.841520	0.494450
C8111	C811	0.319880	0.848120	0.503590
C8121	C812	0.297500	0.817500	0.504830
C8131	C813	0.313090	0.786190	0.497020
C8141	C814	0.343780	0.783240	0.489040
C8151	C815	0.367630	0.811400	0.486880
C8161	C816	0.400840	0.807110	0.478380
N11	N1	0.964010	0.666950	0.734190
N21	N2	0.985970	0.767700	0.830600
N31	N3	0.535990	0.333050	0.234190
N41	N4	0.514030	0.232300	0.330600
N51	N5	0.035990	0.166950	0.765810
N61	N6	0.014030	0.267700	0.669400
N71	N7	0.464010	0.833050	0.265810
N81	N8	0.485970	0.732300	0.169400
N91	N9	0.734190	0.964010	0.666950
N101	N10	0.830600	0.985970	0.767700
N111	N11	0.234190	0.535990	0.333050
N121	N12	0.330600	0.514030	0.232300
N131	N13	0.765810	0.035990	0.166950
N141	N14	0.669400	0.014030	0.267700
N151	N15	0.265810	0.464010	0.833050
N161	N16	0.169400	0.485970	0.732300
N171	N17	0.666950	0.734190	0.964010
N181	N18	0.767700	0.830600	0.985970
N191	N19	0.333050	0.234190	0.535990
N201	N20	0.232300	0.330600	0.514030
N211	N21	0.166950	0.765810	0.035990
N221	N22	0.267700	0.669400	0.014030
N231	N23	0.833050	0.265810	0.464010
N241	N24	0.732300	0.169400	0.485970
N251	N25	0.035990	0.333050	0.265810
N261	N26	0.014030	0.232300	0.169400
N271	N27	0.464010	0.666950	0.765810
N281	N28	0.485970	0.767700	0.669400
N291	N29	0.964010	0.833050	0.234190
N301	N30	0.985970	0.732300	0.330600
N311	N31	0.535990	0.166950	0.734190
N321	N32	0.514030	0.267700	0.830600
N331	N33	0.265810	0.035990	0.333050
N341	N34	0.169400	0.014030	0.232300
N351	N35	0.765810	0.464010	0.666950
N361	N36	0.669400	0.485970	0.767700
N371	N37	0.234190	0.964010	0.833050
N381	N38	0.330600	0.985970	0.732300
N391	N39	0.734190	0.535990	0.166950
N401	N40	0.830600	0.514030	0.267700
N411	N41	0.333050	0.265810	0.035990
N421	N42	0.232300	0.169400	0.014030
N431	N43	0.666950	0.765810	0.464010
N441	N44	0.767700	0.669400	0.485970
N451	N45	0.833050	0.234190	0.964010
N461	N46	0.732300	0.330600	0.985970
N471	N47	0.166950	0.734190	0.535990
N481	N48	0.267700	0.830600	0.514030
O11	O1	0.966320	0.518520	0.682250
O21	O2	0.965020	0.506390	0.740950
O31	O3	0.962430	0.666820	0.574050
O41	O4	0.960200	0.723030	0.582840
O51	O5	0.961940	0.760520	0.986380
O61	O6	0.976320	0.814400	0.978960
O71	O7	0.015820	0.921340	0.831310
O81	O8	0.033740	0.912670	0.777830
O91	O9	0.533680	0.481480	0.182250
O101	O10	0.534980	0.493610	0.240950
O111	O11	0.537570	0.333180	0.074050
O121	O12	0.539800	0.276970	0.082840
O131	O13	0.538060	0.239480	0.486380
O141	O14	0.523680	0.185600	0.478960
O151	O15	0.484180	0.078660	0.331310
O161	O16	0.466260	0.087330	0.277830
O171	O17	0.033680	0.018520	0.817750
O181	O18	0.034980	0.006390	0.759050
O191	O19	0.037570	0.166820	0.925950
O201	O20	0.039800	0.223030	0.917160
O211	O21	0.038060	0.260520	0.513620
O221	O22	0.023680	0.314400	0.521040
O231	O23	0.984180	0.421340	0.668690
O241	O24	0.966260	0.412670	0.722170
O251	O25	0.466320	0.981480	0.317750
O261	O26	0.465020	0.993610	0.259050
O271	O27	0.462430	0.833180	0.425950
O281	O28	0.460200	0.776970	0.417160
O291	O29	0.461940	0.739480	0.013620
O301	O30	0.476320	0.685600	0.021040
O311	O31	0.515820	0.578660	0.168690
O321	O32	0.533740	0.587330	0.222170
O331	O33	0.682250	0.966320	0.518520
O341	O34	0.740950	0.965020	0.506390
O351	O35	0.574050	0.962430	0.666820
O361	O36	0.582840	0.960200	0.723030
O371	O37	0.986380	0.961940	0.760520
O381	O38	0.978960	0.976320	0.814400
O391	O39	0.831310	0.015820	0.921340
O401	O40	0.777830	0.033740	0.912670
O411	O41	0.182250	0.533680	0.481480
O421	O42	0.240950	0.534980	0.493610
O431	O43	0.074050	0.537570	0.333180
O441	O44	0.082840	0.539800	0.276970
O451	O45	0.486380	0.538060	0.239480
O461	O46	0.478960	0.523680	0.185600
O471	O47	0.331310	0.484180	0.078660
O481	O48	0.277830	0.466260	0.087330
O491	O49	0.817750	0.033680	0.018520
O501	O50	0.759050	0.034980	0.006390
O511	O51	0.925950	0.037570	0.166820
O521	O52	0.917160	0.039800	0.223030
O531	O53	0.513620	0.038060	0.260520
O541	O54	0.521040	0.023680	0.314400
O551	O55	0.668690	0.984180	0.421340
O561	O56	0.722170	0.966260	0.412670
O571	O57	0.317750	0.466320	0.981480
O581	O58	0.259050	0.465020	0.993610
O591	O59	0.425950	0.462430	0.833180
O601	O60	0.417160	0.460200	0.776970
O611	O61	0.013620	0.461940	0.739480
O621	O62	0.021040	0.476320	0.685600
O631	O63	0.168690	0.515820	0.578660
O641	O64	0.222170	0.533740	0.587330
O651	O65	0.518520	0.682250	0.966320
O661	O66	0.506390	0.740950	0.965020
O671	O67	0.666820	0.574050	0.962430
O681	O68	0.723030	0.582840	0.960200
O691	O69	0.760520	0.986380	0.961940
O701	O70	0.814400	0.978960	0.976320
O711	O71	0.921340	0.831310	0.015820
O721	O72	0.912670	0.777830	0.033740
O731	O73	0.481480	0.182250	0.533680
O741	O74	0.493610	0.240950	0.534980
O751	O75	0.333180	0.074050	0.537570
O761	O76	0.276970	0.082840	0.539800
O771	O77	0.239480	0.486380	0.538060
O781	O78	0.185600	0.478960	0.523680
O791	O79	0.078660	0.331310	0.484180
O801	O80	0.087330	0.277830	0.466260
O811	O81	0.018520	0.817750	0.033680
O821	O82	0.006390	0.759050	0.034980
O831	O83	0.166820	0.925950	0.037570
O841	O84	0.223030	0.917160	0.039800
O851	O85	0.260520	0.513620	0.038060
O861	O86	0.314400	0.521040	0.023680
O871	O87	0.421340	0.668690	0.984180
O881	O88	0.412670	0.722170	0.966260
O891	O89	0.981480	0.317750	0.466320
O901	O90	0.993610	0.259050	0.465020
O911	O91	0.833180	0.425950	0.462430
O921	O92	0.776970	0.417160	0.460200
O931	O93	0.739480	0.013620	0.461940
O941	O94	0.685600	0.021040	0.476320
O951	O95	0.578660	0.168690	0.515820
O961	O96	0.587330	0.222170	0.533740
O971	O97	0.033680	0.481480	0.317750
O981	O98	0.034980	0.493610	0.259050
O991	O99	0.037570	0.333180	0.425950
O1001	O100	0.039800	0.276970	0.417160
O1011	O101	0.038060	0.239480	0.013620
O1021	O102	0.023680	0.185600	0.021040
O1031	O103	0.984180	0.078660	0.168690
O1041	O104	0.966260	0.087330	0.222170
O1051	O105	0.466320	0.518520	0.817750
O1061	O106	0.465020	0.506390	0.759050
O1071	O107	0.462430	0.666820	0.925950
O1081	O108	0.460200	0.723030	0.917160
O1091	O109	0.461940	0.760520	0.513620
O1101	O110	0.476320	0.814400	0.521040
O1111	O111	0.515820	0.921340	0.668690
O1121	O112	0.533740	0.912670	0.722170
O1131	O113	0.966320	0.981480	0.182250
O1141	O114	0.965020	0.993610	0.240950
O1151	O115	0.962430	0.833180	0.074050
O1161	O116	0.960200	0.776970	0.082840
O1171	O117	0.961940	0.739480	0.486380
O1181	O118	0.976320	0.685600	0.478960
O1191	O119	0.015820	0.578660	0.331310
O1201	O120	0.033740	0.587330	0.277830
O1211	O121	0.533680	0.018520	0.682250
O1221	O122	0.534980	0.006390	0.740950
O1231	O123	0.537570	0.166820	0.574050
O1241	O124	0.539800	0.223030	0.582840
O1251	O125	0.538060	0.260520	0.986380
O1261	O126	0.523680	0.314400	0.978960
O1271	O127	0.484180	0.421340	0.831310
O1281	O128	0.466260	0.412670	0.777830
O1291	O129	0.317750	0.033680	0.481480
O1301	O130	0.259050	0.034980	0.493610
O1311	O131	0.425950	0.037570	0.333180
O1321	O132	0.417160	0.039800	0.276970
O1331	O133	0.013620	0.038060	0.239480
O1341	O134	0.021040	0.023680	0.185600
O1351	O135	0.168690	0.984180	0.078660
O1361	O136	0.222170	0.966260	0.087330
O1371	O137	0.817750	0.466320	0.518520
O1381	O138	0.759050	0.465020	0.506390
O1391	O139	0.925950	0.462430	0.666820
O1401	O140	0.917160	0.460200	0.723030
O1411	O141	0.513620	0.461940	0.760520
O1421	O142	0.521040	0.476320	0.814400
O1431	O143	0.668690	0.515820	0.921340
O1441	O144	0.722170	0.533740	0.912670
O1451	O145	0.182250	0.966320	0.981480
O1461	O146	0.240950	0.965020	0.993610
O1471	O147	0.074050	0.962430	0.833180
O1481	O148	0.082840	0.960200	0.776970
O1491	O149	0.486380	0.961940	0.739480
O1501	O150	0.478960	0.976320	0.685600
O1511	O151	0.331310	0.015820	0.578660
O1521	O152	0.277830	0.033740	0.587330
O1531	O153	0.682250	0.533680	0.018520
O1541	O154	0.740950	0.534980	0.006390
O1551	O155	0.574050	0.537570	0.166820
O1561	O156	0.582840	0.539800	0.223030
O1571	O157	0.986380	0.538060	0.260520
O1581	O158	0.978960	0.523680	0.314400
O1591	O159	0.831310	0.484180	0.421340
O1601	O160	0.777830	0.466260	0.412670
O1611	O161	0.481480	0.317750	0.033680
O1621	O162	0.493610	0.259050	0.034980
O1631	O163	0.333180	0.425950	0.037570
O1641	O164	0.276970	0.417160	0.039800
O1651	O165	0.239480	0.013620	0.038060
O1661	O166	0.185600	0.021040	0.023680
O1671	O167	0.078660	0.168690	0.984180
O1681	O168	0.087330	0.222170	0.966260
O1691	O169	0.518520	0.817750	0.466320
O1701	O170	0.506390	0.759050	0.465020
O1711	O171	0.666820	0.925950	0.462430
O1721	O172	0.723030	0.917160	0.460200
O1731	O173	0.760520	0.513620	0.461940
O1741	O174	0.814400	0.521040	0.476320
O1751	O175	0.921340	0.668690	0.515820
O1761	O176	0.912670	0.722170	0.533740
O1771	O177	0.981480	0.182250	0.966320
O1781	O178	0.993610	0.240950	0.965020
O1791	O179	0.833180	0.074050	0.962430
O1801	O180	0.776970	0.082840	0.960200
O1811	O181	0.739480	0.486380	0.961940
O1821	O182	0.685600	0.478960	0.976320
O1831	O183	0.578660	0.331310	0.015820
O1841	O184	0.587330	0.277830	0.033740
O1851	O185	0.018520	0.682250	0.533680
O1861	O186	0.006390	0.740950	0.534980
O1871	O187	0.166820	0.574050	0.537570
O1881	O188	0.223030	0.582840	0.539800
O1891	O189	0.260520	0.986380	0.538060
O1901	O190	0.314400	0.978960	0.523680
O1911	O191	0.421340	0.831310	0.484180
O1921	O192	0.412670	0.777830	0.466260
