data_LELRUR_clean_PM
_symmetry_space_group_name_H-M	'P1'
_cell_length_a	14.787900
_cell_length_b	14.787900
_cell_length_c	27.905700
_cell_angle_alpha	79.651600
_cell_angle_beta	74.965800
_cell_angle_gamma	99.876500
_symmetry_Int_Tables_number 1

loop_
_symmetry_equiv_pos_as_xyz
'x,y,z'

loop_
_atom_site_label
_atom_site_type_symbol
_atom_site_fract_x
_atom_site_fract_y
_atom_site_fract_z
La11	La1	0.608450	0.873910	0.996760
La21	La2	0.370670	0.605210	0.503240
La31	La3	0.391550	0.126090	0.003240
La41	La4	0.629330	0.394790	0.496760
P11	P1	0.639000	0.729370	0.898770
P21	P2	0.838330	0.432270	0.556020
P31	P3	0.415870	0.860750	0.522280
P41	P4	0.646790	0.648730	0.458120
P51	P5	0.128140	0.537770	0.601230
P61	P6	0.488290	0.394350	0.943980
P71	P7	0.883030	0.938150	0.977720
P81	P8	0.606850	0.104910	0.041880
P91	P9	0.361000	0.270630	0.101230
P101	P10	0.161670	0.567730	0.443980
P111	P11	0.584130	0.139250	0.477720
P121	P12	0.353210	0.351270	0.541880
P131	P13	0.871860	0.462230	0.398770
P141	P14	0.511710	0.605650	0.056020
P151	P15	0.116970	0.061850	0.022280
P161	P16	0.393150	0.895090	0.958120
H11	H1	0.790500	0.890900	0.836400
H21	H2	0.880900	0.938100	0.752200
H31	H3	0.696300	0.738000	0.720700
H41	H4	0.774600	0.989200	0.662600
H51	H5	0.872500	0.024400	0.675300
H61	H6	0.877200	0.995400	0.531000
H71	H7	0.777300	0.971400	0.575700
H81	H8	0.735000	0.826300	0.647300
H91	H9	0.809100	0.759200	0.648900
H101	H10	0.031200	0.060300	0.605700
H111	H11	0.032200	0.048600	0.549600
H121	H12	0.991400	0.885800	0.534200
H131	H13	0.962900	0.795200	0.580900
H141	H14	0.988000	0.920500	0.677100
H151	H15	0.963400	0.816300	0.668100
H161	H16	0.954400	0.178900	0.631700
H171	H17	0.934400	0.330500	0.615900
H181	H18	0.805300	0.273300	0.511800
H191	H19	0.826300	0.122300	0.527200
H201	H20	0.673400	0.839900	0.576900
H211	H21	0.595200	0.760500	0.529700
H221	H22	0.837000	0.672200	0.472200
H231	H23	0.912300	0.754300	0.518800
H241	H24	0.180800	0.048100	0.552300
H251	H25	0.335900	0.025600	0.520300
H261	H26	0.237300	0.749700	0.586600
H271	H27	0.084600	0.769900	0.617500
H281	H28	0.227300	0.626900	0.663600
H291	H29	0.190300	0.633100	0.747800
H301	H30	0.958700	0.417000	0.779300
H311	H31	0.151800	0.437200	0.837400
H321	H32	0.199700	0.547800	0.824700
H331	H33	0.026400	0.408200	0.969000
H341	H34	0.047100	0.353000	0.924300
H351	H35	0.973600	0.382300	0.852700
H361	H36	0.908100	0.458000	0.851100
H371	H37	0.166000	0.636900	0.894300
H381	H38	0.098200	0.581800	0.950400
H391	H39	0.920000	0.525600	0.965800
H401	H40	0.876100	0.543800	0.919100
H411	H41	0.097600	0.665100	0.822900
H421	H42	0.984400	0.631500	0.831900
H431	H43	0.310600	0.586100	0.868300
H441	H44	0.446400	0.550300	0.884100
H451	H45	0.285100	0.317100	0.988200
H461	H46	0.149500	0.353500	0.972800
H471	H47	0.916800	0.250300	0.923100
H481	H48	0.790200	0.124900	0.970300
H491	H49	0.644400	0.309200	0.027800
H501	H50	0.773100	0.431100	0.981200
H511	H51	0.100400	0.733100	0.947700
H521	H52	0.045900	0.856200	0.979700
H531	H53	0.836300	0.823900	0.913400
H541	H54	0.887400	0.702100	0.882500
H551	H55	0.209500	0.109100	0.163600
H561	H56	0.119100	0.061900	0.247800
H571	H57	0.303700	0.262000	0.279300
H581	H58	0.225400	0.010800	0.337400
H591	H59	0.127500	0.975600	0.324700
H601	H60	0.122800	0.004600	0.469000
H611	H61	0.222700	0.028600	0.424300
H621	H62	0.265000	0.173700	0.352700
H631	H63	0.190900	0.240800	0.351100
H641	H64	0.968800	0.939700	0.394300
H651	H65	0.967800	0.951400	0.450400
H661	H66	0.008600	0.114200	0.465800
H671	H67	0.037100	0.204800	0.419100
H681	H68	0.012000	0.079500	0.322900
H691	H69	0.036600	0.183700	0.331900
H701	H70	0.045600	0.821100	0.368300
H711	H71	0.065600	0.669500	0.384100
H721	H72	0.194700	0.726700	0.488200
H731	H73	0.173700	0.877700	0.472800
H741	H74	0.326600	0.160100	0.423100
H751	H75	0.404800	0.239500	0.470300
H761	H76	0.163000	0.327800	0.527800
H771	H77	0.087700	0.245700	0.481200
H781	H78	0.819200	0.951900	0.447700
H791	H79	0.664100	0.974400	0.479700
H801	H80	0.762700	0.250300	0.413400
H811	H81	0.915400	0.230100	0.382500
H821	H82	0.772700	0.373100	0.336400
H831	H83	0.809700	0.366900	0.252200
H841	H84	0.041300	0.583000	0.220700
H851	H85	0.848200	0.562800	0.162600
H861	H86	0.800300	0.452200	0.175300
H871	H87	0.973600	0.591800	0.031000
H881	H88	0.952900	0.647000	0.075700
H891	H89	0.026400	0.617700	0.147300
H901	H90	0.091900	0.542000	0.148900
H911	H91	0.834000	0.363100	0.105700
H921	H92	0.901800	0.418200	0.049600
H931	H93	0.080000	0.474400	0.034200
H941	H94	0.123900	0.456200	0.080900
H951	H95	0.902400	0.334900	0.177100
H961	H96	0.015600	0.368500	0.168100
H971	H97	0.689400	0.413900	0.131700
H981	H98	0.553600	0.449700	0.115900
H991	H99	0.714900	0.682900	0.011800
H1001	H100	0.850500	0.646500	0.027200
H1011	H101	0.083200	0.749700	0.076900
H1021	H102	0.209800	0.875100	0.029700
H1031	H103	0.355600	0.690800	0.972200
H1041	H104	0.226900	0.568900	0.018800
H1051	H105	0.899600	0.266900	0.052300
H1061	H106	0.954100	0.143800	0.020300
H1071	H107	0.163700	0.176100	0.086600
H1081	H108	0.112600	0.297900	0.117500
C11	C1	0.704900	0.771600	0.832900
C21	C2	0.776200	0.854600	0.813400
C31	C3	0.826700	0.886400	0.762900
C41	C4	0.718100	0.767300	0.744600
C51	C5	0.670100	0.734900	0.796800
C61	C6	0.799300	0.843600	0.727500
C71	C7	0.850400	0.883500	0.670700
C81	C8	0.843300	0.986500	0.655000
C91	C9	0.894300	0.028800	0.598100
C101	C10	0.846000	0.968800	0.568000
C111	C11	0.853200	0.865100	0.581700
C121	C12	0.804200	0.825500	0.639300
C131	C13	0.999000	0.022100	0.586500
C141	C14	0.958200	0.861600	0.571200
C151	C15	0.957000	0.881900	0.657700
C161	C16	0.008200	0.920200	0.600800
C171	C17	0.884600	0.131000	0.583800
C181	C18	0.920900	0.197200	0.608100
C191	C19	0.909200	0.287300	0.598700
C201	C20	0.861900	0.317000	0.564700
C211	C21	0.833800	0.253600	0.537600
C221	C22	0.845800	0.163600	0.547000
C231	C23	0.803000	0.808200	0.551800
C241	C24	0.707400	0.807000	0.554800
C251	C25	0.660600	0.759600	0.526600
C261	C26	0.707200	0.711100	0.494100
C271	C27	0.803600	0.708000	0.492600
C281	C28	0.847600	0.756500	0.520700
C291	C29	0.114400	0.911800	0.587200
C301	C30	0.191400	0.986100	0.558900
C311	C31	0.284600	0.973100	0.539700
C321	C32	0.301000	0.885000	0.549000
C331	C33	0.225400	0.811000	0.578800
C341	C34	0.134600	0.822800	0.597400
C351	C35	0.104500	0.537800	0.667100
C361	C36	0.168000	0.589600	0.686600
C371	C37	0.149300	0.589600	0.737100
C381	C38	0.011900	0.462700	0.755400
C391	C39	0.031700	0.466900	0.703200
C401	C40	0.071100	0.526800	0.772500
C411	C41	0.054200	0.521100	0.829300
C421	C42	0.141500	0.498300	0.845000
C431	C43	0.126900	0.492400	0.901900
C441	C44	0.036800	0.414000	0.932000
C451	C45	0.946800	0.434900	0.918300
C461	C46	0.964800	0.443500	0.860700
C471	C47	0.108600	0.585500	0.913500
C481	C48	0.932800	0.529400	0.928800
C491	C49	0.039600	0.614700	0.842300
C501	C50	0.021000	0.609000	0.899200
C511	C51	0.214800	0.468400	0.916200
C521	C52	0.305300	0.529000	0.891900
C531	C53	0.386000	0.507900	0.901300
C541	C54	0.381700	0.426600	0.935300
C551	C55	0.291200	0.371400	0.962400
C561	C56	0.210600	0.392800	0.953000
C571	C57	0.860000	0.354800	0.948200
C581	C58	0.861800	0.262200	0.945200
C591	C59	0.786200	0.187200	0.973400
C601	C60	0.705200	0.201300	0.005900
C611	C61	0.700600	0.296200	0.007400
C621	C62	0.777200	0.368300	0.979300
C631	C63	0.999000	0.701600	0.912800
C641	C64	0.045000	0.750300	0.941100
C651	C65	0.012800	0.824300	0.960300
C661	C66	0.934000	0.850000	0.951000
C671	C67	0.889800	0.804200	0.921200
C681	C68	0.920200	0.732000	0.902600
C691	C69	0.295100	0.228400	0.167100
C701	C70	0.223800	0.145400	0.186600
C711	C71	0.173300	0.113600	0.237100
C721	C72	0.281900	0.232700	0.255400
C731	C73	0.329900	0.265100	0.203200
C741	C74	0.200700	0.156400	0.272500
C751	C75	0.149600	0.116500	0.329300
C761	C76	0.156700	0.013500	0.345000
C771	C77	0.105700	0.971200	0.401900
C781	C78	0.154000	0.031200	0.432000
C791	C79	0.146800	0.134900	0.418300
C801	C80	0.195800	0.174500	0.360700
C811	C81	0.001000	0.977900	0.413500
C821	C82	0.041800	0.138400	0.428800
C831	C83	0.043000	0.118100	0.342300
C841	C84	0.991800	0.079800	0.399200
C851	C85	0.115400	0.869000	0.416200
C861	C86	0.079100	0.802800	0.391900
C871	C87	0.090800	0.712700	0.401300
C881	C88	0.138100	0.683000	0.435300
C891	C89	0.166200	0.746400	0.462400
C901	C90	0.154200	0.836400	0.453000
C911	C91	0.197000	0.191800	0.448200
C921	C92	0.292600	0.193000	0.445200
C931	C93	0.339400	0.240400	0.473400
C941	C94	0.292800	0.288900	0.505900
C951	C95	0.196400	0.292000	0.507400
C961	C96	0.152400	0.243500	0.479300
C971	C97	0.885600	0.088200	0.412800
C981	C98	0.808600	0.013900	0.441100
C991	C99	0.715400	0.026900	0.460300
C1001	C100	0.699000	0.115000	0.451000
C1011	C101	0.774600	0.189000	0.421200
C1021	C102	0.865400	0.177200	0.402600
C1031	C103	0.895500	0.462200	0.332900
C1041	C104	0.832000	0.410400	0.313400
C1051	C105	0.850700	0.410400	0.262900
C1061	C106	0.988100	0.537300	0.244600
C1071	C107	0.968300	0.533100	0.296800
C1081	C108	0.928900	0.473200	0.227500
C1091	C109	0.945800	0.478900	0.170700
C1101	C110	0.858500	0.501700	0.155000
C1111	C111	0.873100	0.507600	0.098100
C1121	C112	0.963200	0.586000	0.068000
C1131	C113	0.053200	0.565100	0.081700
C1141	C114	0.035200	0.556500	0.139300
C1151	C115	0.891400	0.414500	0.086500
C1161	C116	0.067200	0.470600	0.071200
C1171	C117	0.960400	0.385300	0.157700
C1181	C118	0.979000	0.391000	0.100800
C1191	C119	0.785200	0.531600	0.083800
C1201	C120	0.694700	0.471000	0.108100
C1211	C121	0.614000	0.492100	0.098700
C1221	C122	0.618300	0.573400	0.064700
C1231	C123	0.708800	0.628600	0.037600
C1241	C124	0.789400	0.607200	0.047000
C1251	C125	0.140000	0.645200	0.051800
C1261	C126	0.138200	0.737800	0.054800
C1271	C127	0.213800	0.812800	0.026600
C1281	C128	0.294800	0.798700	0.994100
C1291	C129	0.299400	0.703800	0.992600
C1301	C130	0.222800	0.631700	0.020700
C1311	C131	0.001000	0.298400	0.087200
C1321	C132	0.955000	0.249700	0.058900
C1331	C133	0.987200	0.175700	0.039700
C1341	C134	0.066000	0.150000	0.049000
C1351	C135	0.110200	0.195800	0.078800
C1361	C136	0.079800	0.268000	0.097400
O11	O1	0.668200	0.793900	0.928900
O21	O2	0.657200	0.625400	0.913000
O31	O3	0.529900	0.720500	0.903800
O41	O4	0.762600	0.435100	0.533700
O51	O5	0.929100	0.504800	0.528300
O61	O6	0.807100	0.453300	0.610600
O71	O7	0.403900	0.760200	0.521700
O81	O8	0.481200	0.891400	0.553600
O91	O9	0.462800	0.927200	0.467000
O101	O10	0.543100	0.627700	0.481800
O111	O11	0.672600	0.718900	0.404100
O121	O12	0.688500	0.565500	0.449400
O131	O13	0.222800	0.597100	0.571100
O141	O14	0.038400	0.570200	0.587000
O151	O15	0.124300	0.433700	0.596200
O161	O16	0.468800	0.296300	0.966300
O171	O17	0.533100	0.457400	0.971700
O181	O18	0.563900	0.417700	0.889400
O191	O19	0.781900	0.925600	0.978300
O201	O20	0.945000	0.034800	0.946400
O211	O21	0.894200	0.929800	0.033000
O221	O22	0.609500	0.024900	0.018200
O231	O23	0.623000	0.076700	0.095900
O241	O24	0.514900	0.137900	0.050600
O251	O25	0.331800	0.206100	0.071100
O261	O26	0.342800	0.374600	0.087000
O271	O27	0.470100	0.279500	0.096200
O281	O28	0.237400	0.564900	0.466300
O291	O29	0.070900	0.495200	0.471700
O301	O30	0.192900	0.546700	0.389400
O311	O31	0.596100	0.239800	0.478300
O321	O32	0.518800	0.108600	0.446400
O331	O33	0.537200	0.072800	0.533000
O341	O34	0.456900	0.372300	0.518200
O351	O35	0.327400	0.281100	0.595900
O361	O36	0.311500	0.434500	0.550600
O371	O37	0.777200	0.402900	0.428900
O381	O38	0.961600	0.429800	0.413000
O391	O39	0.875700	0.566300	0.403800
O401	O40	0.531200	0.703700	0.033700
O411	O41	0.466900	0.542600	0.028300
O421	O42	0.436100	0.582300	0.110600
O431	O43	0.218100	0.074400	0.021700
O441	O44	0.055000	0.965200	0.053600
O451	O45	0.105800	0.070200	0.967000
O461	O46	0.390500	0.975100	0.981800
O471	O47	0.377000	0.923300	0.904100
O481	O48	0.485100	0.862100	0.949400
