data_LEMNOH_clean_PM
_symmetry_space_group_name_H-M	'P1'
_cell_length_a	11.140000
_cell_length_b	11.497000
_cell_length_c	16.854000
_cell_angle_alpha	90.000000
_cell_angle_beta	90.000000
_cell_angle_gamma	90.000000
_symmetry_Int_Tables_number 1

loop_
_symmetry_equiv_pos_as_xyz
'x,y,z'

loop_
_atom_site_label
_atom_site_type_symbol
_atom_site_fract_x
_atom_site_fract_y
_atom_site_fract_z
Fe11	Fe1	0.000000	0.000000	0.000000
Fe21	Fe2	0.500000	0.000000	0.500000
Fe31	Fe3	0.000000	0.500000	0.500000
Fe41	Fe4	0.500000	0.500000	0.000000
C11	C1	0.177400	0.066500	0.247200
C21	C2	0.130200	0.147600	0.298300
C31	C3	0.169400	0.181200	0.374100
C41	C4	0.125000	0.047300	0.169900
C51	C5	0.281600	0.999300	0.263900
C61	C6	0.017900	0.202100	0.271200
C71	C7	0.770900	0.130700	0.087600
C81	C8	0.112000	0.229700	0.916200
C91	C9	0.322600	0.933500	0.747200
C101	C10	0.369800	0.852400	0.798300
C111	C11	0.330600	0.818800	0.874100
C121	C12	0.375000	0.952700	0.669900
C131	C13	0.218400	0.000700	0.763900
C141	C14	0.482100	0.797900	0.771200
C151	C15	0.729100	0.869300	0.587600
C161	C16	0.388000	0.770300	0.416200
C171	C17	0.822600	0.566500	0.252800
C181	C18	0.869800	0.647600	0.201700
C191	C19	0.830600	0.681200	0.125900
C201	C20	0.875000	0.547300	0.330100
C211	C21	0.718400	0.499300	0.236100
C221	C22	0.982100	0.702100	0.228800
C231	C23	0.229100	0.630700	0.412400
C241	C24	0.888000	0.729700	0.583800
C251	C25	0.677400	0.433500	0.752800
C261	C26	0.630200	0.352400	0.701700
C271	C27	0.669400	0.318800	0.625900
C281	C28	0.625000	0.452700	0.830100
C291	C29	0.781600	0.500700	0.736100
C301	C30	0.517900	0.297900	0.728800
C311	C31	0.270900	0.369300	0.912400
C321	C32	0.612000	0.270300	0.083800
C331	C33	0.822600	0.933500	0.752800
C341	C34	0.869800	0.852400	0.701700
C351	C35	0.830600	0.818800	0.625900
C361	C36	0.875000	0.952700	0.830100
C371	C37	0.718400	0.000700	0.736100
C381	C38	0.982100	0.797900	0.728800
C391	C39	0.229100	0.869300	0.912400
C401	C40	0.888000	0.770300	0.083800
C411	C41	0.677400	0.066500	0.252800
C421	C42	0.630200	0.147600	0.201700
C431	C43	0.669400	0.181200	0.125900
C441	C44	0.625000	0.047300	0.330100
C451	C45	0.781600	0.999300	0.236100
C461	C46	0.517900	0.202100	0.228800
C471	C47	0.270900	0.130700	0.412400
C481	C48	0.612000	0.229700	0.583800
C491	C49	0.177400	0.433500	0.747200
C501	C50	0.130200	0.352400	0.798300
C511	C51	0.169400	0.318800	0.874100
C521	C52	0.125000	0.452700	0.669900
C531	C53	0.281600	0.500700	0.763900
C541	C54	0.017900	0.297900	0.771200
C551	C55	0.770900	0.369300	0.587600
C561	C56	0.112000	0.270300	0.416200
C571	C57	0.322600	0.566500	0.247200
C581	C58	0.369800	0.647600	0.298300
C591	C59	0.330600	0.681200	0.374100
C601	C60	0.375000	0.547300	0.169900
C611	C61	0.218400	0.499300	0.263900
C621	C62	0.482100	0.702100	0.271200
C631	C63	0.729100	0.630700	0.087600
C641	C64	0.388000	0.729700	0.916200
N11	N1	0.090200	0.032500	0.107700
N21	N2	0.362100	0.942600	0.274400
N31	N3	0.930500	0.242700	0.252700
N41	N4	0.848600	0.089600	0.051700
N51	N5	0.066800	0.158000	0.951800
N61	N6	0.409800	0.967500	0.607700
N71	N7	0.137900	0.057400	0.774400
N81	N8	0.569500	0.757300	0.752700
N91	N9	0.651400	0.910400	0.551700
N101	N10	0.433200	0.842000	0.451800
N111	N11	0.909800	0.532500	0.392300
N121	N12	0.637900	0.442600	0.225600
N131	N13	0.069500	0.742700	0.247300
N141	N14	0.151400	0.589600	0.448300
N151	N15	0.933200	0.658000	0.548200
N161	N16	0.590200	0.467500	0.892300
N171	N17	0.862100	0.557400	0.725600
N181	N18	0.430500	0.257300	0.747300
N191	N19	0.348600	0.410400	0.948300
N201	N20	0.566800	0.342000	0.048200
N211	N21	0.909800	0.967500	0.892300
N221	N22	0.637900	0.057400	0.725600
N231	N23	0.069500	0.757300	0.747300
N241	N24	0.151400	0.910400	0.948300
N251	N25	0.933200	0.842000	0.048200
N261	N26	0.590200	0.032500	0.392300
N271	N27	0.862100	0.942600	0.225600
N281	N28	0.430500	0.242700	0.247300
N291	N29	0.348600	0.089600	0.448300
N301	N30	0.566800	0.158000	0.548200
N311	N31	0.090200	0.467500	0.607700
N321	N32	0.362100	0.557400	0.774400
N331	N33	0.930500	0.257300	0.752700
N341	N34	0.848600	0.410400	0.551700
N351	N35	0.066800	0.342000	0.451800
N361	N36	0.409800	0.532500	0.107700
N371	N37	0.137900	0.442600	0.274400
N381	N38	0.569500	0.742700	0.252700
N391	N39	0.651400	0.589600	0.051700
N401	N40	0.433200	0.658000	0.951800
