data_LENKIA_clean_PM
_symmetry_space_group_name_H-M	'P1'
_cell_length_a	6.258700
_cell_length_b	15.153800
_cell_length_c	15.153800
_cell_angle_alpha	61.863700
_cell_angle_beta	82.087000
_cell_angle_gamma	97.913000
_symmetry_Int_Tables_number 1

loop_
_symmetry_equiv_pos_as_xyz
'x,y,z'

loop_
_atom_site_label
_atom_site_type_symbol
_atom_site_fract_x
_atom_site_fract_y
_atom_site_fract_z
Cu11	Cu1	0.929050	0.260490	0.433330
Cu21	Cu2	0.362380	0.433330	0.306180
Cu31	Cu3	0.668560	0.306180	0.260490
Cu41	Cu4	0.070950	0.739510	0.566670
Cu51	Cu5	0.637620	0.566670	0.693820
Cu61	Cu6	0.331440	0.693820	0.739510
H11	H1	0.314700	0.439600	0.539000
H21	H2	0.853700	0.539000	0.021400
H31	H3	0.875100	0.021400	0.439600
H41	H4	0.685300	0.560400	0.461000
H51	H5	0.146300	0.461000	0.978600
H61	H6	0.124900	0.978600	0.560400
C11	C1	0.185500	0.463900	0.522800
C21	C2	0.718200	0.429900	0.398500
C31	C3	0.063900	0.428600	0.471300
C41	C4	0.872500	0.466700	0.448500
C51	C5	0.708300	0.522800	0.013300
C61	C6	0.116700	0.398500	0.171600
C71	C7	0.535200	0.471300	0.100100
C81	C8	0.321000	0.448500	0.084800
C91	C9	0.721600	0.013300	0.463900
C101	C10	0.288300	0.171600	0.429900
C111	C11	0.635300	0.100100	0.428600
C121	C12	0.405800	0.084800	0.466700
C131	C13	0.814500	0.536100	0.477200
C141	C14	0.281800	0.570100	0.601500
C151	C15	0.936100	0.571400	0.528700
C161	C16	0.127500	0.533300	0.551500
C171	C17	0.291700	0.477200	0.986700
C181	C18	0.883300	0.601500	0.828400
C191	C19	0.464800	0.528700	0.899900
C201	C20	0.679000	0.551500	0.915200
C211	C21	0.278400	0.986700	0.536100
C221	C22	0.711700	0.828400	0.570100
C231	C23	0.364700	0.899900	0.571400
C241	C24	0.594200	0.915200	0.533300
O11	O1	0.138220	0.363650	0.442890
O21	O2	0.716670	0.346340	0.399630
O31	O3	0.586410	0.484600	0.358370
O41	O4	0.581110	0.442890	0.193460
O51	O5	0.116300	0.399630	0.254030
O61	O6	0.944780	0.358370	0.157030
O71	O7	0.774570	0.193460	0.363650
O81	O8	0.370330	0.254030	0.346340
O91	O9	0.101810	0.157030	0.484600
O101	O10	0.861780	0.636350	0.557110
O111	O11	0.283330	0.653660	0.600370
O121	O12	0.413590	0.515400	0.641630
O131	O13	0.418890	0.557110	0.806540
O141	O14	0.883700	0.600370	0.745970
O151	O15	0.055220	0.641630	0.842970
O161	O16	0.225430	0.806540	0.636350
O171	O17	0.629670	0.745970	0.653660
O181	O18	0.898190	0.842970	0.515400
