data_LERNAY_clean_PM
_symmetry_space_group_name_H-M	'P1'
_cell_length_a	10.096000
_cell_length_b	12.842200
_cell_length_c	12.973100
_cell_angle_alpha	71.014000
_cell_angle_beta	67.100800
_cell_angle_gamma	66.853900
_symmetry_Int_Tables_number 1

loop_
_symmetry_equiv_pos_as_xyz
'x,y,z'

loop_
_atom_site_label
_atom_site_type_symbol
_atom_site_fract_x
_atom_site_fract_y
_atom_site_fract_z
Co11	Co1	0.965790	0.615270	0.897170
Co21	Co2	0.252400	0.167020	0.263460
Co31	Co3	0.478230	0.884730	0.602830
Co41	Co4	0.682880	0.332980	0.236540
Co51	Co5	0.034210	0.384730	0.102830
Co61	Co6	0.747600	0.832980	0.736540
Co71	Co7	0.521770	0.115270	0.397170
Co81	Co8	0.317120	0.667020	0.763460
H11	H1	0.855300	0.889100	0.151500
H21	H2	0.997300	0.754600	0.039600
H31	H3	0.637900	0.730400	0.019000
H41	H4	0.486500	0.870400	0.124200
H51	H5	0.142600	0.928100	0.755900
H61	H6	0.144100	0.911900	0.534900
H71	H7	0.020700	0.013800	0.591800
H81	H8	0.895900	0.610900	0.348500
H91	H9	0.791500	0.745400	0.460400
H101	H10	0.387300	0.769600	0.481000
H111	H11	0.481100	0.629600	0.375800
H121	H12	0.826600	0.571900	0.744100
H131	H13	0.590900	0.588100	0.965100
H141	H14	0.626300	0.486200	0.908200
H151	H15	0.144700	0.110900	0.848500
H161	H16	0.002700	0.245400	0.960400
H171	H17	0.362100	0.269600	0.981000
H181	H18	0.513500	0.129600	0.875800
H191	H19	0.857400	0.071900	0.244100
H201	H20	0.855900	0.088100	0.465100
H211	H21	0.979300	0.986200	0.408200
H221	H22	0.104100	0.389100	0.651500
H231	H23	0.208500	0.254600	0.539600
H241	H24	0.612700	0.230400	0.519000
H251	H25	0.518900	0.370400	0.624200
H261	H26	0.173400	0.428100	0.255900
H271	H27	0.409100	0.411900	0.034900
H281	H28	0.373700	0.513800	0.091800
C11	C1	0.553900	0.988200	0.222000
C21	C2	0.653600	0.896000	0.150200
C31	C3	0.808600	0.858900	0.123900
C41	C4	0.892700	0.777600	0.057400
C51	C5	0.682500	0.764100	0.044700
C61	C6	0.590800	0.847500	0.108900
C71	C7	0.032900	0.839100	0.749900
C81	C8	0.151300	0.902800	0.691000
C91	C9	0.126300	0.968000	0.577800
C101	C10	0.220900	0.048300	0.502100
C111	C11	0.764100	0.511800	0.278000
C121	C12	0.699800	0.604000	0.349800
C131	C13	0.791400	0.641100	0.376100
C141	C14	0.727700	0.722400	0.442600
C151	C15	0.491300	0.735900	0.455300
C161	C16	0.547200	0.652500	0.391100
C171	C17	0.621900	0.660900	0.750100
C181	C18	0.745100	0.597200	0.809000
C191	C19	0.672100	0.532000	0.922200
C201	C20	0.771300	0.451700	0.997900
C211	C21	0.446100	0.011800	0.778000
C221	C22	0.346400	0.104000	0.849800
C231	C23	0.191400	0.141100	0.876100
C241	C24	0.107300	0.222400	0.942600
C251	C25	0.317500	0.235900	0.955300
C261	C26	0.409200	0.152500	0.891100
C271	C27	0.967100	0.160900	0.250100
C281	C28	0.848700	0.097200	0.309000
C291	C29	0.873700	0.032000	0.422200
C301	C30	0.779100	0.951700	0.497900
C311	C31	0.235900	0.488200	0.722000
C321	C32	0.300200	0.396000	0.650200
C331	C33	0.208600	0.358900	0.623900
C341	C34	0.272300	0.277600	0.557400
C351	C35	0.508700	0.264100	0.544700
C361	C36	0.452800	0.347500	0.608900
C371	C37	0.378100	0.339100	0.249900
C381	C38	0.254900	0.402800	0.191000
C391	C39	0.327900	0.468000	0.077800
C401	C40	0.228700	0.548300	0.002100
N11	N1	0.833200	0.729400	0.017000
N21	N2	0.579600	0.770600	0.483000
N31	N3	0.166800	0.270600	0.983000
N41	N4	0.420400	0.229400	0.517000
O11	O1	0.611800	0.008900	0.277500
O21	O2	0.419800	0.030500	0.218500
O31	O3	0.080200	0.734700	0.793700
O41	O4	0.897500	0.892300	0.758300
O51	O5	0.300100	0.824100	0.675500
O61	O6	0.359140	0.022720	0.497000
O71	O7	0.159000	0.127400	0.433400
O81	O8	0.898200	0.491100	0.222500
O91	O9	0.668800	0.469500	0.281500
O101	O10	0.608600	0.765300	0.706300
O111	O11	0.548100	0.607700	0.741700
O121	O12	0.799700	0.675900	0.824500
O131	O13	0.878860	0.477280	0.003000
O141	O14	0.719800	0.372600	0.066600
O151	O15	0.388200	0.991100	0.722500
O161	O16	0.580200	0.969500	0.781500
O171	O17	0.919800	0.265300	0.206300
O181	O18	0.102500	0.107700	0.241700
O191	O19	0.699900	0.175900	0.324500
O201	O20	0.640860	0.977280	0.503000
O211	O21	0.841000	0.872600	0.566600
O221	O22	0.101800	0.508900	0.777500
O231	O23	0.331200	0.530500	0.718500
O241	O24	0.391400	0.234700	0.293700
O251	O25	0.451900	0.392300	0.258300
O261	O26	0.200300	0.324100	0.175500
O271	O27	0.121140	0.522720	0.997000
O281	O28	0.280200	0.627400	0.933400
