data_LESWAI_clean_PM
_symmetry_space_group_name_H-M	'P1'
_cell_length_a	12.456100
_cell_length_b	12.559500
_cell_length_c	16.592000
_cell_angle_alpha	83.275300
_cell_angle_beta	76.341100
_cell_angle_gamma	60.271900
_symmetry_Int_Tables_number 1

loop_
_symmetry_equiv_pos_as_xyz
'x,y,z'

loop_
_atom_site_label
_atom_site_type_symbol
_atom_site_fract_x
_atom_site_fract_y
_atom_site_fract_z
La11	La1	0.576390	0.906180	0.599980
La21	La2	0.517430	0.906180	0.900020
La31	La3	0.423610	0.093820	0.400020
La41	La4	0.482570	0.093820	0.099980
H11	H1	0.949100	0.794600	0.605000
H21	H2	0.140800	0.785600	0.588300
H31	H3	0.910200	0.786200	0.851400
H41	H4	0.067900	0.097800	0.542400
H51	H5	0.885500	0.100000	0.610500
H61	H6	0.161000	0.093600	0.757800
H71	H7	0.470000	0.332600	0.441800
H81	H8	0.619400	0.274600	0.641700
H91	H9	0.402400	0.533800	0.368400
H101	H10	0.256300	0.794600	0.895000
H111	H11	0.073600	0.785600	0.911700
H121	H12	0.303600	0.786200	0.648600
H131	H13	0.834300	0.097800	0.957600
H141	H14	0.014500	0.100000	0.889500
H151	H15	0.745400	0.093600	0.742200
H161	H16	0.197400	0.332600	0.058200
H171	H17	0.106000	0.274600	0.858300
H181	H18	0.063800	0.533800	0.131600
H191	H19	0.050900	0.205400	0.395000
H201	H20	0.859200	0.214400	0.411700
H211	H21	0.089800	0.213800	0.148600
H221	H22	0.932100	0.902200	0.457600
H231	H23	0.114500	0.900000	0.389500
H241	H24	0.839000	0.906400	0.242200
H251	H25	0.530000	0.667400	0.558200
H261	H26	0.380600	0.725400	0.358300
H271	H27	0.597600	0.466200	0.631600
H281	H28	0.743700	0.205400	0.105000
H291	H29	0.926400	0.214400	0.088300
H301	H30	0.696400	0.213800	0.351400
H311	H31	0.165700	0.902200	0.042400
H321	H32	0.985500	0.900000	0.110500
H331	H33	0.254600	0.906400	0.257800
H341	H34	0.802600	0.667400	0.941800
H351	H35	0.894000	0.725400	0.141700
H361	H36	0.936200	0.466200	0.868400
C11	C1	0.783500	0.803200	0.740300
C21	C2	0.911100	0.791600	0.731100
C31	C3	0.980700	0.791600	0.651300
C41	C4	0.094000	0.787600	0.641400
C51	C5	0.956200	0.787800	0.798600
C61	C6	0.141000	0.786200	0.710500
C71	C7	0.255800	0.085800	0.597400
C81	C8	0.133800	0.094400	0.645000
C91	C9	0.048800	0.097200	0.600100
C101	C10	0.940100	0.099200	0.640600
C111	C11	0.104900	0.095600	0.728600
C121	C12	0.908800	0.099800	0.727400
C131	C13	0.556300	0.159200	0.553800
C141	C14	0.544200	0.285400	0.542500
C151	C15	0.495300	0.360000	0.479700
C161	C16	0.482100	0.478600	0.471100
C171	C17	0.584000	0.326400	0.599400
C181	C18	0.428700	0.559600	0.406600
C191	C19	0.413300	0.803200	0.759700
C201	C20	0.297300	0.791600	0.768900
C211	C21	0.227700	0.791600	0.848700
C221	C22	0.118400	0.787600	0.858600
C231	C23	0.256000	0.787800	0.701400
C241	C24	0.072800	0.786200	0.789500
C251	C25	0.658400	0.085800	0.902600
C261	C26	0.771800	0.094400	0.855000
C271	C27	0.854000	0.097200	0.899900
C281	C28	0.960700	0.099200	0.859400
C291	C29	0.799500	0.095600	0.771400
C301	C30	0.991400	0.099800	0.772600
C311	C31	0.284500	0.159200	0.946200
C321	C32	0.170400	0.285400	0.957500
C331	C33	0.144700	0.360000	0.020300
C341	C34	0.039300	0.478600	0.028900
C351	C35	0.089600	0.326400	0.900600
C361	C36	0.011700	0.559600	0.093400
C371	C37	0.216500	0.196800	0.259700
C381	C38	0.088900	0.208400	0.268900
C391	C39	0.019300	0.208400	0.348700
C401	C40	0.906000	0.212400	0.358600
C411	C41	0.043800	0.212200	0.201400
C421	C42	0.859000	0.213800	0.289500
C431	C43	0.744200	0.914200	0.402600
C441	C44	0.866200	0.905600	0.355000
C451	C45	0.951200	0.902800	0.399900
C461	C46	0.059900	0.900800	0.359400
C471	C47	0.895100	0.904400	0.271400
C481	C48	0.091200	0.900200	0.272600
C491	C49	0.443700	0.840800	0.446200
C501	C50	0.455800	0.714600	0.457500
C511	C51	0.504700	0.640000	0.520300
C521	C52	0.517900	0.521400	0.528900
C531	C53	0.416000	0.673600	0.400600
C541	C54	0.571300	0.440400	0.593400
C551	C55	0.586700	0.196800	0.240300
C561	C56	0.702700	0.208400	0.231100
C571	C57	0.772300	0.208400	0.151300
C581	C58	0.881600	0.212400	0.141400
C591	C59	0.744000	0.212200	0.298600
C601	C60	0.927200	0.213800	0.210500
C611	C61	0.341600	0.914200	0.097400
C621	C62	0.228200	0.905600	0.145000
C631	C63	0.146000	0.902800	0.100100
C641	C64	0.039300	0.900800	0.140600
C651	C65	0.200500	0.904400	0.228600
C661	C66	0.008600	0.900200	0.227400
C671	C67	0.715500	0.840800	0.053800
C681	C68	0.829600	0.714600	0.042500
C691	C69	0.855300	0.640000	0.979700
C701	C70	0.960700	0.521400	0.971100
C711	C71	0.910400	0.673600	0.099400
C721	C72	0.988300	0.440400	0.906600
O11	O1	0.741300	0.825600	0.676000
O21	O2	0.727100	0.789200	0.810200
O31	O3	0.344300	0.048400	0.635100
O41	O4	0.262300	0.116400	0.523400
O51	O5	0.609300	0.092000	0.608500
O61	O6	0.511840	0.126120	0.506600
O71	O7	0.433100	0.825600	0.824000
O81	O8	0.483700	0.789200	0.689800
O91	O9	0.607300	0.048400	0.864900
O101	O10	0.621300	0.116400	0.976600
O111	O11	0.298700	0.092000	0.891500
O121	O12	0.362040	0.126120	0.993400
O131	O13	0.258700	0.174400	0.324000
O141	O14	0.272900	0.210800	0.189800
O151	O15	0.655700	0.951600	0.364900
O161	O16	0.737700	0.883600	0.476600
O171	O17	0.390700	0.908000	0.391500
O181	O18	0.488160	0.873880	0.493400
O191	O19	0.566900	0.174400	0.176000
O201	O20	0.516300	0.210800	0.310200
O211	O21	0.392700	0.951600	0.135100
O221	O22	0.378700	0.883600	0.023400
O231	O23	0.701300	0.908000	0.108500
O241	O24	0.637960	0.873880	0.006600
O251	O25	0.493200	0.013600	0.750000
O261	O26	0.506800	0.986400	0.250000
