data_LETDUK_clean_PM
_symmetry_space_group_name_H-M	'P1'
_cell_length_a	7.402200
_cell_length_b	11.085300
_cell_length_c	19.293200
_cell_angle_alpha	90.000000
_cell_angle_beta	90.000000
_cell_angle_gamma	90.000000
_symmetry_Int_Tables_number 1

loop_
_symmetry_equiv_pos_as_xyz
'x,y,z'

loop_
_atom_site_label
_atom_site_type_symbol
_atom_site_fract_x
_atom_site_fract_y
_atom_site_fract_z
N11	N1	0.159800	0.067000	0.840100
N21	N2	0.845000	0.931100	0.987700
C11	C1	0.104000	0.124800	0.784300
H11	H1	0.983700	0.136800	0.772100
C21	C2	0.890600	0.869200	0.044000
H21	H2	0.010000	0.853800	0.056200
N31	N3	0.659800	0.567000	0.340100
N41	N4	0.345000	0.431100	0.487700
C31	C3	0.604000	0.624800	0.284300
H31	H3	0.483700	0.636800	0.272100
C41	C4	0.390600	0.369200	0.544000
H41	H4	0.510000	0.353800	0.556200
N51	N5	0.840200	0.933000	0.840100
N61	N6	0.155000	0.068900	0.987700
C51	C5	0.896000	0.875200	0.784300
H51	H5	0.016300	0.863200	0.772100
C61	C6	0.109400	0.130800	0.044000
H61	H6	0.990000	0.146200	0.056200
N71	N7	0.340200	0.433000	0.340100
N81	N8	0.655000	0.568900	0.487700
C71	C7	0.396000	0.375200	0.284300
H71	H7	0.516300	0.363200	0.272100
C81	C8	0.609400	0.630800	0.544000
H81	H8	0.490000	0.646200	0.556200
N91	N9	0.659800	0.933000	0.840100
N101	N10	0.345000	0.068900	0.987700
C91	C9	0.604000	0.875200	0.784300
H91	H9	0.483700	0.863200	0.772100
C101	C10	0.390600	0.130800	0.044000
H101	H10	0.510000	0.146200	0.056200
N111	N11	0.159800	0.433000	0.340100
N121	N12	0.845000	0.568900	0.487700
C111	C11	0.104000	0.375200	0.284300
H111	H11	0.983700	0.363200	0.272100
C121	C12	0.890600	0.630800	0.544000
H121	H12	0.010000	0.646200	0.556200
N131	N13	0.340200	0.067000	0.840100
N141	N14	0.655000	0.931100	0.987700
C131	C13	0.396000	0.124800	0.784300
H131	H13	0.516300	0.136800	0.772100
C141	C14	0.609400	0.869200	0.044000
H141	H14	0.490000	0.853800	0.056200
N151	N15	0.840200	0.567000	0.340100
N161	N16	0.155000	0.431100	0.487700
C151	C15	0.896000	0.624800	0.284300
H151	H15	0.016300	0.636800	0.272100
C161	C16	0.109400	0.369200	0.544000
H161	H16	0.990000	0.353800	0.556200
Cu11	Cu1	0.000000	0.000000	0.914730
Cu21	Cu2	0.500000	0.500000	0.414730
Cu31	Cu3	0.500000	0.000000	0.914730
Cu41	Cu4	0.000000	0.500000	0.414730
Cu51	Cu5	0.250000	0.244500	0.662730
N171	N17	0.250000	0.164600	0.747000
N181	N18	0.250000	0.330700	0.581700
Cu61	Cu6	0.750000	0.744500	0.162730
N191	N19	0.750000	0.664600	0.247000
N201	N20	0.750000	0.830700	0.081700
Cu71	Cu7	0.750000	0.755500	0.662730
N211	N21	0.750000	0.835400	0.747000
N221	N22	0.750000	0.669300	0.581700
Cu81	Cu8	0.250000	0.255500	0.162730
N231	N23	0.250000	0.335400	0.247000
N241	N24	0.250000	0.169300	0.081700
