data_LETPUX_clean_PM
_symmetry_space_group_name_H-M	'P1'
_cell_length_a	48.393100
_cell_length_b	48.393100
_cell_length_c	9.999800
_cell_angle_alpha	90.000000
_cell_angle_beta	90.000000
_cell_angle_gamma	90.000000
_symmetry_Int_Tables_number 1

loop_
_symmetry_equiv_pos_as_xyz
'x,y,z'

loop_
_atom_site_label
_atom_site_type_symbol
_atom_site_fract_x
_atom_site_fract_y
_atom_site_fract_z
Zn11	Zn1	0.374920	0.482070	0.327520
Zn21	Zn2	0.438710	0.522110	0.170200
P11	P1	0.310850	0.484340	0.281860
P21	P2	0.400410	0.539110	0.398970
P31	P3	0.415960	0.462410	0.109630
O11	O1	0.288350	0.462690	0.298100
O21	O2	0.315340	0.493240	0.136500
O31	O3	0.336960	0.473350	0.343500
O41	O4	0.429730	0.534390	0.349300
O51	O5	0.379400	0.522430	0.321400
O61	O6	0.399350	0.535640	0.548100
O71	O7	0.475220	0.535460	0.126700
O81	O8	0.386920	0.468470	0.155000
O91	O9	0.415860	0.460420	0.960000
O101	O10	0.437900	0.481780	0.167000
H11	H1	0.299900	0.509600	0.373200
H21	H2	0.391900	0.567900	0.374700
H31	H3	0.421300	0.438900	0.178700
Zn31	Zn3	0.874920	0.982070	0.827520
Zn41	Zn4	0.938710	0.022110	0.670200
P41	P4	0.810850	0.984340	0.781860
P51	P5	0.900410	0.039110	0.898970
P61	P6	0.915960	0.962410	0.609630
O111	O11	0.788350	0.962690	0.798100
O121	O12	0.815340	0.993240	0.636500
O131	O13	0.836960	0.973350	0.843500
O141	O14	0.929730	0.034390	0.849300
O151	O15	0.879400	0.022430	0.821400
O161	O16	0.899350	0.035640	0.048100
O171	O17	0.975220	0.035460	0.626700
O181	O18	0.886920	0.968470	0.655000
O191	O19	0.915860	0.960420	0.460000
O201	O20	0.937900	0.981780	0.667000
H41	H4	0.799900	0.009600	0.873200
H51	H5	0.891900	0.067900	0.874700
H61	H6	0.921300	0.938900	0.678700
Zn51	Zn5	0.125080	0.517930	0.827520
Zn61	Zn6	0.061290	0.477890	0.670200
P71	P7	0.189150	0.515660	0.781860
P81	P8	0.099590	0.460890	0.898970
P91	P9	0.084040	0.537590	0.609630
O211	O21	0.211650	0.537310	0.798100
O221	O22	0.184660	0.506760	0.636500
O231	O23	0.163040	0.526650	0.843500
O241	O24	0.070270	0.465610	0.849300
O251	O25	0.120600	0.477570	0.821400
O261	O26	0.100650	0.464360	0.048100
O271	O27	0.024780	0.464540	0.626700
O281	O28	0.113080	0.531530	0.655000
O291	O29	0.084140	0.539580	0.460000
O301	O30	0.062100	0.518220	0.667000
H71	H7	0.200100	0.490400	0.873200
H81	H8	0.108100	0.432100	0.874700
H91	H9	0.078700	0.561100	0.678700
Zn71	Zn7	0.625080	0.017930	0.327520
Zn81	Zn8	0.561290	0.977890	0.170200
P101	P10	0.689150	0.015660	0.281860
P111	P11	0.599590	0.960890	0.398970
P121	P12	0.584040	0.037590	0.109630
O311	O31	0.711650	0.037310	0.298100
O321	O32	0.684660	0.006760	0.136500
O331	O33	0.663040	0.026650	0.343500
O341	O34	0.570270	0.965610	0.349300
O351	O35	0.620600	0.977570	0.321400
O361	O36	0.600650	0.964360	0.548100
O371	O37	0.524780	0.964540	0.126700
O381	O38	0.613080	0.031530	0.155000
O391	O39	0.584140	0.039580	0.960000
O401	O40	0.562100	0.018220	0.167000
H101	H10	0.700100	0.990400	0.373200
H111	H11	0.608100	0.932100	0.374700
H121	H12	0.578700	0.061100	0.178700
Zn91	Zn9	0.767930	0.124920	0.577520
Zn101	Zn10	0.727890	0.188710	0.420200
P131	P13	0.765660	0.060850	0.531860
P141	P14	0.710890	0.150410	0.648970
P151	P15	0.787590	0.165960	0.359630
O411	O41	0.787310	0.038350	0.548100
O421	O42	0.756760	0.065340	0.386500
O431	O43	0.776650	0.086960	0.593500
O441	O44	0.715610	0.179730	0.599300
O451	O45	0.727570	0.129400	0.571400
O461	O46	0.714360	0.149350	0.798100
O471	O47	0.714540	0.225220	0.376700
O481	O48	0.781530	0.136920	0.405000
O491	O49	0.789580	0.165860	0.210000
O501	O50	0.768220	0.187900	0.417000
H131	H13	0.740400	0.049900	0.623200
H141	H14	0.682100	0.141900	0.624700
H151	H15	0.811100	0.171300	0.428700
Zn111	Zn11	0.267930	0.624920	0.077520
Zn121	Zn12	0.227890	0.688710	0.920200
P161	P16	0.265660	0.560850	0.031860
P171	P17	0.210890	0.650410	0.148970
P181	P18	0.287590	0.665960	0.859630
O511	O51	0.287310	0.538350	0.048100
O521	O52	0.256760	0.565340	0.886500
O531	O53	0.276650	0.586960	0.093500
O541	O54	0.215610	0.679730	0.099300
O551	O55	0.227570	0.629400	0.071400
O561	O56	0.214360	0.649350	0.298100
O571	O57	0.214540	0.725220	0.876700
O581	O58	0.281530	0.636920	0.905000
O591	O59	0.289580	0.665860	0.710000
O601	O60	0.268220	0.687900	0.917000
H161	H16	0.240400	0.549900	0.123200
H171	H17	0.182100	0.641900	0.124700
H181	H18	0.311100	0.671300	0.928700
Zn131	Zn13	0.732070	0.875080	0.077520
Zn141	Zn14	0.772110	0.811290	0.920200
P191	P19	0.734340	0.939150	0.031860
P201	P20	0.789110	0.849590	0.148970
P211	P21	0.712410	0.834040	0.859630
O611	O61	0.712690	0.961650	0.048100
O621	O62	0.743240	0.934660	0.886500
O631	O63	0.723350	0.913040	0.093500
O641	O64	0.784390	0.820270	0.099300
O651	O65	0.772430	0.870600	0.071400
O661	O66	0.785640	0.850650	0.298100
O671	O67	0.785460	0.774780	0.876700
O681	O68	0.718470	0.863080	0.905000
O691	O69	0.710420	0.834140	0.710000
O701	O70	0.731780	0.812100	0.917000
H191	H19	0.759600	0.950100	0.123200
H201	H20	0.817900	0.858100	0.124700
H211	H21	0.688900	0.828700	0.928700
Zn151	Zn15	0.232070	0.375080	0.577520
Zn161	Zn16	0.272110	0.311290	0.420200
P221	P22	0.234340	0.439150	0.531860
P231	P23	0.289110	0.349590	0.648970
P241	P24	0.212410	0.334040	0.359630
O711	O71	0.212690	0.461650	0.548100
O721	O72	0.243240	0.434660	0.386500
O731	O73	0.223350	0.413040	0.593500
O741	O74	0.284390	0.320270	0.599300
O751	O75	0.272430	0.370600	0.571400
O761	O76	0.285640	0.350650	0.798100
O771	O77	0.285460	0.274780	0.376700
O781	O78	0.218470	0.363080	0.405000
O791	O79	0.210420	0.334140	0.210000
O801	O80	0.231780	0.312100	0.417000
H221	H22	0.259600	0.450100	0.623200
H231	H23	0.317900	0.358100	0.624700
H241	H24	0.188900	0.328700	0.428700
Zn171	Zn17	0.125080	0.482070	0.172480
Zn181	Zn18	0.061290	0.522110	0.329800
P251	P25	0.189150	0.484340	0.218140
P261	P26	0.099590	0.539110	0.101030
P271	P27	0.084040	0.462410	0.390370
O811	O81	0.211650	0.462690	0.201900
O821	O82	0.184660	0.493240	0.363500
O831	O83	0.163040	0.473350	0.156500
O841	O84	0.070270	0.534390	0.150700
O851	O85	0.120600	0.522430	0.178600
O861	O86	0.100650	0.535640	0.951900
O871	O87	0.024780	0.535460	0.373300
O881	O88	0.113080	0.468470	0.345000
O891	O89	0.084140	0.460420	0.540000
O901	O90	0.062100	0.481780	0.333000
H251	H25	0.200100	0.509600	0.126800
H261	H26	0.108100	0.567900	0.125300
H271	H27	0.078700	0.438900	0.321300
Zn191	Zn19	0.625080	0.982070	0.672480
Zn201	Zn20	0.561290	0.022110	0.829800
P281	P28	0.689150	0.984340	0.718140
P291	P29	0.599590	0.039110	0.601030
P301	P30	0.584040	0.962410	0.890370
O911	O91	0.711650	0.962690	0.701900
O921	O92	0.684660	0.993240	0.863500
O931	O93	0.663040	0.973350	0.656500
O941	O94	0.570270	0.034390	0.650700
O951	O95	0.620600	0.022430	0.678600
O961	O96	0.600650	0.035640	0.451900
O971	O97	0.524780	0.035460	0.873300
O981	O98	0.613080	0.968470	0.845000
O991	O99	0.584140	0.960420	0.040000
O1001	O100	0.562100	0.981780	0.833000
H281	H28	0.700100	0.009600	0.626800
H291	H29	0.608100	0.067900	0.625300
H301	H30	0.578700	0.938900	0.821300
Zn211	Zn21	0.374920	0.517930	0.672480
Zn221	Zn22	0.438710	0.477890	0.829800
P311	P31	0.310850	0.515660	0.718140
P321	P32	0.400410	0.460890	0.601030
P331	P33	0.415960	0.537590	0.890370
O1011	O101	0.288350	0.537310	0.701900
O1021	O102	0.315340	0.506760	0.863500
O1031	O103	0.336960	0.526650	0.656500
O1041	O104	0.429730	0.465610	0.650700
O1051	O105	0.379400	0.477570	0.678600
O1061	O106	0.399350	0.464360	0.451900
O1071	O107	0.475220	0.464540	0.873300
O1081	O108	0.386920	0.531530	0.845000
O1091	O109	0.415860	0.539580	0.040000
O1101	O110	0.437900	0.518220	0.833000
H311	H31	0.299900	0.490400	0.626800
H321	H32	0.391900	0.432100	0.625300
H331	H33	0.421300	0.561100	0.821300
Zn231	Zn23	0.874920	0.017930	0.172480
Zn241	Zn24	0.938710	0.977890	0.329800
P341	P34	0.810850	0.015660	0.218140
P351	P35	0.900410	0.960890	0.101030
P361	P36	0.915960	0.037590	0.390370
O1111	O111	0.788350	0.037310	0.201900
O1121	O112	0.815340	0.006760	0.363500
O1131	O113	0.836960	0.026650	0.156500
O1141	O114	0.929730	0.965610	0.150700
O1151	O115	0.879400	0.977570	0.178600
O1161	O116	0.899350	0.964360	0.951900
O1171	O117	0.975220	0.964540	0.373300
O1181	O118	0.886920	0.031530	0.345000
O1191	O119	0.915860	0.039580	0.540000
O1201	O120	0.937900	0.018220	0.333000
H341	H34	0.799900	0.990400	0.126800
H351	H35	0.891900	0.932100	0.125300
H361	H36	0.921300	0.061100	0.321300
Zn251	Zn25	0.732070	0.124920	0.922480
Zn261	Zn26	0.772110	0.188710	0.079800
P371	P37	0.734340	0.060850	0.968140
P381	P38	0.789110	0.150410	0.851030
P391	P39	0.712410	0.165960	0.140370
O1211	O121	0.712690	0.038350	0.951900
O1221	O122	0.743240	0.065340	0.113500
O1231	O123	0.723350	0.086960	0.906500
O1241	O124	0.784390	0.179730	0.900700
O1251	O125	0.772430	0.129400	0.928600
O1261	O126	0.785640	0.149350	0.701900
O1271	O127	0.785460	0.225220	0.123300
O1281	O128	0.718470	0.136920	0.095000
O1291	O129	0.710420	0.165860	0.290000
O1301	O130	0.731780	0.187900	0.083000
H371	H37	0.759600	0.049900	0.876800
H381	H38	0.817900	0.141900	0.875300
H391	H39	0.688900	0.171300	0.071300
Zn271	Zn27	0.232070	0.624920	0.422480
Zn281	Zn28	0.272110	0.688710	0.579800
P401	P40	0.234340	0.560850	0.468140
P411	P41	0.289110	0.650410	0.351030
P421	P42	0.212410	0.665960	0.640370
O1311	O131	0.212690	0.538350	0.451900
O1321	O132	0.243240	0.565340	0.613500
O1331	O133	0.223350	0.586960	0.406500
O1341	O134	0.284390	0.679730	0.400700
O1351	O135	0.272430	0.629400	0.428600
O1361	O136	0.285640	0.649350	0.201900
O1371	O137	0.285460	0.725220	0.623300
O1381	O138	0.218470	0.636920	0.595000
O1391	O139	0.210420	0.665860	0.790000
O1401	O140	0.231780	0.687900	0.583000
H401	H40	0.259600	0.549900	0.376800
H411	H41	0.317900	0.641900	0.375300
H421	H42	0.188900	0.671300	0.571300
Zn291	Zn29	0.767930	0.875080	0.422480
Zn301	Zn30	0.727890	0.811290	0.579800
P431	P43	0.765660	0.939150	0.468140
P441	P44	0.710890	0.849590	0.351030
P451	P45	0.787590	0.834040	0.640370
O1411	O141	0.787310	0.961650	0.451900
O1421	O142	0.756760	0.934660	0.613500
O1431	O143	0.776650	0.913040	0.406500
O1441	O144	0.715610	0.820270	0.400700
O1451	O145	0.727570	0.870600	0.428600
O1461	O146	0.714360	0.850650	0.201900
O1471	O147	0.714540	0.774780	0.623300
O1481	O148	0.781530	0.863080	0.595000
O1491	O149	0.789580	0.834140	0.790000
O1501	O150	0.768220	0.812100	0.583000
H431	H43	0.740400	0.950100	0.376800
H441	H44	0.682100	0.858100	0.375300
H451	H45	0.811100	0.828700	0.571300
Zn311	Zn31	0.267930	0.375080	0.922480
Zn321	Zn32	0.227890	0.311290	0.079800
P461	P46	0.265660	0.439150	0.968140
P471	P47	0.210890	0.349590	0.851030
P481	P48	0.287590	0.334040	0.140370
O1511	O151	0.287310	0.461650	0.951900
O1521	O152	0.256760	0.434660	0.113500
O1531	O153	0.276650	0.413040	0.906500
O1541	O154	0.215610	0.320270	0.900700
O1551	O155	0.227570	0.370600	0.928600
O1561	O156	0.214360	0.350650	0.701900
O1571	O157	0.214540	0.274780	0.123300
O1581	O158	0.281530	0.363080	0.095000
O1591	O159	0.289580	0.334140	0.290000
O1601	O160	0.268220	0.312100	0.083000
H461	H46	0.240400	0.450100	0.876800
H471	H47	0.182100	0.358100	0.875300
H481	H48	0.311100	0.328700	0.071300
Zn331	Zn33	0.625080	0.517930	0.672480
Zn341	Zn34	0.561290	0.477890	0.829800
P491	P49	0.689150	0.515660	0.718140
P501	P50	0.599590	0.460890	0.601030
P511	P51	0.584040	0.537590	0.890370
O1611	O161	0.711650	0.537310	0.701900
O1621	O162	0.684660	0.506760	0.863500
O1631	O163	0.663040	0.526650	0.656500
O1641	O164	0.570270	0.465610	0.650700
O1651	O165	0.620600	0.477570	0.678600
O1661	O166	0.600650	0.464360	0.451900
O1671	O167	0.524780	0.464540	0.873300
O1681	O168	0.613080	0.531530	0.845000
O1691	O169	0.584140	0.539580	0.040000
O1701	O170	0.562100	0.518220	0.833000
H491	H49	0.700100	0.490400	0.626800
H501	H50	0.608100	0.432100	0.625300
H511	H51	0.578700	0.561100	0.821300
Zn351	Zn35	0.125080	0.017930	0.172480
Zn361	Zn36	0.061290	0.977890	0.329800
P521	P52	0.189150	0.015660	0.218140
P531	P53	0.099590	0.960890	0.101030
P541	P54	0.084040	0.037590	0.390370
O1711	O171	0.211650	0.037310	0.201900
O1721	O172	0.184660	0.006760	0.363500
O1731	O173	0.163040	0.026650	0.156500
O1741	O174	0.070270	0.965610	0.150700
O1751	O175	0.120600	0.977570	0.178600
O1761	O176	0.100650	0.964360	0.951900
O1771	O177	0.024780	0.964540	0.373300
O1781	O178	0.113080	0.031530	0.345000
O1791	O179	0.084140	0.039580	0.540000
O1801	O180	0.062100	0.018220	0.333000
H521	H52	0.200100	0.990400	0.126800
H531	H53	0.108100	0.932100	0.125300
H541	H54	0.078700	0.061100	0.321300
Zn371	Zn37	0.874920	0.482070	0.172480
Zn381	Zn38	0.938710	0.522110	0.329800
P551	P55	0.810850	0.484340	0.218140
P561	P56	0.900410	0.539110	0.101030
P571	P57	0.915960	0.462410	0.390370
O1811	O181	0.788350	0.462690	0.201900
O1821	O182	0.815340	0.493240	0.363500
O1831	O183	0.836960	0.473350	0.156500
O1841	O184	0.929730	0.534390	0.150700
O1851	O185	0.879400	0.522430	0.178600
O1861	O186	0.899350	0.535640	0.951900
O1871	O187	0.975220	0.535460	0.373300
O1881	O188	0.886920	0.468470	0.345000
O1891	O189	0.915860	0.460420	0.540000
O1901	O190	0.937900	0.481780	0.333000
H551	H55	0.799900	0.509600	0.126800
H561	H56	0.891900	0.567900	0.125300
H571	H57	0.921300	0.438900	0.321300
Zn391	Zn39	0.374920	0.982070	0.672480
Zn401	Zn40	0.438710	0.022110	0.829800
P581	P58	0.310850	0.984340	0.718140
P591	P59	0.400410	0.039110	0.601030
P601	P60	0.415960	0.962410	0.890370
O1911	O191	0.288350	0.962690	0.701900
O1921	O192	0.315340	0.993240	0.863500
O1931	O193	0.336960	0.973350	0.656500
O1941	O194	0.429730	0.034390	0.650700
O1951	O195	0.379400	0.022430	0.678600
O1961	O196	0.399350	0.035640	0.451900
O1971	O197	0.475220	0.035460	0.873300
O1981	O198	0.386920	0.968470	0.845000
O1991	O199	0.415860	0.960420	0.040000
O2001	O200	0.437900	0.981780	0.833000
H581	H58	0.299900	0.009600	0.626800
H591	H59	0.391900	0.067900	0.625300
H601	H60	0.421300	0.938900	0.821300
Zn411	Zn41	0.232070	0.875080	0.422480
Zn421	Zn42	0.272110	0.811290	0.579800
P611	P61	0.234340	0.939150	0.468140
P621	P62	0.289110	0.849590	0.351030
P631	P63	0.212410	0.834040	0.640370
O2011	O201	0.212690	0.961650	0.451900
O2021	O202	0.243240	0.934660	0.613500
O2031	O203	0.223350	0.913040	0.406500
O2041	O204	0.284390	0.820270	0.400700
O2051	O205	0.272430	0.870600	0.428600
O2061	O206	0.285640	0.850650	0.201900
O2071	O207	0.285460	0.774780	0.623300
O2081	O208	0.218470	0.863080	0.595000
O2091	O209	0.210420	0.834140	0.790000
O2101	O210	0.231780	0.812100	0.583000
H611	H61	0.259600	0.950100	0.376800
H621	H62	0.317900	0.858100	0.375300
H631	H63	0.188900	0.828700	0.571300
Zn431	Zn43	0.732070	0.375080	0.922480
Zn441	Zn44	0.772110	0.311290	0.079800
P641	P64	0.734340	0.439150	0.968140
P651	P65	0.789110	0.349590	0.851030
P661	P66	0.712410	0.334040	0.140370
O2111	O211	0.712690	0.461650	0.951900
O2121	O212	0.743240	0.434660	0.113500
O2131	O213	0.723350	0.413040	0.906500
O2141	O214	0.784390	0.320270	0.900700
O2151	O215	0.772430	0.370600	0.928600
O2161	O216	0.785640	0.350650	0.701900
O2171	O217	0.785460	0.274780	0.123300
O2181	O218	0.718470	0.363080	0.095000
O2191	O219	0.710420	0.334140	0.290000
O2201	O220	0.731780	0.312100	0.083000
H641	H64	0.759600	0.450100	0.876800
H651	H65	0.817900	0.358100	0.875300
H661	H66	0.688900	0.328700	0.071300
Zn451	Zn45	0.267930	0.124920	0.922480
Zn461	Zn46	0.227890	0.188710	0.079800
P671	P67	0.265660	0.060850	0.968140
P681	P68	0.210890	0.150410	0.851030
P691	P69	0.287590	0.165960	0.140370
O2211	O221	0.287310	0.038350	0.951900
O2221	O222	0.256760	0.065340	0.113500
O2231	O223	0.276650	0.086960	0.906500
O2241	O224	0.215610	0.179730	0.900700
O2251	O225	0.227570	0.129400	0.928600
O2261	O226	0.214360	0.149350	0.701900
O2271	O227	0.214540	0.225220	0.123300
O2281	O228	0.281530	0.136920	0.095000
O2291	O229	0.289580	0.165860	0.290000
O2301	O230	0.268220	0.187900	0.083000
H671	H67	0.240400	0.049900	0.876800
H681	H68	0.182100	0.141900	0.875300
H691	H69	0.311100	0.171300	0.071300
Zn471	Zn47	0.767930	0.624920	0.422480
Zn481	Zn48	0.727890	0.688710	0.579800
P701	P70	0.765660	0.560850	0.468140
P711	P71	0.710890	0.650410	0.351030
P721	P72	0.787590	0.665960	0.640370
O2311	O231	0.787310	0.538350	0.451900
O2321	O232	0.756760	0.565340	0.613500
O2331	O233	0.776650	0.586960	0.406500
O2341	O234	0.715610	0.679730	0.400700
O2351	O235	0.727570	0.629400	0.428600
O2361	O236	0.714360	0.649350	0.201900
O2371	O237	0.714540	0.725220	0.623300
O2381	O238	0.781530	0.636920	0.595000
O2391	O239	0.789580	0.665860	0.790000
O2401	O240	0.768220	0.687900	0.583000
H701	H70	0.740400	0.549900	0.376800
H711	H71	0.682100	0.641900	0.375300
H721	H72	0.811100	0.671300	0.571300
Zn491	Zn49	0.874920	0.517930	0.827520
Zn501	Zn50	0.938710	0.477890	0.670200
P731	P73	0.810850	0.515660	0.781860
P741	P74	0.900410	0.460890	0.898970
P751	P75	0.915960	0.537590	0.609630
O2411	O241	0.788350	0.537310	0.798100
O2421	O242	0.815340	0.506760	0.636500
O2431	O243	0.836960	0.526650	0.843500
O2441	O244	0.929730	0.465610	0.849300
O2451	O245	0.879400	0.477570	0.821400
O2461	O246	0.899350	0.464360	0.048100
O2471	O247	0.975220	0.464540	0.626700
O2481	O248	0.886920	0.531530	0.655000
O2491	O249	0.915860	0.539580	0.460000
O2501	O250	0.937900	0.518220	0.667000
H731	H73	0.799900	0.490400	0.873200
H741	H74	0.891900	0.432100	0.874700
H751	H75	0.921300	0.561100	0.678700
Zn511	Zn51	0.374920	0.017930	0.327520
Zn521	Zn52	0.438710	0.977890	0.170200
P761	P76	0.310850	0.015660	0.281860
P771	P77	0.400410	0.960890	0.398970
P781	P78	0.415960	0.037590	0.109630
O2511	O251	0.288350	0.037310	0.298100
O2521	O252	0.315340	0.006760	0.136500
O2531	O253	0.336960	0.026650	0.343500
O2541	O254	0.429730	0.965610	0.349300
O2551	O255	0.379400	0.977570	0.321400
O2561	O256	0.399350	0.964360	0.548100
O2571	O257	0.475220	0.964540	0.126700
O2581	O258	0.386920	0.031530	0.155000
O2591	O259	0.415860	0.039580	0.960000
O2601	O260	0.437900	0.018220	0.167000
H761	H76	0.299900	0.990400	0.373200
H771	H77	0.391900	0.932100	0.374700
H781	H78	0.421300	0.061100	0.178700
Zn531	Zn53	0.625080	0.482070	0.327520
Zn541	Zn54	0.561290	0.522110	0.170200
P791	P79	0.689150	0.484340	0.281860
P801	P80	0.599590	0.539110	0.398970
P811	P81	0.584040	0.462410	0.109630
O2611	O261	0.711650	0.462690	0.298100
O2621	O262	0.684660	0.493240	0.136500
O2631	O263	0.663040	0.473350	0.343500
O2641	O264	0.570270	0.534390	0.349300
O2651	O265	0.620600	0.522430	0.321400
O2661	O266	0.600650	0.535640	0.548100
O2671	O267	0.524780	0.535460	0.126700
O2681	O268	0.613080	0.468470	0.155000
O2691	O269	0.584140	0.460420	0.960000
O2701	O270	0.562100	0.481780	0.167000
H791	H79	0.700100	0.509600	0.373200
H801	H80	0.608100	0.567900	0.374700
H811	H81	0.578700	0.438900	0.178700
Zn551	Zn55	0.125080	0.982070	0.827520
Zn561	Zn56	0.061290	0.022110	0.670200
P821	P82	0.189150	0.984340	0.781860
P831	P83	0.099590	0.039110	0.898970
P841	P84	0.084040	0.962410	0.609630
O2711	O271	0.211650	0.962690	0.798100
O2721	O272	0.184660	0.993240	0.636500
O2731	O273	0.163040	0.973350	0.843500
O2741	O274	0.070270	0.034390	0.849300
O2751	O275	0.120600	0.022430	0.821400
O2761	O276	0.100650	0.035640	0.048100
O2771	O277	0.024780	0.035460	0.626700
O2781	O278	0.113080	0.968470	0.655000
O2791	O279	0.084140	0.960420	0.460000
O2801	O280	0.062100	0.981780	0.667000
H821	H82	0.200100	0.009600	0.873200
H831	H83	0.108100	0.067900	0.874700
H841	H84	0.078700	0.938900	0.678700
Zn571	Zn57	0.267930	0.875080	0.077520
Zn581	Zn58	0.227890	0.811290	0.920200
P851	P85	0.265660	0.939150	0.031860
P861	P86	0.210890	0.849590	0.148970
P871	P87	0.287590	0.834040	0.859630
O2811	O281	0.287310	0.961650	0.048100
O2821	O282	0.256760	0.934660	0.886500
O2831	O283	0.276650	0.913040	0.093500
O2841	O284	0.215610	0.820270	0.099300
O2851	O285	0.227570	0.870600	0.071400
O2861	O286	0.214360	0.850650	0.298100
O2871	O287	0.214540	0.774780	0.876700
O2881	O288	0.281530	0.863080	0.905000
O2891	O289	0.289580	0.834140	0.710000
O2901	O290	0.268220	0.812100	0.917000
H851	H85	0.240400	0.950100	0.123200
H861	H86	0.182100	0.858100	0.124700
H871	H87	0.311100	0.828700	0.928700
Zn591	Zn59	0.767930	0.375080	0.577520
Zn601	Zn60	0.727890	0.311290	0.420200
P881	P88	0.765660	0.439150	0.531860
P891	P89	0.710890	0.349590	0.648970
P901	P90	0.787590	0.334040	0.359630
O2911	O291	0.787310	0.461650	0.548100
O2921	O292	0.756760	0.434660	0.386500
O2931	O293	0.776650	0.413040	0.593500
O2941	O294	0.715610	0.320270	0.599300
O2951	O295	0.727570	0.370600	0.571400
O2961	O296	0.714360	0.350650	0.798100
O2971	O297	0.714540	0.274780	0.376700
O2981	O298	0.781530	0.363080	0.405000
O2991	O299	0.789580	0.334140	0.210000
O3001	O300	0.768220	0.312100	0.417000
H881	H88	0.740400	0.450100	0.623200
H891	H89	0.682100	0.358100	0.624700
H901	H90	0.811100	0.328700	0.428700
Zn611	Zn61	0.232070	0.124920	0.577520
Zn621	Zn62	0.272110	0.188710	0.420200
P911	P91	0.234340	0.060850	0.531860
P921	P92	0.289110	0.150410	0.648970
P931	P93	0.212410	0.165960	0.359630
O3011	O301	0.212690	0.038350	0.548100
O3021	O302	0.243240	0.065340	0.386500
O3031	O303	0.223350	0.086960	0.593500
O3041	O304	0.284390	0.179730	0.599300
O3051	O305	0.272430	0.129400	0.571400
O3061	O306	0.285640	0.149350	0.798100
O3071	O307	0.285460	0.225220	0.376700
O3081	O308	0.218470	0.136920	0.405000
O3091	O309	0.210420	0.165860	0.210000
O3101	O310	0.231780	0.187900	0.417000
H911	H91	0.259600	0.049900	0.623200
H921	H92	0.317900	0.141900	0.624700
H931	H93	0.188900	0.171300	0.428700
Zn631	Zn63	0.732070	0.624920	0.077520
Zn641	Zn64	0.772110	0.688710	0.920200
P941	P94	0.734340	0.560850	0.031860
P951	P95	0.789110	0.650410	0.148970
P961	P96	0.712410	0.665960	0.859630
O3111	O311	0.712690	0.538350	0.048100
O3121	O312	0.743240	0.565340	0.886500
O3131	O313	0.723350	0.586960	0.093500
O3141	O314	0.784390	0.679730	0.099300
O3151	O315	0.772430	0.629400	0.071400
O3161	O316	0.785640	0.649350	0.298100
O3171	O317	0.785460	0.725220	0.876700
O3181	O318	0.718470	0.636920	0.905000
O3191	O319	0.710420	0.665860	0.710000
O3201	O320	0.731780	0.687900	0.917000
H941	H94	0.759600	0.549900	0.123200
H951	H95	0.817900	0.641900	0.124700
H961	H96	0.688900	0.671300	0.928700
Ga11	Ga1	0.250000	0.462900	0.250000
Ga21	Ga2	0.750000	0.962900	0.750000
Ga31	Ga3	0.250000	0.537100	0.750000
Ga41	Ga4	0.750000	0.037100	0.250000
Ga51	Ga5	0.787100	0.000000	0.500000
Ga61	Ga6	0.287100	0.500000	0.000000
Ga71	Ga7	0.712900	0.000000	0.000000
Ga81	Ga8	0.212900	0.500000	0.500000
Ga91	Ga9	0.750000	0.537100	0.750000
Ga101	Ga10	0.250000	0.037100	0.250000
Ga111	Ga11	0.750000	0.462900	0.250000
Ga121	Ga12	0.250000	0.962900	0.750000
Ga131	Ga13	0.212900	0.000000	0.500000
Ga141	Ga14	0.712900	0.500000	0.000000
Ga151	Ga15	0.287100	0.000000	0.000000
Ga161	Ga16	0.787100	0.500000	0.500000
Zn651	Zn65	0.500000	0.500000	0.500000
Zn661	Zn66	0.000000	0.000000	0.000000
Zn671	Zn67	0.000000	0.500000	0.000000
Zn681	Zn68	0.500000	0.000000	0.500000
Zn691	Zn69	0.750000	0.250000	0.750000
Zn701	Zn70	0.750000	0.750000	0.250000
Zn711	Zn71	0.250000	0.750000	0.250000
Zn721	Zn72	0.250000	0.250000	0.750000
P971	P97	0.500000	0.534800	0.215090
O3211	O321	0.500000	0.510430	0.308900
H971	H97	0.500000	0.557700	0.288100
P981	P98	0.000000	0.034800	0.715090
O3221	O322	0.000000	0.010430	0.808900
H981	H98	0.000000	0.057700	0.788100
P991	P99	0.000000	0.465200	0.715090
O3231	O323	0.000000	0.489570	0.808900
H991	H99	0.000000	0.442300	0.788100
P1001	P100	0.500000	0.965200	0.215090
O3241	O324	0.500000	0.989570	0.308900
H1001	H100	0.500000	0.942300	0.288100
P1011	P101	0.715200	0.250000	0.465090
O3251	O325	0.739570	0.250000	0.558900
H1011	H101	0.692300	0.250000	0.538100
P1021	P102	0.784800	0.750000	0.965090
O3261	O326	0.760430	0.750000	0.058900
H1021	H102	0.807700	0.750000	0.038100
P1031	P103	0.000000	0.534800	0.284910
O3271	O327	0.000000	0.510430	0.191100
H1031	H103	0.000000	0.557700	0.211900
P1041	P104	0.500000	0.034800	0.784910
O3281	O328	0.500000	0.010430	0.691100
H1041	H104	0.500000	0.057700	0.711900
P1051	P105	0.500000	0.465200	0.784910
O3291	O329	0.500000	0.489570	0.691100
H1051	H105	0.500000	0.442300	0.711900
P1061	P106	0.000000	0.965200	0.284910
O3301	O330	0.000000	0.989570	0.191100
H1061	H106	0.000000	0.942300	0.211900
P1071	P107	0.784800	0.250000	0.034910
O3311	O331	0.760430	0.250000	0.941100
H1071	H107	0.807700	0.250000	0.961900
P1081	P108	0.715200	0.750000	0.534910
O3321	O332	0.739570	0.750000	0.441100
H1081	H108	0.692300	0.750000	0.461900
P1091	P109	0.284800	0.750000	0.534910
O3331	O333	0.260430	0.750000	0.441100
H1091	H109	0.307700	0.750000	0.461900
P1101	P110	0.215200	0.250000	0.034910
O3341	O334	0.239570	0.250000	0.941100
H1101	H110	0.192300	0.250000	0.961900
P1111	P111	0.215200	0.750000	0.965090
O3351	O335	0.239570	0.750000	0.058900
H1111	H111	0.192300	0.750000	0.038100
P1121	P112	0.284800	0.250000	0.465090
O3361	O336	0.260430	0.250000	0.558900
H1121	H112	0.307700	0.250000	0.538100
F11	F1	0.242650	0.492650	0.375000
F21	F2	0.257350	0.507350	0.875000
F31	F3	0.757350	0.992650	0.625000
F41	F4	0.742650	0.007350	0.125000
F51	F5	0.257350	0.492650	0.125000
F61	F6	0.242650	0.507350	0.625000
F71	F7	0.742650	0.992650	0.875000
F81	F8	0.757350	0.007350	0.375000
F91	F9	0.757350	0.507350	0.625000
F101	F10	0.742650	0.492650	0.125000
F111	F11	0.242650	0.992650	0.625000
F121	F12	0.242650	0.007350	0.375000
F131	F13	0.257350	0.992650	0.875000
F141	F14	0.742650	0.507350	0.875000
F151	F15	0.757350	0.492650	0.375000
F161	F16	0.257350	0.007350	0.125000
