data_LETPOR_clean_PM
_symmetry_space_group_name_H-M	'P1'
_cell_length_a	52.174900
_cell_length_b	52.174900
_cell_length_c	10.022900
_cell_angle_alpha	90.000000
_cell_angle_beta	90.000000
_cell_angle_gamma	90.000000
_symmetry_Int_Tables_number 1

loop_
_symmetry_equiv_pos_as_xyz
'x,y,z'

loop_
_atom_site_label
_atom_site_type_symbol
_atom_site_fract_x
_atom_site_fract_y
_atom_site_fract_z
Zn11	Zn1	0.531280	0.310470	0.037080
Zn21	Zn2	0.611620	0.390360	0.045890
Zn31	Zn3	0.679680	0.406010	0.201590
P11	P1	0.720180	0.449560	0.155900
P21	P2	0.562850	0.357960	0.087600
P31	P3	0.506190	0.299340	0.762500
P41	P4	0.625750	0.426590	0.273300
P51	P5	0.665460	0.366240	0.983700
O11	O1	0.749230	0.450200	0.172600
O21	O2	0.711580	0.452260	0.010500
O31	O3	0.710610	0.425150	0.211900
O41	O4	0.547700	0.342050	0.990700
O51	O5	0.577510	0.342190	0.182700
O61	O6	0.578700	0.375100	0.003900
O71	O7	0.505370	0.300900	0.914300
O81	O8	0.532210	0.305790	0.703200
O91	O9	0.484490	0.316220	0.708500
O101	O10	0.650530	0.429400	0.197400
O111	O11	0.609810	0.404440	0.226100
O121	O12	0.628200	0.425200	0.420500
O131	O13	0.637900	0.364600	0.041000
O141	O14	0.666600	0.364900	0.837300
O151	O15	0.679700	0.389600	0.027000
H11	H1	0.709300	0.468900	0.232100
H21	H2	0.548800	0.360900	0.173200
H31	H3	0.490600	0.278000	0.745200
H41	H4	0.615500	0.451400	0.262600
H51	H5	0.683300	0.350300	0.053000
Zn41	Zn4	0.031280	0.810470	0.537080
Zn51	Zn5	0.111620	0.890360	0.545890
Zn61	Zn6	0.179680	0.906010	0.701590
P61	P6	0.220180	0.949560	0.655900
P71	P7	0.062850	0.857960	0.587600
P81	P8	0.006190	0.799340	0.262500
P91	P9	0.125750	0.926590	0.773300
P101	P10	0.165460	0.866240	0.483700
O161	O16	0.249230	0.950200	0.672600
O171	O17	0.211580	0.952260	0.510500
O181	O18	0.210610	0.925150	0.711900
O191	O19	0.047700	0.842050	0.490700
O201	O20	0.077510	0.842190	0.682700
O211	O21	0.078700	0.875100	0.503900
O221	O22	0.005370	0.800900	0.414300
O231	O23	0.032210	0.805790	0.203200
O241	O24	0.984490	0.816220	0.208500
O251	O25	0.150530	0.929400	0.697400
O261	O26	0.109810	0.904440	0.726100
O271	O27	0.128200	0.925200	0.920500
O281	O28	0.137900	0.864600	0.541000
O291	O29	0.166600	0.864900	0.337300
O301	O30	0.179700	0.889600	0.527000
H61	H6	0.209300	0.968900	0.732100
H71	H7	0.048800	0.860900	0.673200
H81	H8	0.990600	0.778000	0.245200
H91	H9	0.115500	0.951400	0.762600
H101	H10	0.183300	0.850300	0.553000
Zn71	Zn7	0.968720	0.689530	0.537080
Zn81	Zn8	0.888380	0.609640	0.545890
Zn91	Zn9	0.820320	0.593990	0.701590
P111	P11	0.779820	0.550440	0.655900
P121	P12	0.937150	0.642040	0.587600
P131	P13	0.993810	0.700660	0.262500
P141	P14	0.874250	0.573410	0.773300
P151	P15	0.834540	0.633760	0.483700
O311	O31	0.750770	0.549800	0.672600
O321	O32	0.788420	0.547740	0.510500
O331	O33	0.789390	0.574850	0.711900
O341	O34	0.952300	0.657950	0.490700
O351	O35	0.922490	0.657810	0.682700
O361	O36	0.921300	0.624900	0.503900
O371	O37	0.994630	0.699100	0.414300
O381	O38	0.967790	0.694210	0.203200
O391	O39	0.015510	0.683780	0.208500
O401	O40	0.849470	0.570600	0.697400
O411	O41	0.890190	0.595560	0.726100
O421	O42	0.871800	0.574800	0.920500
O431	O43	0.862100	0.635400	0.541000
O441	O44	0.833400	0.635100	0.337300
O451	O45	0.820300	0.610400	0.527000
H111	H11	0.790700	0.531100	0.732100
H121	H12	0.951200	0.639100	0.673200
H131	H13	0.009400	0.722000	0.245200
H141	H14	0.884500	0.548600	0.762600
H151	H15	0.816700	0.649700	0.553000
Zn101	Zn10	0.468720	0.189530	0.037080
Zn111	Zn11	0.388380	0.109640	0.045890
Zn121	Zn12	0.320320	0.093990	0.201590
P161	P16	0.279820	0.050440	0.155900
P171	P17	0.437150	0.142040	0.087600
P181	P18	0.493810	0.200660	0.762500
P191	P19	0.374250	0.073410	0.273300
P201	P20	0.334540	0.133760	0.983700
O461	O46	0.250770	0.049800	0.172600
O471	O47	0.288420	0.047740	0.010500
O481	O48	0.289390	0.074850	0.211900
O491	O49	0.452300	0.157950	0.990700
O501	O50	0.422490	0.157810	0.182700
O511	O51	0.421300	0.124900	0.003900
O521	O52	0.494630	0.199100	0.914300
O531	O53	0.467790	0.194210	0.703200
O541	O54	0.515510	0.183780	0.708500
O551	O55	0.349470	0.070600	0.197400
O561	O56	0.390190	0.095560	0.226100
O571	O57	0.371800	0.074800	0.420500
O581	O58	0.362100	0.135400	0.041000
O591	O59	0.333400	0.135100	0.837300
O601	O60	0.320300	0.110400	0.027000
H161	H16	0.290700	0.031100	0.232100
H171	H17	0.451200	0.139100	0.173200
H181	H18	0.509400	0.222000	0.745200
H191	H19	0.384500	0.048600	0.262600
H201	H20	0.316700	0.149700	0.053000
Zn131	Zn13	0.939530	0.281280	0.287080
Zn141	Zn14	0.859640	0.361620	0.295890
Zn151	Zn15	0.843990	0.429680	0.451590
P211	P21	0.800440	0.470180	0.405900
P221	P22	0.892040	0.312850	0.337600
P231	P23	0.950660	0.256190	0.012500
P241	P24	0.823410	0.375750	0.523300
P251	P25	0.883760	0.415460	0.233700
O611	O61	0.799800	0.499230	0.422600
O621	O62	0.797740	0.461580	0.260500
O631	O63	0.824850	0.460610	0.461900
O641	O64	0.907950	0.297700	0.240700
O651	O65	0.907810	0.327510	0.432700
O661	O66	0.874900	0.328700	0.253900
O671	O67	0.949100	0.255370	0.164300
O681	O68	0.944210	0.282210	0.953200
O691	O69	0.933780	0.234490	0.958500
O701	O70	0.820600	0.400530	0.447400
O711	O71	0.845560	0.359810	0.476100
O721	O72	0.824800	0.378200	0.670500
O731	O73	0.885400	0.387900	0.291000
O741	O74	0.885100	0.416600	0.087300
O751	O75	0.860400	0.429700	0.277000
H211	H21	0.781100	0.459300	0.482100
H221	H22	0.889100	0.298800	0.423200
H231	H23	0.972000	0.240600	0.995200
H241	H24	0.798600	0.365500	0.512600
H251	H25	0.899700	0.433300	0.303000
Zn161	Zn16	0.439530	0.781280	0.787080
Zn171	Zn17	0.359640	0.861620	0.795890
Zn181	Zn18	0.343990	0.929680	0.951590
P261	P26	0.300440	0.970180	0.905900
P271	P27	0.392040	0.812850	0.837600
P281	P28	0.450660	0.756190	0.512500
P291	P29	0.323410	0.875750	0.023300
P301	P30	0.383760	0.915460	0.733700
O761	O76	0.299800	0.999230	0.922600
O771	O77	0.297740	0.961580	0.760500
O781	O78	0.324850	0.960610	0.961900
O791	O79	0.407950	0.797700	0.740700
O801	O80	0.407810	0.827510	0.932700
O811	O81	0.374900	0.828700	0.753900
O821	O82	0.449100	0.755370	0.664300
O831	O83	0.444210	0.782210	0.453200
O841	O84	0.433780	0.734490	0.458500
O851	O85	0.320600	0.900530	0.947400
O861	O86	0.345560	0.859810	0.976100
O871	O87	0.324800	0.878200	0.170500
O881	O88	0.385400	0.887900	0.791000
O891	O89	0.385100	0.916600	0.587300
O901	O90	0.360400	0.929700	0.777000
H261	H26	0.281100	0.959300	0.982100
H271	H27	0.389100	0.798800	0.923200
H281	H28	0.472000	0.740600	0.495200
H291	H29	0.298600	0.865500	0.012600
H301	H30	0.399700	0.933300	0.803000
Zn191	Zn19	0.560470	0.718720	0.787080
Zn201	Zn20	0.640360	0.638380	0.795890
Zn211	Zn21	0.656010	0.570320	0.951590
P311	P31	0.699560	0.529820	0.905900
P321	P32	0.607960	0.687150	0.837600
P331	P33	0.549340	0.743810	0.512500
P341	P34	0.676590	0.624250	0.023300
P351	P35	0.616240	0.584540	0.733700
O911	O91	0.700200	0.500770	0.922600
O921	O92	0.702260	0.538420	0.760500
O931	O93	0.675150	0.539390	0.961900
O941	O94	0.592050	0.702300	0.740700
O951	O95	0.592190	0.672490	0.932700
O961	O96	0.625100	0.671300	0.753900
O971	O97	0.550900	0.744630	0.664300
O981	O98	0.555790	0.717790	0.453200
O991	O99	0.566220	0.765510	0.458500
O1001	O100	0.679400	0.599470	0.947400
O1011	O101	0.654440	0.640190	0.976100
O1021	O102	0.675200	0.621800	0.170500
O1031	O103	0.614600	0.612100	0.791000
O1041	O104	0.614900	0.583400	0.587300
O1051	O105	0.639600	0.570300	0.777000
H311	H31	0.718900	0.540700	0.982100
H321	H32	0.610900	0.701200	0.923200
H331	H33	0.528000	0.759400	0.495200
H341	H34	0.701400	0.634500	0.012600
H351	H35	0.600300	0.566700	0.803000
Zn221	Zn22	0.060470	0.218720	0.287080
Zn231	Zn23	0.140360	0.138380	0.295890
Zn241	Zn24	0.156010	0.070320	0.451590
P361	P36	0.199560	0.029820	0.405900
P371	P37	0.107960	0.187150	0.337600
P381	P38	0.049340	0.243810	0.012500
P391	P39	0.176590	0.124250	0.523300
P401	P40	0.116240	0.084540	0.233700
O1061	O106	0.200200	0.000770	0.422600
O1071	O107	0.202260	0.038420	0.260500
O1081	O108	0.175150	0.039390	0.461900
O1091	O109	0.092050	0.202300	0.240700
O1101	O110	0.092190	0.172490	0.432700
O1111	O111	0.125100	0.171300	0.253900
O1121	O112	0.050900	0.244630	0.164300
O1131	O113	0.055790	0.217790	0.953200
O1141	O114	0.066220	0.265510	0.958500
O1151	O115	0.179400	0.099470	0.447400
O1161	O116	0.154440	0.140190	0.476100
O1171	O117	0.175200	0.121800	0.670500
O1181	O118	0.114600	0.112100	0.291000
O1191	O119	0.114900	0.083400	0.087300
O1201	O120	0.139600	0.070300	0.277000
H361	H36	0.218900	0.040700	0.482100
H371	H37	0.110900	0.201200	0.423200
H381	H38	0.028000	0.259400	0.995200
H391	H39	0.201400	0.134500	0.512600
H401	H40	0.100300	0.066700	0.303000
Zn251	Zn25	0.968720	0.310470	0.962920
Zn261	Zn26	0.888380	0.390360	0.954110
Zn271	Zn27	0.820320	0.406010	0.798410
P411	P41	0.779820	0.449560	0.844100
P421	P42	0.937150	0.357960	0.912400
P431	P43	0.993810	0.299340	0.237500
P441	P44	0.874250	0.426590	0.726700
P451	P45	0.834540	0.366240	0.016300
O1211	O121	0.750770	0.450200	0.827400
O1221	O122	0.788420	0.452260	0.989500
O1231	O123	0.789390	0.425150	0.788100
O1241	O124	0.952300	0.342050	0.009300
O1251	O125	0.922490	0.342190	0.817300
O1261	O126	0.921300	0.375100	0.996100
O1271	O127	0.994630	0.300900	0.085700
O1281	O128	0.967790	0.305790	0.296800
O1291	O129	0.015510	0.316220	0.291500
O1301	O130	0.849470	0.429400	0.802600
O1311	O131	0.890190	0.404440	0.773900
O1321	O132	0.871800	0.425200	0.579500
O1331	O133	0.862100	0.364600	0.959000
O1341	O134	0.833400	0.364900	0.162700
O1351	O135	0.820300	0.389600	0.973000
H411	H41	0.790700	0.468900	0.767900
H421	H42	0.951200	0.360900	0.826800
H431	H43	0.009400	0.278000	0.254800
H441	H44	0.884500	0.451400	0.737400
H451	H45	0.816700	0.350300	0.947000
Zn281	Zn28	0.468720	0.810470	0.462920
Zn291	Zn29	0.388380	0.890360	0.454110
Zn301	Zn30	0.320320	0.906010	0.298410
P461	P46	0.279820	0.949560	0.344100
P471	P47	0.437150	0.857960	0.412400
P481	P48	0.493810	0.799340	0.737500
P491	P49	0.374250	0.926590	0.226700
P501	P50	0.334540	0.866240	0.516300
O1361	O136	0.250770	0.950200	0.327400
O1371	O137	0.288420	0.952260	0.489500
O1381	O138	0.289390	0.925150	0.288100
O1391	O139	0.452300	0.842050	0.509300
O1401	O140	0.422490	0.842190	0.317300
O1411	O141	0.421300	0.875100	0.496100
O1421	O142	0.494630	0.800900	0.585700
O1431	O143	0.467790	0.805790	0.796800
O1441	O144	0.515510	0.816220	0.791500
O1451	O145	0.349470	0.929400	0.302600
O1461	O146	0.390190	0.904440	0.273900
O1471	O147	0.371800	0.925200	0.079500
O1481	O148	0.362100	0.864600	0.459000
O1491	O149	0.333400	0.864900	0.662700
O1501	O150	0.320300	0.889600	0.473000
H461	H46	0.290700	0.968900	0.267900
H471	H47	0.451200	0.860900	0.326800
H481	H48	0.509400	0.778000	0.754800
H491	H49	0.384500	0.951400	0.237400
H501	H50	0.316700	0.850300	0.447000
Zn311	Zn31	0.531280	0.689530	0.462920
Zn321	Zn32	0.611620	0.609640	0.454110
Zn331	Zn33	0.679680	0.593990	0.298410
P511	P51	0.720180	0.550440	0.344100
P521	P52	0.562850	0.642040	0.412400
P531	P53	0.506190	0.700660	0.737500
P541	P54	0.625750	0.573410	0.226700
P551	P55	0.665460	0.633760	0.516300
O1511	O151	0.749230	0.549800	0.327400
O1521	O152	0.711580	0.547740	0.489500
O1531	O153	0.710610	0.574850	0.288100
O1541	O154	0.547700	0.657950	0.509300
O1551	O155	0.577510	0.657810	0.317300
O1561	O156	0.578700	0.624900	0.496100
O1571	O157	0.505370	0.699100	0.585700
O1581	O158	0.532210	0.694210	0.796800
O1591	O159	0.484490	0.683780	0.791500
O1601	O160	0.650530	0.570600	0.302600
O1611	O161	0.609810	0.595560	0.273900
O1621	O162	0.628200	0.574800	0.079500
O1631	O163	0.637900	0.635400	0.459000
O1641	O164	0.666600	0.635100	0.662700
O1651	O165	0.679700	0.610400	0.473000
H511	H51	0.709300	0.531100	0.267900
H521	H52	0.548800	0.639100	0.326800
H531	H53	0.490600	0.722000	0.754800
H541	H54	0.615500	0.548600	0.237400
H551	H55	0.683300	0.649700	0.447000
Zn341	Zn34	0.031280	0.189530	0.962920
Zn351	Zn35	0.111620	0.109640	0.954110
Zn361	Zn36	0.179680	0.093990	0.798410
P561	P56	0.220180	0.050440	0.844100
P571	P57	0.062850	0.142040	0.912400
P581	P58	0.006190	0.200660	0.237500
P591	P59	0.125750	0.073410	0.726700
P601	P60	0.165460	0.133760	0.016300
O1661	O166	0.249230	0.049800	0.827400
O1671	O167	0.211580	0.047740	0.989500
O1681	O168	0.210610	0.074850	0.788100
O1691	O169	0.047700	0.157950	0.009300
O1701	O170	0.077510	0.157810	0.817300
O1711	O171	0.078700	0.124900	0.996100
O1721	O172	0.005370	0.199100	0.085700
O1731	O173	0.032210	0.194210	0.296800
O1741	O174	0.984490	0.183780	0.291500
O1751	O175	0.150530	0.070600	0.802600
O1761	O176	0.109810	0.095560	0.773900
O1771	O177	0.128200	0.074800	0.579500
O1781	O178	0.137900	0.135400	0.959000
O1791	O179	0.166600	0.135100	0.162700
O1801	O180	0.179700	0.110400	0.973000
H561	H56	0.209300	0.031100	0.767900
H571	H57	0.048800	0.139100	0.826800
H581	H58	0.990600	0.222000	0.254800
H591	H59	0.115500	0.048600	0.737400
H601	H60	0.183300	0.149700	0.947000
Zn371	Zn37	0.560470	0.281280	0.712920
Zn381	Zn38	0.640360	0.361620	0.704110
Zn391	Zn39	0.656010	0.429680	0.548410
P611	P61	0.699560	0.470180	0.594100
P621	P62	0.607960	0.312850	0.662400
P631	P63	0.549340	0.256190	0.987500
P641	P64	0.676590	0.375750	0.476700
P651	P65	0.616240	0.415460	0.766300
O1811	O181	0.700200	0.499230	0.577400
O1821	O182	0.702260	0.461580	0.739500
O1831	O183	0.675150	0.460610	0.538100
O1841	O184	0.592050	0.297700	0.759300
O1851	O185	0.592190	0.327510	0.567300
O1861	O186	0.625100	0.328700	0.746100
O1871	O187	0.550900	0.255370	0.835700
O1881	O188	0.555790	0.282210	0.046800
O1891	O189	0.566220	0.234490	0.041500
O1901	O190	0.679400	0.400530	0.552600
O1911	O191	0.654440	0.359810	0.523900
O1921	O192	0.675200	0.378200	0.329500
O1931	O193	0.614600	0.387900	0.709000
O1941	O194	0.614900	0.416600	0.912700
O1951	O195	0.639600	0.429700	0.723000
H611	H61	0.718900	0.459300	0.517900
H621	H62	0.610900	0.298800	0.576800
H631	H63	0.528000	0.240600	0.004800
H641	H64	0.701400	0.365500	0.487400
H651	H65	0.600300	0.433300	0.697000
Zn401	Zn40	0.060470	0.781280	0.212920
Zn411	Zn41	0.140360	0.861620	0.204110
Zn421	Zn42	0.156010	0.929680	0.048410
P661	P66	0.199560	0.970180	0.094100
P671	P67	0.107960	0.812850	0.162400
P681	P68	0.049340	0.756190	0.487500
P691	P69	0.176590	0.875750	0.976700
P701	P70	0.116240	0.915460	0.266300
O1961	O196	0.200200	0.999230	0.077400
O1971	O197	0.202260	0.961580	0.239500
O1981	O198	0.175150	0.960610	0.038100
O1991	O199	0.092050	0.797700	0.259300
O2001	O200	0.092190	0.827510	0.067300
O2011	O201	0.125100	0.828700	0.246100
O2021	O202	0.050900	0.755370	0.335700
O2031	O203	0.055790	0.782210	0.546800
O2041	O204	0.066220	0.734490	0.541500
O2051	O205	0.179400	0.900530	0.052600
O2061	O206	0.154440	0.859810	0.023900
O2071	O207	0.175200	0.878200	0.829500
O2081	O208	0.114600	0.887900	0.209000
O2091	O209	0.114900	0.916600	0.412700
O2101	O210	0.139600	0.929700	0.223000
H661	H66	0.218900	0.959300	0.017900
H671	H67	0.110900	0.798800	0.076800
H681	H68	0.028000	0.740600	0.504800
H691	H69	0.201400	0.865500	0.987400
H701	H70	0.100300	0.933300	0.197000
Zn431	Zn43	0.939530	0.718720	0.212920
Zn441	Zn44	0.859640	0.638380	0.204110
Zn451	Zn45	0.843990	0.570320	0.048410
P711	P71	0.800440	0.529820	0.094100
P721	P72	0.892040	0.687150	0.162400
P731	P73	0.950660	0.743810	0.487500
P741	P74	0.823410	0.624250	0.976700
P751	P75	0.883760	0.584540	0.266300
O2111	O211	0.799800	0.500770	0.077400
O2121	O212	0.797740	0.538420	0.239500
O2131	O213	0.824850	0.539390	0.038100
O2141	O214	0.907950	0.702300	0.259300
O2151	O215	0.907810	0.672490	0.067300
O2161	O216	0.874900	0.671300	0.246100
O2171	O217	0.949100	0.744630	0.335700
O2181	O218	0.944210	0.717790	0.546800
O2191	O219	0.933780	0.765510	0.541500
O2201	O220	0.820600	0.599470	0.052600
O2211	O221	0.845560	0.640190	0.023900
O2221	O222	0.824800	0.621800	0.829500
O2231	O223	0.885400	0.612100	0.209000
O2241	O224	0.885100	0.583400	0.412700
O2251	O225	0.860400	0.570300	0.223000
H711	H71	0.781100	0.540700	0.017900
H721	H72	0.889100	0.701200	0.076800
H731	H73	0.972000	0.759400	0.504800
H741	H74	0.798600	0.634500	0.987400
H751	H75	0.899700	0.566700	0.197000
Zn461	Zn46	0.439530	0.218720	0.712920
Zn471	Zn47	0.359640	0.138380	0.704110
Zn481	Zn48	0.343990	0.070320	0.548410
P761	P76	0.300440	0.029820	0.594100
P771	P77	0.392040	0.187150	0.662400
P781	P78	0.450660	0.243810	0.987500
P791	P79	0.323410	0.124250	0.476700
P801	P80	0.383760	0.084540	0.766300
O2261	O226	0.299800	0.000770	0.577400
O2271	O227	0.297740	0.038420	0.739500
O2281	O228	0.324850	0.039390	0.538100
O2291	O229	0.407950	0.202300	0.759300
O2301	O230	0.407810	0.172490	0.567300
O2311	O231	0.374900	0.171300	0.746100
O2321	O232	0.449100	0.244630	0.835700
O2331	O233	0.444210	0.217790	0.046800
O2341	O234	0.433780	0.265510	0.041500
O2351	O235	0.320600	0.099470	0.552600
O2361	O236	0.345560	0.140190	0.523900
O2371	O237	0.324800	0.121800	0.329500
O2381	O238	0.385400	0.112100	0.709000
O2391	O239	0.385100	0.083400	0.912700
O2401	O240	0.360400	0.070300	0.723000
H761	H76	0.281100	0.040700	0.517900
H771	H77	0.389100	0.201200	0.576800
H781	H78	0.472000	0.259400	0.004800
H791	H79	0.298600	0.134500	0.487400
H801	H80	0.399700	0.066700	0.697000
Zn491	Zn49	0.468720	0.689530	0.962920
Zn501	Zn50	0.388380	0.609640	0.954110
Zn511	Zn51	0.320320	0.593990	0.798410
P811	P81	0.279820	0.550440	0.844100
P821	P82	0.437150	0.642040	0.912400
P831	P83	0.493810	0.700660	0.237500
P841	P84	0.374250	0.573410	0.726700
P851	P85	0.334540	0.633760	0.016300
O2411	O241	0.250770	0.549800	0.827400
O2421	O242	0.288420	0.547740	0.989500
O2431	O243	0.289390	0.574850	0.788100
O2441	O244	0.452300	0.657950	0.009300
O2451	O245	0.422490	0.657810	0.817300
O2461	O246	0.421300	0.624900	0.996100
O2471	O247	0.494630	0.699100	0.085700
O2481	O248	0.467790	0.694210	0.296800
O2491	O249	0.515510	0.683780	0.291500
O2501	O250	0.349470	0.570600	0.802600
O2511	O251	0.390190	0.595560	0.773900
O2521	O252	0.371800	0.574800	0.579500
O2531	O253	0.362100	0.635400	0.959000
O2541	O254	0.333400	0.635100	0.162700
O2551	O255	0.320300	0.610400	0.973000
H811	H81	0.290700	0.531100	0.767900
H821	H82	0.451200	0.639100	0.826800
H831	H83	0.509400	0.722000	0.254800
H841	H84	0.384500	0.548600	0.737400
H851	H85	0.316700	0.649700	0.947000
Zn521	Zn52	0.968720	0.189530	0.462920
Zn531	Zn53	0.888380	0.109640	0.454110
Zn541	Zn54	0.820320	0.093990	0.298410
P861	P86	0.779820	0.050440	0.344100
P871	P87	0.937150	0.142040	0.412400
P881	P88	0.993810	0.200660	0.737500
P891	P89	0.874250	0.073410	0.226700
P901	P90	0.834540	0.133760	0.516300
O2561	O256	0.750770	0.049800	0.327400
O2571	O257	0.788420	0.047740	0.489500
O2581	O258	0.789390	0.074850	0.288100
O2591	O259	0.952300	0.157950	0.509300
O2601	O260	0.922490	0.157810	0.317300
O2611	O261	0.921300	0.124900	0.496100
O2621	O262	0.994630	0.199100	0.585700
O2631	O263	0.967790	0.194210	0.796800
O2641	O264	0.015510	0.183780	0.791500
O2651	O265	0.849470	0.070600	0.302600
O2661	O266	0.890190	0.095560	0.273900
O2671	O267	0.871800	0.074800	0.079500
O2681	O268	0.862100	0.135400	0.459000
O2691	O269	0.833400	0.135100	0.662700
O2701	O270	0.820300	0.110400	0.473000
H861	H86	0.790700	0.031100	0.267900
H871	H87	0.951200	0.139100	0.326800
H881	H88	0.009400	0.222000	0.754800
H891	H89	0.884500	0.048600	0.237400
H901	H90	0.816700	0.149700	0.447000
Zn551	Zn55	0.031280	0.310470	0.462920
Zn561	Zn56	0.111620	0.390360	0.454110
Zn571	Zn57	0.179680	0.406010	0.298410
P911	P91	0.220180	0.449560	0.344100
P921	P92	0.062850	0.357960	0.412400
P931	P93	0.006190	0.299340	0.737500
P941	P94	0.125750	0.426590	0.226700
P951	P95	0.165460	0.366240	0.516300
O2711	O271	0.249230	0.450200	0.327400
O2721	O272	0.211580	0.452260	0.489500
O2731	O273	0.210610	0.425150	0.288100
O2741	O274	0.047700	0.342050	0.509300
O2751	O275	0.077510	0.342190	0.317300
O2761	O276	0.078700	0.375100	0.496100
O2771	O277	0.005370	0.300900	0.585700
O2781	O278	0.032210	0.305790	0.796800
O2791	O279	0.984490	0.316220	0.791500
O2801	O280	0.150530	0.429400	0.302600
O2811	O281	0.109810	0.404440	0.273900
O2821	O282	0.128200	0.425200	0.079500
O2831	O283	0.137900	0.364600	0.459000
O2841	O284	0.166600	0.364900	0.662700
O2851	O285	0.179700	0.389600	0.473000
H911	H91	0.209300	0.468900	0.267900
H921	H92	0.048800	0.360900	0.326800
H931	H93	0.990600	0.278000	0.754800
H941	H94	0.115500	0.451400	0.237400
H951	H95	0.183300	0.350300	0.447000
Zn581	Zn58	0.531280	0.810470	0.962920
Zn591	Zn59	0.611620	0.890360	0.954110
Zn601	Zn60	0.679680	0.906010	0.798410
P961	P96	0.720180	0.949560	0.844100
P971	P97	0.562850	0.857960	0.912400
P981	P98	0.506190	0.799340	0.237500
P991	P99	0.625750	0.926590	0.726700
P1001	P100	0.665460	0.866240	0.016300
O2861	O286	0.749230	0.950200	0.827400
O2871	O287	0.711580	0.952260	0.989500
O2881	O288	0.710610	0.925150	0.788100
O2891	O289	0.547700	0.842050	0.009300
O2901	O290	0.577510	0.842190	0.817300
O2911	O291	0.578700	0.875100	0.996100
O2921	O292	0.505370	0.800900	0.085700
O2931	O293	0.532210	0.805790	0.296800
O2941	O294	0.484490	0.816220	0.291500
O2951	O295	0.650530	0.929400	0.802600
O2961	O296	0.609810	0.904440	0.773900
O2971	O297	0.628200	0.925200	0.579500
O2981	O298	0.637900	0.864600	0.959000
O2991	O299	0.666600	0.864900	0.162700
O3001	O300	0.679700	0.889600	0.973000
H961	H96	0.709300	0.968900	0.767900
H971	H97	0.548800	0.860900	0.826800
H981	H98	0.490600	0.778000	0.254800
H991	H99	0.615500	0.951400	0.737400
H1001	H100	0.683300	0.850300	0.947000
Zn611	Zn61	0.060470	0.718720	0.712920
Zn621	Zn62	0.140360	0.638380	0.704110
Zn631	Zn63	0.156010	0.570320	0.548410
P1011	P101	0.199560	0.529820	0.594100
P1021	P102	0.107960	0.687150	0.662400
P1031	P103	0.049340	0.743810	0.987500
P1041	P104	0.176590	0.624250	0.476700
P1051	P105	0.116240	0.584540	0.766300
O3011	O301	0.200200	0.500770	0.577400
O3021	O302	0.202260	0.538420	0.739500
O3031	O303	0.175150	0.539390	0.538100
O3041	O304	0.092050	0.702300	0.759300
O3051	O305	0.092190	0.672490	0.567300
O3061	O306	0.125100	0.671300	0.746100
O3071	O307	0.050900	0.744630	0.835700
O3081	O308	0.055790	0.717790	0.046800
O3091	O309	0.066220	0.765510	0.041500
O3101	O310	0.179400	0.599470	0.552600
O3111	O311	0.154440	0.640190	0.523900
O3121	O312	0.175200	0.621800	0.329500
O3131	O313	0.114600	0.612100	0.709000
O3141	O314	0.114900	0.583400	0.912700
O3151	O315	0.139600	0.570300	0.723000
H1011	H101	0.218900	0.540700	0.517900
H1021	H102	0.110900	0.701200	0.576800
H1031	H103	0.028000	0.759400	0.004800
H1041	H104	0.201400	0.634500	0.487400
H1051	H105	0.100300	0.566700	0.697000
Zn641	Zn64	0.560470	0.218720	0.212920
Zn651	Zn65	0.640360	0.138380	0.204110
Zn661	Zn66	0.656010	0.070320	0.048410
P1061	P106	0.699560	0.029820	0.094100
P1071	P107	0.607960	0.187150	0.162400
P1081	P108	0.549340	0.243810	0.487500
P1091	P109	0.676590	0.124250	0.976700
P1101	P110	0.616240	0.084540	0.266300
O3161	O316	0.700200	0.000770	0.077400
O3171	O317	0.702260	0.038420	0.239500
O3181	O318	0.675150	0.039390	0.038100
O3191	O319	0.592050	0.202300	0.259300
O3201	O320	0.592190	0.172490	0.067300
O3211	O321	0.625100	0.171300	0.246100
O3221	O322	0.550900	0.244630	0.335700
O3231	O323	0.555790	0.217790	0.546800
O3241	O324	0.566220	0.265510	0.541500
O3251	O325	0.679400	0.099470	0.052600
O3261	O326	0.654440	0.140190	0.023900
O3271	O327	0.675200	0.121800	0.829500
O3281	O328	0.614600	0.112100	0.209000
O3291	O329	0.614900	0.083400	0.412700
O3301	O330	0.639600	0.070300	0.223000
H1061	H106	0.718900	0.040700	0.017900
H1071	H107	0.610900	0.201200	0.076800
H1081	H108	0.528000	0.259400	0.504800
H1091	H109	0.701400	0.134500	0.987400
H1101	H110	0.600300	0.066700	0.197000
Zn671	Zn67	0.439530	0.281280	0.212920
Zn681	Zn68	0.359640	0.361620	0.204110
Zn691	Zn69	0.343990	0.429680	0.048410
P1111	P111	0.300440	0.470180	0.094100
P1121	P112	0.392040	0.312850	0.162400
P1131	P113	0.450660	0.256190	0.487500
P1141	P114	0.323410	0.375750	0.976700
P1151	P115	0.383760	0.415460	0.266300
O3311	O331	0.299800	0.499230	0.077400
O3321	O332	0.297740	0.461580	0.239500
O3331	O333	0.324850	0.460610	0.038100
O3341	O334	0.407950	0.297700	0.259300
O3351	O335	0.407810	0.327510	0.067300
O3361	O336	0.374900	0.328700	0.246100
O3371	O337	0.449100	0.255370	0.335700
O3381	O338	0.444210	0.282210	0.546800
O3391	O339	0.433780	0.234490	0.541500
O3401	O340	0.320600	0.400530	0.052600
O3411	O341	0.345560	0.359810	0.023900
O3421	O342	0.324800	0.378200	0.829500
O3431	O343	0.385400	0.387900	0.209000
O3441	O344	0.385100	0.416600	0.412700
O3451	O345	0.360400	0.429700	0.223000
H1111	H111	0.281100	0.459300	0.017900
H1121	H112	0.389100	0.298800	0.076800
H1131	H113	0.472000	0.240600	0.504800
H1141	H114	0.298600	0.365500	0.987400
H1151	H115	0.399700	0.433300	0.197000
Zn701	Zn70	0.939530	0.781280	0.712920
Zn711	Zn71	0.859640	0.861620	0.704110
Zn721	Zn72	0.843990	0.929680	0.548410
P1161	P116	0.800440	0.970180	0.594100
P1171	P117	0.892040	0.812850	0.662400
P1181	P118	0.950660	0.756190	0.987500
P1191	P119	0.823410	0.875750	0.476700
P1201	P120	0.883760	0.915460	0.766300
O3461	O346	0.799800	0.999230	0.577400
O3471	O347	0.797740	0.961580	0.739500
O3481	O348	0.824850	0.960610	0.538100
O3491	O349	0.907950	0.797700	0.759300
O3501	O350	0.907810	0.827510	0.567300
O3511	O351	0.874900	0.828700	0.746100
O3521	O352	0.949100	0.755370	0.835700
O3531	O353	0.944210	0.782210	0.046800
O3541	O354	0.933780	0.734490	0.041500
O3551	O355	0.820600	0.900530	0.552600
O3561	O356	0.845560	0.859810	0.523900
O3571	O357	0.824800	0.878200	0.329500
O3581	O358	0.885400	0.887900	0.709000
O3591	O359	0.885100	0.916600	0.912700
O3601	O360	0.860400	0.929700	0.723000
H1161	H116	0.781100	0.959300	0.517900
H1171	H117	0.889100	0.798800	0.576800
H1181	H118	0.972000	0.740600	0.004800
H1191	H119	0.798600	0.865500	0.487400
H1201	H120	0.899700	0.933300	0.697000
Zn731	Zn73	0.031280	0.689530	0.037080
Zn741	Zn74	0.111620	0.609640	0.045890
Zn751	Zn75	0.179680	0.593990	0.201590
P1211	P121	0.220180	0.550440	0.155900
P1221	P122	0.062850	0.642040	0.087600
P1231	P123	0.006190	0.700660	0.762500
P1241	P124	0.125750	0.573410	0.273300
P1251	P125	0.165460	0.633760	0.983700
O3611	O361	0.249230	0.549800	0.172600
O3621	O362	0.211580	0.547740	0.010500
O3631	O363	0.210610	0.574850	0.211900
O3641	O364	0.047700	0.657950	0.990700
O3651	O365	0.077510	0.657810	0.182700
O3661	O366	0.078700	0.624900	0.003900
O3671	O367	0.005370	0.699100	0.914300
O3681	O368	0.032210	0.694210	0.703200
O3691	O369	0.984490	0.683780	0.708500
O3701	O370	0.150530	0.570600	0.197400
O3711	O371	0.109810	0.595560	0.226100
O3721	O372	0.128200	0.574800	0.420500
O3731	O373	0.137900	0.635400	0.041000
O3741	O374	0.166600	0.635100	0.837300
O3751	O375	0.179700	0.610400	0.027000
H1211	H121	0.209300	0.531100	0.232100
H1221	H122	0.048800	0.639100	0.173200
H1231	H123	0.990600	0.722000	0.745200
H1241	H124	0.115500	0.548600	0.262600
H1251	H125	0.183300	0.649700	0.053000
Zn761	Zn76	0.531280	0.189530	0.537080
Zn771	Zn77	0.611620	0.109640	0.545890
Zn781	Zn78	0.679680	0.093990	0.701590
P1261	P126	0.720180	0.050440	0.655900
P1271	P127	0.562850	0.142040	0.587600
P1281	P128	0.506190	0.200660	0.262500
P1291	P129	0.625750	0.073410	0.773300
P1301	P130	0.665460	0.133760	0.483700
O3761	O376	0.749230	0.049800	0.672600
O3771	O377	0.711580	0.047740	0.510500
O3781	O378	0.710610	0.074850	0.711900
O3791	O379	0.547700	0.157950	0.490700
O3801	O380	0.577510	0.157810	0.682700
O3811	O381	0.578700	0.124900	0.503900
O3821	O382	0.505370	0.199100	0.414300
O3831	O383	0.532210	0.194210	0.203200
O3841	O384	0.484490	0.183780	0.208500
O3851	O385	0.650530	0.070600	0.697400
O3861	O386	0.609810	0.095560	0.726100
O3871	O387	0.628200	0.074800	0.920500
O3881	O388	0.637900	0.135400	0.541000
O3891	O389	0.666600	0.135100	0.337300
O3901	O390	0.679700	0.110400	0.527000
H1261	H126	0.709300	0.031100	0.732100
H1271	H127	0.548800	0.139100	0.673200
H1281	H128	0.490600	0.222000	0.245200
H1291	H129	0.615500	0.048600	0.762600
H1301	H130	0.683300	0.149700	0.553000
Zn791	Zn79	0.468720	0.310470	0.537080
Zn801	Zn80	0.388380	0.390360	0.545890
Zn811	Zn81	0.320320	0.406010	0.701590
P1311	P131	0.279820	0.449560	0.655900
P1321	P132	0.437150	0.357960	0.587600
P1331	P133	0.493810	0.299340	0.262500
P1341	P134	0.374250	0.426590	0.773300
P1351	P135	0.334540	0.366240	0.483700
O3911	O391	0.250770	0.450200	0.672600
O3921	O392	0.288420	0.452260	0.510500
O3931	O393	0.289390	0.425150	0.711900
O3941	O394	0.452300	0.342050	0.490700
O3951	O395	0.422490	0.342190	0.682700
O3961	O396	0.421300	0.375100	0.503900
O3971	O397	0.494630	0.300900	0.414300
O3981	O398	0.467790	0.305790	0.203200
O3991	O399	0.515510	0.316220	0.208500
O4001	O400	0.349470	0.429400	0.697400
O4011	O401	0.390190	0.404440	0.726100
O4021	O402	0.371800	0.425200	0.920500
O4031	O403	0.362100	0.364600	0.541000
O4041	O404	0.333400	0.364900	0.337300
O4051	O405	0.320300	0.389600	0.527000
H1311	H131	0.290700	0.468900	0.732100
H1321	H132	0.451200	0.360900	0.673200
H1331	H133	0.509400	0.278000	0.245200
H1341	H134	0.384500	0.451400	0.762600
H1351	H135	0.316700	0.350300	0.553000
Zn821	Zn82	0.968720	0.810470	0.037080
Zn831	Zn83	0.888380	0.890360	0.045890
Zn841	Zn84	0.820320	0.906010	0.201590
P1361	P136	0.779820	0.949560	0.155900
P1371	P137	0.937150	0.857960	0.087600
P1381	P138	0.993810	0.799340	0.762500
P1391	P139	0.874250	0.926590	0.273300
P1401	P140	0.834540	0.866240	0.983700
O4061	O406	0.750770	0.950200	0.172600
O4071	O407	0.788420	0.952260	0.010500
O4081	O408	0.789390	0.925150	0.211900
O4091	O409	0.952300	0.842050	0.990700
O4101	O410	0.922490	0.842190	0.182700
O4111	O411	0.921300	0.875100	0.003900
O4121	O412	0.994630	0.800900	0.914300
O4131	O413	0.967790	0.805790	0.703200
O4141	O414	0.015510	0.816220	0.708500
O4151	O415	0.849470	0.929400	0.197400
O4161	O416	0.890190	0.904440	0.226100
O4171	O417	0.871800	0.925200	0.420500
O4181	O418	0.862100	0.864600	0.041000
O4191	O419	0.833400	0.864900	0.837300
O4201	O420	0.820300	0.889600	0.027000
H1361	H136	0.790700	0.968900	0.232100
H1371	H137	0.951200	0.860900	0.173200
H1381	H138	0.009400	0.778000	0.745200
H1391	H139	0.884500	0.951400	0.262600
H1401	H140	0.816700	0.850300	0.053000
Zn851	Zn85	0.439530	0.718720	0.287080
Zn861	Zn86	0.359640	0.638380	0.295890
Zn871	Zn87	0.343990	0.570320	0.451590
P1411	P141	0.300440	0.529820	0.405900
P1421	P142	0.392040	0.687150	0.337600
P1431	P143	0.450660	0.743810	0.012500
P1441	P144	0.323410	0.624250	0.523300
P1451	P145	0.383760	0.584540	0.233700
O4211	O421	0.299800	0.500770	0.422600
O4221	O422	0.297740	0.538420	0.260500
O4231	O423	0.324850	0.539390	0.461900
O4241	O424	0.407950	0.702300	0.240700
O4251	O425	0.407810	0.672490	0.432700
O4261	O426	0.374900	0.671300	0.253900
O4271	O427	0.449100	0.744630	0.164300
O4281	O428	0.444210	0.717790	0.953200
O4291	O429	0.433780	0.765510	0.958500
O4301	O430	0.320600	0.599470	0.447400
O4311	O431	0.345560	0.640190	0.476100
O4321	O432	0.324800	0.621800	0.670500
O4331	O433	0.385400	0.612100	0.291000
O4341	O434	0.385100	0.583400	0.087300
O4351	O435	0.360400	0.570300	0.277000
H1411	H141	0.281100	0.540700	0.482100
H1421	H142	0.389100	0.701200	0.423200
H1431	H143	0.472000	0.759400	0.995200
H1441	H144	0.298600	0.634500	0.512600
H1451	H145	0.399700	0.566700	0.303000
Zn881	Zn88	0.939530	0.218720	0.787080
Zn891	Zn89	0.859640	0.138380	0.795890
Zn901	Zn90	0.843990	0.070320	0.951590
P1461	P146	0.800440	0.029820	0.905900
P1471	P147	0.892040	0.187150	0.837600
P1481	P148	0.950660	0.243810	0.512500
P1491	P149	0.823410	0.124250	0.023300
P1501	P150	0.883760	0.084540	0.733700
O4361	O436	0.799800	0.000770	0.922600
O4371	O437	0.797740	0.038420	0.760500
O4381	O438	0.824850	0.039390	0.961900
O4391	O439	0.907950	0.202300	0.740700
O4401	O440	0.907810	0.172490	0.932700
O4411	O441	0.874900	0.171300	0.753900
O4421	O442	0.949100	0.244630	0.664300
O4431	O443	0.944210	0.217790	0.453200
O4441	O444	0.933780	0.265510	0.458500
O4451	O445	0.820600	0.099470	0.947400
O4461	O446	0.845560	0.140190	0.976100
O4471	O447	0.824800	0.121800	0.170500
O4481	O448	0.885400	0.112100	0.791000
O4491	O449	0.885100	0.083400	0.587300
O4501	O450	0.860400	0.070300	0.777000
H1461	H146	0.781100	0.040700	0.982100
H1471	H147	0.889100	0.201200	0.923200
H1481	H148	0.972000	0.259400	0.495200
H1491	H149	0.798600	0.134500	0.012600
H1501	H150	0.899700	0.066700	0.803000
Zn911	Zn91	0.060470	0.281280	0.787080
Zn921	Zn92	0.140360	0.361620	0.795890
Zn931	Zn93	0.156010	0.429680	0.951590
P1511	P151	0.199560	0.470180	0.905900
P1521	P152	0.107960	0.312850	0.837600
P1531	P153	0.049340	0.256190	0.512500
P1541	P154	0.176590	0.375750	0.023300
P1551	P155	0.116240	0.415460	0.733700
O4511	O451	0.200200	0.499230	0.922600
O4521	O452	0.202260	0.461580	0.760500
O4531	O453	0.175150	0.460610	0.961900
O4541	O454	0.092050	0.297700	0.740700
O4551	O455	0.092190	0.327510	0.932700
O4561	O456	0.125100	0.328700	0.753900
O4571	O457	0.050900	0.255370	0.664300
O4581	O458	0.055790	0.282210	0.453200
O4591	O459	0.066220	0.234490	0.458500
O4601	O460	0.179400	0.400530	0.947400
O4611	O461	0.154440	0.359810	0.976100
O4621	O462	0.175200	0.378200	0.170500
O4631	O463	0.114600	0.387900	0.791000
O4641	O464	0.114900	0.416600	0.587300
O4651	O465	0.139600	0.429700	0.777000
H1511	H151	0.218900	0.459300	0.982100
H1521	H152	0.110900	0.298800	0.923200
H1531	H153	0.028000	0.240600	0.495200
H1541	H154	0.201400	0.365500	0.012600
H1551	H155	0.100300	0.433300	0.803000
Zn941	Zn94	0.560470	0.781280	0.287080
Zn951	Zn95	0.640360	0.861620	0.295890
Zn961	Zn96	0.656010	0.929680	0.451590
P1561	P156	0.699560	0.970180	0.405900
P1571	P157	0.607960	0.812850	0.337600
P1581	P158	0.549340	0.756190	0.012500
P1591	P159	0.676590	0.875750	0.523300
P1601	P160	0.616240	0.915460	0.233700
O4661	O466	0.700200	0.999230	0.422600
O4671	O467	0.702260	0.961580	0.260500
O4681	O468	0.675150	0.960610	0.461900
O4691	O469	0.592050	0.797700	0.240700
O4701	O470	0.592190	0.827510	0.432700
O4711	O471	0.625100	0.828700	0.253900
O4721	O472	0.550900	0.755370	0.164300
O4731	O473	0.555790	0.782210	0.953200
O4741	O474	0.566220	0.734490	0.958500
O4751	O475	0.679400	0.900530	0.447400
O4761	O476	0.654440	0.859810	0.476100
O4771	O477	0.675200	0.878200	0.670500
O4781	O478	0.614600	0.887900	0.291000
O4791	O479	0.614900	0.916600	0.087300
O4801	O480	0.639600	0.929700	0.277000
H1561	H156	0.718900	0.959300	0.482100
H1571	H157	0.610900	0.798800	0.423200
H1581	H158	0.528000	0.740600	0.995200
H1591	H159	0.701400	0.865500	0.512600
H1601	H160	0.600300	0.933300	0.303000
Ga11	Ga1	0.774250	0.475750	0.125000
Ga21	Ga2	0.274250	0.975750	0.625000
Ga31	Ga3	0.725750	0.524250	0.625000
Ga41	Ga4	0.225750	0.024250	0.125000
Ga51	Ga5	0.774250	0.524250	0.375000
Ga61	Ga6	0.274250	0.024250	0.875000
Ga71	Ga7	0.725750	0.475750	0.875000
Ga81	Ga8	0.225750	0.975750	0.375000
Ga91	Ga9	0.225750	0.524250	0.875000
Ga101	Ga10	0.725750	0.024250	0.375000
Ga111	Ga11	0.274250	0.475750	0.375000
Ga121	Ga12	0.774250	0.975750	0.875000
Ga131	Ga13	0.225750	0.475750	0.625000
Ga141	Ga14	0.725750	0.975750	0.125000
Ga151	Ga15	0.274250	0.524250	0.125000
Ga161	Ga16	0.774250	0.024250	0.625000
Zn971	Zn97	0.585180	0.335180	0.375000
Zn981	Zn98	0.085180	0.835180	0.875000
Zn991	Zn99	0.914820	0.664820	0.875000
Zn1001	Zn100	0.414820	0.164820	0.375000
Zn1011	Zn101	0.914820	0.335180	0.625000
Zn1021	Zn102	0.414820	0.835180	0.125000
Zn1031	Zn103	0.585180	0.664820	0.125000
Zn1041	Zn104	0.085180	0.164820	0.625000
Zn1051	Zn105	0.414820	0.664820	0.625000
Zn1061	Zn106	0.914820	0.164820	0.125000
Zn1071	Zn107	0.085180	0.335180	0.125000
Zn1081	Zn108	0.585180	0.835180	0.625000
Zn1091	Zn109	0.085180	0.664820	0.375000
Zn1101	Zn110	0.585180	0.164820	0.875000
Zn1111	Zn111	0.414820	0.335180	0.875000
Zn1121	Zn112	0.914820	0.835180	0.375000
F11	F1	0.750000	0.490680	0.000000
F21	F2	0.250000	0.990680	0.500000
F31	F3	0.750000	0.509320	0.500000
F41	F4	0.250000	0.009320	0.000000
F51	F5	0.759320	0.500000	0.250000
F61	F6	0.259320	0.000000	0.750000
F71	F7	0.740680	0.500000	0.750000
F81	F8	0.240680	0.000000	0.250000
F91	F9	0.250000	0.509320	0.000000
F101	F10	0.750000	0.009320	0.500000
F111	F11	0.250000	0.490680	0.500000
F121	F12	0.750000	0.990680	0.000000
F131	F13	0.240680	0.500000	0.750000
F141	F14	0.740680	0.000000	0.250000
F151	F15	0.259320	0.500000	0.250000
F161	F16	0.759320	0.000000	0.750000
