data_LETPOR01_ion_b_PM
_symmetry_space_group_name_H-M	'P1'
_cell_length_a	37.232000
_cell_length_b	37.232000
_cell_length_c	37.232000
_cell_angle_alpha	91.038100
_cell_angle_beta	91.038100
_cell_angle_gamma	164.529000
_symmetry_Int_Tables_number 1

loop_
_symmetry_equiv_pos_as_xyz
'x,y,z'

loop_
_atom_site_label
_atom_site_type_symbol
_atom_site_fract_x
_atom_site_fract_y
_atom_site_fract_z
Zn11	Zn1	0.452090	0.356730	0.970550
Zn21	Zn2	0.538320	0.280450	0.975090
Zn31	Zn3	0.748320	0.409490	0.018190
P41	P4	0.741330	0.318950	0.007480
P51	P5	0.570310	0.393280	0.951370
P61	P6	0.153300	0.102930	0.960710
P71	P7	0.780450	0.471830	0.945200
P81	P8	0.528870	0.242370	0.050310
O91	O9	0.808430	0.354770	0.037780
O101	O10	0.583660	0.161750	0.014840
O111	O11	0.772460	0.384990	0.033910
O121	O12	0.458960	0.312560	0.967040
O131	O13	0.663320	0.478620	0.990210
O141	O14	0.485640	0.274090	0.954130
O151	O15	0.283690	0.208010	0.947460
O161	O16	0.101620	0.018180	0.980760
O171	O17	0.057440	0.003450	0.921700
O181	O18	0.771220	0.429180	0.971420
O191	O19	0.721140	0.444370	0.972190
O201	O20	0.942280	0.635390	0.958740
O211	O21	0.516620	0.263590	0.022220
O221	O22	0.366660	0.076190	0.044160
O231	O23	0.877400	0.675050	0.961100
O241	O24	0.810680	0.676600	0.970700
O251	O25	0.571440	0.253460	0.021220
N261	N26	0.563060	0.487620	0.833400
N271	N27	0.404860	0.033160	0.076840
C281	C28	0.518070	0.407380	0.837680
C291	C29	0.415950	0.034690	0.115100
C301	C30	0.413420	0.066030	0.139110
C311	C31	0.594190	0.416490	0.846700
C321	C32	0.427240	0.069350	0.179180
C331	C33	0.640160	0.499680	0.844500
C341	C34	0.423220	0.098910	0.203580
C351	C35	0.441600	0.106540	0.243450
H361	H36	0.890530	0.662610	0.969190
H371	H37	0.900330	0.769500	0.963760
H381	H38	0.478310	0.422650	0.828890
H391	H39	0.616480	0.540450	0.811080
H401	H40	0.395430	0.000520	0.061110
H411	H41	0.492230	0.130990	0.071880
H421	H42	0.450670	0.333630	0.812790
H431	H43	0.458560	0.349060	0.860950
H441	H44	0.512880	0.113550	0.122890
H451	H45	0.330110	0.933990	0.119340
H461	H46	0.316010	0.986610	0.131620
H471	H47	0.498540	0.166100	0.134590
H481	H48	0.538660	0.353780	0.820260
H491	H49	0.526830	0.348850	0.868010
H501	H50	0.684340	0.485970	0.853500
H511	H51	0.524820	0.149010	0.186610
H521	H52	0.342500	0.969420	0.183490
H531	H53	0.703610	0.562930	0.822160
H541	H54	0.703430	0.568500	0.870380
H551	H55	0.323930	0.017040	0.196990
H561	H56	0.505440	0.197060	0.198920
H571	H57	0.361240	0.009890	0.248690
H581	H58	0.434350	0.124040	0.260550
H591	H59	0.542810	0.191640	0.251040
H601	H60	0.698630	0.767600	0.143290
H611	H61	0.896680	0.249430	0.930380
Zn621	Zn62	0.386130	0.481430	0.029460
Zn631	Zn63	0.305480	0.563270	0.024930
Zn641	Zn64	0.391330	0.730090	0.981820
P651	P65	0.311490	0.733800	0.992520
P661	P66	0.441980	0.618930	0.048680
P671	P67	0.142280	0.192570	0.039290
P681	P68	0.526750	0.835290	0.054810
P691	P69	0.192160	0.478600	0.949700
O701	O70	0.317120	0.770730	0.962230
O711	O71	0.146950	0.568810	0.985170
O721	O72	0.351190	0.738590	0.966080
O731	O73	0.345610	0.491950	0.032950
O741	O74	0.488710	0.673350	0.009870
O751	O75	0.320040	0.531510	0.045890
O761	O76	0.260400	0.336070	0.052530
O771	O77	0.037360	0.120700	0.019220
O781	O78	0.081730	0.135650	0.078290
O791	O79	0.457850	0.799800	0.028580
O801	O80	0.472290	0.748970	0.027840
O811	O81	0.676720	0.983520	0.041240
O821	O82	0.241520	0.494470	0.977780
O831	O83	0.032140	0.322520	0.955850
O841	O84	0.714100	0.916480	0.038990
O851	O85	0.706340	0.840460	0.029590
O861	O86	0.232290	0.550210	0.978800
N871	N87	0.654340	0.730000	0.166790
N881	N88	0.956530	0.328150	0.923130
C891	C89	0.569770	0.680650	0.162460
C901	C90	0.919770	0.300920	0.884870
C911	C91	0.926900	0.274150	0.860900
C921	C92	0.569640	0.747510	0.153150
C931	C93	0.890290	0.247990	0.820820
C941	C94	0.655010	0.795650	0.155360
C951	C95	0.895090	0.219170	0.796470
C961	C96	0.863260	0.198050	0.756570
H971	H97	0.693920	0.921830	0.030770
H981	H98	0.806180	0.937110	0.036500
H991	H99	0.594020	0.649930	0.171500
H1001	H100	0.729830	0.806170	0.189020
H1011	H101	0.939650	0.334500	0.938850
H1021	H102	0.059320	0.420480	0.928090
H1031	H103	0.521410	0.638770	0.187410
H1041	H104	0.487780	0.597380	0.139300
H1051	H105	0.990900	0.390080	0.877050
H1061	H106	0.814860	0.210900	0.880630
H1071	H107	0.854800	0.184120	0.868410
H1081	H108	0.031400	0.363650	0.865440
H1091	H109	0.534020	0.719170	0.179640
H1101	H110	0.480280	0.658350	0.131980
H1111	H111	0.632110	0.830600	0.146120
H1121	H112	0.962760	0.338290	0.813360
H1131	H113	0.786190	0.159150	0.816480
H1141	H114	0.741030	0.881940	0.177560
H1151	H115	0.697340	0.832330	0.129410
H1161	H116	0.819410	0.126200	0.803040
H1171	H117	0.997680	0.305730	0.801180
H1181	H118	0.761590	0.112770	0.751270
H1191	H119	0.863370	0.173400	0.739500
H1201	H120	0.941140	0.291930	0.749000
H1211	H121	0.624670	0.555800	0.856860
H1221	H122	0.318910	0.966100	0.069630
Zn1231	Zn123	0.106770	0.636260	0.404710
Zn1241	Zn124	0.030500	0.555390	0.242170
Zn1251	Zn125	0.159410	0.641220	0.161240
P1261	P126	0.069070	0.561550	0.077680
P1271	P127	0.143270	0.691890	0.323000
P1281	P128	0.852980	0.392320	0.449730
P1291	P129	0.221760	0.776560	0.191440
P1301	P130	0.992490	0.442140	0.213560
O1311	O131	0.104760	0.566890	0.046420
O1321	O132	0.911870	0.397000	0.078190
O1331	O133	0.134940	0.601010	0.112610
O1341	O134	0.062600	0.595580	0.353670
O1351	O135	0.228590	0.738350	0.315350
O1361	O136	0.024050	0.569880	0.288500
O1371	O137	0.958020	0.510590	0.424390
O1381	O138	0.768200	0.287470	0.416660
O1391	O139	0.753470	0.331820	0.446090
O1401	O140	0.179070	0.707640	0.158040
O1411	O141	0.194460	0.722250	0.223300
O1421	O142	0.385300	0.926550	0.193120
O1431	O143	0.013690	0.491430	0.247030
O1441	O144	0.826320	0.282110	0.209590
O1451	O145	0.425130	0.964020	0.297760
O1461	O146	0.426650	0.955820	0.366020
O1471	O147	0.003530	0.482290	0.182090
N1481	N148	0.237780	0.904460	0.424330
N1491	N149	0.783220	0.206370	0.128290
C1501	C150	0.157350	0.819720	0.389130
C1511	C151	0.784730	0.169590	0.118900
C1521	C152	0.816040	0.177040	0.152880
C1531	C153	0.166110	0.819270	0.322110
C1541	C154	0.819570	0.140450	0.142580
C1551	C155	0.249480	0.904860	0.359310
C1561	C156	0.849090	0.145770	0.176300
C1571	C157	0.857020	0.113760	0.165770
H1581	H158	0.412580	0.943400	0.272180
H1591	H159	0.519470	0.055630	0.369250
H1601	H160	0.172910	0.844200	0.444130
H1611	H161	0.290750	0.979720	0.423670
H1621	H162	0.750620	0.189410	0.105010
H1631	H163	0.881060	0.309200	0.138720
H1641	H164	0.083820	0.771110	0.382730
H1651	H165	0.098780	0.737930	0.390410
H1661	H166	0.863620	0.240590	0.100860
H1671	H167	0.684030	0.064590	0.104060
H1681	H168	0.736550	0.105130	0.170830
H1691	H169	0.916040	0.281640	0.167810
H1701	H170	0.103600	0.783220	0.314900
H1711	H171	0.098260	0.730170	0.321910
H1721	H172	0.235460	0.881720	0.301430
H1731	H173	0.899360	0.212720	0.124720
H1741	H174	0.719740	0.036210	0.127400
H1751	H175	0.313020	0.990660	0.359030
H1761	H176	0.318040	0.947500	0.364900
H1771	H177	0.767050	0.070390	0.193650
H1781	H178	0.947120	0.248560	0.192230
H1791	H179	0.760410	0.011780	0.149540
H1801	H180	0.874710	0.114480	0.190610
H1811	H181	0.942100	0.191200	0.149660
H1821	H182	0.517210	0.874140	0.568950
H1831	H183	0.999550	0.569330	0.852940
Zn1841	Zn184	0.231470	0.702040	0.595310
Zn1851	Zn185	0.313220	0.788300	0.757820
Zn1861	Zn186	0.480120	0.998230	0.838770
P1871	P187	0.483910	0.991350	0.922340
P1881	P188	0.368890	0.820220	0.676990
P1891	P189	0.942520	0.403260	0.550310
P1901	P190	0.585130	0.030280	0.808540
P1911	P191	0.228610	0.778910	0.786480
O1921	O192	0.520630	0.058390	0.953590
O1931	O193	0.318870	0.833670	0.921840
O1941	O194	0.488650	0.022480	0.887410
O1951	O195	0.241980	0.709080	0.646360
O1961	O196	0.423390	0.913520	0.684700
O1971	O197	0.281420	0.735550	0.711500
O1981	O198	0.086010	0.533520	0.575690
O1991	O199	0.870580	0.351390	0.583340
O2001	O200	0.885680	0.307400	0.553940
O2011	O201	0.549720	0.021070	0.841960
O2021	O202	0.498900	0.971080	0.776720
O2031	O203	0.733480	0.192160	0.806870
O2041	O204	0.244390	0.766600	0.752990
O2051	O205	0.072530	0.616700	0.790440
O2061	O206	0.666480	0.127510	0.702410
O2071	O207	0.590480	0.060930	0.634170
O2081	O208	0.300220	0.821410	0.817950
N2091	N209	0.479710	0.813110	0.575590
N2101	N210	0.078340	0.655510	0.871710
C2111	C211	0.430620	0.768240	0.610860
C2121	C212	0.050780	0.666240	0.881080
C2131	C213	0.024050	0.663350	0.847100
C2141	C214	0.497890	0.844680	0.677850
C2151	C215	0.997550	0.676980	0.857380
C2161	C216	0.545760	0.890450	0.640590
C2171	C217	0.968840	0.672450	0.823650
C2181	C218	0.947010	0.690560	0.834160
H2191	H219	0.671630	0.140880	0.727950
H2201	H220	0.687150	0.150670	0.630990
H2211	H221	0.399530	0.728260	0.555860
H2221	H222	0.555900	0.867100	0.576180
H2231	H223	0.085180	0.646730	0.895020
H2241	H224	0.170520	0.742750	0.861170
H2251	H225	0.388910	0.701530	0.617300
H2261	H226	0.347280	0.708040	0.609670
H2271	H227	0.139780	0.763160	0.899120
H2281	H228	0.960640	0.580370	0.895940
H2291	H229	0.934210	0.565900	0.829170
H2301	H230	0.113680	0.748420	0.832150
H2311	H231	0.469590	0.789850	0.685070
H2321	H232	0.408770	0.776710	0.678150
H2331	H233	0.581120	0.934870	0.698470
H2341	H234	0.087680	0.774680	0.875210
H2351	H235	0.908570	0.592370	0.872590
H2361	H236	0.632100	0.954620	0.640770
H2371	H237	0.582270	0.952950	0.634980
H2381	H238	0.876190	0.573070	0.806320
H2391	H239	0.055680	0.754580	0.807710
H2401	H240	0.861400	0.610250	0.850440
H2411	H241	0.922510	0.683020	0.809310
H2421	H242	0.040530	0.791800	0.850210
H2431	H243	0.305840	0.949060	0.430940
H2441	H244	0.716130	0.146610	0.147140
Zn2451	Zn245	0.863760	0.393250	0.595310
Zn2461	Zn246	0.944650	0.469550	0.757840
Zn2471	Zn247	0.858740	0.340530	0.838800
P2481	P248	0.938570	0.431050	0.922370
P2491	P249	0.808100	0.356710	0.677010
P2501	P250	0.107640	0.646990	0.550290
P2511	P251	0.723390	0.278160	0.808580
P2521	P252	0.057950	0.507620	0.786480
O2531	O253	0.933070	0.395250	0.953650
O2541	O254	0.103130	0.588270	0.921890
O2551	O255	0.898930	0.364990	0.887450
O2561	O256	0.904410	0.437380	0.646350
O2571	O257	0.761650	0.271420	0.684670
O2581	O258	0.930120	0.475960	0.711510
O2591	O259	0.989470	0.542040	0.575660
O2601	O260	0.212570	0.731820	0.583340
O2611	O261	0.168160	0.746510	0.553930
O2621	O262	0.792340	0.320890	0.841990
O2631	O263	0.777840	0.305640	0.776720
O2641	O264	0.573400	0.114600	0.806850
O2651	O265	0.008630	0.486390	0.752990
O2661	O266	0.217960	0.673790	0.790430
O2671	O267	0.536060	0.074960	0.702280
O2681	O268	0.544200	0.073410	0.634020
O2691	O269	0.017790	0.496560	0.817950
N2701	N270	0.595780	0.262380	0.575580
N2711	N271	0.293610	0.716750	0.871720
C2721	C272	0.680340	0.342670	0.610810
C2731	C273	0.330410	0.715260	0.881110
C2741	C274	0.322970	0.683960	0.847140
C2751	C275	0.680380	0.333650	0.677840
C2761	C276	0.359690	0.680560	0.857450
C2771	C277	0.594960	0.250420	0.640620
C2781	C278	0.354340	0.650980	0.823730
C2791	C279	0.386580	0.643300	0.834270
H2801	H280	0.556650	0.087500	0.727870
H2811	H281	0.444380	0.980530	0.630770
H2821	H282	0.656190	0.327330	0.555790
H2831	H283	0.520570	0.209470	0.576180
H2841	H284	0.310620	0.749400	0.894990
H2851	H285	0.190780	0.618910	0.861290
H2861	H286	0.729070	0.416310	0.617180
H2871	H287	0.762040	0.401120	0.609610
H2881	H288	0.259430	0.636390	0.899160
H2891	H289	0.435410	0.815960	0.895950
H2901	H290	0.394840	0.763410	0.829180
H2911	H291	0.218360	0.583920	0.832220
H2921	H292	0.716610	0.396330	0.685020
H2931	H293	0.769340	0.401320	0.678110
H2941	H294	0.617740	0.264200	0.698520
H2951	H295	0.287520	0.600850	0.875330
H2961	H296	0.463970	0.780460	0.872600
H2971	H297	0.509290	0.187060	0.640830
H2981	H298	0.552120	0.181690	0.635060
H2991	H299	0.429560	0.732890	0.806350
H3001	H300	0.251480	0.552860	0.807840
H3011	H301	0.488630	0.740020	0.850470
H3021	H302	0.385840	0.625580	0.809430
H3031	H303	0.309300	0.558330	0.850410
H3041	H304	0.625620	0.982420	0.430950
H3051	H305	0.930640	0.500410	0.147080
Zn3061	Zn306	0.797980	0.268560	0.404710
Zn3071	Zn307	0.711750	0.186820	0.242180
Zn3081	Zn308	0.501770	0.019910	0.161200
P3091	P309	0.508790	0.016200	0.077640
P3101	P310	0.679830	0.131180	0.323030
P3111	P311	0.096780	0.557520	0.449710
P3121	P312	0.469640	0.914810	0.191440
P3131	P313	0.721180	0.271480	0.213510
O3141	O314	0.441590	0.979290	0.046360
O3151	O315	0.666410	0.181200	0.078100
O3161	O316	0.477450	0.011290	0.112560
O3171	O317	0.790980	0.258090	0.353660
O3181	O318	0.586530	0.076680	0.315320
O3191	O319	0.764490	0.218640	0.288520
O3201	O320	0.966460	0.413970	0.424350
O3211	O321	0.148590	0.629390	0.416650
O3221	O322	0.192610	0.614330	0.446090
O3231	O323	0.478880	0.950260	0.158020
O3241	O324	0.528930	0.001100	0.223290
O3251	O325	0.307820	0.766540	0.193170
O3261	O326	0.733390	0.255620	0.247000
O3271	O327	0.883410	0.427550	0.209560
O3281	O328	0.372590	0.833610	0.297600
O3291	O329	0.439210	0.909620	0.365860
O3301	O330	0.678600	0.199790	0.182040
N3311	N331	0.686540	0.019810	0.424270
N3321	N332	0.844500	0.421640	0.128300
C3331	C333	0.731650	0.069200	0.389050
C3341	C334	0.833740	0.449170	0.118930
C3351	C335	0.836640	0.475910	0.152920
C3361	C336	0.655600	0.002540	0.322060
C3371	C337	0.823050	0.502440	0.142640
C3381	C338	0.609590	0.954410	0.359290
C3391	C339	0.827580	0.531170	0.176380
C3401	C340	0.809480	0.553000	0.165870
H3411	H341	0.359100	0.828340	0.272070
H3421	H342	0.349460	0.812970	0.369080
H3431	H343	0.771290	0.099800	0.444030
H3441	H344	0.632380	0.943470	0.423590
H3451	H345	0.853400	0.414920	0.104990
H3461	H346	0.757240	0.329430	0.138820
H3471	H347	0.798080	0.110610	0.382550
H3481	H348	0.792190	0.152820	0.390350
H3491	H349	0.736830	0.360190	0.100890
H3501	H350	0.919600	0.539300	0.104070
H3511	H351	0.934100	0.565740	0.170850
H3521	H352	0.751580	0.386280	0.167870
H3531	H353	0.710050	0.030440	0.314790
H3541	H354	0.723990	0.092000	0.321860
H3551	H355	0.565560	0.919610	0.301430
H3561	H356	0.725350	0.412310	0.124820
H3571	H357	0.907670	0.591420	0.127430
H3581	H358	0.545030	0.867750	0.359020
H3591	H359	0.547420	0.918250	0.364950
H3601	H360	0.926950	0.623800	0.193710
H3611	H361	0.745440	0.444320	0.192320
H3621	H362	0.889770	0.638590	0.149580
H3631	H363	0.817050	0.577520	0.190720
H3641	H364	0.708230	0.459480	0.149830
H3651	H365	0.551140	0.194270	0.569000
H3661	H366	0.353350	0.783820	0.852850
Zn3671	Zn367	0.018550	0.113820	0.970540
Zn3681	Zn368	0.936820	0.194600	0.975110
Zn3691	Zn369	0.770020	0.108750	0.018160
P3701	P370	0.766210	0.188520	0.007530
P3711	P371	0.881210	0.058150	0.951400
P3721	P372	0.307560	0.357840	0.960720
P3731	P373	0.664880	0.973390	0.945190
P3741	P374	0.021460	0.307890	0.050340
O3751	O375	0.729470	0.183040	0.037840
O3761	O376	0.931240	0.353030	0.014860
O3771	O377	0.761540	0.148890	0.033910
O3781	O378	0.008300	0.154610	0.967030
O3791	O379	0.827160	0.011730	0.990260
O3801	O380	0.968610	0.180070	0.954160
O3811	O381	0.163800	0.239330	0.947460
O3821	O382	0.379040	0.462440	0.980760
O3831	O383	0.364420	0.418360	0.921720
O3841	O384	0.700350	0.042280	0.971410
O3851	O385	0.751120	0.027800	0.972190
O3861	O386	0.516610	0.823420	0.958750
O3871	O387	0.005610	0.258560	0.022240
O3881	O388	0.177540	0.467920	0.044200
O3891	O389	0.583980	0.786230	0.961130
O3901	O390	0.660090	0.794070	0.970820
O3911	O391	0.949890	0.267800	0.021240
N3921	N392	0.769880	0.845550	0.833140
N3931	N393	0.171960	0.543590	0.076890
C3941	C394	0.819340	0.930210	0.837520
C3951	C395	0.199180	0.580330	0.115160
C3961	C396	0.225930	0.573180	0.139130
C3971	C397	0.752670	0.930530	0.846920
C3981	C398	0.252000	0.609710	0.179210
C3991	C399	0.704400	0.845050	0.844650
C4001	C400	0.280790	0.604880	0.203550
C4011	C401	0.301800	0.636590	0.243450
H4021	H402	0.578700	0.806530	0.969230
H4031	H403	0.563450	0.694280	0.963810
H4041	H404	0.849910	0.905820	0.828420
H4051	H405	0.693730	0.770110	0.810910
H4061	H406	0.165520	0.560380	0.061180
H4071	H407	0.079650	0.440810	0.071930
H4081	H408	0.861290	0.978650	0.812590
H4091	H409	0.902580	0.012130	0.860690
H4101	H410	0.109990	0.509170	0.122980
H4111	H411	0.289200	0.685240	0.119410
H4121	H412	0.315970	0.645290	0.131630
H4131	H413	0.136430	0.468680	0.134570
H4141	H414	0.781100	0.966270	0.820450
H4151	H415	0.841800	0.019820	0.868100
H4161	H416	0.669610	0.868100	0.853960
H4171	H417	0.161670	0.537200	0.186660
H4181	H418	0.340830	0.713800	0.183560
H4191	H419	0.618130	0.759090	0.822440
H4201	H420	0.667660	0.802630	0.870590
H4211	H421	0.373810	0.680620	0.196990
H4221	H422	0.194260	0.502300	0.198820
H4231	H423	0.387060	0.738250	0.248770
H4241	H424	0.326400	0.636430	0.260520
H4251	H425	0.207890	0.558670	0.251000
H4261	H426	0.944180	0.875290	0.143100
H4271	H427	0.533970	0.181140	0.930380
Zn4281	Zn428	0.143280	0.047920	0.029450
Zn4291	Zn429	0.219510	0.961660	0.024910
Zn4301	Zn430	0.090610	0.751820	0.981840
P4311	P431	0.181120	0.758770	0.992510
P4321	P432	0.106790	0.929760	0.048680
P4331	P433	0.397060	0.346700	0.039270
P4341	P434	0.028350	0.719750	0.054840
P4351	P435	0.257560	0.971070	0.949680
O4361	O436	0.145310	0.691690	0.962180
O4371	O437	0.338350	0.916480	0.985190
O4381	O438	0.115040	0.727620	0.966090
O4391	O439	0.187400	0.041000	0.032950
O4401	O440	0.021290	0.836570	0.009860
O4411	O441	0.225950	0.014410	0.045900
O4421	O442	0.292050	0.216350	0.052520
O4431	O443	0.481870	0.398420	0.019220
O4441	O444	0.496560	0.442580	0.078270
O4451	O445	0.070940	0.728930	0.028600
O4461	O446	0.055630	0.778880	0.027820
O4471	O447	0.864790	0.557870	0.041320
O4481	O448	0.236380	0.983380	0.977780
O4491	O449	0.423730	0.133280	0.955820
O4501	O450	0.824830	0.622440	0.038950
O4511	O451	0.823360	0.689220	0.029470
O4521	O452	0.246550	0.928600	0.978790
N4531	N453	0.012320	0.936860	0.166560
N4541	N454	0.466880	0.095160	0.923160
C4551	C455	0.092560	0.981860	0.162300
C4561	C456	0.465330	0.084060	0.884900
C4571	C457	0.433990	0.086580	0.860880
C4581	C458	0.083450	0.905730	0.153290
C4591	C459	0.430590	0.072680	0.820820
C4601	C460	0.000260	0.859760	0.155470
C4611	C461	0.401040	0.076730	0.796430
C4621	C462	0.393280	0.058230	0.756560
H4631	H463	0.837260	0.609320	0.030790
H4641	H464	0.730440	0.599490	0.036380
H4651	H465	0.077290	0.021610	0.171080
H4661	H466	0.959440	0.883400	0.188870
H4671	H467	0.499480	0.104540	0.938890
H4681	H468	0.369060	0.007810	0.928120
H4691	H469	0.166260	0.049200	0.187200
H4701	H470	0.150950	0.041430	0.139030
H4711	H471	0.386440	0.987110	0.877110
H4721	H472	0.566040	0.169900	0.880650
H4731	H473	0.513410	0.184000	0.868370
H4741	H474	0.333940	0.001490	0.865410
H4751	H475	0.146120	0.961220	0.179740
H4761	H476	0.151130	0.973130	0.131990
H4771	H477	0.013970	0.815580	0.146490
H4781	H478	0.350870	0.975070	0.813380
H4791	H479	0.530470	0.157380	0.816480
H4801	H480	0.936950	0.796260	0.177790
H4811	H481	0.931490	0.796540	0.129580
H4821	H482	0.482990	0.176070	0.803010
H4831	H483	0.302940	0.994570	0.801110
H4841	H484	0.489880	0.138520	0.751290
H4851	H485	0.375800	0.065500	0.739460
H4861	H486	0.308140	0.956990	0.748980
H4871	H487	0.732230	0.801190	0.856630
H4881	H488	0.250710	0.603480	0.069630
Zn4891	Zn489	0.297940	0.893300	0.529460
Zn4901	Zn490	0.211660	0.969520	0.524910
Zn4911	Zn491	0.001800	0.840610	0.481830
P4921	P492	0.008720	0.931060	0.492510
P4931	P493	0.179740	0.856760	0.548640
P4941	P494	0.596760	0.147120	0.539290
P4951	P495	0.969680	0.778280	0.554820
P4961	P496	0.221090	0.007570	0.449680
O4971	O497	0.941590	0.895210	0.462190
O4981	O498	0.166480	0.088350	0.485190
O4991	O499	0.977610	0.865040	0.466070
O5001	O500	0.291120	0.937510	0.532980
O5011	O501	0.086750	0.771430	0.509790
O5021	O502	0.264400	0.975940	0.545880
O5031	O503	0.466330	0.041980	0.552530
O5041	O504	0.648390	0.231850	0.519240
O5051	O505	0.692590	0.246580	0.578300
O5061	O506	0.978880	0.820900	0.528590
O5071	O507	0.028880	0.805630	0.527810
O5081	O508	0.807820	0.614720	0.541290
O5091	O509	0.233400	0.986400	0.477770
O5101	O510	0.383290	0.173750	0.455810
O5111	O511	0.872530	0.574860	0.538890
O5121	O512	0.939290	0.573350	0.529270
O5131	O513	0.178620	0.996560	0.478790
N5141	N514	0.186900	0.762350	0.666590
N5151	N515	0.345160	0.216880	0.423150
C5161	C516	0.231910	0.842590	0.662310
C5171	C517	0.334070	0.215330	0.384890
C5181	C518	0.336600	0.184000	0.360880
C5191	C519	0.155790	0.833500	0.653270
C5201	C520	0.322720	0.180620	0.320810
C5211	C521	0.109820	0.750310	0.655480
C5221	C522	0.326750	0.151070	0.296420
C5231	C523	0.308270	0.143330	0.256550
H5241	H524	0.859550	0.587450	0.530800
H5251	H525	0.849630	0.480480	0.536210
H5261	H526	0.271650	0.827320	0.671110
H5271	H527	0.133480	0.709530	0.688910
H5281	H528	0.354520	0.249450	0.438870
H5291	H529	0.257830	0.119060	0.428110
H5301	H530	0.299280	0.916330	0.687200
H5311	H531	0.291440	0.900940	0.639040
H5321	H532	0.237130	0.136460	0.377100
H5331	H533	0.419900	0.316040	0.380640
H5341	H534	0.434010	0.263430	0.368360
H5351	H535	0.251500	0.083950	0.365400
H5361	H536	0.211320	0.896210	0.679710
H5371	H537	0.223160	0.901140	0.631970
H5381	H538	0.065640	0.764020	0.646460
H5391	H539	0.225110	0.100920	0.313370
H5401	H540	0.407410	0.280510	0.316480
H5411	H541	0.046360	0.687050	0.677810
H5421	H542	0.046560	0.681490	0.629600
H5431	H543	0.426080	0.233000	0.303000
H5441	H544	0.244590	0.052960	0.301090
H5451	H545	0.388580	0.239950	0.251290
H5461	H546	0.315540	0.125860	0.239440
H5471	H547	0.207030	0.058200	0.248970
H5481	H548	0.051360	0.482390	0.356700
H5491	H549	0.853400	0.000630	0.569630
Zn5501	Zn550	0.363870	0.768570	0.470560
Zn5511	Zn551	0.444470	0.686660	0.475080
Zn5521	Zn552	0.358730	0.519990	0.518140
P5531	P553	0.438430	0.516140	0.507490
P5541	P554	0.308080	0.631130	0.451320
P5551	P555	0.607770	0.057470	0.460720
P5561	P556	0.223290	0.414750	0.445160
P5571	P557	0.557800	0.771380	0.550320
O5581	O558	0.432990	0.479420	0.537810
O5591	O559	0.602980	0.681200	0.514820
O5601	O560	0.398910	0.511530	0.533880
O5611	O561	0.404480	0.758140	0.467050
O5621	O562	0.261380	0.576750	0.490140
O5631	O563	0.429990	0.718510	0.454110
O5641	O564	0.489550	0.913910	0.447470
O5651	O565	0.712650	0.129290	0.480780
O5661	O566	0.668310	0.114390	0.421720
O5671	O567	0.292260	0.450310	0.471390
O5681	O568	0.277650	0.500950	0.472160
O5691	O569	0.073320	0.266490	0.458730
O5701	O570	0.508460	0.755510	0.522220
O5711	O571	0.717850	0.927490	0.544190
O5721	O572	0.035970	0.333600	0.461030
O5731	O573	0.043630	0.409530	0.470450
O5741	O574	0.517750	0.699840	0.521220
N5751	N575	0.095640	0.519970	0.333200
N5761	N576	0.793510	0.921880	0.576890
C5771	C577	0.180230	0.569340	0.337540
C5781	C578	0.830250	0.949110	0.615160
C5791	C579	0.823130	0.975880	0.639130
C5801	C580	0.180410	0.502530	0.346880
C5811	C581	0.859620	0.001930	0.679210
C5821	C582	0.095020	0.454370	0.344660
C5831	C583	0.854820	0.030760	0.703550
C5841	C584	0.886490	0.051730	0.743440
H5851	H585	0.056130	0.328220	0.469230
H5861	H586	0.943810	0.312840	0.463500
H5871	H587	0.155940	0.600020	0.328470
H5881	H588	0.020140	0.443780	0.310970
H5891	H589	0.810330	0.915470	0.561180
H5901	H590	0.690720	0.829580	0.571940
H5911	H591	0.228580	0.611210	0.312590
H5921	H592	0.262230	0.652630	0.360690
H5931	H593	0.759110	0.859930	0.622980
H5941	H594	0.935160	0.039120	0.619410
H5951	H595	0.895260	0.065940	0.631630
H5961	H596	0.718630	0.886390	0.634560
H5971	H597	0.216030	0.530870	0.320390
H5981	H598	0.269780	0.591710	0.368040
H5991	H599	0.117960	0.419450	0.353920
H6001	H600	0.787080	0.911570	0.686670
H6011	H601	0.963690	0.090720	0.683570
H6021	H602	0.008990	0.368060	0.322470
H6031	H603	0.052710	0.417720	0.370620
H6041	H604	0.930610	0.123810	0.696990
H6051	H605	0.752270	0.944260	0.698810
H6061	H606	0.988150	0.136980	0.748780
H6071	H607	0.886340	0.076350	0.760520
H6081	H608	0.808550	0.957810	0.751000
H6091	H609	0.125300	0.694170	0.643140
H6101	H610	0.431160	0.284000	0.430380
Zn6111	Zn611	0.643240	0.613760	0.095290
Zn6121	Zn612	0.719500	0.694610	0.257830
Zn6131	Zn613	0.590480	0.608690	0.338780
P6141	P614	0.680990	0.688520	0.422330
P6151	P615	0.606700	0.558080	0.176990
P6161	P616	0.896970	0.857620	0.050280
P6171	P617	0.528170	0.473400	0.308570
P6181	P618	0.757530	0.807870	0.286460
O6191	O619	0.645180	0.682990	0.453610
O6201	O620	0.838230	0.853100	0.421890
O6211	O621	0.614880	0.648830	0.387390
O6221	O622	0.687350	0.654390	0.146340
O6231	O623	0.521360	0.511580	0.184640
O6241	O624	0.725930	0.680100	0.211490
O6251	O625	0.792030	0.739450	0.075640
O6261	O626	0.981820	0.962560	0.083320
O6271	O627	0.996500	0.918150	0.053910
O6281	O628	0.570810	0.542260	0.341980
O6291	O629	0.555620	0.527840	0.276720
O6301	O630	0.364620	0.323410	0.306850
O6311	O631	0.736310	0.758550	0.252990
O6321	O632	0.923700	0.967880	0.290410
O6331	O633	0.324920	0.286020	0.202260
O6341	O634	0.323420	0.294200	0.133990
O6351	O635	0.746510	0.767750	0.317930
N6361	N636	0.512240	0.345570	0.075660
N6371	N637	0.966740	0.043580	0.371700
C6381	C638	0.592660	0.430300	0.110860
C6391	C639	0.965250	0.080380	0.381090
C6401	C640	0.933950	0.072940	0.347120
C6411	C641	0.583900	0.430720	0.177890
C6421	C642	0.930500	0.109610	0.357410
C6431	C643	0.500530	0.345140	0.140690
C6441	C644	0.900980	0.104300	0.323700
C6451	C645	0.893150	0.136410	0.334230
H6461	H646	0.337370	0.306540	0.227840
H6471	H647	0.230550	0.194370	0.130740
H6481	H648	0.577110	0.405840	0.055860
H6491	H649	0.459280	0.270320	0.076320
H6501	H650	0.999380	0.060580	0.394980
H6511	H651	0.868900	0.940760	0.361270
H6521	H652	0.666190	0.478900	0.117260
H6531	H653	0.651240	0.512080	0.109600
H6541	H654	0.886380	0.009400	0.399140
H6551	H655	0.065970	0.185390	0.395930
H6561	H656	0.013440	0.144840	0.329170
H6571	H657	0.833950	0.968340	0.332180
H6581	H658	0.646400	0.466760	0.185090
H6591	H659	0.651760	0.519820	0.178090
H6601	H660	0.514560	0.368270	0.198570
H6611	H661	0.850740	0.037370	0.375280
H6621	H662	0.030360	0.213860	0.372580
H6631	H663	0.436990	0.259340	0.140960
H6641	H664	0.431970	0.302500	0.135100
H6651	H665	0.982970	0.179620	0.306340
H6661	H666	0.802900	0.001480	0.307780
H6671	H667	0.989790	0.238400	0.350450
H6681	H668	0.875460	0.135690	0.309390
H6691	H669	0.808110	0.059030	0.350340
H6701	H670	0.232830	0.375880	0.931050
H6711	H671	0.750400	0.680600	0.647070
Zn6721	Zn672	0.518520	0.547940	0.904690
Zn6731	Zn673	0.436800	0.461730	0.742170
Zn6741	Zn674	0.269870	0.251740	0.661200
P6751	P675	0.266090	0.258660	0.577620
P6761	P676	0.381080	0.429750	0.823010
P6771	P677	0.807430	0.846700	0.949690
P6781	P678	0.164800	0.219630	0.691440
P6791	P679	0.521420	0.471120	0.713500
O6801	O680	0.229280	0.191560	0.546370
O6811	O681	0.431140	0.416340	0.578110
O6821	O682	0.261350	0.227530	0.612560
O6831	O683	0.507980	0.540880	0.853630
O6841	O684	0.326590	0.336460	0.815280
O6851	O685	0.468570	0.514450	0.788500
O6861	O686	0.663960	0.716450	0.924290
O6871	O687	0.879410	0.898610	0.916650
O6881	O688	0.864260	0.942550	0.946080
O6891	O689	0.200210	0.228830	0.658020
O6901	O690	0.251070	0.278890	0.723270
O6911	O691	0.016510	0.057800	0.693160
O6921	O692	0.505630	0.483420	0.746990
O6931	O693	0.677470	0.633340	0.709540
O6941	O694	0.083490	0.122480	0.797570
O6951	O695	0.159550	0.189140	0.865830
O6961	O696	0.449730	0.428550	0.682030
N6971	N697	0.270350	0.436930	0.924420
N6981	N698	0.671620	0.594440	0.628300
C6991	C699	0.319380	0.481760	0.889150
C7001	C700	0.699180	0.583710	0.618920
C7011	C701	0.725930	0.586620	0.652910
C7021	C702	0.252020	0.405270	0.822150
C7031	C703	0.752480	0.573060	0.642640
C7041	C704	0.204200	0.359530	0.859420
C7051	C705	0.781190	0.577560	0.676370
C7061	C706	0.803080	0.559520	0.665860
H7071	H707	0.078270	0.109060	0.772030
H7081	H708	0.062910	0.099390	0.869050
H7091	H709	0.350550	0.521790	0.944160
H7101	H710	0.194180	0.382980	0.923850
H7111	H711	0.664850	0.603300	0.604990
H7121	H712	0.579420	0.507190	0.638830
H7131	H713	0.361140	0.548510	0.882720
H7141	H714	0.402690	0.541920	0.890320
H7151	H715	0.610190	0.486790	0.600890
H7161	H716	0.789300	0.669570	0.604070
H7171	H717	0.815760	0.684080	0.670840
H7181	H718	0.636280	0.501540	0.667860
H7191	H719	0.280330	0.460100	0.814940
H7201	H720	0.341130	0.473210	0.821840
H7211	H721	0.168770	0.315060	0.801530
H7221	H722	0.662380	0.475380	0.624810
H7231	H723	0.841470	0.657690	0.627430
H7241	H724	0.117890	0.295410	0.859250
H7251	H725	0.167630	0.296980	0.865020
H7261	H726	0.873790	0.676910	0.693710
H7271	H727	0.694310	0.495390	0.692300
H7281	H728	0.888710	0.639850	0.649580
H7291	H729	0.827590	0.567080	0.690710
H7301	H730	0.709590	0.458290	0.649810
H7311	H731	0.444180	0.300970	0.069060
H7321	H732	0.033790	0.103300	0.352830
Zn7331	Zn733	0.886250	0.856750	0.904700
Zn7341	Zn734	0.805340	0.780450	0.742160
Zn7351	Zn735	0.891160	0.909360	0.661230
P7361	P736	0.811410	0.818920	0.577660
P7371	P737	0.941860	0.893230	0.822980
P7381	P738	0.642310	0.602970	0.949710
P7391	P739	0.026510	0.971720	0.691420
P7401	P740	0.692080	0.742420	0.713540
O7411	O741	0.816910	0.854760	0.546400
O7421	O742	0.646850	0.661720	0.578150
O7431	O743	0.850900	0.884820	0.612580
O7441	O744	0.845580	0.812590	0.853650
O7451	O745	0.988280	0.978520	0.815330
O7461	O746	0.819800	0.773970	0.788490
O7471	O747	0.760540	0.707980	0.924360
O7481	O748	0.537410	0.518140	0.916650
O7491	O749	0.581830	0.503480	0.946070
O7501	O750	0.957610	0.929050	0.658020
O7511	O751	0.972210	0.944410	0.723290
O7521	O752	0.176510	0.135260	0.693110
O7531	O753	0.741330	0.763580	0.747020
O7541	O754	0.532060	0.576260	0.709580
O7551	O755	0.213920	0.175030	0.797720
O7561	O756	0.205840	0.176670	0.865990
O7571	O757	0.732250	0.753490	0.682070
N7581	N758	0.154250	0.987640	0.924410
N7591	N759	0.456310	0.533170	0.628280
C7601	C760	0.069660	0.907330	0.889180
C7611	C761	0.419520	0.534680	0.618880
C7621	C762	0.426960	0.565980	0.652850
C7631	C763	0.069560	0.916310	0.822160
C7641	C764	0.390340	0.569460	0.642540
C7651	C765	0.155010	0.999560	0.859370
C7661	C766	0.395680	0.599030	0.676260
C7671	C767	0.363520	0.606800	0.665730
H7681	H768	0.193330	0.162500	0.772140
H7691	H769	0.305660	0.269500	0.869210
H7701	H770	0.093860	0.922700	0.944190
H7711	H771	0.229470	0.040560	0.923790
H7721	H772	0.439360	0.500590	0.605000
H7731	H773	0.559140	0.631010	0.638710
H7741	H774	0.020920	0.833680	0.882810
H7751	H775	0.987970	0.848890	0.890390
H7761	H776	0.490520	0.613550	0.600840
H7771	H777	0.314530	0.433980	0.604040
H7781	H778	0.355070	0.486510	0.670810
H7791	H779	0.531580	0.666000	0.667780
H7801	H780	0.033310	0.853620	0.814980
H7811	H781	0.980590	0.848640	0.821910
H7821	H782	0.132180	0.985750	0.801480
H7831	H783	0.462560	0.649210	0.624670
H7841	H784	0.286080	0.469610	0.627380
H7851	H785	0.240680	0.062930	0.859150
H7861	H786	0.197840	0.068280	0.864940
H7871	H787	0.320410	0.517090	0.693630
H7881	H788	0.498520	0.697120	0.692160
H7891	H789	0.261470	0.510090	0.649520
H7901	H790	0.364290	0.624540	0.690570
H7911	H791	0.440830	0.691780	0.649590
H7921	H792	0.124410	0.267610	0.069050
H7931	H793	0.819300	0.749530	0.352930
Zn7941	Zn794	0.952000	0.981420	0.095270
Zn7951	Zn795	0.038270	0.063180	0.257810
Zn7961	Zn796	0.248210	0.230090	0.338780
P7971	P797	0.241300	0.233870	0.422330
P7981	P798	0.070130	0.118780	0.176960
P7991	P799	0.653160	0.692420	0.050280
P8001	P800	0.280280	0.335130	0.308530
P8011	P801	0.028870	0.978570	0.286470
O8021	O802	0.308360	0.270640	0.453610
O8031	O803	0.083550	0.068780	0.421850
O8041	O804	0.272440	0.238600	0.387420
O8051	O805	0.958980	0.991880	0.146320
O8061	O806	0.163420	0.173270	0.184670
O8071	O807	0.985470	0.031320	0.211470
O8081	O808	0.783520	0.836010	0.075630
O8091	O809	0.601410	0.620600	0.083340
O8101	O810	0.557320	0.635580	0.053920
O8111	O811	0.271010	0.299670	0.341960
O8121	O812	0.221100	0.248910	0.276710
O8131	O813	0.442160	0.483470	0.306840
O8141	O814	0.016550	0.994310	0.252980
O8151	O815	0.866650	0.822480	0.290430
O8161	O816	0.377430	0.416390	0.202380
O8171	O817	0.310820	0.340360	0.134130
O8181	O818	0.071370	0.050190	0.317930
N8191	N819	0.063500	0.230240	0.075740
N8201	N820	0.905440	0.828300	0.371710
C8211	C821	0.018390	0.180830	0.110960
C8221	C822	0.916220	0.800790	0.381080
C8231	C823	0.913340	0.774070	0.347090
C8241	C824	0.094430	0.247470	0.177940
C8251	C825	0.927010	0.747620	0.357370
C8261	C826	0.140440	0.295620	0.140710
C8271	C827	0.922470	0.718880	0.323630
C8281	C828	0.940670	0.697150	0.334140
H8291	H829	0.390820	0.421560	0.227910
H8301	H830	0.400550	0.437010	0.130940
H8311	H831	0.978750	0.150250	0.055980
H8321	H832	0.117670	0.306590	0.076430
H8331	H833	0.896620	0.835100	0.395020
H8341	H834	0.992690	0.920510	0.361180
H8351	H835	0.951940	0.139400	0.117460
H8361	H836	0.957850	0.097220	0.109650
H8371	H837	0.013160	0.889800	0.399110
H8381	H838	0.830380	0.710670	0.395940
H8391	H839	0.815880	0.684220	0.329160
H8401	H840	0.998390	0.863690	0.332140
H8411	H841	0.039960	0.219560	0.185220
H8421	H842	0.026050	0.158030	0.178140
H8431	H843	0.184470	0.330410	0.198570
H8441	H844	0.024730	0.837770	0.375190
H8451	H845	0.842430	0.658650	0.372580
H8461	H846	0.204990	0.382270	0.140990
H8471	H847	0.202620	0.331780	0.135050
H8481	H848	0.823070	0.626200	0.306310
H8491	H849	0.004560	0.805690	0.307680
H8501	H850	0.860390	0.611560	0.350430
H8511	H851	0.933130	0.672650	0.309300
H8521	H852	0.041930	0.790690	0.350190
H8531	H853	0.198900	0.055750	0.930990
H8541	H854	0.396550	0.466090	0.647140
Zn8551	Zn855	0.731480	0.136210	0.529460
Zn8561	Zn856	0.813180	0.055400	0.524890
Zn8571	Zn857	0.980030	0.141280	0.481800
P8581	P858	0.983800	0.061530	0.492500
P8591	P859	0.868850	0.191910	0.548600
P8601	P860	0.442500	0.892210	0.539290
P8611	P861	0.085170	0.276630	0.554780
P8621	P862	0.728500	0.942050	0.449670
O8631	O863	0.020730	0.067140	0.462260
O8641	O864	0.818770	0.896930	0.485140
O8651	O865	0.988660	0.101300	0.466070
O8661	O866	0.741820	0.095520	0.532970
O8671	O867	0.922920	0.238340	0.509750
O8681	O868	0.781340	0.069900	0.545820
O8691	O869	0.586220	0.010650	0.552540
O8701	O870	0.370960	0.787550	0.519240
O8711	O871	0.385640	0.831710	0.578300
O8721	O872	0.049720	0.207770	0.528550
O8731	O873	0.998890	0.222210	0.527800
O8741	O874	0.233470	0.426650	0.541230
O8751	O875	0.744420	0.991460	0.477740
O8761	O876	0.572450	0.782040	0.455840
O8771	O877	0.166110	0.463840	0.538880
O8781	O878	0.089900	0.455910	0.529240
O8791	O879	0.800130	0.982220	0.478790
N8801	N880	0.980080	0.404430	0.666850
N8811	N881	0.578060	0.706430	0.423110
C8821	C882	0.930650	0.319780	0.662480
C8831	C883	0.550830	0.669690	0.384850
C8841	C884	0.524090	0.676840	0.360880
C8851	C885	0.997360	0.319500	0.653100
C8861	C886	0.497970	0.640280	0.320790
C8871	C887	0.045600	0.404960	0.655360
C8881	C888	0.469200	0.645130	0.296450
C8891	C889	0.448130	0.613360	0.256550
H8901	H890	0.171440	0.443600	0.530790
H8911	H891	0.186550	0.555710	0.536200
H8921	H892	0.900040	0.344140	0.671560
H8931	H893	0.056220	0.479850	0.689090
H8941	H894	0.584410	0.689550	0.438830
H8951	H895	0.670380	0.809210	0.428070
H8961	H896	0.888700	0.271350	0.687420
H8971	H897	0.847410	0.237850	0.639310
H8981	H898	0.640020	0.740840	0.377020
H8991	H899	0.460820	0.564780	0.380600
H9001	H900	0.434070	0.604760	0.368380
H9011	H901	0.613610	0.781360	0.365430
H9021	H902	0.968940	0.283780	0.679580
H9031	H903	0.908230	0.230200	0.631920
H9041	H904	0.080420	0.381940	0.646070
H9051	H905	0.588280	0.712760	0.313340
H9061	H906	0.409130	0.536180	0.316440
H9071	H907	0.131860	0.490920	0.677570
H9081	H908	0.082350	0.447380	0.629430
H9091	H909	0.376210	0.569430	0.303020
H9101	H910	0.555750	0.747720	0.301180
H9111	H911	0.362840	0.511680	0.251240
H9121	H912	0.423500	0.613490	0.239480
H9131	H913	0.542010	0.691240	0.248990
H9141	H914	0.805820	0.374710	0.356920
H9151	H915	0.216110	0.068930	0.569610
Zn9161	Zn916	0.606720	0.202100	0.470550
Zn9171	Zn917	0.530460	0.288330	0.475080
Zn9181	Zn918	0.659440	0.498260	0.518170
P9191	P919	0.568950	0.491340	0.507490
P9201	P920	0.643280	0.320320	0.451320
P9211	P921	0.352970	0.903340	0.460720
P9221	P922	0.721810	0.530430	0.445200
P9231	P923	0.492390	0.278890	0.550310
O9241	O924	0.604720	0.558380	0.537780
O9251	O925	0.411770	0.333670	0.514850
O9261	O926	0.634910	0.522350	0.533880
O9271	O927	0.562660	0.209070	0.467040
O9281	O928	0.728750	0.413480	0.490140
O9291	O929	0.524090	0.235640	0.454110
O9301	O930	0.457930	0.033650	0.447470
O9311	O931	0.268110	0.851540	0.480770
O9321	O932	0.253480	0.807460	0.421710
O9331	O933	0.679210	0.521230	0.471430
O9341	O934	0.694360	0.471130	0.472190
O9351	O935	0.885370	0.692260	0.458740
O9361	O936	0.513590	0.266620	0.522210
O9371	O937	0.326220	0.116690	0.544150
O9381	O938	0.925150	0.627550	0.461030
O9391	O939	0.926610	0.560770	0.470490
O9401	O940	0.503460	0.321440	0.521210
N9411	N941	0.737680	0.313130	0.333460
N9421	N942	0.283170	0.154880	0.576830
C9431	C943	0.657440	0.268130	0.337700
C9441	C944	0.284690	0.165960	0.615090
C9451	C945	0.316010	0.163410	0.639090
C9461	C946	0.666550	0.344270	0.346680
C9471	C947	0.319340	0.177230	0.679160
C9481	C948	0.749740	0.390230	0.344520
C9491	C949	0.348900	0.173210	0.703560
C9501	C950	0.356520	0.191580	0.743430
H9511	H951	0.912760	0.640710	0.469200
H9521	H952	0.019570	0.650490	0.463610
H9531	H953	0.672710	0.228370	0.328950
H9541	H954	0.790550	0.366560	0.311140
H9551	H955	0.250500	0.145420	0.561100
H9561	H956	0.381010	0.242270	0.571870
H9571	H957	0.583750	0.200790	0.312800
H9581	H958	0.599040	0.208560	0.360960
H9591	H959	0.363550	0.262880	0.622880
H9601	H960	0.183990	0.080130	0.619330
H9611	H961	0.236600	0.066010	0.631600
H9621	H962	0.416090	0.248540	0.634570
H9631	H963	0.603900	0.288780	0.320230
H9641	H964	0.598870	0.276870	0.367980
H9651	H965	0.736030	0.434420	0.353480
H9661	H966	0.399000	0.274810	0.686600
H9671	H967	0.219410	0.092490	0.683470
H9681	H968	0.813060	0.453730	0.322200
H9691	H969	0.818500	0.453450	0.370410
H9701	H970	0.267010	0.073910	0.696960
H9711	H971	0.447040	0.255410	0.698900
H9721	H972	0.259880	0.111230	0.748680
H9731	H973	0.374000	0.184310	0.760530
H9741	H974	0.441630	0.292790	0.751030
H9751	H975	0.017740	0.448780	0.643360
H9761	H976	0.499350	0.646590	0.430370
Ga9771	Ga977	0.771570	0.271530	0.043210
Ga9781	Ga978	0.228520	0.728490	0.956820
Ga9791	Ga979	0.021680	0.478410	0.000000
Ga9801	Ga980	0.478310	0.021490	0.999990
Ga9811	Ga981	0.978330	0.978380	0.456790
Ga9821	Ga982	0.521570	0.521580	0.543210
Ga9831	Ga983	0.728400	0.771650	0.499990
Ga9841	Ga984	0.271550	0.228360	0.500000
Zn9851	Zn985	0.836970	0.662940	0.000040
Zn9861	Zn986	0.663260	0.837220	0.000100
Zn9871	Zn987	0.412930	0.912840	0.326020
Zn9881	Zn988	0.587200	0.087120	0.674010
Zn9891	Zn989	0.913060	0.587090	0.499940
Zn9901	Zn990	0.086810	0.412840	0.499920
Zn9911	Zn991	0.337050	0.337110	0.173970
Zn9921	Zn992	0.162780	0.162870	0.825990
F9931	F993	0.625040	0.137050	0.012020
F9941	F994	0.125060	0.612980	0.987960
F9951	F995	0.886980	0.374920	0.012030
F9961	F996	0.363020	0.875020	0.987970
F9971	F997	0.124960	0.112940	0.487940
F9981	F998	0.624950	0.637070	0.512020
F9991	F999	0.862940	0.874950	0.487990
F10001	F1000	0.386990	0.374990	0.512000
