data_LETQEI_clean_PM
_symmetry_space_group_name_H-M	'P1'
_cell_length_a	66.313000
_cell_length_b	66.313000
_cell_length_c	9.982000
_cell_angle_alpha	90.000000
_cell_angle_beta	90.000000
_cell_angle_gamma	90.000000
_symmetry_Int_Tables_number 1

loop_
_symmetry_equiv_pos_as_xyz
'x,y,z'

loop_
_atom_site_label
_atom_site_type_symbol
_atom_site_fract_x
_atom_site_fract_y
_atom_site_fract_z
Zn11	Zn1	0.158510	0.013170	0.923520
Zn21	Zn2	0.111990	0.983680	0.078700
Zn31	Zn3	0.022390	0.984850	0.086300
P11	P1	0.140090	0.971590	0.851500
P21	P2	0.128570	0.027370	0.143500
P31	P3	0.205400	0.011560	0.971400
P41	P4	0.066870	0.975470	0.034700
P51	P5	0.005460	0.027710	0.146100
O11	O1	0.155540	0.983740	0.925900
O21	O2	0.118380	0.974870	0.901900
O31	O3	0.140470	0.974180	0.704400
O41	O4	0.149830	0.021810	0.092600
O51	O5	0.112400	0.012560	0.080800
O61	O6	0.128140	0.028200	0.294400
O71	O7	0.221970	0.027230	0.956600
O81	O8	0.202450	0.004920	0.117900
O91	O9	0.186150	0.019420	0.914100
O101	O10	0.067110	0.992250	0.937700
O111	O11	0.049520	0.975200	0.118100
O121	O12	0.084900	0.974670	0.115200
O131	O13	0.021910	0.014000	0.086500
O141	O14	0.984030	0.022700	0.086400
O151	O15	0.005550	0.027500	0.292800
H11	H1	0.146300	0.951200	0.869400
H21	H2	0.123900	0.047600	0.093400
H31	H3	0.210700	0.997200	0.870700
H41	H4	0.066200	0.959400	0.938300
H51	H5	0.010100	0.042000	0.061800
Zn41	Zn4	0.658510	0.513170	0.423520
Zn51	Zn5	0.611990	0.483680	0.578700
Zn61	Zn6	0.522390	0.484850	0.586300
P61	P6	0.640090	0.471590	0.351500
P71	P7	0.628570	0.527370	0.643500
P81	P8	0.705400	0.511560	0.471400
P91	P9	0.566870	0.475470	0.534700
P101	P10	0.505460	0.527710	0.646100
O161	O16	0.655540	0.483740	0.425900
O171	O17	0.618380	0.474870	0.401900
O181	O18	0.640470	0.474180	0.204400
O191	O19	0.649830	0.521810	0.592600
O201	O20	0.612400	0.512560	0.580800
O211	O21	0.628140	0.528200	0.794400
O221	O22	0.721970	0.527230	0.456600
O231	O23	0.702450	0.504920	0.617900
O241	O24	0.686150	0.519420	0.414100
O251	O25	0.567110	0.492250	0.437700
O261	O26	0.549520	0.475200	0.618100
O271	O27	0.584900	0.474670	0.615200
O281	O28	0.521910	0.514000	0.586500
O291	O29	0.484030	0.522700	0.586400
O301	O30	0.505550	0.527500	0.792800
H61	H6	0.646300	0.451200	0.369400
H71	H7	0.623900	0.547600	0.593400
H81	H8	0.710700	0.497200	0.370700
H91	H9	0.566200	0.459400	0.438300
H101	H10	0.510100	0.542000	0.561800
Zn71	Zn7	0.341490	0.986830	0.423520
Zn81	Zn8	0.388010	0.016320	0.578700
Zn91	Zn9	0.477610	0.015150	0.586300
P111	P11	0.359910	0.028410	0.351500
P121	P12	0.371430	0.972630	0.643500
P131	P13	0.294600	0.988440	0.471400
P141	P14	0.433130	0.024530	0.534700
P151	P15	0.494540	0.972290	0.646100
O311	O31	0.344460	0.016260	0.425900
O321	O32	0.381620	0.025130	0.401900
O331	O33	0.359530	0.025820	0.204400
O341	O34	0.350170	0.978190	0.592600
O351	O35	0.387600	0.987440	0.580800
O361	O36	0.371860	0.971800	0.794400
O371	O37	0.278030	0.972770	0.456600
O381	O38	0.297550	0.995080	0.617900
O391	O39	0.313850	0.980580	0.414100
O401	O40	0.432890	0.007750	0.437700
O411	O41	0.450480	0.024800	0.618100
O421	O42	0.415100	0.025330	0.615200
O431	O43	0.478090	0.986000	0.586500
O441	O44	0.515970	0.977300	0.586400
O451	O45	0.494450	0.972500	0.792800
H111	H11	0.353700	0.048800	0.369400
H121	H12	0.376100	0.952400	0.593400
H131	H13	0.289300	0.002800	0.370700
H141	H14	0.433800	0.040600	0.438300
H151	H15	0.489900	0.958000	0.561800
Zn101	Zn10	0.841490	0.486830	0.923520
Zn111	Zn11	0.888010	0.516320	0.078700
Zn121	Zn12	0.977610	0.515150	0.086300
P161	P16	0.859910	0.528410	0.851500
P171	P17	0.871430	0.472630	0.143500
P181	P18	0.794600	0.488440	0.971400
P191	P19	0.933130	0.524530	0.034700
P201	P20	0.994540	0.472290	0.146100
O461	O46	0.844460	0.516260	0.925900
O471	O47	0.881620	0.525130	0.901900
O481	O48	0.859530	0.525820	0.704400
O491	O49	0.850170	0.478190	0.092600
O501	O50	0.887600	0.487440	0.080800
O511	O51	0.871860	0.471800	0.294400
O521	O52	0.778030	0.472770	0.956600
O531	O53	0.797550	0.495080	0.117900
O541	O54	0.813850	0.480580	0.914100
O551	O55	0.932890	0.507750	0.937700
O561	O56	0.950480	0.524800	0.118100
O571	O57	0.915100	0.525330	0.115200
O581	O58	0.978090	0.486000	0.086500
O591	O59	0.015970	0.477300	0.086400
O601	O60	0.994450	0.472500	0.292800
H161	H16	0.853700	0.548800	0.869400
H171	H17	0.876100	0.452400	0.093400
H181	H18	0.789300	0.502800	0.870700
H191	H19	0.933800	0.540600	0.938300
H201	H20	0.989900	0.458000	0.061800
Zn131	Zn13	0.236830	0.908510	0.173520
Zn141	Zn14	0.266320	0.861990	0.328700
Zn151	Zn15	0.265150	0.772390	0.336300
P211	P21	0.278410	0.890090	0.101500
P221	P22	0.222630	0.878570	0.393500
P231	P23	0.238440	0.955400	0.221400
P241	P24	0.274530	0.816870	0.284700
P251	P25	0.222290	0.755460	0.396100
O611	O61	0.266260	0.905540	0.175900
O621	O62	0.275130	0.868380	0.151900
O631	O63	0.275820	0.890470	0.954400
O641	O64	0.228190	0.899830	0.342600
O651	O65	0.237440	0.862400	0.330800
O661	O66	0.221800	0.878140	0.544400
O671	O67	0.222770	0.971970	0.206600
O681	O68	0.245080	0.952450	0.367900
O691	O69	0.230580	0.936150	0.164100
O701	O70	0.257750	0.817110	0.187700
O711	O71	0.274800	0.799520	0.368100
O721	O72	0.275330	0.834900	0.365200
O731	O73	0.236000	0.771910	0.336500
O741	O74	0.227300	0.734030	0.336400
O751	O75	0.222500	0.755550	0.542800
H211	H21	0.298800	0.896300	0.119400
H221	H22	0.202400	0.873900	0.343400
H231	H23	0.252800	0.960700	0.120700
H241	H24	0.290600	0.816200	0.188300
H251	H25	0.208000	0.760100	0.311800
Zn161	Zn16	0.736830	0.408510	0.673520
Zn171	Zn17	0.766320	0.361990	0.828700
Zn181	Zn18	0.765150	0.272390	0.836300
P261	P26	0.778410	0.390090	0.601500
P271	P27	0.722630	0.378570	0.893500
P281	P28	0.738440	0.455400	0.721400
P291	P29	0.774530	0.316870	0.784700
P301	P30	0.722290	0.255460	0.896100
O761	O76	0.766260	0.405540	0.675900
O771	O77	0.775130	0.368380	0.651900
O781	O78	0.775820	0.390470	0.454400
O791	O79	0.728190	0.399830	0.842600
O801	O80	0.737440	0.362400	0.830800
O811	O81	0.721800	0.378140	0.044400
O821	O82	0.722770	0.471970	0.706600
O831	O83	0.745080	0.452450	0.867900
O841	O84	0.730580	0.436150	0.664100
O851	O85	0.757750	0.317110	0.687700
O861	O86	0.774800	0.299520	0.868100
O871	O87	0.775330	0.334900	0.865200
O881	O88	0.736000	0.271910	0.836500
O891	O89	0.727300	0.234030	0.836400
O901	O90	0.722500	0.255550	0.042800
H261	H26	0.798800	0.396300	0.619400
H271	H27	0.702400	0.373900	0.843400
H281	H28	0.752800	0.460700	0.620700
H291	H29	0.790600	0.316200	0.688300
H301	H30	0.708000	0.260100	0.811800
Zn191	Zn19	0.263170	0.091490	0.673520
Zn201	Zn20	0.233680	0.138010	0.828700
Zn211	Zn21	0.234850	0.227610	0.836300
P311	P31	0.221590	0.109910	0.601500
P321	P32	0.277370	0.121430	0.893500
P331	P33	0.261560	0.044600	0.721400
P341	P34	0.225470	0.183130	0.784700
P351	P35	0.277710	0.244540	0.896100
O911	O91	0.233740	0.094460	0.675900
O921	O92	0.224870	0.131620	0.651900
O931	O93	0.224180	0.109530	0.454400
O941	O94	0.271810	0.100170	0.842600
O951	O95	0.262560	0.137600	0.830800
O961	O96	0.278200	0.121860	0.044400
O971	O97	0.277230	0.028030	0.706600
O981	O98	0.254920	0.047550	0.867900
O991	O99	0.269420	0.063850	0.664100
O1001	O100	0.242250	0.182890	0.687700
O1011	O101	0.225200	0.200480	0.868100
O1021	O102	0.224670	0.165100	0.865200
O1031	O103	0.264000	0.228090	0.836500
O1041	O104	0.272700	0.265970	0.836400
O1051	O105	0.277500	0.244450	0.042800
H311	H31	0.201200	0.103700	0.619400
H321	H32	0.297600	0.126100	0.843400
H331	H33	0.247200	0.039300	0.620700
H341	H34	0.209400	0.183800	0.688300
H351	H35	0.292000	0.239900	0.811800
Zn221	Zn22	0.763170	0.591490	0.173520
Zn231	Zn23	0.733680	0.638010	0.328700
Zn241	Zn24	0.734850	0.727610	0.336300
P361	P36	0.721590	0.609910	0.101500
P371	P37	0.777370	0.621430	0.393500
P381	P38	0.761560	0.544600	0.221400
P391	P39	0.725470	0.683130	0.284700
P401	P40	0.777710	0.744540	0.396100
O1061	O106	0.733740	0.594460	0.175900
O1071	O107	0.724870	0.631620	0.151900
O1081	O108	0.724180	0.609530	0.954400
O1091	O109	0.771810	0.600170	0.342600
O1101	O110	0.762560	0.637600	0.330800
O1111	O111	0.778200	0.621860	0.544400
O1121	O112	0.777230	0.528030	0.206600
O1131	O113	0.754920	0.547550	0.367900
O1141	O114	0.769420	0.563850	0.164100
O1151	O115	0.742250	0.682890	0.187700
O1161	O116	0.725200	0.700480	0.368100
O1171	O117	0.724670	0.665100	0.365200
O1181	O118	0.764000	0.728090	0.336500
O1191	O119	0.772700	0.765970	0.336400
O1201	O120	0.777500	0.744450	0.542800
H361	H36	0.701200	0.603700	0.119400
H371	H37	0.797600	0.626100	0.343400
H381	H38	0.747200	0.539300	0.120700
H391	H39	0.709400	0.683800	0.188300
H401	H40	0.792000	0.739900	0.311800
Zn251	Zn25	0.341490	0.013170	0.076480
Zn261	Zn26	0.388010	0.983680	0.921300
Zn271	Zn27	0.477610	0.984850	0.913700
P411	P41	0.359910	0.971590	0.148500
P421	P42	0.371430	0.027370	0.856500
P431	P43	0.294600	0.011560	0.028600
P441	P44	0.433130	0.975470	0.965300
P451	P45	0.494540	0.027710	0.853900
O1211	O121	0.344460	0.983740	0.074100
O1221	O122	0.381620	0.974870	0.098100
O1231	O123	0.359530	0.974180	0.295600
O1241	O124	0.350170	0.021810	0.907400
O1251	O125	0.387600	0.012560	0.919200
O1261	O126	0.371860	0.028200	0.705600
O1271	O127	0.278030	0.027230	0.043400
O1281	O128	0.297550	0.004920	0.882100
O1291	O129	0.313850	0.019420	0.085900
O1301	O130	0.432890	0.992250	0.062300
O1311	O131	0.450480	0.975200	0.881900
O1321	O132	0.415100	0.974670	0.884800
O1331	O133	0.478090	0.014000	0.913500
O1341	O134	0.515970	0.022700	0.913600
O1351	O135	0.494450	0.027500	0.707200
H411	H41	0.353700	0.951200	0.130600
H421	H42	0.376100	0.047600	0.906600
H431	H43	0.289300	0.997200	0.129300
H441	H44	0.433800	0.959400	0.061700
H451	H45	0.489900	0.042000	0.938200
Zn281	Zn28	0.841490	0.513170	0.576480
Zn291	Zn29	0.888010	0.483680	0.421300
Zn301	Zn30	0.977610	0.484850	0.413700
P461	P46	0.859910	0.471590	0.648500
P471	P47	0.871430	0.527370	0.356500
P481	P48	0.794600	0.511560	0.528600
P491	P49	0.933130	0.475470	0.465300
P501	P50	0.994540	0.527710	0.353900
O1361	O136	0.844460	0.483740	0.574100
O1371	O137	0.881620	0.474870	0.598100
O1381	O138	0.859530	0.474180	0.795600
O1391	O139	0.850170	0.521810	0.407400
O1401	O140	0.887600	0.512560	0.419200
O1411	O141	0.871860	0.528200	0.205600
O1421	O142	0.778030	0.527230	0.543400
O1431	O143	0.797550	0.504920	0.382100
O1441	O144	0.813850	0.519420	0.585900
O1451	O145	0.932890	0.492250	0.562300
O1461	O146	0.950480	0.475200	0.381900
O1471	O147	0.915100	0.474670	0.384800
O1481	O148	0.978090	0.514000	0.413500
O1491	O149	0.015970	0.522700	0.413600
O1501	O150	0.994450	0.527500	0.207200
H461	H46	0.853700	0.451200	0.630600
H471	H47	0.876100	0.547600	0.406600
H481	H48	0.789300	0.497200	0.629300
H491	H49	0.933800	0.459400	0.561700
H501	H50	0.989900	0.542000	0.438200
Zn311	Zn31	0.158510	0.986830	0.576480
Zn321	Zn32	0.111990	0.016320	0.421300
Zn331	Zn33	0.022390	0.015150	0.413700
P511	P51	0.140090	0.028410	0.648500
P521	P52	0.128570	0.972630	0.356500
P531	P53	0.205400	0.988440	0.528600
P541	P54	0.066870	0.024530	0.465300
P551	P55	0.005460	0.972290	0.353900
O1511	O151	0.155540	0.016260	0.574100
O1521	O152	0.118380	0.025130	0.598100
O1531	O153	0.140470	0.025820	0.795600
O1541	O154	0.149830	0.978190	0.407400
O1551	O155	0.112400	0.987440	0.419200
O1561	O156	0.128140	0.971800	0.205600
O1571	O157	0.221970	0.972770	0.543400
O1581	O158	0.202450	0.995080	0.382100
O1591	O159	0.186150	0.980580	0.585900
O1601	O160	0.067110	0.007750	0.562300
O1611	O161	0.049520	0.024800	0.381900
O1621	O162	0.084900	0.025330	0.384800
O1631	O163	0.021910	0.986000	0.413500
O1641	O164	0.984030	0.977300	0.413600
O1651	O165	0.005550	0.972500	0.207200
H511	H51	0.146300	0.048800	0.630600
H521	H52	0.123900	0.952400	0.406600
H531	H53	0.210700	0.002800	0.629300
H541	H54	0.066200	0.040600	0.561700
H551	H55	0.010100	0.958000	0.438200
Zn341	Zn34	0.658510	0.486830	0.076480
Zn351	Zn35	0.611990	0.516320	0.921300
Zn361	Zn36	0.522390	0.515150	0.913700
P561	P56	0.640090	0.528410	0.148500
P571	P57	0.628570	0.472630	0.856500
P581	P58	0.705400	0.488440	0.028600
P591	P59	0.566870	0.524530	0.965300
P601	P60	0.505460	0.472290	0.853900
O1661	O166	0.655540	0.516260	0.074100
O1671	O167	0.618380	0.525130	0.098100
O1681	O168	0.640470	0.525820	0.295600
O1691	O169	0.649830	0.478190	0.907400
O1701	O170	0.612400	0.487440	0.919200
O1711	O171	0.628140	0.471800	0.705600
O1721	O172	0.721970	0.472770	0.043400
O1731	O173	0.702450	0.495080	0.882100
O1741	O174	0.686150	0.480580	0.085900
O1751	O175	0.567110	0.507750	0.062300
O1761	O176	0.549520	0.524800	0.881900
O1771	O177	0.584900	0.525330	0.884800
O1781	O178	0.521910	0.486000	0.913500
O1791	O179	0.484030	0.477300	0.913600
O1801	O180	0.505550	0.472500	0.707200
H561	H56	0.646300	0.548800	0.130600
H571	H57	0.623900	0.452400	0.906600
H581	H58	0.710700	0.502800	0.129300
H591	H59	0.566200	0.540600	0.061700
H601	H60	0.510100	0.458000	0.938200
Zn371	Zn37	0.263170	0.908510	0.826480
Zn381	Zn38	0.233680	0.861990	0.671300
Zn391	Zn39	0.234850	0.772390	0.663700
P611	P61	0.221590	0.890090	0.898500
P621	P62	0.277370	0.878570	0.606500
P631	P63	0.261560	0.955400	0.778600
P641	P64	0.225470	0.816870	0.715300
P651	P65	0.277710	0.755460	0.603900
O1811	O181	0.233740	0.905540	0.824100
O1821	O182	0.224870	0.868380	0.848100
O1831	O183	0.224180	0.890470	0.045600
O1841	O184	0.271810	0.899830	0.657400
O1851	O185	0.262560	0.862400	0.669200
O1861	O186	0.278200	0.878140	0.455600
O1871	O187	0.277230	0.971970	0.793400
O1881	O188	0.254920	0.952450	0.632100
O1891	O189	0.269420	0.936150	0.835900
O1901	O190	0.242250	0.817110	0.812300
O1911	O191	0.225200	0.799520	0.631900
O1921	O192	0.224670	0.834900	0.634800
O1931	O193	0.264000	0.771910	0.663500
O1941	O194	0.272700	0.734030	0.663600
O1951	O195	0.277500	0.755550	0.457200
H611	H61	0.201200	0.896300	0.880600
H621	H62	0.297600	0.873900	0.656600
H631	H63	0.247200	0.960700	0.879300
H641	H64	0.209400	0.816200	0.811700
H651	H65	0.292000	0.760100	0.688200
Zn401	Zn40	0.763170	0.408510	0.326480
Zn411	Zn41	0.733680	0.361990	0.171300
Zn421	Zn42	0.734850	0.272390	0.163700
P661	P66	0.721590	0.390090	0.398500
P671	P67	0.777370	0.378570	0.106500
P681	P68	0.761560	0.455400	0.278600
P691	P69	0.725470	0.316870	0.215300
P701	P70	0.777710	0.255460	0.103900
O1961	O196	0.733740	0.405540	0.324100
O1971	O197	0.724870	0.368380	0.348100
O1981	O198	0.724180	0.390470	0.545600
O1991	O199	0.771810	0.399830	0.157400
O2001	O200	0.762560	0.362400	0.169200
O2011	O201	0.778200	0.378140	0.955600
O2021	O202	0.777230	0.471970	0.293400
O2031	O203	0.754920	0.452450	0.132100
O2041	O204	0.769420	0.436150	0.335900
O2051	O205	0.742250	0.317110	0.312300
O2061	O206	0.725200	0.299520	0.131900
O2071	O207	0.724670	0.334900	0.134800
O2081	O208	0.764000	0.271910	0.163500
O2091	O209	0.772700	0.234030	0.163600
O2101	O210	0.777500	0.255550	0.957200
H661	H66	0.701200	0.396300	0.380600
H671	H67	0.797600	0.373900	0.156600
H681	H68	0.747200	0.460700	0.379300
H691	H69	0.709400	0.316200	0.311700
H701	H70	0.792000	0.260100	0.188200
Zn431	Zn43	0.236830	0.091490	0.326480
Zn441	Zn44	0.266320	0.138010	0.171300
Zn451	Zn45	0.265150	0.227610	0.163700
P711	P71	0.278410	0.109910	0.398500
P721	P72	0.222630	0.121430	0.106500
P731	P73	0.238440	0.044600	0.278600
P741	P74	0.274530	0.183130	0.215300
P751	P75	0.222290	0.244540	0.103900
O2111	O211	0.266260	0.094460	0.324100
O2121	O212	0.275130	0.131620	0.348100
O2131	O213	0.275820	0.109530	0.545600
O2141	O214	0.228190	0.100170	0.157400
O2151	O215	0.237440	0.137600	0.169200
O2161	O216	0.221800	0.121860	0.955600
O2171	O217	0.222770	0.028030	0.293400
O2181	O218	0.245080	0.047550	0.132100
O2191	O219	0.230580	0.063850	0.335900
O2201	O220	0.257750	0.182890	0.312300
O2211	O221	0.274800	0.200480	0.131900
O2221	O222	0.275330	0.165100	0.134800
O2231	O223	0.236000	0.228090	0.163500
O2241	O224	0.227300	0.265970	0.163600
O2251	O225	0.222500	0.244450	0.957200
H711	H71	0.298800	0.103700	0.380600
H721	H72	0.202400	0.126100	0.156600
H731	H73	0.252800	0.039300	0.379300
H741	H74	0.290600	0.183800	0.311700
H751	H75	0.208000	0.239900	0.188200
Zn461	Zn46	0.736830	0.591490	0.826480
Zn471	Zn47	0.766320	0.638010	0.671300
Zn481	Zn48	0.765150	0.727610	0.663700
P761	P76	0.778410	0.609910	0.898500
P771	P77	0.722630	0.621430	0.606500
P781	P78	0.738440	0.544600	0.778600
P791	P79	0.774530	0.683130	0.715300
P801	P80	0.722290	0.744540	0.603900
O2261	O226	0.766260	0.594460	0.824100
O2271	O227	0.775130	0.631620	0.848100
O2281	O228	0.775820	0.609530	0.045600
O2291	O229	0.728190	0.600170	0.657400
O2301	O230	0.737440	0.637600	0.669200
O2311	O231	0.721800	0.621860	0.455600
O2321	O232	0.722770	0.528030	0.793400
O2331	O233	0.745080	0.547550	0.632100
O2341	O234	0.730580	0.563850	0.835900
O2351	O235	0.757750	0.682890	0.812300
O2361	O236	0.774800	0.700480	0.631900
O2371	O237	0.775330	0.665100	0.634800
O2381	O238	0.736000	0.728090	0.663500
O2391	O239	0.727300	0.765970	0.663600
O2401	O240	0.722500	0.744450	0.457200
H761	H76	0.798800	0.603700	0.880600
H771	H77	0.702400	0.626100	0.656600
H781	H78	0.752800	0.539300	0.879300
H791	H79	0.790600	0.683800	0.811700
H801	H80	0.708000	0.739900	0.688200
Zn491	Zn49	0.841490	0.986830	0.076480
Zn501	Zn50	0.888010	0.016320	0.921300
Zn511	Zn51	0.977610	0.015150	0.913700
P811	P81	0.859910	0.028410	0.148500
P821	P82	0.871430	0.972630	0.856500
P831	P83	0.794600	0.988440	0.028600
P841	P84	0.933130	0.024530	0.965300
P851	P85	0.994540	0.972290	0.853900
O2411	O241	0.844460	0.016260	0.074100
O2421	O242	0.881620	0.025130	0.098100
O2431	O243	0.859530	0.025820	0.295600
O2441	O244	0.850170	0.978190	0.907400
O2451	O245	0.887600	0.987440	0.919200
O2461	O246	0.871860	0.971800	0.705600
O2471	O247	0.778030	0.972770	0.043400
O2481	O248	0.797550	0.995080	0.882100
O2491	O249	0.813850	0.980580	0.085900
O2501	O250	0.932890	0.007750	0.062300
O2511	O251	0.950480	0.024800	0.881900
O2521	O252	0.915100	0.025330	0.884800
O2531	O253	0.978090	0.986000	0.913500
O2541	O254	0.015970	0.977300	0.913600
O2551	O255	0.994450	0.972500	0.707200
H811	H81	0.853700	0.048800	0.130600
H821	H82	0.876100	0.952400	0.906600
H831	H83	0.789300	0.002800	0.129300
H841	H84	0.933800	0.040600	0.061700
H851	H85	0.989900	0.958000	0.938200
Zn521	Zn52	0.341490	0.486830	0.576480
Zn531	Zn53	0.388010	0.516320	0.421300
Zn541	Zn54	0.477610	0.515150	0.413700
P861	P86	0.359910	0.528410	0.648500
P871	P87	0.371430	0.472630	0.356500
P881	P88	0.294600	0.488440	0.528600
P891	P89	0.433130	0.524530	0.465300
P901	P90	0.494540	0.472290	0.353900
O2561	O256	0.344460	0.516260	0.574100
O2571	O257	0.381620	0.525130	0.598100
O2581	O258	0.359530	0.525820	0.795600
O2591	O259	0.350170	0.478190	0.407400
O2601	O260	0.387600	0.487440	0.419200
O2611	O261	0.371860	0.471800	0.205600
O2621	O262	0.278030	0.472770	0.543400
O2631	O263	0.297550	0.495080	0.382100
O2641	O264	0.313850	0.480580	0.585900
O2651	O265	0.432890	0.507750	0.562300
O2661	O266	0.450480	0.524800	0.381900
O2671	O267	0.415100	0.525330	0.384800
O2681	O268	0.478090	0.486000	0.413500
O2691	O269	0.515970	0.477300	0.413600
O2701	O270	0.494450	0.472500	0.207200
H861	H86	0.353700	0.548800	0.630600
H871	H87	0.376100	0.452400	0.406600
H881	H88	0.289300	0.502800	0.629300
H891	H89	0.433800	0.540600	0.561700
H901	H90	0.489900	0.458000	0.438200
Zn551	Zn55	0.658510	0.013170	0.576480
Zn561	Zn56	0.611990	0.983680	0.421300
Zn571	Zn57	0.522390	0.984850	0.413700
P911	P91	0.640090	0.971590	0.648500
P921	P92	0.628570	0.027370	0.356500
P931	P93	0.705400	0.011560	0.528600
P941	P94	0.566870	0.975470	0.465300
P951	P95	0.505460	0.027710	0.353900
O2711	O271	0.655540	0.983740	0.574100
O2721	O272	0.618380	0.974870	0.598100
O2731	O273	0.640470	0.974180	0.795600
O2741	O274	0.649830	0.021810	0.407400
O2751	O275	0.612400	0.012560	0.419200
O2761	O276	0.628140	0.028200	0.205600
O2771	O277	0.721970	0.027230	0.543400
O2781	O278	0.702450	0.004920	0.382100
O2791	O279	0.686150	0.019420	0.585900
O2801	O280	0.567110	0.992250	0.562300
O2811	O281	0.549520	0.975200	0.381900
O2821	O282	0.584900	0.974670	0.384800
O2831	O283	0.521910	0.014000	0.413500
O2841	O284	0.484030	0.022700	0.413600
O2851	O285	0.505550	0.027500	0.207200
H911	H91	0.646300	0.951200	0.630600
H921	H92	0.623900	0.047600	0.406600
H931	H93	0.710700	0.997200	0.629300
H941	H94	0.566200	0.959400	0.561700
H951	H95	0.510100	0.042000	0.438200
Zn581	Zn58	0.158510	0.513170	0.076480
Zn591	Zn59	0.111990	0.483680	0.921300
Zn601	Zn60	0.022390	0.484850	0.913700
P961	P96	0.140090	0.471590	0.148500
P971	P97	0.128570	0.527370	0.856500
P981	P98	0.205400	0.511560	0.028600
P991	P99	0.066870	0.475470	0.965300
P1001	P100	0.005460	0.527710	0.853900
O2861	O286	0.155540	0.483740	0.074100
O2871	O287	0.118380	0.474870	0.098100
O2881	O288	0.140470	0.474180	0.295600
O2891	O289	0.149830	0.521810	0.907400
O2901	O290	0.112400	0.512560	0.919200
O2911	O291	0.128140	0.528200	0.705600
O2921	O292	0.221970	0.527230	0.043400
O2931	O293	0.202450	0.504920	0.882100
O2941	O294	0.186150	0.519420	0.085900
O2951	O295	0.067110	0.492250	0.062300
O2961	O296	0.049520	0.475200	0.881900
O2971	O297	0.084900	0.474670	0.884800
O2981	O298	0.021910	0.514000	0.913500
O2991	O299	0.984030	0.522700	0.913600
O3001	O300	0.005550	0.527500	0.707200
H961	H96	0.146300	0.451200	0.130600
H971	H97	0.123900	0.547600	0.906600
H981	H98	0.210700	0.497200	0.129300
H991	H99	0.066200	0.459400	0.061700
H1001	H100	0.010100	0.542000	0.938200
Zn611	Zn61	0.763170	0.091490	0.826480
Zn621	Zn62	0.733680	0.138010	0.671300
Zn631	Zn63	0.734850	0.227610	0.663700
P1011	P101	0.721590	0.109910	0.898500
P1021	P102	0.777370	0.121430	0.606500
P1031	P103	0.761560	0.044600	0.778600
P1041	P104	0.725470	0.183130	0.715300
P1051	P105	0.777710	0.244540	0.603900
O3011	O301	0.733740	0.094460	0.824100
O3021	O302	0.724870	0.131620	0.848100
O3031	O303	0.724180	0.109530	0.045600
O3041	O304	0.771810	0.100170	0.657400
O3051	O305	0.762560	0.137600	0.669200
O3061	O306	0.778200	0.121860	0.455600
O3071	O307	0.777230	0.028030	0.793400
O3081	O308	0.754920	0.047550	0.632100
O3091	O309	0.769420	0.063850	0.835900
O3101	O310	0.742250	0.182890	0.812300
O3111	O311	0.725200	0.200480	0.631900
O3121	O312	0.724670	0.165100	0.634800
O3131	O313	0.764000	0.228090	0.663500
O3141	O314	0.772700	0.265970	0.663600
O3151	O315	0.777500	0.244450	0.457200
H1011	H101	0.701200	0.103700	0.880600
H1021	H102	0.797600	0.126100	0.656600
H1031	H103	0.747200	0.039300	0.879300
H1041	H104	0.709400	0.183800	0.811700
H1051	H105	0.792000	0.239900	0.688200
Zn641	Zn64	0.263170	0.591490	0.326480
Zn651	Zn65	0.233680	0.638010	0.171300
Zn661	Zn66	0.234850	0.727610	0.163700
P1061	P106	0.221590	0.609910	0.398500
P1071	P107	0.277370	0.621430	0.106500
P1081	P108	0.261560	0.544600	0.278600
P1091	P109	0.225470	0.683130	0.215300
P1101	P110	0.277710	0.744540	0.103900
O3161	O316	0.233740	0.594460	0.324100
O3171	O317	0.224870	0.631620	0.348100
O3181	O318	0.224180	0.609530	0.545600
O3191	O319	0.271810	0.600170	0.157400
O3201	O320	0.262560	0.637600	0.169200
O3211	O321	0.278200	0.621860	0.955600
O3221	O322	0.277230	0.528030	0.293400
O3231	O323	0.254920	0.547550	0.132100
O3241	O324	0.269420	0.563850	0.335900
O3251	O325	0.242250	0.682890	0.312300
O3261	O326	0.225200	0.700480	0.131900
O3271	O327	0.224670	0.665100	0.134800
O3281	O328	0.264000	0.728090	0.163500
O3291	O329	0.272700	0.765970	0.163600
O3301	O330	0.277500	0.744450	0.957200
H1061	H106	0.201200	0.603700	0.380600
H1071	H107	0.297600	0.626100	0.156600
H1081	H108	0.247200	0.539300	0.379300
H1091	H109	0.209400	0.683800	0.311700
H1101	H110	0.292000	0.739900	0.188200
Zn671	Zn67	0.736830	0.908510	0.326480
Zn681	Zn68	0.766320	0.861990	0.171300
Zn691	Zn69	0.765150	0.772390	0.163700
P1111	P111	0.778410	0.890090	0.398500
P1121	P112	0.722630	0.878570	0.106500
P1131	P113	0.738440	0.955400	0.278600
P1141	P114	0.774530	0.816870	0.215300
P1151	P115	0.722290	0.755460	0.103900
O3311	O331	0.766260	0.905540	0.324100
O3321	O332	0.775130	0.868380	0.348100
O3331	O333	0.775820	0.890470	0.545600
O3341	O334	0.728190	0.899830	0.157400
O3351	O335	0.737440	0.862400	0.169200
O3361	O336	0.721800	0.878140	0.955600
O3371	O337	0.722770	0.971970	0.293400
O3381	O338	0.745080	0.952450	0.132100
O3391	O339	0.730580	0.936150	0.335900
O3401	O340	0.757750	0.817110	0.312300
O3411	O341	0.774800	0.799520	0.131900
O3421	O342	0.775330	0.834900	0.134800
O3431	O343	0.736000	0.771910	0.163500
O3441	O344	0.727300	0.734030	0.163600
O3451	O345	0.722500	0.755550	0.957200
H1111	H111	0.798800	0.896300	0.380600
H1121	H112	0.702400	0.873900	0.156600
H1131	H113	0.752800	0.960700	0.379300
H1141	H114	0.790600	0.816200	0.311700
H1151	H115	0.708000	0.760100	0.188200
Zn701	Zn70	0.236830	0.408510	0.826480
Zn711	Zn71	0.266320	0.361990	0.671300
Zn721	Zn72	0.265150	0.272390	0.663700
P1161	P116	0.278410	0.390090	0.898500
P1171	P117	0.222630	0.378570	0.606500
P1181	P118	0.238440	0.455400	0.778600
P1191	P119	0.274530	0.316870	0.715300
P1201	P120	0.222290	0.255460	0.603900
O3461	O346	0.266260	0.405540	0.824100
O3471	O347	0.275130	0.368380	0.848100
O3481	O348	0.275820	0.390470	0.045600
O3491	O349	0.228190	0.399830	0.657400
O3501	O350	0.237440	0.362400	0.669200
O3511	O351	0.221800	0.378140	0.455600
O3521	O352	0.222770	0.471970	0.793400
O3531	O353	0.245080	0.452450	0.632100
O3541	O354	0.230580	0.436150	0.835900
O3551	O355	0.257750	0.317110	0.812300
O3561	O356	0.274800	0.299520	0.631900
O3571	O357	0.275330	0.334900	0.634800
O3581	O358	0.236000	0.271910	0.663500
O3591	O359	0.227300	0.234030	0.663600
O3601	O360	0.222500	0.255550	0.457200
H1161	H116	0.298800	0.396300	0.880600
H1171	H117	0.202400	0.373900	0.656600
H1181	H118	0.252800	0.460700	0.879300
H1191	H119	0.290600	0.316200	0.811700
H1201	H120	0.208000	0.260100	0.688200
Zn731	Zn73	0.658510	0.986830	0.923520
Zn741	Zn74	0.611990	0.016320	0.078700
Zn751	Zn75	0.522390	0.015150	0.086300
P1211	P121	0.640090	0.028410	0.851500
P1221	P122	0.628570	0.972630	0.143500
P1231	P123	0.705400	0.988440	0.971400
P1241	P124	0.566870	0.024530	0.034700
P1251	P125	0.505460	0.972290	0.146100
O3611	O361	0.655540	0.016260	0.925900
O3621	O362	0.618380	0.025130	0.901900
O3631	O363	0.640470	0.025820	0.704400
O3641	O364	0.649830	0.978190	0.092600
O3651	O365	0.612400	0.987440	0.080800
O3661	O366	0.628140	0.971800	0.294400
O3671	O367	0.721970	0.972770	0.956600
O3681	O368	0.702450	0.995080	0.117900
O3691	O369	0.686150	0.980580	0.914100
O3701	O370	0.567110	0.007750	0.937700
O3711	O371	0.549520	0.024800	0.118100
O3721	O372	0.584900	0.025330	0.115200
O3731	O373	0.521910	0.986000	0.086500
O3741	O374	0.484030	0.977300	0.086400
O3751	O375	0.505550	0.972500	0.292800
H1211	H121	0.646300	0.048800	0.869400
H1221	H122	0.623900	0.952400	0.093400
H1231	H123	0.710700	0.002800	0.870700
H1241	H124	0.566200	0.040600	0.938300
H1251	H125	0.510100	0.958000	0.061800
Zn761	Zn76	0.158510	0.486830	0.423520
Zn771	Zn77	0.111990	0.516320	0.578700
Zn781	Zn78	0.022390	0.515150	0.586300
P1261	P126	0.140090	0.528410	0.351500
P1271	P127	0.128570	0.472630	0.643500
P1281	P128	0.205400	0.488440	0.471400
P1291	P129	0.066870	0.524530	0.534700
P1301	P130	0.005460	0.472290	0.646100
O3761	O376	0.155540	0.516260	0.425900
O3771	O377	0.118380	0.525130	0.401900
O3781	O378	0.140470	0.525820	0.204400
O3791	O379	0.149830	0.478190	0.592600
O3801	O380	0.112400	0.487440	0.580800
O3811	O381	0.128140	0.471800	0.794400
O3821	O382	0.221970	0.472770	0.456600
O3831	O383	0.202450	0.495080	0.617900
O3841	O384	0.186150	0.480580	0.414100
O3851	O385	0.067110	0.507750	0.437700
O3861	O386	0.049520	0.524800	0.618100
O3871	O387	0.084900	0.525330	0.615200
O3881	O388	0.021910	0.486000	0.586500
O3891	O389	0.984030	0.477300	0.586400
O3901	O390	0.005550	0.472500	0.792800
H1261	H126	0.146300	0.548800	0.369400
H1271	H127	0.123900	0.452400	0.593400
H1281	H128	0.210700	0.502800	0.370700
H1291	H129	0.066200	0.540600	0.438300
H1301	H130	0.010100	0.458000	0.561800
Zn791	Zn79	0.841490	0.013170	0.423520
Zn801	Zn80	0.888010	0.983680	0.578700
Zn811	Zn81	0.977610	0.984850	0.586300
P1311	P131	0.859910	0.971590	0.351500
P1321	P132	0.871430	0.027370	0.643500
P1331	P133	0.794600	0.011560	0.471400
P1341	P134	0.933130	0.975470	0.534700
P1351	P135	0.994540	0.027710	0.646100
O3911	O391	0.844460	0.983740	0.425900
O3921	O392	0.881620	0.974870	0.401900
O3931	O393	0.859530	0.974180	0.204400
O3941	O394	0.850170	0.021810	0.592600
O3951	O395	0.887600	0.012560	0.580800
O3961	O396	0.871860	0.028200	0.794400
O3971	O397	0.778030	0.027230	0.456600
O3981	O398	0.797550	0.004920	0.617900
O3991	O399	0.813850	0.019420	0.414100
O4001	O400	0.932890	0.992250	0.437700
O4011	O401	0.950480	0.975200	0.618100
O4021	O402	0.915100	0.974670	0.615200
O4031	O403	0.978090	0.014000	0.586500
O4041	O404	0.015970	0.022700	0.586400
O4051	O405	0.994450	0.027500	0.792800
H1311	H131	0.853700	0.951200	0.369400
H1321	H132	0.876100	0.047600	0.593400
H1331	H133	0.789300	0.997200	0.370700
H1341	H134	0.933800	0.959400	0.438300
H1351	H135	0.989900	0.042000	0.561800
Zn821	Zn82	0.341490	0.513170	0.923520
Zn831	Zn83	0.388010	0.483680	0.078700
Zn841	Zn84	0.477610	0.484850	0.086300
P1361	P136	0.359910	0.471590	0.851500
P1371	P137	0.371430	0.527370	0.143500
P1381	P138	0.294600	0.511560	0.971400
P1391	P139	0.433130	0.475470	0.034700
P1401	P140	0.494540	0.527710	0.146100
O4061	O406	0.344460	0.483740	0.925900
O4071	O407	0.381620	0.474870	0.901900
O4081	O408	0.359530	0.474180	0.704400
O4091	O409	0.350170	0.521810	0.092600
O4101	O410	0.387600	0.512560	0.080800
O4111	O411	0.371860	0.528200	0.294400
O4121	O412	0.278030	0.527230	0.956600
O4131	O413	0.297550	0.504920	0.117900
O4141	O414	0.313850	0.519420	0.914100
O4151	O415	0.432890	0.492250	0.937700
O4161	O416	0.450480	0.475200	0.118100
O4171	O417	0.415100	0.474670	0.115200
O4181	O418	0.478090	0.514000	0.086500
O4191	O419	0.515970	0.522700	0.086400
O4201	O420	0.494450	0.527500	0.292800
H1361	H136	0.353700	0.451200	0.869400
H1371	H137	0.376100	0.547600	0.093400
H1381	H138	0.289300	0.497200	0.870700
H1391	H139	0.433800	0.459400	0.938300
H1401	H140	0.489900	0.542000	0.061800
Zn851	Zn85	0.736830	0.091490	0.173520
Zn861	Zn86	0.766320	0.138010	0.328700
Zn871	Zn87	0.765150	0.227610	0.336300
P1411	P141	0.778410	0.109910	0.101500
P1421	P142	0.722630	0.121430	0.393500
P1431	P143	0.738440	0.044600	0.221400
P1441	P144	0.774530	0.183130	0.284700
P1451	P145	0.722290	0.244540	0.396100
O4211	O421	0.766260	0.094460	0.175900
O4221	O422	0.775130	0.131620	0.151900
O4231	O423	0.775820	0.109530	0.954400
O4241	O424	0.728190	0.100170	0.342600
O4251	O425	0.737440	0.137600	0.330800
O4261	O426	0.721800	0.121860	0.544400
O4271	O427	0.722770	0.028030	0.206600
O4281	O428	0.745080	0.047550	0.367900
O4291	O429	0.730580	0.063850	0.164100
O4301	O430	0.757750	0.182890	0.187700
O4311	O431	0.774800	0.200480	0.368100
O4321	O432	0.775330	0.165100	0.365200
O4331	O433	0.736000	0.228090	0.336500
O4341	O434	0.727300	0.265970	0.336400
O4351	O435	0.722500	0.244450	0.542800
H1411	H141	0.798800	0.103700	0.119400
H1421	H142	0.702400	0.126100	0.343400
H1431	H143	0.752800	0.039300	0.120700
H1441	H144	0.790600	0.183800	0.188300
H1451	H145	0.708000	0.239900	0.311800
Zn881	Zn88	0.236830	0.591490	0.673520
Zn891	Zn89	0.266320	0.638010	0.828700
Zn901	Zn90	0.265150	0.727610	0.836300
P1461	P146	0.278410	0.609910	0.601500
P1471	P147	0.222630	0.621430	0.893500
P1481	P148	0.238440	0.544600	0.721400
P1491	P149	0.274530	0.683130	0.784700
P1501	P150	0.222290	0.744540	0.896100
O4361	O436	0.266260	0.594460	0.675900
O4371	O437	0.275130	0.631620	0.651900
O4381	O438	0.275820	0.609530	0.454400
O4391	O439	0.228190	0.600170	0.842600
O4401	O440	0.237440	0.637600	0.830800
O4411	O441	0.221800	0.621860	0.044400
O4421	O442	0.222770	0.528030	0.706600
O4431	O443	0.245080	0.547550	0.867900
O4441	O444	0.230580	0.563850	0.664100
O4451	O445	0.257750	0.682890	0.687700
O4461	O446	0.274800	0.700480	0.868100
O4471	O447	0.275330	0.665100	0.865200
O4481	O448	0.236000	0.728090	0.836500
O4491	O449	0.227300	0.765970	0.836400
O4501	O450	0.222500	0.744450	0.042800
H1461	H146	0.298800	0.603700	0.619400
H1471	H147	0.202400	0.626100	0.843400
H1481	H148	0.252800	0.539300	0.620700
H1491	H149	0.290600	0.683800	0.688300
H1501	H150	0.208000	0.739900	0.811800
Zn911	Zn91	0.763170	0.908510	0.673520
Zn921	Zn92	0.733680	0.861990	0.828700
Zn931	Zn93	0.734850	0.772390	0.836300
P1511	P151	0.721590	0.890090	0.601500
P1521	P152	0.777370	0.878570	0.893500
P1531	P153	0.761560	0.955400	0.721400
P1541	P154	0.725470	0.816870	0.784700
P1551	P155	0.777710	0.755460	0.896100
O4511	O451	0.733740	0.905540	0.675900
O4521	O452	0.724870	0.868380	0.651900
O4531	O453	0.724180	0.890470	0.454400
O4541	O454	0.771810	0.899830	0.842600
O4551	O455	0.762560	0.862400	0.830800
O4561	O456	0.778200	0.878140	0.044400
O4571	O457	0.777230	0.971970	0.706600
O4581	O458	0.754920	0.952450	0.867900
O4591	O459	0.769420	0.936150	0.664100
O4601	O460	0.742250	0.817110	0.687700
O4611	O461	0.725200	0.799520	0.868100
O4621	O462	0.724670	0.834900	0.865200
O4631	O463	0.764000	0.771910	0.836500
O4641	O464	0.772700	0.734030	0.836400
O4651	O465	0.777500	0.755550	0.042800
H1511	H151	0.701200	0.896300	0.619400
H1521	H152	0.797600	0.873900	0.843400
H1531	H153	0.747200	0.960700	0.620700
H1541	H154	0.709400	0.816200	0.688300
H1551	H155	0.792000	0.760100	0.811800
Zn941	Zn94	0.263170	0.408510	0.173520
Zn951	Zn95	0.233680	0.361990	0.328700
Zn961	Zn96	0.234850	0.272390	0.336300
P1561	P156	0.221590	0.390090	0.101500
P1571	P157	0.277370	0.378570	0.393500
P1581	P158	0.261560	0.455400	0.221400
P1591	P159	0.225470	0.316870	0.284700
P1601	P160	0.277710	0.255460	0.396100
O4661	O466	0.233740	0.405540	0.175900
O4671	O467	0.224870	0.368380	0.151900
O4681	O468	0.224180	0.390470	0.954400
O4691	O469	0.271810	0.399830	0.342600
O4701	O470	0.262560	0.362400	0.330800
O4711	O471	0.278200	0.378140	0.544400
O4721	O472	0.277230	0.471970	0.206600
O4731	O473	0.254920	0.452450	0.367900
O4741	O474	0.269420	0.436150	0.164100
O4751	O475	0.242250	0.317110	0.187700
O4761	O476	0.225200	0.299520	0.368100
O4771	O477	0.224670	0.334900	0.365200
O4781	O478	0.264000	0.271910	0.336500
O4791	O479	0.272700	0.234030	0.336400
O4801	O480	0.277500	0.255550	0.542800
H1561	H156	0.201200	0.396300	0.119400
H1571	H157	0.297600	0.373900	0.343400
H1581	H158	0.247200	0.460700	0.120700
H1591	H159	0.209400	0.316200	0.188300
H1601	H160	0.292000	0.260100	0.311800
Ga11	Ga1	0.250000	0.027000	0.000000
Ga21	Ga2	0.750000	0.527000	0.500000
Ga31	Ga3	0.250000	0.973000	0.500000
Ga41	Ga4	0.750000	0.473000	0.000000
Ga51	Ga5	0.223000	0.000000	0.250000
Ga61	Ga6	0.723000	0.500000	0.750000
Ga71	Ga7	0.277000	0.000000	0.750000
Ga81	Ga8	0.777000	0.500000	0.250000
Ga91	Ga9	0.750000	0.973000	0.000000
Ga101	Ga10	0.250000	0.473000	0.500000
Ga111	Ga11	0.750000	0.027000	0.500000
Ga121	Ga12	0.250000	0.527000	0.000000
Ga131	Ga13	0.777000	0.000000	0.750000
Ga141	Ga14	0.277000	0.500000	0.250000
Ga151	Ga15	0.723000	0.000000	0.250000
Ga161	Ga16	0.223000	0.500000	0.750000
Zn971	Zn97	0.067220	0.000000	0.750000
Zn981	Zn98	0.567220	0.500000	0.250000
Zn991	Zn99	0.432780	0.000000	0.250000
Zn1001	Zn100	0.932780	0.500000	0.750000
Zn1011	Zn101	0.250000	0.817220	0.000000
Zn1021	Zn102	0.750000	0.317220	0.500000
Zn1031	Zn103	0.250000	0.182780	0.500000
Zn1041	Zn104	0.750000	0.682780	0.000000
Zn1051	Zn105	0.932780	0.000000	0.250000
Zn1061	Zn106	0.432780	0.500000	0.750000
Zn1071	Zn107	0.567220	0.000000	0.750000
Zn1081	Zn108	0.067220	0.500000	0.250000
Zn1091	Zn109	0.750000	0.182780	0.000000
Zn1101	Zn110	0.250000	0.682780	0.500000
Zn1111	Zn111	0.750000	0.817220	0.500000
Zn1121	Zn112	0.250000	0.317220	0.000000
F11	F1	0.244460	0.005540	0.125000
F21	F2	0.744460	0.505540	0.625000
F31	F3	0.255540	0.994460	0.625000
F41	F4	0.755540	0.494460	0.125000
F51	F5	0.244460	0.994460	0.375000
F61	F6	0.744460	0.494460	0.875000
F71	F7	0.255540	0.005540	0.875000
F81	F8	0.755540	0.505540	0.375000
F91	F9	0.755540	0.994460	0.875000
F101	F10	0.255540	0.494460	0.375000
F111	F11	0.744460	0.005540	0.375000
F121	F12	0.244460	0.505540	0.875000
F131	F13	0.755540	0.005540	0.625000
F141	F14	0.255540	0.505540	0.125000
F151	F15	0.744460	0.994460	0.125000
F161	F16	0.244460	0.494460	0.625000
