data_LETQAE_clean_PM
_symmetry_space_group_name_H-M	'P1'
_cell_length_a	48.561000
_cell_length_b	66.340000
_cell_length_c	10.037600
_cell_angle_alpha	90.000000
_cell_angle_beta	90.000000
_cell_angle_gamma	90.000000
_symmetry_Int_Tables_number 1

loop_
_symmetry_equiv_pos_as_xyz
'x,y,z'

loop_
_atom_site_label
_atom_site_type_symbol
_atom_site_fract_x
_atom_site_fract_y
_atom_site_fract_z
Zn11	Zn1	0.231680	0.091410	0.422750
Zn21	Zn2	0.438770	0.983810	0.829370
Zn31	Zn3	0.227960	0.138070	0.920080
Zn41	Zn4	0.229290	0.227490	0.913170
Zn51	Zn5	0.374850	0.013200	0.672870
P11	P1	0.310870	0.011450	0.719530
P21	P2	0.234380	0.044550	0.469810
P31	P3	0.400080	0.971600	0.601350
P41	P4	0.211450	0.109880	0.146730
P51	P5	0.212660	0.121500	0.641270
P61	P6	0.215840	0.182980	0.961330
P71	P7	0.416000	0.027240	0.890530
P81	P8	0.212220	0.255360	0.142200
O11	O1	0.288470	0.027020	0.702000
O21	O2	0.336990	0.019610	0.661300
O31	O3	0.315060	0.004870	0.864100
O41	O4	0.213180	0.028130	0.451800
O51	O5	0.243400	0.047560	0.615700
O61	O6	0.222910	0.063680	0.410800
O71	O7	0.379210	0.983720	0.678000
O81	O8	0.429440	0.974960	0.650300
O91	O9	0.398960	0.974000	0.454100
O101	O10	0.215580	0.131260	0.100100
O111	O11	0.214880	0.109280	0.294500
O121	O12	0.227910	0.094560	0.070800
O131	O13	0.218430	0.100330	0.594500
O141	O14	0.211290	0.121110	0.791000
O151	O15	0.232070	0.137570	0.582000
O161	O16	0.239560	0.182870	0.055800
O171	O17	0.214940	0.164790	0.875700
O181	O18	0.216070	0.200940	0.871200
O191	O19	0.387200	0.022520	0.845000
O201	O20	0.416070	0.028500	0.039400
O211	O21	0.437730	0.013140	0.833800
O221	O22	0.230990	0.271810	0.086600
O231	O23	0.211410	0.254500	0.291300
O241	O24	0.217930	0.234480	0.090500
O251	O25	0.475450	0.974640	0.873600
F11	F1	0.242850	0.005160	0.626400
H11	H1	0.301200	0.995500	0.642500
H21	H2	0.257900	0.039300	0.392400
H31	H3	0.396000	0.953900	0.630100
H41	H4	0.189800	0.106600	0.125300
H51	H5	0.199100	0.183400	0.013100
H61	H6	0.188500	0.127000	0.603800
H71	H7	0.420000	0.045100	0.839500
H81	H8	0.193200	0.257700	0.112800
Zn61	Zn6	0.731680	0.591410	0.422750
Zn71	Zn7	0.938770	0.483810	0.829370
Zn81	Zn8	0.727960	0.638070	0.920080
Zn91	Zn9	0.729290	0.727490	0.913170
Zn101	Zn10	0.874850	0.513200	0.672870
P91	P9	0.810870	0.511450	0.719530
P101	P10	0.734380	0.544550	0.469810
P111	P11	0.900080	0.471600	0.601350
P121	P12	0.711450	0.609880	0.146730
P131	P13	0.712660	0.621500	0.641270
P141	P14	0.715840	0.682980	0.961330
P151	P15	0.916000	0.527240	0.890530
P161	P16	0.712220	0.755360	0.142200
O261	O26	0.788470	0.527020	0.702000
O271	O27	0.836990	0.519610	0.661300
O281	O28	0.815060	0.504870	0.864100
O291	O29	0.713180	0.528130	0.451800
O301	O30	0.743400	0.547560	0.615700
O311	O31	0.722910	0.563680	0.410800
O321	O32	0.879210	0.483720	0.678000
O331	O33	0.929440	0.474960	0.650300
O341	O34	0.898960	0.474000	0.454100
O351	O35	0.715580	0.631260	0.100100
O361	O36	0.714880	0.609280	0.294500
O371	O37	0.727910	0.594560	0.070800
O381	O38	0.718430	0.600330	0.594500
O391	O39	0.711290	0.621110	0.791000
O401	O40	0.732070	0.637570	0.582000
O411	O41	0.739560	0.682870	0.055800
O421	O42	0.714940	0.664790	0.875700
O431	O43	0.716070	0.700940	0.871200
O441	O44	0.887200	0.522520	0.845000
O451	O45	0.916070	0.528500	0.039400
O461	O46	0.937730	0.513140	0.833800
O471	O47	0.730990	0.771810	0.086600
O481	O48	0.711410	0.754500	0.291300
O491	O49	0.717930	0.734480	0.090500
O501	O50	0.975450	0.474640	0.873600
F21	F2	0.742850	0.505160	0.626400
H91	H9	0.801200	0.495500	0.642500
H101	H10	0.757900	0.539300	0.392400
H111	H11	0.896000	0.453900	0.630100
H121	H12	0.689800	0.606600	0.125300
H131	H13	0.699100	0.683400	0.013100
H141	H14	0.688500	0.627000	0.603800
H151	H15	0.920000	0.545100	0.839500
H161	H16	0.693200	0.757700	0.112800
Zn111	Zn11	0.768320	0.408590	0.922750
Zn121	Zn12	0.561230	0.516190	0.329370
Zn131	Zn13	0.772040	0.361930	0.420080
Zn141	Zn14	0.770710	0.272510	0.413170
Zn151	Zn15	0.625150	0.486800	0.172870
P171	P17	0.689130	0.488550	0.219530
P181	P18	0.765620	0.455450	0.969810
P191	P19	0.599920	0.528400	0.101350
P201	P20	0.788550	0.390120	0.646730
P211	P21	0.787340	0.378500	0.141270
P221	P22	0.784160	0.317020	0.461330
P231	P23	0.584000	0.472760	0.390530
P241	P24	0.787780	0.244640	0.642200
O511	O51	0.711530	0.472980	0.202000
O521	O52	0.663010	0.480390	0.161300
O531	O53	0.684940	0.495130	0.364100
O541	O54	0.786820	0.471870	0.951800
O551	O55	0.756600	0.452440	0.115700
O561	O56	0.777090	0.436320	0.910800
O571	O57	0.620790	0.516280	0.178000
O581	O58	0.570560	0.525040	0.150300
O591	O59	0.601040	0.526000	0.954100
O601	O60	0.784420	0.368740	0.600100
O611	O61	0.785120	0.390720	0.794500
O621	O62	0.772090	0.405440	0.570800
O631	O63	0.781570	0.399670	0.094500
O641	O64	0.788710	0.378890	0.291000
O651	O65	0.767930	0.362430	0.082000
O661	O66	0.760440	0.317130	0.555800
O671	O67	0.785060	0.335210	0.375700
O681	O68	0.783930	0.299060	0.371200
O691	O69	0.612800	0.477480	0.345000
O701	O70	0.583930	0.471500	0.539400
O711	O71	0.562270	0.486860	0.333800
O721	O72	0.769010	0.228190	0.586600
O731	O73	0.788590	0.245500	0.791300
O741	O74	0.782070	0.265520	0.590500
O751	O75	0.524550	0.525360	0.373600
F31	F3	0.757150	0.494840	0.126400
H171	H17	0.698800	0.504500	0.142500
H181	H18	0.742100	0.460700	0.892400
H191	H19	0.604000	0.546100	0.130100
H201	H20	0.810200	0.393400	0.625300
H211	H21	0.800900	0.316600	0.513100
H221	H22	0.811500	0.373000	0.103800
H231	H23	0.580000	0.454900	0.339500
H241	H24	0.806800	0.242300	0.612800
Zn161	Zn16	0.268320	0.908590	0.922750
Zn171	Zn17	0.061230	0.016190	0.329370
Zn181	Zn18	0.272040	0.861930	0.420080
Zn191	Zn19	0.270710	0.772510	0.413170
Zn201	Zn20	0.125150	0.986800	0.172870
P251	P25	0.189130	0.988550	0.219530
P261	P26	0.265620	0.955450	0.969810
P271	P27	0.099920	0.028400	0.101350
P281	P28	0.288550	0.890120	0.646730
P291	P29	0.287340	0.878500	0.141270
P301	P30	0.284160	0.817020	0.461330
P311	P31	0.084000	0.972760	0.390530
P321	P32	0.287780	0.744640	0.642200
O761	O76	0.211530	0.972980	0.202000
O771	O77	0.163010	0.980390	0.161300
O781	O78	0.184940	0.995130	0.364100
O791	O79	0.286820	0.971870	0.951800
O801	O80	0.256600	0.952440	0.115700
O811	O81	0.277090	0.936320	0.910800
O821	O82	0.120790	0.016280	0.178000
O831	O83	0.070560	0.025040	0.150300
O841	O84	0.101040	0.026000	0.954100
O851	O85	0.284420	0.868740	0.600100
O861	O86	0.285120	0.890720	0.794500
O871	O87	0.272090	0.905440	0.570800
O881	O88	0.281570	0.899670	0.094500
O891	O89	0.288710	0.878890	0.291000
O901	O90	0.267930	0.862430	0.082000
O911	O91	0.260440	0.817130	0.555800
O921	O92	0.285060	0.835210	0.375700
O931	O93	0.283930	0.799060	0.371200
O941	O94	0.112800	0.977480	0.345000
O951	O95	0.083930	0.971500	0.539400
O961	O96	0.062270	0.986860	0.333800
O971	O97	0.269010	0.728190	0.586600
O981	O98	0.288590	0.745500	0.791300
O991	O99	0.282070	0.765520	0.590500
O1001	O100	0.024550	0.025360	0.373600
F41	F4	0.257150	0.994840	0.126400
H251	H25	0.198800	0.004500	0.142500
H261	H26	0.242100	0.960700	0.892400
H271	H27	0.104000	0.046100	0.130100
H281	H28	0.310200	0.893400	0.625300
H291	H29	0.300900	0.816600	0.513100
H301	H30	0.311500	0.873000	0.103800
H311	H31	0.080000	0.954900	0.339500
H321	H32	0.306800	0.742300	0.612800
Zn211	Zn21	0.768320	0.591410	0.077250
Zn221	Zn22	0.561230	0.483810	0.670630
Zn231	Zn23	0.772040	0.638070	0.579920
Zn241	Zn24	0.770710	0.727490	0.586830
Zn251	Zn25	0.625150	0.513200	0.827130
P331	P33	0.689130	0.511450	0.780470
P341	P34	0.765620	0.544550	0.030190
P351	P35	0.599920	0.471600	0.898650
P361	P36	0.788550	0.609880	0.353270
P371	P37	0.787340	0.621500	0.858730
P381	P38	0.784160	0.682980	0.538670
P391	P39	0.584000	0.527240	0.609470
P401	P40	0.787780	0.755360	0.357800
O1011	O101	0.711530	0.527020	0.798000
O1021	O102	0.663010	0.519610	0.838700
O1031	O103	0.684940	0.504870	0.635900
O1041	O104	0.786820	0.528130	0.048200
O1051	O105	0.756600	0.547560	0.884300
O1061	O106	0.777090	0.563680	0.089200
O1071	O107	0.620790	0.483720	0.822000
O1081	O108	0.570560	0.474960	0.849700
O1091	O109	0.601040	0.474000	0.045900
O1101	O110	0.784420	0.631260	0.399900
O1111	O111	0.785120	0.609280	0.205500
O1121	O112	0.772090	0.594560	0.429200
O1131	O113	0.781570	0.600330	0.905500
O1141	O114	0.788710	0.621110	0.709000
O1151	O115	0.767930	0.637570	0.918000
O1161	O116	0.760440	0.682870	0.444200
O1171	O117	0.785060	0.664790	0.624300
O1181	O118	0.783930	0.700940	0.628800
O1191	O119	0.612800	0.522520	0.655000
O1201	O120	0.583930	0.528500	0.460600
O1211	O121	0.562270	0.513140	0.666200
O1221	O122	0.769010	0.771810	0.413400
O1231	O123	0.788590	0.754500	0.208700
O1241	O124	0.782070	0.734480	0.409500
O1251	O125	0.524550	0.474640	0.626400
F51	F5	0.757150	0.505160	0.873600
H331	H33	0.698800	0.495500	0.857500
H341	H34	0.742100	0.539300	0.107600
H351	H35	0.604000	0.453900	0.869900
H361	H36	0.810200	0.606600	0.374700
H371	H37	0.800900	0.683400	0.486900
H381	H38	0.811500	0.627000	0.896200
H391	H39	0.580000	0.545100	0.660500
H401	H40	0.806800	0.757700	0.387200
Zn261	Zn26	0.268320	0.091410	0.077250
Zn271	Zn27	0.061230	0.983810	0.670630
Zn281	Zn28	0.272040	0.138070	0.579920
Zn291	Zn29	0.270710	0.227490	0.586830
Zn301	Zn30	0.125150	0.013200	0.827130
P411	P41	0.189130	0.011450	0.780470
P421	P42	0.265620	0.044550	0.030190
P431	P43	0.099920	0.971600	0.898650
P441	P44	0.288550	0.109880	0.353270
P451	P45	0.287340	0.121500	0.858730
P461	P46	0.284160	0.182980	0.538670
P471	P47	0.084000	0.027240	0.609470
P481	P48	0.287780	0.255360	0.357800
O1261	O126	0.211530	0.027020	0.798000
O1271	O127	0.163010	0.019610	0.838700
O1281	O128	0.184940	0.004870	0.635900
O1291	O129	0.286820	0.028130	0.048200
O1301	O130	0.256600	0.047560	0.884300
O1311	O131	0.277090	0.063680	0.089200
O1321	O132	0.120790	0.983720	0.822000
O1331	O133	0.070560	0.974960	0.849700
O1341	O134	0.101040	0.974000	0.045900
O1351	O135	0.284420	0.131260	0.399900
O1361	O136	0.285120	0.109280	0.205500
O1371	O137	0.272090	0.094560	0.429200
O1381	O138	0.281570	0.100330	0.905500
O1391	O139	0.288710	0.121110	0.709000
O1401	O140	0.267930	0.137570	0.918000
O1411	O141	0.260440	0.182870	0.444200
O1421	O142	0.285060	0.164790	0.624300
O1431	O143	0.283930	0.200940	0.628800
O1441	O144	0.112800	0.022520	0.655000
O1451	O145	0.083930	0.028500	0.460600
O1461	O146	0.062270	0.013140	0.666200
O1471	O147	0.269010	0.271810	0.413400
O1481	O148	0.288590	0.254500	0.208700
O1491	O149	0.282070	0.234480	0.409500
O1501	O150	0.024550	0.974640	0.626400
F61	F6	0.257150	0.005160	0.873600
H411	H41	0.198800	0.995500	0.857500
H421	H42	0.242100	0.039300	0.107600
H431	H43	0.104000	0.953900	0.869900
H441	H44	0.310200	0.106600	0.374700
H451	H45	0.300900	0.183400	0.486900
H461	H46	0.311500	0.127000	0.896200
H471	H47	0.080000	0.045100	0.660500
H481	H48	0.306800	0.257700	0.387200
Zn311	Zn31	0.231680	0.908590	0.577250
Zn321	Zn32	0.438770	0.016190	0.170630
Zn331	Zn33	0.227960	0.861930	0.079920
Zn341	Zn34	0.229290	0.772510	0.086830
Zn351	Zn35	0.374850	0.986800	0.327130
P491	P49	0.310870	0.988550	0.280470
P501	P50	0.234380	0.955450	0.530190
P511	P51	0.400080	0.028400	0.398650
P521	P52	0.211450	0.890120	0.853270
P531	P53	0.212660	0.878500	0.358730
P541	P54	0.215840	0.817020	0.038670
P551	P55	0.416000	0.972760	0.109470
P561	P56	0.212220	0.744640	0.857800
O1511	O151	0.288470	0.972980	0.298000
O1521	O152	0.336990	0.980390	0.338700
O1531	O153	0.315060	0.995130	0.135900
O1541	O154	0.213180	0.971870	0.548200
O1551	O155	0.243400	0.952440	0.384300
O1561	O156	0.222910	0.936320	0.589200
O1571	O157	0.379210	0.016280	0.322000
O1581	O158	0.429440	0.025040	0.349700
O1591	O159	0.398960	0.026000	0.545900
O1601	O160	0.215580	0.868740	0.899900
O1611	O161	0.214880	0.890720	0.705500
O1621	O162	0.227910	0.905440	0.929200
O1631	O163	0.218430	0.899670	0.405500
O1641	O164	0.211290	0.878890	0.209000
O1651	O165	0.232070	0.862430	0.418000
O1661	O166	0.239560	0.817130	0.944200
O1671	O167	0.214940	0.835210	0.124300
O1681	O168	0.216070	0.799060	0.128800
O1691	O169	0.387200	0.977480	0.155000
O1701	O170	0.416070	0.971500	0.960600
O1711	O171	0.437730	0.986860	0.166200
O1721	O172	0.230990	0.728190	0.913400
O1731	O173	0.211410	0.745500	0.708700
O1741	O174	0.217930	0.765520	0.909500
O1751	O175	0.475450	0.025360	0.126400
F71	F7	0.242850	0.994840	0.373600
H491	H49	0.301200	0.004500	0.357500
H501	H50	0.257900	0.960700	0.607600
H511	H51	0.396000	0.046100	0.369900
H521	H52	0.189800	0.893400	0.874700
H531	H53	0.199100	0.816600	0.986900
H541	H54	0.188500	0.873000	0.396200
H551	H55	0.420000	0.954900	0.160500
H561	H56	0.193200	0.742300	0.887200
Zn361	Zn36	0.731680	0.408590	0.577250
Zn371	Zn37	0.938770	0.516190	0.170630
Zn381	Zn38	0.727960	0.361930	0.079920
Zn391	Zn39	0.729290	0.272510	0.086830
Zn401	Zn40	0.874850	0.486800	0.327130
P571	P57	0.810870	0.488550	0.280470
P581	P58	0.734380	0.455450	0.530190
P591	P59	0.900080	0.528400	0.398650
P601	P60	0.711450	0.390120	0.853270
P611	P61	0.712660	0.378500	0.358730
P621	P62	0.715840	0.317020	0.038670
P631	P63	0.916000	0.472760	0.109470
P641	P64	0.712220	0.244640	0.857800
O1761	O176	0.788470	0.472980	0.298000
O1771	O177	0.836990	0.480390	0.338700
O1781	O178	0.815060	0.495130	0.135900
O1791	O179	0.713180	0.471870	0.548200
O1801	O180	0.743400	0.452440	0.384300
O1811	O181	0.722910	0.436320	0.589200
O1821	O182	0.879210	0.516280	0.322000
O1831	O183	0.929440	0.525040	0.349700
O1841	O184	0.898960	0.526000	0.545900
O1851	O185	0.715580	0.368740	0.899900
O1861	O186	0.714880	0.390720	0.705500
O1871	O187	0.727910	0.405440	0.929200
O1881	O188	0.718430	0.399670	0.405500
O1891	O189	0.711290	0.378890	0.209000
O1901	O190	0.732070	0.362430	0.418000
O1911	O191	0.739560	0.317130	0.944200
O1921	O192	0.714940	0.335210	0.124300
O1931	O193	0.716070	0.299060	0.128800
O1941	O194	0.887200	0.477480	0.155000
O1951	O195	0.916070	0.471500	0.960600
O1961	O196	0.937730	0.486860	0.166200
O1971	O197	0.730990	0.228190	0.913400
O1981	O198	0.711410	0.245500	0.708700
O1991	O199	0.717930	0.265520	0.909500
O2001	O200	0.975450	0.525360	0.126400
F81	F8	0.742850	0.494840	0.373600
H571	H57	0.801200	0.504500	0.357500
H581	H58	0.757900	0.460700	0.607600
H591	H59	0.896000	0.546100	0.369900
H601	H60	0.689800	0.393400	0.874700
H611	H61	0.699100	0.316600	0.986900
H621	H62	0.688500	0.373000	0.396200
H631	H63	0.920000	0.454900	0.160500
H641	H64	0.693200	0.242300	0.887200
Zn411	Zn41	0.768320	0.908590	0.577250
Zn421	Zn42	0.561230	0.016190	0.170630
Zn431	Zn43	0.772040	0.861930	0.079920
Zn441	Zn44	0.770710	0.772510	0.086830
Zn451	Zn45	0.625150	0.986800	0.327130
P651	P65	0.689130	0.988550	0.280470
P661	P66	0.765620	0.955450	0.530190
P671	P67	0.599920	0.028400	0.398650
P681	P68	0.788550	0.890120	0.853270
P691	P69	0.787340	0.878500	0.358730
P701	P70	0.784160	0.817020	0.038670
P711	P71	0.584000	0.972760	0.109470
P721	P72	0.787780	0.744640	0.857800
O2011	O201	0.711530	0.972980	0.298000
O2021	O202	0.663010	0.980390	0.338700
O2031	O203	0.684940	0.995130	0.135900
O2041	O204	0.786820	0.971870	0.548200
O2051	O205	0.756600	0.952440	0.384300
O2061	O206	0.777090	0.936320	0.589200
O2071	O207	0.620790	0.016280	0.322000
O2081	O208	0.570560	0.025040	0.349700
O2091	O209	0.601040	0.026000	0.545900
O2101	O210	0.784420	0.868740	0.899900
O2111	O211	0.785120	0.890720	0.705500
O2121	O212	0.772090	0.905440	0.929200
O2131	O213	0.781570	0.899670	0.405500
O2141	O214	0.788710	0.878890	0.209000
O2151	O215	0.767930	0.862430	0.418000
O2161	O216	0.760440	0.817130	0.944200
O2171	O217	0.785060	0.835210	0.124300
O2181	O218	0.783930	0.799060	0.128800
O2191	O219	0.612800	0.977480	0.155000
O2201	O220	0.583930	0.971500	0.960600
O2211	O221	0.562270	0.986860	0.166200
O2221	O222	0.769010	0.728190	0.913400
O2231	O223	0.788590	0.745500	0.708700
O2241	O224	0.782070	0.765520	0.909500
O2251	O225	0.524550	0.025360	0.126400
F91	F9	0.757150	0.994840	0.373600
H651	H65	0.698800	0.004500	0.357500
H661	H66	0.742100	0.960700	0.607600
H671	H67	0.604000	0.046100	0.369900
H681	H68	0.810200	0.893400	0.874700
H691	H69	0.800900	0.816600	0.986900
H701	H70	0.811500	0.873000	0.396200
H711	H71	0.580000	0.954900	0.160500
H721	H72	0.806800	0.742300	0.887200
Zn461	Zn46	0.268320	0.408590	0.577250
Zn471	Zn47	0.061230	0.516190	0.170630
Zn481	Zn48	0.272040	0.361930	0.079920
Zn491	Zn49	0.270710	0.272510	0.086830
Zn501	Zn50	0.125150	0.486800	0.327130
P731	P73	0.189130	0.488550	0.280470
P741	P74	0.265620	0.455450	0.530190
P751	P75	0.099920	0.528400	0.398650
P761	P76	0.288550	0.390120	0.853270
P771	P77	0.287340	0.378500	0.358730
P781	P78	0.284160	0.317020	0.038670
P791	P79	0.084000	0.472760	0.109470
P801	P80	0.287780	0.244640	0.857800
O2261	O226	0.211530	0.472980	0.298000
O2271	O227	0.163010	0.480390	0.338700
O2281	O228	0.184940	0.495130	0.135900
O2291	O229	0.286820	0.471870	0.548200
O2301	O230	0.256600	0.452440	0.384300
O2311	O231	0.277090	0.436320	0.589200
O2321	O232	0.120790	0.516280	0.322000
O2331	O233	0.070560	0.525040	0.349700
O2341	O234	0.101040	0.526000	0.545900
O2351	O235	0.284420	0.368740	0.899900
O2361	O236	0.285120	0.390720	0.705500
O2371	O237	0.272090	0.405440	0.929200
O2381	O238	0.281570	0.399670	0.405500
O2391	O239	0.288710	0.378890	0.209000
O2401	O240	0.267930	0.362430	0.418000
O2411	O241	0.260440	0.317130	0.944200
O2421	O242	0.285060	0.335210	0.124300
O2431	O243	0.283930	0.299060	0.128800
O2441	O244	0.112800	0.477480	0.155000
O2451	O245	0.083930	0.471500	0.960600
O2461	O246	0.062270	0.486860	0.166200
O2471	O247	0.269010	0.228190	0.913400
O2481	O248	0.288590	0.245500	0.708700
O2491	O249	0.282070	0.265520	0.909500
O2501	O250	0.024550	0.525360	0.126400
F101	F10	0.257150	0.494840	0.373600
H731	H73	0.198800	0.504500	0.357500
H741	H74	0.242100	0.460700	0.607600
H751	H75	0.104000	0.546100	0.369900
H761	H76	0.310200	0.393400	0.874700
H771	H77	0.300900	0.316600	0.986900
H781	H78	0.311500	0.373000	0.396200
H791	H79	0.080000	0.454900	0.160500
H801	H80	0.306800	0.242300	0.887200
Zn511	Zn51	0.231680	0.591410	0.077250
Zn521	Zn52	0.438770	0.483810	0.670630
Zn531	Zn53	0.227960	0.638070	0.579920
Zn541	Zn54	0.229290	0.727490	0.586830
Zn551	Zn55	0.374850	0.513200	0.827130
P811	P81	0.310870	0.511450	0.780470
P821	P82	0.234380	0.544550	0.030190
P831	P83	0.400080	0.471600	0.898650
P841	P84	0.211450	0.609880	0.353270
P851	P85	0.212660	0.621500	0.858730
P861	P86	0.215840	0.682980	0.538670
P871	P87	0.416000	0.527240	0.609470
P881	P88	0.212220	0.755360	0.357800
O2511	O251	0.288470	0.527020	0.798000
O2521	O252	0.336990	0.519610	0.838700
O2531	O253	0.315060	0.504870	0.635900
O2541	O254	0.213180	0.528130	0.048200
O2551	O255	0.243400	0.547560	0.884300
O2561	O256	0.222910	0.563680	0.089200
O2571	O257	0.379210	0.483720	0.822000
O2581	O258	0.429440	0.474960	0.849700
O2591	O259	0.398960	0.474000	0.045900
O2601	O260	0.215580	0.631260	0.399900
O2611	O261	0.214880	0.609280	0.205500
O2621	O262	0.227910	0.594560	0.429200
O2631	O263	0.218430	0.600330	0.905500
O2641	O264	0.211290	0.621110	0.709000
O2651	O265	0.232070	0.637570	0.918000
O2661	O266	0.239560	0.682870	0.444200
O2671	O267	0.214940	0.664790	0.624300
O2681	O268	0.216070	0.700940	0.628800
O2691	O269	0.387200	0.522520	0.655000
O2701	O270	0.416070	0.528500	0.460600
O2711	O271	0.437730	0.513140	0.666200
O2721	O272	0.230990	0.771810	0.413400
O2731	O273	0.211410	0.754500	0.208700
O2741	O274	0.217930	0.734480	0.409500
O2751	O275	0.475450	0.474640	0.626400
F111	F11	0.242850	0.505160	0.873600
H811	H81	0.301200	0.495500	0.857500
H821	H82	0.257900	0.539300	0.107600
H831	H83	0.396000	0.453900	0.869900
H841	H84	0.189800	0.606600	0.374700
H851	H85	0.199100	0.683400	0.486900
H861	H86	0.188500	0.627000	0.896200
H871	H87	0.420000	0.545100	0.660500
H881	H88	0.193200	0.757700	0.387200
Zn561	Zn56	0.731680	0.091410	0.077250
Zn571	Zn57	0.938770	0.983810	0.670630
Zn581	Zn58	0.727960	0.138070	0.579920
Zn591	Zn59	0.729290	0.227490	0.586830
Zn601	Zn60	0.874850	0.013200	0.827130
P891	P89	0.810870	0.011450	0.780470
P901	P90	0.734380	0.044550	0.030190
P911	P91	0.900080	0.971600	0.898650
P921	P92	0.711450	0.109880	0.353270
P931	P93	0.712660	0.121500	0.858730
P941	P94	0.715840	0.182980	0.538670
P951	P95	0.916000	0.027240	0.609470
P961	P96	0.712220	0.255360	0.357800
O2761	O276	0.788470	0.027020	0.798000
O2771	O277	0.836990	0.019610	0.838700
O2781	O278	0.815060	0.004870	0.635900
O2791	O279	0.713180	0.028130	0.048200
O2801	O280	0.743400	0.047560	0.884300
O2811	O281	0.722910	0.063680	0.089200
O2821	O282	0.879210	0.983720	0.822000
O2831	O283	0.929440	0.974960	0.849700
O2841	O284	0.898960	0.974000	0.045900
O2851	O285	0.715580	0.131260	0.399900
O2861	O286	0.714880	0.109280	0.205500
O2871	O287	0.727910	0.094560	0.429200
O2881	O288	0.718430	0.100330	0.905500
O2891	O289	0.711290	0.121110	0.709000
O2901	O290	0.732070	0.137570	0.918000
O2911	O291	0.739560	0.182870	0.444200
O2921	O292	0.714940	0.164790	0.624300
O2931	O293	0.716070	0.200940	0.628800
O2941	O294	0.887200	0.022520	0.655000
O2951	O295	0.916070	0.028500	0.460600
O2961	O296	0.937730	0.013140	0.666200
O2971	O297	0.730990	0.271810	0.413400
O2981	O298	0.711410	0.254500	0.208700
O2991	O299	0.717930	0.234480	0.409500
O3001	O300	0.975450	0.974640	0.626400
F121	F12	0.742850	0.005160	0.873600
H891	H89	0.801200	0.995500	0.857500
H901	H90	0.757900	0.039300	0.107600
H911	H91	0.896000	0.953900	0.869900
H921	H92	0.689800	0.106600	0.374700
H931	H93	0.699100	0.183400	0.486900
H941	H94	0.688500	0.127000	0.896200
H951	H95	0.920000	0.045100	0.660500
H961	H96	0.693200	0.257700	0.387200
Zn611	Zn61	0.231680	0.408590	0.922750
Zn621	Zn62	0.438770	0.516190	0.329370
Zn631	Zn63	0.227960	0.361930	0.420080
Zn641	Zn64	0.229290	0.272510	0.413170
Zn651	Zn65	0.374850	0.486800	0.172870
P971	P97	0.310870	0.488550	0.219530
P981	P98	0.234380	0.455450	0.969810
P991	P99	0.400080	0.528400	0.101350
P1001	P100	0.211450	0.390120	0.646730
P1011	P101	0.212660	0.378500	0.141270
P1021	P102	0.215840	0.317020	0.461330
P1031	P103	0.416000	0.472760	0.390530
P1041	P104	0.212220	0.244640	0.642200
O3011	O301	0.288470	0.472980	0.202000
O3021	O302	0.336990	0.480390	0.161300
O3031	O303	0.315060	0.495130	0.364100
O3041	O304	0.213180	0.471870	0.951800
O3051	O305	0.243400	0.452440	0.115700
O3061	O306	0.222910	0.436320	0.910800
O3071	O307	0.379210	0.516280	0.178000
O3081	O308	0.429440	0.525040	0.150300
O3091	O309	0.398960	0.526000	0.954100
O3101	O310	0.215580	0.368740	0.600100
O3111	O311	0.214880	0.390720	0.794500
O3121	O312	0.227910	0.405440	0.570800
O3131	O313	0.218430	0.399670	0.094500
O3141	O314	0.211290	0.378890	0.291000
O3151	O315	0.232070	0.362430	0.082000
O3161	O316	0.239560	0.317130	0.555800
O3171	O317	0.214940	0.335210	0.375700
O3181	O318	0.216070	0.299060	0.371200
O3191	O319	0.387200	0.477480	0.345000
O3201	O320	0.416070	0.471500	0.539400
O3211	O321	0.437730	0.486860	0.333800
O3221	O322	0.230990	0.228190	0.586600
O3231	O323	0.211410	0.245500	0.791300
O3241	O324	0.217930	0.265520	0.590500
O3251	O325	0.475450	0.525360	0.373600
F131	F13	0.242850	0.494840	0.126400
H971	H97	0.301200	0.504500	0.142500
H981	H98	0.257900	0.460700	0.892400
H991	H99	0.396000	0.546100	0.130100
H1001	H100	0.189800	0.393400	0.625300
H1011	H101	0.199100	0.316600	0.513100
H1021	H102	0.188500	0.373000	0.103800
H1031	H103	0.420000	0.454900	0.339500
H1041	H104	0.193200	0.242300	0.612800
Zn661	Zn66	0.731680	0.908590	0.922750
Zn671	Zn67	0.938770	0.016190	0.329370
Zn681	Zn68	0.727960	0.861930	0.420080
Zn691	Zn69	0.729290	0.772510	0.413170
Zn701	Zn70	0.874850	0.986800	0.172870
P1051	P105	0.810870	0.988550	0.219530
P1061	P106	0.734380	0.955450	0.969810
P1071	P107	0.900080	0.028400	0.101350
P1081	P108	0.711450	0.890120	0.646730
P1091	P109	0.712660	0.878500	0.141270
P1101	P110	0.715840	0.817020	0.461330
P1111	P111	0.916000	0.972760	0.390530
P1121	P112	0.712220	0.744640	0.642200
O3261	O326	0.788470	0.972980	0.202000
O3271	O327	0.836990	0.980390	0.161300
O3281	O328	0.815060	0.995130	0.364100
O3291	O329	0.713180	0.971870	0.951800
O3301	O330	0.743400	0.952440	0.115700
O3311	O331	0.722910	0.936320	0.910800
O3321	O332	0.879210	0.016280	0.178000
O3331	O333	0.929440	0.025040	0.150300
O3341	O334	0.898960	0.026000	0.954100
O3351	O335	0.715580	0.868740	0.600100
O3361	O336	0.714880	0.890720	0.794500
O3371	O337	0.727910	0.905440	0.570800
O3381	O338	0.718430	0.899670	0.094500
O3391	O339	0.711290	0.878890	0.291000
O3401	O340	0.732070	0.862430	0.082000
O3411	O341	0.739560	0.817130	0.555800
O3421	O342	0.714940	0.835210	0.375700
O3431	O343	0.716070	0.799060	0.371200
O3441	O344	0.887200	0.977480	0.345000
O3451	O345	0.916070	0.971500	0.539400
O3461	O346	0.937730	0.986860	0.333800
O3471	O347	0.730990	0.728190	0.586600
O3481	O348	0.711410	0.745500	0.791300
O3491	O349	0.717930	0.765520	0.590500
O3501	O350	0.975450	0.025360	0.373600
F141	F14	0.742850	0.994840	0.126400
H1051	H105	0.801200	0.004500	0.142500
H1061	H106	0.757900	0.960700	0.892400
H1071	H107	0.896000	0.046100	0.130100
H1081	H108	0.689800	0.893400	0.625300
H1091	H109	0.699100	0.816600	0.513100
H1101	H110	0.688500	0.873000	0.103800
H1111	H111	0.920000	0.954900	0.339500
H1121	H112	0.693200	0.742300	0.612800
Zn711	Zn71	0.768320	0.091410	0.422750
Zn721	Zn72	0.561230	0.983810	0.829370
Zn731	Zn73	0.772040	0.138070	0.920080
Zn741	Zn74	0.770710	0.227490	0.913170
Zn751	Zn75	0.625150	0.013200	0.672870
P1131	P113	0.689130	0.011450	0.719530
P1141	P114	0.765620	0.044550	0.469810
P1151	P115	0.599920	0.971600	0.601350
P1161	P116	0.788550	0.109880	0.146730
P1171	P117	0.787340	0.121500	0.641270
P1181	P118	0.784160	0.182980	0.961330
P1191	P119	0.584000	0.027240	0.890530
P1201	P120	0.787780	0.255360	0.142200
O3511	O351	0.711530	0.027020	0.702000
O3521	O352	0.663010	0.019610	0.661300
O3531	O353	0.684940	0.004870	0.864100
O3541	O354	0.786820	0.028130	0.451800
O3551	O355	0.756600	0.047560	0.615700
O3561	O356	0.777090	0.063680	0.410800
O3571	O357	0.620790	0.983720	0.678000
O3581	O358	0.570560	0.974960	0.650300
O3591	O359	0.601040	0.974000	0.454100
O3601	O360	0.784420	0.131260	0.100100
O3611	O361	0.785120	0.109280	0.294500
O3621	O362	0.772090	0.094560	0.070800
O3631	O363	0.781570	0.100330	0.594500
O3641	O364	0.788710	0.121110	0.791000
O3651	O365	0.767930	0.137570	0.582000
O3661	O366	0.760440	0.182870	0.055800
O3671	O367	0.785060	0.164790	0.875700
O3681	O368	0.783930	0.200940	0.871200
O3691	O369	0.612800	0.022520	0.845000
O3701	O370	0.583930	0.028500	0.039400
O3711	O371	0.562270	0.013140	0.833800
O3721	O372	0.769010	0.271810	0.086600
O3731	O373	0.788590	0.254500	0.291300
O3741	O374	0.782070	0.234480	0.090500
O3751	O375	0.524550	0.974640	0.873600
F151	F15	0.757150	0.005160	0.626400
H1131	H113	0.698800	0.995500	0.642500
H1141	H114	0.742100	0.039300	0.392400
H1151	H115	0.604000	0.953900	0.630100
H1161	H116	0.810200	0.106600	0.125300
H1171	H117	0.800900	0.183400	0.013100
H1181	H118	0.811500	0.127000	0.603800
H1191	H119	0.580000	0.045100	0.839500
H1201	H120	0.806800	0.257700	0.112800
Zn761	Zn76	0.268320	0.591410	0.422750
Zn771	Zn77	0.061230	0.483810	0.829370
Zn781	Zn78	0.272040	0.638070	0.920080
Zn791	Zn79	0.270710	0.727490	0.913170
Zn801	Zn80	0.125150	0.513200	0.672870
P1211	P121	0.189130	0.511450	0.719530
P1221	P122	0.265620	0.544550	0.469810
P1231	P123	0.099920	0.471600	0.601350
P1241	P124	0.288550	0.609880	0.146730
P1251	P125	0.287340	0.621500	0.641270
P1261	P126	0.284160	0.682980	0.961330
P1271	P127	0.084000	0.527240	0.890530
P1281	P128	0.287780	0.755360	0.142200
O3761	O376	0.211530	0.527020	0.702000
O3771	O377	0.163010	0.519610	0.661300
O3781	O378	0.184940	0.504870	0.864100
O3791	O379	0.286820	0.528130	0.451800
O3801	O380	0.256600	0.547560	0.615700
O3811	O381	0.277090	0.563680	0.410800
O3821	O382	0.120790	0.483720	0.678000
O3831	O383	0.070560	0.474960	0.650300
O3841	O384	0.101040	0.474000	0.454100
O3851	O385	0.284420	0.631260	0.100100
O3861	O386	0.285120	0.609280	0.294500
O3871	O387	0.272090	0.594560	0.070800
O3881	O388	0.281570	0.600330	0.594500
O3891	O389	0.288710	0.621110	0.791000
O3901	O390	0.267930	0.637570	0.582000
O3911	O391	0.260440	0.682870	0.055800
O3921	O392	0.285060	0.664790	0.875700
O3931	O393	0.283930	0.700940	0.871200
O3941	O394	0.112800	0.522520	0.845000
O3951	O395	0.083930	0.528500	0.039400
O3961	O396	0.062270	0.513140	0.833800
O3971	O397	0.269010	0.771810	0.086600
O3981	O398	0.288590	0.754500	0.291300
O3991	O399	0.282070	0.734480	0.090500
O4001	O400	0.024550	0.474640	0.873600
F161	F16	0.257150	0.505160	0.626400
H1211	H121	0.198800	0.495500	0.642500
H1221	H122	0.242100	0.539300	0.392400
H1231	H123	0.104000	0.453900	0.630100
H1241	H124	0.310200	0.606600	0.125300
H1251	H125	0.300900	0.683400	0.013100
H1261	H126	0.311500	0.627000	0.603800
H1271	H127	0.080000	0.545100	0.839500
H1281	H128	0.306800	0.757700	0.112800
Ga11	Ga1	0.250000	0.026840	0.750000
Ga21	Ga2	0.750000	0.473160	0.250000
Ga31	Ga3	0.750000	0.526840	0.750000
Ga41	Ga4	0.250000	0.973160	0.250000
Ga51	Ga5	0.750000	0.973160	0.250000
Ga61	Ga6	0.250000	0.526840	0.750000
Ga71	Ga7	0.250000	0.473160	0.250000
Ga81	Ga8	0.750000	0.026840	0.750000
Ga91	Ga9	0.213260	0.000000	0.500000
Ga101	Ga10	0.713260	0.500000	0.500000
Ga111	Ga11	0.786740	0.500000	0.000000
Ga121	Ga12	0.286740	0.000000	0.000000
Ga131	Ga13	0.786740	0.000000	0.500000
Ga141	Ga14	0.286740	0.500000	0.500000
Ga151	Ga15	0.213260	0.500000	0.000000
Ga161	Ga16	0.713260	0.000000	0.000000
Zn811	Zn81	0.500000	0.000000	0.500000
Zn821	Zn82	0.000000	0.500000	0.500000
Zn831	Zn83	0.500000	0.500000	0.000000
Zn841	Zn84	0.000000	0.000000	0.000000
Zn851	Zn85	0.250000	0.182630	0.250000
Zn861	Zn86	0.750000	0.317370	0.750000
Zn871	Zn87	0.750000	0.682630	0.250000
Zn881	Zn88	0.250000	0.817370	0.750000
Zn891	Zn89	0.750000	0.817370	0.750000
Zn901	Zn90	0.250000	0.682630	0.250000
Zn911	Zn91	0.250000	0.317370	0.750000
Zn921	Zn92	0.750000	0.182630	0.250000
P1291	P129	0.500000	0.974740	0.785390
O4011	O401	0.500000	0.992010	0.690600
H1291	H129	0.500000	0.958100	0.726700
P1301	P130	0.000000	0.474740	0.785390
O4021	O402	0.000000	0.492010	0.690600
H1301	H130	0.000000	0.458100	0.726700
P1311	P131	0.500000	0.525260	0.285390
O4031	O403	0.500000	0.507990	0.190600
H1311	H131	0.500000	0.541900	0.226700
P1321	P132	0.000000	0.025260	0.285390
O4041	O404	0.000000	0.007990	0.190600
H1321	H132	0.000000	0.041900	0.226700
P1331	P133	0.500000	0.474740	0.714610
O4051	O405	0.500000	0.492010	0.809400
H1331	H133	0.500000	0.458100	0.773300
P1341	P134	0.000000	0.974740	0.714610
O4061	O406	0.000000	0.992010	0.809400
H1341	H134	0.000000	0.958100	0.773300
P1351	P135	0.500000	0.025260	0.214610
O4071	O407	0.500000	0.007990	0.309400
H1351	H135	0.500000	0.041900	0.273300
P1361	P136	0.000000	0.525260	0.214610
O4081	O408	0.000000	0.507990	0.309400
H1361	H136	0.000000	0.541900	0.273300
