data_LEVBAQ_clean_PM
_symmetry_space_group_name_H-M	'P1'
_cell_length_a	13.930600
_cell_length_b	13.930600
_cell_length_c	24.043500
_cell_angle_alpha	90.000000
_cell_angle_beta	90.000000
_cell_angle_gamma	120.000000
_symmetry_Int_Tables_number 1

loop_
_symmetry_equiv_pos_as_xyz
'x,y,z'

loop_
_atom_site_label
_atom_site_type_symbol
_atom_site_fract_x
_atom_site_fract_y
_atom_site_fract_z
In11	In1	0.293040	0.441400	0.471280
P11	P1	0.120050	0.492200	0.544390
P21	P2	0.166570	0.191160	0.401180
O11	O1	0.144000	0.431300	0.498400
O21	O2	0.189400	0.305500	0.417940
O31	O3	0.172500	0.479500	0.600300
H11	H1	0.146600	0.413500	0.607400
H21	H2	0.384500	0.658900	0.316600
O41	O4	0.318500	0.555500	0.408800
O51	O5	0.997400	0.436800	0.555000
O61	O6	0.140200	0.112900	0.451010
O71	O7	0.071500	0.147200	0.358400
O81	O8	0.266100	0.195600	0.368880
H31	H3	0.321400	0.223800	0.388700
O91	O9	0.173100	0.615600	0.534090
In21	In2	0.558600	0.851640	0.471280
P31	P3	0.507800	0.627850	0.544390
P41	P4	0.808840	0.975410	0.401180
O101	O10	0.568700	0.712700	0.498400
O111	O11	0.694500	0.883900	0.417940
O121	O12	0.520500	0.693000	0.600300
H41	H4	0.586500	0.733100	0.607400
H51	H5	0.341100	0.725600	0.316600
O131	O13	0.444500	0.763000	0.408800
O141	O14	0.563200	0.560600	0.555000
O151	O15	0.887100	0.027300	0.451010
O161	O16	0.852800	0.924300	0.358400
O171	O17	0.804400	0.070500	0.368880
H61	H6	0.776200	0.097600	0.388700
O181	O18	0.384400	0.557500	0.534090
In31	In3	0.148360	0.706960	0.471280
P51	P5	0.372150	0.879950	0.544390
P61	P6	0.024590	0.833430	0.401180
O191	O19	0.287300	0.856000	0.498400
O201	O20	0.116100	0.810600	0.417940
O211	O21	0.307000	0.827500	0.600300
H71	H7	0.266900	0.853400	0.607400
H81	H8	0.274400	0.615500	0.316600
O221	O22	0.237000	0.681500	0.408800
O231	O23	0.439400	0.002600	0.555000
O241	O24	0.972700	0.859800	0.451010
O251	O25	0.075700	0.928500	0.358400
O261	O26	0.929500	0.733900	0.368880
H91	H9	0.902400	0.678600	0.388700
O271	O27	0.442500	0.826900	0.534090
In41	In4	0.558600	0.706960	0.028720
P71	P7	0.507800	0.879950	0.955610
P81	P8	0.808840	0.833430	0.098820
O281	O28	0.568700	0.856000	0.001600
O291	O29	0.694500	0.810600	0.082060
O301	O30	0.520500	0.827500	0.899700
H101	H10	0.586500	0.853400	0.892600
H111	H11	0.341100	0.615500	0.183400
O311	O31	0.444500	0.681500	0.091200
O321	O32	0.563200	0.002600	0.945000
O331	O33	0.887100	0.859800	0.048990
O341	O34	0.852800	0.928500	0.141600
O351	O35	0.804400	0.733900	0.131120
H121	H12	0.776200	0.678600	0.111300
O361	O36	0.384400	0.826900	0.965910
In51	In5	0.148360	0.441400	0.028720
P91	P9	0.372150	0.492200	0.955610
P101	P10	0.024590	0.191160	0.098820
O371	O37	0.287300	0.431300	0.001600
O381	O38	0.116100	0.305500	0.082060
O391	O39	0.307000	0.479500	0.899700
H131	H13	0.266900	0.413500	0.892600
H141	H14	0.274400	0.658900	0.183400
O401	O40	0.237000	0.555500	0.091200
O411	O41	0.439400	0.436800	0.945000
O421	O42	0.972700	0.112900	0.048990
O431	O43	0.075700	0.147200	0.141600
O441	O44	0.929500	0.195600	0.131120
H151	H15	0.902400	0.223800	0.111300
O451	O45	0.442500	0.615600	0.965910
In61	In6	0.293040	0.851640	0.028720
P111	P11	0.120050	0.627850	0.955610
P121	P12	0.166570	0.975410	0.098820
O461	O46	0.144000	0.712700	0.001600
O471	O47	0.189400	0.883900	0.082060
O481	O48	0.172500	0.693000	0.899700
H161	H16	0.146600	0.733100	0.892600
H171	H17	0.384500	0.725600	0.183400
O491	O49	0.318500	0.763000	0.091200
O501	O50	0.997400	0.560600	0.945000
O511	O51	0.140200	0.027300	0.048990
O521	O52	0.071500	0.924300	0.141600
O531	O53	0.266100	0.070500	0.131120
H181	H18	0.321400	0.097600	0.111300
O541	O54	0.173100	0.557500	0.965910
In71	In7	0.706960	0.558600	0.528720
P131	P13	0.879950	0.507800	0.455610
P141	P14	0.833430	0.808840	0.598820
O551	O55	0.856000	0.568700	0.501600
O561	O56	0.810600	0.694500	0.582060
O571	O57	0.827500	0.520500	0.399700
H191	H19	0.853400	0.586500	0.392600
H201	H20	0.615500	0.341100	0.683400
O581	O58	0.681500	0.444500	0.591200
O591	O59	0.002600	0.563200	0.445000
O601	O60	0.859800	0.887100	0.548990
O611	O61	0.928500	0.852800	0.641600
O621	O62	0.733900	0.804400	0.631120
H211	H21	0.678600	0.776200	0.611300
O631	O63	0.826900	0.384400	0.465910
In81	In8	0.441400	0.148360	0.528720
P151	P15	0.492200	0.372150	0.455610
P161	P16	0.191160	0.024590	0.598820
O641	O64	0.431300	0.287300	0.501600
O651	O65	0.305500	0.116100	0.582060
O661	O66	0.479500	0.307000	0.399700
H221	H22	0.413500	0.266900	0.392600
H231	H23	0.658900	0.274400	0.683400
O671	O67	0.555500	0.237000	0.591200
O681	O68	0.436800	0.439400	0.445000
O691	O69	0.112900	0.972700	0.548990
O701	O70	0.147200	0.075700	0.641600
O711	O71	0.195600	0.929500	0.631120
H241	H24	0.223800	0.902400	0.611300
O721	O72	0.615600	0.442500	0.465910
In91	In9	0.851640	0.293040	0.528720
P171	P17	0.627850	0.120050	0.455610
P181	P18	0.975410	0.166570	0.598820
O731	O73	0.712700	0.144000	0.501600
O741	O74	0.883900	0.189400	0.582060
O751	O75	0.693000	0.172500	0.399700
H251	H25	0.733100	0.146600	0.392600
H261	H26	0.725600	0.384500	0.683400
O761	O76	0.763000	0.318500	0.591200
O771	O77	0.560600	0.997400	0.445000
O781	O78	0.027300	0.140200	0.548990
O791	O79	0.924300	0.071500	0.641600
O801	O80	0.070500	0.266100	0.631120
H271	H27	0.097600	0.321400	0.611300
O811	O81	0.557500	0.173100	0.465910
In101	In10	0.441400	0.293040	0.971280
P191	P19	0.492200	0.120050	0.044390
P201	P20	0.191160	0.166570	0.901180
O821	O82	0.431300	0.144000	0.998400
O831	O83	0.305500	0.189400	0.917940
O841	O84	0.479500	0.172500	0.100300
H281	H28	0.413500	0.146600	0.107400
H291	H29	0.658900	0.384500	0.816600
O851	O85	0.555500	0.318500	0.908800
O861	O86	0.436800	0.997400	0.055000
O871	O87	0.112900	0.140200	0.951010
O881	O88	0.147200	0.071500	0.858400
O891	O89	0.195600	0.266100	0.868880
H301	H30	0.223800	0.321400	0.888700
O901	O90	0.615600	0.173100	0.034090
In111	In11	0.851640	0.558600	0.971280
P211	P21	0.627850	0.507800	0.044390
P221	P22	0.975410	0.808840	0.901180
O911	O91	0.712700	0.568700	0.998400
O921	O92	0.883900	0.694500	0.917940
O931	O93	0.693000	0.520500	0.100300
H311	H31	0.733100	0.586500	0.107400
H321	H32	0.725600	0.341100	0.816600
O941	O94	0.763000	0.444500	0.908800
O951	O95	0.560600	0.563200	0.055000
O961	O96	0.027300	0.887100	0.951010
O971	O97	0.924300	0.852800	0.858400
O981	O98	0.070500	0.804400	0.868880
H331	H33	0.097600	0.776200	0.888700
O991	O99	0.557500	0.384400	0.034090
In121	In12	0.706960	0.148360	0.971280
P231	P23	0.879950	0.372150	0.044390
P241	P24	0.833430	0.024590	0.901180
O1001	O100	0.856000	0.287300	0.998400
O1011	O101	0.810600	0.116100	0.917940
O1021	O102	0.827500	0.307000	0.100300
H341	H34	0.853400	0.266900	0.107400
H351	H35	0.615500	0.274400	0.816600
O1031	O103	0.681500	0.237000	0.908800
O1041	O104	0.002600	0.439400	0.055000
O1051	O105	0.859800	0.972700	0.951010
O1061	O106	0.928500	0.075700	0.858400
O1071	O107	0.733900	0.929500	0.868880
H361	H36	0.678600	0.902400	0.888700
O1081	O108	0.826900	0.442500	0.034090
In131	In13	0.000000	0.000000	0.500000
In141	In14	0.000000	0.000000	0.000000
In151	In15	0.000000	0.000000	0.315070
In161	In16	0.000000	0.000000	0.184930
In171	In17	0.000000	0.000000	0.684930
In181	In18	0.000000	0.000000	0.815070
P251	P25	0.333330	0.666670	0.393150
O1091	O109	0.333330	0.666670	0.328000
P261	P26	0.333330	0.666670	0.106850
O1101	O110	0.333330	0.666670	0.172000
P271	P27	0.666670	0.333330	0.606850
O1111	O111	0.666670	0.333330	0.672000
P281	P28	0.666670	0.333330	0.893150
O1121	O112	0.666670	0.333330	0.828000
F11	F1	0.123400	0.061700	0.250000
F21	F2	0.938300	0.061700	0.250000
F31	F3	0.938300	0.876600	0.250000
F41	F4	0.876600	0.938300	0.750000
F51	F5	0.061700	0.938300	0.750000
F61	F6	0.061700	0.123400	0.750000
