data_LEWMUX_clean_PM
_symmetry_space_group_name_H-M	'P1'
_cell_length_a	12.987900
_cell_length_b	12.987900
_cell_length_c	25.025000
_cell_angle_alpha	90.000000
_cell_angle_beta	90.000000
_cell_angle_gamma	90.000000
_symmetry_Int_Tables_number 1

loop_
_symmetry_equiv_pos_as_xyz
'x,y,z'

loop_
_atom_site_label
_atom_site_type_symbol
_atom_site_fract_x
_atom_site_fract_y
_atom_site_fract_z
C11	C1	0.406200	0.069100	0.706020
C21	C2	0.375800	0.170200	0.715400
H11	H1	0.405800	0.206700	0.743400
C31	C3	0.301100	0.217900	0.683800
H21	H2	0.279600	0.284500	0.691600
C41	C4	0.259300	0.165800	0.640800
H31	H3	0.210000	0.197900	0.619600
C51	C5	0.290000	0.067100	0.629200
C61	C6	0.363600	0.019800	0.661050
H41	H4	0.385400	0.953600	0.652500
C71	C7	0.245100	0.010200	0.581650
O11	O1	0.284800	0.925500	0.568460
O21	O2	0.167200	0.046100	0.558010
C81	C8	0.906200	0.569100	0.206020
C91	C9	0.875800	0.670200	0.215400
H51	H5	0.905800	0.706700	0.243400
C101	C10	0.801100	0.717900	0.183800
H61	H6	0.779600	0.784500	0.191600
C111	C11	0.759300	0.665800	0.140800
H71	H7	0.710000	0.697900	0.119600
C121	C12	0.790000	0.567100	0.129200
C131	C13	0.863600	0.519800	0.161050
H81	H8	0.885400	0.453600	0.152500
C141	C14	0.745100	0.510200	0.081650
O31	O3	0.784800	0.425500	0.068460
O41	O4	0.667200	0.546100	0.058010
C151	C15	0.593800	0.930900	0.706020
C161	C16	0.624200	0.829800	0.715400
H91	H9	0.594200	0.793300	0.743400
C171	C17	0.698900	0.782100	0.683800
H101	H10	0.720400	0.715500	0.691600
C181	C18	0.740700	0.834200	0.640800
H111	H11	0.790000	0.802100	0.619600
C191	C19	0.710000	0.932900	0.629200
C201	C20	0.636400	0.980200	0.661050
H121	H12	0.614600	0.046400	0.652500
C211	C21	0.754900	0.989800	0.581650
O51	O5	0.715200	0.074500	0.568460
O61	O6	0.832800	0.953900	0.558010
C221	C22	0.093800	0.430900	0.206020
C231	C23	0.124200	0.329800	0.215400
H131	H13	0.094200	0.293300	0.243400
C241	C24	0.198900	0.282100	0.183800
H141	H14	0.220400	0.215500	0.191600
C251	C25	0.240700	0.334200	0.140800
H151	H15	0.290000	0.302100	0.119600
C261	C26	0.210000	0.432900	0.129200
C271	C27	0.136400	0.480200	0.161050
H161	H16	0.114600	0.546400	0.152500
C281	C28	0.254900	0.489800	0.081650
O71	O7	0.215200	0.574500	0.068460
O81	O8	0.332800	0.453900	0.058010
C291	C29	0.930900	0.406200	0.706020
C301	C30	0.829800	0.375800	0.715400
H171	H17	0.793300	0.405800	0.743400
C311	C31	0.782100	0.301100	0.683800
H181	H18	0.715500	0.279600	0.691600
C321	C32	0.834200	0.259300	0.640800
H191	H19	0.802100	0.210000	0.619600
C331	C33	0.932900	0.290000	0.629200
C341	C34	0.980200	0.363600	0.661050
H201	H20	0.046400	0.385400	0.652500
C351	C35	0.989800	0.245100	0.581650
O91	O9	0.074500	0.284800	0.568460
O101	O10	0.953900	0.167200	0.558010
C361	C36	0.430900	0.906200	0.206020
C371	C37	0.329800	0.875800	0.215400
H211	H21	0.293300	0.905800	0.243400
C381	C38	0.282100	0.801100	0.183800
H221	H22	0.215500	0.779600	0.191600
C391	C39	0.334200	0.759300	0.140800
H231	H23	0.302100	0.710000	0.119600
C401	C40	0.432900	0.790000	0.129200
C411	C41	0.480200	0.863600	0.161050
H241	H24	0.546400	0.885400	0.152500
C421	C42	0.489800	0.745100	0.081650
O111	O11	0.574500	0.784800	0.068460
O121	O12	0.453900	0.667200	0.058010
C431	C43	0.069100	0.593800	0.706020
C441	C44	0.170200	0.624200	0.715400
H251	H25	0.206700	0.594200	0.743400
C451	C45	0.217900	0.698900	0.683800
H261	H26	0.284500	0.720400	0.691600
C461	C46	0.165800	0.740700	0.640800
H271	H27	0.197900	0.790000	0.619600
C471	C47	0.067100	0.710000	0.629200
C481	C48	0.019800	0.636400	0.661050
H281	H28	0.953600	0.614600	0.652500
C491	C49	0.010200	0.754900	0.581650
O131	O13	0.925500	0.715200	0.568460
O141	O14	0.046100	0.832800	0.558010
C501	C50	0.569100	0.093800	0.206020
C511	C51	0.670200	0.124200	0.215400
H291	H29	0.706700	0.094200	0.243400
C521	C52	0.717900	0.198900	0.183800
H301	H30	0.784500	0.220400	0.191600
C531	C53	0.665800	0.240700	0.140800
H311	H31	0.697900	0.290000	0.119600
C541	C54	0.567100	0.210000	0.129200
C551	C55	0.519800	0.136400	0.161050
H321	H32	0.453600	0.114600	0.152500
C561	C56	0.510200	0.254900	0.081650
O151	O15	0.425500	0.215200	0.068460
O161	O16	0.546100	0.332800	0.058010
C571	C57	0.593800	0.930900	0.293980
C581	C58	0.624200	0.829800	0.284600
H331	H33	0.594200	0.793300	0.256600
C591	C59	0.698900	0.782100	0.316200
H341	H34	0.720400	0.715500	0.308400
C601	C60	0.740700	0.834200	0.359200
H351	H35	0.790000	0.802100	0.380400
C611	C61	0.710000	0.932900	0.370800
C621	C62	0.636400	0.980200	0.338950
H361	H36	0.614600	0.046400	0.347500
C631	C63	0.754900	0.989800	0.418350
O171	O17	0.715200	0.074500	0.431540
O181	O18	0.832800	0.953900	0.441990
C641	C64	0.093800	0.430900	0.793980
C651	C65	0.124200	0.329800	0.784600
H371	H37	0.094200	0.293300	0.756600
C661	C66	0.198900	0.282100	0.816200
H381	H38	0.220400	0.215500	0.808400
C671	C67	0.240700	0.334200	0.859200
H391	H39	0.290000	0.302100	0.880400
C681	C68	0.210000	0.432900	0.870800
C691	C69	0.136400	0.480200	0.838950
H401	H40	0.114600	0.546400	0.847500
C701	C70	0.254900	0.489800	0.918350
O191	O19	0.215200	0.574500	0.931540
O201	O20	0.332800	0.453900	0.941990
C711	C71	0.406200	0.069100	0.293980
C721	C72	0.375800	0.170200	0.284600
H411	H41	0.405800	0.206700	0.256600
C731	C73	0.301100	0.217900	0.316200
H421	H42	0.279600	0.284500	0.308400
C741	C74	0.259300	0.165800	0.359200
H431	H43	0.210000	0.197900	0.380400
C751	C75	0.290000	0.067100	0.370800
C761	C76	0.363600	0.019800	0.338950
H441	H44	0.385400	0.953600	0.347500
C771	C77	0.245100	0.010200	0.418350
O211	O21	0.284800	0.925500	0.431540
O221	O22	0.167200	0.046100	0.441990
C781	C78	0.906200	0.569100	0.793980
C791	C79	0.875800	0.670200	0.784600
H451	H45	0.905800	0.706700	0.756600
C801	C80	0.801100	0.717900	0.816200
H461	H46	0.779600	0.784500	0.808400
C811	C81	0.759300	0.665800	0.859200
H471	H47	0.710000	0.697900	0.880400
C821	C82	0.790000	0.567100	0.870800
C831	C83	0.863600	0.519800	0.838950
H481	H48	0.885400	0.453600	0.847500
C841	C84	0.745100	0.510200	0.918350
O231	O23	0.784800	0.425500	0.931540
O241	O24	0.667200	0.546100	0.941990
C851	C85	0.069100	0.593800	0.293980
C861	C86	0.170200	0.624200	0.284600
H491	H49	0.206700	0.594200	0.256600
C871	C87	0.217900	0.698900	0.316200
H501	H50	0.284500	0.720400	0.308400
C881	C88	0.165800	0.740700	0.359200
H511	H51	0.197900	0.790000	0.380400
C891	C89	0.067100	0.710000	0.370800
C901	C90	0.019800	0.636400	0.338950
H521	H52	0.953600	0.614600	0.347500
C911	C91	0.010200	0.754900	0.418350
O251	O25	0.925500	0.715200	0.431540
O261	O26	0.046100	0.832800	0.441990
C921	C92	0.569100	0.093800	0.793980
C931	C93	0.670200	0.124200	0.784600
H531	H53	0.706700	0.094200	0.756600
C941	C94	0.717900	0.198900	0.816200
H541	H54	0.784500	0.220400	0.808400
C951	C95	0.665800	0.240700	0.859200
H551	H55	0.697900	0.290000	0.880400
C961	C96	0.567100	0.210000	0.870800
C971	C97	0.519800	0.136400	0.838950
H561	H56	0.453600	0.114600	0.847500
C981	C98	0.510200	0.254900	0.918350
O271	O27	0.425500	0.215200	0.931540
O281	O28	0.546100	0.332800	0.941990
C991	C99	0.930900	0.406200	0.293980
C1001	C100	0.829800	0.375800	0.284600
H571	H57	0.793300	0.405800	0.256600
C1011	C101	0.782100	0.301100	0.316200
H581	H58	0.715500	0.279600	0.308400
C1021	C102	0.834200	0.259300	0.359200
H591	H59	0.802100	0.210000	0.380400
C1031	C103	0.932900	0.290000	0.370800
C1041	C104	0.980200	0.363600	0.338950
H601	H60	0.046400	0.385400	0.347500
C1051	C105	0.989800	0.245100	0.418350
O291	O29	0.074500	0.284800	0.431540
O301	O30	0.953900	0.167200	0.441990
C1061	C106	0.430900	0.906200	0.793980
C1071	C107	0.329800	0.875800	0.784600
H611	H61	0.293300	0.905800	0.756600
C1081	C108	0.282100	0.801100	0.816200
H621	H62	0.215500	0.779600	0.808400
C1091	C109	0.334200	0.759300	0.859200
H631	H63	0.302100	0.710000	0.880400
C1101	C110	0.432900	0.790000	0.870800
C1111	C111	0.480200	0.863600	0.838950
H641	H64	0.546400	0.885400	0.847500
C1121	C112	0.489800	0.745100	0.918350
O311	O31	0.574500	0.784800	0.931540
O321	O32	0.453900	0.667200	0.941990
Cd11	Cd1	0.174970	0.884110	0.500000
Cd21	Cd2	0.674970	0.384110	0.000000
Cd31	Cd3	0.825030	0.115890	0.500000
Cd41	Cd4	0.325030	0.615890	0.000000
Cd51	Cd5	0.115890	0.174970	0.500000
Cd61	Cd6	0.615890	0.674970	0.000000
Cd71	Cd7	0.884110	0.825030	0.500000
Cd81	Cd8	0.384110	0.325030	0.000000
Si11	Si1	0.500000	0.000000	0.750000
Si21	Si2	0.000000	0.500000	0.750000
Si31	Si3	0.500000	0.000000	0.250000
Si41	Si4	0.000000	0.500000	0.250000
