data_LEWTUD_clean_PM
_symmetry_space_group_name_H-M	'P1'
_cell_length_a	10.094000
_cell_length_b	12.769700
_cell_length_c	13.072600
_cell_angle_alpha	71.192200
_cell_angle_beta	67.289600
_cell_angle_gamma	66.719500
_symmetry_Int_Tables_number 1

loop_
_symmetry_equiv_pos_as_xyz
'x,y,z'

loop_
_atom_site_label
_atom_site_type_symbol
_atom_site_fract_x
_atom_site_fract_y
_atom_site_fract_z
Co11	Co1	0.966780	0.614740	0.897300
Co21	Co2	0.249440	0.166960	0.265460
Co31	Co3	0.478820	0.885260	0.602700
Co41	Co4	0.681860	0.333040	0.234540
Co51	Co5	0.033220	0.385260	0.102700
Co61	Co6	0.750560	0.833040	0.734540
Co71	Co7	0.521180	0.114740	0.397300
Co81	Co8	0.318140	0.666960	0.765460
H11	H1	0.854900	0.889500	0.151700
H21	H2	0.998200	0.750800	0.042400
H31	H3	0.637700	0.730600	0.018400
H41	H4	0.486300	0.871300	0.124900
H51	H5	0.146200	0.928600	0.744400
H61	H6	0.023500	0.017200	0.600800
H71	H7	0.088800	0.063300	0.661300
H81	H8	0.896100	0.610500	0.348300
H91	H9	0.791400	0.749200	0.457600
H101	H10	0.386700	0.769400	0.481600
H111	H11	0.482500	0.628700	0.375100
H121	H12	0.819200	0.571400	0.755600
H131	H13	0.641500	0.482800	0.899200
H141	H14	0.813400	0.436700	0.838700
H151	H15	0.145100	0.110500	0.848300
H161	H16	0.001800	0.249200	0.957600
H171	H17	0.362300	0.269400	0.981600
H181	H18	0.513700	0.128700	0.875100
H191	H19	0.853800	0.071400	0.255600
H201	H20	0.976500	0.982800	0.399200
H211	H21	0.911200	0.936700	0.338700
H221	H22	0.103900	0.389500	0.651700
H231	H23	0.208600	0.250800	0.542400
H241	H24	0.613300	0.230600	0.518400
H251	H25	0.517500	0.371300	0.624900
H261	H26	0.180800	0.428600	0.244400
H271	H27	0.358500	0.517200	0.100800
H281	H28	0.186600	0.563300	0.161300
C11	C1	0.554400	0.986800	0.222200
C21	C2	0.654200	0.895400	0.150800
C31	C3	0.808000	0.858700	0.124900
C41	C4	0.893600	0.775400	0.058400
C51	C5	0.683000	0.763800	0.044000
C61	C6	0.590600	0.847700	0.109500
C71	C7	0.032400	0.839100	0.751900
C81	C8	0.154500	0.898500	0.681300
C91	C9	0.115600	0.008000	0.614800
C101	C10	0.219200	0.047300	0.502900
C111	C11	0.763400	0.513200	0.277800
C121	C12	0.700400	0.604600	0.349200
C131	C13	0.791600	0.641300	0.375100
C141	C14	0.727400	0.724600	0.441600
C151	C15	0.490800	0.736200	0.456000
C161	C16	0.547800	0.652300	0.390500
C171	C17	0.623400	0.660900	0.748100
C181	C18	0.734300	0.601500	0.818700
C191	C19	0.738400	0.492000	0.885200
C201	C20	0.769400	0.452700	0.997100
C211	C21	0.445600	0.013200	0.777800
C221	C22	0.345800	0.104600	0.849200
C231	C23	0.192000	0.141300	0.875100
C241	C24	0.106400	0.224600	0.941600
C251	C25	0.317000	0.236200	0.956000
C261	C26	0.409400	0.152300	0.890500
C271	C27	0.967600	0.160900	0.248100
C281	C28	0.845500	0.101500	0.318700
C291	C29	0.884400	0.992000	0.385200
C301	C30	0.780800	0.952700	0.497100
C311	C31	0.236600	0.486800	0.722200
C321	C32	0.299600	0.395400	0.650800
C331	C33	0.208400	0.358700	0.624900
C341	C34	0.272600	0.275400	0.558400
C351	C35	0.509200	0.263800	0.544000
C361	C36	0.452200	0.347700	0.609500
C371	C37	0.376600	0.339100	0.251900
C381	C38	0.265700	0.398500	0.181300
C391	C39	0.261600	0.508000	0.114800
C401	C40	0.230600	0.547300	0.002900
N11	N1	0.834000	0.728400	0.016000
N21	N2	0.578400	0.771600	0.484000
N31	N3	0.166000	0.271600	0.984000
N41	N4	0.421600	0.228400	0.516000
O11	O1	0.611500	0.007100	0.279900
O21	O2	0.421300	0.032100	0.216900
O31	O3	0.081650	0.734300	0.796200
O41	O4	0.897000	0.893100	0.760300
O51	O5	0.301290	0.822920	0.675700
O61	O6	0.158600	0.124600	0.433000
O71	O7	0.358140	0.023520	0.497200
O81	O8	0.898500	0.492900	0.220100
O91	O9	0.670300	0.467900	0.283100
O101	O10	0.612150	0.765700	0.703800
O111	O11	0.550400	0.606900	0.739700
O121	O12	0.799910	0.677080	0.824300
O131	O13	0.716200	0.375400	0.067000
O141	O14	0.878860	0.476480	0.002800
O151	O15	0.388500	0.992900	0.720100
O161	O16	0.578700	0.967900	0.783100
O171	O17	0.918350	0.265700	0.203800
O181	O18	0.103000	0.106900	0.239700
O191	O19	0.698710	0.177080	0.324300
O201	O20	0.841400	0.875400	0.567000
O211	O21	0.641860	0.976480	0.502800
O221	O22	0.101500	0.507100	0.779900
O231	O23	0.329700	0.532100	0.716900
O241	O24	0.387850	0.234300	0.296200
O251	O25	0.449600	0.393100	0.260300
O261	O26	0.200090	0.322920	0.175700
O271	O27	0.283800	0.624600	0.933000
O281	O28	0.121140	0.523520	0.997200
