data_LEWTUD01_clean_PM
_symmetry_space_group_name_H-M	'P1'
_cell_length_a	10.027600
_cell_length_b	12.784800
_cell_length_c	12.962200
_cell_angle_alpha	71.180600
_cell_angle_beta	67.244500
_cell_angle_gamma	66.910600
_symmetry_Int_Tables_number 1

loop_
_symmetry_equiv_pos_as_xyz
'x,y,z'

loop_
_atom_site_label
_atom_site_type_symbol
_atom_site_fract_x
_atom_site_fract_y
_atom_site_fract_z
Co11	Co1	0.966670	0.613520	0.897780
Co21	Co2	0.250580	0.167210	0.263750
Co31	Co3	0.477970	0.886480	0.602220
Co41	Co4	0.681540	0.332790	0.236250
Co51	Co5	0.033330	0.386480	0.102220
Co61	Co6	0.749420	0.832790	0.736250
Co71	Co7	0.522030	0.113520	0.397780
Co81	Co8	0.318460	0.667210	0.763750
H11	H1	0.859200	0.885000	0.155400
H21	H2	0.003600	0.750900	0.039500
H31	H3	0.636800	0.725200	0.020800
H41	H4	0.483700	0.866200	0.128200
H51	H5	0.137800	0.958300	0.741900
H61	H6	0.126100	0.916700	0.541100
H71	H7	0.011300	0.023300	0.600700
H81	H8	0.899600	0.615000	0.344600
H91	H9	0.794000	0.749100	0.460500
H101	H10	0.382800	0.774800	0.479200
H111	H11	0.478100	0.633800	0.371800
H121	H12	0.838000	0.541700	0.758100
H131	H13	0.583900	0.583300	0.958900
H141	H14	0.635300	0.476700	0.899300
H151	H15	0.140800	0.115000	0.844600
H161	H16	0.996400	0.249100	0.960500
H171	H17	0.363200	0.274800	0.979200
H181	H18	0.516300	0.133800	0.871800
H191	H19	0.862200	0.041700	0.258100
H201	H20	0.873900	0.083300	0.458900
H211	H21	0.988700	0.976700	0.399300
H221	H22	0.100400	0.385000	0.655400
H231	H23	0.206000	0.250900	0.539500
H241	H24	0.617200	0.225200	0.520800
H251	H25	0.521900	0.366200	0.628200
H261	H26	0.162000	0.458300	0.241900
H271	H27	0.416100	0.416700	0.041100
H281	H28	0.364700	0.523300	0.100700
C11	C1	0.555500	0.985500	0.222700
C21	C2	0.654800	0.893500	0.152300
C31	C3	0.810600	0.855200	0.126400
C41	C4	0.896100	0.774000	0.058400
C51	C5	0.683100	0.760200	0.046400
C61	C6	0.590800	0.843500	0.111500
C71	C7	0.031000	0.838800	0.754200
C81	C8	0.151000	0.904700	0.694700
C91	C9	0.118100	0.972800	0.582600
C101	C10	0.218000	0.048500	0.501300
C111	C11	0.763700	0.514500	0.277300
C121	C12	0.700600	0.606500	0.347700
C131	C13	0.792200	0.644800	0.373600
C141	C14	0.728500	0.726000	0.441600
C151	C15	0.489700	0.739800	0.453600
C161	C16	0.545800	0.656500	0.388500
C171	C17	0.624000	0.661200	0.745800
C181	C18	0.750400	0.595300	0.805300
C191	C19	0.673500	0.527200	0.917400
C201	C20	0.767800	0.451500	0.998700
C211	C21	0.444500	0.014500	0.777300
C221	C22	0.345200	0.106500	0.847700
C231	C23	0.189400	0.144800	0.873600
C241	C24	0.103900	0.226000	0.941600
C251	C25	0.316900	0.239800	0.953600
C261	C26	0.409200	0.156500	0.888500
C271	C27	0.969000	0.161200	0.245800
C281	C28	0.849000	0.095300	0.305300
C291	C29	0.881900	0.027200	0.417400
C301	C30	0.782000	0.951500	0.498700
C311	C31	0.236300	0.485500	0.722700
C321	C32	0.299400	0.393500	0.652300
C331	C33	0.207800	0.355200	0.626400
C341	C34	0.271500	0.274000	0.558400
C351	C35	0.510300	0.260200	0.546400
C361	C36	0.454200	0.343500	0.611500
C371	C37	0.376000	0.338800	0.254200
C381	C38	0.249600	0.404700	0.194700
C391	C39	0.326500	0.472800	0.082600
C401	C40	0.232200	0.548500	0.001300
N11	N1	0.834300	0.726100	0.017900
N21	N2	0.578300	0.773900	0.482100
N31	N3	0.165700	0.273900	0.982100
N41	N4	0.421700	0.226100	0.517900
O11	O1	0.614240	0.006820	0.279700
O21	O2	0.422870	0.031160	0.215500
O31	O3	0.080260	0.734280	0.795800
O41	O4	0.894500	0.893300	0.764300
O51	O5	0.299650	0.824200	0.674900
O61	O6	0.356850	0.023400	0.496700
O71	O7	0.154900	0.126000	0.431800
O81	O8	0.900760	0.493180	0.220300
O91	O9	0.669530	0.468840	0.284500
O101	O10	0.610340	0.765720	0.704200
O111	O11	0.552100	0.606700	0.735700
O121	O12	0.798750	0.675800	0.825100
O131	O13	0.876950	0.476600	0.003300
O141	O14	0.712700	0.374000	0.068200
O151	O15	0.385760	0.993180	0.720300
O161	O16	0.577130	0.968840	0.784500
O171	O17	0.919740	0.265720	0.204200
O181	O18	0.105500	0.106700	0.235700
O191	O19	0.700350	0.175800	0.325100
O201	O20	0.643150	0.976600	0.503300
O211	O21	0.845100	0.874000	0.568200
O221	O22	0.099240	0.506820	0.779700
O231	O23	0.330470	0.531160	0.715500
O241	O24	0.389660	0.234280	0.295800
O251	O25	0.447900	0.393300	0.264300
O261	O26	0.201250	0.324200	0.174900
O271	O27	0.123050	0.523400	0.996700
O281	O28	0.287300	0.626000	0.931800
