data_LEYFUS_clean_PM
_symmetry_space_group_name_H-M	'P1'
_cell_length_a	16.650200
_cell_length_b	16.650200
_cell_length_c	51.313000
_cell_angle_alpha	90.000000
_cell_angle_beta	90.000000
_cell_angle_gamma	120.000000
_symmetry_Int_Tables_number 1

loop_
_symmetry_equiv_pos_as_xyz
'x,y,z'

loop_
_atom_site_label
_atom_site_type_symbol
_atom_site_fract_x
_atom_site_fract_y
_atom_site_fract_z
W11	W1	0.518160	0.624300	0.173200
W21	W2	0.305450	0.447620	0.169100
W31	W3	0.258350	0.532900	0.229640
W41	W4	0.397980	0.585090	0.118850
Tm11	Tm1	0.322290	0.217180	0.168690
O11	O1	0.439900	0.494900	0.178400
O21	O2	0.277800	0.332200	0.171800
O31	O3	0.377800	0.594100	0.161500
O41	O4	0.508000	0.606200	0.135400
O51	O5	0.298500	0.479500	0.205700
O61	O6	0.245400	0.385000	0.311900
O71	O7	0.496500	0.654300	0.207400
O81	O8	0.374600	0.287500	0.207900
O91	O9	0.334400	0.455600	0.133400
O101	O10	0.193100	0.439700	0.165100
O111	O11	0.226000	0.622000	0.245200
O121	O12	0.436700	0.710000	0.115800
O131	O13	0.371600	0.501800	0.327200
N11	N1	0.505000	0.509900	0.257300
C11	C1	0.379300	0.363600	0.247000
C21	C2	0.464200	0.435300	0.241200
H11	H1	0.495800	0.432900	0.225800
C31	C3	0.379300	0.440800	0.286300
C41	C4	0.466600	0.513300	0.280300
H21	H2	0.499000	0.564200	0.292100
C51	C5	0.336100	0.365900	0.270000
H31	H3	0.275800	0.315200	0.274300
C61	C6	0.330300	0.445200	0.310100
C71	C7	0.332900	0.280200	0.229500
O141	O14	0.264600	0.213300	0.237200
W51	W5	0.184830	0.957630	0.506530
W61	W6	0.972120	0.780950	0.502430
W71	W7	0.925020	0.866230	0.562980
W81	W8	0.064650	0.918420	0.452190
Tm21	Tm2	0.988960	0.550510	0.502020
O151	O15	0.106570	0.828230	0.511730
O161	O16	0.944470	0.665530	0.505130
O171	O17	0.044470	0.927430	0.494830
O181	O18	0.174670	0.939530	0.468730
O191	O19	0.965170	0.812830	0.539030
O201	O20	0.912070	0.718330	0.645230
O211	O21	0.163170	0.987630	0.540730
O221	O22	0.041270	0.620830	0.541230
O231	O23	0.001070	0.788930	0.466730
O241	O24	0.859770	0.773030	0.498430
O251	O25	0.892670	0.955330	0.578530
O261	O26	0.103370	0.043330	0.449130
O271	O27	0.038270	0.835130	0.660530
N21	N2	0.171670	0.843230	0.590630
C81	C8	0.045970	0.696930	0.580330
C91	C9	0.130870	0.768630	0.574530
H41	H4	0.162470	0.766230	0.559130
C101	C10	0.045970	0.774130	0.619630
C111	C11	0.133270	0.846630	0.613630
H51	H5	0.165670	0.897530	0.625430
C121	C12	0.002770	0.699230	0.603330
H61	H6	0.942470	0.648530	0.607630
C131	C13	0.996970	0.778530	0.643430
C141	C14	0.999570	0.613530	0.562830
O281	O28	0.931270	0.546630	0.570530
W91	W9	0.851490	0.290970	0.839870
W101	W10	0.638780	0.114290	0.835770
W111	W11	0.591680	0.199570	0.896310
W121	W12	0.731310	0.251760	0.785520
Tm31	Tm3	0.655620	0.883850	0.835350
O291	O29	0.773230	0.161570	0.845070
O301	O30	0.611130	0.998870	0.838470
O311	O31	0.711130	0.260770	0.828170
O321	O32	0.841330	0.272870	0.802070
O331	O33	0.631830	0.146170	0.872370
O341	O34	0.578730	0.051670	0.978570
O351	O35	0.829830	0.320970	0.874070
O361	O36	0.707930	0.954170	0.874570
O371	O37	0.667730	0.122270	0.800070
O381	O38	0.526430	0.106370	0.831770
O391	O39	0.559330	0.288670	0.911870
O401	O40	0.770030	0.376670	0.782470
O411	O41	0.704930	0.168470	0.993870
N31	N3	0.838330	0.176570	0.923970
C151	C15	0.712630	0.030270	0.913670
C161	C16	0.797530	0.101970	0.907870
H71	H7	0.829130	0.099570	0.892470
C171	C17	0.712630	0.107470	0.952970
C181	C18	0.799930	0.179970	0.946970
H81	H8	0.832330	0.230870	0.958770
C191	C19	0.669430	0.032570	0.936670
H91	H9	0.609130	0.981870	0.940970
C201	C20	0.663630	0.111870	0.976770
C211	C21	0.666230	0.946870	0.896170
O421	O42	0.597930	0.879970	0.903870
W131	W13	0.375700	0.893860	0.173200
W141	W14	0.552380	0.857830	0.169100
W151	W15	0.467100	0.725450	0.229640
W161	W16	0.414910	0.812890	0.118850
Tm41	Tm4	0.782820	0.105110	0.168690
O431	O43	0.505100	0.945000	0.178400
O441	O44	0.667800	0.945600	0.171800
O451	O45	0.405900	0.783700	0.161500
O461	O46	0.393800	0.901800	0.135400
O471	O47	0.520500	0.819000	0.205700
O481	O48	0.615000	0.860400	0.311900
O491	O49	0.345700	0.842200	0.207400
O501	O50	0.712500	0.087100	0.207900
O511	O51	0.544400	0.878800	0.133400
O521	O52	0.560300	0.753400	0.165100
O531	O53	0.378000	0.604000	0.245200
O541	O54	0.290000	0.726700	0.115800
O551	O55	0.498200	0.869800	0.327200
N41	N4	0.490100	0.995100	0.257300
C221	C22	0.636400	0.015700	0.247000
C231	C23	0.564700	0.028900	0.241200
H101	H10	0.567100	0.062900	0.225800
C241	C24	0.559200	0.938500	0.286300
C251	C25	0.486700	0.953300	0.280300
H111	H11	0.435800	0.934800	0.292100
C261	C26	0.634100	0.970200	0.270000
H121	H12	0.684800	0.960600	0.274300
C271	C27	0.554800	0.885100	0.310100
C281	C28	0.719800	0.052700	0.229500
O561	O56	0.786700	0.051300	0.237200
W171	W17	0.042370	0.227190	0.506530
W181	W18	0.219050	0.191160	0.502430
W191	W19	0.133770	0.058780	0.562980
W201	W20	0.081580	0.146220	0.452190
Tm51	Tm5	0.449490	0.438440	0.502020
O571	O57	0.171770	0.278330	0.511730
O581	O58	0.334470	0.278930	0.505130
O591	O59	0.072570	0.117030	0.494830
O601	O60	0.060470	0.235130	0.468730
O611	O61	0.187170	0.152330	0.539030
O621	O62	0.281670	0.193730	0.645230
O631	O63	0.012370	0.175530	0.540730
O641	O64	0.379170	0.420430	0.541230
O651	O65	0.211070	0.212130	0.466730
O661	O66	0.226970	0.086730	0.498430
O671	O67	0.044670	0.937330	0.578530
O681	O68	0.956670	0.060030	0.449130
O691	O69	0.164870	0.203130	0.660530
N51	N5	0.156770	0.328430	0.590630
C291	C29	0.303070	0.349030	0.580330
C301	C30	0.231370	0.362230	0.574530
H131	H13	0.233770	0.396230	0.559130
C311	C31	0.225870	0.271830	0.619630
C321	C32	0.153370	0.286630	0.613630
H141	H14	0.102470	0.268130	0.625430
C331	C33	0.300770	0.303530	0.603330
H151	H15	0.351470	0.293930	0.607630
C341	C34	0.221470	0.218430	0.643430
C351	C35	0.386470	0.386030	0.562830
O701	O70	0.453370	0.384630	0.570530
W211	W21	0.709030	0.560530	0.839870
W221	W22	0.885710	0.524500	0.835770
W231	W23	0.800430	0.392120	0.896310
W241	W24	0.748240	0.479560	0.785520
Tm61	Tm6	0.116150	0.771780	0.835350
O711	O71	0.838430	0.611670	0.845070
O721	O72	0.001130	0.612270	0.838470
O731	O73	0.739230	0.450370	0.828170
O741	O74	0.727130	0.568470	0.802070
O751	O75	0.853830	0.485670	0.872370
O761	O76	0.948330	0.527070	0.978570
O771	O77	0.679030	0.508870	0.874070
O781	O78	0.045830	0.753770	0.874570
O791	O79	0.877730	0.545470	0.800070
O801	O80	0.893630	0.420070	0.831770
O811	O81	0.711330	0.270670	0.911870
O821	O82	0.623330	0.393370	0.782470
O831	O83	0.831530	0.536470	0.993870
N61	N6	0.823430	0.661770	0.923970
C361	C36	0.969730	0.682370	0.913670
C371	C37	0.898030	0.695570	0.907870
H161	H16	0.900430	0.729570	0.892470
C381	C38	0.892530	0.605170	0.952970
C391	C39	0.820030	0.619970	0.946970
H171	H17	0.769130	0.601470	0.958770
C401	C40	0.967430	0.636870	0.936670
H181	H18	0.018130	0.627270	0.940970
C411	C41	0.888130	0.551770	0.976770
C421	C42	0.053130	0.719370	0.896170
O841	O84	0.120030	0.717970	0.903870
W251	W25	0.106140	0.481840	0.173200
W261	W26	0.142170	0.694550	0.169100
W271	W27	0.274550	0.741650	0.229640
W281	W28	0.187110	0.602020	0.118850
Tm71	Tm7	0.894890	0.677710	0.168690
O851	O85	0.055000	0.560100	0.178400
O861	O86	0.054400	0.722200	0.171800
O871	O87	0.216300	0.622200	0.161500
O881	O88	0.098200	0.492000	0.135400
O891	O89	0.181000	0.701500	0.205700
O901	O90	0.139600	0.754600	0.311900
O911	O91	0.157800	0.503500	0.207400
O921	O92	0.912900	0.625400	0.207900
O931	O93	0.121200	0.665600	0.133400
O941	O94	0.246600	0.806900	0.165100
O951	O95	0.396000	0.774000	0.245200
O961	O96	0.273300	0.563300	0.115800
O971	O97	0.130200	0.628400	0.327200
N71	N7	0.004900	0.495000	0.257300
C431	C43	0.984300	0.620700	0.247000
C441	C44	0.971100	0.535800	0.241200
H191	H19	0.937100	0.504200	0.225800
C451	C45	0.061500	0.620700	0.286300
C461	C46	0.046700	0.533400	0.280300
H201	H20	0.065200	0.501000	0.292100
C471	C47	0.029800	0.663900	0.270000
H211	H21	0.039400	0.724200	0.274300
C481	C48	0.114900	0.669700	0.310100
C491	C49	0.947300	0.667100	0.229500
O981	O98	0.948700	0.735400	0.237200
W291	W29	0.772810	0.815170	0.506530
W301	W30	0.808840	0.027880	0.502430
W311	W31	0.941220	0.074980	0.562980
W321	W32	0.853780	0.935350	0.452190
Tm81	Tm8	0.561560	0.011040	0.502020
O991	O99	0.721670	0.893430	0.511730
O1001	O100	0.721070	0.055530	0.505130
O1011	O101	0.882970	0.955530	0.494830
O1021	O102	0.764870	0.825330	0.468730
O1031	O103	0.847670	0.034830	0.539030
O1041	O104	0.806270	0.087930	0.645230
O1051	O105	0.824470	0.836830	0.540730
O1061	O106	0.579570	0.958730	0.541230
O1071	O107	0.787870	0.998930	0.466730
O1081	O108	0.913270	0.140230	0.498430
O1091	O109	0.062670	0.107330	0.578530
O1101	O110	0.939970	0.896630	0.449130
O1111	O111	0.796870	0.961730	0.660530
N81	N8	0.671570	0.828330	0.590630
C501	C50	0.650970	0.954030	0.580330
C511	C51	0.637770	0.869130	0.574530
H221	H22	0.603770	0.837530	0.559130
C521	C52	0.728170	0.954030	0.619630
C531	C53	0.713370	0.866730	0.613630
H231	H23	0.731870	0.834330	0.625430
C541	C54	0.696470	0.997230	0.603330
H241	H24	0.706070	0.057530	0.607630
C551	C55	0.781570	0.003030	0.643430
C561	C56	0.613970	0.000430	0.562830
O1121	O112	0.615370	0.068730	0.570530
W331	W33	0.439470	0.148510	0.839870
W341	W34	0.475500	0.361220	0.835770
W351	W35	0.607880	0.408320	0.896310
W361	W36	0.520440	0.268690	0.785520
Tm91	Tm9	0.228220	0.344380	0.835350
O1131	O113	0.388330	0.226770	0.845070
O1141	O114	0.387730	0.388870	0.838470
O1151	O115	0.549630	0.288870	0.828170
O1161	O116	0.431530	0.158670	0.802070
O1171	O117	0.514330	0.368170	0.872370
O1181	O118	0.472930	0.421270	0.978570
O1191	O119	0.491130	0.170170	0.874070
O1201	O120	0.246230	0.292070	0.874570
O1211	O121	0.454530	0.332270	0.800070
O1221	O122	0.579930	0.473570	0.831770
O1231	O123	0.729330	0.440670	0.911870
O1241	O124	0.606630	0.229970	0.782470
O1251	O125	0.463530	0.295070	0.993870
N91	N9	0.338230	0.161670	0.923970
C571	C57	0.317630	0.287370	0.913670
C581	C58	0.304430	0.202470	0.907870
H251	H25	0.270430	0.170870	0.892470
C591	C59	0.394830	0.287370	0.952970
C601	C60	0.380030	0.200070	0.946970
H261	H26	0.398530	0.167670	0.958770
C611	C61	0.363130	0.330570	0.936670
H271	H27	0.372730	0.390870	0.940970
C621	C62	0.448230	0.336370	0.976770
C631	C63	0.280630	0.333770	0.896170
O1261	O126	0.282030	0.402070	0.903870
W371	W37	0.375700	0.481840	0.673200
W381	W38	0.552380	0.694550	0.669100
W391	W39	0.467100	0.741650	0.729640
W401	W40	0.414910	0.602020	0.618850
Tm101	Tm10	0.782820	0.677710	0.668690
O1271	O127	0.505100	0.560100	0.678400
O1281	O128	0.667800	0.722200	0.671800
O1291	O129	0.405900	0.622200	0.661500
O1301	O130	0.393800	0.492000	0.635400
O1311	O131	0.520500	0.701500	0.705700
O1321	O132	0.615000	0.754600	0.811900
O1331	O133	0.345700	0.503500	0.707400
O1341	O134	0.712500	0.625400	0.707900
O1351	O135	0.544400	0.665600	0.633400
O1361	O136	0.560300	0.806900	0.665100
O1371	O137	0.378000	0.774000	0.745200
O1381	O138	0.290000	0.563300	0.615800
O1391	O139	0.498200	0.628400	0.827200
N101	N10	0.490100	0.495000	0.757300
C641	C64	0.636400	0.620700	0.747000
C651	C65	0.564700	0.535800	0.741200
H281	H28	0.567100	0.504200	0.725800
C661	C66	0.559200	0.620700	0.786300
C671	C67	0.486700	0.533400	0.780300
H291	H29	0.435800	0.501000	0.792100
C681	C68	0.634100	0.663900	0.770000
H301	H30	0.684800	0.724200	0.774300
C691	C69	0.554800	0.669700	0.810100
C701	C70	0.719800	0.667100	0.729500
O1401	O140	0.786700	0.735400	0.737200
W411	W41	0.042370	0.815170	0.006530
W421	W42	0.219050	0.027880	0.002430
W431	W43	0.133770	0.074980	0.062980
W441	W44	0.081580	0.935350	0.952190
Tm111	Tm11	0.449490	0.011040	0.002020
O1411	O141	0.171770	0.893430	0.011730
O1421	O142	0.334470	0.055530	0.005130
O1431	O143	0.072570	0.955530	0.994830
O1441	O144	0.060470	0.825330	0.968730
O1451	O145	0.187170	0.034830	0.039030
O1461	O146	0.281670	0.087930	0.145230
O1471	O147	0.012370	0.836830	0.040730
O1481	O148	0.379170	0.958730	0.041230
O1491	O149	0.211070	0.998930	0.966730
O1501	O150	0.226970	0.140230	0.998430
O1511	O151	0.044670	0.107330	0.078530
O1521	O152	0.956670	0.896630	0.949130
O1531	O153	0.164870	0.961730	0.160530
N111	N11	0.156770	0.828330	0.090630
C711	C71	0.303070	0.954030	0.080330
C721	C72	0.231370	0.869130	0.074530
H311	H31	0.233770	0.837530	0.059130
C731	C73	0.225870	0.954030	0.119630
C741	C74	0.153370	0.866730	0.113630
H321	H32	0.102470	0.834330	0.125430
C751	C75	0.300770	0.997230	0.103330
H331	H33	0.351470	0.057530	0.107630
C761	C76	0.221470	0.003030	0.143430
C771	C77	0.386470	0.000430	0.062830
O1541	O154	0.453370	0.068730	0.070530
W451	W45	0.709030	0.148510	0.339870
W461	W46	0.885710	0.361220	0.335770
W471	W47	0.800430	0.408320	0.396310
W481	W48	0.748240	0.268690	0.285520
Tm121	Tm12	0.116150	0.344380	0.335350
O1551	O155	0.838430	0.226770	0.345070
O1561	O156	0.001130	0.388870	0.338470
O1571	O157	0.739230	0.288870	0.328170
O1581	O158	0.727130	0.158670	0.302070
O1591	O159	0.853830	0.368170	0.372370
O1601	O160	0.948330	0.421270	0.478570
O1611	O161	0.679030	0.170170	0.374070
O1621	O162	0.045830	0.292070	0.374570
O1631	O163	0.877730	0.332270	0.300070
O1641	O164	0.893630	0.473570	0.331770
O1651	O165	0.711330	0.440670	0.411870
O1661	O166	0.623330	0.229970	0.282470
O1671	O167	0.831530	0.295070	0.493870
N121	N12	0.823430	0.161670	0.423970
C781	C78	0.969730	0.287370	0.413670
C791	C79	0.898030	0.202470	0.407870
H341	H34	0.900430	0.170870	0.392470
C801	C80	0.892530	0.287370	0.452970
C811	C81	0.820030	0.200070	0.446970
H351	H35	0.769130	0.167670	0.458770
C821	C82	0.967430	0.330570	0.436670
H361	H36	0.018130	0.390870	0.440970
C831	C83	0.888130	0.336370	0.476770
C841	C84	0.053130	0.333770	0.396170
O1681	O168	0.120030	0.402070	0.403870
W491	W49	0.106140	0.624300	0.673200
W501	W50	0.142170	0.447620	0.669100
W511	W51	0.274550	0.532900	0.729640
W521	W52	0.187110	0.585090	0.618850
Tm131	Tm13	0.894890	0.217180	0.668690
O1691	O169	0.055000	0.494900	0.678400
O1701	O170	0.054400	0.332200	0.671800
O1711	O171	0.216300	0.594100	0.661500
O1721	O172	0.098200	0.606200	0.635400
O1731	O173	0.181000	0.479500	0.705700
O1741	O174	0.139600	0.385000	0.811900
O1751	O175	0.157800	0.654300	0.707400
O1761	O176	0.912900	0.287500	0.707900
O1771	O177	0.121200	0.455600	0.633400
O1781	O178	0.246600	0.439700	0.665100
O1791	O179	0.396000	0.622000	0.745200
O1801	O180	0.273300	0.710000	0.615800
O1811	O181	0.130200	0.501800	0.827200
N131	N13	0.004900	0.509900	0.757300
C851	C85	0.984300	0.363600	0.747000
C861	C86	0.971100	0.435300	0.741200
H371	H37	0.937100	0.432900	0.725800
C871	C87	0.061500	0.440800	0.786300
C881	C88	0.046700	0.513300	0.780300
H381	H38	0.065200	0.564200	0.792100
C891	C89	0.029800	0.365900	0.770000
H391	H39	0.039400	0.315200	0.774300
C901	C90	0.114900	0.445200	0.810100
C911	C91	0.947300	0.280200	0.729500
O1821	O182	0.948700	0.213300	0.737200
W531	W53	0.772810	0.957630	0.006530
W541	W54	0.808840	0.780950	0.002430
W551	W55	0.941220	0.866230	0.062980
W561	W56	0.853780	0.918420	0.952190
Tm141	Tm14	0.561560	0.550510	0.002020
O1831	O183	0.721670	0.828230	0.011730
O1841	O184	0.721070	0.665530	0.005130
O1851	O185	0.882970	0.927430	0.994830
O1861	O186	0.764870	0.939530	0.968730
O1871	O187	0.847670	0.812830	0.039030
O1881	O188	0.806270	0.718330	0.145230
O1891	O189	0.824470	0.987630	0.040730
O1901	O190	0.579570	0.620830	0.041230
O1911	O191	0.787870	0.788930	0.966730
O1921	O192	0.913270	0.773030	0.998430
O1931	O193	0.062670	0.955330	0.078530
O1941	O194	0.939970	0.043330	0.949130
O1951	O195	0.796870	0.835130	0.160530
N141	N14	0.671570	0.843230	0.090630
C921	C92	0.650970	0.696930	0.080330
C931	C93	0.637770	0.768630	0.074530
H401	H40	0.603770	0.766230	0.059130
C941	C94	0.728170	0.774130	0.119630
C951	C95	0.713370	0.846630	0.113630
H411	H41	0.731870	0.897530	0.125430
C961	C96	0.696470	0.699230	0.103330
H421	H42	0.706070	0.648530	0.107630
C971	C97	0.781570	0.778530	0.143430
C981	C98	0.613970	0.613530	0.062830
O1961	O196	0.615370	0.546630	0.070530
W571	W57	0.439470	0.290970	0.339870
W581	W58	0.475500	0.114290	0.335770
W591	W59	0.607880	0.199570	0.396310
W601	W60	0.520440	0.251760	0.285520
Tm151	Tm15	0.228220	0.883850	0.335350
O1971	O197	0.388330	0.161570	0.345070
O1981	O198	0.387730	0.998870	0.338470
O1991	O199	0.549630	0.260770	0.328170
O2001	O200	0.431530	0.272870	0.302070
O2011	O201	0.514330	0.146170	0.372370
O2021	O202	0.472930	0.051670	0.478570
O2031	O203	0.491130	0.320970	0.374070
O2041	O204	0.246230	0.954170	0.374570
O2051	O205	0.454530	0.122270	0.300070
O2061	O206	0.579930	0.106370	0.331770
O2071	O207	0.729330	0.288670	0.411870
O2081	O208	0.606630	0.376670	0.282470
O2091	O209	0.463530	0.168470	0.493870
N151	N15	0.338230	0.176570	0.423970
C991	C99	0.317630	0.030270	0.413670
C1001	C100	0.304430	0.101970	0.407870
H431	H43	0.270430	0.099570	0.392470
C1011	C101	0.394830	0.107470	0.452970
C1021	C102	0.380030	0.179970	0.446970
H441	H44	0.398530	0.230870	0.458770
C1031	C103	0.363130	0.032570	0.436670
H451	H45	0.372730	0.981870	0.440970
C1041	C104	0.448230	0.111870	0.476770
C1051	C105	0.280630	0.946870	0.396170
O2101	O210	0.282030	0.879970	0.403870
W611	W61	0.518160	0.893860	0.673200
W621	W62	0.305450	0.857830	0.669100
W631	W63	0.258350	0.725450	0.729640
W641	W64	0.397980	0.812890	0.618850
Tm161	Tm16	0.322290	0.105110	0.668690
O2111	O211	0.439900	0.945000	0.678400
O2121	O212	0.277800	0.945600	0.671800
O2131	O213	0.377800	0.783700	0.661500
O2141	O214	0.508000	0.901800	0.635400
O2151	O215	0.298500	0.819000	0.705700
O2161	O216	0.245400	0.860400	0.811900
O2171	O217	0.496500	0.842200	0.707400
O2181	O218	0.374600	0.087100	0.707900
O2191	O219	0.334400	0.878800	0.633400
O2201	O220	0.193100	0.753400	0.665100
O2211	O221	0.226000	0.604000	0.745200
O2221	O222	0.436700	0.726700	0.615800
O2231	O223	0.371600	0.869800	0.827200
N161	N16	0.505000	0.995100	0.757300
C1061	C106	0.379300	0.015700	0.747000
C1071	C107	0.464200	0.028900	0.741200
H461	H46	0.495800	0.062900	0.725800
C1081	C108	0.379300	0.938500	0.786300
C1091	C109	0.466600	0.953300	0.780300
H471	H47	0.499000	0.934800	0.792100
C1101	C110	0.336100	0.970200	0.770000
H481	H48	0.275800	0.960600	0.774300
C1111	C111	0.330300	0.885100	0.810100
C1121	C112	0.332900	0.052700	0.729500
O2241	O224	0.264600	0.051300	0.737200
W651	W65	0.184830	0.227190	0.006530
W661	W66	0.972120	0.191160	0.002430
W671	W67	0.925020	0.058780	0.062980
W681	W68	0.064650	0.146220	0.952190
Tm171	Tm17	0.988960	0.438440	0.002020
O2251	O225	0.106570	0.278330	0.011730
O2261	O226	0.944470	0.278930	0.005130
O2271	O227	0.044470	0.117030	0.994830
O2281	O228	0.174670	0.235130	0.968730
O2291	O229	0.965170	0.152330	0.039030
O2301	O230	0.912070	0.193730	0.145230
O2311	O231	0.163170	0.175530	0.040730
O2321	O232	0.041270	0.420430	0.041230
O2331	O233	0.001070	0.212130	0.966730
O2341	O234	0.859770	0.086730	0.998430
O2351	O235	0.892670	0.937330	0.078530
O2361	O236	0.103370	0.060030	0.949130
O2371	O237	0.038270	0.203130	0.160530
N171	N17	0.171670	0.328430	0.090630
C1131	C113	0.045970	0.349030	0.080330
C1141	C114	0.130870	0.362230	0.074530
H491	H49	0.162470	0.396230	0.059130
C1151	C115	0.045970	0.271830	0.119630
C1161	C116	0.133270	0.286630	0.113630
H501	H50	0.165670	0.268130	0.125430
C1171	C117	0.002770	0.303530	0.103330
H511	H51	0.942470	0.293930	0.107630
C1181	C118	0.996970	0.218430	0.143430
C1191	C119	0.999570	0.386030	0.062830
O2381	O238	0.931270	0.384630	0.070530
W691	W69	0.851490	0.560530	0.339870
W701	W70	0.638780	0.524500	0.335770
W711	W71	0.591680	0.392120	0.396310
W721	W72	0.731310	0.479560	0.285520
Tm181	Tm18	0.655620	0.771780	0.335350
O2391	O239	0.773230	0.611670	0.345070
O2401	O240	0.611130	0.612270	0.338470
O2411	O241	0.711130	0.450370	0.328170
O2421	O242	0.841330	0.568470	0.302070
O2431	O243	0.631830	0.485670	0.372370
O2441	O244	0.578730	0.527070	0.478570
O2451	O245	0.829830	0.508870	0.374070
O2461	O246	0.707930	0.753770	0.374570
O2471	O247	0.667730	0.545470	0.300070
O2481	O248	0.526430	0.420070	0.331770
O2491	O249	0.559330	0.270670	0.411870
O2501	O250	0.770030	0.393370	0.282470
O2511	O251	0.704930	0.536470	0.493870
N181	N18	0.838330	0.661770	0.423970
C1201	C120	0.712630	0.682370	0.413670
C1211	C121	0.797530	0.695570	0.407870
H521	H52	0.829130	0.729570	0.392470
C1221	C122	0.712630	0.605170	0.452970
C1231	C123	0.799930	0.619970	0.446970
H531	H53	0.832330	0.601470	0.458770
C1241	C124	0.669430	0.636870	0.436670
H541	H54	0.609130	0.627270	0.440970
C1251	C125	0.663630	0.551770	0.476770
C1261	C126	0.666230	0.719370	0.396170
O2521	O252	0.597930	0.717970	0.403870
O2531	O253	0.333330	0.666670	0.206800
O2541	O254	0.000000	0.000000	0.540130
O2551	O255	0.666670	0.333330	0.873470
O2561	O256	0.333330	0.666670	0.706800
O2571	O257	0.000000	0.000000	0.040130
O2581	O258	0.666670	0.333330	0.373470
