data_LEYRAK_clean_PM
_symmetry_space_group_name_H-M	'P1'
_cell_length_a	30.746400
_cell_length_b	15.685500
_cell_length_c	22.071400
_cell_angle_alpha	90.000000
_cell_angle_beta	133.210000
_cell_angle_gamma	90.000000
_symmetry_Int_Tables_number 1

loop_
_symmetry_equiv_pos_as_xyz
'x,y,z'

loop_
_atom_site_label
_atom_site_type_symbol
_atom_site_fract_x
_atom_site_fract_y
_atom_site_fract_z
Ce11	Ce1	0.331220	0.871070	0.486290
Ce21	Ce2	0.610600	0.862830	0.672130
O11	O1	0.253310	0.765800	0.373400
O21	O2	0.224200	0.651000	0.294400
O31	O3	0.440900	0.854900	0.569500
O41	O4	0.520170	0.783100	0.612500
O51	O5	0.634100	0.974000	0.617500
O61	O6	0.674600	0.097400	0.627100
O71	O7	0.622800	0.883500	0.795100
O81	O8	0.657600	0.953600	0.908400
N11	N1	0.366700	0.732600	0.464100
N21	N2	0.662000	0.002400	0.757600
C11	C1	0.328200	0.674500	0.407200
C21	C2	0.346100	0.599800	0.395900
H11	H1	0.317400	0.560100	0.354200
C31	C3	0.406500	0.584200	0.446800
H21	H2	0.420100	0.532700	0.441900
C41	C4	0.446800	0.644900	0.504700
H31	H3	0.488400	0.636400	0.539100
C51	C5	0.425500	0.718400	0.512000
C61	C6	0.263200	0.698900	0.353500
C71	C7	0.465400	0.790200	0.570000
C81	C8	0.684600	0.055500	0.738600
C91	C9	0.725500	0.118500	0.792800
H41	H4	0.743500	0.153100	0.779600
C101	C10	0.739400	0.129500	0.867200
H51	H5	0.766700	0.172300	0.905800
C111	C11	0.712300	0.076500	0.883300
H61	H6	0.719600	0.084400	0.932300
C121	C12	0.675200	0.012900	0.829100
C131	C13	0.663400	0.041600	0.654700
C141	C14	0.649500	0.946000	0.845500
Ce31	Ce3	0.831220	0.371070	0.486290
Ce41	Ce4	0.110600	0.362830	0.672130
O91	O9	0.753310	0.265800	0.373400
O101	O10	0.724200	0.151000	0.294400
O111	O11	0.940900	0.354900	0.569500
O121	O12	0.020170	0.283100	0.612500
O131	O13	0.134100	0.474000	0.617500
O141	O14	0.174600	0.597400	0.627100
O151	O15	0.122800	0.383500	0.795100
O161	O16	0.157600	0.453600	0.908400
N31	N3	0.866700	0.232600	0.464100
N41	N4	0.162000	0.502400	0.757600
C151	C15	0.828200	0.174500	0.407200
C161	C16	0.846100	0.099800	0.395900
H71	H7	0.817400	0.060100	0.354200
C171	C17	0.906500	0.084200	0.446800
H81	H8	0.920100	0.032700	0.441900
C181	C18	0.946800	0.144900	0.504700
H91	H9	0.988400	0.136400	0.539100
C191	C19	0.925500	0.218400	0.512000
C201	C20	0.763200	0.198900	0.353500
C211	C21	0.965400	0.290200	0.570000
C221	C22	0.184600	0.555500	0.738600
C231	C23	0.225500	0.618500	0.792800
H101	H10	0.243500	0.653100	0.779600
C241	C24	0.239400	0.629500	0.867200
H111	H11	0.266700	0.672300	0.905800
C251	C25	0.212300	0.576500	0.883300
H121	H12	0.219600	0.584400	0.932300
C261	C26	0.175200	0.512900	0.829100
C271	C27	0.163400	0.541600	0.654700
C281	C28	0.149500	0.446000	0.845500
Ce51	Ce5	0.668780	0.871070	0.013710
Ce61	Ce6	0.389400	0.862830	0.827870
O171	O17	0.746690	0.765800	0.126600
O181	O18	0.775800	0.651000	0.205600
O191	O19	0.559100	0.854900	0.930500
O201	O20	0.479830	0.783100	0.887500
O211	O21	0.365900	0.974000	0.882500
O221	O22	0.325400	0.097400	0.872900
O231	O23	0.377200	0.883500	0.704900
O241	O24	0.342400	0.953600	0.591600
N51	N5	0.633300	0.732600	0.035900
N61	N6	0.338000	0.002400	0.742400
C291	C29	0.671800	0.674500	0.092800
C301	C30	0.653900	0.599800	0.104100
H131	H13	0.682600	0.560100	0.145800
C311	C31	0.593500	0.584200	0.053200
H141	H14	0.579900	0.532700	0.058100
C321	C32	0.553200	0.644900	0.995300
H151	H15	0.511600	0.636400	0.960900
C331	C33	0.574500	0.718400	0.988000
C341	C34	0.736800	0.698900	0.146500
C351	C35	0.534600	0.790200	0.930000
C361	C36	0.315400	0.055500	0.761400
C371	C37	0.274500	0.118500	0.707200
H161	H16	0.256500	0.153100	0.720400
C381	C38	0.260600	0.129500	0.632800
H171	H17	0.233300	0.172300	0.594200
C391	C39	0.287700	0.076500	0.616700
H181	H18	0.280400	0.084400	0.567700
C401	C40	0.324800	0.012900	0.670900
C411	C41	0.336600	0.041600	0.845300
C421	C42	0.350500	0.946000	0.654500
Ce71	Ce7	0.168780	0.371070	0.013710
Ce81	Ce8	0.889400	0.362830	0.827870
O251	O25	0.246690	0.265800	0.126600
O261	O26	0.275800	0.151000	0.205600
O271	O27	0.059100	0.354900	0.930500
O281	O28	0.979830	0.283100	0.887500
O291	O29	0.865900	0.474000	0.882500
O301	O30	0.825400	0.597400	0.872900
O311	O31	0.877200	0.383500	0.704900
O321	O32	0.842400	0.453600	0.591600
N71	N7	0.133300	0.232600	0.035900
N81	N8	0.838000	0.502400	0.742400
C431	C43	0.171800	0.174500	0.092800
C441	C44	0.153900	0.099800	0.104100
H191	H19	0.182600	0.060100	0.145800
C451	C45	0.093500	0.084200	0.053200
H201	H20	0.079900	0.032700	0.058100
C461	C46	0.053200	0.144900	0.995300
H211	H21	0.011600	0.136400	0.960900
C471	C47	0.074500	0.218400	0.988000
C481	C48	0.236800	0.198900	0.146500
C491	C49	0.034600	0.290200	0.930000
C501	C50	0.815400	0.555500	0.761400
C511	C51	0.774500	0.618500	0.707200
H221	H22	0.756500	0.653100	0.720400
C521	C52	0.760600	0.629500	0.632800
H231	H23	0.733300	0.672300	0.594200
C531	C53	0.787700	0.576500	0.616700
H241	H24	0.780400	0.584400	0.567700
C541	C54	0.824800	0.512900	0.670900
C551	C55	0.836600	0.541600	0.845300
C561	C56	0.850500	0.446000	0.654500
Ce91	Ce9	0.668780	0.128930	0.513710
Ce101	Ce10	0.389400	0.137170	0.327870
O331	O33	0.746690	0.234200	0.626600
O341	O34	0.775800	0.349000	0.705600
O351	O35	0.559100	0.145100	0.430500
O361	O36	0.479830	0.216900	0.387500
O371	O37	0.365900	0.026000	0.382500
O381	O38	0.325400	0.902600	0.372900
O391	O39	0.377200	0.116500	0.204900
O401	O40	0.342400	0.046400	0.091600
N91	N9	0.633300	0.267400	0.535900
N101	N10	0.338000	0.997600	0.242400
C571	C57	0.671800	0.325500	0.592800
C581	C58	0.653900	0.400200	0.604100
H251	H25	0.682600	0.439900	0.645800
C591	C59	0.593500	0.415800	0.553200
H261	H26	0.579900	0.467300	0.558100
C601	C60	0.553200	0.355100	0.495300
H271	H27	0.511600	0.363600	0.460900
C611	C61	0.574500	0.281600	0.488000
C621	C62	0.736800	0.301100	0.646500
C631	C63	0.534600	0.209800	0.430000
C641	C64	0.315400	0.944500	0.261400
C651	C65	0.274500	0.881500	0.207200
H281	H28	0.256500	0.846900	0.220400
C661	C66	0.260600	0.870500	0.132800
H291	H29	0.233300	0.827700	0.094200
C671	C67	0.287700	0.923500	0.116700
H301	H30	0.280400	0.915600	0.067700
C681	C68	0.324800	0.987100	0.170900
C691	C69	0.336600	0.958400	0.345300
C701	C70	0.350500	0.054000	0.154500
Ce111	Ce11	0.168780	0.628930	0.513710
Ce121	Ce12	0.889400	0.637170	0.327870
O411	O41	0.246690	0.734200	0.626600
O421	O42	0.275800	0.849000	0.705600
O431	O43	0.059100	0.645100	0.430500
O441	O44	0.979830	0.716900	0.387500
O451	O45	0.865900	0.526000	0.382500
O461	O46	0.825400	0.402600	0.372900
O471	O47	0.877200	0.616500	0.204900
O481	O48	0.842400	0.546400	0.091600
N111	N11	0.133300	0.767400	0.535900
N121	N12	0.838000	0.497600	0.242400
C711	C71	0.171800	0.825500	0.592800
C721	C72	0.153900	0.900200	0.604100
H311	H31	0.182600	0.939900	0.645800
C731	C73	0.093500	0.915800	0.553200
H321	H32	0.079900	0.967300	0.558100
C741	C74	0.053200	0.855100	0.495300
H331	H33	0.011600	0.863600	0.460900
C751	C75	0.074500	0.781600	0.488000
C761	C76	0.236800	0.801100	0.646500
C771	C77	0.034600	0.709800	0.430000
C781	C78	0.815400	0.444500	0.261400
C791	C79	0.774500	0.381500	0.207200
H341	H34	0.756500	0.346900	0.220400
C801	C80	0.760600	0.370500	0.132800
H351	H35	0.733300	0.327700	0.094200
C811	C81	0.787700	0.423500	0.116700
H361	H36	0.780400	0.415600	0.067700
C821	C82	0.824800	0.487100	0.170900
C831	C83	0.836600	0.458400	0.345300
C841	C84	0.850500	0.554000	0.154500
Ce131	Ce13	0.331220	0.128930	0.986290
Ce141	Ce14	0.610600	0.137170	0.172130
O491	O49	0.253310	0.234200	0.873400
O501	O50	0.224200	0.349000	0.794400
O511	O51	0.440900	0.145100	0.069500
O521	O52	0.520170	0.216900	0.112500
O531	O53	0.634100	0.026000	0.117500
O541	O54	0.674600	0.902600	0.127100
O551	O55	0.622800	0.116500	0.295100
O561	O56	0.657600	0.046400	0.408400
N131	N13	0.366700	0.267400	0.964100
N141	N14	0.662000	0.997600	0.257600
C851	C85	0.328200	0.325500	0.907200
C861	C86	0.346100	0.400200	0.895900
H371	H37	0.317400	0.439900	0.854200
C871	C87	0.406500	0.415800	0.946800
H381	H38	0.420100	0.467300	0.941900
C881	C88	0.446800	0.355100	0.004700
H391	H39	0.488400	0.363600	0.039100
C891	C89	0.425500	0.281600	0.012000
C901	C90	0.263200	0.301100	0.853500
C911	C91	0.465400	0.209800	0.070000
C921	C92	0.684600	0.944500	0.238600
C931	C93	0.725500	0.881500	0.292800
H401	H40	0.743500	0.846900	0.279600
C941	C94	0.739400	0.870500	0.367200
H411	H41	0.766700	0.827700	0.405800
C951	C95	0.712300	0.923500	0.383300
H421	H42	0.719600	0.915600	0.432300
C961	C96	0.675200	0.987100	0.329100
C971	C97	0.663400	0.958400	0.154700
C981	C98	0.649500	0.054000	0.345500
Ce151	Ce15	0.831220	0.628930	0.986290
Ce161	Ce16	0.110600	0.637170	0.172130
O571	O57	0.753310	0.734200	0.873400
O581	O58	0.724200	0.849000	0.794400
O591	O59	0.940900	0.645100	0.069500
O601	O60	0.020170	0.716900	0.112500
O611	O61	0.134100	0.526000	0.117500
O621	O62	0.174600	0.402600	0.127100
O631	O63	0.122800	0.616500	0.295100
O641	O64	0.157600	0.546400	0.408400
N151	N15	0.866700	0.767400	0.964100
N161	N16	0.162000	0.497600	0.257600
C991	C99	0.828200	0.825500	0.907200
C1001	C100	0.846100	0.900200	0.895900
H431	H43	0.817400	0.939900	0.854200
C1011	C101	0.906500	0.915800	0.946800
H441	H44	0.920100	0.967300	0.941900
C1021	C102	0.946800	0.855100	0.004700
H451	H45	0.988400	0.863600	0.039100
C1031	C103	0.925500	0.781600	0.012000
C1041	C104	0.763200	0.801100	0.853500
C1051	C105	0.965400	0.709800	0.070000
C1061	C106	0.184600	0.444500	0.238600
C1071	C107	0.225500	0.381500	0.292800
H461	H46	0.243500	0.346900	0.279600
C1081	C108	0.239400	0.370500	0.367200
H471	H47	0.266700	0.327700	0.405800
C1091	C109	0.212300	0.423500	0.383300
H481	H48	0.219600	0.415600	0.432300
C1101	C110	0.175200	0.487100	0.329100
C1111	C111	0.163400	0.458400	0.154700
C1121	C112	0.149500	0.554000	0.345500
