data_LEYREO_clean_PM
_symmetry_space_group_name_H-M	'P1'
_cell_length_a	30.644000
_cell_length_b	15.664700
_cell_length_c	22.023000
_cell_angle_alpha	90.000000
_cell_angle_beta	133.135000
_cell_angle_gamma	90.000000
_symmetry_Int_Tables_number 1

loop_
_symmetry_equiv_pos_as_xyz
'x,y,z'

loop_
_atom_site_label
_atom_site_type_symbol
_atom_site_fract_x
_atom_site_fract_y
_atom_site_fract_z
Pr11	Pr1	0.331270	0.871410	0.486050
Pr21	Pr2	0.610520	0.863180	0.672930
O11	O1	0.253000	0.767900	0.372300
O21	O2	0.223600	0.651700	0.294600
O31	O3	0.440500	0.856400	0.569400
O41	O4	0.520300	0.783900	0.613600
O51	O5	0.634100	0.972900	0.617600
O61	O6	0.674100	0.096700	0.626300
O71	O7	0.622500	0.883500	0.795200
O81	O8	0.657100	0.953500	0.908600
N11	N1	0.366700	0.733900	0.464000
N21	N2	0.661800	0.001400	0.757800
C11	C1	0.327700	0.676000	0.406800
C21	C2	0.346100	0.600800	0.395900
H11	H1	0.317500	0.560900	0.354100
C31	C3	0.406800	0.585500	0.446900
H21	H2	0.420500	0.534000	0.441800
C41	C4	0.446900	0.645500	0.504900
H31	H3	0.488600	0.636500	0.539600
C51	C5	0.425800	0.719800	0.512400
C61	C6	0.263200	0.699400	0.354000
C71	C7	0.465500	0.791200	0.570000
C81	C8	0.684900	0.054900	0.739000
C91	C9	0.726000	0.117400	0.793200
H41	H4	0.744600	0.151400	0.780600
C101	C10	0.739000	0.128800	0.866700
H51	H5	0.765900	0.172100	0.905000
C111	C11	0.712400	0.076600	0.883200
H61	H6	0.719900	0.084700	0.932500
C121	C12	0.674700	0.012500	0.828600
C131	C13	0.662700	0.041200	0.654400
C141	C14	0.649000	0.945700	0.845600
Pr31	Pr3	0.831270	0.371410	0.486050
Pr41	Pr4	0.110520	0.363180	0.672930
O91	O9	0.753000	0.267900	0.372300
O101	O10	0.723600	0.151700	0.294600
O111	O11	0.940500	0.356400	0.569400
O121	O12	0.020300	0.283900	0.613600
O131	O13	0.134100	0.472900	0.617600
O141	O14	0.174100	0.596700	0.626300
O151	O15	0.122500	0.383500	0.795200
O161	O16	0.157100	0.453500	0.908600
N31	N3	0.866700	0.233900	0.464000
N41	N4	0.161800	0.501400	0.757800
C151	C15	0.827700	0.176000	0.406800
C161	C16	0.846100	0.100800	0.395900
H71	H7	0.817500	0.060900	0.354100
C171	C17	0.906800	0.085500	0.446900
H81	H8	0.920500	0.034000	0.441800
C181	C18	0.946900	0.145500	0.504900
H91	H9	0.988600	0.136500	0.539600
C191	C19	0.925800	0.219800	0.512400
C201	C20	0.763200	0.199400	0.354000
C211	C21	0.965500	0.291200	0.570000
C221	C22	0.184900	0.554900	0.739000
C231	C23	0.226000	0.617400	0.793200
H101	H10	0.244600	0.651400	0.780600
C241	C24	0.239000	0.628800	0.866700
H111	H11	0.265900	0.672100	0.905000
C251	C25	0.212400	0.576600	0.883200
H121	H12	0.219900	0.584700	0.932500
C261	C26	0.174700	0.512500	0.828600
C271	C27	0.162700	0.541200	0.654400
C281	C28	0.149000	0.445700	0.845600
Pr51	Pr5	0.668730	0.871410	0.013950
Pr61	Pr6	0.389480	0.863180	0.827070
O171	O17	0.747000	0.767900	0.127700
O181	O18	0.776400	0.651700	0.205400
O191	O19	0.559500	0.856400	0.930600
O201	O20	0.479700	0.783900	0.886400
O211	O21	0.365900	0.972900	0.882400
O221	O22	0.325900	0.096700	0.873700
O231	O23	0.377500	0.883500	0.704800
O241	O24	0.342900	0.953500	0.591400
N51	N5	0.633300	0.733900	0.036000
N61	N6	0.338200	0.001400	0.742200
C291	C29	0.672300	0.676000	0.093200
C301	C30	0.653900	0.600800	0.104100
H131	H13	0.682500	0.560900	0.145900
C311	C31	0.593200	0.585500	0.053100
H141	H14	0.579500	0.534000	0.058200
C321	C32	0.553100	0.645500	0.995100
H151	H15	0.511400	0.636500	0.960400
C331	C33	0.574200	0.719800	0.987600
C341	C34	0.736800	0.699400	0.146000
C351	C35	0.534500	0.791200	0.930000
C361	C36	0.315100	0.054900	0.761000
C371	C37	0.274000	0.117400	0.706800
H161	H16	0.255400	0.151400	0.719400
C381	C38	0.261000	0.128800	0.633300
H171	H17	0.234100	0.172100	0.595000
C391	C39	0.287600	0.076600	0.616800
H181	H18	0.280100	0.084700	0.567500
C401	C40	0.325300	0.012500	0.671400
C411	C41	0.337300	0.041200	0.845600
C421	C42	0.351000	0.945700	0.654400
Pr71	Pr7	0.168730	0.371410	0.013950
Pr81	Pr8	0.889480	0.363180	0.827070
O251	O25	0.247000	0.267900	0.127700
O261	O26	0.276400	0.151700	0.205400
O271	O27	0.059500	0.356400	0.930600
O281	O28	0.979700	0.283900	0.886400
O291	O29	0.865900	0.472900	0.882400
O301	O30	0.825900	0.596700	0.873700
O311	O31	0.877500	0.383500	0.704800
O321	O32	0.842900	0.453500	0.591400
N71	N7	0.133300	0.233900	0.036000
N81	N8	0.838200	0.501400	0.742200
C431	C43	0.172300	0.176000	0.093200
C441	C44	0.153900	0.100800	0.104100
H191	H19	0.182500	0.060900	0.145900
C451	C45	0.093200	0.085500	0.053100
H201	H20	0.079500	0.034000	0.058200
C461	C46	0.053100	0.145500	0.995100
H211	H21	0.011400	0.136500	0.960400
C471	C47	0.074200	0.219800	0.987600
C481	C48	0.236800	0.199400	0.146000
C491	C49	0.034500	0.291200	0.930000
C501	C50	0.815100	0.554900	0.761000
C511	C51	0.774000	0.617400	0.706800
H221	H22	0.755400	0.651400	0.719400
C521	C52	0.761000	0.628800	0.633300
H231	H23	0.734100	0.672100	0.595000
C531	C53	0.787600	0.576600	0.616800
H241	H24	0.780100	0.584700	0.567500
C541	C54	0.825300	0.512500	0.671400
C551	C55	0.837300	0.541200	0.845600
C561	C56	0.851000	0.445700	0.654400
Pr91	Pr9	0.668730	0.128590	0.513950
Pr101	Pr10	0.389480	0.136820	0.327070
O331	O33	0.747000	0.232100	0.627700
O341	O34	0.776400	0.348300	0.705400
O351	O35	0.559500	0.143600	0.430600
O361	O36	0.479700	0.216100	0.386400
O371	O37	0.365900	0.027100	0.382400
O381	O38	0.325900	0.903300	0.373700
O391	O39	0.377500	0.116500	0.204800
O401	O40	0.342900	0.046500	0.091400
N91	N9	0.633300	0.266100	0.536000
N101	N10	0.338200	0.998600	0.242200
C571	C57	0.672300	0.324000	0.593200
C581	C58	0.653900	0.399200	0.604100
H251	H25	0.682500	0.439100	0.645900
C591	C59	0.593200	0.414500	0.553100
H261	H26	0.579500	0.466000	0.558200
C601	C60	0.553100	0.354500	0.495100
H271	H27	0.511400	0.363500	0.460400
C611	C61	0.574200	0.280200	0.487600
C621	C62	0.736800	0.300600	0.646000
C631	C63	0.534500	0.208800	0.430000
C641	C64	0.315100	0.945100	0.261000
C651	C65	0.274000	0.882600	0.206800
H281	H28	0.255400	0.848600	0.219400
C661	C66	0.261000	0.871200	0.133300
H291	H29	0.234100	0.827900	0.095000
C671	C67	0.287600	0.923400	0.116800
H301	H30	0.280100	0.915300	0.067500
C681	C68	0.325300	0.987500	0.171400
C691	C69	0.337300	0.958800	0.345600
C701	C70	0.351000	0.054300	0.154400
Pr111	Pr11	0.168730	0.628590	0.513950
Pr121	Pr12	0.889480	0.636820	0.327070
O411	O41	0.247000	0.732100	0.627700
O421	O42	0.276400	0.848300	0.705400
O431	O43	0.059500	0.643600	0.430600
O441	O44	0.979700	0.716100	0.386400
O451	O45	0.865900	0.527100	0.382400
O461	O46	0.825900	0.403300	0.373700
O471	O47	0.877500	0.616500	0.204800
O481	O48	0.842900	0.546500	0.091400
N111	N11	0.133300	0.766100	0.536000
N121	N12	0.838200	0.498600	0.242200
C711	C71	0.172300	0.824000	0.593200
C721	C72	0.153900	0.899200	0.604100
H311	H31	0.182500	0.939100	0.645900
C731	C73	0.093200	0.914500	0.553100
H321	H32	0.079500	0.966000	0.558200
C741	C74	0.053100	0.854500	0.495100
H331	H33	0.011400	0.863500	0.460400
C751	C75	0.074200	0.780200	0.487600
C761	C76	0.236800	0.800600	0.646000
C771	C77	0.034500	0.708800	0.430000
C781	C78	0.815100	0.445100	0.261000
C791	C79	0.774000	0.382600	0.206800
H341	H34	0.755400	0.348600	0.219400
C801	C80	0.761000	0.371200	0.133300
H351	H35	0.734100	0.327900	0.095000
C811	C81	0.787600	0.423400	0.116800
H361	H36	0.780100	0.415300	0.067500
C821	C82	0.825300	0.487500	0.171400
C831	C83	0.837300	0.458800	0.345600
C841	C84	0.851000	0.554300	0.154400
Pr131	Pr13	0.331270	0.128590	0.986050
Pr141	Pr14	0.610520	0.136820	0.172930
O491	O49	0.253000	0.232100	0.872300
O501	O50	0.223600	0.348300	0.794600
O511	O51	0.440500	0.143600	0.069400
O521	O52	0.520300	0.216100	0.113600
O531	O53	0.634100	0.027100	0.117600
O541	O54	0.674100	0.903300	0.126300
O551	O55	0.622500	0.116500	0.295200
O561	O56	0.657100	0.046500	0.408600
N131	N13	0.366700	0.266100	0.964000
N141	N14	0.661800	0.998600	0.257800
C851	C85	0.327700	0.324000	0.906800
C861	C86	0.346100	0.399200	0.895900
H371	H37	0.317500	0.439100	0.854100
C871	C87	0.406800	0.414500	0.946900
H381	H38	0.420500	0.466000	0.941800
C881	C88	0.446900	0.354500	0.004900
H391	H39	0.488600	0.363500	0.039600
C891	C89	0.425800	0.280200	0.012400
C901	C90	0.263200	0.300600	0.854000
C911	C91	0.465500	0.208800	0.070000
C921	C92	0.684900	0.945100	0.239000
C931	C93	0.726000	0.882600	0.293200
H401	H40	0.744600	0.848600	0.280600
C941	C94	0.739000	0.871200	0.366700
H411	H41	0.765900	0.827900	0.405000
C951	C95	0.712400	0.923400	0.383200
H421	H42	0.719900	0.915300	0.432500
C961	C96	0.674700	0.987500	0.328600
C971	C97	0.662700	0.958800	0.154400
C981	C98	0.649000	0.054300	0.345600
Pr151	Pr15	0.831270	0.628590	0.986050
Pr161	Pr16	0.110520	0.636820	0.172930
O571	O57	0.753000	0.732100	0.872300
O581	O58	0.723600	0.848300	0.794600
O591	O59	0.940500	0.643600	0.069400
O601	O60	0.020300	0.716100	0.113600
O611	O61	0.134100	0.527100	0.117600
O621	O62	0.174100	0.403300	0.126300
O631	O63	0.122500	0.616500	0.295200
O641	O64	0.157100	0.546500	0.408600
N151	N15	0.866700	0.766100	0.964000
N161	N16	0.161800	0.498600	0.257800
C991	C99	0.827700	0.824000	0.906800
C1001	C100	0.846100	0.899200	0.895900
H431	H43	0.817500	0.939100	0.854100
C1011	C101	0.906800	0.914500	0.946900
H441	H44	0.920500	0.966000	0.941800
C1021	C102	0.946900	0.854500	0.004900
H451	H45	0.988600	0.863500	0.039600
C1031	C103	0.925800	0.780200	0.012400
C1041	C104	0.763200	0.800600	0.854000
C1051	C105	0.965500	0.708800	0.070000
C1061	C106	0.184900	0.445100	0.239000
C1071	C107	0.226000	0.382600	0.293200
H461	H46	0.244600	0.348600	0.280600
C1081	C108	0.239000	0.371200	0.366700
H471	H47	0.265900	0.327900	0.405000
C1091	C109	0.212400	0.423400	0.383200
H481	H48	0.219900	0.415300	0.432500
C1101	C110	0.174700	0.487500	0.328600
C1111	C111	0.162700	0.458800	0.154400
C1121	C112	0.149000	0.554300	0.345600
