data_LEZWUK_clean_PM
_symmetry_space_group_name_H-M	'P1'
_cell_length_a	16.630800
_cell_length_b	16.630800
_cell_length_c	51.164000
_cell_angle_alpha	90.000000
_cell_angle_beta	90.000000
_cell_angle_gamma	120.000000
_symmetry_Int_Tables_number 1

loop_
_symmetry_equiv_pos_as_xyz
'x,y,z'

loop_
_atom_site_label
_atom_site_type_symbol
_atom_site_fract_x
_atom_site_fract_y
_atom_site_fract_z
W11	W1	0.525410	0.639510	0.172420
W21	W2	0.291410	0.439150	0.168370
W31	W3	0.392460	0.591670	0.111610
W41	W4	0.480070	0.731750	0.222880
Lu11	Lu1	0.772560	0.656820	0.172780
C11	C1	0.683500	0.714400	0.094300
O11	O1	0.422300	0.527600	0.176500
O21	O2	0.613200	0.611100	0.168900
O31	O3	0.612300	0.773500	0.163400
C21	C2	0.604200	0.712500	0.054300
O41	O4	0.262700	0.550600	0.179200
O51	O5	0.487600	0.633600	0.134800
N11	N1	0.662600	0.838500	0.084800
O61	O6	0.528100	0.580200	0.029500
O71	O7	0.754100	0.707700	0.133700
O81	O8	0.275000	0.429700	0.206000
O91	O9	0.319000	0.487600	0.133700
O101	O10	0.393800	0.770700	0.225600
O111	O11	0.440000	0.710100	0.095500
O121	O12	0.533400	0.703900	0.014500
C31	C3	0.719000	0.665200	0.111500
O131	O13	0.717700	0.594200	0.104400
C41	C4	0.550700	0.661500	0.030900
O141	O14	0.547900	0.669100	0.208100
C51	C5	0.617800	0.799400	0.062300
H11	H1	0.595600	0.831600	0.051700
C61	C6	0.693200	0.797800	0.099300
H21	H2	0.723300	0.836500	0.114100
C71	C7	0.639000	0.670500	0.071800
H31	H3	0.631200	0.612500	0.067700
W51	W5	0.192080	0.972840	0.505750
W61	W6	0.958080	0.772480	0.501700
W71	W7	0.059130	0.925000	0.444940
W81	W8	0.146740	0.065080	0.556210
Lu21	Lu2	0.439230	0.990150	0.506120
C81	C8	0.350170	0.047730	0.427630
O151	O15	0.088970	0.860930	0.509830
O161	O16	0.279870	0.944430	0.502230
O171	O17	0.278970	0.106830	0.496730
C91	C9	0.270870	0.045830	0.387630
O181	O18	0.929370	0.883930	0.512530
O191	O19	0.154270	0.966930	0.468130
N21	N2	0.329270	0.171830	0.418130
O201	O20	0.194770	0.913530	0.362830
O211	O21	0.420770	0.041030	0.467030
O221	O22	0.941670	0.763030	0.539330
O231	O23	0.985670	0.820930	0.467030
O241	O24	0.060470	0.104030	0.558930
O251	O25	0.106670	0.043430	0.428830
O261	O26	0.200070	0.037230	0.347830
C101	C10	0.385670	0.998530	0.444830
O271	O27	0.384370	0.927530	0.437730
C111	C11	0.217370	0.994830	0.364230
O281	O28	0.214570	0.002430	0.541430
C121	C12	0.284470	0.132730	0.395630
H41	H4	0.262270	0.164930	0.385030
C131	C13	0.359870	0.131130	0.432630
H51	H5	0.389970	0.169830	0.447430
C141	C14	0.305670	0.003830	0.405130
H61	H6	0.297870	0.945830	0.401030
W91	W9	0.858740	0.306180	0.839090
W101	W10	0.624740	0.105820	0.835040
W111	W11	0.725790	0.258340	0.778280
W121	W12	0.813400	0.398420	0.889550
Lu31	Lu3	0.105890	0.323490	0.839450
C151	C15	0.016830	0.381070	0.760970
O291	O29	0.755630	0.194270	0.843170
O301	O30	0.946530	0.277770	0.835570
O311	O31	0.945630	0.440170	0.830070
C161	C16	0.937530	0.379170	0.720970
O321	O32	0.596030	0.217270	0.845870
O331	O33	0.820930	0.300270	0.801470
N31	N3	0.995930	0.505170	0.751470
O341	O34	0.861430	0.246870	0.696170
O351	O35	0.087430	0.374370	0.800370
O361	O36	0.608330	0.096370	0.872670
O371	O37	0.652330	0.154270	0.800370
O381	O38	0.727130	0.437370	0.892270
O391	O39	0.773330	0.376770	0.762170
O401	O40	0.866730	0.370570	0.681170
C171	C17	0.052330	0.331870	0.778170
O411	O41	0.051030	0.260870	0.771070
C181	C18	0.884030	0.328170	0.697570
O421	O42	0.881230	0.335770	0.874770
C191	C19	0.951130	0.466070	0.728970
H71	H7	0.928930	0.498270	0.718370
C201	C20	0.026530	0.464470	0.765970
H81	H8	0.056630	0.503170	0.780770
C211	C21	0.972330	0.337170	0.738470
H91	H9	0.964530	0.279170	0.734370
W131	W13	0.360490	0.885900	0.172420
W141	W14	0.560850	0.852260	0.168370
W151	W15	0.408330	0.800790	0.111610
W161	W16	0.268250	0.748320	0.222880
Lu41	Lu4	0.343180	0.115740	0.172780
C221	C22	0.285600	0.969100	0.094300
O431	O43	0.472400	0.894700	0.176500
O441	O44	0.388900	0.002100	0.168900
O451	O45	0.226500	0.838800	0.163400
C231	C23	0.287500	0.891700	0.054300
O461	O46	0.449400	0.712100	0.179200
O471	O47	0.366400	0.854000	0.134800
N41	N4	0.161500	0.824100	0.084800
O481	O48	0.419800	0.947900	0.029500
O491	O49	0.292300	0.046400	0.133700
O501	O50	0.570300	0.845300	0.206000
O511	O51	0.512400	0.831400	0.133700
O521	O52	0.229300	0.623100	0.225600
O531	O53	0.289900	0.729900	0.095500
O541	O54	0.296100	0.829500	0.014500
C241	C24	0.334800	0.053800	0.111500
O551	O55	0.405800	0.123500	0.104400
C251	C25	0.338500	0.889200	0.030900
O561	O56	0.330900	0.878800	0.208100
C261	C26	0.200600	0.818400	0.062300
H101	H10	0.168400	0.764000	0.051700
C271	C27	0.202200	0.895400	0.099300
H111	H11	0.163500	0.886800	0.114100
C281	C28	0.329500	0.968500	0.071800
H121	H12	0.387500	0.018700	0.067700
W171	W17	0.027160	0.219230	0.505750
W181	W18	0.227520	0.185590	0.501700
W191	W19	0.075000	0.134120	0.444940
W201	W20	0.934920	0.081650	0.556210
Lu51	Lu5	0.009850	0.449070	0.506120
C291	C29	0.952270	0.302430	0.427630
O571	O57	0.139070	0.228030	0.509830
O581	O58	0.055570	0.335430	0.502230
O591	O59	0.893170	0.172130	0.496730
C301	C30	0.954170	0.225030	0.387630
O601	O60	0.116070	0.045430	0.512530
O611	O61	0.033070	0.187330	0.468130
N51	N5	0.828170	0.157430	0.418130
O621	O62	0.086470	0.281230	0.362830
O631	O63	0.958970	0.379730	0.467030
O641	O64	0.236970	0.178630	0.539330
O651	O65	0.179070	0.164730	0.467030
O661	O66	0.895970	0.956430	0.558930
O671	O67	0.956570	0.063230	0.428830
O681	O68	0.962770	0.162830	0.347830
C311	C31	0.001470	0.387130	0.444830
O691	O69	0.072470	0.456830	0.437730
C321	C32	0.005170	0.222530	0.364230
O701	O70	0.997570	0.212130	0.541430
C331	C33	0.867270	0.151730	0.395630
H131	H13	0.835070	0.097330	0.385030
C341	C34	0.868870	0.228730	0.432630
H141	H14	0.830170	0.220130	0.447430
C351	C35	0.996170	0.301830	0.405130
H151	H15	0.054170	0.352030	0.401030
W211	W21	0.693820	0.552570	0.839090
W221	W22	0.894180	0.518930	0.835040
W231	W23	0.741660	0.467460	0.778280
W241	W24	0.601580	0.414990	0.889550
Lu61	Lu6	0.676510	0.782410	0.839450
C361	C36	0.618930	0.635770	0.760970
O711	O71	0.805730	0.561370	0.843170
O721	O72	0.722230	0.668770	0.835570
O731	O73	0.559830	0.505470	0.830070
C371	C37	0.620830	0.558370	0.720970
O741	O74	0.782730	0.378770	0.845870
O751	O75	0.699730	0.520670	0.801470
N61	N6	0.494830	0.490770	0.751470
O761	O76	0.753130	0.614570	0.696170
O771	O77	0.625630	0.713070	0.800370
O781	O78	0.903630	0.511970	0.872670
O791	O79	0.845730	0.498070	0.800370
O801	O80	0.562630	0.289770	0.892270
O811	O81	0.623230	0.396570	0.762170
O821	O82	0.629430	0.496170	0.681170
C381	C38	0.668130	0.720470	0.778170
O831	O83	0.739130	0.790170	0.771070
C391	C39	0.671830	0.555870	0.697570
O841	O84	0.664230	0.545470	0.874770
C401	C40	0.533930	0.485070	0.728970
H161	H16	0.501730	0.430670	0.718370
C411	C41	0.535530	0.562070	0.765970
H171	H17	0.496830	0.553470	0.780770
C421	C42	0.662830	0.635170	0.738470
H181	H18	0.720830	0.685370	0.734370
W251	W25	0.114100	0.474590	0.172420
W261	W26	0.147740	0.708590	0.168370
W271	W27	0.199210	0.607540	0.111610
W281	W28	0.251680	0.519930	0.222880
Lu71	Lu7	0.884260	0.227440	0.172780
C431	C43	0.030900	0.316500	0.094300
O851	O85	0.105300	0.577700	0.176500
O861	O86	0.997900	0.386800	0.168900
O871	O87	0.161200	0.387700	0.163400
C441	C44	0.108300	0.395800	0.054300
O881	O88	0.287900	0.737300	0.179200
O891	O89	0.146000	0.512400	0.134800
N71	N7	0.175900	0.337400	0.084800
O901	O90	0.052100	0.471900	0.029500
O911	O91	0.953600	0.245900	0.133700
O921	O92	0.154700	0.725000	0.206000
O931	O93	0.168600	0.681000	0.133700
O941	O94	0.376900	0.606200	0.225600
O951	O95	0.270100	0.560000	0.095500
O961	O96	0.170500	0.466600	0.014500
C451	C45	0.946200	0.281000	0.111500
O971	O97	0.876500	0.282300	0.104400
C461	C46	0.110800	0.449300	0.030900
O981	O98	0.121200	0.452100	0.208100
C471	C47	0.181600	0.382200	0.062300
H191	H19	0.236000	0.404400	0.051700
C481	C48	0.104600	0.306800	0.099300
H201	H20	0.113200	0.276700	0.114100
C491	C49	0.031500	0.361000	0.071800
H211	H21	0.981300	0.368800	0.067700
W291	W29	0.780770	0.807920	0.505750
W301	W30	0.814410	0.041920	0.501700
W311	W31	0.865880	0.940870	0.444940
W321	W32	0.918350	0.853260	0.556210
Lu81	Lu8	0.550930	0.560770	0.506120
C501	C50	0.697570	0.649830	0.427630
O991	O99	0.771970	0.911030	0.509830
O1001	O100	0.664570	0.720130	0.502230
O1011	O101	0.827870	0.721030	0.496730
C511	C51	0.774970	0.729130	0.387630
O1021	O102	0.954570	0.070630	0.512530
O1031	O103	0.812670	0.845730	0.468130
N81	N8	0.842570	0.670730	0.418130
O1041	O104	0.718770	0.805230	0.362830
O1051	O105	0.620270	0.579230	0.467030
O1061	O106	0.821370	0.058330	0.539330
O1071	O107	0.835270	0.014330	0.467030
O1081	O108	0.043570	0.939530	0.558930
O1091	O109	0.936770	0.893330	0.428830
O1101	O110	0.837170	0.799930	0.347830
C521	C52	0.612870	0.614330	0.444830
O1111	O111	0.543170	0.615630	0.437730
C531	C53	0.777470	0.782630	0.364230
O1121	O112	0.787870	0.785430	0.541430
C541	C54	0.848270	0.715530	0.395630
H221	H22	0.902670	0.737730	0.385030
C551	C55	0.771270	0.640130	0.432630
H231	H23	0.779870	0.610030	0.447430
C561	C56	0.698170	0.694330	0.405130
H241	H24	0.647970	0.702130	0.401030
W331	W33	0.447430	0.141260	0.839090
W341	W34	0.481070	0.375260	0.835040
W351	W35	0.532540	0.274210	0.778280
W361	W36	0.585010	0.186600	0.889550
Lu91	Lu9	0.217590	0.894110	0.839450
C571	C57	0.364230	0.983170	0.760970
O1131	O113	0.438630	0.244370	0.843170
O1141	O114	0.331230	0.053470	0.835570
O1151	O115	0.494530	0.054370	0.830070
C581	C58	0.441630	0.062470	0.720970
O1161	O116	0.621230	0.403970	0.845870
O1171	O117	0.479330	0.179070	0.801470
N91	N9	0.509230	0.004070	0.751470
O1181	O118	0.385430	0.138570	0.696170
O1191	O119	0.286930	0.912570	0.800370
O1201	O120	0.488030	0.391670	0.872670
O1211	O121	0.501930	0.347670	0.800370
O1221	O122	0.710230	0.272870	0.892270
O1231	O123	0.603430	0.226670	0.762170
O1241	O124	0.503830	0.133270	0.681170
C591	C59	0.279530	0.947670	0.778170
O1251	O125	0.209830	0.948970	0.771070
C601	C60	0.444130	0.115970	0.697570
O1261	O126	0.454530	0.118770	0.874770
C611	C61	0.514930	0.048870	0.728970
H251	H25	0.569330	0.071070	0.718370
C621	C62	0.437930	0.973470	0.765970
H261	H26	0.446530	0.943370	0.780770
C631	C63	0.364830	0.027670	0.738470
H271	H27	0.314630	0.035470	0.734370
W371	W37	0.360490	0.474590	0.672420
W381	W38	0.560850	0.708590	0.668370
W391	W39	0.408330	0.607540	0.611610
W401	W40	0.268250	0.519930	0.722880
Lu101	Lu10	0.343180	0.227440	0.672780
C641	C64	0.285600	0.316500	0.594300
O1271	O127	0.472400	0.577700	0.676500
O1281	O128	0.388900	0.386800	0.668900
O1291	O129	0.226500	0.387700	0.663400
C651	C65	0.287500	0.395800	0.554300
O1301	O130	0.449400	0.737300	0.679200
O1311	O131	0.366400	0.512400	0.634800
N101	N10	0.161500	0.337400	0.584800
O1321	O132	0.419800	0.471900	0.529500
O1331	O133	0.292300	0.245900	0.633700
O1341	O134	0.570300	0.725000	0.706000
O1351	O135	0.512400	0.681000	0.633700
O1361	O136	0.229300	0.606200	0.725600
O1371	O137	0.289900	0.560000	0.595500
O1381	O138	0.296100	0.466600	0.514500
C661	C66	0.334800	0.281000	0.611500
O1391	O139	0.405800	0.282300	0.604400
C671	C67	0.338500	0.449300	0.530900
O1401	O140	0.330900	0.452100	0.708100
C681	C68	0.200600	0.382200	0.562300
H281	H28	0.168400	0.404400	0.551700
C691	C69	0.202200	0.306800	0.599300
H291	H29	0.163500	0.276700	0.614100
C701	C70	0.329500	0.361000	0.571800
H301	H30	0.387500	0.368800	0.567700
W411	W41	0.027160	0.807920	0.005750
W421	W42	0.227520	0.041920	0.001700
W431	W43	0.075000	0.940870	0.944940
W441	W44	0.934920	0.853260	0.056210
Lu111	Lu11	0.009850	0.560770	0.006120
C711	C71	0.952270	0.649830	0.927630
O1411	O141	0.139070	0.911030	0.009830
O1421	O142	0.055570	0.720130	0.002230
O1431	O143	0.893170	0.721030	0.996730
C721	C72	0.954170	0.729130	0.887630
O1441	O144	0.116070	0.070630	0.012530
O1451	O145	0.033070	0.845730	0.968130
N111	N11	0.828170	0.670730	0.918130
O1461	O146	0.086470	0.805230	0.862830
O1471	O147	0.958970	0.579230	0.967030
O1481	O148	0.236970	0.058330	0.039330
O1491	O149	0.179070	0.014330	0.967030
O1501	O150	0.895970	0.939530	0.058930
O1511	O151	0.956570	0.893330	0.928830
O1521	O152	0.962770	0.799930	0.847830
C731	C73	0.001470	0.614330	0.944830
O1531	O153	0.072470	0.615630	0.937730
C741	C74	0.005170	0.782630	0.864230
O1541	O154	0.997570	0.785430	0.041430
C751	C75	0.867270	0.715530	0.895630
H311	H31	0.835070	0.737730	0.885030
C761	C76	0.868870	0.640130	0.932630
H321	H32	0.830170	0.610030	0.947430
C771	C77	0.996170	0.694330	0.905130
H331	H33	0.054170	0.702130	0.901030
W451	W45	0.693820	0.141260	0.339090
W461	W46	0.894180	0.375260	0.335040
W471	W47	0.741660	0.274210	0.278280
W481	W48	0.601580	0.186600	0.389550
Lu121	Lu12	0.676510	0.894110	0.339450
C781	C78	0.618930	0.983170	0.260970
O1551	O155	0.805730	0.244370	0.343170
O1561	O156	0.722230	0.053470	0.335570
O1571	O157	0.559830	0.054370	0.330070
C791	C79	0.620830	0.062470	0.220970
O1581	O158	0.782730	0.403970	0.345870
O1591	O159	0.699730	0.179070	0.301470
N121	N12	0.494830	0.004070	0.251470
O1601	O160	0.753130	0.138570	0.196170
O1611	O161	0.625630	0.912570	0.300370
O1621	O162	0.903630	0.391670	0.372670
O1631	O163	0.845730	0.347670	0.300370
O1641	O164	0.562630	0.272870	0.392270
O1651	O165	0.623230	0.226670	0.262170
O1661	O166	0.629430	0.133270	0.181170
C801	C80	0.668130	0.947670	0.278170
O1671	O167	0.739130	0.948970	0.271070
C811	C81	0.671830	0.115970	0.197570
O1681	O168	0.664230	0.118770	0.374770
C821	C82	0.533930	0.048870	0.228970
H341	H34	0.501730	0.071070	0.218370
C831	C83	0.535530	0.973470	0.265970
H351	H35	0.496830	0.943370	0.280770
C841	C84	0.662830	0.027670	0.238470
H361	H36	0.720830	0.035470	0.234370
W491	W49	0.114100	0.639510	0.672420
W501	W50	0.147740	0.439150	0.668370
W511	W51	0.199210	0.591670	0.611610
W521	W52	0.251680	0.731750	0.722880
Lu131	Lu13	0.884260	0.656820	0.672780
C851	C85	0.030900	0.714400	0.594300
O1691	O169	0.105300	0.527600	0.676500
O1701	O170	0.997900	0.611100	0.668900
O1711	O171	0.161200	0.773500	0.663400
C861	C86	0.108300	0.712500	0.554300
O1721	O172	0.287900	0.550600	0.679200
O1731	O173	0.146000	0.633600	0.634800
N131	N13	0.175900	0.838500	0.584800
O1741	O174	0.052100	0.580200	0.529500
O1751	O175	0.953600	0.707700	0.633700
O1761	O176	0.154700	0.429700	0.706000
O1771	O177	0.168600	0.487600	0.633700
O1781	O178	0.376900	0.770700	0.725600
O1791	O179	0.270100	0.710100	0.595500
O1801	O180	0.170500	0.703900	0.514500
C871	C87	0.946200	0.665200	0.611500
O1811	O181	0.876500	0.594200	0.604400
C881	C88	0.110800	0.661500	0.530900
O1821	O182	0.121200	0.669100	0.708100
C891	C89	0.181600	0.799400	0.562300
H371	H37	0.236000	0.831600	0.551700
C901	C90	0.104600	0.797800	0.599300
H381	H38	0.113200	0.836500	0.614100
C911	C91	0.031500	0.670500	0.571800
H391	H39	0.981300	0.612500	0.567700
W531	W53	0.780770	0.972840	0.005750
W541	W54	0.814410	0.772480	0.001700
W551	W55	0.865880	0.925000	0.944940
W561	W56	0.918350	0.065080	0.056210
Lu141	Lu14	0.550930	0.990150	0.006120
C921	C92	0.697570	0.047730	0.927630
O1831	O183	0.771970	0.860930	0.009830
O1841	O184	0.664570	0.944430	0.002230
O1851	O185	0.827870	0.106830	0.996730
C931	C93	0.774970	0.045830	0.887630
O1861	O186	0.954570	0.883930	0.012530
O1871	O187	0.812670	0.966930	0.968130
N141	N14	0.842570	0.171830	0.918130
O1881	O188	0.718770	0.913530	0.862830
O1891	O189	0.620270	0.041030	0.967030
O1901	O190	0.821370	0.763030	0.039330
O1911	O191	0.835270	0.820930	0.967030
O1921	O192	0.043570	0.104030	0.058930
O1931	O193	0.936770	0.043430	0.928830
O1941	O194	0.837170	0.037230	0.847830
C941	C94	0.612870	0.998530	0.944830
O1951	O195	0.543170	0.927530	0.937730
C951	C95	0.777470	0.994830	0.864230
O1961	O196	0.787870	0.002430	0.041430
C961	C96	0.848270	0.132730	0.895630
H401	H40	0.902670	0.164930	0.885030
C971	C97	0.771270	0.131130	0.932630
H411	H41	0.779870	0.169830	0.947430
C981	C98	0.698170	0.003830	0.905130
H421	H42	0.647970	0.945830	0.901030
W571	W57	0.447430	0.306180	0.339090
W581	W58	0.481070	0.105820	0.335040
W591	W59	0.532540	0.258340	0.278280
W601	W60	0.585010	0.398420	0.389550
Lu151	Lu15	0.217590	0.323490	0.339450
C991	C99	0.364230	0.381070	0.260970
O1971	O197	0.438630	0.194270	0.343170
O1981	O198	0.331230	0.277770	0.335570
O1991	O199	0.494530	0.440170	0.330070
C1001	C100	0.441630	0.379170	0.220970
O2001	O200	0.621230	0.217270	0.345870
O2011	O201	0.479330	0.300270	0.301470
N151	N15	0.509230	0.505170	0.251470
O2021	O202	0.385430	0.246870	0.196170
O2031	O203	0.286930	0.374370	0.300370
O2041	O204	0.488030	0.096370	0.372670
O2051	O205	0.501930	0.154270	0.300370
O2061	O206	0.710230	0.437370	0.392270
O2071	O207	0.603430	0.376770	0.262170
O2081	O208	0.503830	0.370570	0.181170
C1011	C101	0.279530	0.331870	0.278170
O2091	O209	0.209830	0.260870	0.271070
C1021	C102	0.444130	0.328170	0.197570
O2101	O210	0.454530	0.335770	0.374770
C1031	C103	0.514930	0.466070	0.228970
H431	H43	0.569330	0.498270	0.218370
C1041	C104	0.437930	0.464470	0.265970
H441	H44	0.446530	0.503170	0.280770
C1051	C105	0.364830	0.337170	0.238470
H451	H45	0.314630	0.279170	0.234370
W611	W61	0.525410	0.885900	0.672420
W621	W62	0.291410	0.852260	0.668370
W631	W63	0.392460	0.800790	0.611610
W641	W64	0.480070	0.748320	0.722880
Lu161	Lu16	0.772560	0.115740	0.672780
C1061	C106	0.683500	0.969100	0.594300
O2111	O211	0.422300	0.894700	0.676500
O2121	O212	0.613200	0.002100	0.668900
O2131	O213	0.612300	0.838800	0.663400
C1071	C107	0.604200	0.891700	0.554300
O2141	O214	0.262700	0.712100	0.679200
O2151	O215	0.487600	0.854000	0.634800
N161	N16	0.662600	0.824100	0.584800
O2161	O216	0.528100	0.947900	0.529500
O2171	O217	0.754100	0.046400	0.633700
O2181	O218	0.275000	0.845300	0.706000
O2191	O219	0.319000	0.831400	0.633700
O2201	O220	0.393800	0.623100	0.725600
O2211	O221	0.440000	0.729900	0.595500
O2221	O222	0.533400	0.829500	0.514500
C1081	C108	0.719000	0.053800	0.611500
O2231	O223	0.717700	0.123500	0.604400
C1091	C109	0.550700	0.889200	0.530900
O2241	O224	0.547900	0.878800	0.708100
C1101	C110	0.617800	0.818400	0.562300
H461	H46	0.595600	0.764000	0.551700
C1111	C111	0.693200	0.895400	0.599300
H471	H47	0.723300	0.886800	0.614100
C1121	C112	0.639000	0.968500	0.571800
H481	H48	0.631200	0.018700	0.567700
W651	W65	0.192080	0.219230	0.005750
W661	W66	0.958080	0.185590	0.001700
W671	W67	0.059130	0.134120	0.944940
W681	W68	0.146740	0.081650	0.056210
Lu171	Lu17	0.439230	0.449070	0.006120
C1131	C113	0.350170	0.302430	0.927630
O2251	O225	0.088970	0.228030	0.009830
O2261	O226	0.279870	0.335430	0.002230
O2271	O227	0.278970	0.172130	0.996730
C1141	C114	0.270870	0.225030	0.887630
O2281	O228	0.929370	0.045430	0.012530
O2291	O229	0.154270	0.187330	0.968130
N171	N17	0.329270	0.157430	0.918130
O2301	O230	0.194770	0.281230	0.862830
O2311	O231	0.420770	0.379730	0.967030
O2321	O232	0.941670	0.178630	0.039330
O2331	O233	0.985670	0.164730	0.967030
O2341	O234	0.060470	0.956430	0.058930
O2351	O235	0.106670	0.063230	0.928830
O2361	O236	0.200070	0.162830	0.847830
C1151	C115	0.385670	0.387130	0.944830
O2371	O237	0.384370	0.456830	0.937730
C1161	C116	0.217370	0.222530	0.864230
O2381	O238	0.214570	0.212130	0.041430
C1171	C117	0.284470	0.151730	0.895630
H491	H49	0.262270	0.097330	0.885030
C1181	C118	0.359870	0.228730	0.932630
H501	H50	0.389970	0.220130	0.947430
C1191	C119	0.305670	0.301830	0.905130
H511	H51	0.297870	0.352030	0.901030
W691	W69	0.858740	0.552570	0.339090
W701	W70	0.624740	0.518930	0.335040
W711	W71	0.725790	0.467460	0.278280
W721	W72	0.813400	0.414990	0.389550
Lu181	Lu18	0.105890	0.782410	0.339450
C1201	C120	0.016830	0.635770	0.260970
O2391	O239	0.755630	0.561370	0.343170
O2401	O240	0.946530	0.668770	0.335570
O2411	O241	0.945630	0.505470	0.330070
C1211	C121	0.937530	0.558370	0.220970
O2421	O242	0.596030	0.378770	0.345870
O2431	O243	0.820930	0.520670	0.301470
N181	N18	0.995930	0.490770	0.251470
O2441	O244	0.861430	0.614570	0.196170
O2451	O245	0.087430	0.713070	0.300370
O2461	O246	0.608330	0.511970	0.372670
O2471	O247	0.652330	0.498070	0.300370
O2481	O248	0.727130	0.289770	0.392270
O2491	O249	0.773330	0.396570	0.262170
O2501	O250	0.866730	0.496170	0.181170
C1221	C122	0.052330	0.720470	0.278170
O2511	O251	0.051030	0.790170	0.271070
C1231	C123	0.884030	0.555870	0.197570
O2521	O252	0.881230	0.545470	0.374770
C1241	C124	0.951130	0.485070	0.228970
H521	H52	0.928930	0.430670	0.218370
C1251	C125	0.026530	0.562070	0.265970
H531	H53	0.056630	0.553470	0.280770
C1261	C126	0.972330	0.635170	0.238470
H541	H54	0.964530	0.685370	0.234370
O2531	O253	0.333330	0.666670	0.133700
O2541	O254	0.000000	0.000000	0.467030
O2551	O255	0.666670	0.333330	0.800370
O2561	O256	0.333330	0.666670	0.633700
O2571	O257	0.000000	0.000000	0.967030
O2581	O258	0.666670	0.333330	0.300370
