data_LIDWIG_clean_PM
_symmetry_space_group_name_H-M	'P1'
_cell_length_a	12.228000
_cell_length_b	13.654000
_cell_length_c	16.958000
_cell_angle_alpha	77.040000
_cell_angle_beta	71.340000
_cell_angle_gamma	87.900000
_symmetry_Int_Tables_number 1

loop_
_symmetry_equiv_pos_as_xyz
'x,y,z'

loop_
_atom_site_label
_atom_site_type_symbol
_atom_site_fract_x
_atom_site_fract_y
_atom_site_fract_z
Co11	Co1	0.725380	0.631920	0.884350
Co21	Co2	0.766280	0.629560	0.638270
H11	H1	0.572500	0.813500	0.906000
H21	H2	0.581200	0.978800	0.908200
H31	H3	0.925500	0.973500	0.821700
H41	H4	0.905600	0.808300	0.824900
H51	H5	0.841300	0.132700	0.846200
H61	H6	0.610600	0.128800	0.932000
H71	H7	0.868100	0.281600	0.885300
H81	H8	0.874600	0.446600	0.878700
H91	H9	0.542500	0.458600	0.929500
H101	H10	0.525100	0.292900	0.937500
H111	H11	0.944500	0.629200	0.067800
H121	H12	0.967900	0.634600	0.195000
H131	H13	0.602200	0.618100	0.174500
H141	H14	0.884800	0.641300	0.347800
H151	H15	0.541500	0.623600	0.458600
H161	H16	0.516800	0.611800	0.332700
H171	H17	0.470000	0.625100	0.676300
H181	H18	0.163300	0.645700	0.919500
H191	H19	0.349300	0.647800	0.921600
H201	H20	0.024200	0.640900	0.838400
H211	H21	0.147000	0.630700	0.590700
H221	H22	0.331300	0.626400	0.595500
H231	H23	0.588400	0.793500	0.670300
H241	H24	0.570600	0.955800	0.684900
H251	H25	0.915600	0.986100	0.596700
H261	H26	0.921900	0.819900	0.587600
H271	H27	0.657900	0.118400	0.674000
H281	H28	0.888200	0.139900	0.609100
H291	H29	0.637300	0.260800	0.719100
H301	H30	0.626500	0.426000	0.726300
H311	H31	0.944600	0.477600	0.578600
H321	H32	0.962900	0.313100	0.567300
C11	C1	0.644500	0.845600	0.890400
C21	C2	0.649300	0.945100	0.891800
C31	C3	0.755300	0.996500	0.868800
C41	C4	0.852300	0.942700	0.841100
C51	C5	0.838900	0.843500	0.842700
C61	C6	0.767600	0.102700	0.871400
C71	C7	0.684000	0.159300	0.905900
C81	C8	0.695600	0.265600	0.907000
C91	C9	0.800300	0.316700	0.892700
C101	C10	0.803300	0.415300	0.889600
C111	C11	0.609400	0.422100	0.919200
C121	C12	0.598000	0.322800	0.923600
C131	C13	0.754900	0.620300	0.026700
C141	C14	0.768200	0.623800	0.110200
C151	C15	0.880300	0.628500	0.115700
C161	C16	0.893800	0.632100	0.191400
C171	C17	0.798600	0.632100	0.264200
C181	C18	0.686000	0.624100	0.259800
C191	C19	0.675500	0.621500	0.179300
C201	C20	0.811100	0.636500	0.344000
C211	C21	0.717900	0.634000	0.414700
C221	C22	0.605500	0.625300	0.410400
C231	C23	0.591100	0.619300	0.334700
C241	C24	0.731100	0.637900	0.499500
C251	C25	0.549900	0.628000	0.802100
C261	C26	0.429400	0.632900	0.798200
C271	C27	0.408300	0.629600	0.724500
C281	C28	0.294300	0.632800	0.720000
C291	C29	0.200700	0.638600	0.793600
C301	C30	0.224200	0.642700	0.870400
C311	C31	0.335000	0.642100	0.872100
C321	C32	0.086300	0.638600	0.789900
C331	C33	0.067100	0.635300	0.715400
C341	C34	0.160500	0.631800	0.641500
C351	C35	0.270400	0.629800	0.644500
C361	C36	0.945100	0.635800	0.713000
C371	C37	0.655600	0.832300	0.656600
C381	C38	0.643500	0.930600	0.664900
C391	C39	0.741000	0.990600	0.643200
C401	C40	0.847300	0.947900	0.613100
C411	C41	0.850300	0.847200	0.607900
C421	C42	0.732100	0.096700	0.651500
C431	C43	0.813700	0.161000	0.631300
C441	C44	0.802100	0.266000	0.639800
C451	C45	0.701300	0.304000	0.688700
C461	C46	0.694800	0.404200	0.692600
C471	C47	0.880600	0.433800	0.606200
C481	C48	0.892700	0.333700	0.599500
N11	N1	0.738400	0.793100	0.867600
N21	N2	0.709800	0.471900	0.901200
N31	N3	0.756400	0.788400	0.630300
N41	N4	0.782200	0.470700	0.650200
O11	O1	0.842500	0.617400	0.963510
O21	O2	0.654800	0.623900	0.019310
O31	O3	0.646200	0.632700	0.564000
O41	O4	0.833000	0.647800	0.502160
O51	O5	0.566600	0.650300	0.866620
O61	O6	0.627100	0.600200	0.744000
O71	O7	0.863600	0.639900	0.778850
O81	O8	0.930700	0.632700	0.643660
Co31	Co3	0.274620	0.368080	0.115650
Co41	Co4	0.233720	0.370440	0.361730
H331	H33	0.427500	0.186500	0.094000
H341	H34	0.418800	0.021200	0.091800
H351	H35	0.074500	0.026500	0.178300
H361	H36	0.094400	0.191700	0.175100
H371	H37	0.158700	0.867300	0.153800
H381	H38	0.389400	0.871200	0.068000
H391	H39	0.131900	0.718400	0.114700
H401	H40	0.125400	0.553400	0.121300
H411	H41	0.457500	0.541400	0.070500
H421	H42	0.474900	0.707100	0.062500
H431	H43	0.055500	0.370800	0.932200
H441	H44	0.032100	0.365400	0.805000
H451	H45	0.397800	0.381900	0.825500
H461	H46	0.115200	0.358700	0.652200
H471	H47	0.458500	0.376400	0.541400
H481	H48	0.483200	0.388200	0.667300
H491	H49	0.530000	0.374900	0.323700
H501	H50	0.836700	0.354300	0.080500
H511	H51	0.650700	0.352200	0.078400
H521	H52	0.975800	0.359100	0.161600
H531	H53	0.853000	0.369300	0.409300
H541	H54	0.668700	0.373600	0.404500
H551	H55	0.411600	0.206500	0.329700
H561	H56	0.429400	0.044200	0.315100
H571	H57	0.084400	0.013900	0.403300
H581	H58	0.078100	0.180100	0.412400
H591	H59	0.342100	0.881600	0.326000
H601	H60	0.111800	0.860100	0.390900
H611	H61	0.362700	0.739200	0.280900
H621	H62	0.373500	0.574000	0.273700
H631	H63	0.055400	0.522400	0.421400
H641	H64	0.037100	0.686900	0.432700
C491	C49	0.355500	0.154400	0.109600
C501	C50	0.350700	0.054900	0.108200
C511	C51	0.244700	0.003500	0.131200
C521	C52	0.147700	0.057300	0.158900
C531	C53	0.161100	0.156500	0.157300
C541	C54	0.232400	0.897300	0.128600
C551	C55	0.316000	0.840700	0.094100
C561	C56	0.304400	0.734400	0.093000
C571	C57	0.199700	0.683300	0.107300
C581	C58	0.196700	0.584700	0.110400
C591	C59	0.390600	0.577900	0.080800
C601	C60	0.402000	0.677200	0.076400
C611	C61	0.245100	0.379700	0.973300
C621	C62	0.231800	0.376200	0.889800
C631	C63	0.119700	0.371500	0.884300
C641	C64	0.106200	0.367900	0.808600
C651	C65	0.201400	0.367900	0.735800
C661	C66	0.314000	0.375900	0.740200
C671	C67	0.324500	0.378500	0.820700
C681	C68	0.188900	0.363500	0.656000
C691	C69	0.282100	0.366000	0.585300
C701	C70	0.394500	0.374700	0.589600
C711	C71	0.408900	0.380700	0.665300
C721	C72	0.268900	0.362100	0.500500
C731	C73	0.450100	0.372000	0.197900
C741	C74	0.570600	0.367100	0.201800
C751	C75	0.591700	0.370400	0.275500
C761	C76	0.705700	0.367200	0.280000
C771	C77	0.799300	0.361400	0.206400
C781	C78	0.775800	0.357300	0.129600
C791	C79	0.665000	0.357900	0.127900
C801	C80	0.913700	0.361400	0.210100
C811	C81	0.932900	0.364700	0.284600
C821	C82	0.839500	0.368200	0.358500
C831	C83	0.729600	0.370200	0.355500
C841	C84	0.054900	0.364200	0.287000
C851	C85	0.344400	0.167700	0.343400
C861	C86	0.356500	0.069400	0.335100
C871	C87	0.259000	0.009400	0.356800
C881	C88	0.152700	0.052100	0.386900
C891	C89	0.149700	0.152800	0.392100
C901	C90	0.267900	0.903300	0.348500
C911	C91	0.186300	0.839000	0.368700
C921	C92	0.197900	0.734000	0.360200
C931	C93	0.298700	0.696000	0.311300
C941	C94	0.305200	0.595800	0.307400
C951	C95	0.119400	0.566200	0.393800
C961	C96	0.107300	0.666300	0.400500
N51	N5	0.261600	0.206900	0.132400
N61	N6	0.290200	0.528100	0.098800
N71	N7	0.243600	0.211600	0.369700
N81	N8	0.217800	0.529300	0.349800
O91	O9	0.157500	0.382600	0.036490
O101	O10	0.345200	0.376100	0.980690
O111	O11	0.353800	0.367300	0.436000
O121	O12	0.167000	0.352200	0.497840
O131	O13	0.433400	0.349700	0.133380
O141	O14	0.372900	0.399800	0.256000
O151	O15	0.136400	0.360100	0.221150
O161	O16	0.069300	0.367300	0.356340
