data_LIKDOA_clean_PM
_symmetry_space_group_name_H-M	'P1'
_cell_length_a	33.616700
_cell_length_b	33.616700
_cell_length_c	33.616700
_cell_angle_alpha	90.000000
_cell_angle_beta	90.000000
_cell_angle_gamma	90.000000
_symmetry_Int_Tables_number 1

loop_
_symmetry_equiv_pos_as_xyz
'x,y,z'

loop_
_atom_site_label
_atom_site_type_symbol
_atom_site_fract_x
_atom_site_fract_y
_atom_site_fract_z
O11	O1	0.960600	0.244660	0.199900
C11	C1	0.892700	0.157370	0.209800
O21	O2	0.960600	0.744660	0.699900
C21	C2	0.892700	0.657370	0.709800
O31	O3	0.460600	0.244660	0.699900
C31	C3	0.392700	0.157370	0.709800
O41	O4	0.460600	0.744660	0.199900
C41	C4	0.392700	0.657370	0.209800
O51	O5	0.039400	0.755340	0.199900
C51	C5	0.107300	0.842630	0.209800
O61	O6	0.039400	0.255340	0.699900
C61	C6	0.107300	0.342630	0.709800
O71	O7	0.539400	0.755340	0.699900
C71	C7	0.607300	0.842630	0.709800
O81	O8	0.539400	0.255340	0.199900
C81	C8	0.607300	0.342630	0.209800
O91	O9	0.039400	0.244660	0.800100
C91	C9	0.107300	0.157370	0.790200
O101	O10	0.039400	0.744660	0.300100
C101	C10	0.107300	0.657370	0.290200
O111	O11	0.539400	0.244660	0.300100
C111	C11	0.607300	0.157370	0.290200
O121	O12	0.539400	0.744660	0.800100
C121	C12	0.607300	0.657370	0.790200
O131	O13	0.960600	0.755340	0.800100
C131	C13	0.892700	0.842630	0.790200
O141	O14	0.960600	0.255340	0.300100
C141	C14	0.892700	0.342630	0.290200
O151	O15	0.460600	0.755340	0.300100
C151	C15	0.392700	0.842630	0.290200
O161	O16	0.460600	0.255340	0.800100
C161	C16	0.392700	0.342630	0.790200
O171	O17	0.199900	0.960600	0.244660
C171	C17	0.209800	0.892700	0.157370
O181	O18	0.199900	0.460600	0.744660
C181	C18	0.209800	0.392700	0.657370
O191	O19	0.699900	0.960600	0.744660
C191	C19	0.709800	0.892700	0.657370
O201	O20	0.699900	0.460600	0.244660
C201	C20	0.709800	0.392700	0.157370
O211	O21	0.199900	0.039400	0.755340
C211	C21	0.209800	0.107300	0.842630
O221	O22	0.199900	0.539400	0.255340
C221	C22	0.209800	0.607300	0.342630
O231	O23	0.699900	0.039400	0.255340
C231	C23	0.709800	0.107300	0.342630
O241	O24	0.699900	0.539400	0.755340
C241	C24	0.709800	0.607300	0.842630
O251	O25	0.800100	0.039400	0.244660
C251	C25	0.790200	0.107300	0.157370
O261	O26	0.800100	0.539400	0.744660
C261	C26	0.790200	0.607300	0.657370
O271	O27	0.300100	0.039400	0.744660
C271	C27	0.290200	0.107300	0.657370
O281	O28	0.300100	0.539400	0.244660
C281	C28	0.290200	0.607300	0.157370
O291	O29	0.800100	0.960600	0.755340
C291	C29	0.790200	0.892700	0.842630
O301	O30	0.800100	0.460600	0.255340
C301	C30	0.790200	0.392700	0.342630
O311	O31	0.300100	0.960600	0.255340
C311	C31	0.290200	0.892700	0.342630
O321	O32	0.300100	0.460600	0.755340
C321	C32	0.290200	0.392700	0.842630
O331	O33	0.244660	0.199900	0.960600
C331	C33	0.157370	0.209800	0.892700
O341	O34	0.244660	0.699900	0.460600
C341	C34	0.157370	0.709800	0.392700
O351	O35	0.744660	0.199900	0.460600
C351	C35	0.657370	0.209800	0.392700
O361	O36	0.744660	0.699900	0.960600
C361	C36	0.657370	0.709800	0.892700
O371	O37	0.755340	0.199900	0.039400
C371	C37	0.842630	0.209800	0.107300
O381	O38	0.755340	0.699900	0.539400
C381	C38	0.842630	0.709800	0.607300
O391	O39	0.255340	0.199900	0.539400
C391	C39	0.342630	0.209800	0.607300
O401	O40	0.255340	0.699900	0.039400
C401	C40	0.342630	0.709800	0.107300
O411	O41	0.244660	0.800100	0.039400
C411	C41	0.157370	0.790200	0.107300
O421	O42	0.244660	0.300100	0.539400
C421	C42	0.157370	0.290200	0.607300
O431	O43	0.744660	0.800100	0.539400
C431	C43	0.657370	0.790200	0.607300
O441	O44	0.744660	0.300100	0.039400
C441	C44	0.657370	0.290200	0.107300
O451	O45	0.755340	0.800100	0.960600
C451	C45	0.842630	0.790200	0.892700
O461	O46	0.755340	0.300100	0.460600
C461	C46	0.842630	0.290200	0.392700
O471	O47	0.255340	0.800100	0.460600
C471	C47	0.342630	0.790200	0.392700
O481	O48	0.255340	0.300100	0.960600
C481	C48	0.342630	0.290200	0.892700
O491	O49	0.244660	0.960600	0.800100
C491	C49	0.157370	0.892700	0.790200
O501	O50	0.244660	0.460600	0.300100
C501	C50	0.157370	0.392700	0.290200
O511	O51	0.744660	0.960600	0.300100
C511	C51	0.657370	0.892700	0.290200
O521	O52	0.744660	0.460600	0.800100
C521	C52	0.657370	0.392700	0.790200
O531	O53	0.755340	0.039400	0.800100
C531	C53	0.842630	0.107300	0.790200
O541	O54	0.755340	0.539400	0.300100
C541	C54	0.842630	0.607300	0.290200
O551	O55	0.255340	0.039400	0.300100
C551	C55	0.342630	0.107300	0.290200
O561	O56	0.255340	0.539400	0.800100
C561	C56	0.342630	0.607300	0.790200
O571	O57	0.244660	0.039400	0.199900
C571	C57	0.157370	0.107300	0.209800
O581	O58	0.244660	0.539400	0.699900
C581	C58	0.157370	0.607300	0.709800
O591	O59	0.744660	0.039400	0.699900
C591	C59	0.657370	0.107300	0.709800
O601	O60	0.744660	0.539400	0.199900
C601	C60	0.657370	0.607300	0.209800
O611	O61	0.755340	0.960600	0.199900
C611	C61	0.842630	0.892700	0.209800
O621	O62	0.755340	0.460600	0.699900
C621	C62	0.842630	0.392700	0.709800
O631	O63	0.255340	0.960600	0.699900
C631	C63	0.342630	0.892700	0.709800
O641	O64	0.255340	0.460600	0.199900
C641	C64	0.342630	0.392700	0.209800
O651	O65	0.960600	0.199900	0.755340
C651	C65	0.892700	0.209800	0.842630
O661	O66	0.960600	0.699900	0.255340
C661	C66	0.892700	0.709800	0.342630
O671	O67	0.460600	0.199900	0.255340
C671	C67	0.392700	0.209800	0.342630
O681	O68	0.460600	0.699900	0.755340
C681	C68	0.392700	0.709800	0.842630
O691	O69	0.039400	0.199900	0.244660
C691	C69	0.107300	0.209800	0.157370
O701	O70	0.039400	0.699900	0.744660
C701	C70	0.107300	0.709800	0.657370
O711	O71	0.539400	0.199900	0.744660
C711	C71	0.607300	0.209800	0.657370
O721	O72	0.539400	0.699900	0.244660
C721	C72	0.607300	0.709800	0.157370
O731	O73	0.039400	0.800100	0.755340
C731	C73	0.107300	0.790200	0.842630
O741	O74	0.039400	0.300100	0.255340
C741	C74	0.107300	0.290200	0.342630
O751	O75	0.539400	0.800100	0.255340
C751	C75	0.607300	0.790200	0.342630
O761	O76	0.539400	0.300100	0.755340
C761	C76	0.607300	0.290200	0.842630
O771	O77	0.960600	0.800100	0.244660
C771	C77	0.892700	0.790200	0.157370
O781	O78	0.960600	0.300100	0.744660
C781	C78	0.892700	0.290200	0.657370
O791	O79	0.460600	0.800100	0.744660
C791	C79	0.392700	0.790200	0.657370
O801	O80	0.460600	0.300100	0.244660
C801	C80	0.392700	0.290200	0.157370
O811	O81	0.199900	0.244660	0.039400
C811	C81	0.209800	0.157370	0.107300
O821	O82	0.199900	0.744660	0.539400
C821	C82	0.209800	0.657370	0.607300
O831	O83	0.699900	0.244660	0.539400
C831	C83	0.709800	0.157370	0.607300
O841	O84	0.699900	0.744660	0.039400
C841	C84	0.709800	0.657370	0.107300
O851	O85	0.199900	0.755340	0.960600
C851	C85	0.209800	0.842630	0.892700
O861	O86	0.199900	0.255340	0.460600
C861	C86	0.209800	0.342630	0.392700
O871	O87	0.699900	0.755340	0.460600
C871	C87	0.709800	0.842630	0.392700
O881	O88	0.699900	0.255340	0.960600
C881	C88	0.709800	0.342630	0.892700
O891	O89	0.800100	0.244660	0.960600
C891	C89	0.790200	0.157370	0.892700
O901	O90	0.800100	0.744660	0.460600
C901	C90	0.790200	0.657370	0.392700
O911	O91	0.300100	0.244660	0.460600
C911	C91	0.290200	0.157370	0.392700
O921	O92	0.300100	0.744660	0.960600
C921	C92	0.290200	0.657370	0.892700
O931	O93	0.800100	0.755340	0.039400
C931	C93	0.790200	0.842630	0.107300
O941	O94	0.800100	0.255340	0.539400
C941	C94	0.790200	0.342630	0.607300
O951	O95	0.300100	0.755340	0.539400
C951	C95	0.290200	0.842630	0.607300
O961	O96	0.300100	0.255340	0.039400
C961	C96	0.290200	0.342630	0.107300
O971	O97	0.039400	0.755340	0.800100
C971	C97	0.107300	0.842630	0.790200
O981	O98	0.039400	0.255340	0.300100
C981	C98	0.107300	0.342630	0.290200
O991	O99	0.539400	0.755340	0.300100
C991	C99	0.607300	0.842630	0.290200
O1001	O100	0.539400	0.255340	0.800100
C1001	C100	0.607300	0.342630	0.790200
O1011	O101	0.960600	0.244660	0.800100
C1011	C101	0.892700	0.157370	0.790200
O1021	O102	0.960600	0.744660	0.300100
C1021	C102	0.892700	0.657370	0.290200
O1031	O103	0.460600	0.244660	0.300100
C1031	C103	0.392700	0.157370	0.290200
O1041	O104	0.460600	0.744660	0.800100
C1041	C104	0.392700	0.657370	0.790200
O1051	O105	0.960600	0.755340	0.199900
C1051	C105	0.892700	0.842630	0.209800
O1061	O106	0.960600	0.255340	0.699900
C1061	C106	0.892700	0.342630	0.709800
O1071	O107	0.460600	0.755340	0.699900
C1071	C107	0.392700	0.842630	0.709800
O1081	O108	0.460600	0.255340	0.199900
C1081	C108	0.392700	0.342630	0.209800
O1091	O109	0.039400	0.244660	0.199900
C1091	C109	0.107300	0.157370	0.209800
O1101	O110	0.039400	0.744660	0.699900
C1101	C110	0.107300	0.657370	0.709800
O1111	O111	0.539400	0.244660	0.699900
C1111	C111	0.607300	0.157370	0.709800
O1121	O112	0.539400	0.744660	0.199900
C1121	C112	0.607300	0.657370	0.209800
O1131	O113	0.800100	0.039400	0.755340
C1131	C113	0.790200	0.107300	0.842630
O1141	O114	0.800100	0.539400	0.255340
C1141	C114	0.790200	0.607300	0.342630
O1151	O115	0.300100	0.039400	0.255340
C1151	C115	0.290200	0.107300	0.342630
O1161	O116	0.300100	0.539400	0.755340
C1161	C116	0.290200	0.607300	0.842630
O1171	O117	0.800100	0.960600	0.244660
C1171	C117	0.790200	0.892700	0.157370
O1181	O118	0.800100	0.460600	0.744660
C1181	C118	0.790200	0.392700	0.657370
O1191	O119	0.300100	0.960600	0.744660
C1191	C119	0.290200	0.892700	0.657370
O1201	O120	0.300100	0.460600	0.244660
C1201	C120	0.290200	0.392700	0.157370
O1211	O121	0.199900	0.960600	0.755340
C1211	C121	0.209800	0.892700	0.842630
O1221	O122	0.199900	0.460600	0.255340
C1221	C122	0.209800	0.392700	0.342630
O1231	O123	0.699900	0.960600	0.255340
C1231	C123	0.709800	0.892700	0.342630
O1241	O124	0.699900	0.460600	0.755340
C1241	C124	0.709800	0.392700	0.842630
O1251	O125	0.199900	0.039400	0.244660
C1251	C125	0.209800	0.107300	0.157370
O1261	O126	0.199900	0.539400	0.744660
C1261	C126	0.209800	0.607300	0.657370
O1271	O127	0.699900	0.039400	0.744660
C1271	C127	0.709800	0.107300	0.657370
O1281	O128	0.699900	0.539400	0.244660
C1281	C128	0.709800	0.607300	0.157370
O1291	O129	0.755340	0.800100	0.039400
C1291	C129	0.842630	0.790200	0.107300
O1301	O130	0.755340	0.300100	0.539400
C1301	C130	0.842630	0.290200	0.607300
O1311	O131	0.255340	0.800100	0.539400
C1311	C131	0.342630	0.790200	0.607300
O1321	O132	0.255340	0.300100	0.039400
C1321	C132	0.342630	0.290200	0.107300
O1331	O133	0.244660	0.800100	0.960600
C1331	C133	0.157370	0.790200	0.892700
O1341	O134	0.244660	0.300100	0.460600
C1341	C134	0.157370	0.290200	0.392700
O1351	O135	0.744660	0.800100	0.460600
C1351	C135	0.657370	0.790200	0.392700
O1361	O136	0.744660	0.300100	0.960600
C1361	C136	0.657370	0.290200	0.892700
O1371	O137	0.755340	0.199900	0.960600
C1371	C137	0.842630	0.209800	0.892700
O1381	O138	0.755340	0.699900	0.460600
C1381	C138	0.842630	0.709800	0.392700
O1391	O139	0.255340	0.199900	0.460600
C1391	C139	0.342630	0.209800	0.392700
O1401	O140	0.255340	0.699900	0.960600
C1401	C140	0.342630	0.709800	0.892700
O1411	O141	0.244660	0.199900	0.039400
C1411	C141	0.157370	0.209800	0.107300
O1421	O142	0.244660	0.699900	0.539400
C1421	C142	0.157370	0.709800	0.607300
O1431	O143	0.744660	0.199900	0.539400
C1431	C143	0.657370	0.209800	0.607300
O1441	O144	0.744660	0.699900	0.039400
C1441	C144	0.657370	0.709800	0.107300
O1451	O145	0.755340	0.039400	0.199900
C1451	C145	0.842630	0.107300	0.209800
O1461	O146	0.755340	0.539400	0.699900
C1461	C146	0.842630	0.607300	0.709800
O1471	O147	0.255340	0.039400	0.699900
C1471	C147	0.342630	0.107300	0.709800
O1481	O148	0.255340	0.539400	0.199900
C1481	C148	0.342630	0.607300	0.209800
O1491	O149	0.244660	0.960600	0.199900
C1491	C149	0.157370	0.892700	0.209800
O1501	O150	0.244660	0.460600	0.699900
C1501	C150	0.157370	0.392700	0.709800
O1511	O151	0.744660	0.960600	0.699900
C1511	C151	0.657370	0.892700	0.709800
O1521	O152	0.744660	0.460600	0.199900
C1521	C152	0.657370	0.392700	0.209800
O1531	O153	0.755340	0.960600	0.800100
C1531	C153	0.842630	0.892700	0.790200
O1541	O154	0.755340	0.460600	0.300100
C1541	C154	0.842630	0.392700	0.290200
O1551	O155	0.255340	0.960600	0.300100
C1551	C155	0.342630	0.892700	0.290200
O1561	O156	0.255340	0.460600	0.800100
C1561	C156	0.342630	0.392700	0.790200
O1571	O157	0.244660	0.039400	0.800100
C1571	C157	0.157370	0.107300	0.790200
O1581	O158	0.244660	0.539400	0.300100
C1581	C158	0.157370	0.607300	0.290200
O1591	O159	0.744660	0.039400	0.300100
C1591	C159	0.657370	0.107300	0.290200
O1601	O160	0.744660	0.539400	0.800100
C1601	C160	0.657370	0.607300	0.790200
O1611	O161	0.039400	0.800100	0.244660
C1611	C161	0.107300	0.790200	0.157370
O1621	O162	0.039400	0.300100	0.744660
C1621	C162	0.107300	0.290200	0.657370
O1631	O163	0.539400	0.800100	0.744660
C1631	C163	0.607300	0.790200	0.657370
O1641	O164	0.539400	0.300100	0.244660
C1641	C164	0.607300	0.290200	0.157370
O1651	O165	0.960600	0.800100	0.755340
C1651	C165	0.892700	0.790200	0.842630
O1661	O166	0.960600	0.300100	0.255340
C1661	C166	0.892700	0.290200	0.342630
O1671	O167	0.460600	0.800100	0.255340
C1671	C167	0.392700	0.790200	0.342630
O1681	O168	0.460600	0.300100	0.755340
C1681	C168	0.392700	0.290200	0.842630
O1691	O169	0.960600	0.199900	0.244660
C1691	C169	0.892700	0.209800	0.157370
O1701	O170	0.960600	0.699900	0.744660
C1701	C170	0.892700	0.709800	0.657370
O1711	O171	0.460600	0.199900	0.744660
C1711	C171	0.392700	0.209800	0.657370
O1721	O172	0.460600	0.699900	0.244660
C1721	C172	0.392700	0.709800	0.157370
O1731	O173	0.039400	0.199900	0.755340
C1731	C173	0.107300	0.209800	0.842630
O1741	O174	0.039400	0.699900	0.255340
C1741	C174	0.107300	0.709800	0.342630
O1751	O175	0.539400	0.199900	0.255340
C1751	C175	0.607300	0.209800	0.342630
O1761	O176	0.539400	0.699900	0.755340
C1761	C176	0.607300	0.709800	0.842630
O1771	O177	0.800100	0.755340	0.960600
C1771	C177	0.790200	0.842630	0.892700
O1781	O178	0.800100	0.255340	0.460600
C1781	C178	0.790200	0.342630	0.392700
O1791	O179	0.300100	0.755340	0.460600
C1791	C179	0.290200	0.842630	0.392700
O1801	O180	0.300100	0.255340	0.960600
C1801	C180	0.290200	0.342630	0.892700
O1811	O181	0.800100	0.244660	0.039400
C1811	C181	0.790200	0.157370	0.107300
O1821	O182	0.800100	0.744660	0.539400
C1821	C182	0.790200	0.657370	0.607300
O1831	O183	0.300100	0.244660	0.539400
C1831	C183	0.290200	0.157370	0.607300
O1841	O184	0.300100	0.744660	0.039400
C1841	C184	0.290200	0.657370	0.107300
O1851	O185	0.199900	0.755340	0.039400
C1851	C185	0.209800	0.842630	0.107300
O1861	O186	0.199900	0.255340	0.539400
C1861	C186	0.209800	0.342630	0.607300
O1871	O187	0.699900	0.755340	0.539400
C1871	C187	0.709800	0.842630	0.607300
O1881	O188	0.699900	0.255340	0.039400
C1881	C188	0.709800	0.342630	0.107300
O1891	O189	0.199900	0.244660	0.960600
C1891	C189	0.209800	0.157370	0.892700
O1901	O190	0.199900	0.744660	0.460600
C1901	C190	0.209800	0.657370	0.392700
O1911	O191	0.699900	0.244660	0.460600
C1911	C191	0.709800	0.157370	0.392700
O1921	O192	0.699900	0.744660	0.960600
C1921	C192	0.709800	0.657370	0.892700
Cu11	Cu1	0.000000	0.276160	0.223840
Cu21	Cu2	0.500000	0.276160	0.723840
Cu31	Cu3	0.000000	0.723840	0.223840
Cu41	Cu4	0.500000	0.723840	0.723840
Cu51	Cu5	0.500000	0.223840	0.223840
Cu61	Cu6	0.000000	0.276160	0.776160
Cu71	Cu7	0.500000	0.276160	0.276160
Cu81	Cu8	0.000000	0.723840	0.776160
Cu91	Cu9	0.000000	0.223840	0.276160
Cu101	Cu10	0.500000	0.723840	0.276160
Cu111	Cu11	0.223840	0.000000	0.276160
Cu121	Cu12	0.223840	0.500000	0.776160
Cu131	Cu13	0.223840	0.000000	0.723840
Cu141	Cu14	0.223840	0.500000	0.223840
Cu151	Cu15	0.776160	0.000000	0.276160
Cu161	Cu16	0.776160	0.500000	0.776160
Cu171	Cu17	0.276160	0.500000	0.276160
Cu181	Cu18	0.776160	0.000000	0.723840
Cu191	Cu19	0.776160	0.500000	0.223840
Cu201	Cu20	0.276160	0.000000	0.223840
Cu211	Cu21	0.276160	0.223840	0.000000
Cu221	Cu22	0.276160	0.723840	0.500000
Cu231	Cu23	0.723840	0.223840	0.000000
Cu241	Cu24	0.723840	0.723840	0.500000
Cu251	Cu25	0.223840	0.223840	0.500000
Cu261	Cu26	0.276160	0.776160	0.000000
Cu271	Cu27	0.276160	0.276160	0.500000
Cu281	Cu28	0.723840	0.776160	0.000000
Cu291	Cu29	0.723840	0.276160	0.500000
Cu301	Cu30	0.223840	0.276160	0.000000
Cu311	Cu31	0.276160	0.000000	0.776160
Cu321	Cu32	0.723840	0.000000	0.776160
Cu331	Cu33	0.723840	0.500000	0.276160
Cu341	Cu34	0.276160	0.500000	0.723840
Cu351	Cu35	0.723840	0.000000	0.223840
Cu361	Cu36	0.723840	0.500000	0.723840
Cu371	Cu37	0.000000	0.223840	0.723840
Cu381	Cu38	0.500000	0.223840	0.776160
Cu391	Cu39	0.000000	0.776160	0.723840
Cu401	Cu40	0.500000	0.776160	0.223840
Cu411	Cu41	0.000000	0.776160	0.276160
Cu421	Cu42	0.500000	0.776160	0.776160
Cu431	Cu43	0.223840	0.776160	0.500000
Cu441	Cu44	0.223840	0.723840	0.000000
Cu451	Cu45	0.776160	0.276160	0.000000
Cu461	Cu46	0.776160	0.776160	0.500000
Cu471	Cu47	0.776160	0.723840	0.000000
Cu481	Cu48	0.776160	0.223840	0.500000
C1931	C193	0.942400	0.213500	0.213500
C1941	C194	0.908000	0.193540	0.193540
C1951	C195	0.942400	0.713500	0.713500
C1961	C196	0.908000	0.693540	0.693540
C1971	C197	0.442400	0.213500	0.713500
C1981	C198	0.408000	0.193540	0.693540
C1991	C199	0.442400	0.713500	0.213500
C2001	C200	0.408000	0.693540	0.193540
C2011	C201	0.057600	0.786500	0.213500
C2021	C202	0.092000	0.806460	0.193540
C2031	C203	0.057600	0.286500	0.713500
C2041	C204	0.092000	0.306460	0.693540
C2051	C205	0.557600	0.786500	0.713500
C2061	C206	0.592000	0.806460	0.693540
C2071	C207	0.557600	0.286500	0.213500
C2081	C208	0.592000	0.306460	0.193540
C2091	C209	0.057600	0.213500	0.786500
C2101	C210	0.092000	0.193540	0.806460
C2111	C211	0.057600	0.713500	0.286500
C2121	C212	0.092000	0.693540	0.306460
C2131	C213	0.557600	0.213500	0.286500
C2141	C214	0.592000	0.193540	0.306460
C2151	C215	0.557600	0.713500	0.786500
C2161	C216	0.592000	0.693540	0.806460
C2171	C217	0.942400	0.786500	0.786500
C2181	C218	0.908000	0.806460	0.806460
C2191	C219	0.942400	0.286500	0.286500
C2201	C220	0.908000	0.306460	0.306460
C2211	C221	0.442400	0.786500	0.286500
C2221	C222	0.408000	0.806460	0.306460
C2231	C223	0.442400	0.286500	0.786500
C2241	C224	0.408000	0.306460	0.806460
C2251	C225	0.213500	0.942400	0.213500
C2261	C226	0.193540	0.908000	0.193540
C2271	C227	0.213500	0.442400	0.713500
C2281	C228	0.193540	0.408000	0.693540
C2291	C229	0.713500	0.942400	0.713500
C2301	C230	0.693540	0.908000	0.693540
C2311	C231	0.713500	0.442400	0.213500
C2321	C232	0.693540	0.408000	0.193540
C2331	C233	0.213500	0.057600	0.786500
C2341	C234	0.193540	0.092000	0.806460
C2351	C235	0.213500	0.557600	0.286500
C2361	C236	0.193540	0.592000	0.306460
C2371	C237	0.713500	0.057600	0.286500
C2381	C238	0.693540	0.092000	0.306460
C2391	C239	0.713500	0.557600	0.786500
C2401	C240	0.693540	0.592000	0.806460
C2411	C241	0.786500	0.057600	0.213500
C2421	C242	0.806460	0.092000	0.193540
C2431	C243	0.786500	0.557600	0.713500
C2441	C244	0.806460	0.592000	0.693540
C2451	C245	0.286500	0.057600	0.713500
C2461	C246	0.306460	0.092000	0.693540
C2471	C247	0.286500	0.557600	0.213500
C2481	C248	0.306460	0.592000	0.193540
C2491	C249	0.786500	0.942400	0.786500
C2501	C250	0.806460	0.908000	0.806460
C2511	C251	0.786500	0.442400	0.286500
C2521	C252	0.806460	0.408000	0.306460
C2531	C253	0.286500	0.942400	0.286500
C2541	C254	0.306460	0.908000	0.306460
C2551	C255	0.286500	0.442400	0.786500
C2561	C256	0.306460	0.408000	0.806460
C2571	C257	0.213500	0.213500	0.942400
C2581	C258	0.193540	0.193540	0.908000
C2591	C259	0.213500	0.713500	0.442400
C2601	C260	0.193540	0.693540	0.408000
C2611	C261	0.713500	0.213500	0.442400
C2621	C262	0.693540	0.193540	0.408000
C2631	C263	0.713500	0.713500	0.942400
C2641	C264	0.693540	0.693540	0.908000
C2651	C265	0.786500	0.213500	0.057600
C2661	C266	0.806460	0.193540	0.092000
C2671	C267	0.786500	0.713500	0.557600
C2681	C268	0.806460	0.693540	0.592000
C2691	C269	0.286500	0.213500	0.557600
C2701	C270	0.306460	0.193540	0.592000
C2711	C271	0.286500	0.713500	0.057600
C2721	C272	0.306460	0.693540	0.092000
C2731	C273	0.213500	0.786500	0.057600
C2741	C274	0.193540	0.806460	0.092000
C2751	C275	0.213500	0.286500	0.557600
C2761	C276	0.193540	0.306460	0.592000
C2771	C277	0.713500	0.786500	0.557600
C2781	C278	0.693540	0.806460	0.592000
C2791	C279	0.713500	0.286500	0.057600
C2801	C280	0.693540	0.306460	0.092000
C2811	C281	0.786500	0.786500	0.942400
C2821	C282	0.806460	0.806460	0.908000
C2831	C283	0.786500	0.286500	0.442400
C2841	C284	0.806460	0.306460	0.408000
C2851	C285	0.286500	0.786500	0.442400
C2861	C286	0.306460	0.806460	0.408000
C2871	C287	0.286500	0.286500	0.942400
C2881	C288	0.306460	0.306460	0.908000
C2891	C289	0.213500	0.942400	0.786500
C2901	C290	0.193540	0.908000	0.806460
C2911	C291	0.213500	0.442400	0.286500
C2921	C292	0.193540	0.408000	0.306460
C2931	C293	0.713500	0.942400	0.286500
C2941	C294	0.693540	0.908000	0.306460
C2951	C295	0.713500	0.442400	0.786500
C2961	C296	0.693540	0.408000	0.806460
C2971	C297	0.786500	0.057600	0.786500
C2981	C298	0.806460	0.092000	0.806460
C2991	C299	0.786500	0.557600	0.286500
C3001	C300	0.806460	0.592000	0.306460
C3011	C301	0.286500	0.057600	0.286500
C3021	C302	0.306460	0.092000	0.306460
C3031	C303	0.286500	0.557600	0.786500
C3041	C304	0.306460	0.592000	0.806460
C3051	C305	0.213500	0.057600	0.213500
C3061	C306	0.193540	0.092000	0.193540
C3071	C307	0.213500	0.557600	0.713500
C3081	C308	0.193540	0.592000	0.693540
C3091	C309	0.713500	0.057600	0.713500
C3101	C310	0.693540	0.092000	0.693540
C3111	C311	0.713500	0.557600	0.213500
C3121	C312	0.693540	0.592000	0.193540
C3131	C313	0.786500	0.942400	0.213500
C3141	C314	0.806460	0.908000	0.193540
C3151	C315	0.786500	0.442400	0.713500
C3161	C316	0.806460	0.408000	0.693540
C3171	C317	0.286500	0.942400	0.713500
C3181	C318	0.306460	0.908000	0.693540
C3191	C319	0.286500	0.442400	0.213500
C3201	C320	0.306460	0.408000	0.193540
C3211	C321	0.942400	0.213500	0.786500
C3221	C322	0.908000	0.193540	0.806460
C3231	C323	0.942400	0.713500	0.286500
C3241	C324	0.908000	0.693540	0.306460
C3251	C325	0.442400	0.213500	0.286500
C3261	C326	0.408000	0.193540	0.306460
C3271	C327	0.442400	0.713500	0.786500
C3281	C328	0.408000	0.693540	0.806460
C3291	C329	0.057600	0.213500	0.213500
C3301	C330	0.092000	0.193540	0.193540
C3311	C331	0.057600	0.713500	0.713500
C3321	C332	0.092000	0.693540	0.693540
C3331	C333	0.557600	0.213500	0.713500
C3341	C334	0.592000	0.193540	0.693540
C3351	C335	0.557600	0.713500	0.213500
C3361	C336	0.592000	0.693540	0.193540
C3371	C337	0.057600	0.786500	0.786500
C3381	C338	0.092000	0.806460	0.806460
C3391	C339	0.057600	0.286500	0.286500
C3401	C340	0.092000	0.306460	0.306460
C3411	C341	0.557600	0.786500	0.286500
C3421	C342	0.592000	0.806460	0.306460
C3431	C343	0.557600	0.286500	0.786500
C3441	C344	0.592000	0.306460	0.806460
C3451	C345	0.942400	0.786500	0.213500
C3461	C346	0.908000	0.806460	0.193540
C3471	C347	0.942400	0.286500	0.713500
C3481	C348	0.908000	0.306460	0.693540
C3491	C349	0.442400	0.786500	0.713500
C3501	C350	0.408000	0.806460	0.693540
C3511	C351	0.442400	0.286500	0.213500
C3521	C352	0.408000	0.306460	0.193540
C3531	C353	0.213500	0.213500	0.057600
C3541	C354	0.193540	0.193540	0.092000
C3551	C355	0.213500	0.713500	0.557600
C3561	C356	0.193540	0.693540	0.592000
C3571	C357	0.713500	0.213500	0.557600
C3581	C358	0.693540	0.193540	0.592000
C3591	C359	0.713500	0.713500	0.057600
C3601	C360	0.693540	0.693540	0.092000
C3611	C361	0.213500	0.786500	0.942400
C3621	C362	0.193540	0.806460	0.908000
C3631	C363	0.213500	0.286500	0.442400
C3641	C364	0.193540	0.306460	0.408000
C3651	C365	0.713500	0.786500	0.442400
C3661	C366	0.693540	0.806460	0.408000
C3671	C367	0.713500	0.286500	0.942400
C3681	C368	0.693540	0.306460	0.908000
C3691	C369	0.786500	0.213500	0.942400
C3701	C370	0.806460	0.193540	0.908000
C3711	C371	0.786500	0.713500	0.442400
C3721	C372	0.806460	0.693540	0.408000
C3731	C373	0.286500	0.213500	0.442400
C3741	C374	0.306460	0.193540	0.408000
C3751	C375	0.286500	0.713500	0.942400
C3761	C376	0.306460	0.693540	0.908000
C3771	C377	0.786500	0.786500	0.057600
C3781	C378	0.806460	0.806460	0.092000
C3791	C379	0.786500	0.286500	0.557600
C3801	C380	0.806460	0.306460	0.592000
C3811	C381	0.286500	0.786500	0.557600
C3821	C382	0.306460	0.806460	0.592000
C3831	C383	0.286500	0.286500	0.057600
C3841	C384	0.306460	0.306460	0.092000
C3851	C385	0.858800	0.141200	0.192200
C3861	C386	0.858800	0.641200	0.692200
C3871	C387	0.358800	0.141200	0.692200
C3881	C388	0.358800	0.641200	0.192200
C3891	C389	0.141200	0.858800	0.192200
C3901	C390	0.141200	0.358800	0.692200
C3911	C391	0.641200	0.858800	0.692200
C3921	C392	0.641200	0.358800	0.192200
C3931	C393	0.141200	0.141200	0.807800
C3941	C394	0.141200	0.641200	0.307800
C3951	C395	0.641200	0.141200	0.307800
C3961	C396	0.641200	0.641200	0.807800
C3971	C397	0.858800	0.858800	0.807800
C3981	C398	0.858800	0.358800	0.307800
C3991	C399	0.358800	0.858800	0.307800
C4001	C400	0.358800	0.358800	0.807800
C4011	C401	0.192200	0.858800	0.141200
C4021	C402	0.192200	0.358800	0.641200
C4031	C403	0.692200	0.858800	0.641200
C4041	C404	0.692200	0.358800	0.141200
C4051	C405	0.192200	0.141200	0.858800
C4061	C406	0.192200	0.641200	0.358800
C4071	C407	0.692200	0.141200	0.358800
C4081	C408	0.692200	0.641200	0.858800
C4091	C409	0.807800	0.141200	0.141200
C4101	C410	0.807800	0.641200	0.641200
C4111	C411	0.307800	0.141200	0.641200
C4121	C412	0.307800	0.641200	0.141200
C4131	C413	0.807800	0.858800	0.858800
C4141	C414	0.807800	0.358800	0.358800
C4151	C415	0.307800	0.858800	0.358800
C4161	C416	0.307800	0.358800	0.858800
C4171	C417	0.141200	0.192200	0.858800
C4181	C418	0.141200	0.692200	0.358800
C4191	C419	0.641200	0.192200	0.358800
C4201	C420	0.641200	0.692200	0.858800
C4211	C421	0.858800	0.192200	0.141200
C4221	C422	0.858800	0.692200	0.641200
C4231	C423	0.358800	0.192200	0.641200
C4241	C424	0.358800	0.692200	0.141200
C4251	C425	0.141200	0.807800	0.141200
C4261	C426	0.141200	0.307800	0.641200
C4271	C427	0.641200	0.807800	0.641200
C4281	C428	0.641200	0.307800	0.141200
C4291	C429	0.858800	0.807800	0.858800
C4301	C430	0.858800	0.307800	0.358800
C4311	C431	0.358800	0.807800	0.358800
C4321	C432	0.358800	0.307800	0.858800
C4331	C433	0.141200	0.858800	0.807800
C4341	C434	0.141200	0.358800	0.307800
C4351	C435	0.641200	0.858800	0.307800
C4361	C436	0.641200	0.358800	0.807800
C4371	C437	0.858800	0.141200	0.807800
C4381	C438	0.858800	0.641200	0.307800
C4391	C439	0.358800	0.141200	0.307800
C4401	C440	0.358800	0.641200	0.807800
C4411	C441	0.141200	0.141200	0.192200
C4421	C442	0.141200	0.641200	0.692200
C4431	C443	0.641200	0.141200	0.692200
C4441	C444	0.641200	0.641200	0.192200
C4451	C445	0.858800	0.858800	0.192200
C4461	C446	0.858800	0.358800	0.692200
C4471	C447	0.358800	0.858800	0.692200
C4481	C448	0.358800	0.358800	0.192200
C4491	C449	0.858800	0.192200	0.858800
C4501	C450	0.858800	0.692200	0.358800
C4511	C451	0.358800	0.192200	0.358800
C4521	C452	0.358800	0.692200	0.858800
C4531	C453	0.141200	0.192200	0.141200
C4541	C454	0.141200	0.692200	0.641200
C4551	C455	0.641200	0.192200	0.641200
C4561	C456	0.641200	0.692200	0.141200
C4571	C457	0.141200	0.807800	0.858800
C4581	C458	0.141200	0.307800	0.358800
C4591	C459	0.641200	0.807800	0.358800
C4601	C460	0.641200	0.307800	0.858800
C4611	C461	0.858800	0.807800	0.141200
C4621	C462	0.858800	0.307800	0.641200
C4631	C463	0.358800	0.807800	0.641200
C4641	C464	0.358800	0.307800	0.141200
C4651	C465	0.192200	0.141200	0.141200
C4661	C466	0.192200	0.641200	0.641200
C4671	C467	0.692200	0.141200	0.641200
C4681	C468	0.692200	0.641200	0.141200
C4691	C469	0.192200	0.858800	0.858800
C4701	C470	0.192200	0.358800	0.358800
C4711	C471	0.692200	0.858800	0.358800
C4721	C472	0.692200	0.358800	0.858800
C4731	C473	0.807800	0.141200	0.858800
C4741	C474	0.807800	0.641200	0.358800
C4751	C475	0.307800	0.141200	0.358800
C4761	C476	0.307800	0.641200	0.858800
C4771	C477	0.807800	0.858800	0.141200
C4781	C478	0.807800	0.358800	0.641200
C4791	C479	0.307800	0.858800	0.641200
C4801	C480	0.307800	0.358800	0.141200
C4811	C481	0.843400	0.156600	0.156600
C4821	C482	0.843400	0.656600	0.656600
C4831	C483	0.343400	0.156600	0.656600
C4841	C484	0.343400	0.656600	0.156600
C4851	C485	0.156600	0.843400	0.156600
C4861	C486	0.156600	0.343400	0.656600
C4871	C487	0.656600	0.843400	0.656600
C4881	C488	0.656600	0.343400	0.156600
C4891	C489	0.156600	0.156600	0.843400
C4901	C490	0.156600	0.656600	0.343400
C4911	C491	0.656600	0.156600	0.343400
C4921	C492	0.656600	0.656600	0.843400
C4931	C493	0.843400	0.843400	0.843400
C4941	C494	0.843400	0.343400	0.343400
C4951	C495	0.343400	0.843400	0.343400
C4961	C496	0.343400	0.343400	0.843400
C4971	C497	0.156600	0.843400	0.843400
C4981	C498	0.156600	0.343400	0.343400
C4991	C499	0.656600	0.843400	0.343400
C5001	C500	0.656600	0.343400	0.843400
C5011	C501	0.843400	0.156600	0.843400
C5021	C502	0.843400	0.656600	0.343400
C5031	C503	0.343400	0.156600	0.343400
C5041	C504	0.343400	0.656600	0.843400
C5051	C505	0.156600	0.156600	0.156600
C5061	C506	0.156600	0.656600	0.656600
C5071	C507	0.656600	0.156600	0.656600
C5081	C508	0.656600	0.656600	0.156600
C5091	C509	0.843400	0.843400	0.156600
C5101	C510	0.843400	0.343400	0.656600
C5111	C511	0.343400	0.843400	0.656600
C5121	C512	0.343400	0.343400	0.156600
