data_LIKGUJ_clean_PM
_symmetry_space_group_name_H-M	'P1'
_cell_length_a	29.830700
_cell_length_b	29.830700
_cell_length_c	29.830700
_cell_angle_alpha	90.000000
_cell_angle_beta	90.000000
_cell_angle_gamma	90.000000
_symmetry_Int_Tables_number 1

loop_
_symmetry_equiv_pos_as_xyz
'x,y,z'

loop_
_atom_site_label
_atom_site_type_symbol
_atom_site_fract_x
_atom_site_fract_y
_atom_site_fract_z
O11	O1	0.168800	0.272000	0.459600
C11	C1	0.181300	0.231500	0.437400
C21	C2	0.158400	0.212100	0.398700
O21	O2	0.168800	0.772000	0.959600
C31	C3	0.181300	0.731500	0.937400
C41	C4	0.158400	0.712100	0.898700
O31	O3	0.668800	0.272000	0.959600
C51	C5	0.681300	0.231500	0.937400
C61	C6	0.658400	0.212100	0.898700
O41	O4	0.668800	0.772000	0.459600
C71	C7	0.681300	0.731500	0.437400
C81	C8	0.658400	0.712100	0.398700
O51	O5	0.831200	0.728000	0.459600
C91	C9	0.818700	0.768500	0.437400
C101	C10	0.841600	0.787900	0.398700
O61	O6	0.831200	0.228000	0.959600
C111	C11	0.818700	0.268500	0.937400
C121	C12	0.841600	0.287900	0.898700
O71	O7	0.331200	0.728000	0.959600
C131	C13	0.318700	0.768500	0.937400
C141	C14	0.341600	0.787900	0.898700
O81	O8	0.331200	0.228000	0.459600
C151	C15	0.318700	0.268500	0.437400
C161	C16	0.341600	0.287900	0.398700
O91	O9	0.831200	0.272000	0.540400
C171	C17	0.818700	0.231500	0.562600
C181	C18	0.841600	0.212100	0.601300
O101	O10	0.831200	0.772000	0.040400
C191	C19	0.818700	0.731500	0.062600
C201	C20	0.841600	0.712100	0.101300
O111	O11	0.331200	0.272000	0.040400
C211	C21	0.318700	0.231500	0.062600
C221	C22	0.341600	0.212100	0.101300
O121	O12	0.331200	0.772000	0.540400
C231	C23	0.318700	0.731500	0.562600
C241	C24	0.341600	0.712100	0.601300
O131	O13	0.168800	0.728000	0.540400
C251	C25	0.181300	0.768500	0.562600
C261	C26	0.158400	0.787900	0.601300
O141	O14	0.168800	0.228000	0.040400
C271	C27	0.181300	0.268500	0.062600
C281	C28	0.158400	0.287900	0.101300
O151	O15	0.668800	0.728000	0.040400
C291	C29	0.681300	0.768500	0.062600
C301	C30	0.658400	0.787900	0.101300
O161	O16	0.668800	0.228000	0.540400
C311	C31	0.681300	0.268500	0.562600
C321	C32	0.658400	0.287900	0.601300
O171	O17	0.459600	0.168800	0.272000
C331	C33	0.437400	0.181300	0.231500
C341	C34	0.398700	0.158400	0.212100
O181	O18	0.459600	0.668800	0.772000
C351	C35	0.437400	0.681300	0.731500
C361	C36	0.398700	0.658400	0.712100
O191	O19	0.959600	0.168800	0.772000
C371	C37	0.937400	0.181300	0.731500
C381	C38	0.898700	0.158400	0.712100
O201	O20	0.959600	0.668800	0.272000
C391	C39	0.937400	0.681300	0.231500
C401	C40	0.898700	0.658400	0.212100
O211	O21	0.459600	0.831200	0.728000
C411	C41	0.437400	0.818700	0.768500
C421	C42	0.398700	0.841600	0.787900
O221	O22	0.459600	0.331200	0.228000
C431	C43	0.437400	0.318700	0.268500
C441	C44	0.398700	0.341600	0.287900
O231	O23	0.959600	0.831200	0.228000
C451	C45	0.937400	0.818700	0.268500
C461	C46	0.898700	0.841600	0.287900
O241	O24	0.959600	0.331200	0.728000
C471	C47	0.937400	0.318700	0.768500
C481	C48	0.898700	0.341600	0.787900
O251	O25	0.540400	0.831200	0.272000
C491	C49	0.562600	0.818700	0.231500
C501	C50	0.601300	0.841600	0.212100
O261	O26	0.540400	0.331200	0.772000
C511	C51	0.562600	0.318700	0.731500
C521	C52	0.601300	0.341600	0.712100
O271	O27	0.040400	0.831200	0.772000
C531	C53	0.062600	0.818700	0.731500
C541	C54	0.101300	0.841600	0.712100
O281	O28	0.040400	0.331200	0.272000
C551	C55	0.062600	0.318700	0.231500
C561	C56	0.101300	0.341600	0.212100
O291	O29	0.540400	0.168800	0.728000
C571	C57	0.562600	0.181300	0.768500
C581	C58	0.601300	0.158400	0.787900
O301	O30	0.540400	0.668800	0.228000
C591	C59	0.562600	0.681300	0.268500
C601	C60	0.601300	0.658400	0.287900
O311	O31	0.040400	0.168800	0.228000
C611	C61	0.062600	0.181300	0.268500
C621	C62	0.101300	0.158400	0.287900
O321	O32	0.040400	0.668800	0.728000
C631	C63	0.062600	0.681300	0.768500
C641	C64	0.101300	0.658400	0.787900
O331	O33	0.272000	0.459600	0.168800
C651	C65	0.231500	0.437400	0.181300
C661	C66	0.212100	0.398700	0.158400
O341	O34	0.272000	0.959600	0.668800
C671	C67	0.231500	0.937400	0.681300
C681	C68	0.212100	0.898700	0.658400
O351	O35	0.772000	0.459600	0.668800
C691	C69	0.731500	0.437400	0.681300
C701	C70	0.712100	0.398700	0.658400
O361	O36	0.772000	0.959600	0.168800
C711	C71	0.731500	0.937400	0.181300
C721	C72	0.712100	0.898700	0.158400
O371	O37	0.728000	0.459600	0.831200
C731	C73	0.768500	0.437400	0.818700
C741	C74	0.787900	0.398700	0.841600
O381	O38	0.728000	0.959600	0.331200
C751	C75	0.768500	0.937400	0.318700
C761	C76	0.787900	0.898700	0.341600
O391	O39	0.228000	0.459600	0.331200
C771	C77	0.268500	0.437400	0.318700
C781	C78	0.287900	0.398700	0.341600
O401	O40	0.228000	0.959600	0.831200
C791	C79	0.268500	0.937400	0.818700
C801	C80	0.287900	0.898700	0.841600
O411	O41	0.272000	0.540400	0.831200
C811	C81	0.231500	0.562600	0.818700
C821	C82	0.212100	0.601300	0.841600
O421	O42	0.272000	0.040400	0.331200
C831	C83	0.231500	0.062600	0.318700
C841	C84	0.212100	0.101300	0.341600
O431	O43	0.772000	0.540400	0.331200
C851	C85	0.731500	0.562600	0.318700
C861	C86	0.712100	0.601300	0.341600
O441	O44	0.772000	0.040400	0.831200
C871	C87	0.731500	0.062600	0.818700
C881	C88	0.712100	0.101300	0.841600
O451	O45	0.728000	0.540400	0.168800
C891	C89	0.768500	0.562600	0.181300
C901	C90	0.787900	0.601300	0.158400
O461	O46	0.728000	0.040400	0.668800
C911	C91	0.768500	0.062600	0.681300
C921	C92	0.787900	0.101300	0.658400
O471	O47	0.228000	0.540400	0.668800
C931	C93	0.268500	0.562600	0.681300
C941	C94	0.287900	0.601300	0.658400
O481	O48	0.228000	0.040400	0.168800
C951	C95	0.268500	0.062600	0.181300
C961	C96	0.287900	0.101300	0.158400
O491	O49	0.272000	0.168800	0.540400
C971	C97	0.231500	0.181300	0.562600
C981	C98	0.212100	0.158400	0.601300
O501	O50	0.272000	0.668800	0.040400
C991	C99	0.231500	0.681300	0.062600
C1001	C100	0.212100	0.658400	0.101300
O511	O51	0.772000	0.168800	0.040400
C1011	C101	0.731500	0.181300	0.062600
C1021	C102	0.712100	0.158400	0.101300
O521	O52	0.772000	0.668800	0.540400
C1031	C103	0.731500	0.681300	0.562600
C1041	C104	0.712100	0.658400	0.601300
O531	O53	0.728000	0.831200	0.540400
C1051	C105	0.768500	0.818700	0.562600
C1061	C106	0.787900	0.841600	0.601300
O541	O54	0.728000	0.331200	0.040400
C1071	C107	0.768500	0.318700	0.062600
C1081	C108	0.787900	0.341600	0.101300
O551	O55	0.228000	0.831200	0.040400
C1091	C109	0.268500	0.818700	0.062600
C1101	C110	0.287900	0.841600	0.101300
O561	O56	0.228000	0.331200	0.540400
C1111	C111	0.268500	0.318700	0.562600
C1121	C112	0.287900	0.341600	0.601300
O571	O57	0.272000	0.831200	0.459600
C1131	C113	0.231500	0.818700	0.437400
C1141	C114	0.212100	0.841600	0.398700
O581	O58	0.272000	0.331200	0.959600
C1151	C115	0.231500	0.318700	0.937400
C1161	C116	0.212100	0.341600	0.898700
O591	O59	0.772000	0.831200	0.959600
C1171	C117	0.731500	0.818700	0.937400
C1181	C118	0.712100	0.841600	0.898700
O601	O60	0.772000	0.331200	0.459600
C1191	C119	0.731500	0.318700	0.437400
C1201	C120	0.712100	0.341600	0.398700
O611	O61	0.728000	0.168800	0.459600
C1211	C121	0.768500	0.181300	0.437400
C1221	C122	0.787900	0.158400	0.398700
O621	O62	0.728000	0.668800	0.959600
C1231	C123	0.768500	0.681300	0.937400
C1241	C124	0.787900	0.658400	0.898700
O631	O63	0.228000	0.168800	0.959600
C1251	C125	0.268500	0.181300	0.937400
C1261	C126	0.287900	0.158400	0.898700
O641	O64	0.228000	0.668800	0.459600
C1271	C127	0.268500	0.681300	0.437400
C1281	C128	0.287900	0.658400	0.398700
O651	O65	0.168800	0.459600	0.728000
C1291	C129	0.181300	0.437400	0.768500
C1301	C130	0.158400	0.398700	0.787900
O661	O66	0.168800	0.959600	0.228000
C1311	C131	0.181300	0.937400	0.268500
C1321	C132	0.158400	0.898700	0.287900
O671	O67	0.668800	0.459600	0.228000
C1331	C133	0.681300	0.437400	0.268500
C1341	C134	0.658400	0.398700	0.287900
O681	O68	0.668800	0.959600	0.728000
C1351	C135	0.681300	0.937400	0.768500
C1361	C136	0.658400	0.898700	0.787900
O691	O69	0.831200	0.459600	0.272000
C1371	C137	0.818700	0.437400	0.231500
C1381	C138	0.841600	0.398700	0.212100
O701	O70	0.831200	0.959600	0.772000
C1391	C139	0.818700	0.937400	0.731500
C1401	C140	0.841600	0.898700	0.712100
O711	O71	0.331200	0.459600	0.772000
C1411	C141	0.318700	0.437400	0.731500
C1421	C142	0.341600	0.398700	0.712100
O721	O72	0.331200	0.959600	0.272000
C1431	C143	0.318700	0.937400	0.231500
C1441	C144	0.341600	0.898700	0.212100
O731	O73	0.831200	0.540400	0.728000
C1451	C145	0.818700	0.562600	0.768500
C1461	C146	0.841600	0.601300	0.787900
O741	O74	0.831200	0.040400	0.228000
C1471	C147	0.818700	0.062600	0.268500
C1481	C148	0.841600	0.101300	0.287900
O751	O75	0.331200	0.540400	0.228000
C1491	C149	0.318700	0.562600	0.268500
C1501	C150	0.341600	0.601300	0.287900
O761	O76	0.331200	0.040400	0.728000
C1511	C151	0.318700	0.062600	0.768500
C1521	C152	0.341600	0.101300	0.787900
O771	O77	0.168800	0.540400	0.272000
C1531	C153	0.181300	0.562600	0.231500
C1541	C154	0.158400	0.601300	0.212100
O781	O78	0.168800	0.040400	0.772000
C1551	C155	0.181300	0.062600	0.731500
C1561	C156	0.158400	0.101300	0.712100
O791	O79	0.668800	0.540400	0.772000
C1571	C157	0.681300	0.562600	0.731500
C1581	C158	0.658400	0.601300	0.712100
O801	O80	0.668800	0.040400	0.272000
C1591	C159	0.681300	0.062600	0.231500
C1601	C160	0.658400	0.101300	0.212100
O811	O81	0.459600	0.272000	0.831200
C1611	C161	0.437400	0.231500	0.818700
C1621	C162	0.398700	0.212100	0.841600
O821	O82	0.459600	0.772000	0.331200
C1631	C163	0.437400	0.731500	0.318700
C1641	C164	0.398700	0.712100	0.341600
O831	O83	0.959600	0.272000	0.331200
C1651	C165	0.937400	0.231500	0.318700
C1661	C166	0.898700	0.212100	0.341600
O841	O84	0.959600	0.772000	0.831200
C1671	C167	0.937400	0.731500	0.818700
C1681	C168	0.898700	0.712100	0.841600
O851	O85	0.459600	0.728000	0.168800
C1691	C169	0.437400	0.768500	0.181300
C1701	C170	0.398700	0.787900	0.158400
O861	O86	0.459600	0.228000	0.668800
C1711	C171	0.437400	0.268500	0.681300
C1721	C172	0.398700	0.287900	0.658400
O871	O87	0.959600	0.728000	0.668800
C1731	C173	0.937400	0.768500	0.681300
C1741	C174	0.898700	0.787900	0.658400
O881	O88	0.959600	0.228000	0.168800
C1751	C175	0.937400	0.268500	0.181300
C1761	C176	0.898700	0.287900	0.158400
O891	O89	0.540400	0.272000	0.168800
C1771	C177	0.562600	0.231500	0.181300
C1781	C178	0.601300	0.212100	0.158400
O901	O90	0.540400	0.772000	0.668800
C1791	C179	0.562600	0.731500	0.681300
C1801	C180	0.601300	0.712100	0.658400
O911	O91	0.040400	0.272000	0.668800
C1811	C181	0.062600	0.231500	0.681300
C1821	C182	0.101300	0.212100	0.658400
O921	O92	0.040400	0.772000	0.168800
C1831	C183	0.062600	0.731500	0.181300
C1841	C184	0.101300	0.712100	0.158400
O931	O93	0.540400	0.728000	0.831200
C1851	C185	0.562600	0.768500	0.818700
C1861	C186	0.601300	0.787900	0.841600
O941	O94	0.540400	0.228000	0.331200
C1871	C187	0.562600	0.268500	0.318700
C1881	C188	0.601300	0.287900	0.341600
O951	O95	0.040400	0.728000	0.331200
C1891	C189	0.062600	0.768500	0.318700
C1901	C190	0.101300	0.787900	0.341600
O961	O96	0.040400	0.228000	0.831200
C1911	C191	0.062600	0.268500	0.818700
C1921	C192	0.101300	0.287900	0.841600
O971	O97	0.831200	0.728000	0.540400
C1931	C193	0.818700	0.768500	0.562600
C1941	C194	0.841600	0.787900	0.601300
O981	O98	0.831200	0.228000	0.040400
C1951	C195	0.818700	0.268500	0.062600
C1961	C196	0.841600	0.287900	0.101300
O991	O99	0.331200	0.728000	0.040400
C1971	C197	0.318700	0.768500	0.062600
C1981	C198	0.341600	0.787900	0.101300
O1001	O100	0.331200	0.228000	0.540400
C1991	C199	0.318700	0.268500	0.562600
C2001	C200	0.341600	0.287900	0.601300
O1011	O101	0.168800	0.272000	0.540400
C2011	C201	0.181300	0.231500	0.562600
C2021	C202	0.158400	0.212100	0.601300
O1021	O102	0.168800	0.772000	0.040400
C2031	C203	0.181300	0.731500	0.062600
C2041	C204	0.158400	0.712100	0.101300
O1031	O103	0.668800	0.272000	0.040400
C2051	C205	0.681300	0.231500	0.062600
C2061	C206	0.658400	0.212100	0.101300
O1041	O104	0.668800	0.772000	0.540400
C2071	C207	0.681300	0.731500	0.562600
C2081	C208	0.658400	0.712100	0.601300
O1051	O105	0.168800	0.728000	0.459600
C2091	C209	0.181300	0.768500	0.437400
C2101	C210	0.158400	0.787900	0.398700
O1061	O106	0.168800	0.228000	0.959600
C2111	C211	0.181300	0.268500	0.937400
C2121	C212	0.158400	0.287900	0.898700
O1071	O107	0.668800	0.728000	0.959600
C2131	C213	0.681300	0.768500	0.937400
C2141	C214	0.658400	0.787900	0.898700
O1081	O108	0.668800	0.228000	0.459600
C2151	C215	0.681300	0.268500	0.437400
C2161	C216	0.658400	0.287900	0.398700
O1091	O109	0.831200	0.272000	0.459600
C2171	C217	0.818700	0.231500	0.437400
C2181	C218	0.841600	0.212100	0.398700
O1101	O110	0.831200	0.772000	0.959600
C2191	C219	0.818700	0.731500	0.937400
C2201	C220	0.841600	0.712100	0.898700
O1111	O111	0.331200	0.272000	0.959600
C2211	C221	0.318700	0.231500	0.937400
C2221	C222	0.341600	0.212100	0.898700
O1121	O112	0.331200	0.772000	0.459600
C2231	C223	0.318700	0.731500	0.437400
C2241	C224	0.341600	0.712100	0.398700
O1131	O113	0.540400	0.831200	0.728000
C2251	C225	0.562600	0.818700	0.768500
C2261	C226	0.601300	0.841600	0.787900
O1141	O114	0.540400	0.331200	0.228000
C2271	C227	0.562600	0.318700	0.268500
C2281	C228	0.601300	0.341600	0.287900
O1151	O115	0.040400	0.831200	0.228000
C2291	C229	0.062600	0.818700	0.268500
C2301	C230	0.101300	0.841600	0.287900
O1161	O116	0.040400	0.331200	0.728000
C2311	C231	0.062600	0.318700	0.768500
C2321	C232	0.101300	0.341600	0.787900
O1171	O117	0.540400	0.168800	0.272000
C2331	C233	0.562600	0.181300	0.231500
C2341	C234	0.601300	0.158400	0.212100
O1181	O118	0.540400	0.668800	0.772000
C2351	C235	0.562600	0.681300	0.731500
C2361	C236	0.601300	0.658400	0.712100
O1191	O119	0.040400	0.168800	0.772000
C2371	C237	0.062600	0.181300	0.731500
C2381	C238	0.101300	0.158400	0.712100
O1201	O120	0.040400	0.668800	0.272000
C2391	C239	0.062600	0.681300	0.231500
C2401	C240	0.101300	0.658400	0.212100
O1211	O121	0.459600	0.168800	0.728000
C2411	C241	0.437400	0.181300	0.768500
C2421	C242	0.398700	0.158400	0.787900
O1221	O122	0.459600	0.668800	0.228000
C2431	C243	0.437400	0.681300	0.268500
C2441	C244	0.398700	0.658400	0.287900
O1231	O123	0.959600	0.168800	0.228000
C2451	C245	0.937400	0.181300	0.268500
C2461	C246	0.898700	0.158400	0.287900
O1241	O124	0.959600	0.668800	0.728000
C2471	C247	0.937400	0.681300	0.768500
C2481	C248	0.898700	0.658400	0.787900
O1251	O125	0.459600	0.831200	0.272000
C2491	C249	0.437400	0.818700	0.231500
C2501	C250	0.398700	0.841600	0.212100
O1261	O126	0.459600	0.331200	0.772000
C2511	C251	0.437400	0.318700	0.731500
C2521	C252	0.398700	0.341600	0.712100
O1271	O127	0.959600	0.831200	0.772000
C2531	C253	0.937400	0.818700	0.731500
C2541	C254	0.898700	0.841600	0.712100
O1281	O128	0.959600	0.331200	0.272000
C2551	C255	0.937400	0.318700	0.231500
C2561	C256	0.898700	0.341600	0.212100
O1291	O129	0.728000	0.540400	0.831200
C2571	C257	0.768500	0.562600	0.818700
C2581	C258	0.787900	0.601300	0.841600
O1301	O130	0.728000	0.040400	0.331200
C2591	C259	0.768500	0.062600	0.318700
C2601	C260	0.787900	0.101300	0.341600
O1311	O131	0.228000	0.540400	0.331200
C2611	C261	0.268500	0.562600	0.318700
C2621	C262	0.287900	0.601300	0.341600
O1321	O132	0.228000	0.040400	0.831200
C2631	C263	0.268500	0.062600	0.818700
C2641	C264	0.287900	0.101300	0.841600
O1331	O133	0.272000	0.540400	0.168800
C2651	C265	0.231500	0.562600	0.181300
C2661	C266	0.212100	0.601300	0.158400
O1341	O134	0.272000	0.040400	0.668800
C2671	C267	0.231500	0.062600	0.681300
C2681	C268	0.212100	0.101300	0.658400
O1351	O135	0.772000	0.540400	0.668800
C2691	C269	0.731500	0.562600	0.681300
C2701	C270	0.712100	0.601300	0.658400
O1361	O136	0.772000	0.040400	0.168800
C2711	C271	0.731500	0.062600	0.181300
C2721	C272	0.712100	0.101300	0.158400
O1371	O137	0.728000	0.459600	0.168800
C2731	C273	0.768500	0.437400	0.181300
C2741	C274	0.787900	0.398700	0.158400
O1381	O138	0.728000	0.959600	0.668800
C2751	C275	0.768500	0.937400	0.681300
C2761	C276	0.787900	0.898700	0.658400
O1391	O139	0.228000	0.459600	0.668800
C2771	C277	0.268500	0.437400	0.681300
C2781	C278	0.287900	0.398700	0.658400
O1401	O140	0.228000	0.959600	0.168800
C2791	C279	0.268500	0.937400	0.181300
C2801	C280	0.287900	0.898700	0.158400
O1411	O141	0.272000	0.459600	0.831200
C2811	C281	0.231500	0.437400	0.818700
C2821	C282	0.212100	0.398700	0.841600
O1421	O142	0.272000	0.959600	0.331200
C2831	C283	0.231500	0.937400	0.318700
C2841	C284	0.212100	0.898700	0.341600
O1431	O143	0.772000	0.459600	0.331200
C2851	C285	0.731500	0.437400	0.318700
C2861	C286	0.712100	0.398700	0.341600
O1441	O144	0.772000	0.959600	0.831200
C2871	C287	0.731500	0.937400	0.818700
C2881	C288	0.712100	0.898700	0.841600
O1451	O145	0.728000	0.831200	0.459600
C2891	C289	0.768500	0.818700	0.437400
C2901	C290	0.787900	0.841600	0.398700
O1461	O146	0.728000	0.331200	0.959600
C2911	C291	0.768500	0.318700	0.937400
C2921	C292	0.787900	0.341600	0.898700
O1471	O147	0.228000	0.831200	0.959600
C2931	C293	0.268500	0.818700	0.937400
C2941	C294	0.287900	0.841600	0.898700
O1481	O148	0.228000	0.331200	0.459600
C2951	C295	0.268500	0.318700	0.437400
C2961	C296	0.287900	0.341600	0.398700
O1491	O149	0.272000	0.168800	0.459600
C2971	C297	0.231500	0.181300	0.437400
C2981	C298	0.212100	0.158400	0.398700
O1501	O150	0.272000	0.668800	0.959600
C2991	C299	0.231500	0.681300	0.937400
C3001	C300	0.212100	0.658400	0.898700
O1511	O151	0.772000	0.168800	0.959600
C3011	C301	0.731500	0.181300	0.937400
C3021	C302	0.712100	0.158400	0.898700
O1521	O152	0.772000	0.668800	0.459600
C3031	C303	0.731500	0.681300	0.437400
C3041	C304	0.712100	0.658400	0.398700
O1531	O153	0.728000	0.168800	0.540400
C3051	C305	0.768500	0.181300	0.562600
C3061	C306	0.787900	0.158400	0.601300
O1541	O154	0.728000	0.668800	0.040400
C3071	C307	0.768500	0.681300	0.062600
C3081	C308	0.787900	0.658400	0.101300
O1551	O155	0.228000	0.168800	0.040400
C3091	C309	0.268500	0.181300	0.062600
C3101	C310	0.287900	0.158400	0.101300
O1561	O156	0.228000	0.668800	0.540400
C3111	C311	0.268500	0.681300	0.562600
C3121	C312	0.287900	0.658400	0.601300
O1571	O157	0.272000	0.831200	0.540400
C3131	C313	0.231500	0.818700	0.562600
C3141	C314	0.212100	0.841600	0.601300
O1581	O158	0.272000	0.331200	0.040400
C3151	C315	0.231500	0.318700	0.062600
C3161	C316	0.212100	0.341600	0.101300
O1591	O159	0.772000	0.831200	0.040400
C3171	C317	0.731500	0.818700	0.062600
C3181	C318	0.712100	0.841600	0.101300
O1601	O160	0.772000	0.331200	0.540400
C3191	C319	0.731500	0.318700	0.562600
C3201	C320	0.712100	0.341600	0.601300
O1611	O161	0.831200	0.540400	0.272000
C3211	C321	0.818700	0.562600	0.231500
C3221	C322	0.841600	0.601300	0.212100
O1621	O162	0.831200	0.040400	0.772000
C3231	C323	0.818700	0.062600	0.731500
C3241	C324	0.841600	0.101300	0.712100
O1631	O163	0.331200	0.540400	0.772000
C3251	C325	0.318700	0.562600	0.731500
C3261	C326	0.341600	0.601300	0.712100
O1641	O164	0.331200	0.040400	0.272000
C3271	C327	0.318700	0.062600	0.231500
C3281	C328	0.341600	0.101300	0.212100
O1651	O165	0.168800	0.540400	0.728000
C3291	C329	0.181300	0.562600	0.768500
C3301	C330	0.158400	0.601300	0.787900
O1661	O166	0.168800	0.040400	0.228000
C3311	C331	0.181300	0.062600	0.268500
C3321	C332	0.158400	0.101300	0.287900
O1671	O167	0.668800	0.540400	0.228000
C3331	C333	0.681300	0.562600	0.268500
C3341	C334	0.658400	0.601300	0.287900
O1681	O168	0.668800	0.040400	0.728000
C3351	C335	0.681300	0.062600	0.768500
C3361	C336	0.658400	0.101300	0.787900
O1691	O169	0.168800	0.459600	0.272000
C3371	C337	0.181300	0.437400	0.231500
C3381	C338	0.158400	0.398700	0.212100
O1701	O170	0.168800	0.959600	0.772000
C3391	C339	0.181300	0.937400	0.731500
C3401	C340	0.158400	0.898700	0.712100
O1711	O171	0.668800	0.459600	0.772000
C3411	C341	0.681300	0.437400	0.731500
C3421	C342	0.658400	0.398700	0.712100
O1721	O172	0.668800	0.959600	0.272000
C3431	C343	0.681300	0.937400	0.231500
C3441	C344	0.658400	0.898700	0.212100
O1731	O173	0.831200	0.459600	0.728000
C3451	C345	0.818700	0.437400	0.768500
C3461	C346	0.841600	0.398700	0.787900
O1741	O174	0.831200	0.959600	0.228000
C3471	C347	0.818700	0.937400	0.268500
C3481	C348	0.841600	0.898700	0.287900
O1751	O175	0.331200	0.459600	0.228000
C3491	C349	0.318700	0.437400	0.268500
C3501	C350	0.341600	0.398700	0.287900
O1761	O176	0.331200	0.959600	0.728000
C3511	C351	0.318700	0.937400	0.768500
C3521	C352	0.341600	0.898700	0.787900
O1771	O177	0.540400	0.728000	0.168800
C3531	C353	0.562600	0.768500	0.181300
C3541	C354	0.601300	0.787900	0.158400
O1781	O178	0.540400	0.228000	0.668800
C3551	C355	0.562600	0.268500	0.681300
C3561	C356	0.601300	0.287900	0.658400
O1791	O179	0.040400	0.728000	0.668800
C3571	C357	0.062600	0.768500	0.681300
C3581	C358	0.101300	0.787900	0.658400
O1801	O180	0.040400	0.228000	0.168800
C3591	C359	0.062600	0.268500	0.181300
C3601	C360	0.101300	0.287900	0.158400
O1811	O181	0.540400	0.272000	0.831200
C3611	C361	0.562600	0.231500	0.818700
C3621	C362	0.601300	0.212100	0.841600
O1821	O182	0.540400	0.772000	0.331200
C3631	C363	0.562600	0.731500	0.318700
C3641	C364	0.601300	0.712100	0.341600
O1831	O183	0.040400	0.272000	0.331200
C3651	C365	0.062600	0.231500	0.318700
C3661	C366	0.101300	0.212100	0.341600
O1841	O184	0.040400	0.772000	0.831200
C3671	C367	0.062600	0.731500	0.818700
C3681	C368	0.101300	0.712100	0.841600
O1851	O185	0.459600	0.728000	0.831200
C3691	C369	0.437400	0.768500	0.818700
C3701	C370	0.398700	0.787900	0.841600
O1861	O186	0.459600	0.228000	0.331200
C3711	C371	0.437400	0.268500	0.318700
C3721	C372	0.398700	0.287900	0.341600
O1871	O187	0.959600	0.728000	0.331200
C3731	C373	0.937400	0.768500	0.318700
C3741	C374	0.898700	0.787900	0.341600
O1881	O188	0.959600	0.228000	0.831200
C3751	C375	0.937400	0.268500	0.818700
C3761	C376	0.898700	0.287900	0.841600
O1891	O189	0.459600	0.272000	0.168800
C3771	C377	0.437400	0.231500	0.181300
C3781	C378	0.398700	0.212100	0.158400
O1901	O190	0.459600	0.772000	0.668800
C3791	C379	0.437400	0.731500	0.681300
C3801	C380	0.398700	0.712100	0.658400
O1911	O191	0.959600	0.272000	0.668800
C3811	C381	0.937400	0.231500	0.681300
C3821	C382	0.898700	0.212100	0.658400
O1921	O192	0.959600	0.772000	0.168800
C3831	C383	0.937400	0.731500	0.181300
C3841	C384	0.898700	0.712100	0.158400
Cu11	Cu1	0.250000	0.250000	0.500000
Cu21	Cu2	0.250000	0.750000	0.000000
Cu31	Cu3	0.750000	0.750000	0.500000
Cu41	Cu4	0.750000	0.250000	0.000000
Cu51	Cu5	0.750000	0.250000	0.500000
Cu61	Cu6	0.750000	0.750000	0.000000
Cu71	Cu7	0.250000	0.250000	0.000000
Cu81	Cu8	0.250000	0.750000	0.500000
Cu91	Cu9	0.500000	0.250000	0.250000
Cu101	Cu10	0.000000	0.250000	0.750000
Cu111	Cu11	0.500000	0.750000	0.750000
Cu121	Cu12	0.000000	0.750000	0.250000
Cu131	Cu13	0.500000	0.750000	0.250000
Cu141	Cu14	0.000000	0.750000	0.750000
Cu151	Cu15	0.000000	0.250000	0.250000
Cu161	Cu16	0.500000	0.250000	0.750000
Cu171	Cu17	0.250000	0.500000	0.250000
Cu181	Cu18	0.250000	0.000000	0.750000
Cu191	Cu19	0.750000	0.500000	0.750000
Cu201	Cu20	0.750000	0.000000	0.250000
Cu211	Cu21	0.250000	0.500000	0.750000
Cu221	Cu22	0.250000	0.000000	0.250000
Cu231	Cu23	0.750000	0.500000	0.250000
Cu241	Cu24	0.750000	0.000000	0.750000
Cu251	Cu25	0.193850	0.306150	0.500000
Cu261	Cu26	0.193850	0.806150	0.000000
Cu271	Cu27	0.806150	0.693850	0.500000
Cu281	Cu28	0.806150	0.193850	0.000000
Cu291	Cu29	0.806150	0.306150	0.500000
Cu301	Cu30	0.806150	0.806150	0.000000
Cu311	Cu31	0.193850	0.693850	0.500000
Cu321	Cu32	0.193850	0.193850	0.000000
Cu331	Cu33	0.500000	0.193850	0.306150
Cu341	Cu34	0.000000	0.193850	0.806150
Cu351	Cu35	0.500000	0.806150	0.693850
Cu361	Cu36	0.000000	0.806150	0.193850
Cu371	Cu37	0.500000	0.806150	0.306150
Cu381	Cu38	0.000000	0.806150	0.806150
Cu391	Cu39	0.500000	0.193850	0.693850
Cu401	Cu40	0.000000	0.193850	0.193850
Cu411	Cu41	0.306150	0.500000	0.193850
Cu421	Cu42	0.306150	0.000000	0.693850
Cu431	Cu43	0.693850	0.500000	0.806150
Cu441	Cu44	0.693850	0.000000	0.306150
Cu451	Cu45	0.306150	0.500000	0.806150
Cu461	Cu46	0.306150	0.000000	0.306150
Cu471	Cu47	0.693850	0.500000	0.193850
Cu481	Cu48	0.693850	0.000000	0.693850
Cu491	Cu49	0.306150	0.193850	0.500000
Cu501	Cu50	0.306150	0.693850	0.000000
Cu511	Cu51	0.693850	0.806150	0.500000
Cu521	Cu52	0.693850	0.306150	0.000000
Cu531	Cu53	0.306150	0.806150	0.500000
Cu541	Cu54	0.306150	0.306150	0.000000
Cu551	Cu55	0.693850	0.193850	0.500000
Cu561	Cu56	0.693850	0.693850	0.000000
Cu571	Cu57	0.193850	0.500000	0.693850
Cu581	Cu58	0.193850	0.000000	0.193850
Cu591	Cu59	0.806150	0.500000	0.306150
Cu601	Cu60	0.806150	0.000000	0.806150
Cu611	Cu61	0.806150	0.500000	0.693850
Cu621	Cu62	0.806150	0.000000	0.193850
Cu631	Cu63	0.193850	0.500000	0.306150
Cu641	Cu64	0.193850	0.000000	0.806150
Cu651	Cu65	0.500000	0.306150	0.806150
Cu661	Cu66	0.000000	0.306150	0.306150
Cu671	Cu67	0.500000	0.693850	0.193850
Cu681	Cu68	0.000000	0.693850	0.693850
Cu691	Cu69	0.500000	0.306150	0.193850
Cu701	Cu70	0.000000	0.306150	0.693850
Cu711	Cu71	0.500000	0.693850	0.806150
Cu721	Cu72	0.000000	0.693850	0.306150
O1931	O193	0.219300	0.219300	0.456300
C3851	C385	0.175200	0.175200	0.383200
O1941	O194	0.219300	0.719300	0.956300
C3861	C386	0.175200	0.675200	0.883200
O1951	O195	0.719300	0.219300	0.956300
C3871	C387	0.675200	0.175200	0.883200
O1961	O196	0.719300	0.719300	0.456300
C3881	C388	0.675200	0.675200	0.383200
O1971	O197	0.780700	0.780700	0.456300
C3891	C389	0.824800	0.824800	0.383200
O1981	O198	0.780700	0.280700	0.956300
C3901	C390	0.824800	0.324800	0.883200
O1991	O199	0.280700	0.780700	0.956300
C3911	C391	0.324800	0.824800	0.883200
O2001	O200	0.280700	0.280700	0.456300
C3921	C392	0.324800	0.324800	0.383200
O2011	O201	0.780700	0.219300	0.543700
C3931	C393	0.824800	0.175200	0.616800
O2021	O202	0.780700	0.719300	0.043700
C3941	C394	0.824800	0.675200	0.116800
O2031	O203	0.280700	0.219300	0.043700
C3951	C395	0.324800	0.175200	0.116800
O2041	O204	0.280700	0.719300	0.543700
C3961	C396	0.324800	0.675200	0.616800
O2051	O205	0.219300	0.780700	0.543700
C3971	C397	0.175200	0.824800	0.616800
O2061	O206	0.219300	0.280700	0.043700
C3981	C398	0.175200	0.324800	0.116800
O2071	O207	0.719300	0.780700	0.043700
C3991	C399	0.675200	0.824800	0.116800
O2081	O208	0.719300	0.280700	0.543700
C4001	C400	0.675200	0.324800	0.616800
O2091	O209	0.456300	0.219300	0.219300
C4011	C401	0.383200	0.175200	0.175200
O2101	O210	0.456300	0.719300	0.719300
C4021	C402	0.383200	0.675200	0.675200
O2111	O211	0.956300	0.219300	0.719300
C4031	C403	0.883200	0.175200	0.675200
O2121	O212	0.956300	0.719300	0.219300
C4041	C404	0.883200	0.675200	0.175200
O2131	O213	0.456300	0.780700	0.780700
C4051	C405	0.383200	0.824800	0.824800
O2141	O214	0.456300	0.280700	0.280700
C4061	C406	0.383200	0.324800	0.324800
O2151	O215	0.956300	0.780700	0.280700
C4071	C407	0.883200	0.824800	0.324800
O2161	O216	0.956300	0.280700	0.780700
C4081	C408	0.883200	0.324800	0.824800
O2171	O217	0.543700	0.780700	0.219300
C4091	C409	0.616800	0.824800	0.175200
O2181	O218	0.543700	0.280700	0.719300
C4101	C410	0.616800	0.324800	0.675200
O2191	O219	0.043700	0.780700	0.719300
C4111	C411	0.116800	0.824800	0.675200
O2201	O220	0.043700	0.280700	0.219300
C4121	C412	0.116800	0.324800	0.175200
O2211	O221	0.543700	0.219300	0.780700
C4131	C413	0.616800	0.175200	0.824800
O2221	O222	0.543700	0.719300	0.280700
C4141	C414	0.616800	0.675200	0.324800
O2231	O223	0.043700	0.219300	0.280700
C4151	C415	0.116800	0.175200	0.324800
O2241	O224	0.043700	0.719300	0.780700
C4161	C416	0.116800	0.675200	0.824800
O2251	O225	0.219300	0.456300	0.219300
C4171	C417	0.175200	0.383200	0.175200
O2261	O226	0.219300	0.956300	0.719300
C4181	C418	0.175200	0.883200	0.675200
O2271	O227	0.719300	0.456300	0.719300
C4191	C419	0.675200	0.383200	0.675200
O2281	O228	0.719300	0.956300	0.219300
C4201	C420	0.675200	0.883200	0.175200
O2291	O229	0.780700	0.456300	0.780700
C4211	C421	0.824800	0.383200	0.824800
O2301	O230	0.780700	0.956300	0.280700
C4221	C422	0.824800	0.883200	0.324800
O2311	O231	0.280700	0.456300	0.280700
C4231	C423	0.324800	0.383200	0.324800
O2321	O232	0.280700	0.956300	0.780700
C4241	C424	0.324800	0.883200	0.824800
O2331	O233	0.219300	0.543700	0.780700
C4251	C425	0.175200	0.616800	0.824800
O2341	O234	0.219300	0.043700	0.280700
C4261	C426	0.175200	0.116800	0.324800
O2351	O235	0.719300	0.543700	0.280700
C4271	C427	0.675200	0.616800	0.324800
O2361	O236	0.719300	0.043700	0.780700
C4281	C428	0.675200	0.116800	0.824800
O2371	O237	0.780700	0.543700	0.219300
C4291	C429	0.824800	0.616800	0.175200
O2381	O238	0.780700	0.043700	0.719300
C4301	C430	0.824800	0.116800	0.675200
O2391	O239	0.280700	0.543700	0.719300
C4311	C431	0.324800	0.616800	0.675200
O2401	O240	0.280700	0.043700	0.219300
C4321	C432	0.324800	0.116800	0.175200
O2411	O241	0.219300	0.219300	0.543700
C4331	C433	0.175200	0.175200	0.616800
O2421	O242	0.219300	0.719300	0.043700
C4341	C434	0.175200	0.675200	0.116800
O2431	O243	0.719300	0.219300	0.043700
C4351	C435	0.675200	0.175200	0.116800
O2441	O244	0.719300	0.719300	0.543700
C4361	C436	0.675200	0.675200	0.616800
O2451	O245	0.780700	0.780700	0.543700
C4371	C437	0.824800	0.824800	0.616800
O2461	O246	0.780700	0.280700	0.043700
C4381	C438	0.824800	0.324800	0.116800
O2471	O247	0.280700	0.780700	0.043700
C4391	C439	0.324800	0.824800	0.116800
O2481	O248	0.280700	0.280700	0.543700
C4401	C440	0.324800	0.324800	0.616800
O2491	O249	0.219300	0.780700	0.456300
C4411	C441	0.175200	0.824800	0.383200
O2501	O250	0.219300	0.280700	0.956300
C4421	C442	0.175200	0.324800	0.883200
O2511	O251	0.719300	0.780700	0.956300
C4431	C443	0.675200	0.824800	0.883200
O2521	O252	0.719300	0.280700	0.456300
C4441	C444	0.675200	0.324800	0.383200
O2531	O253	0.780700	0.219300	0.456300
C4451	C445	0.824800	0.175200	0.383200
O2541	O254	0.780700	0.719300	0.956300
C4461	C446	0.824800	0.675200	0.883200
O2551	O255	0.280700	0.219300	0.956300
C4471	C447	0.324800	0.175200	0.883200
O2561	O256	0.280700	0.719300	0.456300
C4481	C448	0.324800	0.675200	0.383200
O2571	O257	0.219300	0.456300	0.780700
C4491	C449	0.175200	0.383200	0.824800
O2581	O258	0.219300	0.956300	0.280700
C4501	C450	0.175200	0.883200	0.324800
O2591	O259	0.719300	0.456300	0.280700
C4511	C451	0.675200	0.383200	0.324800
O2601	O260	0.719300	0.956300	0.780700
C4521	C452	0.675200	0.883200	0.824800
O2611	O261	0.780700	0.456300	0.219300
C4531	C453	0.824800	0.383200	0.175200
O2621	O262	0.780700	0.956300	0.719300
C4541	C454	0.824800	0.883200	0.675200
O2631	O263	0.280700	0.456300	0.719300
C4551	C455	0.324800	0.383200	0.675200
O2641	O264	0.280700	0.956300	0.219300
C4561	C456	0.324800	0.883200	0.175200
O2651	O265	0.780700	0.543700	0.780700
C4571	C457	0.824800	0.616800	0.824800
O2661	O266	0.780700	0.043700	0.280700
C4581	C458	0.824800	0.116800	0.324800
O2671	O267	0.280700	0.543700	0.280700
C4591	C459	0.324800	0.616800	0.324800
O2681	O268	0.280700	0.043700	0.780700
C4601	C460	0.324800	0.116800	0.824800
O2691	O269	0.219300	0.543700	0.219300
C4611	C461	0.175200	0.616800	0.175200
O2701	O270	0.219300	0.043700	0.719300
C4621	C462	0.175200	0.116800	0.675200
O2711	O271	0.719300	0.543700	0.719300
C4631	C463	0.675200	0.616800	0.675200
O2721	O272	0.719300	0.043700	0.219300
C4641	C464	0.675200	0.116800	0.175200
O2731	O273	0.456300	0.219300	0.780700
C4651	C465	0.383200	0.175200	0.824800
O2741	O274	0.456300	0.719300	0.280700
C4661	C466	0.383200	0.675200	0.324800
O2751	O275	0.956300	0.219300	0.280700
C4671	C467	0.883200	0.175200	0.324800
O2761	O276	0.956300	0.719300	0.780700
C4681	C468	0.883200	0.675200	0.824800
O2771	O277	0.456300	0.780700	0.219300
C4691	C469	0.383200	0.824800	0.175200
O2781	O278	0.456300	0.280700	0.719300
C4701	C470	0.383200	0.324800	0.675200
O2791	O279	0.956300	0.780700	0.719300
C4711	C471	0.883200	0.824800	0.675200
O2801	O280	0.956300	0.280700	0.219300
C4721	C472	0.883200	0.324800	0.175200
O2811	O281	0.543700	0.219300	0.219300
C4731	C473	0.616800	0.175200	0.175200
O2821	O282	0.543700	0.719300	0.719300
C4741	C474	0.616800	0.675200	0.675200
O2831	O283	0.043700	0.219300	0.719300
C4751	C475	0.116800	0.175200	0.675200
O2841	O284	0.043700	0.719300	0.219300
C4761	C476	0.116800	0.675200	0.175200
O2851	O285	0.543700	0.780700	0.780700
C4771	C477	0.616800	0.824800	0.824800
O2861	O286	0.543700	0.280700	0.280700
C4781	C478	0.616800	0.324800	0.324800
O2871	O287	0.043700	0.780700	0.280700
C4791	C479	0.116800	0.824800	0.324800
O2881	O288	0.043700	0.280700	0.780700
C4801	C480	0.116800	0.324800	0.824800
C4811	C481	0.123500	0.236000	0.376500
C4821	C482	0.123500	0.736000	0.876500
C4831	C483	0.876500	0.764000	0.376500
C4841	C484	0.876500	0.264000	0.876500
C4851	C485	0.376500	0.264000	0.376500
C4861	C486	0.876500	0.236000	0.623500
C4871	C487	0.876500	0.736000	0.123500
C4881	C488	0.376500	0.236000	0.123500
C4891	C489	0.123500	0.764000	0.623500
C4901	C490	0.123500	0.264000	0.123500
C4911	C491	0.376500	0.123500	0.236000
C4921	C492	0.376500	0.623500	0.736000
C4931	C493	0.376500	0.876500	0.764000
C4941	C494	0.376500	0.376500	0.264000
C4951	C495	0.623500	0.876500	0.236000
C4961	C496	0.623500	0.376500	0.736000
C4971	C497	0.123500	0.376500	0.236000
C4981	C498	0.623500	0.123500	0.764000
C4991	C499	0.623500	0.623500	0.264000
C5001	C500	0.123500	0.123500	0.264000
C5011	C501	0.236000	0.376500	0.123500
C5021	C502	0.736000	0.376500	0.623500
C5031	C503	0.764000	0.376500	0.876500
C5041	C504	0.264000	0.376500	0.376500
C5051	C505	0.236000	0.623500	0.876500
C5061	C506	0.236000	0.123500	0.376500
C5071	C507	0.736000	0.623500	0.376500
C5081	C508	0.764000	0.623500	0.123500
C5091	C509	0.264000	0.623500	0.623500
C5101	C510	0.264000	0.123500	0.123500
C5111	C511	0.236000	0.123500	0.623500
C5121	C512	0.736000	0.123500	0.123500
C5131	C513	0.764000	0.876500	0.623500
C5141	C514	0.764000	0.376500	0.123500
C5151	C515	0.264000	0.876500	0.123500
C5161	C516	0.236000	0.876500	0.376500
C5171	C517	0.736000	0.876500	0.876500
C5181	C518	0.736000	0.376500	0.376500
C5191	C519	0.764000	0.123500	0.376500
C5201	C520	0.264000	0.123500	0.876500
C5211	C521	0.123500	0.376500	0.764000
C5221	C522	0.123500	0.876500	0.264000
C5231	C523	0.876500	0.376500	0.236000
C5241	C524	0.876500	0.876500	0.736000
C5251	C525	0.376500	0.376500	0.736000
C5261	C526	0.876500	0.623500	0.764000
C5271	C527	0.876500	0.123500	0.264000
C5281	C528	0.376500	0.123500	0.764000
C5291	C529	0.123500	0.623500	0.236000
C5301	C530	0.123500	0.123500	0.736000
C5311	C531	0.376500	0.236000	0.876500
C5321	C532	0.376500	0.736000	0.376500
C5331	C533	0.376500	0.764000	0.123500
C5341	C534	0.376500	0.264000	0.623500
C5351	C535	0.623500	0.236000	0.123500
C5361	C536	0.623500	0.736000	0.623500
C5371	C537	0.123500	0.736000	0.123500
C5381	C538	0.623500	0.764000	0.876500
C5391	C539	0.623500	0.264000	0.376500
C5401	C540	0.123500	0.764000	0.376500
C5411	C541	0.876500	0.764000	0.623500
C5421	C542	0.876500	0.264000	0.123500
C5431	C543	0.123500	0.236000	0.623500
C5441	C544	0.123500	0.264000	0.876500
C5451	C545	0.876500	0.236000	0.376500
C5461	C546	0.876500	0.736000	0.876500
C5471	C547	0.623500	0.876500	0.764000
C5481	C548	0.623500	0.376500	0.264000
C5491	C549	0.623500	0.123500	0.236000
C5501	C550	0.623500	0.623500	0.736000
C5511	C551	0.376500	0.623500	0.264000
C5521	C552	0.376500	0.876500	0.236000
C5531	C553	0.764000	0.623500	0.876500
C5541	C554	0.264000	0.623500	0.376500
C5551	C555	0.236000	0.623500	0.123500
C5561	C556	0.736000	0.623500	0.623500
C5571	C557	0.264000	0.376500	0.623500
C5581	C558	0.236000	0.376500	0.876500
C5591	C559	0.764000	0.876500	0.376500
C5601	C560	0.264000	0.876500	0.876500
C5611	C561	0.736000	0.123500	0.876500
C5621	C562	0.764000	0.123500	0.623500
C5631	C563	0.236000	0.876500	0.623500
C5641	C564	0.736000	0.876500	0.123500
C5651	C565	0.876500	0.623500	0.236000
C5661	C566	0.876500	0.123500	0.736000
C5671	C567	0.123500	0.623500	0.764000
C5681	C568	0.123500	0.876500	0.736000
C5691	C569	0.876500	0.376500	0.764000
C5701	C570	0.876500	0.876500	0.264000
C5711	C571	0.623500	0.764000	0.123500
C5721	C572	0.623500	0.264000	0.623500
C5731	C573	0.623500	0.236000	0.876500
C5741	C574	0.623500	0.736000	0.376500
C5751	C575	0.376500	0.764000	0.876500
C5761	C576	0.376500	0.736000	0.623500
C5771	C577	0.157800	0.157800	0.342200
C5781	C578	0.842200	0.842200	0.342200
C5791	C579	0.342200	0.342200	0.342200
C5801	C580	0.842200	0.157800	0.657800
C5811	C581	0.342200	0.157800	0.157800
C5821	C582	0.157800	0.842200	0.657800
C5831	C583	0.157800	0.342200	0.157800
C5841	C584	0.342200	0.657800	0.657800
C5851	C585	0.342200	0.842200	0.842200
C5861	C586	0.657800	0.842200	0.157800
C5871	C587	0.657800	0.342200	0.657800
C5881	C588	0.657800	0.157800	0.842200
C5891	C589	0.657800	0.657800	0.342200
C5901	C590	0.842200	0.342200	0.842200
C5911	C591	0.157800	0.657800	0.842200
C5921	C592	0.842200	0.657800	0.157800
C5931	C593	0.157800	0.157800	0.657800
C5941	C594	0.842200	0.842200	0.657800
C5951	C595	0.842200	0.342200	0.157800
C5961	C596	0.342200	0.842200	0.157800
C5971	C597	0.157800	0.842200	0.342200
C5981	C598	0.842200	0.157800	0.342200
C5991	C599	0.342200	0.657800	0.342200
C6001	C600	0.157800	0.342200	0.842200
C6011	C601	0.342200	0.342200	0.657800
C6021	C602	0.842200	0.657800	0.842200
C6031	C603	0.342200	0.157800	0.842200
C6041	C604	0.157800	0.657800	0.157800
C6051	C605	0.657800	0.157800	0.157800
C6061	C606	0.657800	0.657800	0.657800
C6071	C607	0.657800	0.842200	0.842200
C6081	C608	0.657800	0.342200	0.342200
