data_LIQCUK_clean_PM
_symmetry_space_group_name_H-M	'P1'
_cell_length_a	9.874300
_cell_length_b	17.731500
_cell_length_c	17.731500
_cell_angle_alpha	63.364400
_cell_angle_beta	79.302400
_cell_angle_gamma	100.698000
_symmetry_Int_Tables_number 1

loop_
_symmetry_equiv_pos_as_xyz
'x,y,z'

loop_
_atom_site_label
_atom_site_type_symbol
_atom_site_fract_x
_atom_site_fract_y
_atom_site_fract_z
Ag11	Ag1	0.205450	0.242170	0.425170
Ag21	Ag2	0.630620	0.425170	0.332660
Ag31	Ag3	0.963280	0.332660	0.242170
Ag41	Ag4	0.794550	0.757830	0.574830
Ag51	Ag5	0.369380	0.574830	0.667340
Ag61	Ag6	0.036720	0.667340	0.757830
H11	H1	0.115200	0.170300	0.180300
H21	H2	0.958100	0.173300	0.220500
H31	H3	0.869800	0.016900	0.303500
H41	H4	0.939100	0.046200	0.201700
H51	H5	0.151400	0.015200	0.228900
H61	H6	0.015600	0.928700	0.295700
H71	H7	0.175100	0.955900	0.372400
H81	H8	0.018600	0.960300	0.411000
H91	H9	0.194500	0.082300	0.392000
H101	H10	0.267000	0.112000	0.290300
H111	H11	0.981500	0.109200	0.362800
H121	H12	0.381000	0.336900	0.208300
H131	H13	0.333600	0.257900	0.188700
H141	H14	0.593000	0.419100	0.988100
H151	H15	0.542200	0.369300	0.094300
H161	H16	0.278100	0.489900	0.968300
H171	H17	0.426400	0.494300	0.908500
H181	H18	0.295500	0.180300	0.649400
H191	H19	0.178600	0.220500	0.606200
H201	H20	0.173300	0.303500	0.679600
H211	H21	0.140800	0.201700	0.752100
H221	H22	0.380300	0.228900	0.755900
H231	H23	0.311300	0.295700	0.775600
H241	H24	0.547500	0.372400	0.671700
H251	H25	0.429600	0.411000	0.628700
H261	H26	0.586500	0.392000	0.525700
H271	H27	0.557300	0.290300	0.597700
H281	H28	0.344300	0.362800	0.528000
H291	H29	0.589300	0.208300	0.454800
H301	H30	0.522300	0.188700	0.553400
H311	H31	0.581100	0.988100	0.592800
H321	H32	0.636500	0.094300	0.536400
H331	H33	0.246400	0.968300	0.541800
H341	H34	0.334900	0.908500	0.597200
H351	H35	0.944900	0.649400	0.170300
H361	H36	0.784800	0.606200	0.173300
H371	H37	0.852900	0.679600	0.016900
H381	H38	0.892900	0.752100	0.046200
H391	H39	0.136200	0.755900	0.015200
H401	H40	0.086900	0.775600	0.928700
H411	H41	0.219200	0.671700	0.955900
H421	H42	0.058300	0.628700	0.960300
H431	H43	0.112200	0.525700	0.082300
H441	H44	0.155000	0.597700	0.112000
H451	H45	0.872300	0.528000	0.109200
H461	H46	0.044100	0.454800	0.336900
H471	H47	0.075700	0.553400	0.257900
H481	H48	0.173900	0.592800	0.419100
H491	H49	0.172900	0.536400	0.369300
H501	H50	0.788200	0.541800	0.489900
H511	H51	0.932100	0.597200	0.494300
H521	H52	0.884800	0.829700	0.819700
H531	H53	0.041900	0.826700	0.779500
H541	H54	0.130200	0.983100	0.696500
H551	H55	0.060900	0.953800	0.798300
H561	H56	0.848600	0.984800	0.771100
H571	H57	0.984400	0.071300	0.704300
H581	H58	0.824900	0.044100	0.627600
H591	H59	0.981400	0.039700	0.589000
H601	H60	0.805500	0.917700	0.608000
H611	H61	0.733000	0.888000	0.709700
H621	H62	0.018500	0.890800	0.637200
H631	H63	0.619000	0.663100	0.791700
H641	H64	0.666400	0.742100	0.811300
H651	H65	0.407000	0.580900	0.011900
H661	H66	0.457800	0.630700	0.905700
H671	H67	0.721900	0.510100	0.031700
H681	H68	0.573600	0.505700	0.091500
H691	H69	0.704500	0.819700	0.350600
H701	H70	0.821400	0.779500	0.393800
H711	H71	0.826700	0.696500	0.320400
H721	H72	0.859200	0.798300	0.247900
H731	H73	0.619700	0.771100	0.244100
H741	H74	0.688700	0.704300	0.224400
H751	H75	0.452500	0.627600	0.328300
H761	H76	0.570400	0.589000	0.371300
H771	H77	0.413500	0.608000	0.474300
H781	H78	0.442700	0.709700	0.402300
H791	H79	0.655700	0.637200	0.472000
H801	H80	0.410700	0.791700	0.545200
H811	H81	0.477700	0.811300	0.446600
H821	H82	0.418900	0.011900	0.407200
H831	H83	0.363500	0.905700	0.463600
H841	H84	0.753600	0.031700	0.458200
H851	H85	0.665100	0.091500	0.402800
H861	H86	0.055100	0.350600	0.829700
H871	H87	0.215200	0.393800	0.826700
H881	H88	0.147100	0.320400	0.983100
H891	H89	0.107100	0.247900	0.953800
H901	H90	0.863800	0.244100	0.984800
H911	H91	0.913100	0.224400	0.071300
H921	H92	0.780800	0.328300	0.044100
H931	H93	0.941700	0.371300	0.039700
H941	H94	0.887800	0.474300	0.917700
H951	H95	0.845000	0.402300	0.888000
H961	H96	0.127700	0.472000	0.890800
H971	H97	0.955900	0.545200	0.663100
H981	H98	0.924300	0.446600	0.742100
H991	H99	0.826100	0.407200	0.580900
H1001	H100	0.827100	0.463600	0.630700
H1011	H101	0.211800	0.458200	0.510100
H1021	H102	0.067900	0.402800	0.505700
C11	C1	0.028870	0.140010	0.233500
C21	C2	0.961610	0.044880	0.254350
C31	C3	0.063200	0.990390	0.279990
C41	C4	0.105620	0.990020	0.358460
C51	C5	0.174070	0.084150	0.338740
C61	C6	0.072270	0.139190	0.311580
C71	C7	0.301790	0.303980	0.197310
C81	C8	0.274830	0.367470	0.113080
C91	C9	0.541660	0.421330	0.040250
C101	C10	0.381060	0.494130	0.963350
C111	C11	0.262370	0.233500	0.626490
C121	C12	0.215960	0.254350	0.700770
C131	C13	0.343190	0.279990	0.729620
C141	C14	0.464080	0.358460	0.651520
C151	C15	0.512810	0.338740	0.577110
C161	C16	0.383850	0.311580	0.549230
C171	C17	0.499100	0.197310	0.498710
C181	C18	0.387910	0.113080	0.519450
C191	C19	0.581910	0.040250	0.538420
C201	C20	0.344410	0.963350	0.542520
C211	C21	0.888860	0.626490	0.140010
C221	C22	0.916730	0.700770	0.044880
C231	C23	0.072810	0.729620	0.990390
C241	C24	0.115600	0.651520	0.990020
C251	C25	0.089920	0.577110	0.084150
C261	C26	0.933080	0.549230	0.139190
C271	C27	0.997810	0.498710	0.303980
C281	C28	0.907360	0.519450	0.367470
C291	C29	0.120330	0.538420	0.421330
C301	C30	0.886930	0.542520	0.494130
C311	C31	0.971130	0.859990	0.766500
C321	C32	0.038390	0.955120	0.745650
C331	C33	0.936800	0.009610	0.720010
C341	C34	0.894380	0.009980	0.641540
C351	C35	0.825930	0.915850	0.661260
C361	C36	0.927730	0.860810	0.688420
C371	C37	0.698210	0.696020	0.802690
C381	C38	0.725170	0.632530	0.886920
C391	C39	0.458340	0.578670	0.959750
C401	C40	0.618940	0.505870	0.036650
C411	C41	0.737630	0.766500	0.373510
C421	C42	0.784040	0.745650	0.299230
C431	C43	0.656810	0.720010	0.270380
C441	C44	0.535920	0.641540	0.348480
C451	C45	0.487190	0.661260	0.422890
C461	C46	0.616150	0.688420	0.450770
C471	C47	0.500900	0.802690	0.501290
C481	C48	0.612090	0.886920	0.480550
C491	C49	0.418090	0.959750	0.461580
C501	C50	0.655590	0.036650	0.457480
C511	C51	0.111140	0.373510	0.859990
C521	C52	0.083270	0.299230	0.955120
C531	C53	0.927190	0.270380	0.009610
C541	C54	0.884400	0.348480	0.009980
C551	C55	0.910080	0.422890	0.915850
C561	C56	0.066920	0.450770	0.860810
C571	C57	0.002190	0.501290	0.696020
C581	C58	0.092640	0.480550	0.632530
C591	C59	0.879670	0.461580	0.578670
C601	C60	0.113070	0.457480	0.505870
S11	S1	0.142570	0.251160	0.293380
S21	S2	0.435950	0.293380	0.455460
S31	S3	0.891410	0.455460	0.251160
S41	S4	0.857430	0.748840	0.706620
S51	S5	0.564050	0.706620	0.544540
S61	S6	0.108590	0.544540	0.748840
N11	N1	0.391730	0.418020	0.041110
N21	N2	0.432840	0.041110	0.540870
N31	N3	0.973710	0.540870	0.418020
N41	N4	0.608270	0.581980	0.958890
N51	N5	0.567160	0.958890	0.459130
N61	N6	0.026290	0.459130	0.581980
O11	O1	0.152690	0.372640	0.109790
O21	O2	0.262480	0.109790	0.517570
O31	O3	0.780050	0.517570	0.372640
O41	O4	0.847310	0.627360	0.890210
O51	O5	0.737520	0.890210	0.482430
O61	O6	0.219950	0.482430	0.627360
