data_LIQJEC_clean_PM
_symmetry_space_group_name_H-M	'P1'
_cell_length_a	14.870000
_cell_length_b	19.110100
_cell_length_c	30.659000
_cell_angle_alpha	100.493000
_cell_angle_beta	90.000000
_cell_angle_gamma	112.896000
_symmetry_Int_Tables_number 1

loop_
_symmetry_equiv_pos_as_xyz
'x,y,z'

loop_
_atom_site_label
_atom_site_type_symbol
_atom_site_fract_x
_atom_site_fract_y
_atom_site_fract_z
Zn11	Zn1	0.968440	0.222080	0.172700
Zn21	Zn2	0.579090	0.410980	0.848470
Zn31	Zn3	0.507520	0.818040	0.008200
Zn41	Zn4	0.310520	0.818040	0.508200
Zn51	Zn5	0.831890	0.410980	0.348470
Zn61	Zn6	0.253640	0.222080	0.672700
H11	H1	0.693800	0.335800	0.409800
H21	H2	0.377100	0.720200	0.072000
H31	H3	0.457100	0.057400	0.624200
H41	H4	0.256700	0.363600	0.643700
H51	H5	0.795300	0.316000	0.748000
H61	H6	0.951500	0.271400	0.711600
H71	H7	0.600300	0.057400	0.124200
H81	H8	0.171800	0.285000	0.218300
H91	H9	0.748900	0.385200	0.806700
H101	H10	0.506800	0.182400	0.726000
H111	H11	0.344000	0.215600	0.581300
H121	H12	0.568000	0.347400	0.450900
H131	H13	0.230200	0.611000	0.066900
H141	H14	0.653400	0.970600	0.577500
H151	H15	0.871600	0.215600	0.081300
H161	H16	0.628600	0.557000	0.419900
H171	H17	0.343100	0.720200	0.572000
H181	H18	0.065500	0.117200	0.613900
H191	H19	0.860500	0.298200	0.037200
H201	H20	0.359100	0.461800	0.608800
H211	H21	0.789500	0.534400	0.875300
H221	H22	0.184900	0.619200	0.938900
H231	H23	0.317200	0.970600	0.077500
H241	H24	0.636300	0.385200	0.306700
H251	H25	0.106900	0.363600	0.143700
H261	H26	0.744900	0.534400	0.375300
H271	H27	0.437700	0.298200	0.537200
H281	H28	0.373300	0.716400	0.443200
H291	H29	0.348700	0.878600	0.027300
H301	H30	0.178800	0.074400	0.120800
H311	H31	0.779800	0.252200	0.288700
H321	H32	0.343100	0.716400	0.943200
H331	H33	0.102700	0.461800	0.108800
H341	H34	0.113200	0.285000	0.718300
H351	H35	0.895600	0.074400	0.620800
H361	H36	0.319900	0.271400	0.211600
H371	H37	0.380800	0.611000	0.566900
H381	H38	0.597700	0.932800	0.099100
H391	H39	0.529900	0.878600	0.527300
H401	H40	0.051700	0.117200	0.113900
H411	H41	0.928400	0.557000	0.919900
H421	H42	0.434300	0.619200	0.438900
H431	H43	0.335100	0.932800	0.599100
H441	H44	0.520700	0.316000	0.248000
H451	H45	0.779400	0.347400	0.950900
H461	H46	0.472400	0.252200	0.788700
H471	H47	0.642000	0.335800	0.909800
H481	H48	0.675600	0.182400	0.226000
C11	C1	0.398200	0.913200	0.049600
C21	C2	0.385500	0.381000	0.562300
C31	C3	0.804600	0.162000	0.664900
C41	C4	0.645200	0.091800	0.641100
C51	C5	0.652900	0.238600	0.731400
C61	C6	0.302400	0.352800	0.624500
C71	C7	0.642200	0.341000	0.289200
C81	C8	0.265700	0.175600	0.161200
C91	C9	0.252800	0.633600	0.041700
C101	C10	0.506500	0.192000	0.195600
C111	C11	0.861300	0.459200	0.947600
C121	C12	0.588900	0.969800	0.578200
C131	C13	0.340200	0.696400	0.044200
C141	C14	0.349900	0.267800	0.588100
C151	C15	0.456700	0.027200	0.108800
C161	C16	0.786000	0.500800	0.895200
C171	C17	0.103500	0.144200	0.136500
C181	C18	0.409600	0.636400	0.465400
C191	C19	0.570500	0.027200	0.608800
C201	C20	0.010500	0.433000	0.030100
C211	C21	0.698800	0.341000	0.789200
C221	C22	0.433100	0.538200	0.501500
C231	C23	0.995500	0.381000	0.062300
C241	C24	0.069300	0.245800	0.695500
C251	C25	0.404900	0.604800	0.500800
C261	C26	0.644900	0.513800	0.420500
C271	C27	0.398500	0.313000	0.558500
C281	C28	0.357400	0.162000	0.164900
C291	C29	0.550100	0.949000	0.088800
C301	C30	0.698600	0.383000	0.914600
C311	C31	0.318500	0.695800	0.968800
C321	C32	0.422500	0.433000	0.530100
C331	C33	0.380900	0.969800	0.078200
C341	C34	0.949300	0.468200	0.974600
C351	C35	0.597900	0.459200	0.447600
C361	C36	0.729100	0.301600	0.754900
C371	C37	0.226800	0.636400	0.965400
C381	C38	0.917900	0.267800	0.088100
C391	C39	0.572500	0.301600	0.254900
C401	C40	0.543200	0.016400	0.109200
C411	C41	0.714800	0.500800	0.395200
C421	C42	0.176500	0.245800	0.195500
C431	C43	0.350600	0.409200	0.600300
C441	C44	0.685500	0.192000	0.695600
C451	C45	0.058600	0.409200	0.100300
C461	C46	0.380800	0.633600	0.541700
C471	C47	0.914500	0.313000	0.058500
C481	C48	0.518900	0.468200	0.474600
C491	C49	0.779500	0.390200	0.939300
C501	C50	0.537400	0.266400	0.780000
C511	C51	0.940700	0.123000	0.636800
C521	C52	0.868900	0.513800	0.920500
C531	C53	0.182300	0.123000	0.136800
C541	C54	0.377300	0.695800	0.468800
C551	C55	0.729000	0.266400	0.280000
C561	C56	0.446600	0.091800	0.141100
C571	C57	0.909900	0.175600	0.661200
C581	C58	0.610700	0.390200	0.439300
C591	C59	0.040700	0.144200	0.636500
C601	C60	0.684400	0.383000	0.414600
C611	C61	0.263500	0.237000	0.192700
C621	C62	0.973500	0.237000	0.692700
C631	C63	0.050400	0.352800	0.124500
C641	C64	0.473200	0.016400	0.609200
C651	C65	0.398900	0.949000	0.588800
C661	C66	0.105100	0.538200	0.001500
C671	C67	0.559500	0.224400	0.743800
C681	C68	0.585700	0.238600	0.231400
C691	C69	0.515000	0.913200	0.549600
C701	C70	0.664900	0.224400	0.243800
C711	C71	0.356200	0.696400	0.544200
C721	C72	0.199900	0.604800	0.000800
I11	I1	0.429210	0.337880	0.885650
I21	I2	0.630510	0.783220	0.045100
I31	I3	0.607520	0.524440	0.811440
I41	I4	0.526410	0.863820	0.936130
I51	I5	0.321280	0.314360	0.747270
I61	I6	0.337410	0.863820	0.436130
I71	I7	0.817440	0.100280	0.149370
I81	I8	0.916920	0.524440	0.311440
I91	I9	0.152710	0.783220	0.545100
I101	I10	0.282840	0.100280	0.649370
I111	I11	0.993080	0.314360	0.247270
I121	I12	0.908670	0.337880	0.385650
N11	N1	0.742800	0.442200	0.397300
N21	N2	0.608400	0.325800	0.801600
N31	N3	0.031000	0.529000	0.971200
N41	N4	0.393700	0.490000	0.528900
N51	N5	0.373200	0.724400	0.007600
N61	N6	0.363700	0.101000	0.136400
N71	N7	0.975900	0.285800	0.124900
N81	N8	0.309900	0.285800	0.624900
N91	N9	0.612100	0.126400	0.675000
N101	N10	0.717400	0.325800	0.301600
N111	N11	0.429300	0.211200	0.195400
N121	N12	0.098000	0.202000	0.167400
N131	N13	0.096300	0.490000	0.028900
N141	N14	0.699400	0.442200	0.897300
N151	N15	0.351200	0.724400	0.507600
N161	N16	0.514300	0.126400	0.175000
N171	N17	0.737300	0.101000	0.636400
N181	N18	0.781900	0.211200	0.695400
N191	N19	0.930100	0.422800	0.004300
N201	N20	0.492700	0.422800	0.504300
N211	N21	0.421100	0.905600	0.552500
N221	N22	0.484500	0.905600	0.052500
N231	N23	0.498000	0.529000	0.471200
N241	N24	0.104000	0.202000	0.667400
Zn71	Zn7	0.987200	0.723600	0.042630
Zn81	Zn8	0.736400	0.723600	0.542630
Zn91	Zn9	0.601400	0.914400	0.720200
Zn101	Zn10	0.313000	0.914400	0.220200
Zn111	Zn11	0.058270	0.318940	0.880440
Zn121	Zn12	0.260670	0.318940	0.380440
H491	H49	0.164600	0.845400	0.361100
H501	H50	0.256400	0.864200	0.686400
H511	H51	0.431900	0.696400	0.793200
H521	H52	0.187900	0.235200	0.873200
H531	H53	0.986600	0.106400	0.747400
H541	H54	0.923600	0.738000	0.580100
H551	H55	0.783600	0.874600	0.612500
H561	H56	0.918300	0.148600	0.323200
H571	H57	0.054600	0.958600	0.165800
H581	H58	0.822100	0.762800	0.456100
H591	H59	0.168200	0.413200	0.451000
H601	H60	0.140600	0.525800	0.454100
H611	H61	0.809400	0.596400	0.512200
H621	H62	0.787000	0.596400	0.012200
H631	H63	0.309300	0.525200	0.829300
H641	H64	0.264500	0.696400	0.293200
H651	H65	0.091000	0.874600	0.112500
H661	H66	0.814400	0.738000	0.080100
H671	H67	0.245000	0.413200	0.951000
H681	H68	0.773000	0.819200	0.132500
H691	H69	0.509900	0.044400	0.265400
H701	H70	0.206000	0.918000	0.304500
H711	H71	0.957000	0.194200	0.801500
H721	H72	0.667100	0.047400	0.281200
H731	H73	0.394300	0.838800	0.689100
H741	H74	0.940700	0.762800	0.956100
H751	H75	0.644300	0.585800	0.971600
H761	H76	0.805500	0.762400	0.918400
H771	H77	0.485100	0.755200	0.730100
H781	H78	0.941500	0.585800	0.471600
H791	H79	0.680800	0.845400	0.861100
H801	H80	0.215900	0.525200	0.329300
H811	H81	0.380300	0.047400	0.781200
H821	H82	0.270100	0.755200	0.230100
H831	H83	0.119800	0.106400	0.247400
H841	H84	0.444500	0.838800	0.189100
H851	H85	0.237200	0.194200	0.301500
H861	H86	0.534500	0.044400	0.765400
H871	H87	0.168000	0.421600	0.831800
H881	H88	0.253600	0.421600	0.331800
H891	H89	0.712000	0.918000	0.804500
H901	H90	0.385200	0.525800	0.954100
H911	H91	0.956900	0.762400	0.418400
H921	H92	0.047300	0.235200	0.373200
H931	H93	0.046200	0.819200	0.632500
H941	H94	0.607800	0.864200	0.186400
H951	H95	0.230300	0.148600	0.823200
H961	H96	0.904000	0.958600	0.665800
C731	C73	0.661500	0.967000	0.228100
C741	C74	0.847000	0.636000	0.497000
C751	C75	0.840100	0.832200	0.128500
C761	C76	0.213700	0.442000	0.857200
C771	C77	0.260600	0.777200	0.259200
C781	C78	0.797900	0.729000	0.938900
C791	C79	0.151800	0.213400	0.845000
C801	C80	0.553600	0.703200	0.860100
C811	C81	0.312500	0.901600	0.704400
C821	C82	0.385500	0.010800	0.756900
C831	C83	0.066500	0.947400	0.693700
C841	C84	0.922800	0.627600	0.470100
C851	C85	0.880900	0.947400	0.193700
C861	C86	0.006100	0.116200	0.281100
C871	C87	0.992100	0.832200	0.628500
C881	C88	0.918900	0.783000	0.597200
C891	C89	0.343400	0.503600	0.927400
C901	C90	0.140900	0.603800	0.391400
C911	C91	0.171500	0.189800	0.303500
C921	C92	0.864100	0.783000	0.097200
C931	C93	0.187300	0.826600	0.334300
C941	C94	0.102100	0.133000	0.273000
C951	C95	0.654100	0.872200	0.802600
C961	C96	0.030900	0.133000	0.773000
C971	C97	0.189000	0.754000	0.327200
C981	C98	0.205600	0.504000	0.355500
C991	C99	0.877100	0.734400	0.964200
C1001	C100	0.491300	0.886800	0.205100
C1011	C101	0.625300	0.010800	0.256900
C1021	C102	0.018300	0.189800	0.803500
C1031	C103	0.906900	0.900000	0.155300
C1041	C104	0.298400	0.504000	0.855500
C1051	C105	0.125300	0.050600	0.751500
C1061	C106	0.993100	0.900000	0.655300
C1071	C107	0.495200	0.736400	0.793300
C1081	C108	0.213100	0.980800	0.730400
C1091	C109	0.931100	0.729000	0.438900
C1101	C110	0.967100	0.674800	0.443800
C1111	C111	0.911000	0.914400	0.648800
C1121	C112	0.061600	0.213400	0.345000
C1131	C113	0.475500	0.003400	0.751800
C1141	C114	0.984200	0.157600	0.317300
C1151	C115	0.857300	0.734400	0.464200
C1161	C116	0.043900	0.667400	0.414100
C1171	C117	0.462900	0.603800	0.891400
C1181	C118	0.160200	0.503600	0.427400
C1191	C119	0.789000	0.636000	0.997000
C1201	C120	0.218100	0.872200	0.302600
C1211	C121	0.149600	0.703200	0.360100
C1221	C122	0.704800	0.627600	0.970100
C1231	C123	0.110100	0.116200	0.781100
C1241	C124	0.168100	0.536200	0.390700
C1251	C125	0.368100	0.536200	0.890700
C1261	C126	0.527900	0.003400	0.251800
C1271	C127	0.516600	0.777200	0.759200
C1281	C128	0.589100	0.901600	0.204400
C1291	C129	0.181100	0.437800	0.426100
C1301	C130	0.256700	0.437800	0.926100
C1311	C131	0.839300	0.863200	0.616700
C1321	C132	0.395500	0.886800	0.705100
C1331	C133	0.707700	0.674800	0.943800
C1341	C134	0.228300	0.442000	0.357200
C1351	C135	0.925300	0.050600	0.251500
C1361	C136	0.623500	0.667400	0.914100
C1371	C137	0.305500	0.967000	0.728100
C1381	C138	0.173400	0.157600	0.817300
C1391	C139	0.003400	0.914400	0.148800
C1401	C140	0.767700	0.980800	0.230400
C1411	C141	0.241200	0.736400	0.293300
C1421	C142	0.565000	0.754000	0.827200
C1431	C143	0.639300	0.826600	0.834300
C1441	C144	0.023900	0.863200	0.116700
I131	I13	0.577650	0.824100	0.644780
I141	I14	0.246450	0.824100	0.144780
I151	I15	0.419190	0.358780	0.340680
I161	I16	0.288130	0.039460	0.244800
I171	I17	0.036530	0.275460	0.953500
I181	I18	0.137790	0.796660	0.005000
I191	I19	0.751330	0.039460	0.744800
I201	I20	0.652440	0.610080	0.580540
I211	I21	0.939590	0.358780	0.840680
I221	I22	0.238930	0.275460	0.453500
I231	I23	0.658870	0.796660	0.505000
I241	I24	0.957640	0.610080	0.080540
N251	N25	0.585200	0.849400	0.769300
N261	N26	0.952500	0.006200	0.220400
N271	N27	0.469600	0.645000	0.859900
N281	N28	0.830600	0.038600	0.260400
N291	N29	0.831700	0.701000	0.500200
N301	N30	0.217600	0.408600	0.391900
N311	N31	0.536200	0.612800	0.917600
N321	N32	0.175400	0.645000	0.359900
N331	N33	0.958900	0.799600	0.091200
N341	N34	0.869300	0.701000	0.000200
N351	N35	0.053700	0.006200	0.720400
N361	N36	0.083600	0.239000	0.835300
N371	N37	0.145100	0.933000	0.699000
N381	N38	0.081800	0.717400	0.385300
N391	N39	0.155400	0.239000	0.335300
N401	N40	0.264200	0.849400	0.269300
N411	N41	0.477300	0.938800	0.727900
N421	N42	0.191000	0.408600	0.891900
N431	N43	0.635600	0.717400	0.885300
N441	N44	0.208000	0.038600	0.760400
N451	N45	0.787900	0.933000	0.199000
N461	N46	0.840700	0.799600	0.591200
N471	N47	0.076600	0.612800	0.417600
N481	N48	0.461500	0.938800	0.227900
