data_LIRFIB_clean_PM
_symmetry_space_group_name_H-M	'P1'
_cell_length_a	15.952000
_cell_length_b	15.952000
_cell_length_c	15.952000
_cell_angle_alpha	90.000000
_cell_angle_beta	90.000000
_cell_angle_gamma	90.000000
_symmetry_Int_Tables_number 1

loop_
_symmetry_equiv_pos_as_xyz
'x,y,z'

loop_
_atom_site_label
_atom_site_type_symbol
_atom_site_fract_x
_atom_site_fract_y
_atom_site_fract_z
O11	O1	0.140000	0.116500	0.254500
O21	O2	0.136700	0.014800	0.350200
O31	O3	0.136000	0.008400	0.131900
O41	O4	0.140200	0.900200	0.219700
C11	C1	0.138900	0.040100	0.278200
C21	C2	0.138500	0.974800	0.204600
O51	O5	0.360000	0.883500	0.754500
O61	O6	0.363300	0.985200	0.850200
O71	O7	0.364000	0.991600	0.631900
O81	O8	0.359800	0.099800	0.719700
C31	C3	0.361100	0.959900	0.778200
C41	C4	0.361500	0.025200	0.704600
O91	O9	0.860000	0.616500	0.245500
O101	O10	0.863300	0.514800	0.149800
O111	O11	0.864000	0.508400	0.368100
O121	O12	0.859800	0.400200	0.280300
C51	C5	0.861100	0.540100	0.221800
C61	C6	0.861500	0.474800	0.295400
O131	O13	0.640000	0.383500	0.745500
O141	O14	0.636700	0.485200	0.649800
O151	O15	0.636000	0.491600	0.868100
O161	O16	0.640200	0.599800	0.780300
C71	C7	0.638900	0.459900	0.721800
C81	C8	0.638500	0.525200	0.795400
O171	O17	0.254500	0.140000	0.116500
O181	O18	0.350200	0.136700	0.014800
O191	O19	0.131900	0.136000	0.008400
O201	O20	0.219700	0.140200	0.900200
C91	C9	0.278200	0.138900	0.040100
C101	C10	0.204600	0.138500	0.974800
O211	O21	0.754500	0.360000	0.883500
O221	O22	0.850200	0.363300	0.985200
O231	O23	0.631900	0.364000	0.991600
O241	O24	0.719700	0.359800	0.099800
C111	C11	0.778200	0.361100	0.959900
C121	C12	0.704600	0.361500	0.025200
O251	O25	0.245500	0.860000	0.616500
O261	O26	0.149800	0.863300	0.514800
O271	O27	0.368100	0.864000	0.508400
O281	O28	0.280300	0.859800	0.400200
C131	C13	0.221800	0.861100	0.540100
C141	C14	0.295400	0.861500	0.474800
O291	O29	0.745500	0.640000	0.383500
O301	O30	0.649800	0.636700	0.485200
O311	O31	0.868100	0.636000	0.491600
O321	O32	0.780300	0.640200	0.599800
C151	C15	0.721800	0.638900	0.459900
C161	C16	0.795400	0.638500	0.525200
O331	O33	0.116500	0.254500	0.140000
O341	O34	0.014800	0.350200	0.136700
O351	O35	0.008400	0.131900	0.136000
O361	O36	0.900200	0.219700	0.140200
C171	C17	0.040100	0.278200	0.138900
C181	C18	0.974800	0.204600	0.138500
O371	O37	0.883500	0.754500	0.360000
O381	O38	0.985200	0.850200	0.363300
O391	O39	0.991600	0.631900	0.364000
O401	O40	0.099800	0.719700	0.359800
C191	C19	0.959900	0.778200	0.361100
C201	C20	0.025200	0.704600	0.361500
O411	O41	0.616500	0.245500	0.860000
O421	O42	0.514800	0.149800	0.863300
O431	O43	0.508400	0.368100	0.864000
O441	O44	0.400200	0.280300	0.859800
C211	C21	0.540100	0.221800	0.861100
C221	C22	0.474800	0.295400	0.861500
O451	O45	0.383500	0.745500	0.640000
O461	O46	0.485200	0.649800	0.636700
O471	O47	0.491600	0.868100	0.636000
O481	O48	0.599800	0.780300	0.640200
C231	C23	0.459900	0.721800	0.638900
C241	C24	0.525200	0.795400	0.638500
Cr11	Cr1	0.131950	0.131950	0.131950
Cr21	Cr2	0.368050	0.868050	0.631950
Cr31	Cr3	0.868050	0.631950	0.368050
Cr41	Cr4	0.631950	0.368050	0.868050
Na11	Na1	0.133700	0.866300	0.366300
Na21	Na2	0.366300	0.133700	0.866300
Na31	Na3	0.866300	0.366300	0.133700
Na41	Na4	0.633700	0.633700	0.633700
