data_LIRNOR_clean_PM
_symmetry_space_group_name_H-M	'P1'
_cell_length_a	24.059500
_cell_length_b	24.059500
_cell_length_c	30.986000
_cell_angle_alpha	90.000000
_cell_angle_beta	90.000000
_cell_angle_gamma	90.000000
_symmetry_Int_Tables_number 1

loop_
_symmetry_equiv_pos_as_xyz
'x,y,z'

loop_
_atom_site_label
_atom_site_type_symbol
_atom_site_fract_x
_atom_site_fract_y
_atom_site_fract_z
Zn11	Zn1	0.572450	0.125890	0.122170
C11	C1	0.298160	0.238130	0.077800
C21	C2	0.348300	0.236100	0.048590
H11	H1	0.336200	0.234400	0.018800
H21	H2	0.370000	0.269700	0.052300
C31	C3	0.478370	0.164680	0.081120
C41	C4	0.442250	0.194500	0.048970
H31	H3	0.451100	0.233900	0.049400
H41	H4	0.450100	0.180600	0.020200
C51	C5	0.360780	0.135560	0.038700
H51	H5	0.322100	0.132100	0.047100
H61	H6	0.380500	0.104100	0.050900
C61	C6	0.363940	0.131260	0.989750
C71	C7	0.407900	0.104000	0.969750
H71	H7	0.435300	0.087500	0.986600
C81	C8	0.411400	0.100900	0.925290
H81	H8	0.441600	0.083000	0.912700
C91	C9	0.370770	0.123900	0.899200
C101	C10	0.326500	0.151460	0.919080
H91	H9	0.298900	0.167700	0.902300
C111	C11	0.323490	0.154800	0.963500
H101	H10	0.293700	0.173300	0.976100
C121	C12	0.697400	0.118700	0.108200
H111	H11	0.703700	0.154000	0.119400
C131	C13	0.737400	0.084300	0.094270
H121	H12	0.775500	0.090500	0.094400
C141	C14	0.655600	0.046500	0.086980
H131	H13	0.628200	0.020600	0.080700
C151	C15	0.735800	0.988600	0.060500
C161	C16	0.730100	0.973000	0.016300
N11	N1	0.383350	0.187050	0.058410
N21	N2	0.646270	0.095060	0.103680
N31	N3	0.710310	0.038700	0.079950
O11	O1	0.256680	0.264560	0.065740
O21	O2	0.300900	0.213430	0.114110
O31	O3	0.458820	0.153170	0.117330
O41	O4	0.528100	0.153870	0.071050
Zn21	Zn2	0.072450	0.625890	0.622160
C171	C17	0.798160	0.738130	0.577800
C181	C18	0.848300	0.736100	0.548590
H141	H14	0.836200	0.734400	0.518800
H151	H15	0.870000	0.769700	0.552300
C191	C19	0.978370	0.664680	0.581120
C201	C20	0.942250	0.694500	0.548970
H161	H16	0.951100	0.733900	0.549400
H171	H17	0.950100	0.680600	0.520200
C211	C21	0.860780	0.635560	0.538700
H181	H18	0.822100	0.632100	0.547100
H191	H19	0.880500	0.604100	0.550900
C221	C22	0.863940	0.631260	0.489750
C231	C23	0.907900	0.604000	0.469750
H201	H20	0.935300	0.587500	0.486600
C241	C24	0.911400	0.600900	0.425290
H211	H21	0.941600	0.583000	0.412700
C251	C25	0.870770	0.623900	0.399200
C261	C26	0.826500	0.651460	0.419080
H221	H22	0.798900	0.667700	0.402300
C271	C27	0.823490	0.654800	0.463500
H231	H23	0.793700	0.673300	0.476100
C281	C28	0.197400	0.618700	0.608200
H241	H24	0.203700	0.654000	0.619400
C291	C29	0.237400	0.584300	0.594270
H251	H25	0.275500	0.590500	0.594400
C301	C30	0.155600	0.546500	0.586980
H261	H26	0.128200	0.520600	0.580700
C311	C31	0.235800	0.488600	0.560500
C321	C32	0.230100	0.473000	0.516300
N41	N4	0.883350	0.687050	0.558410
N51	N5	0.146270	0.595060	0.603680
N61	N6	0.210310	0.538700	0.579950
O51	O5	0.756680	0.764560	0.565740
O61	O6	0.800900	0.713430	0.614110
O71	O7	0.958820	0.653170	0.617330
O81	O8	0.028100	0.653870	0.571050
Zn31	Zn3	0.927550	0.874110	0.622160
C331	C33	0.201840	0.761870	0.577800
C341	C34	0.151700	0.763900	0.548590
H271	H27	0.163800	0.765600	0.518800
H281	H28	0.130000	0.730300	0.552300
C351	C35	0.021630	0.835320	0.581120
C361	C36	0.057750	0.805500	0.548970
H291	H29	0.048900	0.766100	0.549400
H301	H30	0.049900	0.819400	0.520200
C371	C37	0.139220	0.864440	0.538700
H311	H31	0.177900	0.867900	0.547100
H321	H32	0.119500	0.895900	0.550900
C381	C38	0.136060	0.868740	0.489750
C391	C39	0.092100	0.896000	0.469750
H331	H33	0.064700	0.912500	0.486600
C401	C40	0.088600	0.899100	0.425290
H341	H34	0.058400	0.917000	0.412700
C411	C41	0.129230	0.876100	0.399200
C421	C42	0.173500	0.848540	0.419080
H351	H35	0.201100	0.832300	0.402300
C431	C43	0.176510	0.845200	0.463500
H361	H36	0.206300	0.826700	0.476100
C441	C44	0.802600	0.881300	0.608200
H371	H37	0.796300	0.846000	0.619400
C451	C45	0.762600	0.915700	0.594270
H381	H38	0.724500	0.909500	0.594400
C461	C46	0.844400	0.953500	0.586980
H391	H39	0.871800	0.979400	0.580700
C471	C47	0.764200	0.011400	0.560500
C481	C48	0.769900	0.027000	0.516300
N71	N7	0.116650	0.812950	0.558410
N81	N8	0.853730	0.904940	0.603680
N91	N9	0.789690	0.961300	0.579950
O91	O9	0.243320	0.735440	0.565740
O101	O10	0.199100	0.786570	0.614110
O111	O11	0.041180	0.846830	0.617330
O121	O12	0.971900	0.846130	0.571050
Zn41	Zn4	0.427550	0.374110	0.122170
C491	C49	0.701840	0.261870	0.077800
C501	C50	0.651700	0.263900	0.048590
H401	H40	0.663800	0.265600	0.018800
H411	H41	0.630000	0.230300	0.052300
C511	C51	0.521630	0.335320	0.081120
C521	C52	0.557750	0.305500	0.048970
H421	H42	0.548900	0.266100	0.049400
H431	H43	0.549900	0.319400	0.020200
C531	C53	0.639220	0.364440	0.038700
H441	H44	0.677900	0.367900	0.047100
H451	H45	0.619500	0.395900	0.050900
C541	C54	0.636060	0.368740	0.989750
C551	C55	0.592100	0.396000	0.969750
H461	H46	0.564700	0.412500	0.986600
C561	C56	0.588600	0.399100	0.925290
H471	H47	0.558400	0.417000	0.912700
C571	C57	0.629230	0.376100	0.899200
C581	C58	0.673500	0.348540	0.919080
H481	H48	0.701100	0.332300	0.902300
C591	C59	0.676510	0.345200	0.963500
H491	H49	0.706300	0.326700	0.976100
C601	C60	0.302600	0.381300	0.108200
H501	H50	0.296300	0.346000	0.119400
C611	C61	0.262600	0.415700	0.094270
H511	H51	0.224500	0.409500	0.094400
C621	C62	0.344400	0.453500	0.086980
H521	H52	0.371800	0.479400	0.080700
C631	C63	0.264200	0.511400	0.060500
C641	C64	0.269900	0.527000	0.016300
N101	N10	0.616650	0.312950	0.058410
N111	N11	0.353730	0.404940	0.103680
N121	N12	0.289690	0.461300	0.079950
O131	O13	0.743320	0.235440	0.065740
O141	O14	0.699100	0.286570	0.114110
O151	O15	0.541180	0.346830	0.117330
O161	O16	0.471900	0.346130	0.071050
Zn51	Zn5	0.124110	0.322450	0.372160
C651	C65	0.011870	0.048160	0.327800
C661	C66	0.013900	0.098300	0.298590
H531	H53	0.015600	0.086200	0.268800
H541	H54	0.980300	0.120000	0.302300
C671	C67	0.085320	0.228370	0.331120
C681	C68	0.055500	0.192250	0.298970
H551	H55	0.016100	0.201100	0.299400
H561	H56	0.069400	0.200100	0.270200
C691	C69	0.114440	0.110780	0.288700
H571	H57	0.117900	0.072100	0.297100
H581	H58	0.145900	0.130500	0.300900
C701	C70	0.118740	0.113940	0.239750
C711	C71	0.146000	0.157900	0.219750
H591	H59	0.162500	0.185300	0.236600
C721	C72	0.149100	0.161400	0.175290
H601	H60	0.167000	0.191600	0.162700
C731	C73	0.126100	0.120770	0.149200
C741	C74	0.098540	0.076500	0.169080
H611	H61	0.082300	0.048900	0.152300
C751	C75	0.095200	0.073490	0.213500
H621	H62	0.076700	0.043700	0.226100
C761	C76	0.131300	0.447400	0.358200
H631	H63	0.096000	0.453700	0.369400
C771	C77	0.165700	0.487400	0.344270
H641	H64	0.159500	0.525500	0.344400
C781	C78	0.203500	0.405600	0.336980
H651	H65	0.229400	0.378200	0.330700
C791	C79	0.261400	0.485800	0.310500
C801	C80	0.277000	0.480100	0.266300
N131	N13	0.062950	0.133350	0.308410
N141	N14	0.154940	0.396270	0.353680
N151	N15	0.211300	0.460310	0.329950
O171	O17	0.985440	0.006680	0.315740
O181	O18	0.036570	0.050900	0.364110
O191	O19	0.096830	0.208820	0.367330
O201	O20	0.096130	0.278100	0.321050
Zn61	Zn6	0.624110	0.822450	0.872160
C811	C81	0.511870	0.548160	0.827800
C821	C82	0.513900	0.598300	0.798590
H661	H66	0.515600	0.586200	0.768800
H671	H67	0.480300	0.620000	0.802300
C831	C83	0.585320	0.728370	0.831120
C841	C84	0.555500	0.692250	0.798970
H681	H68	0.516100	0.701100	0.799400
H691	H69	0.569400	0.700100	0.770200
C851	C85	0.614440	0.610780	0.788700
H701	H70	0.617900	0.572100	0.797100
H711	H71	0.645900	0.630500	0.800900
C861	C86	0.618740	0.613940	0.739750
C871	C87	0.646000	0.657900	0.719750
H721	H72	0.662500	0.685300	0.736600
C881	C88	0.649100	0.661400	0.675290
H731	H73	0.667000	0.691600	0.662700
C891	C89	0.626100	0.620770	0.649200
C901	C90	0.598540	0.576500	0.669080
H741	H74	0.582300	0.548900	0.652300
C911	C91	0.595200	0.573490	0.713500
H751	H75	0.576700	0.543700	0.726100
C921	C92	0.631300	0.947400	0.858200
H761	H76	0.596000	0.953700	0.869400
C931	C93	0.665700	0.987400	0.844270
H771	H77	0.659500	0.025500	0.844400
C941	C94	0.703500	0.905600	0.836980
H781	H78	0.729400	0.878200	0.830700
C951	C95	0.761400	0.985800	0.810500
C961	C96	0.777000	0.980100	0.766300
N161	N16	0.562950	0.633350	0.808410
N171	N17	0.654940	0.896270	0.853680
N181	N18	0.711300	0.960310	0.829950
O211	O21	0.485440	0.506680	0.815740
O221	O22	0.536570	0.550900	0.864110
O231	O23	0.596830	0.708820	0.867330
O241	O24	0.596130	0.778100	0.821050
Zn71	Zn7	0.375890	0.677550	0.872160
C971	C97	0.488130	0.951840	0.827800
C981	C98	0.486100	0.901700	0.798590
H791	H79	0.484400	0.913800	0.768800
H801	H80	0.519700	0.880000	0.802300
C991	C99	0.414680	0.771630	0.831120
C1001	C100	0.444500	0.807750	0.798970
H811	H81	0.483900	0.798900	0.799400
H821	H82	0.430600	0.799900	0.770200
C1011	C101	0.385560	0.889220	0.788700
H831	H83	0.382100	0.927900	0.797100
H841	H84	0.354100	0.869500	0.800900
C1021	C102	0.381260	0.886060	0.739750
C1031	C103	0.354000	0.842100	0.719750
H851	H85	0.337500	0.814700	0.736600
C1041	C104	0.350900	0.838600	0.675290
H861	H86	0.333000	0.808400	0.662700
C1051	C105	0.373900	0.879230	0.649200
C1061	C106	0.401460	0.923500	0.669080
H871	H87	0.417700	0.951100	0.652300
C1071	C107	0.404800	0.926510	0.713500
H881	H88	0.423300	0.956300	0.726100
C1081	C108	0.368700	0.552600	0.858200
H891	H89	0.404000	0.546300	0.869400
C1091	C109	0.334300	0.512600	0.844270
H901	H90	0.340500	0.474500	0.844400
C1101	C110	0.296500	0.594400	0.836980
H911	H91	0.270600	0.621800	0.830700
C1111	C111	0.238600	0.514200	0.810500
C1121	C112	0.223000	0.519900	0.766300
N191	N19	0.437050	0.866650	0.808410
N201	N20	0.345060	0.603730	0.853680
N211	N21	0.288700	0.539690	0.829950
O251	O25	0.514560	0.993320	0.815740
O261	O26	0.463430	0.949100	0.864110
O271	O27	0.403170	0.791180	0.867330
O281	O28	0.403870	0.721900	0.821050
Zn81	Zn8	0.875890	0.177550	0.372160
C1131	C113	0.988130	0.451840	0.327800
C1141	C114	0.986100	0.401700	0.298590
H921	H92	0.984400	0.413800	0.268800
H931	H93	0.019700	0.380000	0.302300
C1151	C115	0.914680	0.271630	0.331120
C1161	C116	0.944500	0.307750	0.298970
H941	H94	0.983900	0.298900	0.299400
H951	H95	0.930600	0.299900	0.270200
C1171	C117	0.885560	0.389220	0.288700
H961	H96	0.882100	0.427900	0.297100
H971	H97	0.854100	0.369500	0.300900
C1181	C118	0.881260	0.386060	0.239750
C1191	C119	0.854000	0.342100	0.219750
H981	H98	0.837500	0.314700	0.236600
C1201	C120	0.850900	0.338600	0.175290
H991	H99	0.833000	0.308400	0.162700
C1211	C121	0.873900	0.379230	0.149200
C1221	C122	0.901460	0.423500	0.169080
H1001	H100	0.917700	0.451100	0.152300
C1231	C123	0.904800	0.426510	0.213500
H1011	H101	0.923300	0.456300	0.226100
C1241	C124	0.868700	0.052600	0.358200
H1021	H102	0.904000	0.046300	0.369400
C1251	C125	0.834300	0.012600	0.344270
H1031	H103	0.840500	0.974500	0.344400
C1261	C126	0.796500	0.094400	0.336980
H1041	H104	0.770600	0.121800	0.330700
C1271	C127	0.738600	0.014200	0.310500
C1281	C128	0.723000	0.019900	0.266300
N221	N22	0.937050	0.366650	0.308410
N231	N23	0.845060	0.103730	0.353680
N241	N24	0.788700	0.039690	0.329950
O291	O29	0.014560	0.493320	0.315740
O301	O30	0.963430	0.449100	0.364110
O311	O31	0.903170	0.291180	0.367330
O321	O32	0.903870	0.221900	0.321050
Zn91	Zn9	0.927550	0.125890	0.877830
C1291	C129	0.201840	0.238130	0.922200
C1301	C130	0.151700	0.236100	0.951410
H1051	H105	0.163800	0.234400	0.981200
H1061	H106	0.130000	0.269700	0.947700
C1311	C131	0.021630	0.164680	0.918880
C1321	C132	0.057750	0.194500	0.951030
H1071	H107	0.048900	0.233900	0.950600
H1081	H108	0.049900	0.180600	0.979800
C1331	C133	0.139220	0.135560	0.961300
H1091	H109	0.177900	0.132100	0.952900
H1101	H110	0.119500	0.104100	0.949100
C1341	C134	0.136060	0.131260	0.010250
C1351	C135	0.092100	0.104000	0.030250
H1111	H111	0.064700	0.087500	0.013400
C1361	C136	0.088600	0.100900	0.074710
H1121	H112	0.058400	0.083000	0.087300
C1371	C137	0.129230	0.123900	0.100800
C1381	C138	0.173500	0.151460	0.080920
H1131	H113	0.201100	0.167700	0.097700
C1391	C139	0.176510	0.154800	0.036500
H1141	H114	0.206300	0.173300	0.023900
C1401	C140	0.802600	0.118700	0.891800
H1151	H115	0.796300	0.154000	0.880600
C1411	C141	0.762600	0.084300	0.905730
H1161	H116	0.724500	0.090500	0.905600
C1421	C142	0.844400	0.046500	0.913020
H1171	H117	0.871800	0.020600	0.919300
C1431	C143	0.764200	0.988600	0.939500
C1441	C144	0.769900	0.973000	0.983700
N251	N25	0.116650	0.187050	0.941590
N261	N26	0.853730	0.095060	0.896320
N271	N27	0.789690	0.038700	0.920050
O331	O33	0.243320	0.264560	0.934260
O341	O34	0.199100	0.213430	0.885890
O351	O35	0.041180	0.153170	0.882670
O361	O36	0.971900	0.153870	0.928950
Zn101	Zn10	0.427550	0.625890	0.377830
C1451	C145	0.701840	0.738130	0.422200
C1461	C146	0.651700	0.736100	0.451410
H1181	H118	0.663800	0.734400	0.481200
H1191	H119	0.630000	0.769700	0.447700
C1471	C147	0.521630	0.664680	0.418880
C1481	C148	0.557750	0.694500	0.451030
H1201	H120	0.548900	0.733900	0.450600
H1211	H121	0.549900	0.680600	0.479800
C1491	C149	0.639220	0.635560	0.461300
H1221	H122	0.677900	0.632100	0.452900
H1231	H123	0.619500	0.604100	0.449100
C1501	C150	0.636060	0.631260	0.510250
C1511	C151	0.592100	0.604000	0.530250
H1241	H124	0.564700	0.587500	0.513400
C1521	C152	0.588600	0.600900	0.574710
H1251	H125	0.558400	0.583000	0.587300
C1531	C153	0.629230	0.623900	0.600800
C1541	C154	0.673500	0.651460	0.580920
H1261	H126	0.701100	0.667700	0.597700
C1551	C155	0.676510	0.654800	0.536500
H1271	H127	0.706300	0.673300	0.523900
C1561	C156	0.302600	0.618700	0.391800
H1281	H128	0.296300	0.654000	0.380600
C1571	C157	0.262600	0.584300	0.405730
H1291	H129	0.224500	0.590500	0.405600
C1581	C158	0.344400	0.546500	0.413020
H1301	H130	0.371800	0.520600	0.419300
C1591	C159	0.264200	0.488600	0.439500
C1601	C160	0.269900	0.473000	0.483700
N281	N28	0.616650	0.687050	0.441590
N291	N29	0.353730	0.595060	0.396320
N301	N30	0.289690	0.538700	0.420050
O371	O37	0.743320	0.764560	0.434260
O381	O38	0.699100	0.713430	0.385890
O391	O39	0.541180	0.653170	0.382670
O401	O40	0.471900	0.653870	0.428950
Zn111	Zn11	0.572450	0.874110	0.377830
C1611	C161	0.298160	0.761870	0.422200
C1621	C162	0.348300	0.763900	0.451410
H1311	H131	0.336200	0.765600	0.481200
H1321	H132	0.370000	0.730300	0.447700
C1631	C163	0.478370	0.835320	0.418880
C1641	C164	0.442250	0.805500	0.451030
H1331	H133	0.451100	0.766100	0.450600
H1341	H134	0.450100	0.819400	0.479800
C1651	C165	0.360780	0.864440	0.461300
H1351	H135	0.322100	0.867900	0.452900
H1361	H136	0.380500	0.895900	0.449100
C1661	C166	0.363940	0.868740	0.510250
C1671	C167	0.407900	0.896000	0.530250
H1371	H137	0.435300	0.912500	0.513400
C1681	C168	0.411400	0.899100	0.574710
H1381	H138	0.441600	0.917000	0.587300
C1691	C169	0.370770	0.876100	0.600800
C1701	C170	0.326500	0.848540	0.580920
H1391	H139	0.298900	0.832300	0.597700
C1711	C171	0.323490	0.845200	0.536500
H1401	H140	0.293700	0.826700	0.523900
C1721	C172	0.697400	0.881300	0.391800
H1411	H141	0.703700	0.846000	0.380600
C1731	C173	0.737400	0.915700	0.405730
H1421	H142	0.775500	0.909500	0.405600
C1741	C174	0.655600	0.953500	0.413020
H1431	H143	0.628200	0.979400	0.419300
C1751	C175	0.735800	0.011400	0.439500
C1761	C176	0.730100	0.027000	0.483700
N311	N31	0.383350	0.812950	0.441590
N321	N32	0.646270	0.904940	0.396320
N331	N33	0.710310	0.961300	0.420050
O411	O41	0.256680	0.735440	0.434260
O421	O42	0.300900	0.786570	0.385890
O431	O43	0.458820	0.846830	0.382670
O441	O44	0.528100	0.846130	0.428950
Zn121	Zn12	0.072450	0.374110	0.877830
C1771	C177	0.798160	0.261870	0.922200
C1781	C178	0.848300	0.263900	0.951410
H1441	H144	0.836200	0.265600	0.981200
H1451	H145	0.870000	0.230300	0.947700
C1791	C179	0.978370	0.335320	0.918880
C1801	C180	0.942250	0.305500	0.951030
H1461	H146	0.951100	0.266100	0.950600
H1471	H147	0.950100	0.319400	0.979800
C1811	C181	0.860780	0.364440	0.961300
H1481	H148	0.822100	0.367900	0.952900
H1491	H149	0.880500	0.395900	0.949100
C1821	C182	0.863940	0.368740	0.010250
C1831	C183	0.907900	0.396000	0.030250
H1501	H150	0.935300	0.412500	0.013400
C1841	C184	0.911400	0.399100	0.074710
H1511	H151	0.941600	0.417000	0.087300
C1851	C185	0.870770	0.376100	0.100800
C1861	C186	0.826500	0.348540	0.080920
H1521	H152	0.798900	0.332300	0.097700
C1871	C187	0.823490	0.345200	0.036500
H1531	H153	0.793700	0.326700	0.023900
C1881	C188	0.197400	0.381300	0.891800
H1541	H154	0.203700	0.346000	0.880600
C1891	C189	0.237400	0.415700	0.905730
H1551	H155	0.275500	0.409500	0.905600
C1901	C190	0.155600	0.453500	0.913020
H1561	H156	0.128200	0.479400	0.919300
C1911	C191	0.235800	0.511400	0.939500
C1921	C192	0.230100	0.527000	0.983700
N341	N34	0.883350	0.312950	0.941590
N351	N35	0.146270	0.404940	0.896320
N361	N36	0.210310	0.461300	0.920050
O451	O45	0.756680	0.235440	0.934260
O461	O46	0.800900	0.286570	0.885890
O471	O47	0.958820	0.346830	0.882670
O481	O48	0.028100	0.346130	0.928950
Zn131	Zn13	0.375890	0.322450	0.627830
C1931	C193	0.488130	0.048160	0.672200
C1941	C194	0.486100	0.098300	0.701410
H1571	H157	0.484400	0.086200	0.731200
H1581	H158	0.519700	0.120000	0.697700
C1951	C195	0.414680	0.228370	0.668880
C1961	C196	0.444500	0.192250	0.701030
H1591	H159	0.483900	0.201100	0.700600
H1601	H160	0.430600	0.200100	0.729800
C1971	C197	0.385560	0.110780	0.711300
H1611	H161	0.382100	0.072100	0.702900
H1621	H162	0.354100	0.130500	0.699100
C1981	C198	0.381260	0.113940	0.760250
C1991	C199	0.354000	0.157900	0.780250
H1631	H163	0.337500	0.185300	0.763400
C2001	C200	0.350900	0.161400	0.824710
H1641	H164	0.333000	0.191600	0.837300
C2011	C201	0.373900	0.120770	0.850800
C2021	C202	0.401460	0.076500	0.830920
H1651	H165	0.417700	0.048900	0.847700
C2031	C203	0.404800	0.073490	0.786500
H1661	H166	0.423300	0.043700	0.773900
C2041	C204	0.368700	0.447400	0.641800
H1671	H167	0.404000	0.453700	0.630600
C2051	C205	0.334300	0.487400	0.655730
H1681	H168	0.340500	0.525500	0.655600
C2061	C206	0.296500	0.405600	0.663020
H1691	H169	0.270600	0.378200	0.669300
C2071	C207	0.238600	0.485800	0.689500
C2081	C208	0.223000	0.480100	0.733700
N371	N37	0.437050	0.133350	0.691590
N381	N38	0.345060	0.396270	0.646320
N391	N39	0.288700	0.460310	0.670050
O491	O49	0.514560	0.006680	0.684260
O501	O50	0.463430	0.050900	0.635890
O511	O51	0.403170	0.208820	0.632670
O521	O52	0.403870	0.278100	0.678950
Zn141	Zn14	0.875890	0.822450	0.127830
C2091	C209	0.988130	0.548160	0.172200
C2101	C210	0.986100	0.598300	0.201410
H1701	H170	0.984400	0.586200	0.231200
H1711	H171	0.019700	0.620000	0.197700
C2111	C211	0.914680	0.728370	0.168880
C2121	C212	0.944500	0.692250	0.201030
H1721	H172	0.983900	0.701100	0.200600
H1731	H173	0.930600	0.700100	0.229800
C2131	C213	0.885560	0.610780	0.211300
H1741	H174	0.882100	0.572100	0.202900
H1751	H175	0.854100	0.630500	0.199100
C2141	C214	0.881260	0.613940	0.260250
C2151	C215	0.854000	0.657900	0.280250
H1761	H176	0.837500	0.685300	0.263400
C2161	C216	0.850900	0.661400	0.324710
H1771	H177	0.833000	0.691600	0.337300
C2171	C217	0.873900	0.620770	0.350800
C2181	C218	0.901460	0.576500	0.330920
H1781	H178	0.917700	0.548900	0.347700
C2191	C219	0.904800	0.573490	0.286500
H1791	H179	0.923300	0.543700	0.273900
C2201	C220	0.868700	0.947400	0.141800
H1801	H180	0.904000	0.953700	0.130600
C2211	C221	0.834300	0.987400	0.155730
H1811	H181	0.840500	0.025500	0.155600
C2221	C222	0.796500	0.905600	0.163020
H1821	H182	0.770600	0.878200	0.169300
C2231	C223	0.738600	0.985800	0.189500
C2241	C224	0.723000	0.980100	0.233700
N401	N40	0.937050	0.633350	0.191590
N411	N41	0.845060	0.896270	0.146320
N421	N42	0.788700	0.960310	0.170050
O531	O53	0.014560	0.506680	0.184260
O541	O54	0.963430	0.550900	0.135890
O551	O55	0.903170	0.708820	0.132670
O561	O56	0.903870	0.778100	0.178950
Zn151	Zn15	0.124110	0.677550	0.127830
C2251	C225	0.011870	0.951840	0.172200
C2261	C226	0.013900	0.901700	0.201410
H1831	H183	0.015600	0.913800	0.231200
H1841	H184	0.980300	0.880000	0.197700
C2271	C227	0.085320	0.771630	0.168880
C2281	C228	0.055500	0.807750	0.201030
H1851	H185	0.016100	0.798900	0.200600
H1861	H186	0.069400	0.799900	0.229800
C2291	C229	0.114440	0.889220	0.211300
H1871	H187	0.117900	0.927900	0.202900
H1881	H188	0.145900	0.869500	0.199100
C2301	C230	0.118740	0.886060	0.260250
C2311	C231	0.146000	0.842100	0.280250
H1891	H189	0.162500	0.814700	0.263400
C2321	C232	0.149100	0.838600	0.324710
H1901	H190	0.167000	0.808400	0.337300
C2331	C233	0.126100	0.879230	0.350800
C2341	C234	0.098540	0.923500	0.330920
H1911	H191	0.082300	0.951100	0.347700
C2351	C235	0.095200	0.926510	0.286500
H1921	H192	0.076700	0.956300	0.273900
C2361	C236	0.131300	0.552600	0.141800
H1931	H193	0.096000	0.546300	0.130600
C2371	C237	0.165700	0.512600	0.155730
H1941	H194	0.159500	0.474500	0.155600
C2381	C238	0.203500	0.594400	0.163020
H1951	H195	0.229400	0.621800	0.169300
C2391	C239	0.261400	0.514200	0.189500
C2401	C240	0.277000	0.519900	0.233700
N431	N43	0.062950	0.866650	0.191590
N441	N44	0.154940	0.603730	0.146320
N451	N45	0.211300	0.539690	0.170050
O571	O57	0.985440	0.993320	0.184260
O581	O58	0.036570	0.949100	0.135890
O591	O59	0.096830	0.791180	0.132670
O601	O60	0.096130	0.721900	0.178950
Zn161	Zn16	0.624110	0.177550	0.627830
C2411	C241	0.511870	0.451840	0.672200
C2421	C242	0.513900	0.401700	0.701410
H1961	H196	0.515600	0.413800	0.731200
H1971	H197	0.480300	0.380000	0.697700
C2431	C243	0.585320	0.271630	0.668880
C2441	C244	0.555500	0.307750	0.701030
H1981	H198	0.516100	0.298900	0.700600
H1991	H199	0.569400	0.299900	0.729800
C2451	C245	0.614440	0.389220	0.711300
H2001	H200	0.617900	0.427900	0.702900
H2011	H201	0.645900	0.369500	0.699100
C2461	C246	0.618740	0.386060	0.760250
C2471	C247	0.646000	0.342100	0.780250
H2021	H202	0.662500	0.314700	0.763400
C2481	C248	0.649100	0.338600	0.824710
H2031	H203	0.667000	0.308400	0.837300
C2491	C249	0.626100	0.379230	0.850800
C2501	C250	0.598540	0.423500	0.830920
H2041	H204	0.582300	0.451100	0.847700
C2511	C251	0.595200	0.426510	0.786500
H2051	H205	0.576700	0.456300	0.773900
C2521	C252	0.631300	0.052600	0.641800
H2061	H206	0.596000	0.046300	0.630600
C2531	C253	0.665700	0.012600	0.655730
H2071	H207	0.659500	0.974500	0.655600
C2541	C254	0.703500	0.094400	0.663020
H2081	H208	0.729400	0.121800	0.669300
C2551	C255	0.761400	0.014200	0.689500
C2561	C256	0.777000	0.019900	0.733700
N461	N46	0.562950	0.366650	0.691590
N471	N47	0.654940	0.103730	0.646320
N481	N48	0.711300	0.039690	0.670050
O611	O61	0.485440	0.493320	0.684260
O621	O62	0.536570	0.449100	0.635890
O631	O63	0.596830	0.291180	0.632670
O641	O64	0.596130	0.221900	0.678950
Zn171	Zn17	0.427550	0.874110	0.877830
C2571	C257	0.701840	0.761870	0.922200
C2581	C258	0.651700	0.763900	0.951410
H2091	H209	0.663800	0.765600	0.981200
H2101	H210	0.630000	0.730300	0.947700
C2591	C259	0.521630	0.835320	0.918880
C2601	C260	0.557750	0.805500	0.951030
H2111	H211	0.548900	0.766100	0.950600
H2121	H212	0.549900	0.819400	0.979800
C2611	C261	0.639220	0.864440	0.961300
H2131	H213	0.677900	0.867900	0.952900
H2141	H214	0.619500	0.895900	0.949100
C2621	C262	0.636060	0.868740	0.010250
C2631	C263	0.592100	0.896000	0.030250
H2151	H215	0.564700	0.912500	0.013400
C2641	C264	0.588600	0.899100	0.074710
H2161	H216	0.558400	0.917000	0.087300
C2651	C265	0.629230	0.876100	0.100800
C2661	C266	0.673500	0.848540	0.080920
H2171	H217	0.701100	0.832300	0.097700
C2671	C267	0.676510	0.845200	0.036500
H2181	H218	0.706300	0.826700	0.023900
C2681	C268	0.302600	0.881300	0.891800
H2191	H219	0.296300	0.846000	0.880600
C2691	C269	0.262600	0.915700	0.905730
H2201	H220	0.224500	0.909500	0.905600
C2701	C270	0.344400	0.953500	0.913020
H2211	H221	0.371800	0.979400	0.919300
C2711	C271	0.264200	0.011400	0.939500
C2721	C272	0.269900	0.027000	0.983700
N491	N49	0.616650	0.812950	0.941590
N501	N50	0.353730	0.904940	0.896320
N511	N51	0.289690	0.961300	0.920050
O651	O65	0.743320	0.735440	0.934260
O661	O66	0.699100	0.786570	0.885890
O671	O67	0.541180	0.846830	0.882670
O681	O68	0.471900	0.846130	0.928950
Zn181	Zn18	0.927550	0.374110	0.377830
C2731	C273	0.201840	0.261870	0.422200
C2741	C274	0.151700	0.263900	0.451410
H2221	H222	0.163800	0.265600	0.481200
H2231	H223	0.130000	0.230300	0.447700
C2751	C275	0.021630	0.335320	0.418880
C2761	C276	0.057750	0.305500	0.451030
H2241	H224	0.048900	0.266100	0.450600
H2251	H225	0.049900	0.319400	0.479800
C2771	C277	0.139220	0.364440	0.461300
H2261	H226	0.177900	0.367900	0.452900
H2271	H227	0.119500	0.395900	0.449100
C2781	C278	0.136060	0.368740	0.510250
C2791	C279	0.092100	0.396000	0.530250
H2281	H228	0.064700	0.412500	0.513400
C2801	C280	0.088600	0.399100	0.574710
H2291	H229	0.058400	0.417000	0.587300
C2811	C281	0.129230	0.376100	0.600800
C2821	C282	0.173500	0.348540	0.580920
H2301	H230	0.201100	0.332300	0.597700
C2831	C283	0.176510	0.345200	0.536500
H2311	H231	0.206300	0.326700	0.523900
C2841	C284	0.802600	0.381300	0.391800
H2321	H232	0.796300	0.346000	0.380600
C2851	C285	0.762600	0.415700	0.405730
H2331	H233	0.724500	0.409500	0.405600
C2861	C286	0.844400	0.453500	0.413020
H2341	H234	0.871800	0.479400	0.419300
C2871	C287	0.764200	0.511400	0.439500
C2881	C288	0.769900	0.527000	0.483700
N521	N52	0.116650	0.312950	0.441590
N531	N53	0.853730	0.404940	0.396320
N541	N54	0.789690	0.461300	0.420050
O691	O69	0.243320	0.235440	0.434260
O701	O70	0.199100	0.286570	0.385890
O711	O71	0.041180	0.346830	0.382670
O721	O72	0.971900	0.346130	0.428950
Zn191	Zn19	0.072450	0.125890	0.377830
C2891	C289	0.798160	0.238130	0.422200
C2901	C290	0.848300	0.236100	0.451410
H2351	H235	0.836200	0.234400	0.481200
H2361	H236	0.870000	0.269700	0.447700
C2911	C291	0.978370	0.164680	0.418880
C2921	C292	0.942250	0.194500	0.451030
H2371	H237	0.951100	0.233900	0.450600
H2381	H238	0.950100	0.180600	0.479800
C2931	C293	0.860780	0.135560	0.461300
H2391	H239	0.822100	0.132100	0.452900
H2401	H240	0.880500	0.104100	0.449100
C2941	C294	0.863940	0.131260	0.510250
C2951	C295	0.907900	0.104000	0.530250
H2411	H241	0.935300	0.087500	0.513400
C2961	C296	0.911400	0.100900	0.574710
H2421	H242	0.941600	0.083000	0.587300
C2971	C297	0.870770	0.123900	0.600800
C2981	C298	0.826500	0.151460	0.580920
H2431	H243	0.798900	0.167700	0.597700
C2991	C299	0.823490	0.154800	0.536500
H2441	H244	0.793700	0.173300	0.523900
C3001	C300	0.197400	0.118700	0.391800
H2451	H245	0.203700	0.154000	0.380600
C3011	C301	0.237400	0.084300	0.405730
H2461	H246	0.275500	0.090500	0.405600
C3021	C302	0.155600	0.046500	0.413020
H2471	H247	0.128200	0.020600	0.419300
C3031	C303	0.235800	0.988600	0.439500
C3041	C304	0.230100	0.973000	0.483700
N551	N55	0.883350	0.187050	0.441590
N561	N56	0.146270	0.095060	0.396320
N571	N57	0.210310	0.038700	0.420050
O731	O73	0.756680	0.264560	0.434260
O741	O74	0.800900	0.213430	0.385890
O751	O75	0.958820	0.153170	0.382670
O761	O76	0.028100	0.153870	0.428950
Zn201	Zn20	0.572450	0.625890	0.877830
C3051	C305	0.298160	0.738130	0.922200
C3061	C306	0.348300	0.736100	0.951410
H2481	H248	0.336200	0.734400	0.981200
H2491	H249	0.370000	0.769700	0.947700
C3071	C307	0.478370	0.664680	0.918880
C3081	C308	0.442250	0.694500	0.951030
H2501	H250	0.451100	0.733900	0.950600
H2511	H251	0.450100	0.680600	0.979800
C3091	C309	0.360780	0.635560	0.961300
H2521	H252	0.322100	0.632100	0.952900
H2531	H253	0.380500	0.604100	0.949100
C3101	C310	0.363940	0.631260	0.010250
C3111	C311	0.407900	0.604000	0.030250
H2541	H254	0.435300	0.587500	0.013400
C3121	C312	0.411400	0.600900	0.074710
H2551	H255	0.441600	0.583000	0.087300
C3131	C313	0.370770	0.623900	0.100800
C3141	C314	0.326500	0.651460	0.080920
H2561	H256	0.298900	0.667700	0.097700
C3151	C315	0.323490	0.654800	0.036500
H2571	H257	0.293700	0.673300	0.023900
C3161	C316	0.697400	0.618700	0.891800
H2581	H258	0.703700	0.654000	0.880600
C3171	C317	0.737400	0.584300	0.905730
H2591	H259	0.775500	0.590500	0.905600
C3181	C318	0.655600	0.546500	0.913020
H2601	H260	0.628200	0.520600	0.919300
C3191	C319	0.735800	0.488600	0.939500
C3201	C320	0.730100	0.473000	0.983700
N581	N58	0.383350	0.687050	0.941590
N591	N59	0.646270	0.595060	0.896320
N601	N60	0.710310	0.538700	0.920050
O771	O77	0.256680	0.764560	0.934260
O781	O78	0.300900	0.713430	0.885890
O791	O79	0.458820	0.653170	0.882670
O801	O80	0.528100	0.653870	0.928950
Zn211	Zn21	0.875890	0.677550	0.627830
C3211	C321	0.988130	0.951840	0.672200
C3221	C322	0.986100	0.901700	0.701410
H2611	H261	0.984400	0.913800	0.731200
H2621	H262	0.019700	0.880000	0.697700
C3231	C323	0.914680	0.771630	0.668880
C3241	C324	0.944500	0.807750	0.701030
H2631	H263	0.983900	0.798900	0.700600
H2641	H264	0.930600	0.799900	0.729800
C3251	C325	0.885560	0.889220	0.711300
H2651	H265	0.882100	0.927900	0.702900
H2661	H266	0.854100	0.869500	0.699100
C3261	C326	0.881260	0.886060	0.760250
C3271	C327	0.854000	0.842100	0.780250
H2671	H267	0.837500	0.814700	0.763400
C3281	C328	0.850900	0.838600	0.824710
H2681	H268	0.833000	0.808400	0.837300
C3291	C329	0.873900	0.879230	0.850800
C3301	C330	0.901460	0.923500	0.830920
H2691	H269	0.917700	0.951100	0.847700
C3311	C331	0.904800	0.926510	0.786500
H2701	H270	0.923300	0.956300	0.773900
C3321	C332	0.868700	0.552600	0.641800
H2711	H271	0.904000	0.546300	0.630600
C3331	C333	0.834300	0.512600	0.655730
H2721	H272	0.840500	0.474500	0.655600
C3341	C334	0.796500	0.594400	0.663020
H2731	H273	0.770600	0.621800	0.669300
C3351	C335	0.738600	0.514200	0.689500
C3361	C336	0.723000	0.519900	0.733700
N611	N61	0.937050	0.866650	0.691590
N621	N62	0.845060	0.603730	0.646320
N631	N63	0.788700	0.539690	0.670050
O811	O81	0.014560	0.993320	0.684260
O821	O82	0.963430	0.949100	0.635890
O831	O83	0.903170	0.791180	0.632670
O841	O84	0.903870	0.721900	0.678950
Zn221	Zn22	0.375890	0.177550	0.127830
C3371	C337	0.488130	0.451840	0.172200
C3381	C338	0.486100	0.401700	0.201410
H2741	H274	0.484400	0.413800	0.231200
H2751	H275	0.519700	0.380000	0.197700
C3391	C339	0.414680	0.271630	0.168880
C3401	C340	0.444500	0.307750	0.201030
H2761	H276	0.483900	0.298900	0.200600
H2771	H277	0.430600	0.299900	0.229800
C3411	C341	0.385560	0.389220	0.211300
H2781	H278	0.382100	0.427900	0.202900
H2791	H279	0.354100	0.369500	0.199100
C3421	C342	0.381260	0.386060	0.260250
C3431	C343	0.354000	0.342100	0.280250
H2801	H280	0.337500	0.314700	0.263400
C3441	C344	0.350900	0.338600	0.324710
H2811	H281	0.333000	0.308400	0.337300
C3451	C345	0.373900	0.379230	0.350800
C3461	C346	0.401460	0.423500	0.330920
H2821	H282	0.417700	0.451100	0.347700
C3471	C347	0.404800	0.426510	0.286500
H2831	H283	0.423300	0.456300	0.273900
C3481	C348	0.368700	0.052600	0.141800
H2841	H284	0.404000	0.046300	0.130600
C3491	C349	0.334300	0.012600	0.155730
H2851	H285	0.340500	0.974500	0.155600
C3501	C350	0.296500	0.094400	0.163020
H2861	H286	0.270600	0.121800	0.169300
C3511	C351	0.238600	0.014200	0.189500
C3521	C352	0.223000	0.019900	0.233700
N641	N64	0.437050	0.366650	0.191590
N651	N65	0.345060	0.103730	0.146320
N661	N66	0.288700	0.039690	0.170050
O851	O85	0.514560	0.493320	0.184260
O861	O86	0.463430	0.449100	0.135890
O871	O87	0.403170	0.291180	0.132670
O881	O88	0.403870	0.221900	0.178950
Zn231	Zn23	0.624110	0.322450	0.127830
C3531	C353	0.511870	0.048160	0.172200
C3541	C354	0.513900	0.098300	0.201410
H2871	H287	0.515600	0.086200	0.231200
H2881	H288	0.480300	0.120000	0.197700
C3551	C355	0.585320	0.228370	0.168880
C3561	C356	0.555500	0.192250	0.201030
H2891	H289	0.516100	0.201100	0.200600
H2901	H290	0.569400	0.200100	0.229800
C3571	C357	0.614440	0.110780	0.211300
H2911	H291	0.617900	0.072100	0.202900
H2921	H292	0.645900	0.130500	0.199100
C3581	C358	0.618740	0.113940	0.260250
C3591	C359	0.646000	0.157900	0.280250
H2931	H293	0.662500	0.185300	0.263400
C3601	C360	0.649100	0.161400	0.324710
H2941	H294	0.667000	0.191600	0.337300
C3611	C361	0.626100	0.120770	0.350800
C3621	C362	0.598540	0.076500	0.330920
H2951	H295	0.582300	0.048900	0.347700
C3631	C363	0.595200	0.073490	0.286500
H2961	H296	0.576700	0.043700	0.273900
C3641	C364	0.631300	0.447400	0.141800
H2971	H297	0.596000	0.453700	0.130600
C3651	C365	0.665700	0.487400	0.155730
H2981	H298	0.659500	0.525500	0.155600
C3661	C366	0.703500	0.405600	0.163020
H2991	H299	0.729400	0.378200	0.169300
C3671	C367	0.761400	0.485800	0.189500
C3681	C368	0.777000	0.480100	0.233700
N671	N67	0.562950	0.133350	0.191590
N681	N68	0.654940	0.396270	0.146320
N691	N69	0.711300	0.460310	0.170050
O891	O89	0.485440	0.006680	0.184260
O901	O90	0.536570	0.050900	0.135890
O911	O91	0.596830	0.208820	0.132670
O921	O92	0.596130	0.278100	0.178950
Zn241	Zn24	0.124110	0.822450	0.627830
C3691	C369	0.011870	0.548160	0.672200
C3701	C370	0.013900	0.598300	0.701410
H3001	H300	0.015600	0.586200	0.731200
H3011	H301	0.980300	0.620000	0.697700
C3711	C371	0.085320	0.728370	0.668880
C3721	C372	0.055500	0.692250	0.701030
H3021	H302	0.016100	0.701100	0.700600
H3031	H303	0.069400	0.700100	0.729800
C3731	C373	0.114440	0.610780	0.711300
H3041	H304	0.117900	0.572100	0.702900
H3051	H305	0.145900	0.630500	0.699100
C3741	C374	0.118740	0.613940	0.760250
C3751	C375	0.146000	0.657900	0.780250
H3061	H306	0.162500	0.685300	0.763400
C3761	C376	0.149100	0.661400	0.824710
H3071	H307	0.167000	0.691600	0.837300
C3771	C377	0.126100	0.620770	0.850800
C3781	C378	0.098540	0.576500	0.830920
H3081	H308	0.082300	0.548900	0.847700
C3791	C379	0.095200	0.573490	0.786500
H3091	H309	0.076700	0.543700	0.773900
C3801	C380	0.131300	0.947400	0.641800
H3101	H310	0.096000	0.953700	0.630600
C3811	C381	0.165700	0.987400	0.655730
H3111	H311	0.159500	0.025500	0.655600
C3821	C382	0.203500	0.905600	0.663020
H3121	H312	0.229400	0.878200	0.669300
C3831	C383	0.261400	0.985800	0.689500
C3841	C384	0.277000	0.980100	0.733700
N701	N70	0.062950	0.633350	0.691590
N711	N71	0.154940	0.896270	0.646320
N721	N72	0.211300	0.960310	0.670050
O931	O93	0.985440	0.506680	0.684260
O941	O94	0.036570	0.550900	0.635890
O951	O95	0.096830	0.708820	0.632670
O961	O96	0.096130	0.778100	0.678950
Zn251	Zn25	0.072450	0.874110	0.122170
C3851	C385	0.798160	0.761870	0.077800
C3861	C386	0.848300	0.763900	0.048590
H3131	H313	0.836200	0.765600	0.018800
H3141	H314	0.870000	0.730300	0.052300
C3871	C387	0.978370	0.835320	0.081120
C3881	C388	0.942250	0.805500	0.048970
H3151	H315	0.951100	0.766100	0.049400
H3161	H316	0.950100	0.819400	0.020200
C3891	C389	0.860780	0.864440	0.038700
H3171	H317	0.822100	0.867900	0.047100
H3181	H318	0.880500	0.895900	0.050900
C3901	C390	0.863940	0.868740	0.989750
C3911	C391	0.907900	0.896000	0.969750
H3191	H319	0.935300	0.912500	0.986600
C3921	C392	0.911400	0.899100	0.925290
H3201	H320	0.941600	0.917000	0.912700
C3931	C393	0.870770	0.876100	0.899200
C3941	C394	0.826500	0.848540	0.919080
H3211	H321	0.798900	0.832300	0.902300
C3951	C395	0.823490	0.845200	0.963500
H3221	H322	0.793700	0.826700	0.976100
C3961	C396	0.197400	0.881300	0.108200
H3231	H323	0.203700	0.846000	0.119400
C3971	C397	0.237400	0.915700	0.094270
H3241	H324	0.275500	0.909500	0.094400
C3981	C398	0.155600	0.953500	0.086980
H3251	H325	0.128200	0.979400	0.080700
C3991	C399	0.235800	0.011400	0.060500
C4001	C400	0.230100	0.027000	0.016300
N731	N73	0.883350	0.812950	0.058410
N741	N74	0.146270	0.904940	0.103680
N751	N75	0.210310	0.961300	0.079950
O971	O97	0.756680	0.735440	0.065740
O981	O98	0.800900	0.786570	0.114110
O991	O99	0.958820	0.846830	0.117330
O1001	O100	0.028100	0.846130	0.071050
Zn261	Zn26	0.572450	0.374110	0.622160
C4011	C401	0.298160	0.261870	0.577800
C4021	C402	0.348300	0.263900	0.548590
H3261	H326	0.336200	0.265600	0.518800
H3271	H327	0.370000	0.230300	0.552300
C4031	C403	0.478370	0.335320	0.581120
C4041	C404	0.442250	0.305500	0.548970
H3281	H328	0.451100	0.266100	0.549400
H3291	H329	0.450100	0.319400	0.520200
C4051	C405	0.360780	0.364440	0.538700
H3301	H330	0.322100	0.367900	0.547100
H3311	H331	0.380500	0.395900	0.550900
C4061	C406	0.363940	0.368740	0.489750
C4071	C407	0.407900	0.396000	0.469750
H3321	H332	0.435300	0.412500	0.486600
C4081	C408	0.411400	0.399100	0.425290
H3331	H333	0.441600	0.417000	0.412700
C4091	C409	0.370770	0.376100	0.399200
C4101	C410	0.326500	0.348540	0.419080
H3341	H334	0.298900	0.332300	0.402300
C4111	C411	0.323490	0.345200	0.463500
H3351	H335	0.293700	0.326700	0.476100
C4121	C412	0.697400	0.381300	0.608200
H3361	H336	0.703700	0.346000	0.619400
C4131	C413	0.737400	0.415700	0.594270
H3371	H337	0.775500	0.409500	0.594400
C4141	C414	0.655600	0.453500	0.586980
H3381	H338	0.628200	0.479400	0.580700
C4151	C415	0.735800	0.511400	0.560500
C4161	C416	0.730100	0.527000	0.516300
N761	N76	0.383350	0.312950	0.558410
N771	N77	0.646270	0.404940	0.603680
N781	N78	0.710310	0.461300	0.579950
O1011	O101	0.256680	0.235440	0.565740
O1021	O102	0.300900	0.286570	0.614110
O1031	O103	0.458820	0.346830	0.617330
O1041	O104	0.528100	0.346130	0.571050
Zn271	Zn27	0.427550	0.125890	0.622160
C4171	C417	0.701840	0.238130	0.577800
C4181	C418	0.651700	0.236100	0.548590
H3391	H339	0.663800	0.234400	0.518800
H3401	H340	0.630000	0.269700	0.552300
C4191	C419	0.521630	0.164680	0.581120
C4201	C420	0.557750	0.194500	0.548970
H3411	H341	0.548900	0.233900	0.549400
H3421	H342	0.549900	0.180600	0.520200
C4211	C421	0.639220	0.135560	0.538700
H3431	H343	0.677900	0.132100	0.547100
H3441	H344	0.619500	0.104100	0.550900
C4221	C422	0.636060	0.131260	0.489750
C4231	C423	0.592100	0.104000	0.469750
H3451	H345	0.564700	0.087500	0.486600
C4241	C424	0.588600	0.100900	0.425290
H3461	H346	0.558400	0.083000	0.412700
C4251	C425	0.629230	0.123900	0.399200
C4261	C426	0.673500	0.151460	0.419080
H3471	H347	0.701100	0.167700	0.402300
C4271	C427	0.676510	0.154800	0.463500
H3481	H348	0.706300	0.173300	0.476100
C4281	C428	0.302600	0.118700	0.608200
H3491	H349	0.296300	0.154000	0.619400
C4291	C429	0.262600	0.084300	0.594270
H3501	H350	0.224500	0.090500	0.594400
C4301	C430	0.344400	0.046500	0.586980
H3511	H351	0.371800	0.020600	0.580700
C4311	C431	0.264200	0.988600	0.560500
C4321	C432	0.269900	0.973000	0.516300
N791	N79	0.616650	0.187050	0.558410
N801	N80	0.353730	0.095060	0.603680
N811	N81	0.289690	0.038700	0.579950
O1051	O105	0.743320	0.264560	0.565740
O1061	O106	0.699100	0.213430	0.614110
O1071	O107	0.541180	0.153170	0.617330
O1081	O108	0.471900	0.153870	0.571050
Zn281	Zn28	0.927550	0.625890	0.122170
C4331	C433	0.201840	0.738130	0.077800
C4341	C434	0.151700	0.736100	0.048590
H3521	H352	0.163800	0.734400	0.018800
H3531	H353	0.130000	0.769700	0.052300
C4351	C435	0.021630	0.664680	0.081120
C4361	C436	0.057750	0.694500	0.048970
H3541	H354	0.048900	0.733900	0.049400
H3551	H355	0.049900	0.680600	0.020200
C4371	C437	0.139220	0.635560	0.038700
H3561	H356	0.177900	0.632100	0.047100
H3571	H357	0.119500	0.604100	0.050900
C4381	C438	0.136060	0.631260	0.989750
C4391	C439	0.092100	0.604000	0.969750
H3581	H358	0.064700	0.587500	0.986600
C4401	C440	0.088600	0.600900	0.925290
H3591	H359	0.058400	0.583000	0.912700
C4411	C441	0.129230	0.623900	0.899200
C4421	C442	0.173500	0.651460	0.919080
H3601	H360	0.201100	0.667700	0.902300
C4431	C443	0.176510	0.654800	0.963500
H3611	H361	0.206300	0.673300	0.976100
C4441	C444	0.802600	0.618700	0.108200
H3621	H362	0.796300	0.654000	0.119400
C4451	C445	0.762600	0.584300	0.094270
H3631	H363	0.724500	0.590500	0.094400
C4461	C446	0.844400	0.546500	0.086980
H3641	H364	0.871800	0.520600	0.080700
C4471	C447	0.764200	0.488600	0.060500
C4481	C448	0.769900	0.473000	0.016300
N821	N82	0.116650	0.687050	0.058410
N831	N83	0.853730	0.595060	0.103680
N841	N84	0.789690	0.538700	0.079950
O1091	O109	0.243320	0.764560	0.065740
O1101	O110	0.199100	0.713430	0.114110
O1111	O111	0.041180	0.653170	0.117330
O1121	O112	0.971900	0.653870	0.071050
Zn291	Zn29	0.624110	0.677550	0.372160
C4491	C449	0.511870	0.951840	0.327800
C4501	C450	0.513900	0.901700	0.298590
H3651	H365	0.515600	0.913800	0.268800
H3661	H366	0.480300	0.880000	0.302300
C4511	C451	0.585320	0.771630	0.331120
C4521	C452	0.555500	0.807750	0.298970
H3671	H367	0.516100	0.798900	0.299400
H3681	H368	0.569400	0.799900	0.270200
C4531	C453	0.614440	0.889220	0.288700
H3691	H369	0.617900	0.927900	0.297100
H3701	H370	0.645900	0.869500	0.300900
C4541	C454	0.618740	0.886060	0.239750
C4551	C455	0.646000	0.842100	0.219750
H3711	H371	0.662500	0.814700	0.236600
C4561	C456	0.649100	0.838600	0.175290
H3721	H372	0.667000	0.808400	0.162700
C4571	C457	0.626100	0.879230	0.149200
C4581	C458	0.598540	0.923500	0.169080
H3731	H373	0.582300	0.951100	0.152300
C4591	C459	0.595200	0.926510	0.213500
H3741	H374	0.576700	0.956300	0.226100
C4601	C460	0.631300	0.552600	0.358200
H3751	H375	0.596000	0.546300	0.369400
C4611	C461	0.665700	0.512600	0.344270
H3761	H376	0.659500	0.474500	0.344400
C4621	C462	0.703500	0.594400	0.336980
H3771	H377	0.729400	0.621800	0.330700
C4631	C463	0.761400	0.514200	0.310500
C4641	C464	0.777000	0.519900	0.266300
N851	N85	0.562950	0.866650	0.308410
N861	N86	0.654940	0.603730	0.353680
N871	N87	0.711300	0.539690	0.329950
O1131	O113	0.485440	0.993320	0.315740
O1141	O114	0.536570	0.949100	0.364110
O1151	O115	0.596830	0.791180	0.367330
O1161	O116	0.596130	0.721900	0.321050
Zn301	Zn30	0.124110	0.177550	0.872160
C4651	C465	0.011870	0.451840	0.827800
C4661	C466	0.013900	0.401700	0.798590
H3781	H378	0.015600	0.413800	0.768800
H3791	H379	0.980300	0.380000	0.802300
C4671	C467	0.085320	0.271630	0.831120
C4681	C468	0.055500	0.307750	0.798970
H3801	H380	0.016100	0.298900	0.799400
H3811	H381	0.069400	0.299900	0.770200
C4691	C469	0.114440	0.389220	0.788700
H3821	H382	0.117900	0.427900	0.797100
H3831	H383	0.145900	0.369500	0.800900
C4701	C470	0.118740	0.386060	0.739750
C4711	C471	0.146000	0.342100	0.719750
H3841	H384	0.162500	0.314700	0.736600
C4721	C472	0.149100	0.338600	0.675290
H3851	H385	0.167000	0.308400	0.662700
C4731	C473	0.126100	0.379230	0.649200
C4741	C474	0.098540	0.423500	0.669080
H3861	H386	0.082300	0.451100	0.652300
C4751	C475	0.095200	0.426510	0.713500
H3871	H387	0.076700	0.456300	0.726100
C4761	C476	0.131300	0.052600	0.858200
H3881	H388	0.096000	0.046300	0.869400
C4771	C477	0.165700	0.012600	0.844270
H3891	H389	0.159500	0.974500	0.844400
C4781	C478	0.203500	0.094400	0.836980
H3901	H390	0.229400	0.121800	0.830700
C4791	C479	0.261400	0.014200	0.810500
C4801	C480	0.277000	0.019900	0.766300
N881	N88	0.062950	0.366650	0.808410
N891	N89	0.154940	0.103730	0.853680
N901	N90	0.211300	0.039690	0.829950
O1171	O117	0.985440	0.493320	0.815740
O1181	O118	0.036570	0.449100	0.864110
O1191	O119	0.096830	0.291180	0.867330
O1201	O120	0.096130	0.221900	0.821050
Zn311	Zn31	0.875890	0.322450	0.872160
C4811	C481	0.988130	0.048160	0.827800
C4821	C482	0.986100	0.098300	0.798590
H3911	H391	0.984400	0.086200	0.768800
H3921	H392	0.019700	0.120000	0.802300
C4831	C483	0.914680	0.228370	0.831120
C4841	C484	0.944500	0.192250	0.798970
H3931	H393	0.983900	0.201100	0.799400
H3941	H394	0.930600	0.200100	0.770200
C4851	C485	0.885560	0.110780	0.788700
H3951	H395	0.882100	0.072100	0.797100
H3961	H396	0.854100	0.130500	0.800900
C4861	C486	0.881260	0.113940	0.739750
C4871	C487	0.854000	0.157900	0.719750
H3971	H397	0.837500	0.185300	0.736600
C4881	C488	0.850900	0.161400	0.675290
H3981	H398	0.833000	0.191600	0.662700
C4891	C489	0.873900	0.120770	0.649200
C4901	C490	0.901460	0.076500	0.669080
H3991	H399	0.917700	0.048900	0.652300
C4911	C491	0.904800	0.073490	0.713500
H4001	H400	0.923300	0.043700	0.726100
C4921	C492	0.868700	0.447400	0.858200
H4011	H401	0.904000	0.453700	0.869400
C4931	C493	0.834300	0.487400	0.844270
H4021	H402	0.840500	0.525500	0.844400
C4941	C494	0.796500	0.405600	0.836980
H4031	H403	0.770600	0.378200	0.830700
C4951	C495	0.738600	0.485800	0.810500
C4961	C496	0.723000	0.480100	0.766300
N911	N91	0.937050	0.133350	0.808410
N921	N92	0.845060	0.396270	0.853680
N931	N93	0.788700	0.460310	0.829950
O1211	O121	0.014560	0.006680	0.815740
O1221	O122	0.963430	0.050900	0.864110
O1231	O123	0.903170	0.208820	0.867330
O1241	O124	0.903870	0.278100	0.821050
Zn321	Zn32	0.375890	0.822450	0.372160
C4971	C497	0.488130	0.548160	0.327800
C4981	C498	0.486100	0.598300	0.298590
H4041	H404	0.484400	0.586200	0.268800
H4051	H405	0.519700	0.620000	0.302300
C4991	C499	0.414680	0.728370	0.331120
C5001	C500	0.444500	0.692250	0.298970
H4061	H406	0.483900	0.701100	0.299400
H4071	H407	0.430600	0.700100	0.270200
C5011	C501	0.385560	0.610780	0.288700
H4081	H408	0.382100	0.572100	0.297100
H4091	H409	0.354100	0.630500	0.300900
C5021	C502	0.381260	0.613940	0.239750
C5031	C503	0.354000	0.657900	0.219750
H4101	H410	0.337500	0.685300	0.236600
C5041	C504	0.350900	0.661400	0.175290
H4111	H411	0.333000	0.691600	0.162700
C5051	C505	0.373900	0.620770	0.149200
C5061	C506	0.401460	0.576500	0.169080
H4121	H412	0.417700	0.548900	0.152300
C5071	C507	0.404800	0.573490	0.213500
H4131	H413	0.423300	0.543700	0.226100
C5081	C508	0.368700	0.947400	0.358200
H4141	H414	0.404000	0.953700	0.369400
C5091	C509	0.334300	0.987400	0.344270
H4151	H415	0.340500	0.025500	0.344400
C5101	C510	0.296500	0.905600	0.336980
H4161	H416	0.270600	0.878200	0.330700
C5111	C511	0.238600	0.985800	0.310500
C5121	C512	0.223000	0.980100	0.266300
N941	N94	0.437050	0.633350	0.308410
N951	N95	0.345060	0.896270	0.353680
N961	N96	0.288700	0.960310	0.329950
O1251	O125	0.514560	0.506680	0.315740
O1261	O126	0.463430	0.550900	0.364110
O1271	O127	0.403170	0.708820	0.367330
O1281	O128	0.403870	0.778100	0.321050
C5131	C513	0.750000	0.015500	0.000000
C5141	C514	0.250000	0.515500	0.500000
C5151	C515	0.750000	0.984500	0.500000
C5161	C516	0.250000	0.484500	0.000000
C5171	C517	0.234500	0.500000	0.250000
C5181	C518	0.734500	0.000000	0.750000
C5191	C519	0.265500	0.500000	0.750000
C5201	C520	0.765500	0.000000	0.250000
C5211	C521	0.250000	0.984500	0.000000
C5221	C522	0.750000	0.484500	0.500000
C5231	C523	0.250000	0.015500	0.500000
C5241	C524	0.750000	0.515500	0.000000
C5251	C525	0.765500	0.500000	0.750000
C5261	C526	0.265500	0.000000	0.250000
C5271	C527	0.734500	0.500000	0.250000
C5281	C528	0.234500	0.000000	0.750000
