data_LIRTEM_SL_PM
_symmetry_space_group_name_H-M	'P1'
_cell_length_a	12.032800
_cell_length_b	12.032800
_cell_length_c	12.032800
_cell_angle_alpha	109.180900
_cell_angle_beta	112.061900
_cell_angle_gamma	107.207900
_symmetry_Int_Tables_number 1

loop_
_symmetry_equiv_pos_as_xyz
'x,y,z'

loop_
_atom_site_label
_atom_site_type_symbol
_atom_site_fract_x
_atom_site_fract_y
_atom_site_fract_z
H11	H1	0.579300	0.696000	0.390300
H21	H2	0.747000	0.826000	0.677600
H31	H3	0.696800	0.888800	0.585400
H41	H4	0.571300	0.797100	0.712600
H51	H5	0.530100	0.873100	0.633000
H61	H6	0.287800	0.627600	0.306000
H71	H7	0.344300	0.771800	0.424900
H81	H8	0.437300	0.738300	0.371800
H91	H9	0.323300	0.395800	0.312300
H101	H10	0.360300	0.482800	0.246300
H111	H11	0.448400	0.415500	0.293300
H121	H12	0.463400	0.474700	0.556900
H131	H13	0.589200	0.489900	0.540100
H141	H14	0.599300	0.611500	0.652600
C151	C15	0.303100	0.580300	0.506400
C161	C16	0.721300	0.637900	0.472000
C171	C17	0.419900	0.660400	0.498300
C181	C18	0.489100	0.581100	0.456000
C191	C19	0.612400	0.681800	0.469600
C201	C20	0.669100	0.813100	0.600000
C211	C21	0.548700	0.798800	0.627100
C221	C22	0.367400	0.703600	0.390000
C231	C23	0.396700	0.457300	0.314000
C241	C24	0.540000	0.534900	0.561300
O251	O25	0.192600	0.475000	0.383600
O261	O26	0.312500	0.600000	0.613500
O271	O27	0.808000	0.658000	0.580000
O281	O28	0.689300	0.585800	0.352300
H291	H29	0.305700	0.189000	0.609700
H301	H30	0.148400	0.069400	0.322400
H311	H31	0.303400	0.111400	0.414600
H321	H32	0.084500	0.858700	0.287400
H331	H33	0.240100	0.897100	0.367000
H341	H34	0.321600	0.981800	0.694000
H351	H35	0.346900	0.919400	0.575100
H361	H36	0.366500	0.065500	0.628200
H371	H37	0.083500	0.011000	0.687700
H381	H38	0.236500	0.114000	0.753700
H391	H39	0.122200	0.155100	0.706700
H401	H40	0.917800	0.906500	0.443100
H411	H41	0.949800	0.049100	0.459900
H421	H42	0.958900	0.946700	0.347400
C431	C43	0.073900	0.796700	0.493600
C441	C44	0.165900	0.249300	0.528000
C451	C45	0.162100	0.921600	0.501700
C461	C46	0.125100	0.033100	0.544000
C471	C47	0.212200	0.142800	0.530400
C481	C48	0.213100	0.069100	0.400000
C491	C49	0.171700	0.921600	0.372900
C501	C50	0.313600	0.977400	0.610000
C511	C51	0.143300	0.082700	0.686000
C521	C52	0.973600	0.978700	0.438700
O531	O53	0.091400	0.809000	0.616400
O541	O54	0.986500	0.699000	0.386500
O551	O55	0.078000	0.228000	0.420000
O561	O56	0.233500	0.337000	0.647700
H571	H57	0.694300	0.304000	0.883300
H581	H58	0.851600	0.174000	0.921000
H591	H59	0.696600	0.111200	0.808000
H601	H60	0.915500	0.202900	0.774200
H611	H61	0.759900	0.126900	0.657000
H621	H62	0.678400	0.372400	0.660200
H631	H63	0.653100	0.228200	0.572500
H641	H64	0.633500	0.261700	0.699000
H651	H65	0.916500	0.604200	0.927500
H661	H66	0.763500	0.517200	0.877500
H671	H67	0.877800	0.584500	0.032900
H681	H68	0.082200	0.525300	0.988700
H691	H69	0.050200	0.510100	0.099300
H701	H70	0.041100	0.388500	0.987800
C711	C71	0.926100	0.419700	0.722800
C721	C72	0.834100	0.362100	0.083400
C731	C73	0.837900	0.339600	0.759500
C741	C74	0.874900	0.418900	0.908000
C751	C75	0.787800	0.318200	0.930600
C761	C76	0.786900	0.186900	0.856000
C771	C77	0.828300	0.201200	0.749900
C781	C78	0.686400	0.296400	0.663800
C791	C79	0.856700	0.542700	0.939400
C801	C80	0.026400	0.465100	0.005100
O811	O81	0.908600	0.525000	0.717600
O821	O82	0.013500	0.400000	0.712500
O831	O83	0.922000	0.342000	0.150000
O841	O84	0.766500	0.414200	0.103500
H851	H85	0.420700	0.811000	0.116700
H861	H86	0.253000	0.930600	0.079000
H871	H87	0.303200	0.888600	0.192000
H881	H88	0.428700	0.141300	0.225800
H891	H89	0.469900	0.102900	0.343000
H901	H90	0.712200	0.018200	0.339800
H911	H91	0.655700	0.080600	0.427500
H921	H92	0.562700	0.934500	0.301000
H931	H93	0.676700	0.989000	0.072500
H941	H94	0.639700	0.886000	0.122500
H951	H95	0.551600	0.844900	0.967100
H961	H96	0.536600	0.093500	0.011300
H971	H97	0.410800	0.950900	0.900700
H981	H98	0.400700	0.053300	0.012200
C991	C99	0.696900	0.203300	0.277200
C1001	C100	0.278700	0.750700	0.916600
C1011	C101	0.580100	0.078400	0.240500
C1021	C102	0.510900	0.966900	0.092000
C1031	C103	0.387600	0.857200	0.069400
C1041	C104	0.330900	0.930900	0.144000
C1051	C105	0.451300	0.078400	0.250100
C1061	C106	0.632600	0.022600	0.336200
C1071	C107	0.603300	0.917300	0.060600
C1081	C108	0.460000	0.021300	0.994900
O1091	O109	0.807400	0.191000	0.282400
O1101	O110	0.687500	0.301000	0.287500
O1111	O111	0.192000	0.772000	0.850000
O1121	O112	0.310700	0.663000	0.896500
Cd1131	Cd113	0.000000	0.330190	0.330190
Cd1141	Cd114	0.000000	0.669810	0.669810
Cd1151	Cd115	0.174780	0.500000	0.674780
Cd1161	Cd116	0.825220	0.500000	0.325220
O1171	O117	0.000000	0.500000	0.500000
H1181	H118	0.070030	0.570030	0.500000
