data_LISZOE_clean_PM
_symmetry_space_group_name_H-M	'P1'
_cell_length_a	10.172100
_cell_length_b	11.641500
_cell_length_c	16.092000
_cell_angle_alpha	90.000000
_cell_angle_beta	90.000000
_cell_angle_gamma	105.706000
_symmetry_Int_Tables_number 1

loop_
_symmetry_equiv_pos_as_xyz
'x,y,z'

loop_
_atom_site_label
_atom_site_type_symbol
_atom_site_fract_x
_atom_site_fract_y
_atom_site_fract_z
Li11	Li1	0.405100	0.318600	0.399500
Li21	Li2	0.594900	0.681400	0.600500
Li31	Li3	0.094900	0.181400	0.899500
Li41	Li4	0.905100	0.818600	0.100500
Y11	Y1	0.749270	0.999150	0.997020
Y21	Y2	0.250730	0.000850	0.002980
Y31	Y3	0.249270	0.499150	0.502980
Y41	Y4	0.750730	0.500850	0.497020
H11	H1	0.216600	0.765500	0.687800
H21	H2	0.732400	0.077200	0.519900
H31	H3	0.767600	0.422800	0.019900
H41	H4	0.465400	0.403500	0.127400
H51	H5	0.138600	0.373300	0.986200
H61	H6	0.638600	0.873300	0.513800
H71	H7	0.716600	0.265500	0.812200
H81	H8	0.701400	0.404400	0.713600
H91	H9	0.918200	0.895700	0.620400
H101	H10	0.298600	0.595600	0.286400
H111	H11	0.200100	0.252800	0.189700
H121	H12	0.184600	0.389700	0.290100
H131	H13	0.581800	0.604300	0.120400
H141	H14	0.081800	0.104300	0.379600
H151	H15	0.965400	0.903500	0.372600
H161	H16	0.361400	0.126700	0.486200
H171	H17	0.861400	0.626700	0.013800
H181	H18	0.299900	0.247200	0.689700
H191	H19	0.815400	0.610300	0.709900
H201	H20	0.315400	0.110300	0.790100
H211	H21	0.798600	0.095600	0.213600
H221	H22	0.799900	0.747200	0.810300
H231	H23	0.283400	0.734500	0.187800
H241	H24	0.267600	0.922800	0.480100
H251	H25	0.783400	0.234500	0.312200
H261	H26	0.534600	0.596500	0.872600
H271	H27	0.700100	0.752800	0.310300
H281	H28	0.418200	0.395700	0.879600
H291	H29	0.232400	0.577200	0.980100
H301	H30	0.684600	0.889700	0.209900
H311	H31	0.201400	0.904400	0.786400
H321	H32	0.034600	0.096500	0.627400
C11	C1	0.067700	0.119900	0.504100
C21	C2	0.443300	0.876700	0.497300
C31	C3	0.512500	0.568400	0.371500
C41	C4	0.881200	0.244400	0.005080
C51	C5	0.132800	0.761900	0.712300
C61	C6	0.376300	0.654700	0.271100
C71	C7	0.116500	0.248400	0.214770
C81	C8	0.018300	0.672500	0.689420
C91	C9	0.567700	0.619900	0.995900
C101	C10	0.883500	0.751600	0.785230
C111	C11	0.979700	0.942200	0.423700
C121	C12	0.520300	0.557800	0.923700
C131	C13	0.470800	0.916900	0.124290
C141	C14	0.876300	0.154700	0.228900
C151	C15	0.381200	0.744400	0.494920
C161	C16	0.432300	0.380100	0.004100
C171	C17	0.618800	0.255600	0.505080
C181	C18	0.479700	0.442200	0.076300
C191	C19	0.951500	0.937600	0.572200
C201	C20	0.138900	0.546400	0.988300
C211	C21	0.917500	0.575900	0.008400
C221	C22	0.861100	0.453600	0.011700
C231	C23	0.987500	0.931600	0.871500
C241	C24	0.548500	0.562400	0.072200
C251	C25	0.029200	0.583100	0.624290
C261	C26	0.606800	0.831000	0.225820
C271	C27	0.970800	0.416900	0.375710
C281	C28	0.867200	0.238100	0.287700
C291	C29	0.498500	0.341700	0.692150
C301	C30	0.363000	0.249300	0.006890
C311	C31	0.943300	0.376700	0.002700
C321	C32	0.451500	0.437600	0.927800
C331	C33	0.632800	0.261900	0.787700
C341	C34	0.001500	0.158300	0.192150
C351	C35	0.932300	0.880100	0.495900
C361	C36	0.361100	0.953600	0.488300
C371	C37	0.367200	0.738100	0.212300
C381	C38	0.616500	0.748400	0.285230
C391	C39	0.383500	0.251600	0.714770
C401	C40	0.863000	0.749300	0.493110
C411	C41	0.020300	0.057800	0.576300
C421	C42	0.393200	0.169000	0.774180
C431	C43	0.518300	0.172500	0.810580
C441	C44	0.638900	0.046400	0.511700
C451	C45	0.998500	0.841700	0.807850
C461	C46	0.012500	0.068400	0.128500
C471	C47	0.582500	0.924100	0.508400
C481	C48	0.501500	0.658300	0.307850
C491	C49	0.056700	0.623300	0.997300
C501	C50	0.481700	0.827500	0.189420
C511	C51	0.981700	0.327500	0.310580
C521	C52	0.137000	0.250700	0.506890
C531	C53	0.123700	0.845300	0.771100
C541	C54	0.893200	0.669000	0.725820
C551	C55	0.637000	0.750700	0.993110
C561	C56	0.487500	0.431600	0.628500
C571	C57	0.082500	0.424100	0.991600
C581	C58	0.556700	0.123300	0.502700
C591	C59	0.529200	0.083100	0.875710
C601	C60	0.106800	0.331000	0.274180
C611	C61	0.048500	0.062400	0.427800
C621	C62	0.118800	0.755600	0.994920
C631	C63	0.417500	0.075900	0.491600
C641	C64	0.623700	0.345300	0.728900
O11	O1	0.733000	0.794900	0.042940
O21	O2	0.903100	0.683400	0.442560
O31	O3	0.559500	0.324700	0.468870
O41	O4	0.628500	0.566500	0.396290
O51	O5	0.353500	0.928700	0.109050
O61	O6	0.730300	0.298700	0.541400
O71	O7	0.371500	0.433500	0.603710
O81	O8	0.903300	0.994400	0.103520
O91	O9	0.940500	0.175300	0.968870
O101	O10	0.422600	0.024700	0.911640
O111	O11	0.767000	0.705100	0.542940
O121	O12	0.096700	0.005600	0.896480
O131	O13	0.403100	0.183400	0.057440
O141	O14	0.577400	0.975300	0.088360
O151	O15	0.646500	0.071300	0.890950
O161	O16	0.128500	0.066500	0.103710
O171	O17	0.440500	0.675300	0.531130
O181	O18	0.096900	0.316600	0.557440
O191	O19	0.059500	0.824700	0.031130
O201	O20	0.922600	0.524700	0.588360
O211	O21	0.230300	0.798700	0.958600
O221	O22	0.233000	0.294900	0.457060
O231	O23	0.871500	0.933500	0.896290
O241	O24	0.077400	0.475300	0.411640
O251	O25	0.267000	0.205100	0.957060
O261	O26	0.269700	0.701300	0.458600
O271	O27	0.596700	0.505600	0.603520
O281	O28	0.769700	0.201300	0.041400
O291	O29	0.596900	0.816600	0.942560
O301	O30	0.853500	0.428700	0.390950
O311	O31	0.403300	0.494400	0.396480
O321	O32	0.146500	0.571300	0.609050
