data_LITCIC_clean_PM
_symmetry_space_group_name_H-M	'P1'
_cell_length_a	11.080000
_cell_length_b	16.583000
_cell_length_c	16.600000
_cell_angle_alpha	68.533000
_cell_angle_beta	89.208000
_cell_angle_gamma	89.167000
_symmetry_Int_Tables_number 1

loop_
_symmetry_equiv_pos_as_xyz
'x,y,z'

loop_
_atom_site_label
_atom_site_type_symbol
_atom_site_fract_x
_atom_site_fract_y
_atom_site_fract_z
Ni11	Ni1	0.640140	0.004590	0.496580
Ni21	Ni2	0.498270	0.812260	0.504460
O11	O1	0.356800	0.908450	0.628620
C11	C1	0.108200	0.721700	0.487200
H11	H1	0.181200	0.693500	0.486700
C21	C2	0.037900	0.520400	0.571200
C31	C3	0.002100	0.585700	0.496400
C41	C4	0.035100	0.431000	0.576100
C51	C5	0.408100	0.836100	0.666800
C61	C6	0.395100	0.797300	0.763000
C71	C7	0.578500	0.556900	0.939800
C81	C8	0.425400	0.711000	0.808400
H21	H2	0.448000	0.676100	0.777700
C91	C9	0.460600	0.583700	0.949200
O21	O2	0.857300	0.628300	0.806500
C101	C10	0.000400	0.677400	0.492100
C111	C11	0.069600	0.365400	0.655400
H31	H3	0.066000	0.307900	0.659900
C121	C12	0.078800	0.535200	0.645700
H41	H4	0.082300	0.591900	0.643800
O31	O3	0.157000	0.479000	0.791500
C131	C13	0.618700	0.472800	0.991800
O41	O4	0.933500	0.481900	0.910000
C141	C14	0.422900	0.675400	0.897700
C151	C15	0.359000	0.848500	0.808900
H51	H5	0.339400	0.906500	0.779000
O51	O5	0.318900	0.805850	0.485300
C161	C16	0.112600	0.470500	0.718500
O61	O6	0.133500	0.322800	0.802900
C171	C17	0.387000	0.729600	0.942000
H61	H6	0.386800	0.707600	0.002200
C181	C18	0.107000	0.382100	0.724100
C191	C19	0.741000	0.447000	0.983300
H71	H7	0.768500	0.392700	0.019400
C201	C20	0.663600	0.611800	0.878100
H81	H8	0.640700	0.668300	0.844900
C211	C21	0.312600	0.867300	0.950500
C221	C22	0.775400	0.583700	0.867300
C231	C23	0.817200	0.500900	0.923100
C241	C24	0.808800	0.705000	0.735000
H91	H9	0.867200	0.724200	0.688800
H101	H10	0.792100	0.750800	0.756100
H111	H11	0.735700	0.689600	0.714000
O71	O7	0.283100	0.947000	0.906500
H121	H12	0.262500	0.971100	0.939700
C251	C25	0.167900	0.565600	0.788800
H131	H13	0.220000	0.597500	0.741500
H141	H14	0.201400	0.564700	0.842100
H151	H15	0.089700	0.592900	0.780800
O81	O8	0.300900	0.834100	0.029000
C261	C26	0.975300	0.396800	0.963000
H161	H16	0.060700	0.392400	0.954800
H171	H17	0.934700	0.354300	0.946800
H181	H18	0.958400	0.386900	0.022700
C271	C27	0.351600	0.815300	0.898300
C281	C28	0.117600	0.234300	0.815400
H191	H19	0.174300	0.217900	0.779800
H201	H20	0.036900	0.225900	0.799900
H211	H21	0.130800	0.199200	0.875100
C291	C29	0.891800	0.720400	0.493800
H221	H22	0.819400	0.691600	0.497300
C301	C30	0.889600	0.805500	0.490200
C311	C31	0.999400	0.848200	0.485000
H231	H23	0.998800	0.905100	0.482900
C321	C32	0.108900	0.807300	0.483100
O91	O9	0.470100	0.794920	0.631600
O101	O10	0.502400	0.939930	0.465130
H241	H24	0.500100	0.961500	0.401700
O111	O11	0.223300	0.928000	0.475400
C331	C33	0.771000	0.848200	0.492900
O121	O12	0.769900	0.930230	0.466100
O131	O13	0.682900	0.799490	0.524000
C341	C34	0.225900	0.850600	0.482000
Ni31	Ni3	0.359860	0.995410	0.503420
Ni41	Ni4	0.501730	0.187740	0.495540
O141	O14	0.643200	0.091550	0.371380
C351	C35	0.891800	0.278300	0.512800
H251	H25	0.818800	0.306500	0.513300
C361	C36	0.962100	0.479600	0.428800
C371	C37	0.997900	0.414300	0.503600
C381	C38	0.964900	0.569000	0.423900
C391	C39	0.591900	0.163900	0.333200
C401	C40	0.604900	0.202700	0.237000
C411	C41	0.421500	0.443100	0.060200
C421	C42	0.574600	0.289000	0.191600
H261	H26	0.552000	0.323900	0.222300
C431	C43	0.539400	0.416300	0.050800
O151	O15	0.142700	0.371700	0.193500
C441	C44	0.999600	0.322600	0.507900
C451	C45	0.930400	0.634600	0.344600
H271	H27	0.934000	0.692100	0.340100
C461	C46	0.921200	0.464800	0.354300
H281	H28	0.917700	0.408100	0.356200
O161	O16	0.843000	0.521000	0.208500
C471	C47	0.381300	0.527200	0.008200
O171	O17	0.066500	0.518100	0.090000
C481	C48	0.577100	0.324600	0.102300
C491	C49	0.641000	0.151500	0.191100
H291	H29	0.660600	0.093500	0.221000
O181	O18	0.681100	0.194150	0.514700
C501	C50	0.887400	0.529500	0.281500
O191	O19	0.866500	0.677200	0.197100
C511	C51	0.613000	0.270400	0.058000
H301	H30	0.613200	0.292400	0.997800
C521	C52	0.893000	0.617900	0.275900
C531	C53	0.259000	0.553000	0.016700
H311	H31	0.231500	0.607300	0.980600
C541	C54	0.336400	0.388200	0.121900
H321	H32	0.359300	0.331700	0.155100
C551	C55	0.687400	0.132700	0.049500
C561	C56	0.224600	0.416300	0.132700
C571	C57	0.182800	0.499100	0.076900
C581	C58	0.191200	0.295000	0.265000
H331	H33	0.132800	0.275800	0.311200
H341	H34	0.207900	0.249200	0.243900
H351	H35	0.264300	0.310400	0.286000
O201	O20	0.716900	0.053000	0.093500
H361	H36	0.737500	0.028900	0.060300
C591	C59	0.832100	0.434400	0.211200
H371	H37	0.780000	0.402500	0.258500
H381	H38	0.798600	0.435300	0.157900
H391	H39	0.910300	0.407100	0.219200
O211	O21	0.699100	0.165900	0.971000
C601	C60	0.024700	0.603200	0.037000
H401	H40	0.939300	0.607600	0.045200
H411	H41	0.065300	0.645700	0.053200
H421	H42	0.041600	0.613100	0.977300
C611	C61	0.648400	0.184700	0.101700
C621	C62	0.882400	0.765700	0.184600
H431	H43	0.825700	0.782100	0.220200
H441	H44	0.963100	0.774100	0.200100
H451	H45	0.869200	0.800800	0.124900
C631	C63	0.108200	0.279600	0.506200
H461	H46	0.180600	0.308400	0.502700
C641	C64	0.110400	0.194500	0.509800
C651	C65	0.000600	0.151800	0.515000
H471	H47	0.001200	0.094900	0.517100
C661	C66	0.891100	0.192700	0.516900
O221	O22	0.529900	0.205080	0.368400
O231	O23	0.497600	0.060070	0.534870
H481	H48	0.499900	0.038500	0.598300
O241	O24	0.776700	0.072000	0.524600
C671	C67	0.229000	0.151800	0.507100
O251	O25	0.230100	0.069770	0.533900
O261	O26	0.317100	0.200510	0.476000
C681	C68	0.774100	0.149400	0.518000
