data_LITCOI_clean_PM
_symmetry_space_group_name_H-M	'P1'
_cell_length_a	15.467600
_cell_length_b	13.196200
_cell_length_c	26.497000
_cell_angle_alpha	90.000000
_cell_angle_beta	98.729000
_cell_angle_gamma	90.000000
_symmetry_Int_Tables_number 1

loop_
_symmetry_equiv_pos_as_xyz
'x,y,z'

loop_
_atom_site_label
_atom_site_type_symbol
_atom_site_fract_x
_atom_site_fract_y
_atom_site_fract_z
Cd11	Cd1	0.254070	0.815050	0.239370
Cd21	Cd2	0.211260	0.677550	0.345510
C11	C1	0.608900	0.190200	0.216950
O11	O1	0.351520	0.961400	0.251140
O21	O2	0.295620	0.903500	0.174310
C21	C2	0.348400	0.958300	0.203250
C31	C3	0.003900	0.499300	0.109850
O31	O3	0.818900	0.343000	0.178840
C41	C4	0.419200	0.003800	0.128050
H11	H1	0.377600	0.963300	0.108600
C51	C5	0.064600	0.559200	0.140110
H21	H2	0.105100	0.596500	0.125200
O41	O4	0.601300	0.214000	0.261300
C61	C6	0.540900	0.126000	0.185510
O51	O5	0.674040	0.218700	0.196450
C71	C7	0.874700	0.392700	0.207680
C81	C8	0.413900	0.019200	0.179110
O61	O6	0.533000	0.661500	0.091160
C91	C9	0.545500	0.108300	0.134670
H31	H3	0.590000	0.137900	0.119800
C101	C10	0.484600	0.047100	0.105360
C111	C11	0.943000	0.449800	0.185000
C121	C12	0.474000	0.081500	0.207750
H41	H4	0.470000	0.093800	0.241900
C131	C13	0.002500	0.497800	0.052980
C141	C14	0.492900	0.023000	0.051230
O71	O7	0.534400	0.620000	0.996810
C151	C15	0.064000	0.442600	0.031400
C161	C16	0.004100	0.509900	0.215100
H51	H5	0.003800	0.513600	0.250100
C171	C17	0.937800	0.554400	0.022400
C181	C18	0.128000	0.381500	0.061460
H61	H6	0.129400	0.379200	0.096700
O81	O8	0.873000	0.401200	0.254300
C191	C19	0.943800	0.443800	0.132520
H71	H7	0.903700	0.402300	0.112500
C201	C20	0.524300	0.744400	0.059140
C211	C21	0.527000	0.719500	0.007140
C221	C22	0.065300	0.564100	0.193370
C231	C23	0.186800	0.326800	0.039950
C241	C24	0.506400	0.922500	0.037240
C251	C25	0.873400	0.612900	0.043670
H81	H8	0.873000	0.611500	0.078700
C261	C26	0.524200	0.795900	0.972010
H91	H9	0.530300	0.780000	0.938500
C271	C27	0.514800	0.841900	0.073780
H101	H10	0.513800	0.856400	0.108000
C281	C28	0.487800	0.101200	0.014790
C291	C29	0.538300	0.682800	0.145010
H111	H11	0.485700	0.716000	0.151200
H121	H12	0.587600	0.725900	0.155800
H131	H13	0.545200	0.620400	0.163900
O91	O9	0.249600	0.264100	0.065120
C301	C30	0.186000	0.330700	0.986120
O101	O10	0.249800	0.272500	0.969320
O111	O11	0.177900	0.685500	0.202430
O121	O12	0.129900	0.629200	0.272640
C311	C31	0.129300	0.631300	0.225480
C321	C32	0.538200	0.592900	0.945300
H141	H14	0.486800	0.617300	0.923800
H151	H15	0.541100	0.520500	0.942500
H161	H16	0.589200	0.622600	0.934700
C331	C33	0.252300	0.275600	0.915100
H171	H17	0.194200	0.267300	0.896900
H181	H18	0.288900	0.221900	0.906100
H191	H19	0.275500	0.339600	0.906300
C341	C34	0.250800	0.247500	0.117400
H201	H20	0.194900	0.222400	0.123100
H211	H21	0.263200	0.310000	0.135500
H221	H22	0.295300	0.198600	0.129300
Cd31	Cd3	0.745930	0.315050	0.260630
Cd41	Cd4	0.788740	0.177550	0.154490
C351	C35	0.391100	0.690200	0.283050
O131	O13	0.648480	0.461400	0.248860
O141	O14	0.704380	0.403500	0.325690
C361	C36	0.651600	0.458300	0.296750
C371	C37	0.996100	0.999300	0.390150
O151	O15	0.181100	0.843000	0.321160
C381	C38	0.580800	0.503800	0.371950
H231	H23	0.622400	0.463300	0.391400
C391	C39	0.935400	0.059200	0.359890
H241	H24	0.894900	0.096500	0.374800
O161	O16	0.398700	0.714000	0.238700
C401	C40	0.459100	0.626000	0.314490
O171	O17	0.325960	0.718700	0.303550
C411	C41	0.125300	0.892700	0.292320
C421	C42	0.586100	0.519200	0.320890
O181	O18	0.467000	0.161500	0.408840
C431	C43	0.454500	0.608300	0.365330
H251	H25	0.410000	0.637900	0.380200
C441	C44	0.515400	0.547100	0.394640
C451	C45	0.057000	0.949800	0.315000
C461	C46	0.526000	0.581500	0.292250
H261	H26	0.530000	0.593800	0.258100
C471	C47	0.997500	0.997800	0.447020
C481	C48	0.507100	0.523000	0.448770
O191	O19	0.465600	0.120000	0.503190
C491	C49	0.936000	0.942600	0.468600
C501	C50	0.995900	0.009900	0.284900
H271	H27	0.996200	0.013600	0.249900
C511	C51	0.062200	0.054400	0.477600
C521	C52	0.872000	0.881500	0.438540
H281	H28	0.870600	0.879200	0.403300
O201	O20	0.127000	0.901200	0.245700
C531	C53	0.056200	0.943800	0.367480
H291	H29	0.096300	0.902300	0.387500
C541	C54	0.475700	0.244400	0.440860
C551	C55	0.473000	0.219500	0.492860
C561	C56	0.934700	0.064100	0.306630
C571	C57	0.813200	0.826800	0.460050
C581	C58	0.493600	0.422500	0.462760
C591	C59	0.126600	0.112900	0.456330
H301	H30	0.127000	0.111500	0.421300
C601	C60	0.475800	0.295900	0.527990
H311	H31	0.469700	0.280000	0.561500
C611	C61	0.485200	0.341900	0.426220
H321	H32	0.486200	0.356400	0.392000
C621	C62	0.512200	0.601200	0.485210
C631	C63	0.461700	0.182800	0.354990
H331	H33	0.514300	0.216000	0.348800
H341	H34	0.412400	0.225900	0.344200
H351	H35	0.454800	0.120400	0.336100
O211	O21	0.750400	0.764100	0.434880
C641	C64	0.814000	0.830700	0.513880
O221	O22	0.750200	0.772500	0.530680
O231	O23	0.822100	0.185500	0.297570
O241	O24	0.870100	0.129200	0.227360
C651	C65	0.870700	0.131300	0.274520
C661	C66	0.461800	0.092900	0.554700
H361	H36	0.513200	0.117300	0.576200
H371	H37	0.458900	0.020500	0.557500
H381	H38	0.410800	0.122600	0.565300
C671	C67	0.747700	0.775600	0.584900
H391	H39	0.805800	0.767300	0.603100
H401	H40	0.711100	0.721900	0.593900
H411	H41	0.724500	0.839600	0.593700
C681	C68	0.749200	0.747500	0.382600
H421	H42	0.805100	0.722400	0.376900
H431	H43	0.736800	0.810000	0.364500
H441	H44	0.704700	0.698600	0.370700
Cd51	Cd5	0.745930	0.184950	0.760630
Cd61	Cd6	0.788740	0.322450	0.654490
C691	C69	0.391100	0.809800	0.783050
O251	O25	0.648480	0.038600	0.748860
O261	O26	0.704380	0.096500	0.825690
C701	C70	0.651600	0.041700	0.796750
C711	C71	0.996100	0.500700	0.890150
O271	O27	0.181100	0.657000	0.821160
C721	C72	0.580800	0.996200	0.871950
H451	H45	0.622400	0.036700	0.891400
C731	C73	0.935400	0.440800	0.859890
H461	H46	0.894900	0.403500	0.874800
O281	O28	0.398700	0.786000	0.738700
C741	C74	0.459100	0.874000	0.814490
O291	O29	0.325960	0.781300	0.803550
C751	C75	0.125300	0.607300	0.792320
C761	C76	0.586100	0.980800	0.820890
O301	O30	0.467000	0.338500	0.908840
C771	C77	0.454500	0.891700	0.865330
H471	H47	0.410000	0.862100	0.880200
C781	C78	0.515400	0.952900	0.894640
C791	C79	0.057000	0.550200	0.815000
C801	C80	0.526000	0.918500	0.792250
H481	H48	0.530000	0.906200	0.758100
C811	C81	0.997500	0.502200	0.947020
C821	C82	0.507100	0.977000	0.948770
O311	O31	0.465600	0.380000	0.003190
C831	C83	0.936000	0.557400	0.968600
C841	C84	0.995900	0.490100	0.784900
H491	H49	0.996200	0.486400	0.749900
C851	C85	0.062200	0.445600	0.977600
C861	C86	0.872000	0.618500	0.938540
H501	H50	0.870600	0.620800	0.903300
O321	O32	0.127000	0.598800	0.745700
C871	C87	0.056200	0.556200	0.867480
H511	H51	0.096300	0.597700	0.887500
C881	C88	0.475700	0.255600	0.940860
C891	C89	0.473000	0.280500	0.992860
C901	C90	0.934700	0.435900	0.806630
C911	C91	0.813200	0.673200	0.960050
C921	C92	0.493600	0.077500	0.962760
C931	C93	0.126600	0.387100	0.956330
H521	H52	0.127000	0.388500	0.921300
C941	C94	0.475800	0.204100	0.027990
H531	H53	0.469700	0.220000	0.061500
C951	C95	0.485200	0.158100	0.926220
H541	H54	0.486200	0.143600	0.892000
C961	C96	0.512200	0.898800	0.985210
C971	C97	0.461700	0.317200	0.854990
H551	H55	0.514300	0.284000	0.848800
H561	H56	0.412400	0.274100	0.844200
H571	H57	0.454800	0.379600	0.836100
O331	O33	0.750400	0.735900	0.934880
C981	C98	0.814000	0.669300	0.013880
O341	O34	0.750200	0.727500	0.030680
O351	O35	0.822100	0.314500	0.797570
O361	O36	0.870100	0.370800	0.727360
C991	C99	0.870700	0.368700	0.774520
C1001	C100	0.461800	0.407100	0.054700
H581	H58	0.513200	0.382700	0.076200
H591	H59	0.458900	0.479500	0.057500
H601	H60	0.410800	0.377400	0.065300
C1011	C101	0.747700	0.724400	0.084900
H611	H61	0.805800	0.732700	0.103100
H621	H62	0.711100	0.778100	0.093900
H631	H63	0.724500	0.660400	0.093700
C1021	C102	0.749200	0.752500	0.882600
H641	H64	0.805100	0.777600	0.876900
H651	H65	0.736800	0.690000	0.864500
H661	H66	0.704700	0.801400	0.870700
Cd71	Cd7	0.254070	0.684950	0.739370
Cd81	Cd8	0.211260	0.822450	0.845510
C1031	C103	0.608900	0.309800	0.716950
O371	O37	0.351520	0.538600	0.751140
O381	O38	0.295620	0.596500	0.674310
C1041	C104	0.348400	0.541700	0.703250
C1051	C105	0.003900	0.000700	0.609850
O391	O39	0.818900	0.157000	0.678840
C1061	C106	0.419200	0.496200	0.628050
H671	H67	0.377600	0.536700	0.608600
C1071	C107	0.064600	0.940800	0.640110
H681	H68	0.105100	0.903500	0.625200
O401	O40	0.601300	0.286000	0.761300
C1081	C108	0.540900	0.374000	0.685510
O411	O41	0.674040	0.281300	0.696450
C1091	C109	0.874700	0.107300	0.707680
C1101	C110	0.413900	0.480800	0.679110
O421	O42	0.533000	0.838500	0.591160
C1111	C111	0.545500	0.391700	0.634670
H691	H69	0.590000	0.362100	0.619800
C1121	C112	0.484600	0.452900	0.605360
C1131	C113	0.943000	0.050200	0.685000
C1141	C114	0.474000	0.418500	0.707750
H701	H70	0.470000	0.406200	0.741900
C1151	C115	0.002500	0.002200	0.552980
C1161	C116	0.492900	0.477000	0.551230
O431	O43	0.534400	0.880000	0.496810
C1171	C117	0.064000	0.057400	0.531400
C1181	C118	0.004100	0.990100	0.715100
H711	H71	0.003800	0.986400	0.750100
C1191	C119	0.937800	0.945600	0.522400
C1201	C120	0.128000	0.118500	0.561460
H721	H72	0.129400	0.120800	0.596700
O441	O44	0.873000	0.098800	0.754300
C1211	C121	0.943800	0.056200	0.632520
H731	H73	0.903700	0.097700	0.612500
C1221	C122	0.524300	0.755600	0.559140
C1231	C123	0.527000	0.780500	0.507140
C1241	C124	0.065300	0.935900	0.693370
C1251	C125	0.186800	0.173200	0.539950
C1261	C126	0.506400	0.577500	0.537240
C1271	C127	0.873400	0.887100	0.543670
H741	H74	0.873000	0.888500	0.578700
C1281	C128	0.524200	0.704100	0.472010
H751	H75	0.530300	0.720000	0.438500
C1291	C129	0.514800	0.658100	0.573780
H761	H76	0.513800	0.643600	0.608000
C1301	C130	0.487800	0.398800	0.514790
C1311	C131	0.538300	0.817200	0.645010
H771	H77	0.485700	0.784000	0.651200
H781	H78	0.587600	0.774100	0.655800
H791	H79	0.545200	0.879600	0.663900
O451	O45	0.249600	0.235900	0.565120
C1321	C132	0.186000	0.169300	0.486120
O461	O46	0.249800	0.227500	0.469320
O471	O47	0.177900	0.814500	0.702430
O481	O48	0.129900	0.870800	0.772640
C1331	C133	0.129300	0.868700	0.725480
C1341	C134	0.538200	0.907100	0.445300
H801	H80	0.486800	0.882700	0.423800
H811	H81	0.541100	0.979500	0.442500
H821	H82	0.589200	0.877400	0.434700
C1351	C135	0.252300	0.224400	0.415100
H831	H83	0.194200	0.232700	0.396900
H841	H84	0.288900	0.278100	0.406100
H851	H85	0.275500	0.160400	0.406300
C1361	C136	0.250800	0.252500	0.617400
H861	H86	0.194900	0.277600	0.623100
H871	H87	0.263200	0.190000	0.635500
H881	H88	0.295300	0.301400	0.629300
