data_LIVREP_clean_PM
_symmetry_space_group_name_H-M	'P1'
_cell_length_a	7.305300
_cell_length_b	17.505600
_cell_length_c	12.673100
_cell_angle_alpha	90.000000
_cell_angle_beta	90.000000
_cell_angle_gamma	90.000000
_symmetry_Int_Tables_number 1

loop_
_symmetry_equiv_pos_as_xyz
'x,y,z'

loop_
_atom_site_label
_atom_site_type_symbol
_atom_site_fract_x
_atom_site_fract_y
_atom_site_fract_z
O11	O1	0.344000	0.166310	0.649930
O21	O2	0.650800	0.163820	0.656470
C11	C1	0.497500	0.067270	0.561300
C21	C2	0.559100	0.069630	0.456700
C31	C3	0.618200	0.139110	0.407900
C41	C4	0.677800	0.140400	0.307300
C51	C5	0.685100	0.073000	0.246700
C61	C6	0.630300	0.006280	0.288500
C71	C7	0.564700	0.001200	0.394400
C81	C8	0.497800	0.138900	0.628700
H11	H1	0.617000	0.184100	0.447800
H21	H2	0.715400	0.186900	0.277100
H31	H3	0.728000	0.074900	0.176600
H41	H4	0.634800	0.961700	0.247300
O31	O3	0.156000	0.833690	0.149930
O41	O4	0.849200	0.836180	0.156470
C91	C9	0.002500	0.932730	0.061300
C101	C10	0.940900	0.930370	0.956700
C111	C11	0.881800	0.860890	0.907900
C121	C12	0.822200	0.859600	0.807300
C131	C13	0.814900	0.927000	0.746700
C141	C14	0.869700	0.993720	0.788500
C151	C15	0.935300	0.998800	0.894400
C161	C16	0.002200	0.861100	0.128700
H51	H5	0.883000	0.815900	0.947800
H61	H6	0.784600	0.813100	0.777100
H71	H7	0.772000	0.925100	0.676600
H81	H8	0.865200	0.038300	0.747300
O51	O5	0.656000	0.666310	0.350070
O61	O6	0.349200	0.663820	0.343530
C171	C17	0.502500	0.567270	0.438700
C181	C18	0.440900	0.569630	0.543300
C191	C19	0.381800	0.639110	0.592100
C201	C20	0.322200	0.640400	0.692700
C211	C21	0.314900	0.573000	0.753300
C221	C22	0.369700	0.506280	0.711500
C231	C23	0.435300	0.501200	0.605600
C241	C24	0.502200	0.638900	0.371300
H91	H9	0.383000	0.684100	0.552200
H101	H10	0.284600	0.686900	0.722900
H111	H11	0.272000	0.574900	0.823400
H121	H12	0.365200	0.461700	0.752700
O71	O7	0.844000	0.333690	0.850070
O81	O8	0.150800	0.336180	0.843530
C251	C25	0.997500	0.432730	0.938700
C261	C26	0.059100	0.430370	0.043300
C271	C27	0.118200	0.360890	0.092100
C281	C28	0.177800	0.359600	0.192700
C291	C29	0.185100	0.427000	0.253300
C301	C30	0.130300	0.493720	0.211500
C311	C31	0.064700	0.498800	0.105600
C321	C32	0.997800	0.361100	0.871300
H131	H13	0.117000	0.315900	0.052200
H141	H14	0.215400	0.313100	0.222900
H151	H15	0.228000	0.425100	0.323400
H161	H16	0.134800	0.538300	0.252700
O91	O9	0.656000	0.833690	0.350070
O101	O10	0.349200	0.836180	0.343530
C331	C33	0.502500	0.932730	0.438700
C341	C34	0.440900	0.930370	0.543300
C351	C35	0.381800	0.860890	0.592100
C361	C36	0.322200	0.859600	0.692700
C371	C37	0.314900	0.927000	0.753300
C381	C38	0.369700	0.993720	0.711500
C391	C39	0.435300	0.998800	0.605600
C401	C40	0.502200	0.861100	0.371300
H171	H17	0.383000	0.815900	0.552200
H181	H18	0.284600	0.813100	0.722900
H191	H19	0.272000	0.925100	0.823400
H201	H20	0.365200	0.038300	0.752700
O111	O11	0.844000	0.166310	0.850070
O121	O12	0.150800	0.163820	0.843530
C411	C41	0.997500	0.067270	0.938700
C421	C42	0.059100	0.069630	0.043300
C431	C43	0.118200	0.139110	0.092100
C441	C44	0.177800	0.140400	0.192700
C451	C45	0.185100	0.073000	0.253300
C461	C46	0.130300	0.006280	0.211500
C471	C47	0.064700	0.001200	0.105600
C481	C48	0.997800	0.138900	0.871300
H211	H21	0.117000	0.184100	0.052200
H221	H22	0.215400	0.186900	0.222900
H231	H23	0.228000	0.074900	0.323400
H241	H24	0.134800	0.961700	0.252700
O131	O13	0.344000	0.333690	0.649930
O141	O14	0.650800	0.336180	0.656470
C491	C49	0.497500	0.432730	0.561300
C501	C50	0.559100	0.430370	0.456700
C511	C51	0.618200	0.360890	0.407900
C521	C52	0.677800	0.359600	0.307300
C531	C53	0.685100	0.427000	0.246700
C541	C54	0.630300	0.493720	0.288500
C551	C55	0.564700	0.498800	0.394400
C561	C56	0.497800	0.361100	0.628700
H251	H25	0.617000	0.315900	0.447800
H261	H26	0.715400	0.313100	0.277100
H271	H27	0.728000	0.425100	0.176600
H281	H28	0.634800	0.538300	0.247300
O151	O15	0.156000	0.666310	0.149930
O161	O16	0.849200	0.663820	0.156470
C571	C57	0.002500	0.567270	0.061300
C581	C58	0.940900	0.569630	0.956700
C591	C59	0.881800	0.639110	0.907900
C601	C60	0.822200	0.640400	0.807300
C611	C61	0.814900	0.573000	0.746700
C621	C62	0.869700	0.506280	0.788500
C631	C63	0.935300	0.501200	0.894400
C641	C64	0.002200	0.638900	0.128700
H291	H29	0.883000	0.684100	0.947800
H301	H30	0.784600	0.686900	0.777100
H311	H31	0.772000	0.574900	0.676600
H321	H32	0.865200	0.461700	0.747300
Zn11	Zn1	0.243800	0.250000	0.746420
Zn21	Zn2	0.256200	0.750000	0.246420
Zn31	Zn3	0.756200	0.750000	0.253580
Zn41	Zn4	0.743800	0.250000	0.753580
