data_LIWFIG_clean_PM
_symmetry_space_group_name_H-M	'P1'
_cell_length_a	13.495000
_cell_length_b	13.495000
_cell_length_c	9.396000
_cell_angle_alpha	90.000000
_cell_angle_beta	90.000000
_cell_angle_gamma	120.000000
_symmetry_Int_Tables_number 1

loop_
_symmetry_equiv_pos_as_xyz
'x,y,z'

loop_
_atom_site_label
_atom_site_type_symbol
_atom_site_fract_x
_atom_site_fract_y
_atom_site_fract_z
Fe11	Fe1	0.146000	0.440800	0.901800
P11	P1	0.367700	0.495500	0.096000
P21	P2	0.036200	0.189800	0.741000
O11	O1	0.285000	0.436700	0.971600
O21	O2	0.164200	0.544000	0.062500
O31	O3	0.994900	0.423000	0.856500
O41	O4	0.117500	0.317800	0.758000
O51	O5	0.022700	0.131000	0.884900
O61	O6	0.074500	0.142100	0.622100
O71	O7	0.227200	0.557000	0.766400
O81	O8	0.299000	0.501900	0.228300
O91	O9	0.915000	0.171800	0.699200
Fe21	Fe2	0.559200	0.705200	0.901800
P31	P3	0.504500	0.872200	0.096000
P41	P4	0.810200	0.846400	0.741000
O101	O10	0.563300	0.848300	0.971600
O111	O11	0.456000	0.620200	0.062500
O121	O12	0.577000	0.571900	0.856500
O131	O13	0.682200	0.799700	0.758000
O141	O14	0.869000	0.891700	0.884900
O151	O15	0.857900	0.932400	0.622100
O161	O16	0.443000	0.670200	0.766400
O171	O17	0.498100	0.797100	0.228300
O181	O18	0.828200	0.743200	0.699200
Fe31	Fe3	0.294800	0.854000	0.901800
P51	P5	0.127800	0.632300	0.096000
P61	P6	0.153600	0.963800	0.741000
O191	O19	0.151700	0.715000	0.971600
O201	O20	0.379800	0.835800	0.062500
O211	O21	0.428100	0.005100	0.856500
O221	O22	0.200300	0.882500	0.758000
O231	O23	0.108300	0.977300	0.884900
O241	O24	0.067600	0.925500	0.622100
O251	O25	0.329800	0.772800	0.766400
O261	O26	0.202900	0.701000	0.228300
O271	O27	0.256800	0.085000	0.699200
Fe41	Fe4	0.854000	0.559200	0.098200
P71	P7	0.632300	0.504500	0.904000
P81	P8	0.963800	0.810200	0.259000
O281	O28	0.715000	0.563300	0.028400
O291	O29	0.835800	0.456000	0.937500
O301	O30	0.005100	0.577000	0.143500
O311	O31	0.882500	0.682200	0.242000
O321	O32	0.977300	0.869000	0.115100
O331	O33	0.925500	0.857900	0.377900
O341	O34	0.772800	0.443000	0.233600
O351	O35	0.701000	0.498100	0.771700
O361	O36	0.085000	0.828200	0.300800
Fe51	Fe5	0.440800	0.294800	0.098200
P91	P9	0.495500	0.127800	0.904000
P101	P10	0.189800	0.153600	0.259000
O371	O37	0.436700	0.151700	0.028400
O381	O38	0.544000	0.379800	0.937500
O391	O39	0.423000	0.428100	0.143500
O401	O40	0.317800	0.200300	0.242000
O411	O41	0.131000	0.108300	0.115100
O421	O42	0.142100	0.067600	0.377900
O431	O43	0.557000	0.329800	0.233600
O441	O44	0.501900	0.202900	0.771700
O451	O45	0.171800	0.256800	0.300800
Fe61	Fe6	0.705200	0.146000	0.098200
P111	P11	0.872200	0.367700	0.904000
P121	P12	0.846400	0.036200	0.259000
O461	O46	0.848300	0.285000	0.028400
O471	O47	0.620200	0.164200	0.937500
O481	O48	0.571900	0.994900	0.143500
O491	O49	0.799700	0.117500	0.242000
O501	O50	0.891700	0.022700	0.115100
O511	O51	0.932400	0.074500	0.377900
O521	O52	0.670200	0.227200	0.233600
O531	O53	0.797100	0.299000	0.771700
O541	O54	0.743200	0.915000	0.300800
Fe71	Fe7	0.000000	0.000000	0.500000
Fe81	Fe8	0.000000	0.000000	0.000000
P131	P13	0.333330	0.666670	0.714000
O551	O55	0.333330	0.666670	0.551000
P141	P14	0.666670	0.333330	0.286000
O561	O56	0.666670	0.333330	0.449000
