data_LIWVIY_clean_PM
_symmetry_space_group_name_H-M	'P1'
_cell_length_a	11.135000
_cell_length_b	12.380000
_cell_length_c	14.607000
_cell_angle_alpha	84.662000
_cell_angle_beta	89.537000
_cell_angle_gamma	67.261000
_symmetry_Int_Tables_number 1

loop_
_symmetry_equiv_pos_as_xyz
'x,y,z'

loop_
_atom_site_label
_atom_site_type_symbol
_atom_site_fract_x
_atom_site_fract_y
_atom_site_fract_z
Ag11	Ag1	0.270920	0.518810	0.739960
Ag21	Ag2	0.822230	0.903410	0.915850
Ag31	Ag3	0.241090	0.092280	0.596210
N11	N1	0.096000	0.627600	0.633700
N21	N2	0.895500	0.776000	0.513300
N31	N3	0.104400	0.033400	0.700300
N41	N4	0.960000	0.961500	0.829100
S11	S1	0.011570	0.754360	0.775450
C11	C1	0.083400	0.603200	0.548600
H11	H1	0.143900	0.534200	0.528900
C21	C2	0.985000	0.675500	0.488400
H21	H2	0.980500	0.654300	0.429500
C31	C3	0.904300	0.799000	0.598400
H31	H3	0.841400	0.866400	0.618600
C41	C4	0.002700	0.727400	0.658200
C51	C5	0.023700	0.893700	0.764600
C61	C6	0.096400	0.928000	0.701600
H41	H4	0.141400	0.877200	0.658700
C71	C7	0.041600	0.100900	0.765500
H51	H5	0.046100	0.174100	0.767300
C81	C8	0.970600	0.065700	0.830000
H61	H6	0.929300	0.114700	0.875000
N51	N5	0.634200	0.951000	0.816500
N61	N6	0.422700	0.022700	0.693000
N71	N7	0.247200	0.390000	0.851100
N81	N8	0.197600	0.231100	0.978000
S21	S2	0.332270	0.245160	0.723830
C91	C9	0.612700	0.876000	0.765600
H71	H7	0.670200	0.797500	0.772100
C101	C10	0.508700	0.909800	0.703400
H81	H8	0.498000	0.854600	0.668800
C111	C11	0.442500	0.096300	0.745000
C121	C12	0.547000	0.062600	0.805600
H91	H9	0.557600	0.118200	0.839800
C131	C13	0.249800	0.200200	0.896500
H101	H10	0.269500	0.123800	0.881900
C141	C14	0.274700	0.278700	0.834300
C151	C15	0.193500	0.421200	0.931900
H111	H11	0.170900	0.498300	0.945600
C161	C16	0.171300	0.343100	0.994000
H121	H12	0.136500	0.368000	0.050100
Ag41	Ag4	0.729080	0.481190	0.260040
Ag51	Ag5	0.177770	0.096590	0.084150
Ag61	Ag6	0.758910	0.907720	0.403790
N91	N9	0.904000	0.372400	0.366300
N101	N10	0.104500	0.224000	0.486700
N111	N11	0.895600	0.966600	0.299700
N121	N12	0.040000	0.038500	0.170900
S31	S3	0.988430	0.245640	0.224550
C171	C17	0.916600	0.396800	0.451400
H131	H13	0.856100	0.465800	0.471100
C181	C18	0.015000	0.324500	0.511600
H141	H14	0.019500	0.345700	0.570500
C191	C19	0.095700	0.201000	0.401600
H151	H15	0.158600	0.133600	0.381400
C201	C20	0.997300	0.272600	0.341800
C211	C21	0.976300	0.106300	0.235400
C221	C22	0.903600	0.072000	0.298400
H161	H16	0.858600	0.122800	0.341300
C231	C23	0.958400	0.899100	0.234500
H171	H17	0.953900	0.825900	0.232700
C241	C24	0.029400	0.934300	0.170000
H181	H18	0.070700	0.885300	0.125000
N131	N13	0.365800	0.049000	0.183500
N141	N14	0.577300	0.977300	0.307000
N151	N15	0.752800	0.610000	0.148900
N161	N16	0.802400	0.768900	0.022000
S41	S4	0.667730	0.754840	0.276170
C251	C25	0.387300	0.124000	0.234400
H191	H19	0.329800	0.202500	0.227900
C261	C26	0.491300	0.090200	0.296600
H201	H20	0.502000	0.145400	0.331200
C271	C27	0.557500	0.903700	0.255000
C281	C28	0.453000	0.937400	0.194400
H211	H21	0.442400	0.881800	0.160200
C291	C29	0.750200	0.799800	0.103500
H221	H22	0.730500	0.876200	0.118100
C301	C30	0.725300	0.721300	0.165700
C311	C31	0.806500	0.578800	0.068100
H231	H23	0.829100	0.501700	0.054400
C321	C32	0.828700	0.656900	0.006000
H241	H24	0.863500	0.632000	0.949900
