data_LIXWEV_clean_PM
_symmetry_space_group_name_H-M	'P1'
_cell_length_a	13.486000
_cell_length_b	13.486000
_cell_length_c	18.310000
_cell_angle_alpha	90.000000
_cell_angle_beta	90.000000
_cell_angle_gamma	120.000000
_symmetry_Int_Tables_number 1

loop_
_symmetry_equiv_pos_as_xyz
'x,y,z'

loop_
_atom_site_label
_atom_site_type_symbol
_atom_site_fract_x
_atom_site_fract_y
_atom_site_fract_z
Fe11	Fe1	0.293520	0.437330	0.456090
P11	P1	0.157910	0.188930	0.370800
H11	H1	0.227300	0.195200	0.349100
P21	P2	0.504780	0.631930	0.552800
H21	H2	0.503100	0.676000	0.594900
O11	O1	0.065900	0.140500	0.312240
O21	O2	0.130800	0.114600	0.438150
O31	O3	0.328100	0.555600	0.380630
O41	O4	0.381700	0.545800	0.535100
O51	O5	0.573900	0.576300	0.575900
O61	O6	0.566500	0.717800	0.491700
O71	O7	0.184800	0.310700	0.389000
Fe21	Fe2	0.562670	0.856190	0.456090
P31	P3	0.811070	0.968980	0.370800
H31	H3	0.804800	0.032100	0.349100
P41	P4	0.368070	0.872850	0.552800
H41	H4	0.324000	0.827100	0.594900
O81	O8	0.859500	0.925400	0.312240
O91	O9	0.885400	0.016200	0.438150
O101	O10	0.444400	0.772500	0.380630
O111	O11	0.454200	0.835900	0.535100
O121	O12	0.423700	0.997600	0.575900
O131	O13	0.282200	0.848700	0.491700
O141	O14	0.689300	0.874100	0.389000
Fe31	Fe3	0.143810	0.706480	0.456090
P51	P5	0.031020	0.842090	0.370800
H51	H5	0.967900	0.772700	0.349100
P61	P6	0.127150	0.495220	0.552800
H61	H6	0.172900	0.496900	0.594900
O151	O15	0.074600	0.934100	0.312240
O161	O16	0.983800	0.869200	0.438150
O171	O17	0.227500	0.671900	0.380630
O181	O18	0.164100	0.618300	0.535100
O191	O19	0.002400	0.426100	0.575900
O201	O20	0.151300	0.433500	0.491700
O211	O21	0.125900	0.815200	0.389000
Fe41	Fe4	0.437330	0.293520	0.043910
P71	P7	0.188930	0.157910	0.129200
H71	H7	0.195200	0.227300	0.150900
P81	P8	0.631930	0.504780	0.947200
H81	H8	0.676000	0.503100	0.905100
O221	O22	0.140500	0.065900	0.187760
O231	O23	0.114600	0.130800	0.061850
O241	O24	0.555600	0.328100	0.119370
O251	O25	0.545800	0.381700	0.964900
O261	O26	0.576300	0.573900	0.924100
O271	O27	0.717800	0.566500	0.008300
O281	O28	0.310700	0.184800	0.111000
Fe51	Fe5	0.856190	0.562670	0.043910
P91	P9	0.968980	0.811070	0.129200
H91	H9	0.032100	0.804800	0.150900
P101	P10	0.872850	0.368070	0.947200
H101	H10	0.827100	0.324000	0.905100
O291	O29	0.925400	0.859500	0.187760
O301	O30	0.016200	0.885400	0.061850
O311	O31	0.772500	0.444400	0.119370
O321	O32	0.835900	0.454200	0.964900
O331	O33	0.997600	0.423700	0.924100
O341	O34	0.848700	0.282200	0.008300
O351	O35	0.874100	0.689300	0.111000
Fe61	Fe6	0.706480	0.143810	0.043910
P111	P11	0.842090	0.031020	0.129200
H111	H11	0.772700	0.967900	0.150900
P121	P12	0.495220	0.127150	0.947200
H121	H12	0.496900	0.172900	0.905100
O361	O36	0.934100	0.074600	0.187760
O371	O37	0.869200	0.983800	0.061850
O381	O38	0.671900	0.227500	0.119370
O391	O39	0.618300	0.164100	0.964900
O401	O40	0.426100	0.002400	0.924100
O411	O41	0.433500	0.151300	0.008300
O421	O42	0.815200	0.125900	0.111000
Fe71	Fe7	0.706480	0.562670	0.543910
P131	P13	0.842090	0.811070	0.629200
H131	H13	0.772700	0.804800	0.650900
P141	P14	0.495220	0.368070	0.447200
H141	H14	0.496900	0.324000	0.405100
O431	O43	0.934100	0.859500	0.687760
O441	O44	0.869200	0.885400	0.561850
O451	O45	0.671900	0.444400	0.619370
O461	O46	0.618300	0.454200	0.464900
O471	O47	0.426100	0.423700	0.424100
O481	O48	0.433500	0.282200	0.508300
O491	O49	0.815200	0.689300	0.611000
Fe81	Fe8	0.437330	0.143810	0.543910
P151	P15	0.188930	0.031020	0.629200
H151	H15	0.195200	0.967900	0.650900
P161	P16	0.631930	0.127150	0.447200
H161	H16	0.676000	0.172900	0.405100
O501	O50	0.140500	0.074600	0.687760
O511	O51	0.114600	0.983800	0.561850
O521	O52	0.555600	0.227500	0.619370
O531	O53	0.545800	0.164100	0.464900
O541	O54	0.576300	0.002400	0.424100
O551	O55	0.717800	0.151300	0.508300
O561	O56	0.310700	0.125900	0.611000
Fe91	Fe9	0.856190	0.293520	0.543910
P171	P17	0.968980	0.157910	0.629200
H171	H17	0.032100	0.227300	0.650900
P181	P18	0.872850	0.504780	0.447200
H181	H18	0.827100	0.503100	0.405100
O571	O57	0.925400	0.065900	0.687760
O581	O58	0.016200	0.130800	0.561850
O591	O59	0.772500	0.328100	0.619370
O601	O60	0.835900	0.381700	0.464900
O611	O61	0.997600	0.573900	0.424100
O621	O62	0.848700	0.566500	0.508300
O631	O63	0.874100	0.184800	0.611000
Fe101	Fe10	0.562670	0.706480	0.956090
P191	P19	0.811070	0.842090	0.870800
H191	H19	0.804800	0.772700	0.849100
P201	P20	0.368070	0.495220	0.052800
H201	H20	0.324000	0.496900	0.094900
O641	O64	0.859500	0.934100	0.812240
O651	O65	0.885400	0.869200	0.938150
O661	O66	0.444400	0.671900	0.880630
O671	O67	0.454200	0.618300	0.035100
O681	O68	0.423700	0.426100	0.075900
O691	O69	0.282200	0.433500	0.991700
O701	O70	0.689300	0.815200	0.889000
Fe111	Fe11	0.143810	0.437330	0.956090
P211	P21	0.031020	0.188930	0.870800
H211	H21	0.967900	0.195200	0.849100
P221	P22	0.127150	0.631930	0.052800
H221	H22	0.172900	0.676000	0.094900
O711	O71	0.074600	0.140500	0.812240
O721	O72	0.983800	0.114600	0.938150
O731	O73	0.227500	0.555600	0.880630
O741	O74	0.164100	0.545800	0.035100
O751	O75	0.002400	0.576300	0.075900
O761	O76	0.151300	0.717800	0.991700
O771	O77	0.125900	0.310700	0.889000
Fe121	Fe12	0.293520	0.856190	0.956090
P231	P23	0.157910	0.968980	0.870800
H231	H23	0.227300	0.032100	0.849100
P241	P24	0.504780	0.872850	0.052800
H241	H24	0.503100	0.827100	0.094900
O781	O78	0.065900	0.925400	0.812240
O791	O79	0.130800	0.016200	0.938150
O801	O80	0.328100	0.772500	0.880630
O811	O81	0.381700	0.835900	0.035100
O821	O82	0.573900	0.997600	0.075900
O831	O83	0.566500	0.848700	0.991700
O841	O84	0.184800	0.874100	0.889000
Fe131	Fe13	0.000000	0.000000	0.250000
Fe141	Fe14	0.000000	0.000000	0.750000
Fe151	Fe15	0.000000	0.000000	0.500000
Fe161	Fe16	0.000000	0.000000	0.000000
P251	P25	0.333330	0.666670	0.360920
P261	P26	0.666670	0.333330	0.139080
P271	P27	0.666670	0.333330	0.639080
P281	P28	0.333330	0.666670	0.860920
