data_LIXWAR_clean_PM
_symmetry_space_group_name_H-M	'P1'
_cell_length_a	11.223200
_cell_length_b	11.223200
_cell_length_c	21.255000
_cell_angle_alpha	95.806000
_cell_angle_beta	95.806000
_cell_angle_gamma	106.985000
_symmetry_Int_Tables_number 1

loop_
_symmetry_equiv_pos_as_xyz
'x,y,z'

loop_
_atom_site_label
_atom_site_type_symbol
_atom_site_fract_x
_atom_site_fract_y
_atom_site_fract_z
Mn11	Mn1	0.000360	0.482840	0.192100
Mn21	Mn2	0.517160	0.999640	0.307900
Mn31	Mn3	0.999640	0.517160	0.807900
Mn41	Mn4	0.482840	0.000360	0.692100
Mn51	Mn5	0.747370	0.252630	0.250000
Mn61	Mn6	0.252630	0.747370	0.750000
H11	H1	0.756500	0.469700	0.493400
H21	H2	0.848200	0.452200	0.391000
H31	H3	0.767400	0.980400	0.094500
H41	H4	0.776800	0.844000	0.009200
H51	H5	0.105100	0.213500	0.076900
H61	H6	0.670600	0.563600	0.922500
H71	H7	0.737500	0.508900	0.028700
H81	H8	0.218700	0.505300	0.397600
H91	H9	0.482600	0.403600	0.147300
H101	H10	0.530300	0.243500	0.006600
H111	H11	0.547800	0.151800	0.109000
H121	H12	0.019600	0.232600	0.405500
H131	H13	0.156000	0.223200	0.490800
H141	H14	0.786500	0.894900	0.423100
H151	H15	0.436400	0.329400	0.577500
H161	H16	0.491100	0.262500	0.471300
H171	H17	0.494700	0.781300	0.102400
H181	H18	0.596400	0.517400	0.352700
H191	H19	0.243500	0.530300	0.506600
H201	H20	0.151800	0.547800	0.609000
H211	H21	0.232600	0.019600	0.905500
H221	H22	0.223200	0.156000	0.990800
H231	H23	0.894900	0.786500	0.923100
H241	H24	0.329400	0.436400	0.077500
H251	H25	0.262500	0.491100	0.971300
H261	H26	0.781300	0.494700	0.602400
H271	H27	0.517400	0.596400	0.852700
H281	H28	0.469700	0.756500	0.993400
H291	H29	0.452200	0.848200	0.891000
H301	H30	0.980400	0.767400	0.594500
H311	H31	0.844000	0.776800	0.509200
H321	H32	0.213500	0.105100	0.576900
H331	H33	0.563600	0.670600	0.422500
H341	H34	0.508900	0.737500	0.528700
H351	H35	0.505300	0.218700	0.897600
H361	H36	0.403600	0.482600	0.647300
C11	C1	0.939500	0.488100	0.482520
C21	C2	0.950500	0.944500	0.989650
C31	C3	0.016200	0.464800	0.312630
C41	C4	0.835800	0.483600	0.516100
C51	C5	0.927200	0.469800	0.414590
C61	C6	0.837600	0.999400	0.073100
C71	C7	0.028300	0.477300	0.383740
C81	C8	0.843000	0.917400	0.022400
C91	C9	0.722900	0.421900	0.139500
C101	C10	0.924300	0.204100	0.148100
C111	C11	0.039900	0.139300	0.063000
C121	C12	0.934800	0.111600	0.093770
C131	C13	0.589800	0.550600	0.933200
C141	C14	0.655400	0.492600	0.037800
C151	C15	0.149500	0.500700	0.418900
C161	C16	0.561700	0.511300	0.992400
C171	C17	0.626300	0.451300	0.094100
C181	C18	0.502200	0.430600	0.108600
C191	C19	0.511900	0.060500	0.017480
C201	C20	0.055500	0.049500	0.510350
C211	C21	0.535200	0.983800	0.187370
C221	C22	0.516400	0.164200	0.983900
C231	C23	0.530200	0.072800	0.085410
C241	C24	0.000600	0.162400	0.426900
C251	C25	0.522700	0.971700	0.116260
C261	C26	0.082600	0.157000	0.477600
C271	C27	0.578100	0.277100	0.360500
C281	C28	0.795900	0.075700	0.351900
C291	C29	0.860700	0.960100	0.437000
C301	C30	0.888400	0.065200	0.406230
C311	C31	0.449400	0.410200	0.566800
C321	C32	0.507400	0.344600	0.462200
C331	C33	0.499300	0.850500	0.081100
C341	C34	0.488700	0.438300	0.507600
C351	C35	0.548700	0.373700	0.405900
C361	C36	0.569400	0.497800	0.391400
C371	C37	0.060500	0.511900	0.517480
C381	C38	0.049500	0.055500	0.010350
C391	C39	0.983800	0.535200	0.687370
C401	C40	0.164200	0.516400	0.483900
C411	C41	0.072800	0.530200	0.585410
C421	C42	0.162400	0.000600	0.926900
C431	C43	0.971700	0.522700	0.616260
C441	C44	0.157000	0.082600	0.977600
C451	C45	0.277100	0.578100	0.860500
C461	C46	0.075700	0.795900	0.851900
C471	C47	0.960100	0.860700	0.937000
C481	C48	0.065200	0.888400	0.906230
C491	C49	0.410200	0.449400	0.066800
C501	C50	0.344600	0.507400	0.962200
C511	C51	0.850500	0.499300	0.581100
C521	C52	0.438300	0.488700	0.007600
C531	C53	0.373700	0.548700	0.905900
C541	C54	0.497800	0.569400	0.891400
C551	C55	0.488100	0.939500	0.982520
C561	C56	0.944500	0.950500	0.489650
C571	C57	0.464800	0.016200	0.812630
C581	C58	0.483600	0.835800	0.016100
C591	C59	0.469800	0.927200	0.914590
C601	C60	0.999400	0.837600	0.573100
C611	C61	0.477300	0.028300	0.883740
C621	C62	0.917400	0.843000	0.522400
C631	C63	0.421900	0.722900	0.639500
C641	C64	0.204100	0.924300	0.648100
C651	C65	0.139300	0.039900	0.563000
C661	C66	0.111600	0.934800	0.593770
C671	C67	0.550600	0.589800	0.433200
C681	C68	0.492600	0.655400	0.537800
C691	C69	0.500700	0.149500	0.918900
C701	C70	0.511300	0.561700	0.492400
C711	C71	0.451300	0.626300	0.594100
C721	C72	0.430600	0.502200	0.608600
O11	O1	0.908120	0.421480	0.279690
O21	O2	0.010500	0.306900	0.159410
O31	O3	0.832360	0.170640	0.177760
O41	O4	0.112000	0.505200	0.286740
O51	O5	0.835500	0.457900	0.129530
O61	O6	0.682100	0.360500	0.183510
O71	O7	0.578520	0.091880	0.220310
O81	O8	0.693100	0.989500	0.340590
O91	O9	0.829360	0.167640	0.322240
O101	O10	0.494800	0.888000	0.213260
O111	O11	0.542100	0.164500	0.370470
O121	O12	0.639500	0.317900	0.316490
O131	O13	0.091880	0.578520	0.720310
O141	O14	0.989500	0.693100	0.840590
O151	O15	0.167640	0.829360	0.822240
O161	O16	0.888000	0.494800	0.713260
O171	O17	0.164500	0.542100	0.870470
O181	O18	0.317900	0.639500	0.816490
O191	O19	0.421480	0.908120	0.779690
O201	O20	0.306900	0.010500	0.659410
O211	O21	0.170640	0.832360	0.677760
O221	O22	0.505200	0.112000	0.786740
O231	O23	0.457900	0.835500	0.629530
O241	O24	0.360500	0.682100	0.683510
