data_LIXWAR01_clean_PM
_symmetry_space_group_name_H-M	'P1'
_cell_length_a	11.137700
_cell_length_b	11.137700
_cell_length_c	21.403500
_cell_angle_alpha	95.984800
_cell_angle_beta	95.984800
_cell_angle_gamma	107.081000
_symmetry_Int_Tables_number 1

loop_
_symmetry_equiv_pos_as_xyz
'x,y,z'

loop_
_atom_site_label
_atom_site_type_symbol
_atom_site_fract_x
_atom_site_fract_y
_atom_site_fract_z
Mn11	Mn1	0.497180	0.015980	0.806290
Mn21	Mn2	0.984020	0.502820	0.693710
Mn31	Mn3	0.502820	0.984020	0.193710
Mn41	Mn4	0.015980	0.497180	0.306290
Mn51	Mn5	0.752820	0.247180	0.750000
Mn61	Mn6	0.247180	0.752820	0.250000
H11	H1	0.393100	0.285900	0.921800
H21	H2	0.737300	0.521100	0.907200
H31	H3	0.726000	0.658600	0.993000
H41	H4	0.653500	0.047900	0.609000
H51	H5	0.277100	0.990300	0.601000
H61	H6	0.253700	0.968500	0.492000
H71	H7	0.012300	0.240300	0.530300
H81	H8	0.904300	0.980500	0.647100
H91	H9	0.936300	0.826700	0.576200
H101	H10	0.714100	0.606900	0.578200
H111	H11	0.478900	0.262700	0.592800
H121	H12	0.341400	0.274000	0.507000
H131	H13	0.952100	0.346500	0.891000
H141	H14	0.009700	0.722900	0.899000
H151	H15	0.031500	0.746300	0.008000
H161	H16	0.759700	0.987700	0.969700
H171	H17	0.019500	0.095700	0.852900
H181	H18	0.173300	0.063700	0.923800
H191	H19	0.606900	0.714100	0.078200
H201	H20	0.262700	0.478900	0.092800
H211	H21	0.274000	0.341400	0.007000
H221	H22	0.346500	0.952100	0.391000
H231	H23	0.722900	0.009700	0.399000
H241	H24	0.746300	0.031500	0.508000
H251	H25	0.987700	0.759700	0.469700
H261	H26	0.095700	0.019500	0.352900
H271	H27	0.063700	0.173300	0.423800
H281	H28	0.285900	0.393100	0.421800
H291	H29	0.521100	0.737300	0.407200
H301	H30	0.658600	0.726000	0.493000
H311	H31	0.047900	0.653500	0.109000
H321	H32	0.990300	0.277100	0.101000
H331	H33	0.968500	0.253700	0.992000
H341	H34	0.240300	0.012300	0.030300
H351	H35	0.980500	0.904300	0.147100
H361	H36	0.826700	0.936300	0.076200
C11	C1	0.449660	0.443520	0.989390
C21	C2	0.459780	0.361120	0.936480
C31	C3	0.565140	0.389260	0.906440
C41	C4	0.665010	0.501790	0.927990
C51	C5	0.658280	0.583720	0.978970
C61	C6	0.575010	0.297990	0.851250
C71	C7	0.560990	0.012170	0.517760
C81	C8	0.573110	0.029970	0.584890
C91	C9	0.469410	0.021350	0.614980
C101	C10	0.348200	0.996800	0.579850
C111	C11	0.334290	0.982310	0.515100
C121	C12	0.481150	0.031670	0.685640
C131	C13	0.011860	0.062500	0.493030
C141	C14	0.994760	0.156240	0.538680
C151	C15	0.953090	0.125710	0.594580
C161	C16	0.931540	0.001060	0.608310
C171	C17	0.949610	0.909190	0.565950
C181	C18	0.923250	0.223150	0.639880
C191	C19	0.556480	0.550340	0.510610
C201	C20	0.638880	0.540220	0.563520
C211	C21	0.610740	0.434860	0.593560
C221	C22	0.498210	0.334990	0.572010
C231	C23	0.416280	0.341720	0.521030
C241	C24	0.702010	0.424990	0.648750
C251	C25	0.987830	0.439010	0.982240
C261	C26	0.970030	0.426890	0.915110
C271	C27	0.978650	0.530590	0.885020
C281	C28	0.003200	0.651800	0.920150
C291	C29	0.017690	0.665710	0.984900
C301	C30	0.968330	0.518850	0.814360
C311	C31	0.937500	0.988140	0.006970
C321	C32	0.843760	0.005240	0.961320
C331	C33	0.874290	0.046910	0.905420
C341	C34	0.998940	0.068460	0.891690
C351	C35	0.090810	0.050390	0.934050
C361	C36	0.776850	0.076750	0.860120
C371	C37	0.550340	0.556480	0.010610
C381	C38	0.540220	0.638880	0.063520
C391	C39	0.434860	0.610740	0.093560
C401	C40	0.334990	0.498210	0.072010
C411	C41	0.341720	0.416280	0.021030
C421	C42	0.424990	0.702010	0.148750
C431	C43	0.439010	0.987830	0.482240
C441	C44	0.426890	0.970030	0.415110
C451	C45	0.530590	0.978650	0.385020
C461	C46	0.651800	0.003200	0.420150
C471	C47	0.665710	0.017690	0.484900
C481	C48	0.518850	0.968330	0.314360
C491	C49	0.988140	0.937500	0.506970
C501	C50	0.005240	0.843760	0.461320
C511	C51	0.046910	0.874290	0.405420
C521	C52	0.068460	0.998940	0.391690
C531	C53	0.050390	0.090810	0.434050
C541	C54	0.076750	0.776850	0.360120
C551	C55	0.443520	0.449660	0.489390
C561	C56	0.361120	0.459780	0.436480
C571	C57	0.389260	0.565140	0.406440
C581	C58	0.501790	0.665010	0.427990
C591	C59	0.583720	0.658280	0.478970
C601	C60	0.297990	0.575010	0.351250
C611	C61	0.012170	0.560990	0.017760
C621	C62	0.029970	0.573110	0.084890
C631	C63	0.021350	0.469410	0.114980
C641	C64	0.996800	0.348200	0.079850
C651	C65	0.982310	0.334290	0.015100
C661	C66	0.031670	0.481150	0.185640
C671	C67	0.062500	0.011860	0.993030
C681	C68	0.156240	0.994760	0.038680
C691	C69	0.125710	0.953090	0.094580
C701	C70	0.001060	0.931540	0.108310
C711	C71	0.909190	0.949610	0.065950
C721	C72	0.223150	0.923250	0.139880
O11	O1	0.668890	0.331730	0.822630
O21	O2	0.487060	0.194760	0.838670
O31	O3	0.590500	0.075120	0.718900
O41	O4	0.384030	0.991990	0.711000
O51	O5	0.864150	0.182470	0.683790
O61	O6	0.959130	0.336310	0.629960
O71	O7	0.668270	0.331110	0.677370
O81	O8	0.805240	0.512940	0.661330
O91	O9	0.924880	0.409500	0.781100
O101	O10	0.008010	0.615970	0.789000
O111	O11	0.817530	0.135850	0.816210
O121	O12	0.663690	0.040870	0.870040
O131	O13	0.331110	0.668270	0.177370
O141	O14	0.512940	0.805240	0.161330
O151	O15	0.409500	0.924880	0.281100
O161	O16	0.615970	0.008010	0.289000
O171	O17	0.135850	0.817530	0.316210
O181	O18	0.040870	0.663690	0.370040
O191	O19	0.331730	0.668890	0.322630
O201	O20	0.194760	0.487060	0.338670
O211	O21	0.075120	0.590500	0.218900
O221	O22	0.991990	0.384030	0.211000
O231	O23	0.182470	0.864150	0.183790
O241	O24	0.336310	0.959130	0.129960
