data_LIXXAS_clean_PM
_symmetry_space_group_name_H-M	'P1'
_cell_length_a	10.488300
_cell_length_b	11.221400
_cell_length_c	12.741000
_cell_angle_alpha	100.986000
_cell_angle_beta	110.352000
_cell_angle_gamma	99.772000
_symmetry_Int_Tables_number 1

loop_
_symmetry_equiv_pos_as_xyz
'x,y,z'

loop_
_atom_site_label
_atom_site_type_symbol
_atom_site_fract_x
_atom_site_fract_y
_atom_site_fract_z
Gd11	Gd1	0.393430	0.451170	0.324240
O11	O1	0.620400	0.436600	0.325100
O21	O2	0.429300	0.278600	0.403600
O31	O3	0.653400	0.502600	0.508300
O41	O4	0.500500	0.328700	0.596500
O51	O5	0.316600	0.264300	0.158000
O61	O6	0.164900	0.294000	0.234800
C11	C1	0.700200	0.473600	0.431000
C21	C2	0.097400	0.109900	0.080300
C31	C3	0.470000	0.253600	0.499400
C41	C4	0.483300	0.120800	0.497500
C51	C5	0.944900	0.543700	0.579000
H11	H1	0.907500	0.574200	0.633800
C61	C6	0.486000	0.039900	0.399600
C71	C7	0.855300	0.486000	0.465900
C81	C8	0.498500	0.079100	0.596200
H21	H2	0.498200	0.134100	0.662800
C91	C9	0.908700	0.441000	0.384100
C101	C10	0.136400	0.029400	0.005000
C111	C11	0.198800	0.228200	0.163400
C121	C12	0.958000	0.079800	0.072700
H31	H3	0.928900	0.134700	0.121100
N11	N1	0.480800	0.080700	0.297000
H41	H4	0.487500	0.029800	0.238500
H51	H5	0.471000	0.156300	0.293300
N21	N2	0.830600	0.382400	0.274600
H61	H6	0.738500	0.369400	0.248600
H71	H7	0.870300	0.356200	0.227100
N31	N3	0.298000	0.019000	0.021000
H81	H8	0.311200	0.951400	0.983100
H91	H9	0.371400	0.081700	0.068500
Gd21	Gd2	0.606570	0.548830	0.675760
O71	O7	0.379600	0.563400	0.674900
O81	O8	0.570700	0.721400	0.596400
O91	O9	0.346600	0.497400	0.491700
O101	O10	0.499500	0.671300	0.403500
O111	O11	0.683400	0.735700	0.842000
O121	O12	0.835100	0.706000	0.765200
C131	C13	0.299800	0.526400	0.569000
C141	C14	0.902600	0.890100	0.919700
C151	C15	0.530000	0.746400	0.500600
C161	C16	0.516700	0.879200	0.502500
C171	C17	0.055100	0.456300	0.421000
H101	H10	0.092500	0.425800	0.366200
C181	C18	0.514000	0.960100	0.600400
C191	C19	0.144700	0.514000	0.534100
C201	C20	0.501500	0.920900	0.403800
H111	H11	0.501800	0.865900	0.337200
C211	C21	0.091300	0.559000	0.615900
C221	C22	0.863600	0.970600	0.995000
C231	C23	0.801200	0.771800	0.836600
C241	C24	0.042000	0.920200	0.927300
H121	H12	0.071100	0.865300	0.878900
N41	N4	0.519200	0.919300	0.703000
H131	H13	0.512500	0.970200	0.761500
H141	H14	0.529000	0.843700	0.706700
N51	N5	0.169400	0.617600	0.725400
H151	H15	0.261500	0.630600	0.751400
H161	H16	0.129700	0.643800	0.772900
N61	N6	0.702000	0.981000	0.979000
H171	H17	0.688800	0.048600	0.016900
H181	H18	0.628600	0.918300	0.931500
