data_LOCZIO_clean_PM
_symmetry_space_group_name_H-M	'P1'
_cell_length_a	15.897900
_cell_length_b	15.789200
_cell_length_c	20.328800
_cell_angle_alpha	90.000000
_cell_angle_beta	106.324000
_cell_angle_gamma	90.000000
_symmetry_Int_Tables_number 1

loop_
_symmetry_equiv_pos_as_xyz
'x,y,z'

loop_
_atom_site_label
_atom_site_type_symbol
_atom_site_fract_x
_atom_site_fract_y
_atom_site_fract_z
Ni11	Ni1	0.217440	0.059820	0.223010
S11	S1	0.889400	0.781700	0.136210
S21	S2	0.775000	0.842300	0.093200
O11	O1	0.215900	0.273600	0.231100
O21	O2	0.133500	0.156800	0.222300
O31	O3	0.195700	0.460800	0.274100
O41	O4	0.136000	0.445500	0.161300
N11	N1	0.111000	0.977100	0.194400
N21	N2	0.780400	0.914000	0.877100
C11	C1	0.025900	0.002400	0.172800
H11	H1	0.014900	0.060300	0.170800
C21	C2	0.955400	0.949200	0.153800
H21	H2	0.898600	0.970400	0.139100
C31	C3	0.970800	0.862600	0.156900
C41	C4	0.058600	0.835000	0.180300
H31	H3	0.071700	0.777500	0.183300
C51	C5	0.781600	0.867300	0.009500
C61	C6	0.070300	0.375000	0.236700
C71	C7	0.070600	0.287500	0.238200
C81	C8	0.146400	0.234600	0.229500
C91	C9	0.122400	0.892200	0.198100
H41	H4	0.179500	0.872200	0.214500
C101	C10	0.854300	0.855500	0.986800
H51	H5	0.904900	0.831400	0.015300
C111	C11	0.710400	0.924000	0.899800
H61	H6	0.659900	0.946400	0.870000
C121	C12	0.851200	0.879900	0.920700
H71	H7	0.901000	0.872200	0.905900
C131	C13	0.708500	0.902900	0.965000
H81	H8	0.658400	0.912700	0.978900
C141	C14	0.139900	0.429800	0.222800
Ni21	Ni2	0.717440	0.559820	0.223010
S31	S3	0.389400	0.281700	0.136210
S41	S4	0.275000	0.342300	0.093200
O51	O5	0.715900	0.773600	0.231100
O61	O6	0.633500	0.656800	0.222300
O71	O7	0.695700	0.960800	0.274100
O81	O8	0.636000	0.945500	0.161300
N31	N3	0.611000	0.477100	0.194400
N41	N4	0.280400	0.414000	0.877100
C151	C15	0.525900	0.502400	0.172800
H91	H9	0.514900	0.560300	0.170800
C161	C16	0.455400	0.449200	0.153800
H101	H10	0.398600	0.470400	0.139100
C171	C17	0.470800	0.362600	0.156900
C181	C18	0.558600	0.335000	0.180300
H111	H11	0.571700	0.277500	0.183300
C191	C19	0.281600	0.367300	0.009500
C201	C20	0.570300	0.875000	0.236700
C211	C21	0.570600	0.787500	0.238200
C221	C22	0.646400	0.734600	0.229500
C231	C23	0.622400	0.392200	0.198100
H121	H12	0.679500	0.372200	0.214500
C241	C24	0.354300	0.355500	0.986800
H131	H13	0.404900	0.331400	0.015300
C251	C25	0.210400	0.424000	0.899800
H141	H14	0.159900	0.446400	0.870000
C261	C26	0.351200	0.379900	0.920700
H151	H15	0.401000	0.372200	0.905900
C271	C27	0.208500	0.402900	0.965000
H161	H16	0.158400	0.412700	0.978900
C281	C28	0.639900	0.929800	0.222800
Ni31	Ni3	0.782560	0.059820	0.276990
S51	S5	0.110600	0.781700	0.363790
S61	S6	0.225000	0.842300	0.406800
O91	O9	0.784100	0.273600	0.268900
O101	O10	0.866500	0.156800	0.277700
O111	O11	0.804300	0.460800	0.225900
O121	O12	0.864000	0.445500	0.338700
N51	N5	0.889000	0.977100	0.305600
N61	N6	0.219600	0.914000	0.622900
C291	C29	0.974100	0.002400	0.327200
H171	H17	0.985100	0.060300	0.329200
C301	C30	0.044600	0.949200	0.346200
H181	H18	0.101400	0.970400	0.360900
C311	C31	0.029200	0.862600	0.343100
C321	C32	0.941400	0.835000	0.319700
H191	H19	0.928300	0.777500	0.316700
C331	C33	0.218400	0.867300	0.490500
C341	C34	0.929700	0.375000	0.263300
C351	C35	0.929400	0.287500	0.261800
C361	C36	0.853600	0.234600	0.270500
C371	C37	0.877600	0.892200	0.301900
H201	H20	0.820500	0.872200	0.285500
C381	C38	0.145700	0.855500	0.513200
H211	H21	0.095100	0.831400	0.484700
C391	C39	0.289600	0.924000	0.600200
H221	H22	0.340100	0.946400	0.630000
C401	C40	0.148800	0.879900	0.579300
H231	H23	0.099000	0.872200	0.594100
C411	C41	0.291500	0.902900	0.535000
H241	H24	0.341600	0.912700	0.521100
C421	C42	0.860100	0.429800	0.277200
Ni41	Ni4	0.282560	0.559820	0.276990
S71	S7	0.610600	0.281700	0.363790
S81	S8	0.725000	0.342300	0.406800
O131	O13	0.284100	0.773600	0.268900
O141	O14	0.366500	0.656800	0.277700
O151	O15	0.304300	0.960800	0.225900
O161	O16	0.364000	0.945500	0.338700
N71	N7	0.389000	0.477100	0.305600
N81	N8	0.719600	0.414000	0.622900
C431	C43	0.474100	0.502400	0.327200
H251	H25	0.485100	0.560300	0.329200
C441	C44	0.544600	0.449200	0.346200
H261	H26	0.601400	0.470400	0.360900
C451	C45	0.529200	0.362600	0.343100
C461	C46	0.441400	0.335000	0.319700
H271	H27	0.428300	0.277500	0.316700
C471	C47	0.718400	0.367300	0.490500
C481	C48	0.429700	0.875000	0.263300
C491	C49	0.429400	0.787500	0.261800
C501	C50	0.353600	0.734600	0.270500
C511	C51	0.377600	0.392200	0.301900
H281	H28	0.320500	0.372200	0.285500
C521	C52	0.645700	0.355500	0.513200
H291	H29	0.595100	0.331400	0.484700
C531	C53	0.789600	0.424000	0.600200
H301	H30	0.840100	0.446400	0.630000
C541	C54	0.648800	0.379900	0.579300
H311	H31	0.599000	0.372200	0.594100
C551	C55	0.791500	0.402900	0.535000
H321	H32	0.841600	0.412700	0.521100
C561	C56	0.360100	0.929800	0.277200
Ni51	Ni5	0.782560	0.940180	0.776990
S91	S9	0.110600	0.218300	0.863790
S101	S10	0.225000	0.157700	0.906800
O171	O17	0.784100	0.726400	0.768900
O181	O18	0.866500	0.843200	0.777700
O191	O19	0.804300	0.539200	0.725900
O201	O20	0.864000	0.554500	0.838700
N91	N9	0.889000	0.022900	0.805600
N101	N10	0.219600	0.086000	0.122900
C571	C57	0.974100	0.997600	0.827200
H331	H33	0.985100	0.939700	0.829200
C581	C58	0.044600	0.050800	0.846200
H341	H34	0.101400	0.029600	0.860900
C591	C59	0.029200	0.137400	0.843100
C601	C60	0.941400	0.165000	0.819700
H351	H35	0.928300	0.222500	0.816700
C611	C61	0.218400	0.132700	0.990500
C621	C62	0.929700	0.625000	0.763300
C631	C63	0.929400	0.712500	0.761800
C641	C64	0.853600	0.765400	0.770500
C651	C65	0.877600	0.107800	0.801900
H361	H36	0.820500	0.127800	0.785500
C661	C66	0.145700	0.144500	0.013200
H371	H37	0.095100	0.168600	0.984700
C671	C67	0.289600	0.076000	0.100200
H381	H38	0.340100	0.053600	0.130000
C681	C68	0.148800	0.120100	0.079300
H391	H39	0.099000	0.127800	0.094100
C691	C69	0.291500	0.097100	0.035000
H401	H40	0.341600	0.087300	0.021100
C701	C70	0.860100	0.570200	0.777200
Ni61	Ni6	0.282560	0.440180	0.776990
S111	S11	0.610600	0.718300	0.863790
S121	S12	0.725000	0.657700	0.906800
O211	O21	0.284100	0.226400	0.768900
O221	O22	0.366500	0.343200	0.777700
O231	O23	0.304300	0.039200	0.725900
O241	O24	0.364000	0.054500	0.838700
N111	N11	0.389000	0.522900	0.805600
N121	N12	0.719600	0.586000	0.122900
C711	C71	0.474100	0.497600	0.827200
H411	H41	0.485100	0.439700	0.829200
C721	C72	0.544600	0.550800	0.846200
H421	H42	0.601400	0.529600	0.860900
C731	C73	0.529200	0.637400	0.843100
C741	C74	0.441400	0.665000	0.819700
H431	H43	0.428300	0.722500	0.816700
C751	C75	0.718400	0.632700	0.990500
C761	C76	0.429700	0.125000	0.763300
C771	C77	0.429400	0.212500	0.761800
C781	C78	0.353600	0.265400	0.770500
C791	C79	0.377600	0.607800	0.801900
H441	H44	0.320500	0.627800	0.785500
C801	C80	0.645700	0.644500	0.013200
H451	H45	0.595100	0.668600	0.984700
C811	C81	0.789600	0.576000	0.100200
H461	H46	0.840100	0.553600	0.130000
C821	C82	0.648800	0.620100	0.079300
H471	H47	0.599000	0.627800	0.094100
C831	C83	0.791500	0.597100	0.035000
H481	H48	0.841600	0.587300	0.021100
C841	C84	0.360100	0.070200	0.777200
Ni71	Ni7	0.217440	0.940180	0.723010
S131	S13	0.889400	0.218300	0.636210
S141	S14	0.775000	0.157700	0.593200
O251	O25	0.215900	0.726400	0.731100
O261	O26	0.133500	0.843200	0.722300
O271	O27	0.195700	0.539200	0.774100
O281	O28	0.136000	0.554500	0.661300
N131	N13	0.111000	0.022900	0.694400
N141	N14	0.780400	0.086000	0.377100
C851	C85	0.025900	0.997600	0.672800
H491	H49	0.014900	0.939700	0.670800
C861	C86	0.955400	0.050800	0.653800
H501	H50	0.898600	0.029600	0.639100
C871	C87	0.970800	0.137400	0.656900
C881	C88	0.058600	0.165000	0.680300
H511	H51	0.071700	0.222500	0.683300
C891	C89	0.781600	0.132700	0.509500
C901	C90	0.070300	0.625000	0.736700
C911	C91	0.070600	0.712500	0.738200
C921	C92	0.146400	0.765400	0.729500
C931	C93	0.122400	0.107800	0.698100
H521	H52	0.179500	0.127800	0.714500
C941	C94	0.854300	0.144500	0.486800
H531	H53	0.904900	0.168600	0.515300
C951	C95	0.710400	0.076000	0.399800
H541	H54	0.659900	0.053600	0.370000
C961	C96	0.851200	0.120100	0.420700
H551	H55	0.901000	0.127800	0.405900
C971	C97	0.708500	0.097100	0.465000
H561	H56	0.658400	0.087300	0.478900
C981	C98	0.139900	0.570200	0.722800
Ni81	Ni8	0.717440	0.440180	0.723010
S151	S15	0.389400	0.718300	0.636210
S161	S16	0.275000	0.657700	0.593200
O291	O29	0.715900	0.226400	0.731100
O301	O30	0.633500	0.343200	0.722300
O311	O31	0.695700	0.039200	0.774100
O321	O32	0.636000	0.054500	0.661300
N151	N15	0.611000	0.522900	0.694400
N161	N16	0.280400	0.586000	0.377100
C991	C99	0.525900	0.497600	0.672800
H571	H57	0.514900	0.439700	0.670800
C1001	C100	0.455400	0.550800	0.653800
H581	H58	0.398600	0.529600	0.639100
C1011	C101	0.470800	0.637400	0.656900
C1021	C102	0.558600	0.665000	0.680300
H591	H59	0.571700	0.722500	0.683300
C1031	C103	0.281600	0.632700	0.509500
C1041	C104	0.570300	0.125000	0.736700
C1051	C105	0.570600	0.212500	0.738200
C1061	C106	0.646400	0.265400	0.729500
C1071	C107	0.622400	0.607800	0.698100
H601	H60	0.679500	0.627800	0.714500
C1081	C108	0.354300	0.644500	0.486800
H611	H61	0.404900	0.668600	0.515300
C1091	C109	0.210400	0.576000	0.399800
H621	H62	0.159900	0.553600	0.370000
C1101	C110	0.351200	0.620100	0.420700
H631	H63	0.401000	0.627800	0.405900
C1111	C111	0.208500	0.597100	0.465000
H641	H64	0.158400	0.587300	0.478900
C1121	C112	0.639900	0.070200	0.722800
C1131	C113	0.000000	0.417800	0.250000
H651	H65	0.000000	0.476700	0.250000
C1141	C114	0.000000	0.245600	0.250000
H661	H66	0.000000	0.186700	0.250000
C1151	C115	0.500000	0.917800	0.250000
H671	H67	0.500000	0.976700	0.250000
C1161	C116	0.500000	0.745600	0.250000
H681	H68	0.500000	0.686700	0.250000
C1171	C117	0.000000	0.582200	0.750000
H691	H69	0.000000	0.523300	0.750000
C1181	C118	0.000000	0.754400	0.750000
H701	H70	0.000000	0.813300	0.750000
C1191	C119	0.500000	0.082200	0.750000
H711	H71	0.500000	0.023300	0.750000
C1201	C120	0.500000	0.254400	0.750000
H721	H72	0.500000	0.313300	0.750000
