data_LODPUQ_clean_PM
_symmetry_space_group_name_H-M	'P1'
_cell_length_a	23.080700
_cell_length_b	23.080700
_cell_length_c	26.696200
_cell_angle_alpha	64.387200
_cell_angle_beta	64.387200
_cell_angle_gamma	89.999800
_symmetry_Int_Tables_number 1

loop_
_symmetry_equiv_pos_as_xyz
'x,y,z'

loop_
_atom_site_label
_atom_site_type_symbol
_atom_site_fract_x
_atom_site_fract_y
_atom_site_fract_z
Ni11	Ni1	0.310940	0.944340	0.849420
Ni21	Ni2	0.339640	0.206240	0.849420
Ni31	Ni3	0.444340	0.839640	0.349420
Ni41	Ni4	0.706240	0.810940	0.349420
Ni51	Ni5	0.689060	0.055660	0.150580
Ni61	Ni6	0.660360	0.793760	0.150580
Ni71	Ni7	0.555660	0.160360	0.650580
Ni81	Ni8	0.293760	0.189060	0.650580
Ni91	Ni9	0.375000	0.125000	0.750000
Ni101	Ni10	0.625000	0.875000	0.250000
H11	H1	0.422500	0.857900	0.821400
H21	H2	0.523600	0.834200	0.780400
H31	H3	0.619100	0.916900	0.708400
H41	H4	0.616600	0.026900	0.671600
H51	H5	0.237400	0.895500	0.005400
H61	H6	0.195900	0.900200	0.099000
H71	H7	0.395600	0.793400	0.096000
H81	H8	0.498100	0.799300	0.087000
H91	H9	0.577900	0.852900	0.901400
H101	H10	0.475000	0.850200	0.909600
H111	H11	0.256100	0.320700	0.821400
H121	H12	0.196000	0.385400	0.780400
H131	H13	0.172500	0.374700	0.708400
H141	H14	0.211800	0.301500	0.671600
H151	H15	0.257200	0.099100	0.005400
H161	H16	0.205100	0.000800	0.099000
H171	H17	0.008400	0.110600	0.096000
H181	H18	0.914900	0.113700	0.087000
H191	H19	0.020700	0.245700	0.901400
H201	H20	0.115400	0.240200	0.909600
H211	H21	0.357900	0.756100	0.321400
H221	H22	0.334200	0.696000	0.280400
H231	H23	0.416900	0.672500	0.208400
H241	H24	0.526900	0.711800	0.171600
H251	H25	0.395500	0.757200	0.505400
H261	H26	0.400200	0.705100	0.599000
H271	H27	0.293400	0.508400	0.596000
H281	H28	0.299300	0.414900	0.587000
H291	H29	0.352900	0.520700	0.401400
H301	H30	0.350200	0.615400	0.409600
H311	H31	0.820700	0.922500	0.321400
H321	H32	0.885400	0.023600	0.280400
H331	H33	0.874700	0.119100	0.208400
H341	H34	0.801500	0.116600	0.171600
H351	H35	0.599100	0.737400	0.505400
H361	H36	0.500800	0.695900	0.599000
H371	H37	0.610600	0.895600	0.596000
H381	H38	0.613700	0.998100	0.587000
H391	H39	0.745700	0.077900	0.401400
H401	H40	0.740200	0.975000	0.409600
H411	H41	0.577500	0.142100	0.178600
H421	H42	0.476400	0.165800	0.219600
H431	H43	0.380900	0.083100	0.291600
H441	H44	0.383400	0.973100	0.328400
H451	H45	0.762600	0.104500	0.994600
H461	H46	0.804100	0.099800	0.901000
H471	H47	0.604400	0.206600	0.904000
H481	H48	0.501900	0.200700	0.913000
H491	H49	0.422100	0.147100	0.098600
H501	H50	0.525000	0.149800	0.090400
H511	H51	0.743900	0.679300	0.178600
H521	H52	0.804000	0.614600	0.219600
H531	H53	0.827500	0.625300	0.291600
H541	H54	0.788200	0.698500	0.328400
H551	H55	0.742800	0.900900	0.994600
H561	H56	0.794900	0.999200	0.901000
H571	H57	0.991600	0.889400	0.904000
H581	H58	0.085100	0.886300	0.913000
H591	H59	0.979300	0.754300	0.098600
H601	H60	0.884600	0.759800	0.090400
H611	H61	0.642100	0.243900	0.678600
H621	H62	0.665800	0.304000	0.719600
H631	H63	0.583100	0.327500	0.791600
H641	H64	0.473100	0.288200	0.828400
H651	H65	0.604500	0.242800	0.494600
H661	H66	0.599800	0.294900	0.401000
H671	H67	0.706600	0.491600	0.404000
H681	H68	0.700700	0.585100	0.413000
H691	H69	0.647100	0.479300	0.598600
H701	H70	0.649800	0.384600	0.590400
H711	H71	0.179300	0.077500	0.678600
H721	H72	0.114600	0.976400	0.719600
H731	H73	0.125300	0.880900	0.791600
H741	H74	0.198500	0.883400	0.828400
H751	H75	0.400900	0.262600	0.494600
H761	H76	0.499200	0.304100	0.401000
H771	H77	0.389400	0.104400	0.404000
H781	H78	0.386300	0.001900	0.413000
H791	H79	0.254300	0.922100	0.598600
H801	H80	0.259800	0.025000	0.590400
C11	C1	0.458790	0.958980	0.770200
C21	C2	0.460550	0.891300	0.791980
C31	C3	0.520650	0.878050	0.767500
C41	C4	0.578980	0.928580	0.723040
C51	C5	0.578040	0.993820	0.701120
C61	C6	0.515550	0.008700	0.725480
C71	C7	0.272830	0.996020	0.948140
C81	C8	0.241310	0.935610	0.005380
C91	C9	0.216840	0.939040	0.060520
C101	C10	0.348510	0.849600	0.956100
C111	C11	0.301270	0.792470	0.069260
C121	C12	0.358630	0.817690	0.009620
C131	C13	0.422700	0.820440	0.003560
C141	C14	0.432070	0.805460	0.056880
C151	C15	0.493400	0.808410	0.051580
C161	C16	0.550010	0.825100	0.993500
C171	C17	0.541330	0.840970	0.940460
C181	C18	0.479390	0.838930	0.945540
C191	C19	0.613940	0.826560	0.988820
C201	C20	0.671240	0.841840	0.932720
C211	C21	0.623100	0.815210	0.041000
C221	C22	0.271010	0.270820	0.770200
C231	C23	0.247470	0.316720	0.791980
C241	C24	0.211850	0.354450	0.767500
C251	C25	0.197980	0.348380	0.723040
C261	C26	0.220840	0.305060	0.701120
C271	C27	0.258970	0.265820	0.725480
C281	C28	0.279030	0.055840	0.948140
C291	C29	0.253310	0.059010	0.005380
C301	C30	0.222640	0.000440	0.060520
C311	C31	0.195390	0.194300	0.956100
C321	C32	0.129470	0.138270	0.069260
C331	C33	0.131750	0.172690	0.009620
C341	C34	0.073740	0.176000	0.003560
C351	C35	0.011050	0.137660	0.056880
C361	C36	0.955020	0.140010	0.051580
C371	C37	0.956490	0.181400	0.993500
C381	C38	0.018210	0.218570	0.940460
C391	C39	0.075070	0.215530	0.945540
C401	C40	0.897240	0.184620	0.988820
C411	C41	0.896040	0.225440	0.932720
C421	C42	0.835900	0.143790	0.041000
C431	C43	0.458980	0.771010	0.270200
C441	C44	0.391300	0.747470	0.291980
C451	C45	0.378050	0.711850	0.267500
C461	C46	0.428580	0.697980	0.223040
C471	C47	0.493820	0.720840	0.201120
C481	C48	0.508700	0.758970	0.225480
C491	C49	0.496020	0.779030	0.448140
C501	C50	0.435610	0.753310	0.505380
C511	C51	0.439040	0.722640	0.560520
C521	C52	0.349600	0.695390	0.456100
C531	C53	0.292470	0.629470	0.569260
C541	C54	0.317690	0.631750	0.509620
C551	C55	0.320440	0.573740	0.503560
C561	C56	0.305460	0.511050	0.556880
C571	C57	0.308410	0.455020	0.551580
C581	C58	0.325100	0.456490	0.493500
C591	C59	0.340970	0.518210	0.440460
C601	C60	0.338930	0.575070	0.445540
C611	C61	0.326560	0.397240	0.488820
C621	C62	0.341840	0.396040	0.432720
C631	C63	0.315210	0.335900	0.541000
C641	C64	0.770820	0.958790	0.270200
C651	C65	0.816720	0.960550	0.291980
C661	C66	0.854450	0.020650	0.267500
C671	C67	0.848380	0.078980	0.223040
C681	C68	0.805060	0.078040	0.201120
C691	C69	0.765820	0.015550	0.225480
C701	C70	0.555840	0.772830	0.448140
C711	C71	0.559010	0.741310	0.505380
C721	C72	0.500440	0.716840	0.560520
C731	C73	0.694300	0.848510	0.456100
C741	C74	0.638270	0.801270	0.569260
C751	C75	0.672690	0.858630	0.509620
C761	C76	0.676000	0.922700	0.503560
C771	C77	0.637660	0.932070	0.556880
C781	C78	0.640010	0.993400	0.551580
C791	C79	0.681400	0.050010	0.493500
C801	C80	0.718570	0.041330	0.440460
C811	C81	0.715530	0.979390	0.445540
C821	C82	0.684620	0.113940	0.488820
C831	C83	0.725440	0.171240	0.432720
C841	C84	0.643790	0.123100	0.541000
C851	C85	0.541210	0.041020	0.229800
C861	C86	0.539450	0.108700	0.208020
C871	C87	0.479350	0.121950	0.232500
C881	C88	0.421020	0.071420	0.276960
C891	C89	0.421960	0.006180	0.298880
C901	C90	0.484450	0.991300	0.274520
C911	C91	0.727170	0.003980	0.051860
C921	C92	0.758690	0.064390	0.994620
C931	C93	0.783160	0.060960	0.939480
C941	C94	0.651490	0.150400	0.043900
C951	C95	0.698730	0.207530	0.930740
C961	C96	0.641370	0.182310	0.990380
C971	C97	0.577300	0.179560	0.996440
C981	C98	0.567930	0.194540	0.943120
C991	C99	0.506600	0.191590	0.948420
C1001	C100	0.449990	0.174900	0.006500
C1011	C101	0.458670	0.159030	0.059540
C1021	C102	0.520610	0.161070	0.054460
C1031	C103	0.386060	0.173440	0.011180
C1041	C104	0.328760	0.158160	0.067280
C1051	C105	0.376900	0.184790	0.959000
C1061	C106	0.728990	0.729180	0.229800
C1071	C107	0.752530	0.683280	0.208020
C1081	C108	0.788150	0.645550	0.232500
C1091	C109	0.802020	0.651620	0.276960
C1101	C110	0.779160	0.694940	0.298880
C1111	C111	0.741030	0.734180	0.274520
C1121	C112	0.720970	0.944160	0.051860
C1131	C113	0.746690	0.940990	0.994620
C1141	C114	0.777360	0.999560	0.939480
C1151	C115	0.804610	0.805700	0.043900
C1161	C116	0.870530	0.861730	0.930740
C1171	C117	0.868250	0.827310	0.990380
C1181	C118	0.926260	0.824000	0.996440
C1191	C119	0.988950	0.862340	0.943120
C1201	C120	0.044980	0.859990	0.948420
C1211	C121	0.043510	0.818600	0.006500
C1221	C122	0.981790	0.781430	0.059540
C1231	C123	0.924930	0.784470	0.054460
C1241	C124	0.102760	0.815380	0.011180
C1251	C125	0.103960	0.774560	0.067280
C1261	C126	0.164100	0.856210	0.959000
C1271	C127	0.541020	0.228990	0.729800
C1281	C128	0.608700	0.252530	0.708020
C1291	C129	0.621950	0.288150	0.732500
C1301	C130	0.571420	0.302020	0.776960
C1311	C131	0.506180	0.279160	0.798880
C1321	C132	0.491300	0.241030	0.774520
C1331	C133	0.503980	0.220970	0.551860
C1341	C134	0.564390	0.246690	0.494620
C1351	C135	0.560960	0.277360	0.439480
C1361	C136	0.650400	0.304610	0.543900
C1371	C137	0.707530	0.370530	0.430740
C1381	C138	0.682310	0.368250	0.490380
C1391	C139	0.679560	0.426260	0.496440
C1401	C140	0.694540	0.488950	0.443120
C1411	C141	0.691590	0.544980	0.448420
C1421	C142	0.674900	0.543510	0.506500
C1431	C143	0.659030	0.481790	0.559540
C1441	C144	0.661070	0.424930	0.554460
C1451	C145	0.673440	0.602760	0.511180
C1461	C146	0.658160	0.603960	0.567280
C1471	C147	0.684790	0.664100	0.459000
C1481	C148	0.229180	0.041210	0.729800
C1491	C149	0.183280	0.039450	0.708020
C1501	C150	0.145550	0.979350	0.732500
C1511	C151	0.151620	0.921020	0.776960
C1521	C152	0.194940	0.921960	0.798880
C1531	C153	0.234180	0.984450	0.774520
C1541	C154	0.444160	0.227170	0.551860
C1551	C155	0.440990	0.258690	0.494620
C1561	C156	0.499560	0.283160	0.439480
C1571	C157	0.305700	0.151490	0.543900
C1581	C158	0.361730	0.198730	0.430740
C1591	C159	0.327310	0.141370	0.490380
C1601	C160	0.324000	0.077300	0.496440
C1611	C161	0.362340	0.067930	0.443120
C1621	C162	0.359990	0.006600	0.448420
C1631	C163	0.318600	0.949990	0.506500
C1641	C164	0.281430	0.958670	0.559540
C1651	C165	0.284470	0.020610	0.554460
C1661	C166	0.315380	0.886060	0.511180
C1671	C167	0.274560	0.828760	0.567280
C1681	C168	0.356210	0.876900	0.459000
N11	N1	0.432170	0.053290	0.749700
N21	N2	0.407370	0.988840	0.784760
N31	N3	0.496950	0.067060	0.713480
N41	N4	0.302110	0.009210	0.886480
N51	N5	0.338190	0.877900	0.914740
N61	N6	0.255210	0.770910	0.117580
N71	N7	0.718690	0.854390	0.886220
N81	N8	0.631780	0.807140	0.082760
N91	N9	0.318130	0.197010	0.749700
N101	N10	0.307870	0.226400	0.784760
N111	N11	0.289570	0.219460	0.713480
N121	N12	0.311410	0.104310	0.886480
N131	N13	0.247070	0.207360	0.914740
N141	N14	0.127210	0.111510	0.117580
N151	N15	0.895090	0.259390	0.886220
N161	N16	0.785460	0.110100	0.082760
N171	N17	0.553290	0.818130	0.249700
N181	N18	0.488840	0.807870	0.284760
N191	N19	0.567060	0.789570	0.213480
N201	N20	0.509210	0.811410	0.386480
N211	N21	0.377900	0.747070	0.414740
N221	N22	0.270910	0.627210	0.617580
N231	N23	0.354390	0.395090	0.386220
N241	N24	0.307140	0.285460	0.582760
N251	N25	0.697010	0.932170	0.249700
N261	N26	0.726400	0.907370	0.284760
N271	N27	0.719460	0.996950	0.213480
N281	N28	0.604310	0.802110	0.386480
N291	N29	0.707360	0.838190	0.414740
N301	N30	0.611510	0.755210	0.617580
N311	N31	0.759390	0.218690	0.386220
N321	N32	0.610100	0.131780	0.582760
N331	N33	0.567830	0.946710	0.250300
N341	N34	0.592630	0.011160	0.215240
N351	N35	0.503050	0.932940	0.286520
N361	N36	0.697890	0.990790	0.113520
N371	N37	0.661810	0.122100	0.085260
N381	N38	0.744790	0.229090	0.882420
N391	N39	0.281310	0.145610	0.113780
N401	N40	0.368220	0.192860	0.917240
N411	N41	0.681870	0.802990	0.250300
N421	N42	0.692130	0.773600	0.215240
N431	N43	0.710430	0.780540	0.286520
N441	N44	0.688590	0.895690	0.113520
N451	N45	0.752930	0.792640	0.085260
N461	N46	0.872790	0.888490	0.882420
N471	N47	0.104910	0.740610	0.113780
N481	N48	0.214540	0.889900	0.917240
N491	N49	0.446710	0.181870	0.750300
N501	N50	0.511160	0.192130	0.715240
N511	N51	0.432940	0.210430	0.786520
N521	N52	0.490790	0.188590	0.613520
N531	N53	0.622100	0.252930	0.585260
N541	N54	0.729090	0.372790	0.382420
N551	N55	0.645610	0.604910	0.613780
N561	N56	0.692860	0.714540	0.417240
N571	N57	0.302990	0.067830	0.750300
N581	N58	0.273600	0.092630	0.715240
N591	N59	0.280540	0.003050	0.786520
N601	N60	0.395690	0.197890	0.613520
N611	N61	0.292640	0.161810	0.585260
N621	N62	0.388490	0.244790	0.382420
N631	N63	0.240610	0.781310	0.613780
N641	N64	0.389900	0.868220	0.417240
N651	N65	0.324500	0.074500	0.851000
N661	N66	0.574500	0.824500	0.351000
N671	N67	0.675500	0.925500	0.149000
N681	N68	0.425500	0.175500	0.649000
Ni111	Ni11	0.160360	0.555660	0.150580
Ni121	Ni12	0.189060	0.293760	0.150580
Ni131	Ni13	0.793760	0.660360	0.650580
Ni141	Ni14	0.055660	0.689060	0.650580
Ni151	Ni15	0.839640	0.444340	0.849420
Ni161	Ni16	0.810940	0.706240	0.849420
Ni171	Ni17	0.206240	0.339640	0.349420
Ni181	Ni18	0.944340	0.310940	0.349420
Ni191	Ni19	0.125000	0.375000	0.250000
Ni201	Ni20	0.875000	0.625000	0.750000
H811	H81	0.243900	0.642100	0.178600
H821	H82	0.304000	0.665800	0.219600
H831	H83	0.327500	0.583100	0.291600
H841	H84	0.288200	0.473100	0.328400
H851	H85	0.242800	0.604500	0.994600
H861	H86	0.294900	0.599800	0.901000
H871	H87	0.491600	0.706600	0.904000
H881	H88	0.585100	0.700700	0.913000
H891	H89	0.479300	0.647100	0.098600
H901	H90	0.384600	0.649800	0.090400
H911	H91	0.077500	0.179300	0.178600
H921	H92	0.976400	0.114600	0.219600
H931	H93	0.880900	0.125300	0.291600
H941	H94	0.883400	0.198500	0.328400
H951	H95	0.262600	0.400900	0.994600
H961	H96	0.304100	0.499200	0.901000
H971	H97	0.104400	0.389400	0.904000
H981	H98	0.001900	0.386300	0.913000
H991	H99	0.922100	0.254300	0.098600
H1001	H100	0.025000	0.259800	0.090400
H1011	H101	0.679300	0.743900	0.678600
H1021	H102	0.614600	0.804000	0.719600
H1031	H103	0.625300	0.827500	0.791600
H1041	H104	0.698500	0.788200	0.828400
H1051	H105	0.900900	0.742800	0.494600
H1061	H106	0.999200	0.794900	0.401000
H1071	H107	0.889400	0.991600	0.404000
H1081	H108	0.886300	0.085100	0.413000
H1091	H109	0.754300	0.979300	0.598600
H1101	H110	0.759800	0.884600	0.590400
H1111	H111	0.142100	0.577500	0.678600
H1121	H112	0.165800	0.476400	0.719600
H1131	H113	0.083100	0.380900	0.791600
H1141	H114	0.973100	0.383400	0.828400
H1151	H115	0.104500	0.762600	0.494600
H1161	H116	0.099800	0.804100	0.401000
H1171	H117	0.206600	0.604400	0.404000
H1181	H118	0.200700	0.501900	0.413000
H1191	H119	0.147100	0.422100	0.598600
H1201	H120	0.149800	0.525000	0.590400
H1211	H121	0.756100	0.357900	0.821400
H1221	H122	0.696000	0.334200	0.780400
H1231	H123	0.672500	0.416900	0.708400
H1241	H124	0.711800	0.526900	0.671600
H1251	H125	0.757200	0.395500	0.005400
H1261	H126	0.705100	0.400200	0.099000
H1271	H127	0.508400	0.293400	0.096000
H1281	H128	0.414900	0.299300	0.087000
H1291	H129	0.520700	0.352900	0.901400
H1301	H130	0.615400	0.350200	0.909600
H1311	H131	0.922500	0.820700	0.821400
H1321	H132	0.023600	0.885400	0.780400
H1331	H133	0.119100	0.874700	0.708400
H1341	H134	0.116600	0.801500	0.671600
H1351	H135	0.737400	0.599100	0.005400
H1361	H136	0.695900	0.500800	0.099000
H1371	H137	0.895600	0.610600	0.096000
H1381	H138	0.998100	0.613700	0.087000
H1391	H139	0.077900	0.745700	0.901400
H1401	H140	0.975000	0.740200	0.909600
H1411	H141	0.320700	0.256100	0.321400
H1421	H142	0.385400	0.196000	0.280400
H1431	H143	0.374700	0.172500	0.208400
H1441	H144	0.301500	0.211800	0.171600
H1451	H145	0.099100	0.257200	0.505400
H1461	H146	0.000800	0.205100	0.599000
H1471	H147	0.110600	0.008400	0.596000
H1481	H148	0.113700	0.914900	0.587000
H1491	H149	0.245700	0.020700	0.401400
H1501	H150	0.240200	0.115400	0.409600
H1511	H151	0.857900	0.422500	0.321400
H1521	H152	0.834200	0.523600	0.280400
H1531	H153	0.916900	0.619100	0.208400
H1541	H154	0.026900	0.616600	0.171600
H1551	H155	0.895500	0.237400	0.505400
H1561	H156	0.900200	0.195900	0.599000
H1571	H157	0.793400	0.395600	0.596000
H1581	H158	0.799300	0.498100	0.587000
H1591	H159	0.852900	0.577900	0.401400
H1601	H160	0.850200	0.475000	0.409600
C1691	C169	0.228990	0.541020	0.229800
C1701	C170	0.252530	0.608700	0.208020
C1711	C171	0.288150	0.621950	0.232500
C1721	C172	0.302020	0.571420	0.276960
C1731	C173	0.279160	0.506180	0.298880
C1741	C174	0.241030	0.491300	0.274520
C1751	C175	0.220970	0.503980	0.051860
C1761	C176	0.246690	0.564390	0.994620
C1771	C177	0.277360	0.560960	0.939480
C1781	C178	0.304610	0.650400	0.043900
C1791	C179	0.370530	0.707530	0.930740
C1801	C180	0.368250	0.682310	0.990380
C1811	C181	0.426260	0.679560	0.996440
C1821	C182	0.488950	0.694540	0.943120
C1831	C183	0.544980	0.691590	0.948420
C1841	C184	0.543510	0.674900	0.006500
C1851	C185	0.481790	0.659030	0.059540
C1861	C186	0.424930	0.661070	0.054460
C1871	C187	0.602760	0.673440	0.011180
C1881	C188	0.603960	0.658160	0.067280
C1891	C189	0.664100	0.684790	0.959000
C1901	C190	0.041210	0.229180	0.229800
C1911	C191	0.039450	0.183280	0.208020
C1921	C192	0.979350	0.145550	0.232500
C1931	C193	0.921020	0.151620	0.276960
C1941	C194	0.921960	0.194940	0.298880
C1951	C195	0.984450	0.234180	0.274520
C1961	C196	0.227170	0.444160	0.051860
C1971	C197	0.258690	0.440990	0.994620
C1981	C198	0.283160	0.499560	0.939480
C1991	C199	0.151490	0.305700	0.043900
C2001	C200	0.198730	0.361730	0.930740
C2011	C201	0.141370	0.327310	0.990380
C2021	C202	0.077300	0.324000	0.996440
C2031	C203	0.067930	0.362340	0.943120
C2041	C204	0.006600	0.359990	0.948420
C2051	C205	0.949990	0.318600	0.006500
C2061	C206	0.958670	0.281430	0.059540
C2071	C207	0.020610	0.284470	0.054460
C2081	C208	0.886060	0.315380	0.011180
C2091	C209	0.828760	0.274560	0.067280
C2101	C210	0.876900	0.356210	0.959000
C2111	C211	0.729180	0.728990	0.729800
C2121	C212	0.683280	0.752530	0.708020
C2131	C213	0.645550	0.788150	0.732500
C2141	C214	0.651620	0.802020	0.776960
C2151	C215	0.694940	0.779160	0.798880
C2161	C216	0.734180	0.741030	0.774520
C2171	C217	0.944160	0.720970	0.551860
C2181	C218	0.940990	0.746690	0.494620
C2191	C219	0.999560	0.777360	0.439480
C2201	C220	0.805700	0.804610	0.543900
C2211	C221	0.861730	0.870530	0.430740
C2221	C222	0.827310	0.868250	0.490380
C2231	C223	0.824000	0.926260	0.496440
C2241	C224	0.862340	0.988950	0.443120
C2251	C225	0.859990	0.044980	0.448420
C2261	C226	0.818600	0.043510	0.506500
C2271	C227	0.781430	0.981790	0.559540
C2281	C228	0.784470	0.924930	0.554460
C2291	C229	0.815380	0.102760	0.511180
C2301	C230	0.774560	0.103960	0.567280
C2311	C231	0.856210	0.164100	0.459000
C2321	C232	0.041020	0.541210	0.729800
C2331	C233	0.108700	0.539450	0.708020
C2341	C234	0.121950	0.479350	0.732500
C2351	C235	0.071420	0.421020	0.776960
C2361	C236	0.006180	0.421960	0.798880
C2371	C237	0.991300	0.484450	0.774520
C2381	C238	0.003980	0.727170	0.551860
C2391	C239	0.064390	0.758690	0.494620
C2401	C240	0.060960	0.783160	0.439480
C2411	C241	0.150400	0.651490	0.543900
C2421	C242	0.207530	0.698730	0.430740
C2431	C243	0.182310	0.641370	0.490380
C2441	C244	0.179560	0.577300	0.496440
C2451	C245	0.194540	0.567930	0.443120
C2461	C246	0.191590	0.506600	0.448420
C2471	C247	0.174900	0.449990	0.506500
C2481	C248	0.159030	0.458670	0.559540
C2491	C249	0.161070	0.520610	0.554460
C2501	C250	0.173440	0.386060	0.511180
C2511	C251	0.158160	0.328760	0.567280
C2521	C252	0.184790	0.376900	0.459000
C2531	C253	0.771010	0.458980	0.770200
C2541	C254	0.747470	0.391300	0.791980
C2551	C255	0.711850	0.378050	0.767500
C2561	C256	0.697980	0.428580	0.723040
C2571	C257	0.720840	0.493820	0.701120
C2581	C258	0.758970	0.508700	0.725480
C2591	C259	0.779030	0.496020	0.948140
C2601	C260	0.753310	0.435610	0.005380
C2611	C261	0.722640	0.439040	0.060520
C2621	C262	0.695390	0.349600	0.956100
C2631	C263	0.629470	0.292470	0.069260
C2641	C264	0.631750	0.317690	0.009620
C2651	C265	0.573740	0.320440	0.003560
C2661	C266	0.511050	0.305460	0.056880
C2671	C267	0.455020	0.308410	0.051580
C2681	C268	0.456490	0.325100	0.993500
C2691	C269	0.518210	0.340970	0.940460
C2701	C270	0.575070	0.338930	0.945540
C2711	C271	0.397240	0.326560	0.988820
C2721	C272	0.396040	0.341840	0.932720
C2731	C273	0.335900	0.315210	0.041000
C2741	C274	0.958790	0.770820	0.770200
C2751	C275	0.960550	0.816720	0.791980
C2761	C276	0.020650	0.854450	0.767500
C2771	C277	0.078980	0.848380	0.723040
C2781	C278	0.078040	0.805060	0.701120
C2791	C279	0.015550	0.765820	0.725480
C2801	C280	0.772830	0.555840	0.948140
C2811	C281	0.741310	0.559010	0.005380
C2821	C282	0.716840	0.500440	0.060520
C2831	C283	0.848510	0.694300	0.956100
C2841	C284	0.801270	0.638270	0.069260
C2851	C285	0.858630	0.672690	0.009620
C2861	C286	0.922700	0.676000	0.003560
C2871	C287	0.932070	0.637660	0.056880
C2881	C288	0.993400	0.640010	0.051580
C2891	C289	0.050010	0.681400	0.993500
C2901	C290	0.041330	0.718570	0.940460
C2911	C291	0.979390	0.715530	0.945540
C2921	C292	0.113940	0.684620	0.988820
C2931	C293	0.171240	0.725440	0.932720
C2941	C294	0.123100	0.643790	0.041000
C2951	C295	0.270820	0.271010	0.270200
C2961	C296	0.316720	0.247470	0.291980
C2971	C297	0.354450	0.211850	0.267500
C2981	C298	0.348380	0.197980	0.223040
C2991	C299	0.305060	0.220840	0.201120
C3001	C300	0.265820	0.258970	0.225480
C3011	C301	0.055840	0.279030	0.448140
C3021	C302	0.059010	0.253310	0.505380
C3031	C303	0.000440	0.222640	0.560520
C3041	C304	0.194300	0.195390	0.456100
C3051	C305	0.138270	0.129470	0.569260
C3061	C306	0.172690	0.131750	0.509620
C3071	C307	0.176000	0.073740	0.503560
C3081	C308	0.137660	0.011050	0.556880
C3091	C309	0.140010	0.955020	0.551580
C3101	C310	0.181400	0.956490	0.493500
C3111	C311	0.218570	0.018210	0.440460
C3121	C312	0.215530	0.075070	0.445540
C3131	C313	0.184620	0.897240	0.488820
C3141	C314	0.225440	0.896040	0.432720
C3151	C315	0.143790	0.835900	0.541000
C3161	C316	0.958980	0.458790	0.270200
C3171	C317	0.891300	0.460550	0.291980
C3181	C318	0.878050	0.520650	0.267500
C3191	C319	0.928580	0.578980	0.223040
C3201	C320	0.993820	0.578040	0.201120
C3211	C321	0.008700	0.515550	0.225480
C3221	C322	0.996020	0.272830	0.448140
C3231	C323	0.935610	0.241310	0.505380
C3241	C324	0.939040	0.216840	0.560520
C3251	C325	0.849600	0.348510	0.456100
C3261	C326	0.792470	0.301270	0.569260
C3271	C327	0.817690	0.358630	0.509620
C3281	C328	0.820440	0.422700	0.503560
C3291	C329	0.805460	0.432070	0.556880
C3301	C330	0.808410	0.493400	0.551580
C3311	C331	0.825100	0.550010	0.493500
C3321	C332	0.840970	0.541330	0.440460
C3331	C333	0.838930	0.479390	0.445540
C3341	C334	0.826560	0.613940	0.488820
C3351	C335	0.841840	0.671240	0.432720
C3361	C336	0.815210	0.623100	0.541000
N691	N69	0.181870	0.446710	0.250300
N701	N70	0.192130	0.511160	0.215240
N711	N71	0.210430	0.432940	0.286520
N721	N72	0.188590	0.490790	0.113520
N731	N73	0.252930	0.622100	0.085260
N741	N74	0.372790	0.729090	0.882420
N751	N75	0.604910	0.645610	0.113780
N761	N76	0.714540	0.692860	0.917240
N771	N77	0.067830	0.302990	0.250300
N781	N78	0.092630	0.273600	0.215240
N791	N79	0.003050	0.280540	0.286520
N801	N80	0.197890	0.395690	0.113520
N811	N81	0.161810	0.292640	0.085260
N821	N82	0.244790	0.388490	0.882420
N831	N83	0.781310	0.240610	0.113780
N841	N84	0.868220	0.389900	0.917240
N851	N85	0.802990	0.681870	0.750300
N861	N86	0.773600	0.692130	0.715240
N871	N87	0.780540	0.710430	0.786520
N881	N88	0.895690	0.688590	0.613520
N891	N89	0.792640	0.752930	0.585260
N901	N90	0.888490	0.872790	0.382420
N911	N91	0.740610	0.104910	0.613780
N921	N92	0.889900	0.214540	0.417240
N931	N93	0.946710	0.567830	0.750300
N941	N94	0.011160	0.592630	0.715240
N951	N95	0.932940	0.503050	0.786520
N961	N96	0.990790	0.697890	0.613520
N971	N97	0.122100	0.661810	0.585260
N981	N98	0.229090	0.744790	0.382420
N991	N99	0.145610	0.281310	0.613780
N1001	N100	0.192860	0.368220	0.417240
N1011	N101	0.818130	0.553290	0.749700
N1021	N102	0.807870	0.488840	0.784760
N1031	N103	0.789570	0.567060	0.713480
N1041	N104	0.811410	0.509210	0.886480
N1051	N105	0.747070	0.377900	0.914740
N1061	N106	0.627210	0.270910	0.117580
N1071	N107	0.395090	0.354390	0.886220
N1081	N108	0.285460	0.307140	0.082760
N1091	N109	0.932170	0.697010	0.749700
N1101	N110	0.907370	0.726400	0.784760
N1111	N111	0.996950	0.719460	0.713480
N1121	N112	0.802110	0.604310	0.886480
N1131	N113	0.838190	0.707360	0.914740
N1141	N114	0.755210	0.611510	0.117580
N1151	N115	0.218690	0.759390	0.886220
N1161	N116	0.131780	0.610100	0.082760
N1171	N117	0.197010	0.318130	0.249700
N1181	N118	0.226400	0.307870	0.284760
N1191	N119	0.219460	0.289570	0.213480
N1201	N120	0.104310	0.311410	0.386480
N1211	N121	0.207360	0.247070	0.414740
N1221	N122	0.111510	0.127210	0.617580
N1231	N123	0.259390	0.895090	0.386220
N1241	N124	0.110100	0.785460	0.582760
N1251	N125	0.053290	0.432170	0.249700
N1261	N126	0.988840	0.407370	0.284760
N1271	N127	0.067060	0.496950	0.213480
N1281	N128	0.009210	0.302110	0.386480
N1291	N129	0.877900	0.338190	0.414740
N1301	N130	0.770910	0.255210	0.617580
N1311	N131	0.854390	0.718690	0.386220
N1321	N132	0.807140	0.631780	0.582760
N1331	N133	0.175500	0.425500	0.149000
N1341	N134	0.925500	0.675500	0.649000
N1351	N135	0.824500	0.574500	0.851000
N1361	N136	0.074500	0.324500	0.351000
