data_LOFVIN_clean_PM
_symmetry_space_group_name_H-M	'P1'
_cell_length_a	22.139600
_cell_length_b	14.593600
_cell_length_c	28.123800
_cell_angle_alpha	90.000000
_cell_angle_beta	116.317000
_cell_angle_gamma	90.000000
_symmetry_Int_Tables_number 1

loop_
_symmetry_equiv_pos_as_xyz
'x,y,z'

loop_
_atom_site_label
_atom_site_type_symbol
_atom_site_fract_x
_atom_site_fract_y
_atom_site_fract_z
Ni11	Ni1	0.246010	0.671630	0.244300
Ni21	Ni2	0.218990	0.994140	0.539440
O11	O1	0.784100	0.927900	0.348630
O21	O2	0.213100	0.760400	0.284010
O31	O3	0.135200	0.949600	0.472320
O41	O4	0.847500	0.988100	0.428000
O51	O5	0.222900	0.082900	0.295500
O61	O6	0.164800	0.675200	0.323100
N11	N1	0.342700	0.671100	0.308000
O71	O7	0.173000	0.164900	0.334700
N21	N2	0.279500	0.969500	0.502700
N31	N3	0.651200	0.824600	0.680500
N41	N4	0.567800	0.799100	0.601100
N51	N5	0.426700	0.699000	0.386000
C11	C1	0.021600	0.964200	0.405300
O81	O8	0.087900	0.088500	0.450200
C21	C2	0.526400	0.763700	0.459400
H11	H1	0.545500	0.773700	0.436200
C31	C3	0.098600	0.839000	0.335600
H21	H2	0.079100	0.784000	0.338400
N61	N6	0.368200	0.968600	0.486400
C41	C4	0.075000	0.920700	0.346000
C51	C5	0.486100	0.000500	0.543000
H31	H3	0.476700	0.000600	0.572200
C61	C6	0.016500	0.924200	0.358800
C71	C7	0.179300	0.920500	0.315900
H41	H4	0.213800	0.920300	0.305500
C81	C8	0.470100	0.732100	0.528800
H51	H5	0.451700	0.721600	0.552300
C91	C9	0.561300	0.788300	0.512200
H61	H6	0.603800	0.814800	0.524500
C101	C10	0.360000	0.694700	0.357200
H71	H7	0.329200	0.706900	0.370600
C111	C11	0.463500	0.724300	0.441100
C121	C12	0.896600	0.903200	0.329100
H81	H8	0.854900	0.883700	0.303400
C131	C13	0.840100	0.953500	0.385400
C141	C14	0.533300	0.773700	0.546400
C151	C15	0.634700	0.799700	0.630700
H91	H9	0.665800	0.784800	0.618000
C161	C16	0.435400	0.983600	0.493600
C171	C17	0.343400	0.990300	0.520600
H101	H10	0.368800	0.017200	0.553500
C181	C18	0.261000	0.932400	0.454200
H111	H11	0.218100	0.911300	0.431700
C191	C19	0.953200	0.893100	0.320600
H121	H12	0.949400	0.865700	0.289600
C201	C20	0.087300	0.003800	0.445800
C211	C21	0.454500	0.675800	0.352600
H131	H13	0.500100	0.672900	0.361000
C221	C22	0.448600	0.982600	0.449800
H141	H14	0.414300	0.970700	0.416100
C231	C23	0.156500	0.003700	0.326000
C241	C24	0.901600	0.942700	0.376200
C251	C25	0.105200	0.001600	0.342000
H151	H15	0.090800	0.056500	0.350400
C261	C26	0.434400	0.706000	0.474900
H161	H16	0.392600	0.677500	0.462500
C271	C27	0.151500	0.837700	0.321000
C281	C28	0.964000	0.972700	0.414000
H171	H17	0.967700	0.998700	0.445400
C291	C29	0.401900	0.657900	0.305100
H181	H18	0.405600	0.639300	0.274900
C301	C30	0.591300	0.841200	0.681600
H191	H19	0.586700	0.860500	0.711300
C311	C31	0.539100	0.825800	0.633200
H201	H20	0.493400	0.832100	0.623800
C321	C32	0.186600	0.089800	0.318700
C331	C33	0.316100	0.930900	0.443300
H211	H21	0.317400	0.908700	0.412800
C341	C34	0.177500	0.750500	0.308300
Ni31	Ni3	0.253990	0.171630	0.255700
Ni41	Ni4	0.281010	0.494140	0.960560
O91	O9	0.715900	0.427900	0.151370
O101	O10	0.286900	0.260400	0.215990
O111	O11	0.364800	0.449600	0.027680
O121	O12	0.652500	0.488100	0.072000
O131	O13	0.277100	0.582900	0.204500
O141	O14	0.335200	0.175200	0.176900
N71	N7	0.157300	0.171100	0.192000
O151	O15	0.327000	0.664900	0.165300
N81	N8	0.220500	0.469500	0.997300
N91	N9	0.848800	0.324600	0.819500
N101	N10	0.932200	0.299100	0.898900
N111	N11	0.073300	0.199000	0.114000
C351	C35	0.478400	0.464200	0.094700
O161	O16	0.412100	0.588500	0.049800
C361	C36	0.973600	0.263700	0.040600
H221	H22	0.954500	0.273700	0.063800
C371	C37	0.401400	0.339000	0.164400
H231	H23	0.420900	0.284000	0.161600
N121	N12	0.131800	0.468600	0.013600
C381	C38	0.425000	0.420700	0.154000
C391	C39	0.013900	0.500500	0.957000
H241	H24	0.023300	0.500600	0.927800
C401	C40	0.483500	0.424200	0.141200
C411	C41	0.320700	0.420500	0.184100
H251	H25	0.286200	0.420300	0.194500
C421	C42	0.029900	0.232100	0.971200
H261	H26	0.048300	0.221600	0.947700
C431	C43	0.938700	0.288300	0.987800
H271	H27	0.896200	0.314800	0.975500
C441	C44	0.140000	0.194700	0.142800
H281	H28	0.170800	0.206900	0.129400
C451	C45	0.036500	0.224300	0.058900
C461	C46	0.603400	0.403200	0.170900
H291	H29	0.645100	0.383700	0.196600
C471	C47	0.659900	0.453500	0.114600
C481	C48	0.966700	0.273700	0.953600
C491	C49	0.865300	0.299700	0.869300
H301	H30	0.834200	0.284800	0.882000
C501	C50	0.064600	0.483600	0.006400
C511	C51	0.156600	0.490300	0.979400
H311	H31	0.131200	0.517200	0.946500
C521	C52	0.239000	0.432400	0.045800
H321	H32	0.281900	0.411300	0.068300
C531	C53	0.546800	0.393100	0.179400
H331	H33	0.550600	0.365700	0.210400
C541	C54	0.412700	0.503800	0.054200
C551	C55	0.045500	0.175800	0.147400
H341	H34	0.999900	0.172900	0.139000
C561	C56	0.051400	0.482600	0.050200
H351	H35	0.085700	0.470700	0.083900
C571	C57	0.343500	0.503700	0.174000
C581	C58	0.598400	0.442700	0.123800
C591	C59	0.394800	0.501600	0.158000
H361	H36	0.409200	0.556500	0.149600
C601	C60	0.065600	0.206000	0.025100
H371	H37	0.107400	0.177500	0.037500
C611	C61	0.348500	0.337700	0.179000
C621	C62	0.536000	0.472700	0.086000
H381	H38	0.532300	0.498700	0.054600
C631	C63	0.098100	0.157900	0.194900
H391	H39	0.094400	0.139300	0.225100
C641	C64	0.908700	0.341200	0.818400
H401	H40	0.913300	0.360500	0.788700
C651	C65	0.960900	0.325800	0.866800
H411	H41	0.006600	0.332100	0.876200
C661	C66	0.313400	0.589800	0.181300
C671	C67	0.183900	0.430900	0.056700
H421	H42	0.182600	0.408700	0.087200
C681	C68	0.322500	0.250500	0.191700
Ni51	Ni5	0.753990	0.328370	0.755700
Ni61	Ni6	0.781010	0.005860	0.460560
O171	O17	0.215900	0.072100	0.651370
O181	O18	0.786900	0.239600	0.715990
O191	O19	0.864800	0.050400	0.527680
O201	O20	0.152500	0.011900	0.572000
O211	O21	0.777100	0.917100	0.704500
O221	O22	0.835200	0.324800	0.676900
N131	N13	0.657300	0.328900	0.692000
O231	O23	0.827000	0.835100	0.665300
N141	N14	0.720500	0.030500	0.497300
N151	N15	0.348800	0.175400	0.319500
N161	N16	0.432200	0.200900	0.398900
N171	N17	0.573300	0.301000	0.614000
C691	C69	0.978400	0.035800	0.594700
O241	O24	0.912100	0.911500	0.549800
C701	C70	0.473600	0.236300	0.540600
H431	H43	0.454500	0.226300	0.563800
C711	C71	0.901400	0.161000	0.664400
H441	H44	0.920900	0.216000	0.661600
N181	N18	0.631800	0.031400	0.513600
C721	C72	0.925000	0.079300	0.654000
C731	C73	0.513900	0.999500	0.457000
H451	H45	0.523300	0.999400	0.427800
C741	C74	0.983500	0.075800	0.641200
C751	C75	0.820700	0.079500	0.684100
H461	H46	0.786200	0.079700	0.694500
C761	C76	0.529900	0.267900	0.471200
H471	H47	0.548300	0.278400	0.447700
C771	C77	0.438700	0.211700	0.487800
H481	H48	0.396200	0.185200	0.475500
C781	C78	0.640000	0.305300	0.642800
H491	H49	0.670800	0.293100	0.629400
C791	C79	0.536500	0.275700	0.558900
C801	C80	0.103400	0.096800	0.670900
H501	H50	0.145100	0.116300	0.696600
C811	C81	0.159900	0.046500	0.614600
C821	C82	0.466700	0.226300	0.453600
C831	C83	0.365300	0.200300	0.369300
H511	H51	0.334200	0.215200	0.382000
C841	C84	0.564600	0.016400	0.506400
C851	C85	0.656600	0.009700	0.479400
H521	H52	0.631200	0.982800	0.446500
C861	C86	0.739000	0.067600	0.545800
H531	H53	0.781900	0.088700	0.568300
C871	C87	0.046800	0.106900	0.679400
H541	H54	0.050600	0.134300	0.710400
C881	C88	0.912700	0.996200	0.554200
C891	C89	0.545500	0.324200	0.647400
H551	H55	0.499900	0.327100	0.639000
C901	C90	0.551400	0.017400	0.550200
H561	H56	0.585700	0.029300	0.583900
C911	C91	0.843500	0.996300	0.674000
C921	C92	0.098400	0.057300	0.623800
C931	C93	0.894800	0.998400	0.658000
H571	H57	0.909200	0.943500	0.649600
C941	C94	0.565600	0.294000	0.525100
H581	H58	0.607400	0.322500	0.537500
C951	C95	0.848500	0.162300	0.679000
C961	C96	0.036000	0.027300	0.586000
H591	H59	0.032300	0.001300	0.554600
C971	C97	0.598100	0.342100	0.694900
H601	H60	0.594400	0.360700	0.725100
C981	C98	0.408700	0.158800	0.318400
H611	H61	0.413300	0.139500	0.288700
C991	C99	0.460900	0.174200	0.366800
H621	H62	0.506600	0.167900	0.376200
C1001	C100	0.813400	0.910200	0.681300
C1011	C101	0.683900	0.069100	0.556700
H631	H63	0.682600	0.091300	0.587200
C1021	C102	0.822500	0.249500	0.691700
Ni71	Ni7	0.746010	0.828370	0.744300
Ni81	Ni8	0.718990	0.505860	0.039440
O251	O25	0.284100	0.572100	0.848630
O261	O26	0.713100	0.739600	0.784010
O271	O27	0.635200	0.550400	0.972320
O281	O28	0.347500	0.511900	0.928000
O291	O29	0.722900	0.417100	0.795500
O301	O30	0.664800	0.824800	0.823100
N191	N19	0.842700	0.828900	0.808000
O311	O31	0.673000	0.335100	0.834700
N201	N20	0.779500	0.530500	0.002700
N211	N21	0.151200	0.675400	0.180500
N221	N22	0.067800	0.700900	0.101100
N231	N23	0.926700	0.801000	0.886000
C1031	C103	0.521600	0.535800	0.905300
O321	O32	0.587900	0.411500	0.950200
C1041	C104	0.026400	0.736300	0.959400
H641	H64	0.045500	0.726300	0.936200
C1051	C105	0.598600	0.661000	0.835600
H651	H65	0.579100	0.716000	0.838400
N241	N24	0.868200	0.531400	0.986400
C1061	C106	0.575000	0.579300	0.846000
C1071	C107	0.986100	0.499500	0.043000
H661	H66	0.976700	0.499400	0.072200
C1081	C108	0.516500	0.575800	0.858800
C1091	C109	0.679300	0.579500	0.815900
H671	H67	0.713800	0.579700	0.805500
C1101	C110	0.970100	0.767900	0.028800
H681	H68	0.951700	0.778400	0.052300
C1111	C111	0.061300	0.711700	0.012200
H691	H69	0.103800	0.685200	0.024500
C1121	C112	0.860000	0.805300	0.857200
H701	H70	0.829200	0.793100	0.870600
C1131	C113	0.963500	0.775700	0.941100
C1141	C114	0.396600	0.596800	0.829100
H711	H71	0.354900	0.616300	0.803400
C1151	C115	0.340100	0.546500	0.885400
C1161	C116	0.033300	0.726300	0.046400
C1171	C117	0.134700	0.700300	0.130700
H721	H72	0.165800	0.715200	0.118000
C1181	C118	0.935400	0.516400	0.993600
C1191	C119	0.843400	0.509700	0.020600
H731	H73	0.868800	0.482800	0.053500
C1201	C120	0.761000	0.567600	0.954200
H741	H74	0.718100	0.588700	0.931700
C1211	C121	0.453200	0.606900	0.820600
H751	H75	0.449400	0.634300	0.789600
C1221	C122	0.587300	0.496200	0.945800
C1231	C123	0.954500	0.824200	0.852600
H761	H76	0.000100	0.827100	0.861000
C1241	C124	0.948600	0.517400	0.949800
H771	H77	0.914300	0.529300	0.916100
C1251	C125	0.656500	0.496300	0.826000
C1261	C126	0.401600	0.557300	0.876200
C1271	C127	0.605200	0.498400	0.842000
H781	H78	0.590800	0.443500	0.850400
C1281	C128	0.934400	0.794000	0.974900
H791	H79	0.892600	0.822500	0.962500
C1291	C129	0.651500	0.662300	0.821000
C1301	C130	0.464000	0.527300	0.914000
H801	H80	0.467700	0.501300	0.945400
C1311	C131	0.901900	0.842100	0.805100
H811	H81	0.905600	0.860700	0.774900
C1321	C132	0.091300	0.658800	0.181600
H821	H82	0.086700	0.639500	0.211300
C1331	C133	0.039100	0.674200	0.133200
H831	H83	0.993400	0.667900	0.123800
C1341	C134	0.686600	0.410200	0.818700
C1351	C135	0.816100	0.569100	0.943300
H841	H84	0.817400	0.591300	0.912800
C1361	C136	0.677500	0.749500	0.808300
Ni91	Ni9	0.746010	0.171630	0.244300
Ni101	Ni10	0.718990	0.494140	0.539440
O331	O33	0.284100	0.427900	0.348630
O341	O34	0.713100	0.260400	0.284010
O351	O35	0.635200	0.449600	0.472320
O361	O36	0.347500	0.488100	0.428000
O371	O37	0.722900	0.582900	0.295500
O381	O38	0.664800	0.175200	0.323100
N251	N25	0.842700	0.171100	0.308000
O391	O39	0.673000	0.664900	0.334700
N261	N26	0.779500	0.469500	0.502700
N271	N27	0.151200	0.324600	0.680500
N281	N28	0.067800	0.299100	0.601100
N291	N29	0.926700	0.199000	0.386000
C1371	C137	0.521600	0.464200	0.405300
O401	O40	0.587900	0.588500	0.450200
C1381	C138	0.026400	0.263700	0.459400
H851	H85	0.045500	0.273700	0.436200
C1391	C139	0.598600	0.339000	0.335600
H861	H86	0.579100	0.284000	0.338400
N301	N30	0.868200	0.468600	0.486400
C1401	C140	0.575000	0.420700	0.346000
C1411	C141	0.986100	0.500500	0.543000
H871	H87	0.976700	0.500600	0.572200
C1421	C142	0.516500	0.424200	0.358800
C1431	C143	0.679300	0.420500	0.315900
H881	H88	0.713800	0.420300	0.305500
C1441	C144	0.970100	0.232100	0.528800
H891	H89	0.951700	0.221600	0.552300
C1451	C145	0.061300	0.288300	0.512200
H901	H90	0.103800	0.314800	0.524500
C1461	C146	0.860000	0.194700	0.357200
H911	H91	0.829200	0.206900	0.370600
C1471	C147	0.963500	0.224300	0.441100
C1481	C148	0.396600	0.403200	0.329100
H921	H92	0.354900	0.383700	0.303400
C1491	C149	0.340100	0.453500	0.385400
C1501	C150	0.033300	0.273700	0.546400
C1511	C151	0.134700	0.299700	0.630700
H931	H93	0.165800	0.284800	0.618000
C1521	C152	0.935400	0.483600	0.493600
C1531	C153	0.843400	0.490300	0.520600
H941	H94	0.868800	0.517200	0.553500
C1541	C154	0.761000	0.432400	0.454200
H951	H95	0.718100	0.411300	0.431700
C1551	C155	0.453200	0.393100	0.320600
H961	H96	0.449400	0.365700	0.289600
C1561	C156	0.587300	0.503800	0.445800
C1571	C157	0.954500	0.175800	0.352600
H971	H97	0.000100	0.172900	0.361000
C1581	C158	0.948600	0.482600	0.449800
H981	H98	0.914300	0.470700	0.416100
C1591	C159	0.656500	0.503700	0.326000
C1601	C160	0.401600	0.442700	0.376200
C1611	C161	0.605200	0.501600	0.342000
H991	H99	0.590800	0.556500	0.350400
C1621	C162	0.934400	0.206000	0.474900
H1001	H100	0.892600	0.177500	0.462500
C1631	C163	0.651500	0.337700	0.321000
C1641	C164	0.464000	0.472700	0.414000
H1011	H101	0.467700	0.498700	0.445400
C1651	C165	0.901900	0.157900	0.305100
H1021	H102	0.905600	0.139300	0.274900
C1661	C166	0.091300	0.341200	0.681600
H1031	H103	0.086700	0.360500	0.711300
C1671	C167	0.039100	0.325800	0.633200
H1041	H104	0.993400	0.332100	0.623800
C1681	C168	0.686600	0.589800	0.318700
C1691	C169	0.816100	0.430900	0.443300
H1051	H105	0.817400	0.408700	0.412800
C1701	C170	0.677500	0.250500	0.308300
Ni111	Ni11	0.753990	0.671630	0.255700
Ni121	Ni12	0.781010	0.994140	0.960560
O411	O41	0.215900	0.927900	0.151370
O421	O42	0.786900	0.760400	0.215990
O431	O43	0.864800	0.949600	0.027680
O441	O44	0.152500	0.988100	0.072000
O451	O45	0.777100	0.082900	0.204500
O461	O46	0.835200	0.675200	0.176900
N311	N31	0.657300	0.671100	0.192000
O471	O47	0.827000	0.164900	0.165300
N321	N32	0.720500	0.969500	0.997300
N331	N33	0.348800	0.824600	0.819500
N341	N34	0.432200	0.799100	0.898900
N351	N35	0.573300	0.699000	0.114000
C1711	C171	0.978400	0.964200	0.094700
O481	O48	0.912100	0.088500	0.049800
C1721	C172	0.473600	0.763700	0.040600
H1061	H106	0.454500	0.773700	0.063800
C1731	C173	0.901400	0.839000	0.164400
H1071	H107	0.920900	0.784000	0.161600
N361	N36	0.631800	0.968600	0.013600
C1741	C174	0.925000	0.920700	0.154000
C1751	C175	0.513900	0.000500	0.957000
H1081	H108	0.523300	0.000600	0.927800
C1761	C176	0.983500	0.924200	0.141200
C1771	C177	0.820700	0.920500	0.184100
H1091	H109	0.786200	0.920300	0.194500
C1781	C178	0.529900	0.732100	0.971200
H1101	H110	0.548300	0.721600	0.947700
C1791	C179	0.438700	0.788300	0.987800
H1111	H111	0.396200	0.814800	0.975500
C1801	C180	0.640000	0.694700	0.142800
H1121	H112	0.670800	0.706900	0.129400
C1811	C181	0.536500	0.724300	0.058900
C1821	C182	0.103400	0.903200	0.170900
H1131	H113	0.145100	0.883700	0.196600
C1831	C183	0.159900	0.953500	0.114600
C1841	C184	0.466700	0.773700	0.953600
C1851	C185	0.365300	0.799700	0.869300
H1141	H114	0.334200	0.784800	0.882000
C1861	C186	0.564600	0.983600	0.006400
C1871	C187	0.656600	0.990300	0.979400
H1151	H115	0.631200	0.017200	0.946500
C1881	C188	0.739000	0.932400	0.045800
H1161	H116	0.781900	0.911300	0.068300
C1891	C189	0.046800	0.893100	0.179400
H1171	H117	0.050600	0.865700	0.210400
C1901	C190	0.912700	0.003800	0.054200
C1911	C191	0.545500	0.675800	0.147400
H1181	H118	0.499900	0.672900	0.139000
C1921	C192	0.551400	0.982600	0.050200
H1191	H119	0.585700	0.970700	0.083900
C1931	C193	0.843500	0.003700	0.174000
C1941	C194	0.098400	0.942700	0.123800
C1951	C195	0.894800	0.001600	0.158000
H1201	H120	0.909200	0.056500	0.149600
C1961	C196	0.565600	0.706000	0.025100
H1211	H121	0.607400	0.677500	0.037500
C1971	C197	0.848500	0.837700	0.179000
C1981	C198	0.036000	0.972700	0.086000
H1221	H122	0.032300	0.998700	0.054600
C1991	C199	0.598100	0.657900	0.194900
H1231	H123	0.594400	0.639300	0.225100
C2001	C200	0.408700	0.841200	0.818400
H1241	H124	0.413300	0.860500	0.788700
C2011	C201	0.460900	0.825800	0.866800
H1251	H125	0.506600	0.832100	0.876200
C2021	C202	0.813400	0.089800	0.181300
C2031	C203	0.683900	0.930900	0.056700
H1261	H126	0.682600	0.908700	0.087200
C2041	C204	0.822500	0.750500	0.191700
Ni131	Ni13	0.253990	0.828370	0.755700
Ni141	Ni14	0.281010	0.505860	0.460560
O491	O49	0.715900	0.572100	0.651370
O501	O50	0.286900	0.739600	0.715990
O511	O51	0.364800	0.550400	0.527680
O521	O52	0.652500	0.511900	0.572000
O531	O53	0.277100	0.417100	0.704500
O541	O54	0.335200	0.824800	0.676900
N371	N37	0.157300	0.828900	0.692000
O551	O55	0.327000	0.335100	0.665300
N381	N38	0.220500	0.530500	0.497300
N391	N39	0.848800	0.675400	0.319500
N401	N40	0.932200	0.700900	0.398900
N411	N41	0.073300	0.801000	0.614000
C2051	C205	0.478400	0.535800	0.594700
O561	O56	0.412100	0.411500	0.549800
C2061	C206	0.973600	0.736300	0.540600
H1271	H127	0.954500	0.726300	0.563800
C2071	C207	0.401400	0.661000	0.664400
H1281	H128	0.420900	0.716000	0.661600
N421	N42	0.131800	0.531400	0.513600
C2081	C208	0.425000	0.579300	0.654000
C2091	C209	0.013900	0.499500	0.457000
H1291	H129	0.023300	0.499400	0.427800
C2101	C210	0.483500	0.575800	0.641200
C2111	C211	0.320700	0.579500	0.684100
H1301	H130	0.286200	0.579700	0.694500
C2121	C212	0.029900	0.767900	0.471200
H1311	H131	0.048300	0.778400	0.447700
C2131	C213	0.938700	0.711700	0.487800
H1321	H132	0.896200	0.685200	0.475500
C2141	C214	0.140000	0.805300	0.642800
H1331	H133	0.170800	0.793100	0.629400
C2151	C215	0.036500	0.775700	0.558900
C2161	C216	0.603400	0.596800	0.670900
H1341	H134	0.645100	0.616300	0.696600
C2171	C217	0.659900	0.546500	0.614600
C2181	C218	0.966700	0.726300	0.453600
C2191	C219	0.865300	0.700300	0.369300
H1351	H135	0.834200	0.715200	0.382000
C2201	C220	0.064600	0.516400	0.506400
C2211	C221	0.156600	0.509700	0.479400
H1361	H136	0.131200	0.482800	0.446500
C2221	C222	0.239000	0.567600	0.545800
H1371	H137	0.281900	0.588700	0.568300
C2231	C223	0.546800	0.606900	0.679400
H1381	H138	0.550600	0.634300	0.710400
C2241	C224	0.412700	0.496200	0.554200
C2251	C225	0.045500	0.824200	0.647400
H1391	H139	0.999900	0.827100	0.639000
C2261	C226	0.051400	0.517400	0.550200
H1401	H140	0.085700	0.529300	0.583900
C2271	C227	0.343500	0.496300	0.674000
C2281	C228	0.598400	0.557300	0.623800
C2291	C229	0.394800	0.498400	0.658000
H1411	H141	0.409200	0.443500	0.649600
C2301	C230	0.065600	0.794000	0.525100
H1421	H142	0.107400	0.822500	0.537500
C2311	C231	0.348500	0.662300	0.679000
C2321	C232	0.536000	0.527300	0.586000
H1431	H143	0.532300	0.501300	0.554600
C2331	C233	0.098100	0.842100	0.694900
H1441	H144	0.094400	0.860700	0.725100
C2341	C234	0.908700	0.658800	0.318400
H1451	H145	0.913300	0.639500	0.288700
C2351	C235	0.960900	0.674200	0.366800
H1461	H146	0.006600	0.667900	0.376200
C2361	C236	0.313400	0.410200	0.681300
C2371	C237	0.183900	0.569100	0.556700
H1471	H147	0.182600	0.591300	0.587200
C2381	C238	0.322500	0.749500	0.691700
Ni151	Ni15	0.246010	0.328370	0.744300
Ni161	Ni16	0.218990	0.005860	0.039440
O571	O57	0.784100	0.072100	0.848630
O581	O58	0.213100	0.239600	0.784010
O591	O59	0.135200	0.050400	0.972320
O601	O60	0.847500	0.011900	0.928000
O611	O61	0.222900	0.917100	0.795500
O621	O62	0.164800	0.324800	0.823100
N431	N43	0.342700	0.328900	0.808000
O631	O63	0.173000	0.835100	0.834700
N441	N44	0.279500	0.030500	0.002700
N451	N45	0.651200	0.175400	0.180500
N461	N46	0.567800	0.200900	0.101100
N471	N47	0.426700	0.301000	0.886000
C2391	C239	0.021600	0.035800	0.905300
O641	O64	0.087900	0.911500	0.950200
C2401	C240	0.526400	0.236300	0.959400
H1481	H148	0.545500	0.226300	0.936200
C2411	C241	0.098600	0.161000	0.835600
H1491	H149	0.079100	0.216000	0.838400
N481	N48	0.368200	0.031400	0.986400
C2421	C242	0.075000	0.079300	0.846000
C2431	C243	0.486100	0.999500	0.043000
H1501	H150	0.476700	0.999400	0.072200
C2441	C244	0.016500	0.075800	0.858800
C2451	C245	0.179300	0.079500	0.815900
H1511	H151	0.213800	0.079700	0.805500
C2461	C246	0.470100	0.267900	0.028800
H1521	H152	0.451700	0.278400	0.052300
C2471	C247	0.561300	0.211700	0.012200
H1531	H153	0.603800	0.185200	0.024500
C2481	C248	0.360000	0.305300	0.857200
H1541	H154	0.329200	0.293100	0.870600
C2491	C249	0.463500	0.275700	0.941100
C2501	C250	0.896600	0.096800	0.829100
H1551	H155	0.854900	0.116300	0.803400
C2511	C251	0.840100	0.046500	0.885400
C2521	C252	0.533300	0.226300	0.046400
C2531	C253	0.634700	0.200300	0.130700
H1561	H156	0.665800	0.215200	0.118000
C2541	C254	0.435400	0.016400	0.993600
C2551	C255	0.343400	0.009700	0.020600
H1571	H157	0.368800	0.982800	0.053500
C2561	C256	0.261000	0.067600	0.954200
H1581	H158	0.218100	0.088700	0.931700
C2571	C257	0.953200	0.106900	0.820600
H1591	H159	0.949400	0.134300	0.789600
C2581	C258	0.087300	0.996200	0.945800
C2591	C259	0.454500	0.324200	0.852600
H1601	H160	0.500100	0.327100	0.861000
C2601	C260	0.448600	0.017400	0.949800
H1611	H161	0.414300	0.029300	0.916100
C2611	C261	0.156500	0.996300	0.826000
C2621	C262	0.901600	0.057300	0.876200
C2631	C263	0.105200	0.998400	0.842000
H1621	H162	0.090800	0.943500	0.850400
C2641	C264	0.434400	0.294000	0.974900
H1631	H163	0.392600	0.322500	0.962500
C2651	C265	0.151500	0.162300	0.821000
C2661	C266	0.964000	0.027300	0.914000
H1641	H164	0.967700	0.001300	0.945400
C2671	C267	0.401900	0.342100	0.805100
H1651	H165	0.405600	0.360700	0.774900
C2681	C268	0.591300	0.158800	0.181600
H1661	H166	0.586700	0.139500	0.211300
C2691	C269	0.539100	0.174200	0.133200
H1671	H167	0.493400	0.167900	0.123800
C2701	C270	0.186600	0.910200	0.818700
C2711	C271	0.316100	0.069100	0.943300
H1681	H168	0.317400	0.091300	0.912800
C2721	C272	0.177500	0.249500	0.808300
