data_LOMLUW_clean_PM
_symmetry_space_group_name_H-M	'P1'
_cell_length_a	17.847600
_cell_length_b	17.847600
_cell_length_c	13.515900
_cell_angle_alpha	90.000000
_cell_angle_beta	90.000000
_cell_angle_gamma	120.000000
_symmetry_Int_Tables_number 1

loop_
_symmetry_equiv_pos_as_xyz
'x,y,z'

loop_
_atom_site_label
_atom_site_type_symbol
_atom_site_fract_x
_atom_site_fract_y
_atom_site_fract_z
Ga11	Ga1	0.874830	0.641200	0.586020
F11	F1	0.763490	0.593560	0.655660
F21	F2	0.838560	0.545410	0.505600
O11	O1	0.908800	0.593700	0.694800
O21	O2	0.968300	0.625100	0.867800
O31	O3	0.839100	0.638100	0.833000
P11	P1	0.887010	0.590550	0.804210
H11	H1	0.831000	0.501000	0.828000
Ga21	Ga2	0.541500	0.974530	0.919350
F31	F3	0.430160	0.926890	0.988990
F41	F4	0.505230	0.878740	0.838930
O41	O4	0.575470	0.927030	0.028130
O51	O5	0.634970	0.958430	0.201130
O61	O6	0.505770	0.971430	0.166330
P21	P2	0.553680	0.923880	0.137540
H21	H2	0.497670	0.834330	0.161330
Ga31	Ga3	0.208160	0.307870	0.252690
F51	F5	0.096820	0.260230	0.322330
F61	F6	0.171890	0.212080	0.172270
O71	O7	0.242130	0.260370	0.361470
O81	O8	0.301630	0.291770	0.534470
O91	O9	0.172430	0.304770	0.499670
P31	P3	0.220340	0.257220	0.470880
H31	H3	0.164330	0.167670	0.494670
Ga41	Ga4	0.358800	0.233630	0.586020
F71	F7	0.406440	0.169930	0.655660
F81	F8	0.454590	0.293150	0.505600
O101	O10	0.406300	0.315100	0.694800
O111	O11	0.374900	0.343200	0.867800
O121	O12	0.361900	0.201000	0.833000
P41	P4	0.409450	0.296460	0.804210
H41	H4	0.499000	0.330000	0.828000
Ga51	Ga5	0.025470	0.566960	0.919350
F91	F9	0.073110	0.503260	0.988990
F101	F10	0.121260	0.626480	0.838930
O131	O13	0.072970	0.648430	0.028130
O141	O14	0.041570	0.676530	0.201130
O151	O15	0.028570	0.534330	0.166330
P51	P5	0.076120	0.629790	0.137540
H51	H5	0.165670	0.663330	0.161330
Ga61	Ga6	0.692130	0.900300	0.252690
F111	F11	0.739770	0.836600	0.322330
F121	F12	0.787920	0.959820	0.172270
O161	O16	0.739630	0.981770	0.361470
O171	O17	0.708230	0.009870	0.534470
O181	O18	0.695230	0.867670	0.499670
P61	P6	0.742780	0.963130	0.470880
H61	H6	0.832330	0.996670	0.494670
Ga71	Ga7	0.766370	0.125170	0.586020
F131	F13	0.830070	0.236510	0.655660
F141	F14	0.706850	0.161440	0.505600
O191	O19	0.684900	0.091200	0.694800
O201	O20	0.656800	0.031700	0.867800
O211	O21	0.799000	0.160900	0.833000
P71	P7	0.703540	0.112990	0.804210
H71	H7	0.670000	0.169000	0.828000
Ga81	Ga8	0.433040	0.458500	0.919350
F151	F15	0.496740	0.569840	0.988990
F161	F16	0.373520	0.494770	0.838930
O221	O22	0.351570	0.424530	0.028130
O231	O23	0.323470	0.365030	0.201130
O241	O24	0.465670	0.494230	0.166330
P81	P8	0.370210	0.446320	0.137540
H81	H8	0.336670	0.502330	0.161330
Ga91	Ga9	0.099700	0.791840	0.252690
F171	F17	0.163400	0.903180	0.322330
F181	F18	0.040180	0.828110	0.172270
O251	O25	0.018230	0.757870	0.361470
O261	O26	0.990130	0.698370	0.534470
O271	O27	0.132330	0.827570	0.499670
P91	P9	0.036870	0.779660	0.470880
H91	H9	0.003330	0.835670	0.494670
Ga101	Ga10	0.125170	0.358800	0.413980
F191	F19	0.236510	0.406440	0.344340
F201	F20	0.161440	0.454590	0.494400
O281	O28	0.091200	0.406300	0.305200
O291	O29	0.031700	0.374900	0.132200
O301	O30	0.160900	0.361900	0.167000
P101	P10	0.112990	0.409450	0.195790
H101	H10	0.169000	0.499000	0.172000
Ga111	Ga11	0.791840	0.692130	0.747310
F211	F21	0.903180	0.739770	0.677670
F221	F22	0.828110	0.787920	0.827730
O311	O31	0.757870	0.739630	0.638530
O321	O32	0.698370	0.708230	0.465530
O331	O33	0.827570	0.695230	0.500330
P111	P11	0.779660	0.742780	0.529120
H111	H11	0.835670	0.832330	0.505330
Ga121	Ga12	0.458500	0.025470	0.080650
F231	F23	0.569840	0.073110	0.011010
F241	F24	0.494770	0.121260	0.161070
O341	O34	0.424530	0.072970	0.971870
O351	O35	0.365030	0.041570	0.798870
O361	O36	0.494230	0.028570	0.833670
P121	P12	0.446320	0.076120	0.862460
H121	H12	0.502330	0.165670	0.838670
Ga131	Ga13	0.641200	0.766370	0.413980
F251	F25	0.593560	0.830070	0.344340
F261	F26	0.545410	0.706850	0.494400
O371	O37	0.593700	0.684900	0.305200
O381	O38	0.625100	0.656800	0.132200
O391	O39	0.638100	0.799000	0.167000
P131	P13	0.590550	0.703540	0.195790
H131	H13	0.501000	0.670000	0.172000
Ga141	Ga14	0.307870	0.099700	0.747310
F271	F27	0.260230	0.163400	0.677670
F281	F28	0.212080	0.040180	0.827730
O401	O40	0.260370	0.018230	0.638530
O411	O41	0.291770	0.990130	0.465530
O421	O42	0.304770	0.132330	0.500330
P141	P14	0.257220	0.036870	0.529120
H141	H14	0.167670	0.003330	0.505330
Ga151	Ga15	0.974530	0.433040	0.080650
F291	F29	0.926890	0.496740	0.011010
F301	F30	0.878740	0.373520	0.161070
O431	O43	0.927030	0.351570	0.971870
O441	O44	0.958430	0.323470	0.798870
O451	O45	0.971430	0.465670	0.833670
P151	P15	0.923880	0.370210	0.862460
H151	H15	0.834330	0.336670	0.838670
Ga161	Ga16	0.233630	0.874830	0.413980
F311	F31	0.169930	0.763490	0.344340
F321	F32	0.293150	0.838560	0.494400
O461	O46	0.315100	0.908800	0.305200
O471	O47	0.343200	0.968300	0.132200
O481	O48	0.201000	0.839100	0.167000
P161	P16	0.296460	0.887010	0.195790
H161	H16	0.330000	0.831000	0.172000
Ga171	Ga17	0.900300	0.208160	0.747310
F331	F33	0.836600	0.096820	0.677670
F341	F34	0.959820	0.171890	0.827730
O491	O49	0.981770	0.242130	0.638530
O501	O50	0.009870	0.301630	0.465530
O511	O51	0.867670	0.172430	0.500330
P171	P17	0.963130	0.220340	0.529120
H171	H17	0.996670	0.164330	0.505330
Ga181	Ga18	0.566960	0.541500	0.080650
F351	F35	0.503260	0.430160	0.011010
F361	F36	0.626480	0.505230	0.161070
O521	O52	0.648430	0.575470	0.971870
O531	O53	0.676530	0.634970	0.798870
O541	O54	0.534330	0.505770	0.833670
P181	P18	0.629790	0.553680	0.862460
H181	H18	0.663330	0.497670	0.838670
