data_LOMMIL_clean_PM
_symmetry_space_group_name_H-M	'P1'
_cell_length_a	28.934100
_cell_length_b	28.934100
_cell_length_c	10.512300
_cell_angle_alpha	90.000000
_cell_angle_beta	90.000000
_cell_angle_gamma	90.000000
_symmetry_Int_Tables_number 1

loop_
_symmetry_equiv_pos_as_xyz
'x,y,z'

loop_
_atom_site_label
_atom_site_type_symbol
_atom_site_fract_x
_atom_site_fract_y
_atom_site_fract_z
Y11	Y1	0.391050	0.816620	0.035520
C11	C1	0.458120	0.718340	0.990600
C21	C2	0.501070	0.718970	0.916900
C31	C3	0.520270	0.752930	0.846700
H11	H1	0.507800	0.782900	0.832800
C41	C4	0.562440	0.735600	0.797300
H21	H2	0.583900	0.751600	0.744900
C51	C5	0.565990	0.691850	0.839600
C61	C6	0.602340	0.657170	0.814700
C71	C7	0.324720	0.723270	0.984000
C81	C8	0.282610	0.702810	0.927300
C91	C9	0.270970	0.657880	0.909300
H31	H3	0.287700	0.631600	0.937400
C101	C10	0.490610	0.878160	0.999500
H41	H4	0.488500	0.877500	0.089600
C111	C11	0.529090	0.899200	0.943800
H51	H5	0.552800	0.912200	0.995100
C121	C12	0.532020	0.900800	0.812800
H61	H6	0.557800	0.915100	0.773200
C131	C13	0.497430	0.881430	0.739100
C141	C14	0.497000	0.883190	0.602000
H71	H7	0.522500	0.896500	0.558400
C151	C15	0.461520	0.866480	0.535300
H81	H8	0.462100	0.868200	0.445000
C161	C16	0.423260	0.846380	0.596400
C171	C17	0.383700	0.830010	0.531500
H91	H9	0.382800	0.831000	0.441200
C181	C18	0.347000	0.812900	0.596500
H101	H10	0.319900	0.803000	0.553100
C191	C19	0.349960	0.810230	0.729500
H111	H11	0.324400	0.797900	0.774900
C201	C20	0.422480	0.842810	0.731300
C211	C21	0.460140	0.861180	0.803200
N11	N1	0.457340	0.859270	0.932500
N21	N2	0.386720	0.823990	0.795600
O11	O1	0.448730	0.683650	0.057300
O21	O2	0.433680	0.754650	0.982300
O31	O3	0.529140	0.680750	0.916200
O41	O4	0.602060	0.617940	0.865100
O51	O5	0.633760	0.670310	0.740200
O61	O6	0.330820	0.766100	0.978900
O71	O7	0.351430	0.693800	0.032300
Y21	Y2	0.891050	0.316620	0.535520
C221	C22	0.958120	0.218340	0.490600
C231	C23	0.001070	0.218970	0.416900
C241	C24	0.020270	0.252930	0.346700
H121	H12	0.007800	0.282900	0.332800
C251	C25	0.062440	0.235600	0.297300
H131	H13	0.083900	0.251600	0.244900
C261	C26	0.065990	0.191850	0.339600
C271	C27	0.102340	0.157170	0.314700
C281	C28	0.824720	0.223270	0.484000
C291	C29	0.782610	0.202810	0.427300
C301	C30	0.770970	0.157880	0.409300
H141	H14	0.787700	0.131600	0.437400
C311	C31	0.990610	0.378160	0.499500
H151	H15	0.988500	0.377500	0.589600
C321	C32	0.029090	0.399200	0.443800
H161	H16	0.052800	0.412200	0.495100
C331	C33	0.032020	0.400800	0.312800
H171	H17	0.057800	0.415100	0.273200
C341	C34	0.997430	0.381430	0.239100
C351	C35	0.997000	0.383190	0.102000
H181	H18	0.022500	0.396500	0.058400
C361	C36	0.961520	0.366480	0.035300
H191	H19	0.962100	0.368200	0.945000
C371	C37	0.923260	0.346380	0.096400
C381	C38	0.883700	0.330010	0.031500
H201	H20	0.882800	0.331000	0.941200
C391	C39	0.847000	0.312900	0.096500
H211	H21	0.819900	0.303000	0.053100
C401	C40	0.849960	0.310230	0.229500
H221	H22	0.824400	0.297900	0.274900
C411	C41	0.922480	0.342810	0.231300
C421	C42	0.960140	0.361180	0.303200
N31	N3	0.957340	0.359270	0.432500
N41	N4	0.886720	0.323990	0.295600
O81	O8	0.948730	0.183650	0.557300
O91	O9	0.933680	0.254650	0.482300
O101	O10	0.029140	0.180750	0.416200
O111	O11	0.102060	0.117940	0.365100
O121	O12	0.133760	0.170310	0.240200
O131	O13	0.830820	0.266100	0.478900
O141	O14	0.851430	0.193800	0.532300
Y31	Y3	0.608950	0.183380	0.035520
C431	C43	0.541880	0.281660	0.990600
C441	C44	0.498930	0.281030	0.916900
C451	C45	0.479730	0.247070	0.846700
H231	H23	0.492200	0.217100	0.832800
C461	C46	0.437560	0.264400	0.797300
H241	H24	0.416100	0.248400	0.744900
C471	C47	0.434010	0.308150	0.839600
C481	C48	0.397660	0.342830	0.814700
C491	C49	0.675280	0.276730	0.984000
C501	C50	0.717390	0.297190	0.927300
C511	C51	0.729030	0.342120	0.909300
H251	H25	0.712300	0.368400	0.937400
C521	C52	0.509390	0.121840	0.999500
H261	H26	0.511500	0.122500	0.089600
C531	C53	0.470910	0.100800	0.943800
H271	H27	0.447200	0.087800	0.995100
C541	C54	0.467980	0.099200	0.812800
H281	H28	0.442200	0.084900	0.773200
C551	C55	0.502570	0.118570	0.739100
C561	C56	0.503000	0.116810	0.602000
H291	H29	0.477500	0.103500	0.558400
C571	C57	0.538480	0.133520	0.535300
H301	H30	0.537900	0.131800	0.445000
C581	C58	0.576740	0.153620	0.596400
C591	C59	0.616300	0.169990	0.531500
H311	H31	0.617200	0.169000	0.441200
C601	C60	0.653000	0.187100	0.596500
H321	H32	0.680100	0.197000	0.553100
C611	C61	0.650040	0.189770	0.729500
H331	H33	0.675600	0.202100	0.774900
C621	C62	0.577520	0.157190	0.731300
C631	C63	0.539860	0.138820	0.803200
N51	N5	0.542660	0.140730	0.932500
N61	N6	0.613280	0.176010	0.795600
O151	O15	0.551270	0.316350	0.057300
O161	O16	0.566320	0.245350	0.982300
O171	O17	0.470860	0.319250	0.916200
O181	O18	0.397940	0.382060	0.865100
O191	O19	0.366240	0.329690	0.740200
O201	O20	0.669180	0.233900	0.978900
O211	O21	0.648570	0.306200	0.032300
Y41	Y4	0.108950	0.683380	0.535520
C641	C64	0.041880	0.781660	0.490600
C651	C65	0.998930	0.781030	0.416900
C661	C66	0.979730	0.747070	0.346700
H341	H34	0.992200	0.717100	0.332800
C671	C67	0.937560	0.764400	0.297300
H351	H35	0.916100	0.748400	0.244900
C681	C68	0.934010	0.808150	0.339600
C691	C69	0.897660	0.842830	0.314700
C701	C70	0.175280	0.776730	0.484000
C711	C71	0.217390	0.797190	0.427300
C721	C72	0.229030	0.842120	0.409300
H361	H36	0.212300	0.868400	0.437400
C731	C73	0.009390	0.621840	0.499500
H371	H37	0.011500	0.622500	0.589600
C741	C74	0.970910	0.600800	0.443800
H381	H38	0.947200	0.587800	0.495100
C751	C75	0.967980	0.599200	0.312800
H391	H39	0.942200	0.584900	0.273200
C761	C76	0.002570	0.618570	0.239100
C771	C77	0.003000	0.616810	0.102000
H401	H40	0.977500	0.603500	0.058400
C781	C78	0.038480	0.633520	0.035300
H411	H41	0.037900	0.631800	0.945000
C791	C79	0.076740	0.653620	0.096400
C801	C80	0.116300	0.669990	0.031500
H421	H42	0.117200	0.669000	0.941200
C811	C81	0.153000	0.687100	0.096500
H431	H43	0.180100	0.697000	0.053100
C821	C82	0.150040	0.689770	0.229500
H441	H44	0.175600	0.702100	0.274900
C831	C83	0.077520	0.657190	0.231300
C841	C84	0.039860	0.638820	0.303200
N71	N7	0.042660	0.640730	0.432500
N81	N8	0.113280	0.676010	0.295600
O221	O22	0.051270	0.816350	0.557300
O231	O23	0.066320	0.745350	0.482300
O241	O24	0.970860	0.819250	0.416200
O251	O25	0.897940	0.882060	0.365100
O261	O26	0.866240	0.829690	0.240200
O271	O27	0.169180	0.733900	0.478900
O281	O28	0.148570	0.806200	0.532300
Y51	Y5	0.816620	0.608950	0.964480
C851	C85	0.718340	0.541880	0.009400
C861	C86	0.718970	0.498930	0.083100
C871	C87	0.752930	0.479730	0.153300
H451	H45	0.782900	0.492200	0.167200
C881	C88	0.735600	0.437560	0.202700
H461	H46	0.751600	0.416100	0.255100
C891	C89	0.691850	0.434010	0.160400
C901	C90	0.657170	0.397660	0.185300
C911	C91	0.723270	0.675280	0.016000
C921	C92	0.702810	0.717390	0.072700
C931	C93	0.657880	0.729030	0.090700
H471	H47	0.631600	0.712300	0.062600
C941	C94	0.878160	0.509390	0.000500
H481	H48	0.877500	0.511500	0.910400
C951	C95	0.899200	0.470910	0.056200
H491	H49	0.912200	0.447200	0.004900
C961	C96	0.900800	0.467980	0.187200
H501	H50	0.915100	0.442200	0.226800
C971	C97	0.881430	0.502570	0.260900
C981	C98	0.883190	0.503000	0.398000
H511	H51	0.896500	0.477500	0.441600
C991	C99	0.866480	0.538480	0.464700
H521	H52	0.868200	0.537900	0.555000
C1001	C100	0.846380	0.576740	0.403600
C1011	C101	0.830010	0.616300	0.468500
H531	H53	0.831000	0.617200	0.558800
C1021	C102	0.812900	0.653000	0.403500
H541	H54	0.803000	0.680100	0.446900
C1031	C103	0.810230	0.650040	0.270500
H551	H55	0.797900	0.675600	0.225100
C1041	C104	0.842810	0.577520	0.268700
C1051	C105	0.861180	0.539860	0.196800
N91	N9	0.859270	0.542660	0.067500
N101	N10	0.823990	0.613280	0.204400
O291	O29	0.683650	0.551270	0.942700
O301	O30	0.754650	0.566320	0.017700
O311	O31	0.680750	0.470860	0.083800
O321	O32	0.617940	0.397940	0.134900
O331	O33	0.670310	0.366240	0.259800
O341	O34	0.766100	0.669180	0.021100
O351	O35	0.693800	0.648570	0.967700
Y61	Y6	0.316620	0.108950	0.464480
C1061	C106	0.218340	0.041880	0.509400
C1071	C107	0.218970	0.998930	0.583100
C1081	C108	0.252930	0.979730	0.653300
H561	H56	0.282900	0.992200	0.667200
C1091	C109	0.235600	0.937560	0.702700
H571	H57	0.251600	0.916100	0.755100
C1101	C110	0.191850	0.934010	0.660400
C1111	C111	0.157170	0.897660	0.685300
C1121	C112	0.223270	0.175280	0.516000
C1131	C113	0.202810	0.217390	0.572700
C1141	C114	0.157880	0.229030	0.590700
H581	H58	0.131600	0.212300	0.562600
C1151	C115	0.378160	0.009390	0.500500
H591	H59	0.377500	0.011500	0.410400
C1161	C116	0.399200	0.970910	0.556200
H601	H60	0.412200	0.947200	0.504900
C1171	C117	0.400800	0.967980	0.687200
H611	H61	0.415100	0.942200	0.726800
C1181	C118	0.381430	0.002570	0.760900
C1191	C119	0.383190	0.003000	0.898000
H621	H62	0.396500	0.977500	0.941600
C1201	C120	0.366480	0.038480	0.964700
H631	H63	0.368200	0.037900	0.055000
C1211	C121	0.346380	0.076740	0.903600
C1221	C122	0.330010	0.116300	0.968500
H641	H64	0.331000	0.117200	0.058800
C1231	C123	0.312900	0.153000	0.903500
H651	H65	0.303000	0.180100	0.946900
C1241	C124	0.310230	0.150040	0.770500
H661	H66	0.297900	0.175600	0.725100
C1251	C125	0.342810	0.077520	0.768700
C1261	C126	0.361180	0.039860	0.696800
N111	N11	0.359270	0.042660	0.567500
N121	N12	0.323990	0.113280	0.704400
O361	O36	0.183650	0.051270	0.442700
O371	O37	0.254650	0.066320	0.517700
O381	O38	0.180750	0.970860	0.583800
O391	O39	0.117940	0.897940	0.634900
O401	O40	0.170310	0.866240	0.759800
O411	O41	0.266100	0.169180	0.521100
O421	O42	0.193800	0.148570	0.467700
Y71	Y7	0.183380	0.391050	0.964480
C1271	C127	0.281660	0.458120	0.009400
C1281	C128	0.281030	0.501070	0.083100
C1291	C129	0.247070	0.520270	0.153300
H671	H67	0.217100	0.507800	0.167200
C1301	C130	0.264400	0.562440	0.202700
H681	H68	0.248400	0.583900	0.255100
C1311	C131	0.308150	0.565990	0.160400
C1321	C132	0.342830	0.602340	0.185300
C1331	C133	0.276730	0.324720	0.016000
C1341	C134	0.297190	0.282610	0.072700
C1351	C135	0.342120	0.270970	0.090700
H691	H69	0.368400	0.287700	0.062600
C1361	C136	0.121840	0.490610	0.000500
H701	H70	0.122500	0.488500	0.910400
C1371	C137	0.100800	0.529090	0.056200
H711	H71	0.087800	0.552800	0.004900
C1381	C138	0.099200	0.532020	0.187200
H721	H72	0.084900	0.557800	0.226800
C1391	C139	0.118570	0.497430	0.260900
C1401	C140	0.116810	0.497000	0.398000
H731	H73	0.103500	0.522500	0.441600
C1411	C141	0.133520	0.461520	0.464700
H741	H74	0.131800	0.462100	0.555000
C1421	C142	0.153620	0.423260	0.403600
C1431	C143	0.169990	0.383700	0.468500
H751	H75	0.169000	0.382800	0.558800
C1441	C144	0.187100	0.347000	0.403500
H761	H76	0.197000	0.319900	0.446900
C1451	C145	0.189770	0.349960	0.270500
H771	H77	0.202100	0.324400	0.225100
C1461	C146	0.157190	0.422480	0.268700
C1471	C147	0.138820	0.460140	0.196800
N131	N13	0.140730	0.457340	0.067500
N141	N14	0.176010	0.386720	0.204400
O431	O43	0.316350	0.448730	0.942700
O441	O44	0.245350	0.433680	0.017700
O451	O45	0.319250	0.529140	0.083800
O461	O46	0.382060	0.602060	0.134900
O471	O47	0.329690	0.633760	0.259800
O481	O48	0.233900	0.330820	0.021100
O491	O49	0.306200	0.351430	0.967700
Y81	Y8	0.683380	0.891050	0.464480
C1481	C148	0.781660	0.958120	0.509400
C1491	C149	0.781030	0.001070	0.583100
C1501	C150	0.747070	0.020270	0.653300
H781	H78	0.717100	0.007800	0.667200
C1511	C151	0.764400	0.062440	0.702700
H791	H79	0.748400	0.083900	0.755100
C1521	C152	0.808150	0.065990	0.660400
C1531	C153	0.842830	0.102340	0.685300
C1541	C154	0.776730	0.824720	0.516000
C1551	C155	0.797190	0.782610	0.572700
C1561	C156	0.842120	0.770970	0.590700
H801	H80	0.868400	0.787700	0.562600
C1571	C157	0.621840	0.990610	0.500500
H811	H81	0.622500	0.988500	0.410400
C1581	C158	0.600800	0.029090	0.556200
H821	H82	0.587800	0.052800	0.504900
C1591	C159	0.599200	0.032020	0.687200
H831	H83	0.584900	0.057800	0.726800
C1601	C160	0.618570	0.997430	0.760900
C1611	C161	0.616810	0.997000	0.898000
H841	H84	0.603500	0.022500	0.941600
C1621	C162	0.633520	0.961520	0.964700
H851	H85	0.631800	0.962100	0.055000
C1631	C163	0.653620	0.923260	0.903600
C1641	C164	0.669990	0.883700	0.968500
H861	H86	0.669000	0.882800	0.058800
C1651	C165	0.687100	0.847000	0.903500
H871	H87	0.697000	0.819900	0.946900
C1661	C166	0.689770	0.849960	0.770500
H881	H88	0.702100	0.824400	0.725100
C1671	C167	0.657190	0.922480	0.768700
C1681	C168	0.638820	0.960140	0.696800
N151	N15	0.640730	0.957340	0.567500
N161	N16	0.676010	0.886720	0.704400
O501	O50	0.816350	0.948730	0.442700
O511	O51	0.745350	0.933680	0.517700
O521	O52	0.819250	0.029140	0.583800
O531	O53	0.882060	0.102060	0.634900
O541	O54	0.829690	0.133760	0.759800
O551	O55	0.733900	0.830820	0.521100
O561	O56	0.806200	0.851430	0.467700
Y91	Y9	0.108950	0.816620	0.714480
C1691	C169	0.041880	0.718340	0.759400
C1701	C170	0.998930	0.718970	0.833100
C1711	C171	0.979730	0.752930	0.903300
H891	H89	0.992200	0.782900	0.917200
C1721	C172	0.937560	0.735600	0.952700
H901	H90	0.916100	0.751600	0.005100
C1731	C173	0.934010	0.691850	0.910400
C1741	C174	0.897660	0.657170	0.935300
C1751	C175	0.175280	0.723270	0.766000
C1761	C176	0.217390	0.702810	0.822700
C1771	C177	0.229030	0.657880	0.840700
H911	H91	0.212300	0.631600	0.812600
C1781	C178	0.009390	0.878160	0.750500
H921	H92	0.011500	0.877500	0.660400
C1791	C179	0.970910	0.899200	0.806200
H931	H93	0.947200	0.912200	0.754900
C1801	C180	0.967980	0.900800	0.937200
H941	H94	0.942200	0.915100	0.976800
C1811	C181	0.002570	0.881430	0.010900
C1821	C182	0.003000	0.883190	0.148000
H951	H95	0.977500	0.896500	0.191600
C1831	C183	0.038480	0.866480	0.214700
H961	H96	0.037900	0.868200	0.305000
C1841	C184	0.076740	0.846380	0.153600
C1851	C185	0.116300	0.830010	0.218500
H971	H97	0.117200	0.831000	0.308800
C1861	C186	0.153000	0.812900	0.153500
H981	H98	0.180100	0.803000	0.196900
C1871	C187	0.150040	0.810230	0.020500
H991	H99	0.175600	0.797900	0.975100
C1881	C188	0.077520	0.842810	0.018700
C1891	C189	0.039860	0.861180	0.946800
N171	N17	0.042660	0.859270	0.817500
N181	N18	0.113280	0.823990	0.954400
O571	O57	0.051270	0.683650	0.692700
O581	O58	0.066320	0.754650	0.767700
O591	O59	0.970860	0.680750	0.833800
O601	O60	0.897940	0.617940	0.884900
O611	O61	0.866240	0.670310	0.009800
O621	O62	0.169180	0.766100	0.771100
O631	O63	0.148570	0.693800	0.717700
Y101	Y10	0.608950	0.316620	0.214480
C1901	C190	0.541880	0.218340	0.259400
C1911	C191	0.498930	0.218970	0.333100
C1921	C192	0.479730	0.252930	0.403300
H1001	H100	0.492200	0.282900	0.417200
C1931	C193	0.437560	0.235600	0.452700
H1011	H101	0.416100	0.251600	0.505100
C1941	C194	0.434010	0.191850	0.410400
C1951	C195	0.397660	0.157170	0.435300
C1961	C196	0.675280	0.223270	0.266000
C1971	C197	0.717390	0.202810	0.322700
C1981	C198	0.729030	0.157880	0.340700
H1021	H102	0.712300	0.131600	0.312600
C1991	C199	0.509390	0.378160	0.250500
H1031	H103	0.511500	0.377500	0.160400
C2001	C200	0.470910	0.399200	0.306200
H1041	H104	0.447200	0.412200	0.254900
C2011	C201	0.467980	0.400800	0.437200
H1051	H105	0.442200	0.415100	0.476800
C2021	C202	0.502570	0.381430	0.510900
C2031	C203	0.503000	0.383190	0.648000
H1061	H106	0.477500	0.396500	0.691600
C2041	C204	0.538480	0.366480	0.714700
H1071	H107	0.537900	0.368200	0.805000
C2051	C205	0.576740	0.346380	0.653600
C2061	C206	0.616300	0.330010	0.718500
H1081	H108	0.617200	0.331000	0.808800
C2071	C207	0.653000	0.312900	0.653500
H1091	H109	0.680100	0.303000	0.696900
C2081	C208	0.650040	0.310230	0.520500
H1101	H110	0.675600	0.297900	0.475100
C2091	C209	0.577520	0.342810	0.518700
C2101	C210	0.539860	0.361180	0.446800
N191	N19	0.542660	0.359270	0.317500
N201	N20	0.613280	0.323990	0.454400
O641	O64	0.551270	0.183650	0.192700
O651	O65	0.566320	0.254650	0.267700
O661	O66	0.470860	0.180750	0.333800
O671	O67	0.397940	0.117940	0.384900
O681	O68	0.366240	0.170310	0.509800
O691	O69	0.669180	0.266100	0.271100
O701	O70	0.648570	0.193800	0.217700
Y111	Y11	0.891050	0.183380	0.714480
C2111	C211	0.958120	0.281660	0.759400
C2121	C212	0.001070	0.281030	0.833100
C2131	C213	0.020270	0.247070	0.903300
H1111	H111	0.007800	0.217100	0.917200
C2141	C214	0.062440	0.264400	0.952700
H1121	H112	0.083900	0.248400	0.005100
C2151	C215	0.065990	0.308150	0.910400
C2161	C216	0.102340	0.342830	0.935300
C2171	C217	0.824720	0.276730	0.766000
C2181	C218	0.782610	0.297190	0.822700
C2191	C219	0.770970	0.342120	0.840700
H1131	H113	0.787700	0.368400	0.812600
C2201	C220	0.990610	0.121840	0.750500
H1141	H114	0.988500	0.122500	0.660400
C2211	C221	0.029090	0.100800	0.806200
H1151	H115	0.052800	0.087800	0.754900
C2221	C222	0.032020	0.099200	0.937200
H1161	H116	0.057800	0.084900	0.976800
C2231	C223	0.997430	0.118570	0.010900
C2241	C224	0.997000	0.116810	0.148000
H1171	H117	0.022500	0.103500	0.191600
C2251	C225	0.961520	0.133520	0.214700
H1181	H118	0.962100	0.131800	0.305000
C2261	C226	0.923260	0.153620	0.153600
C2271	C227	0.883700	0.169990	0.218500
H1191	H119	0.882800	0.169000	0.308800
C2281	C228	0.847000	0.187100	0.153500
H1201	H120	0.819900	0.197000	0.196900
C2291	C229	0.849960	0.189770	0.020500
H1211	H121	0.824400	0.202100	0.975100
C2301	C230	0.922480	0.157190	0.018700
C2311	C231	0.960140	0.138820	0.946800
N211	N21	0.957340	0.140730	0.817500
N221	N22	0.886720	0.176010	0.954400
O711	O71	0.948730	0.316350	0.692700
O721	O72	0.933680	0.245350	0.767700
O731	O73	0.029140	0.319250	0.833800
O741	O74	0.102060	0.382060	0.884900
O751	O75	0.133760	0.329690	0.009800
O761	O76	0.830820	0.233900	0.771100
O771	O77	0.851430	0.306200	0.717700
Y121	Y12	0.391050	0.683380	0.214480
C2321	C232	0.458120	0.781660	0.259400
C2331	C233	0.501070	0.781030	0.333100
C2341	C234	0.520270	0.747070	0.403300
H1221	H122	0.507800	0.717100	0.417200
C2351	C235	0.562440	0.764400	0.452700
H1231	H123	0.583900	0.748400	0.505100
C2361	C236	0.565990	0.808150	0.410400
C2371	C237	0.602340	0.842830	0.435300
C2381	C238	0.324720	0.776730	0.266000
C2391	C239	0.282610	0.797190	0.322700
C2401	C240	0.270970	0.842120	0.340700
H1241	H124	0.287700	0.868400	0.312600
C2411	C241	0.490610	0.621840	0.250500
H1251	H125	0.488500	0.622500	0.160400
C2421	C242	0.529090	0.600800	0.306200
H1261	H126	0.552800	0.587800	0.254900
C2431	C243	0.532020	0.599200	0.437200
H1271	H127	0.557800	0.584900	0.476800
C2441	C244	0.497430	0.618570	0.510900
C2451	C245	0.497000	0.616810	0.648000
H1281	H128	0.522500	0.603500	0.691600
C2461	C246	0.461520	0.633520	0.714700
H1291	H129	0.462100	0.631800	0.805000
C2471	C247	0.423260	0.653620	0.653600
C2481	C248	0.383700	0.669990	0.718500
H1301	H130	0.382800	0.669000	0.808800
C2491	C249	0.347000	0.687100	0.653500
H1311	H131	0.319900	0.697000	0.696900
C2501	C250	0.349960	0.689770	0.520500
H1321	H132	0.324400	0.702100	0.475100
C2511	C251	0.422480	0.657190	0.518700
C2521	C252	0.460140	0.638820	0.446800
N231	N23	0.457340	0.640730	0.317500
N241	N24	0.386720	0.676010	0.454400
O781	O78	0.448730	0.816350	0.192700
O791	O79	0.433680	0.745350	0.267700
O801	O80	0.529140	0.819250	0.333800
O811	O81	0.602060	0.882060	0.384900
O821	O82	0.633760	0.829690	0.509800
O831	O83	0.330820	0.733900	0.271100
O841	O84	0.351430	0.806200	0.217700
Y131	Y13	0.683380	0.608950	0.785520
C2531	C253	0.781660	0.541880	0.740600
C2541	C254	0.781030	0.498930	0.666900
C2551	C255	0.747070	0.479730	0.596700
H1331	H133	0.717100	0.492200	0.582800
C2561	C256	0.764400	0.437560	0.547300
H1341	H134	0.748400	0.416100	0.494900
C2571	C257	0.808150	0.434010	0.589600
C2581	C258	0.842830	0.397660	0.564700
C2591	C259	0.776730	0.675280	0.734000
C2601	C260	0.797190	0.717390	0.677300
C2611	C261	0.842120	0.729030	0.659300
H1351	H135	0.868400	0.712300	0.687400
C2621	C262	0.621840	0.509390	0.749500
H1361	H136	0.622500	0.511500	0.839600
C2631	C263	0.600800	0.470910	0.693800
H1371	H137	0.587800	0.447200	0.745100
C2641	C264	0.599200	0.467980	0.562800
H1381	H138	0.584900	0.442200	0.523200
C2651	C265	0.618570	0.502570	0.489100
C2661	C266	0.616810	0.503000	0.352000
H1391	H139	0.603500	0.477500	0.308400
C2671	C267	0.633520	0.538480	0.285300
H1401	H140	0.631800	0.537900	0.195000
C2681	C268	0.653620	0.576740	0.346400
C2691	C269	0.669990	0.616300	0.281500
H1411	H141	0.669000	0.617200	0.191200
C2701	C270	0.687100	0.653000	0.346500
H1421	H142	0.697000	0.680100	0.303100
C2711	C271	0.689770	0.650040	0.479500
H1431	H143	0.702100	0.675600	0.524900
C2721	C272	0.657190	0.577520	0.481300
C2731	C273	0.638820	0.539860	0.553200
N251	N25	0.640730	0.542660	0.682500
N261	N26	0.676010	0.613280	0.545600
O851	O85	0.816350	0.551270	0.807300
O861	O86	0.745350	0.566320	0.732300
O871	O87	0.819250	0.470860	0.666200
O881	O88	0.882060	0.397940	0.615100
O891	O89	0.829690	0.366240	0.490200
O901	O90	0.733900	0.669180	0.728900
O911	O91	0.806200	0.648570	0.782300
Y141	Y14	0.183380	0.108950	0.285520
C2741	C274	0.281660	0.041880	0.240600
C2751	C275	0.281030	0.998930	0.166900
C2761	C276	0.247070	0.979730	0.096700
H1441	H144	0.217100	0.992200	0.082800
C2771	C277	0.264400	0.937560	0.047300
H1451	H145	0.248400	0.916100	0.994900
C2781	C278	0.308150	0.934010	0.089600
C2791	C279	0.342830	0.897660	0.064700
C2801	C280	0.276730	0.175280	0.234000
C2811	C281	0.297190	0.217390	0.177300
C2821	C282	0.342120	0.229030	0.159300
H1461	H146	0.368400	0.212300	0.187400
C2831	C283	0.121840	0.009390	0.249500
H1471	H147	0.122500	0.011500	0.339600
C2841	C284	0.100800	0.970910	0.193800
H1481	H148	0.087800	0.947200	0.245100
C2851	C285	0.099200	0.967980	0.062800
H1491	H149	0.084900	0.942200	0.023200
C2861	C286	0.118570	0.002570	0.989100
C2871	C287	0.116810	0.003000	0.852000
H1501	H150	0.103500	0.977500	0.808400
C2881	C288	0.133520	0.038480	0.785300
H1511	H151	0.131800	0.037900	0.695000
C2891	C289	0.153620	0.076740	0.846400
C2901	C290	0.169990	0.116300	0.781500
H1521	H152	0.169000	0.117200	0.691200
C2911	C291	0.187100	0.153000	0.846500
H1531	H153	0.197000	0.180100	0.803100
C2921	C292	0.189770	0.150040	0.979500
H1541	H154	0.202100	0.175600	0.024900
C2931	C293	0.157190	0.077520	0.981300
C2941	C294	0.138820	0.039860	0.053200
N271	N27	0.140730	0.042660	0.182500
N281	N28	0.176010	0.113280	0.045600
O921	O92	0.316350	0.051270	0.307300
O931	O93	0.245350	0.066320	0.232300
O941	O94	0.319250	0.970860	0.166200
O951	O95	0.382060	0.897940	0.115100
O961	O96	0.329690	0.866240	0.990200
O971	O97	0.233900	0.169180	0.228900
O981	O98	0.306200	0.148570	0.282300
Y151	Y15	0.316620	0.391050	0.785520
C2951	C295	0.218340	0.458120	0.740600
C2961	C296	0.218970	0.501070	0.666900
C2971	C297	0.252930	0.520270	0.596700
H1551	H155	0.282900	0.507800	0.582800
C2981	C298	0.235600	0.562440	0.547300
H1561	H156	0.251600	0.583900	0.494900
C2991	C299	0.191850	0.565990	0.589600
C3001	C300	0.157170	0.602340	0.564700
C3011	C301	0.223270	0.324720	0.734000
C3021	C302	0.202810	0.282610	0.677300
C3031	C303	0.157880	0.270970	0.659300
H1571	H157	0.131600	0.287700	0.687400
C3041	C304	0.378160	0.490610	0.749500
H1581	H158	0.377500	0.488500	0.839600
C3051	C305	0.399200	0.529090	0.693800
H1591	H159	0.412200	0.552800	0.745100
C3061	C306	0.400800	0.532020	0.562800
H1601	H160	0.415100	0.557800	0.523200
C3071	C307	0.381430	0.497430	0.489100
C3081	C308	0.383190	0.497000	0.352000
H1611	H161	0.396500	0.522500	0.308400
C3091	C309	0.366480	0.461520	0.285300
H1621	H162	0.368200	0.462100	0.195000
C3101	C310	0.346380	0.423260	0.346400
C3111	C311	0.330010	0.383700	0.281500
H1631	H163	0.331000	0.382800	0.191200
C3121	C312	0.312900	0.347000	0.346500
H1641	H164	0.303000	0.319900	0.303100
C3131	C313	0.310230	0.349960	0.479500
H1651	H165	0.297900	0.324400	0.524900
C3141	C314	0.342810	0.422480	0.481300
C3151	C315	0.361180	0.460140	0.553200
N291	N29	0.359270	0.457340	0.682500
N301	N30	0.323990	0.386720	0.545600
O991	O99	0.183650	0.448730	0.807300
O1001	O100	0.254650	0.433680	0.732300
O1011	O101	0.180750	0.529140	0.666200
O1021	O102	0.117940	0.602060	0.615100
O1031	O103	0.170310	0.633760	0.490200
O1041	O104	0.266100	0.330820	0.728900
O1051	O105	0.193800	0.351430	0.782300
Y161	Y16	0.816620	0.891050	0.285520
C3161	C316	0.718340	0.958120	0.240600
C3171	C317	0.718970	0.001070	0.166900
C3181	C318	0.752930	0.020270	0.096700
H1661	H166	0.782900	0.007800	0.082800
C3191	C319	0.735600	0.062440	0.047300
H1671	H167	0.751600	0.083900	0.994900
C3201	C320	0.691850	0.065990	0.089600
C3211	C321	0.657170	0.102340	0.064700
C3221	C322	0.723270	0.824720	0.234000
C3231	C323	0.702810	0.782610	0.177300
C3241	C324	0.657880	0.770970	0.159300
H1681	H168	0.631600	0.787700	0.187400
C3251	C325	0.878160	0.990610	0.249500
H1691	H169	0.877500	0.988500	0.339600
C3261	C326	0.899200	0.029090	0.193800
H1701	H170	0.912200	0.052800	0.245100
C3271	C327	0.900800	0.032020	0.062800
H1711	H171	0.915100	0.057800	0.023200
C3281	C328	0.881430	0.997430	0.989100
C3291	C329	0.883190	0.997000	0.852000
H1721	H172	0.896500	0.022500	0.808400
C3301	C330	0.866480	0.961520	0.785300
H1731	H173	0.868200	0.962100	0.695000
C3311	C331	0.846380	0.923260	0.846400
C3321	C332	0.830010	0.883700	0.781500
H1741	H174	0.831000	0.882800	0.691200
C3331	C333	0.812900	0.847000	0.846500
H1751	H175	0.803000	0.819900	0.803100
C3341	C334	0.810230	0.849960	0.979500
H1761	H176	0.797900	0.824400	0.024900
C3351	C335	0.842810	0.922480	0.981300
C3361	C336	0.861180	0.960140	0.053200
N311	N31	0.859270	0.957340	0.182500
N321	N32	0.823990	0.886720	0.045600
O1061	O106	0.683650	0.948730	0.307300
O1071	O107	0.754650	0.933680	0.232300
O1081	O108	0.680750	0.029140	0.166200
O1091	O109	0.617940	0.102060	0.115100
O1101	O110	0.670310	0.133760	0.990200
O1111	O111	0.766100	0.830820	0.228900
O1121	O112	0.693800	0.851430	0.282300
O1131	O113	0.250000	0.731530	0.875000
O1141	O114	0.750000	0.231530	0.375000
O1151	O115	0.750000	0.268470	0.875000
O1161	O116	0.250000	0.768470	0.375000
O1171	O117	0.731530	0.750000	0.125000
O1181	O118	0.268470	0.250000	0.125000
O1191	O119	0.768470	0.750000	0.625000
O1201	O120	0.231530	0.250000	0.625000
