data_LOMMOR_clean_PM
_symmetry_space_group_name_H-M	'P1'
_cell_length_a	28.960300
_cell_length_b	28.960300
_cell_length_c	10.502300
_cell_angle_alpha	90.000000
_cell_angle_beta	90.000000
_cell_angle_gamma	90.000000
_symmetry_Int_Tables_number 1

loop_
_symmetry_equiv_pos_as_xyz
'x,y,z'

loop_
_atom_site_label
_atom_site_type_symbol
_atom_site_fract_x
_atom_site_fract_y
_atom_site_fract_z
Y11	Y1	0.891170	0.183310	0.214660
C11	C1	0.958070	0.281720	0.258900
C21	C2	0.001510	0.281000	0.333200
C31	C3	0.020350	0.246710	0.403800
H11	H1	0.007900	0.216800	0.417500
C41	C4	0.062460	0.264470	0.453600
H21	H2	0.083700	0.248600	0.507100
C51	C5	0.066470	0.307700	0.410700
C61	C6	0.102040	0.342310	0.435300
C71	C7	0.824720	0.222980	0.983800
C81	C8	0.782870	0.202730	0.925900
C91	C9	0.771100	0.157880	0.909000
H31	H3	0.787900	0.131600	0.937300
C101	C10	0.990840	0.121950	0.250600
H41	H4	0.989000	0.123000	0.160300
C111	C11	0.029400	0.100500	0.306800
H51	H5	0.052800	0.087300	0.255200
C121	C12	0.032600	0.099000	0.436400
H61	H6	0.058500	0.084700	0.475600
C131	C13	0.997680	0.118360	0.511400
C141	C14	0.997000	0.117250	0.648700
H71	H7	0.022700	0.104600	0.692800
C151	C15	0.961330	0.133510	0.715600
H81	H8	0.961700	0.131000	0.805800
C161	C16	0.923100	0.154370	0.655000
C171	C17	0.883800	0.170120	0.719900
H91	H9	0.882500	0.168800	0.810200
C181	C18	0.847800	0.187100	0.653700
H101	H10	0.820600	0.196900	0.696700
C191	C19	0.850700	0.190250	0.521100
H111	H11	0.825300	0.203100	0.476400
C201	C20	0.922550	0.157210	0.519400
C211	C21	0.960300	0.138820	0.447200
N11	N1	0.957350	0.140500	0.317400
N21	N2	0.886650	0.176380	0.454600
O11	O1	0.948900	0.316450	0.192500
O21	O2	0.933700	0.245430	0.267600
O31	O3	0.029250	0.319000	0.334300
O41	O4	0.102060	0.382040	0.386100
O51	O5	0.133940	0.329480	0.510500
O61	O6	0.830700	0.265870	0.979500
O71	O7	0.851550	0.193850	0.031500
Y21	Y2	0.391170	0.683310	0.714660
C221	C22	0.458070	0.781720	0.758900
C231	C23	0.501510	0.781000	0.833200
C241	C24	0.520350	0.746710	0.903800
H121	H12	0.507900	0.716800	0.917500
C251	C25	0.562460	0.764470	0.953600
H131	H13	0.583700	0.748600	0.007100
C261	C26	0.566470	0.807700	0.910700
C271	C27	0.602040	0.842310	0.935300
C281	C28	0.324720	0.722980	0.483800
C291	C29	0.282870	0.702730	0.425900
C301	C30	0.271100	0.657880	0.409000
H141	H14	0.287900	0.631600	0.437300
C311	C31	0.490840	0.621950	0.750600
H151	H15	0.489000	0.623000	0.660300
C321	C32	0.529400	0.600500	0.806800
H161	H16	0.552800	0.587300	0.755200
C331	C33	0.532600	0.599000	0.936400
H171	H17	0.558500	0.584700	0.975600
C341	C34	0.497680	0.618360	0.011400
C351	C35	0.497000	0.617250	0.148700
H181	H18	0.522700	0.604600	0.192800
C361	C36	0.461330	0.633510	0.215600
H191	H19	0.461700	0.631000	0.305800
C371	C37	0.423100	0.654370	0.155000
C381	C38	0.383800	0.670120	0.219900
H201	H20	0.382500	0.668800	0.310200
C391	C39	0.347800	0.687100	0.153700
H211	H21	0.320600	0.696900	0.196700
C401	C40	0.350700	0.690250	0.021100
H221	H22	0.325300	0.703100	0.976400
C411	C41	0.422550	0.657210	0.019400
C421	C42	0.460300	0.638820	0.947200
N31	N3	0.457350	0.640500	0.817400
N41	N4	0.386650	0.676380	0.954600
O81	O8	0.448900	0.816450	0.692500
O91	O9	0.433700	0.745430	0.767600
O101	O10	0.529250	0.819000	0.834300
O111	O11	0.602060	0.882040	0.886100
O121	O12	0.633940	0.829480	0.010500
O131	O13	0.330700	0.765870	0.479500
O141	O14	0.351550	0.693850	0.531500
Y31	Y3	0.108830	0.816690	0.214660
C431	C43	0.041930	0.718280	0.258900
C441	C44	0.998490	0.719000	0.333200
C451	C45	0.979650	0.753290	0.403800
H231	H23	0.992100	0.783200	0.417500
C461	C46	0.937540	0.735530	0.453600
H241	H24	0.916300	0.751400	0.507100
C471	C47	0.933530	0.692300	0.410700
C481	C48	0.897960	0.657690	0.435300
C491	C49	0.175280	0.777020	0.983800
C501	C50	0.217130	0.797270	0.925900
C511	C51	0.228900	0.842120	0.909000
H251	H25	0.212100	0.868400	0.937300
C521	C52	0.009160	0.878050	0.250600
H261	H26	0.011000	0.877000	0.160300
C531	C53	0.970600	0.899500	0.306800
H271	H27	0.947200	0.912700	0.255200
C541	C54	0.967400	0.901000	0.436400
H281	H28	0.941500	0.915300	0.475600
C551	C55	0.002320	0.881640	0.511400
C561	C56	0.003000	0.882750	0.648700
H291	H29	0.977300	0.895400	0.692800
C571	C57	0.038670	0.866490	0.715600
H301	H30	0.038300	0.869000	0.805800
C581	C58	0.076900	0.845630	0.655000
C591	C59	0.116200	0.829880	0.719900
H311	H31	0.117500	0.831200	0.810200
C601	C60	0.152200	0.812900	0.653700
H321	H32	0.179400	0.803100	0.696700
C611	C61	0.149300	0.809750	0.521100
H331	H33	0.174700	0.796900	0.476400
C621	C62	0.077450	0.842790	0.519400
C631	C63	0.039700	0.861180	0.447200
N51	N5	0.042650	0.859500	0.317400
N61	N6	0.113350	0.823620	0.454600
O151	O15	0.051100	0.683550	0.192500
O161	O16	0.066300	0.754570	0.267600
O171	O17	0.970750	0.681000	0.334300
O181	O18	0.897940	0.617960	0.386100
O191	O19	0.866060	0.670520	0.510500
O201	O20	0.169300	0.734130	0.979500
O211	O21	0.148450	0.806150	0.031500
Y41	Y4	0.608830	0.316690	0.714660
C641	C64	0.541930	0.218280	0.758900
C651	C65	0.498490	0.219000	0.833200
C661	C66	0.479650	0.253290	0.903800
H341	H34	0.492100	0.283200	0.917500
C671	C67	0.437540	0.235530	0.953600
H351	H35	0.416300	0.251400	0.007100
C681	C68	0.433530	0.192300	0.910700
C691	C69	0.397960	0.157690	0.935300
C701	C70	0.675280	0.277020	0.483800
C711	C71	0.717130	0.297270	0.425900
C721	C72	0.728900	0.342120	0.409000
H361	H36	0.712100	0.368400	0.437300
C731	C73	0.509160	0.378050	0.750600
H371	H37	0.511000	0.377000	0.660300
C741	C74	0.470600	0.399500	0.806800
H381	H38	0.447200	0.412700	0.755200
C751	C75	0.467400	0.401000	0.936400
H391	H39	0.441500	0.415300	0.975600
C761	C76	0.502320	0.381640	0.011400
C771	C77	0.503000	0.382750	0.148700
H401	H40	0.477300	0.395400	0.192800
C781	C78	0.538670	0.366490	0.215600
H411	H41	0.538300	0.369000	0.305800
C791	C79	0.576900	0.345630	0.155000
C801	C80	0.616200	0.329880	0.219900
H421	H42	0.617500	0.331200	0.310200
C811	C81	0.652200	0.312900	0.153700
H431	H43	0.679400	0.303100	0.196700
C821	C82	0.649300	0.309750	0.021100
H441	H44	0.674700	0.296900	0.976400
C831	C83	0.577450	0.342790	0.019400
C841	C84	0.539700	0.361180	0.947200
N71	N7	0.542650	0.359500	0.817400
N81	N8	0.613350	0.323620	0.954600
O221	O22	0.551100	0.183550	0.692500
O231	O23	0.566300	0.254570	0.767600
O241	O24	0.470750	0.181000	0.834300
O251	O25	0.397940	0.117960	0.886100
O261	O26	0.366060	0.170520	0.010500
O271	O27	0.669300	0.234130	0.479500
O281	O28	0.648450	0.306150	0.531500
Y51	Y5	0.183310	0.108830	0.785340
C851	C85	0.281720	0.041930	0.741100
C861	C86	0.281000	0.998490	0.666800
C871	C87	0.246710	0.979650	0.596200
H451	H45	0.216800	0.992100	0.582500
C881	C88	0.264470	0.937540	0.546400
H461	H46	0.248600	0.916300	0.492900
C891	C89	0.307700	0.933530	0.589300
C901	C90	0.342310	0.897960	0.564700
C911	C91	0.222980	0.175280	0.016200
C921	C92	0.202730	0.217130	0.074100
C931	C93	0.157880	0.228900	0.091000
H471	H47	0.131600	0.212100	0.062700
C941	C94	0.121950	0.009160	0.749400
H481	H48	0.123000	0.011000	0.839700
C951	C95	0.100500	0.970600	0.693200
H491	H49	0.087300	0.947200	0.744800
C961	C96	0.099000	0.967400	0.563600
H501	H50	0.084700	0.941500	0.524400
C971	C97	0.118360	0.002320	0.488600
C981	C98	0.117250	0.003000	0.351300
H511	H51	0.104600	0.977300	0.307200
C991	C99	0.133510	0.038670	0.284400
H521	H52	0.131000	0.038300	0.194200
C1001	C100	0.154370	0.076900	0.345000
C1011	C101	0.170120	0.116200	0.280100
H531	H53	0.168800	0.117500	0.189800
C1021	C102	0.187100	0.152200	0.346300
H541	H54	0.196900	0.179400	0.303300
C1031	C103	0.190250	0.149300	0.478900
H551	H55	0.203100	0.174700	0.523600
C1041	C104	0.157210	0.077450	0.480600
C1051	C105	0.138820	0.039700	0.552800
N91	N9	0.140500	0.042650	0.682600
N101	N10	0.176380	0.113350	0.545400
O291	O29	0.316450	0.051100	0.807500
O301	O30	0.245430	0.066300	0.732400
O311	O31	0.319000	0.970750	0.665700
O321	O32	0.382040	0.897940	0.613900
O331	O33	0.329480	0.866060	0.489500
O341	O34	0.265870	0.169300	0.020500
O351	O35	0.193850	0.148450	0.968500
Y61	Y6	0.683310	0.608830	0.285340
C1061	C106	0.781720	0.541930	0.241100
C1071	C107	0.781000	0.498490	0.166800
C1081	C108	0.746710	0.479650	0.096200
H561	H56	0.716800	0.492100	0.082500
C1091	C109	0.764470	0.437540	0.046400
H571	H57	0.748600	0.416300	0.992900
C1101	C110	0.807700	0.433530	0.089300
C1111	C111	0.842310	0.397960	0.064700
C1121	C112	0.722980	0.675280	0.516200
C1131	C113	0.702730	0.717130	0.574100
C1141	C114	0.657880	0.728900	0.591000
H581	H58	0.631600	0.712100	0.562700
C1151	C115	0.621950	0.509160	0.249400
H591	H59	0.623000	0.511000	0.339700
C1161	C116	0.600500	0.470600	0.193200
H601	H60	0.587300	0.447200	0.244800
C1171	C117	0.599000	0.467400	0.063600
H611	H61	0.584700	0.441500	0.024400
C1181	C118	0.618360	0.502320	0.988600
C1191	C119	0.617250	0.503000	0.851300
H621	H62	0.604600	0.477300	0.807200
C1201	C120	0.633510	0.538670	0.784400
H631	H63	0.631000	0.538300	0.694200
C1211	C121	0.654370	0.576900	0.845000
C1221	C122	0.670120	0.616200	0.780100
H641	H64	0.668800	0.617500	0.689800
C1231	C123	0.687100	0.652200	0.846300
H651	H65	0.696900	0.679400	0.803300
C1241	C124	0.690250	0.649300	0.978900
H661	H66	0.703100	0.674700	0.023600
C1251	C125	0.657210	0.577450	0.980600
C1261	C126	0.638820	0.539700	0.052800
N111	N11	0.640500	0.542650	0.182600
N121	N12	0.676380	0.613350	0.045400
O361	O36	0.816450	0.551100	0.307500
O371	O37	0.745430	0.566300	0.232400
O381	O38	0.819000	0.470750	0.165700
O391	O39	0.882040	0.397940	0.113900
O401	O40	0.829480	0.366060	0.989500
O411	O41	0.765870	0.669300	0.520500
O421	O42	0.693850	0.648450	0.468500
Y71	Y7	0.816690	0.891170	0.785340
C1271	C127	0.718280	0.958070	0.741100
C1281	C128	0.719000	0.001510	0.666800
C1291	C129	0.753290	0.020350	0.596200
H671	H67	0.783200	0.007900	0.582500
C1301	C130	0.735530	0.062460	0.546400
H681	H68	0.751400	0.083700	0.492900
C1311	C131	0.692300	0.066470	0.589300
C1321	C132	0.657690	0.102040	0.564700
C1331	C133	0.777020	0.824720	0.016200
C1341	C134	0.797270	0.782870	0.074100
C1351	C135	0.842120	0.771100	0.091000
H691	H69	0.868400	0.787900	0.062700
C1361	C136	0.878050	0.990840	0.749400
H701	H70	0.877000	0.989000	0.839700
C1371	C137	0.899500	0.029400	0.693200
H711	H71	0.912700	0.052800	0.744800
C1381	C138	0.901000	0.032600	0.563600
H721	H72	0.915300	0.058500	0.524400
C1391	C139	0.881640	0.997680	0.488600
C1401	C140	0.882750	0.997000	0.351300
H731	H73	0.895400	0.022700	0.307200
C1411	C141	0.866490	0.961330	0.284400
H741	H74	0.869000	0.961700	0.194200
C1421	C142	0.845630	0.923100	0.345000
C1431	C143	0.829880	0.883800	0.280100
H751	H75	0.831200	0.882500	0.189800
C1441	C144	0.812900	0.847800	0.346300
H761	H76	0.803100	0.820600	0.303300
C1451	C145	0.809750	0.850700	0.478900
H771	H77	0.796900	0.825300	0.523600
C1461	C146	0.842790	0.922550	0.480600
C1471	C147	0.861180	0.960300	0.552800
N131	N13	0.859500	0.957350	0.682600
N141	N14	0.823620	0.886650	0.545400
O431	O43	0.683550	0.948900	0.807500
O441	O44	0.754570	0.933700	0.732400
O451	O45	0.681000	0.029250	0.665700
O461	O46	0.617960	0.102060	0.613900
O471	O47	0.670520	0.133940	0.489500
O481	O48	0.734130	0.830700	0.020500
O491	O49	0.806150	0.851550	0.968500
Y81	Y8	0.316690	0.391170	0.285340
C1481	C148	0.218280	0.458070	0.241100
C1491	C149	0.219000	0.501510	0.166800
C1501	C150	0.253290	0.520350	0.096200
H781	H78	0.283200	0.507900	0.082500
C1511	C151	0.235530	0.562460	0.046400
H791	H79	0.251400	0.583700	0.992900
C1521	C152	0.192300	0.566470	0.089300
C1531	C153	0.157690	0.602040	0.064700
C1541	C154	0.277020	0.324720	0.516200
C1551	C155	0.297270	0.282870	0.574100
C1561	C156	0.342120	0.271100	0.591000
H801	H80	0.368400	0.287900	0.562700
C1571	C157	0.378050	0.490840	0.249400
H811	H81	0.377000	0.489000	0.339700
C1581	C158	0.399500	0.529400	0.193200
H821	H82	0.412700	0.552800	0.244800
C1591	C159	0.401000	0.532600	0.063600
H831	H83	0.415300	0.558500	0.024400
C1601	C160	0.381640	0.497680	0.988600
C1611	C161	0.382750	0.497000	0.851300
H841	H84	0.395400	0.522700	0.807200
C1621	C162	0.366490	0.461330	0.784400
H851	H85	0.369000	0.461700	0.694200
C1631	C163	0.345630	0.423100	0.845000
C1641	C164	0.329880	0.383800	0.780100
H861	H86	0.331200	0.382500	0.689800
C1651	C165	0.312900	0.347800	0.846300
H871	H87	0.303100	0.320600	0.803300
C1661	C166	0.309750	0.350700	0.978900
H881	H88	0.296900	0.325300	0.023600
C1671	C167	0.342790	0.422550	0.980600
C1681	C168	0.361180	0.460300	0.052800
N151	N15	0.359500	0.457350	0.182600
N161	N16	0.323620	0.386650	0.045400
O501	O50	0.183550	0.448900	0.307500
O511	O51	0.254570	0.433700	0.232400
O521	O52	0.181000	0.529250	0.165700
O531	O53	0.117960	0.602060	0.113900
O541	O54	0.170520	0.633940	0.989500
O551	O55	0.234130	0.330700	0.520500
O561	O56	0.306150	0.351550	0.468500
Y91	Y9	0.608830	0.183310	0.535340
C1691	C169	0.541930	0.281720	0.491100
C1701	C170	0.498490	0.281000	0.416800
C1711	C171	0.479650	0.246710	0.346200
H891	H89	0.492100	0.216800	0.332500
C1721	C172	0.437540	0.264470	0.296400
H901	H90	0.416300	0.248600	0.242900
C1731	C173	0.433530	0.307700	0.339300
C1741	C174	0.397960	0.342310	0.314700
C1751	C175	0.675280	0.222980	0.766200
C1761	C176	0.717130	0.202730	0.824100
C1771	C177	0.728900	0.157880	0.841000
H911	H91	0.712100	0.131600	0.812700
C1781	C178	0.509160	0.121950	0.499400
H921	H92	0.511000	0.123000	0.589700
C1791	C179	0.470600	0.100500	0.443200
H931	H93	0.447200	0.087300	0.494800
C1801	C180	0.467400	0.099000	0.313600
H941	H94	0.441500	0.084700	0.274400
C1811	C181	0.502320	0.118360	0.238600
C1821	C182	0.503000	0.117250	0.101300
H951	H95	0.477300	0.104600	0.057200
C1831	C183	0.538670	0.133510	0.034400
H961	H96	0.538300	0.131000	0.944200
C1841	C184	0.576900	0.154370	0.095000
C1851	C185	0.616200	0.170120	0.030100
H971	H97	0.617500	0.168800	0.939800
C1861	C186	0.652200	0.187100	0.096300
H981	H98	0.679400	0.196900	0.053300
C1871	C187	0.649300	0.190250	0.228900
H991	H99	0.674700	0.203100	0.273600
C1881	C188	0.577450	0.157210	0.230600
C1891	C189	0.539700	0.138820	0.302800
N171	N17	0.542650	0.140500	0.432600
N181	N18	0.613350	0.176380	0.295400
O571	O57	0.551100	0.316450	0.557500
O581	O58	0.566300	0.245430	0.482400
O591	O59	0.470750	0.319000	0.415700
O601	O60	0.397940	0.382040	0.363900
O611	O61	0.366060	0.329480	0.239500
O621	O62	0.669300	0.265870	0.770500
O631	O63	0.648450	0.193850	0.718500
Y101	Y10	0.108830	0.683310	0.035340
C1901	C190	0.041930	0.781720	0.991100
C1911	C191	0.998490	0.781000	0.916800
C1921	C192	0.979650	0.746710	0.846200
H1001	H100	0.992100	0.716800	0.832500
C1931	C193	0.937540	0.764470	0.796400
H1011	H101	0.916300	0.748600	0.742900
C1941	C194	0.933530	0.807700	0.839300
C1951	C195	0.897960	0.842310	0.814700
C1961	C196	0.175280	0.722980	0.266200
C1971	C197	0.217130	0.702730	0.324100
C1981	C198	0.228900	0.657880	0.341000
H1021	H102	0.212100	0.631600	0.312700
C1991	C199	0.009160	0.621950	0.999400
H1031	H103	0.011000	0.623000	0.089700
C2001	C200	0.970600	0.600500	0.943200
H1041	H104	0.947200	0.587300	0.994800
C2011	C201	0.967400	0.599000	0.813600
H1051	H105	0.941500	0.584700	0.774400
C2021	C202	0.002320	0.618360	0.738600
C2031	C203	0.003000	0.617250	0.601300
H1061	H106	0.977300	0.604600	0.557200
C2041	C204	0.038670	0.633510	0.534400
H1071	H107	0.038300	0.631000	0.444200
C2051	C205	0.076900	0.654370	0.595000
C2061	C206	0.116200	0.670120	0.530100
H1081	H108	0.117500	0.668800	0.439800
C2071	C207	0.152200	0.687100	0.596300
H1091	H109	0.179400	0.696900	0.553300
C2081	C208	0.149300	0.690250	0.728900
H1101	H110	0.174700	0.703100	0.773600
C2091	C209	0.077450	0.657210	0.730600
C2101	C210	0.039700	0.638820	0.802800
N191	N19	0.042650	0.640500	0.932600
N201	N20	0.113350	0.676380	0.795400
O641	O64	0.051100	0.816450	0.057500
O651	O65	0.066300	0.745430	0.982400
O661	O66	0.970750	0.819000	0.915700
O671	O67	0.897940	0.882040	0.863900
O681	O68	0.866060	0.829480	0.739500
O691	O69	0.169300	0.765870	0.270500
O701	O70	0.148450	0.693850	0.218500
Y111	Y11	0.391170	0.816690	0.535340
C2111	C211	0.458070	0.718280	0.491100
C2121	C212	0.501510	0.719000	0.416800
C2131	C213	0.520350	0.753290	0.346200
H1111	H111	0.507900	0.783200	0.332500
C2141	C214	0.562460	0.735530	0.296400
H1121	H112	0.583700	0.751400	0.242900
C2151	C215	0.566470	0.692300	0.339300
C2161	C216	0.602040	0.657690	0.314700
C2171	C217	0.324720	0.777020	0.766200
C2181	C218	0.282870	0.797270	0.824100
C2191	C219	0.271100	0.842120	0.841000
H1131	H113	0.287900	0.868400	0.812700
C2201	C220	0.490840	0.878050	0.499400
H1141	H114	0.489000	0.877000	0.589700
C2211	C221	0.529400	0.899500	0.443200
H1151	H115	0.552800	0.912700	0.494800
C2221	C222	0.532600	0.901000	0.313600
H1161	H116	0.558500	0.915300	0.274400
C2231	C223	0.497680	0.881640	0.238600
C2241	C224	0.497000	0.882750	0.101300
H1171	H117	0.522700	0.895400	0.057200
C2251	C225	0.461330	0.866490	0.034400
H1181	H118	0.461700	0.869000	0.944200
C2261	C226	0.423100	0.845630	0.095000
C2271	C227	0.383800	0.829880	0.030100
H1191	H119	0.382500	0.831200	0.939800
C2281	C228	0.347800	0.812900	0.096300
H1201	H120	0.320600	0.803100	0.053300
C2291	C229	0.350700	0.809750	0.228900
H1211	H121	0.325300	0.796900	0.273600
C2301	C230	0.422550	0.842790	0.230600
C2311	C231	0.460300	0.861180	0.302800
N211	N21	0.457350	0.859500	0.432600
N221	N22	0.386650	0.823620	0.295400
O711	O71	0.448900	0.683550	0.557500
O721	O72	0.433700	0.754570	0.482400
O731	O73	0.529250	0.681000	0.415700
O741	O74	0.602060	0.617960	0.363900
O751	O75	0.633940	0.670520	0.239500
O761	O76	0.330700	0.734130	0.770500
O771	O77	0.351550	0.806150	0.718500
Y121	Y12	0.891170	0.316690	0.035340
C2321	C232	0.958070	0.218280	0.991100
C2331	C233	0.001510	0.219000	0.916800
C2341	C234	0.020350	0.253290	0.846200
H1221	H122	0.007900	0.283200	0.832500
C2351	C235	0.062460	0.235530	0.796400
H1231	H123	0.083700	0.251400	0.742900
C2361	C236	0.066470	0.192300	0.839300
C2371	C237	0.102040	0.157690	0.814700
C2381	C238	0.824720	0.277020	0.266200
C2391	C239	0.782870	0.297270	0.324100
C2401	C240	0.771100	0.342120	0.341000
H1241	H124	0.787900	0.368400	0.312700
C2411	C241	0.990840	0.378050	0.999400
H1251	H125	0.989000	0.377000	0.089700
C2421	C242	0.029400	0.399500	0.943200
H1261	H126	0.052800	0.412700	0.994800
C2431	C243	0.032600	0.401000	0.813600
H1271	H127	0.058500	0.415300	0.774400
C2441	C244	0.997680	0.381640	0.738600
C2451	C245	0.997000	0.382750	0.601300
H1281	H128	0.022700	0.395400	0.557200
C2461	C246	0.961330	0.366490	0.534400
H1291	H129	0.961700	0.369000	0.444200
C2471	C247	0.923100	0.345630	0.595000
C2481	C248	0.883800	0.329880	0.530100
H1301	H130	0.882500	0.331200	0.439800
C2491	C249	0.847800	0.312900	0.596300
H1311	H131	0.820600	0.303100	0.553300
C2501	C250	0.850700	0.309750	0.728900
H1321	H132	0.825300	0.296900	0.773600
C2511	C251	0.922550	0.342790	0.730600
C2521	C252	0.960300	0.361180	0.802800
N231	N23	0.957350	0.359500	0.932600
N241	N24	0.886650	0.323620	0.795400
O781	O78	0.948900	0.183550	0.057500
O791	O79	0.933700	0.254570	0.982400
O801	O80	0.029250	0.181000	0.915700
O811	O81	0.102060	0.117960	0.863900
O821	O82	0.133940	0.170520	0.739500
O831	O83	0.830700	0.234130	0.270500
O841	O84	0.851550	0.306150	0.218500
Y131	Y13	0.316690	0.108830	0.964660
C2531	C253	0.218280	0.041930	0.008900
C2541	C254	0.219000	0.998490	0.083200
C2551	C255	0.253290	0.979650	0.153800
H1331	H133	0.283200	0.992100	0.167500
C2561	C256	0.235530	0.937540	0.203600
H1341	H134	0.251400	0.916300	0.257100
C2571	C257	0.192300	0.933530	0.160700
C2581	C258	0.157690	0.897960	0.185300
C2591	C259	0.277020	0.175280	0.733800
C2601	C260	0.297270	0.217130	0.675900
C2611	C261	0.342120	0.228900	0.659000
H1351	H135	0.368400	0.212100	0.687300
C2621	C262	0.378050	0.009160	0.000600
H1361	H136	0.377000	0.011000	0.910300
C2631	C263	0.399500	0.970600	0.056800
H1371	H137	0.412700	0.947200	0.005200
C2641	C264	0.401000	0.967400	0.186400
H1381	H138	0.415300	0.941500	0.225600
C2651	C265	0.381640	0.002320	0.261400
C2661	C266	0.382750	0.003000	0.398700
H1391	H139	0.395400	0.977300	0.442800
C2671	C267	0.366490	0.038670	0.465600
H1401	H140	0.369000	0.038300	0.555800
C2681	C268	0.345630	0.076900	0.405000
C2691	C269	0.329880	0.116200	0.469900
H1411	H141	0.331200	0.117500	0.560200
C2701	C270	0.312900	0.152200	0.403700
H1421	H142	0.303100	0.179400	0.446700
C2711	C271	0.309750	0.149300	0.271100
H1431	H143	0.296900	0.174700	0.226400
C2721	C272	0.342790	0.077450	0.269400
C2731	C273	0.361180	0.039700	0.197200
N251	N25	0.359500	0.042650	0.067400
N261	N26	0.323620	0.113350	0.204600
O851	O85	0.183550	0.051100	0.942500
O861	O86	0.254570	0.066300	0.017600
O871	O87	0.181000	0.970750	0.084300
O881	O88	0.117960	0.897940	0.136100
O891	O89	0.170520	0.866060	0.260500
O901	O90	0.234130	0.169300	0.729500
O911	O91	0.306150	0.148450	0.781500
Y141	Y14	0.816690	0.608830	0.464660
C2741	C274	0.718280	0.541930	0.508900
C2751	C275	0.719000	0.498490	0.583200
C2761	C276	0.753290	0.479650	0.653800
H1441	H144	0.783200	0.492100	0.667500
C2771	C277	0.735530	0.437540	0.703600
H1451	H145	0.751400	0.416300	0.757100
C2781	C278	0.692300	0.433530	0.660700
C2791	C279	0.657690	0.397960	0.685300
C2801	C280	0.777020	0.675280	0.233800
C2811	C281	0.797270	0.717130	0.175900
C2821	C282	0.842120	0.728900	0.159000
H1461	H146	0.868400	0.712100	0.187300
C2831	C283	0.878050	0.509160	0.500600
H1471	H147	0.877000	0.511000	0.410300
C2841	C284	0.899500	0.470600	0.556800
H1481	H148	0.912700	0.447200	0.505200
C2851	C285	0.901000	0.467400	0.686400
H1491	H149	0.915300	0.441500	0.725600
C2861	C286	0.881640	0.502320	0.761400
C2871	C287	0.882750	0.503000	0.898700
H1501	H150	0.895400	0.477300	0.942800
C2881	C288	0.866490	0.538670	0.965600
H1511	H151	0.869000	0.538300	0.055800
C2891	C289	0.845630	0.576900	0.905000
C2901	C290	0.829880	0.616200	0.969900
H1521	H152	0.831200	0.617500	0.060200
C2911	C291	0.812900	0.652200	0.903700
H1531	H153	0.803100	0.679400	0.946700
C2921	C292	0.809750	0.649300	0.771100
H1541	H154	0.796900	0.674700	0.726400
C2931	C293	0.842790	0.577450	0.769400
C2941	C294	0.861180	0.539700	0.697200
N271	N27	0.859500	0.542650	0.567400
N281	N28	0.823620	0.613350	0.704600
O921	O92	0.683550	0.551100	0.442500
O931	O93	0.754570	0.566300	0.517600
O941	O94	0.681000	0.470750	0.584300
O951	O95	0.617960	0.397940	0.636100
O961	O96	0.670520	0.366060	0.760500
O971	O97	0.734130	0.669300	0.229500
O981	O98	0.806150	0.648450	0.281500
Y151	Y15	0.683310	0.891170	0.964660
C2951	C295	0.781720	0.958070	0.008900
C2961	C296	0.781000	0.001510	0.083200
C2971	C297	0.746710	0.020350	0.153800
H1551	H155	0.716800	0.007900	0.167500
C2981	C298	0.764470	0.062460	0.203600
H1561	H156	0.748600	0.083700	0.257100
C2991	C299	0.807700	0.066470	0.160700
C3001	C300	0.842310	0.102040	0.185300
C3011	C301	0.722980	0.824720	0.733800
C3021	C302	0.702730	0.782870	0.675900
C3031	C303	0.657880	0.771100	0.659000
H1571	H157	0.631600	0.787900	0.687300
C3041	C304	0.621950	0.990840	0.000600
H1581	H158	0.623000	0.989000	0.910300
C3051	C305	0.600500	0.029400	0.056800
H1591	H159	0.587300	0.052800	0.005200
C3061	C306	0.599000	0.032600	0.186400
H1601	H160	0.584700	0.058500	0.225600
C3071	C307	0.618360	0.997680	0.261400
C3081	C308	0.617250	0.997000	0.398700
H1611	H161	0.604600	0.022700	0.442800
C3091	C309	0.633510	0.961330	0.465600
H1621	H162	0.631000	0.961700	0.555800
C3101	C310	0.654370	0.923100	0.405000
C3111	C311	0.670120	0.883800	0.469900
H1631	H163	0.668800	0.882500	0.560200
C3121	C312	0.687100	0.847800	0.403700
H1641	H164	0.696900	0.820600	0.446700
C3131	C313	0.690250	0.850700	0.271100
H1651	H165	0.703100	0.825300	0.226400
C3141	C314	0.657210	0.922550	0.269400
C3151	C315	0.638820	0.960300	0.197200
N291	N29	0.640500	0.957350	0.067400
N301	N30	0.676380	0.886650	0.204600
O991	O99	0.816450	0.948900	0.942500
O1001	O100	0.745430	0.933700	0.017600
O1011	O101	0.819000	0.029250	0.084300
O1021	O102	0.882040	0.102060	0.136100
O1031	O103	0.829480	0.133940	0.260500
O1041	O104	0.765870	0.830700	0.729500
O1051	O105	0.693850	0.851550	0.781500
Y161	Y16	0.183310	0.391170	0.464660
C3161	C316	0.281720	0.458070	0.508900
C3171	C317	0.281000	0.501510	0.583200
C3181	C318	0.246710	0.520350	0.653800
H1661	H166	0.216800	0.507900	0.667500
C3191	C319	0.264470	0.562460	0.703600
H1671	H167	0.248600	0.583700	0.757100
C3201	C320	0.307700	0.566470	0.660700
C3211	C321	0.342310	0.602040	0.685300
C3221	C322	0.222980	0.324720	0.233800
C3231	C323	0.202730	0.282870	0.175900
C3241	C324	0.157880	0.271100	0.159000
H1681	H168	0.131600	0.287900	0.187300
C3251	C325	0.121950	0.490840	0.500600
H1691	H169	0.123000	0.489000	0.410300
C3261	C326	0.100500	0.529400	0.556800
H1701	H170	0.087300	0.552800	0.505200
C3271	C327	0.099000	0.532600	0.686400
H1711	H171	0.084700	0.558500	0.725600
C3281	C328	0.118360	0.497680	0.761400
C3291	C329	0.117250	0.497000	0.898700
H1721	H172	0.104600	0.522700	0.942800
C3301	C330	0.133510	0.461330	0.965600
H1731	H173	0.131000	0.461700	0.055800
C3311	C331	0.154370	0.423100	0.905000
C3321	C332	0.170120	0.383800	0.969900
H1741	H174	0.168800	0.382500	0.060200
C3331	C333	0.187100	0.347800	0.903700
H1751	H175	0.196900	0.320600	0.946700
C3341	C334	0.190250	0.350700	0.771100
H1761	H176	0.203100	0.325300	0.726400
C3351	C335	0.157210	0.422550	0.769400
C3361	C336	0.138820	0.460300	0.697200
N311	N31	0.140500	0.457350	0.567400
N321	N32	0.176380	0.386650	0.704600
O1061	O106	0.316450	0.448900	0.442500
O1071	O107	0.245430	0.433700	0.517600
O1081	O108	0.319000	0.529250	0.584300
O1091	O109	0.382040	0.602060	0.636100
O1101	O110	0.329480	0.633940	0.760500
O1111	O111	0.265870	0.330700	0.229500
O1121	O112	0.193850	0.351550	0.281500
O1131	O113	0.750000	0.231240	0.875000
O1141	O114	0.250000	0.731240	0.375000
O1151	O115	0.250000	0.768760	0.875000
O1161	O116	0.750000	0.268760	0.375000
O1171	O117	0.231240	0.250000	0.125000
O1181	O118	0.768760	0.750000	0.125000
O1191	O119	0.268760	0.250000	0.625000
O1201	O120	0.731240	0.750000	0.625000
