data_LONVIV_clean_PM
_symmetry_space_group_name_H-M	'P1'
_cell_length_a	24.499200
_cell_length_b	24.499200
_cell_length_c	8.337900
_cell_angle_alpha	90.000000
_cell_angle_beta	90.000000
_cell_angle_gamma	120.000000
_symmetry_Int_Tables_number 1

loop_
_symmetry_equiv_pos_as_xyz
'x,y,z'

loop_
_atom_site_label
_atom_site_type_symbol
_atom_site_fract_x
_atom_site_fract_y
_atom_site_fract_z
N11	N1	0.926290	0.277870	0.540220
C11	C1	0.876070	0.221620	0.584270
N21	N2	0.592960	0.611200	0.873550
C21	C2	0.542740	0.554950	0.917600
N31	N3	0.259620	0.944540	0.206890
C31	C3	0.209400	0.888290	0.250940
N41	N4	0.722130	0.648420	0.540220
C41	C4	0.778380	0.654450	0.584270
N51	N5	0.388800	0.981750	0.873550
C51	C5	0.445050	0.987780	0.917600
N61	N6	0.055460	0.315090	0.206890
C61	C6	0.111710	0.321120	0.250940
N71	N7	0.351580	0.073710	0.540220
C71	C7	0.345550	0.123930	0.584270
N81	N8	0.018250	0.407040	0.873550
C81	C8	0.012220	0.457260	0.917600
N91	N9	0.684910	0.740380	0.206890
C91	C9	0.678880	0.790600	0.250940
N101	N10	0.277870	0.926290	0.459780
C101	C10	0.221620	0.876070	0.415730
N111	N11	0.944540	0.259620	0.793110
C111	C11	0.888290	0.209400	0.749060
N121	N12	0.611200	0.592960	0.126450
C121	C12	0.554950	0.542740	0.082400
N131	N13	0.648420	0.722130	0.459780
C131	C13	0.654450	0.778380	0.415730
N141	N14	0.315090	0.055460	0.793110
C141	C14	0.321120	0.111710	0.749060
N151	N15	0.981750	0.388800	0.126450
C151	C15	0.987780	0.445050	0.082400
N161	N16	0.073710	0.351580	0.459780
C161	C16	0.123930	0.345550	0.415730
N171	N17	0.740380	0.684910	0.793110
C171	C17	0.790600	0.678880	0.749060
N181	N18	0.407040	0.018250	0.126450
C181	C18	0.457260	0.012220	0.082400
N191	N19	0.073710	0.722130	0.459780
C191	C19	0.123930	0.778380	0.415730
N201	N20	0.740380	0.055460	0.793110
C201	C20	0.790600	0.111710	0.749060
N211	N21	0.407040	0.388800	0.126450
C211	C21	0.457260	0.445050	0.082400
N221	N22	0.277870	0.351580	0.459780
C221	C22	0.221620	0.345550	0.415730
N231	N23	0.944540	0.684910	0.793110
C231	C23	0.888290	0.678880	0.749060
N241	N24	0.611200	0.018250	0.126450
C241	C24	0.554950	0.012220	0.082400
N251	N25	0.648420	0.926290	0.459780
C251	C25	0.654450	0.876070	0.415730
N261	N26	0.315090	0.259620	0.793110
C261	C26	0.321120	0.209400	0.749060
N271	N27	0.981750	0.592960	0.126450
C271	C27	0.987780	0.542740	0.082400
N281	N28	0.722130	0.073710	0.540220
C281	C28	0.778380	0.123930	0.584270
N291	N29	0.388800	0.407040	0.873550
C291	C29	0.445050	0.457260	0.917600
N301	N30	0.055460	0.740380	0.206890
C301	C30	0.111710	0.790600	0.250940
N311	N31	0.351580	0.277870	0.540220
C311	C31	0.345550	0.221620	0.584270
N321	N32	0.018250	0.611200	0.873550
C321	C32	0.012220	0.554950	0.917600
N331	N33	0.684910	0.944540	0.206890
C331	C33	0.678880	0.888290	0.250940
N341	N34	0.926290	0.648420	0.540220
C341	C34	0.876070	0.654450	0.584270
N351	N35	0.592960	0.981750	0.873550
C351	C35	0.542740	0.987780	0.917600
N361	N36	0.259620	0.315090	0.206890
C361	C36	0.209400	0.321120	0.250940
Mn11	Mn1	0.948880	0.333330	0.333330
Mn21	Mn2	0.666670	0.615550	0.333330
Mn31	Mn3	0.384450	0.051120	0.333330
Mn41	Mn4	0.333330	0.948880	0.666670
Mn51	Mn5	0.000000	0.282210	0.000000
Mn61	Mn6	0.615550	0.666670	0.666670
Mn71	Mn7	0.282210	0.000000	0.000000
Mn81	Mn8	0.051120	0.384450	0.666670
Mn91	Mn9	0.717790	0.717790	0.000000
Mn101	Mn10	0.051120	0.666670	0.666670
Mn111	Mn11	0.717790	0.000000	0.000000
Mn121	Mn12	0.384450	0.333330	0.333330
Mn131	Mn13	0.333330	0.384450	0.666670
Mn141	Mn14	0.000000	0.717790	0.000000
Mn151	Mn15	0.615550	0.948880	0.666670
Mn161	Mn16	0.282210	0.282210	0.000000
Mn171	Mn17	0.666670	0.051120	0.333330
Mn181	Mn18	0.948880	0.615550	0.333330
Cl11	Cl1	0.000000	0.422960	0.500000
Cl21	Cl2	0.666670	0.756290	0.833330
Cl31	Cl3	0.333330	0.089630	0.166670
Cl41	Cl4	0.577040	0.577040	0.500000
Cl51	Cl5	0.243710	0.910370	0.833330
Cl61	Cl6	0.910370	0.243710	0.166670
Cl71	Cl7	0.422960	0.000000	0.500000
Cl81	Cl8	0.089630	0.333330	0.833330
Cl91	Cl9	0.756290	0.666670	0.166670
Cl101	Cl10	0.000000	0.577040	0.500000
Cl111	Cl11	0.666670	0.910370	0.833330
Cl121	Cl12	0.333330	0.243710	0.166670
Cl131	Cl13	0.422960	0.422960	0.500000
Cl141	Cl14	0.089630	0.756290	0.833330
Cl151	Cl15	0.756290	0.089630	0.166670
Cl161	Cl16	0.577040	0.000000	0.500000
Cl171	Cl17	0.243710	0.333330	0.833330
Cl181	Cl18	0.910370	0.666670	0.166670
N371	N37	0.964710	0.298050	0.666670
N381	N38	0.631380	0.631380	0.000000
N391	N39	0.701950	0.666670	0.666670
N401	N40	0.368620	0.000000	0.000000
N411	N41	0.333330	0.035290	0.666670
N421	N42	0.000000	0.368620	0.000000
N431	N43	0.298050	0.964710	0.333330
N441	N44	0.666670	0.701950	0.333330
N451	N45	0.035290	0.333330	0.333330
N461	N46	0.035290	0.701950	0.333330
N471	N47	0.298050	0.333330	0.333330
N481	N48	0.666670	0.964710	0.333330
N491	N49	0.701950	0.035290	0.666670
N501	N50	0.368620	0.368620	0.000000
N511	N51	0.333330	0.298050	0.666670
N521	N52	0.000000	0.631380	0.000000
N531	N53	0.964710	0.666670	0.666670
N541	N54	0.631380	0.000000	0.000000
C371	C37	0.820620	0.179380	0.500450
H11	H1	0.810860	0.189140	0.381270
C381	C38	0.487290	0.512710	0.833780
H21	H2	0.477530	0.522470	0.714600
C391	C39	0.153950	0.846050	0.167120
H31	H3	0.144190	0.855810	0.047940
C401	C40	0.820620	0.641240	0.500450
H41	H4	0.810860	0.621720	0.381270
C411	C41	0.487290	0.974570	0.833780
H51	H5	0.477530	0.955050	0.714600
C421	C42	0.153950	0.307910	0.167120
H61	H6	0.144190	0.288390	0.047940
C431	C43	0.358760	0.179380	0.500450
H71	H7	0.378280	0.189140	0.381270
C441	C44	0.025430	0.512710	0.833780
H81	H8	0.044950	0.522470	0.714600
C451	C45	0.692090	0.846050	0.167120
H91	H9	0.711610	0.855810	0.047940
C461	C46	0.179380	0.820620	0.499550
H101	H10	0.189140	0.810860	0.618730
C471	C47	0.846050	0.153950	0.832880
H111	H11	0.855810	0.144190	0.952060
C481	C48	0.512710	0.487290	0.166220
H121	H12	0.522470	0.477530	0.285400
C491	C49	0.641240	0.820620	0.499550
H131	H13	0.621720	0.810860	0.618730
C501	C50	0.307910	0.153950	0.832880
H141	H14	0.288390	0.144190	0.952060
C511	C51	0.974570	0.487290	0.166220
H151	H15	0.955050	0.477530	0.285400
C521	C52	0.179380	0.358760	0.499550
H161	H16	0.189140	0.378280	0.618730
C531	C53	0.846050	0.692090	0.832880
H171	H17	0.855810	0.711610	0.952060
C541	C54	0.512710	0.025430	0.166220
H181	H18	0.522470	0.044950	0.285400
