data_LONVAN_clean_PM
_symmetry_space_group_name_H-M	'P1'
_cell_length_a	25.004000
_cell_length_b	25.004000
_cell_length_c	8.625300
_cell_angle_alpha	90.000000
_cell_angle_beta	90.000000
_cell_angle_gamma	120.000000
_symmetry_Int_Tables_number 1

loop_
_symmetry_equiv_pos_as_xyz
'x,y,z'

loop_
_atom_site_label
_atom_site_type_symbol
_atom_site_fract_x
_atom_site_fract_y
_atom_site_fract_z
N11	N1	0.921560	0.276640	0.550500
C11	C1	0.872900	0.220260	0.592700
N21	N2	0.588230	0.609970	0.883830
C21	C2	0.539570	0.553590	0.926030
N31	N3	0.254890	0.943310	0.217170
C31	C3	0.206230	0.886930	0.259370
N41	N4	0.723360	0.644920	0.550500
C41	C4	0.779740	0.652640	0.592700
N51	N5	0.390030	0.978250	0.883830
C51	C5	0.446410	0.985970	0.926030
N61	N6	0.056690	0.311590	0.217170
C61	C6	0.113070	0.319310	0.259370
N71	N7	0.355080	0.078440	0.550500
C71	C7	0.347360	0.127100	0.592700
N81	N8	0.021750	0.411770	0.883830
C81	C8	0.014030	0.460430	0.926030
N91	N9	0.688410	0.745110	0.217170
C91	C9	0.680690	0.793770	0.259370
N101	N10	0.276640	0.921560	0.449500
C101	C10	0.220260	0.872900	0.407300
N111	N11	0.943310	0.254890	0.782830
C111	C11	0.886930	0.206230	0.740630
N121	N12	0.609970	0.588230	0.116170
C121	C12	0.553590	0.539570	0.073970
N131	N13	0.644920	0.723360	0.449500
C131	C13	0.652640	0.779740	0.407300
N141	N14	0.311590	0.056690	0.782830
C141	C14	0.319310	0.113070	0.740630
N151	N15	0.978250	0.390030	0.116170
C151	C15	0.985970	0.446410	0.073970
N161	N16	0.078440	0.355080	0.449500
C161	C16	0.127100	0.347360	0.407300
N171	N17	0.745110	0.688410	0.782830
C171	C17	0.793770	0.680690	0.740630
N181	N18	0.411770	0.021750	0.116170
C181	C18	0.460430	0.014030	0.073970
N191	N19	0.078440	0.723360	0.449500
C191	C19	0.127100	0.779740	0.407300
N201	N20	0.745110	0.056690	0.782830
C201	C20	0.793770	0.113070	0.740630
N211	N21	0.411770	0.390030	0.116170
C211	C21	0.460430	0.446410	0.073970
N221	N22	0.276640	0.355080	0.449500
C221	C22	0.220260	0.347360	0.407300
N231	N23	0.943310	0.688410	0.782830
C231	C23	0.886930	0.680690	0.740630
N241	N24	0.609970	0.021750	0.116170
C241	C24	0.553590	0.014030	0.073970
N251	N25	0.644920	0.921560	0.449500
C251	C25	0.652640	0.872900	0.407300
N261	N26	0.311590	0.254890	0.782830
C261	C26	0.319310	0.206230	0.740630
N271	N27	0.978250	0.588230	0.116170
C271	C27	0.985970	0.539570	0.073970
N281	N28	0.723360	0.078440	0.550500
C281	C28	0.779740	0.127100	0.592700
N291	N29	0.390030	0.411770	0.883830
C291	C29	0.446410	0.460430	0.926030
N301	N30	0.056690	0.745110	0.217170
C301	C30	0.113070	0.793770	0.259370
N311	N31	0.355080	0.276640	0.550500
C311	C31	0.347360	0.220260	0.592700
N321	N32	0.021750	0.609970	0.883830
C321	C32	0.014030	0.553590	0.926030
N331	N33	0.688410	0.943310	0.217170
C331	C33	0.680690	0.886930	0.259370
N341	N34	0.921560	0.644920	0.550500
C341	C34	0.872900	0.652640	0.592700
N351	N35	0.588230	0.978250	0.883830
C351	C35	0.539570	0.985970	0.926030
N361	N36	0.254890	0.311590	0.217170
C361	C36	0.206230	0.319310	0.259370
Mn11	Mn1	0.946650	0.333330	0.333330
Mn21	Mn2	0.666670	0.613310	0.333330
Mn31	Mn3	0.386690	0.053350	0.333330
Mn41	Mn4	0.333330	0.946650	0.666670
Mn51	Mn5	0.000000	0.279980	0.000000
Mn61	Mn6	0.613310	0.666670	0.666670
Mn71	Mn7	0.279980	0.000000	0.000000
Mn81	Mn8	0.053350	0.386690	0.666670
Mn91	Mn9	0.720020	0.720020	0.000000
Mn101	Mn10	0.053350	0.666670	0.666670
Mn111	Mn11	0.720020	0.000000	0.000000
Mn121	Mn12	0.386690	0.333330	0.333330
Mn131	Mn13	0.333330	0.386690	0.666670
Mn141	Mn14	0.000000	0.720020	0.000000
Mn151	Mn15	0.613310	0.946650	0.666670
Mn161	Mn16	0.279980	0.279980	0.000000
Mn171	Mn17	0.666670	0.053350	0.333330
Mn181	Mn18	0.946650	0.613310	0.333330
Cl11	Cl1	0.000000	0.428740	0.500000
Cl21	Cl2	0.666670	0.762070	0.833330
Cl31	Cl3	0.333330	0.095410	0.166670
Cl41	Cl4	0.571260	0.571260	0.500000
Cl51	Cl5	0.237930	0.904590	0.833330
Cl61	Cl6	0.904590	0.237930	0.166670
Cl71	Cl7	0.428740	0.000000	0.500000
Cl81	Cl8	0.095410	0.333330	0.833330
Cl91	Cl9	0.762070	0.666670	0.166670
Cl101	Cl10	0.000000	0.571260	0.500000
Cl111	Cl11	0.666670	0.904590	0.833330
Cl121	Cl12	0.333330	0.237930	0.166670
Cl131	Cl13	0.428740	0.428740	0.500000
Cl141	Cl14	0.095410	0.762070	0.833330
Cl151	Cl15	0.762070	0.095410	0.166670
Cl161	Cl16	0.571260	0.000000	0.500000
Cl171	Cl17	0.237930	0.333330	0.833330
Cl181	Cl18	0.904590	0.666670	0.166670
N371	N37	0.962380	0.295710	0.666670
N381	N38	0.629050	0.629050	0.000000
N391	N39	0.704290	0.666670	0.666670
N401	N40	0.370950	0.000000	0.000000
N411	N41	0.333330	0.037620	0.666670
N421	N42	0.000000	0.370950	0.000000
N431	N43	0.295710	0.962380	0.333330
N441	N44	0.666670	0.704290	0.333330
N451	N45	0.037620	0.333330	0.333330
N461	N46	0.037620	0.704290	0.333330
N471	N47	0.295710	0.333330	0.333330
N481	N48	0.666670	0.962380	0.333330
N491	N49	0.704290	0.037620	0.666670
N501	N50	0.370950	0.370950	0.000000
N511	N51	0.333330	0.295710	0.666670
N521	N52	0.000000	0.629050	0.000000
N531	N53	0.962380	0.666670	0.666670
N541	N54	0.629050	0.000000	0.000000
C371	C37	0.818820	0.181180	0.512800
H11	H1	0.809500	0.190500	0.413200
C381	C38	0.485490	0.514510	0.846130
H21	H2	0.476170	0.523830	0.746530
C391	C39	0.152150	0.847850	0.179470
H31	H3	0.142830	0.857170	0.079870
C401	C40	0.818820	0.637640	0.512800
H41	H4	0.809500	0.619000	0.413200
C411	C41	0.485490	0.970970	0.846130
H51	H5	0.476170	0.952330	0.746530
C421	C42	0.152150	0.304310	0.179470
H61	H6	0.142830	0.285670	0.079870
C431	C43	0.362360	0.181180	0.512800
H71	H7	0.381000	0.190500	0.413200
C441	C44	0.029030	0.514510	0.846130
H81	H8	0.047670	0.523830	0.746530
C451	C45	0.695690	0.847850	0.179470
H91	H9	0.714330	0.857170	0.079870
C461	C46	0.181180	0.818820	0.487200
H101	H10	0.190500	0.809500	0.586800
C471	C47	0.847850	0.152150	0.820530
H111	H11	0.857170	0.142830	0.920130
C481	C48	0.514510	0.485490	0.153870
H121	H12	0.523830	0.476170	0.253470
C491	C49	0.637640	0.818820	0.487200
H131	H13	0.619000	0.809500	0.586800
C501	C50	0.304310	0.152150	0.820530
H141	H14	0.285670	0.142830	0.920130
C511	C51	0.970970	0.485490	0.153870
H151	H15	0.952330	0.476170	0.253470
C521	C52	0.181180	0.362360	0.487200
H161	H16	0.190500	0.381000	0.586800
C531	C53	0.847850	0.695690	0.820530
H171	H17	0.857170	0.714330	0.920130
C541	C54	0.514510	0.029030	0.153870
H181	H18	0.523830	0.047670	0.253470
