data_LOPZAS_clean_PM
_symmetry_space_group_name_H-M	'P1'
_cell_length_a	27.083000
_cell_length_b	27.083000
_cell_length_c	27.083000
_cell_angle_alpha	90.000000
_cell_angle_beta	90.000000
_cell_angle_gamma	90.000000
_symmetry_Int_Tables_number 1

loop_
_symmetry_equiv_pos_as_xyz
'x,y,z'

loop_
_atom_site_label
_atom_site_type_symbol
_atom_site_fract_x
_atom_site_fract_y
_atom_site_fract_z
O11	O1	0.172900	0.080000	0.453300
O21	O2	0.185300	0.980700	0.442100
C11	C1	0.234700	0.102600	0.609400
O31	O3	0.211200	0.175300	0.563800
C21	C2	0.166300	0.131600	0.448600
C31	C3	0.150500	0.057700	0.576600
H11	H1	0.118800	0.042700	0.567700
C41	C4	0.200800	0.128100	0.578600
C51	C5	0.139800	0.155000	0.482700
C61	C6	0.135100	0.053900	0.430900
H21	H2	0.130300	0.066200	0.397600
H31	H3	0.104700	0.059100	0.449200
C71	C7	0.168700	0.978000	0.622400
C81	C8	0.129900	0.204500	0.473500
H41	H4	0.111300	0.222400	0.496200
C91	C9	0.186500	0.153400	0.407600
C101	C10	0.182100	0.030200	0.607100
C111	C11	0.158400	0.103200	0.561800
C121	C12	0.222700	0.052800	0.620700
H51	H5	0.243500	0.036000	0.645000
O41	O4	0.109000	0.973700	0.408300
C131	C13	0.146900	0.997700	0.429100
C141	C14	0.147600	0.228700	0.429600
C151	C15	0.174400	0.203300	0.399800
H61	H6	0.186400	0.218700	0.371600
C161	C16	0.119600	0.131700	0.529400
H71	H7	0.093600	0.108800	0.520200
H81	H8	0.104800	0.157400	0.549400
C171	C17	0.184400	0.312900	0.424100
H91	H9	0.179100	0.347700	0.419800
H101	H10	0.204900	0.300800	0.397900
H111	H11	0.200200	0.307100	0.455300
C181	C18	0.217800	0.127700	0.373000
H121	H12	0.227000	0.151200	0.347600
H131	H13	0.197800	0.102600	0.357200
C191	C19	0.180700	0.944500	0.575800
H141	H14	0.160000	0.954100	0.548700
H151	H15	0.174700	0.910500	0.583800
H161	H16	0.214700	0.948600	0.566700
C201	C20	0.202400	0.958200	0.666100
H171	H17	0.192700	0.925200	0.674500
H181	H18	0.198500	0.979200	0.694400
H191	H19	0.236300	0.958400	0.655900
C211	C21	0.092500	0.304400	0.455800
H201	H20	0.086500	0.338300	0.447500
H211	H21	0.103300	0.302200	0.489500
H221	H22	0.062600	0.285800	0.451800
C221	C22	0.112600	0.286300	0.373400
H231	H23	0.101900	0.319400	0.366300
H241	H24	0.085100	0.264100	0.370200
H251	H25	0.138100	0.277000	0.350800
C231	C23	0.118400	0.968800	0.635800
H261	H26	0.097000	0.979300	0.609500
H271	H27	0.110500	0.986800	0.665300
H281	H28	0.113800	0.934100	0.641500
C241	C24	0.131200	0.284100	0.423000
C251	C25	0.198500	0.213100	0.587400
H291	H29	0.208800	0.242000	0.569800
H301	H30	0.213700	0.212600	0.619400
H311	H31	0.163300	0.213400	0.591100
O51	O5	0.672900	0.580000	0.953300
O61	O6	0.685300	0.480700	0.942100
C261	C26	0.734700	0.602600	0.109400
O71	O7	0.711200	0.675300	0.063800
C271	C27	0.666300	0.631600	0.948600
C281	C28	0.650500	0.557700	0.076600
H321	H32	0.618800	0.542700	0.067700
C291	C29	0.700800	0.628100	0.078600
C301	C30	0.639800	0.655000	0.982700
C311	C31	0.635100	0.553900	0.930900
H331	H33	0.630300	0.566200	0.897600
H341	H34	0.604700	0.559100	0.949200
C321	C32	0.668700	0.478000	0.122400
C331	C33	0.629900	0.704500	0.973500
H351	H35	0.611300	0.722400	0.996200
C341	C34	0.686500	0.653400	0.907600
C351	C35	0.682100	0.530200	0.107100
C361	C36	0.658400	0.603200	0.061800
C371	C37	0.722700	0.552800	0.120700
H361	H36	0.743500	0.536000	0.145000
O81	O8	0.609000	0.473700	0.908300
C381	C38	0.646900	0.497700	0.929100
C391	C39	0.647600	0.728700	0.929600
C401	C40	0.674400	0.703300	0.899800
H371	H37	0.686400	0.718700	0.871600
C411	C41	0.619600	0.631700	0.029400
H381	H38	0.593600	0.608800	0.020200
H391	H39	0.604800	0.657400	0.049400
C421	C42	0.684400	0.812900	0.924100
H401	H40	0.679100	0.847700	0.919800
H411	H41	0.704900	0.800800	0.897900
H421	H42	0.700200	0.807100	0.955300
C431	C43	0.717800	0.627700	0.873000
H431	H43	0.727000	0.651200	0.847600
H441	H44	0.697800	0.602600	0.857200
C441	C44	0.680700	0.444500	0.075800
H451	H45	0.660000	0.454100	0.048700
H461	H46	0.674700	0.410500	0.083800
H471	H47	0.714700	0.448600	0.066700
C451	C45	0.702400	0.458200	0.166100
H481	H48	0.692700	0.425200	0.174500
H491	H49	0.698500	0.479200	0.194400
H501	H50	0.736300	0.458400	0.155900
C461	C46	0.592500	0.804400	0.955800
H511	H51	0.586500	0.838300	0.947500
H521	H52	0.603300	0.802200	0.989500
H531	H53	0.562600	0.785800	0.951800
C471	C47	0.612600	0.786300	0.873400
H541	H54	0.601900	0.819400	0.866300
H551	H55	0.585100	0.764100	0.870200
H561	H56	0.638100	0.777000	0.850800
C481	C48	0.618400	0.468800	0.135800
H571	H57	0.597000	0.479300	0.109500
H581	H58	0.610500	0.486800	0.165300
H591	H59	0.613800	0.434100	0.141500
C491	C49	0.631200	0.784100	0.923000
C501	C50	0.698500	0.713100	0.087400
H601	H60	0.708800	0.742000	0.069800
H611	H61	0.713700	0.712600	0.119400
H621	H62	0.663300	0.713400	0.091100
O91	O9	0.327100	0.920000	0.953300
O101	O10	0.314700	0.019300	0.942100
C511	C51	0.265300	0.897400	0.109400
O111	O11	0.288800	0.824700	0.063800
C521	C52	0.333700	0.868400	0.948600
C531	C53	0.349500	0.942300	0.076600
H631	H63	0.381200	0.957300	0.067700
C541	C54	0.299200	0.871900	0.078600
C551	C55	0.360200	0.845000	0.982700
C561	C56	0.364900	0.946100	0.930900
H641	H64	0.369700	0.933800	0.897600
H651	H65	0.395300	0.940900	0.949200
C571	C57	0.331300	0.022000	0.122400
C581	C58	0.370100	0.795500	0.973500
H661	H66	0.388700	0.777600	0.996200
C591	C59	0.313500	0.846600	0.907600
C601	C60	0.317900	0.969800	0.107100
C611	C61	0.341600	0.896800	0.061800
C621	C62	0.277300	0.947200	0.120700
H671	H67	0.256500	0.964000	0.145000
O121	O12	0.391000	0.026300	0.908300
C631	C63	0.353100	0.002300	0.929100
C641	C64	0.352400	0.771300	0.929600
C651	C65	0.325600	0.796700	0.899800
H681	H68	0.313600	0.781300	0.871600
C661	C66	0.380400	0.868300	0.029400
H691	H69	0.406400	0.891200	0.020200
H701	H70	0.395200	0.842600	0.049400
C671	C67	0.315600	0.687100	0.924100
H711	H71	0.320900	0.652300	0.919800
H721	H72	0.295100	0.699200	0.897900
H731	H73	0.299800	0.692900	0.955300
C681	C68	0.282200	0.872300	0.873000
H741	H74	0.273000	0.848800	0.847600
H751	H75	0.302200	0.897400	0.857200
C691	C69	0.319300	0.055500	0.075800
H761	H76	0.340000	0.045900	0.048700
H771	H77	0.325300	0.089500	0.083800
H781	H78	0.285300	0.051400	0.066700
C701	C70	0.297600	0.041800	0.166100
H791	H79	0.307300	0.074800	0.174500
H801	H80	0.301500	0.020800	0.194400
H811	H81	0.263700	0.041600	0.155900
C711	C71	0.407500	0.695600	0.955800
H821	H82	0.413500	0.661700	0.947500
H831	H83	0.396700	0.697800	0.989500
H841	H84	0.437400	0.714200	0.951800
C721	C72	0.387400	0.713700	0.873400
H851	H85	0.398100	0.680600	0.866300
H861	H86	0.414900	0.735900	0.870200
H871	H87	0.361900	0.723000	0.850800
C731	C73	0.381600	0.031200	0.135800
H881	H88	0.403000	0.020700	0.109500
H891	H89	0.389500	0.013200	0.165300
H901	H90	0.386200	0.065900	0.141500
C741	C74	0.368800	0.715900	0.923000
C751	C75	0.301500	0.786900	0.087400
H911	H91	0.291200	0.758000	0.069800
H921	H92	0.286300	0.787400	0.119400
H931	H93	0.336700	0.786600	0.091100
O131	O13	0.827100	0.420000	0.453300
O141	O14	0.814700	0.519300	0.442100
C761	C76	0.765300	0.397400	0.609400
O151	O15	0.788800	0.324700	0.563800
C771	C77	0.833700	0.368400	0.448600
C781	C78	0.849500	0.442300	0.576600
H941	H94	0.881200	0.457300	0.567700
C791	C79	0.799200	0.371900	0.578600
C801	C80	0.860200	0.345000	0.482700
C811	C81	0.864900	0.446100	0.430900
H951	H95	0.869700	0.433800	0.397600
H961	H96	0.895300	0.440900	0.449200
C821	C82	0.831300	0.522000	0.622400
C831	C83	0.870100	0.295500	0.473500
H971	H97	0.888700	0.277600	0.496200
C841	C84	0.813500	0.346600	0.407600
C851	C85	0.817900	0.469800	0.607100
C861	C86	0.841600	0.396800	0.561800
C871	C87	0.777300	0.447200	0.620700
H981	H98	0.756500	0.464000	0.645000
O161	O16	0.891000	0.526300	0.408300
C881	C88	0.853100	0.502300	0.429100
C891	C89	0.852400	0.271300	0.429600
C901	C90	0.825600	0.296700	0.399800
H991	H99	0.813600	0.281300	0.371600
C911	C91	0.880400	0.368300	0.529400
H1001	H100	0.906400	0.391200	0.520200
H1011	H101	0.895200	0.342600	0.549400
C921	C92	0.815600	0.187100	0.424100
H1021	H102	0.820900	0.152300	0.419800
H1031	H103	0.795100	0.199200	0.397900
H1041	H104	0.799800	0.192900	0.455300
C931	C93	0.782200	0.372300	0.373000
H1051	H105	0.773000	0.348800	0.347600
H1061	H106	0.802200	0.397400	0.357200
C941	C94	0.819300	0.555500	0.575800
H1071	H107	0.840000	0.545900	0.548700
H1081	H108	0.825300	0.589500	0.583800
H1091	H109	0.785300	0.551400	0.566700
C951	C95	0.797600	0.541800	0.666100
H1101	H110	0.807300	0.574800	0.674500
H1111	H111	0.801500	0.520800	0.694400
H1121	H112	0.763700	0.541600	0.655900
C961	C96	0.907500	0.195600	0.455800
H1131	H113	0.913500	0.161700	0.447500
H1141	H114	0.896700	0.197800	0.489500
H1151	H115	0.937400	0.214200	0.451800
C971	C97	0.887400	0.213700	0.373400
H1161	H116	0.898100	0.180600	0.366300
H1171	H117	0.914900	0.235900	0.370200
H1181	H118	0.861900	0.223000	0.350800
C981	C98	0.881600	0.531200	0.635800
H1191	H119	0.903000	0.520700	0.609500
H1201	H120	0.889500	0.513200	0.665300
H1211	H121	0.886200	0.565900	0.641500
C991	C99	0.868800	0.215900	0.423000
C1001	C100	0.801500	0.286900	0.587400
H1221	H122	0.791200	0.258000	0.569800
H1231	H123	0.786300	0.287400	0.619400
H1241	H124	0.836700	0.286600	0.591100
O171	O17	0.827100	0.580000	0.046700
O181	O18	0.814700	0.480700	0.057900
C1011	C101	0.765300	0.602600	0.890600
O191	O19	0.788800	0.675300	0.936200
C1021	C102	0.833700	0.631600	0.051400
C1031	C103	0.849500	0.557700	0.923400
H1251	H125	0.881200	0.542700	0.932300
C1041	C104	0.799200	0.628100	0.921400
C1051	C105	0.860200	0.655000	0.017300
C1061	C106	0.864900	0.553900	0.069100
H1261	H126	0.869700	0.566200	0.102400
H1271	H127	0.895300	0.559100	0.050800
C1071	C107	0.831300	0.478000	0.877600
C1081	C108	0.870100	0.704500	0.026500
H1281	H128	0.888700	0.722400	0.003800
C1091	C109	0.813500	0.653400	0.092400
C1101	C110	0.817900	0.530200	0.892900
C1111	C111	0.841600	0.603200	0.938200
C1121	C112	0.777300	0.552800	0.879300
H1291	H129	0.756500	0.536000	0.855000
O201	O20	0.891000	0.473700	0.091700
C1131	C113	0.853100	0.497700	0.070900
C1141	C114	0.852400	0.728700	0.070400
C1151	C115	0.825600	0.703300	0.100200
H1301	H130	0.813600	0.718700	0.128400
C1161	C116	0.880400	0.631700	0.970600
H1311	H131	0.906400	0.608800	0.979800
H1321	H132	0.895200	0.657400	0.950600
C1171	C117	0.815600	0.812900	0.075900
H1331	H133	0.820900	0.847700	0.080200
H1341	H134	0.795100	0.800800	0.102100
H1351	H135	0.799800	0.807100	0.044700
C1181	C118	0.782200	0.627700	0.127000
H1361	H136	0.773000	0.651200	0.152400
H1371	H137	0.802200	0.602600	0.142800
C1191	C119	0.819300	0.444500	0.924200
H1381	H138	0.840000	0.454100	0.951300
H1391	H139	0.825300	0.410500	0.916200
H1401	H140	0.785300	0.448600	0.933300
C1201	C120	0.797600	0.458200	0.833900
H1411	H141	0.807300	0.425200	0.825500
H1421	H142	0.801500	0.479200	0.805600
H1431	H143	0.763700	0.458400	0.844100
C1211	C121	0.907500	0.804400	0.044200
H1441	H144	0.913500	0.838300	0.052500
H1451	H145	0.896700	0.802200	0.010500
H1461	H146	0.937400	0.785800	0.048200
C1221	C122	0.887400	0.786300	0.126600
H1471	H147	0.898100	0.819400	0.133700
H1481	H148	0.914900	0.764100	0.129800
H1491	H149	0.861900	0.777000	0.149200
C1231	C123	0.881600	0.468800	0.864200
H1501	H150	0.903000	0.479300	0.890500
H1511	H151	0.889500	0.486800	0.834700
H1521	H152	0.886200	0.434100	0.858500
C1241	C124	0.868800	0.784100	0.077000
C1251	C125	0.801500	0.713100	0.912600
H1531	H153	0.791200	0.742000	0.930200
H1541	H154	0.786300	0.712600	0.880600
H1551	H155	0.836700	0.713400	0.908900
O211	O21	0.327100	0.080000	0.546700
O221	O22	0.314700	0.980700	0.557900
C1261	C126	0.265300	0.102600	0.390600
O231	O23	0.288800	0.175300	0.436200
C1271	C127	0.333700	0.131600	0.551400
C1281	C128	0.349500	0.057700	0.423400
H1561	H156	0.381200	0.042700	0.432300
C1291	C129	0.299200	0.128100	0.421400
C1301	C130	0.360200	0.155000	0.517300
C1311	C131	0.364900	0.053900	0.569100
H1571	H157	0.369700	0.066200	0.602400
H1581	H158	0.395300	0.059100	0.550800
C1321	C132	0.331300	0.978000	0.377600
C1331	C133	0.370100	0.204500	0.526500
H1591	H159	0.388700	0.222400	0.503800
C1341	C134	0.313500	0.153400	0.592400
C1351	C135	0.317900	0.030200	0.392900
C1361	C136	0.341600	0.103200	0.438200
C1371	C137	0.277300	0.052800	0.379300
H1601	H160	0.256500	0.036000	0.355000
O241	O24	0.391000	0.973700	0.591700
C1381	C138	0.353100	0.997700	0.570900
C1391	C139	0.352400	0.228700	0.570400
C1401	C140	0.325600	0.203300	0.600200
H1611	H161	0.313600	0.218700	0.628400
C1411	C141	0.380400	0.131700	0.470600
H1621	H162	0.406400	0.108800	0.479800
H1631	H163	0.395200	0.157400	0.450600
C1421	C142	0.315600	0.312900	0.575900
H1641	H164	0.320900	0.347700	0.580200
H1651	H165	0.295100	0.300800	0.602100
H1661	H166	0.299800	0.307100	0.544700
C1431	C143	0.282200	0.127700	0.627000
H1671	H167	0.273000	0.151200	0.652400
H1681	H168	0.302200	0.102600	0.642800
C1441	C144	0.319300	0.944500	0.424200
H1691	H169	0.340000	0.954100	0.451300
H1701	H170	0.325300	0.910500	0.416200
H1711	H171	0.285300	0.948600	0.433300
C1451	C145	0.297600	0.958200	0.333900
H1721	H172	0.307300	0.925200	0.325500
H1731	H173	0.301500	0.979200	0.305600
H1741	H174	0.263700	0.958400	0.344100
C1461	C146	0.407500	0.304400	0.544200
H1751	H175	0.413500	0.338300	0.552500
H1761	H176	0.396700	0.302200	0.510500
H1771	H177	0.437400	0.285800	0.548200
C1471	C147	0.387400	0.286300	0.626600
H1781	H178	0.398100	0.319400	0.633700
H1791	H179	0.414900	0.264100	0.629800
H1801	H180	0.361900	0.277000	0.649200
C1481	C148	0.381600	0.968800	0.364200
H1811	H181	0.403000	0.979300	0.390500
H1821	H182	0.389500	0.986800	0.334700
H1831	H183	0.386200	0.934100	0.358500
C1491	C149	0.368800	0.284100	0.577000
C1501	C150	0.301500	0.213100	0.412600
H1841	H184	0.291200	0.242000	0.430200
H1851	H185	0.286300	0.212600	0.380600
H1861	H186	0.336700	0.213400	0.408900
O251	O25	0.672900	0.420000	0.546700
O261	O26	0.685300	0.519300	0.557900
C1511	C151	0.734700	0.397400	0.390600
O271	O27	0.711200	0.324700	0.436200
C1521	C152	0.666300	0.368400	0.551400
C1531	C153	0.650500	0.442300	0.423400
H1871	H187	0.618800	0.457300	0.432300
C1541	C154	0.700800	0.371900	0.421400
C1551	C155	0.639800	0.345000	0.517300
C1561	C156	0.635100	0.446100	0.569100
H1881	H188	0.630300	0.433800	0.602400
H1891	H189	0.604700	0.440900	0.550800
C1571	C157	0.668700	0.522000	0.377600
C1581	C158	0.629900	0.295500	0.526500
H1901	H190	0.611300	0.277600	0.503800
C1591	C159	0.686500	0.346600	0.592400
C1601	C160	0.682100	0.469800	0.392900
C1611	C161	0.658400	0.396800	0.438200
C1621	C162	0.722700	0.447200	0.379300
H1911	H191	0.743500	0.464000	0.355000
O281	O28	0.609000	0.526300	0.591700
C1631	C163	0.646900	0.502300	0.570900
C1641	C164	0.647600	0.271300	0.570400
C1651	C165	0.674400	0.296700	0.600200
H1921	H192	0.686400	0.281300	0.628400
C1661	C166	0.619600	0.368300	0.470600
H1931	H193	0.593600	0.391200	0.479800
H1941	H194	0.604800	0.342600	0.450600
C1671	C167	0.684400	0.187100	0.575900
H1951	H195	0.679100	0.152300	0.580200
H1961	H196	0.704900	0.199200	0.602100
H1971	H197	0.700200	0.192900	0.544700
C1681	C168	0.717800	0.372300	0.627000
H1981	H198	0.727000	0.348800	0.652400
H1991	H199	0.697800	0.397400	0.642800
C1691	C169	0.680700	0.555500	0.424200
H2001	H200	0.660000	0.545900	0.451300
H2011	H201	0.674700	0.589500	0.416200
H2021	H202	0.714700	0.551400	0.433300
C1701	C170	0.702400	0.541800	0.333900
H2031	H203	0.692700	0.574800	0.325500
H2041	H204	0.698500	0.520800	0.305600
H2051	H205	0.736300	0.541600	0.344100
C1711	C171	0.592500	0.195600	0.544200
H2061	H206	0.586500	0.161700	0.552500
H2071	H207	0.603300	0.197800	0.510500
H2081	H208	0.562600	0.214200	0.548200
C1721	C172	0.612600	0.213700	0.626600
H2091	H209	0.601900	0.180600	0.633700
H2101	H210	0.585100	0.235900	0.629800
H2111	H211	0.638100	0.223000	0.649200
C1731	C173	0.618400	0.531200	0.364200
H2121	H212	0.597000	0.520700	0.390500
H2131	H213	0.610500	0.513200	0.334700
H2141	H214	0.613800	0.565900	0.358500
C1741	C174	0.631200	0.215900	0.577000
C1751	C175	0.698500	0.286900	0.412600
H2151	H215	0.708800	0.258000	0.430200
H2161	H216	0.713700	0.287400	0.380600
H2171	H217	0.663300	0.286600	0.408900
O291	O29	0.172900	0.920000	0.046700
O301	O30	0.185300	0.019300	0.057900
C1761	C176	0.234700	0.897400	0.890600
O311	O31	0.211200	0.824700	0.936200
C1771	C177	0.166300	0.868400	0.051400
C1781	C178	0.150500	0.942300	0.923400
H2181	H218	0.118800	0.957300	0.932300
C1791	C179	0.200800	0.871900	0.921400
C1801	C180	0.139800	0.845000	0.017300
C1811	C181	0.135100	0.946100	0.069100
H2191	H219	0.130300	0.933800	0.102400
H2201	H220	0.104700	0.940900	0.050800
C1821	C182	0.168700	0.022000	0.877600
C1831	C183	0.129900	0.795500	0.026500
H2211	H221	0.111300	0.777600	0.003800
C1841	C184	0.186500	0.846600	0.092400
C1851	C185	0.182100	0.969800	0.892900
C1861	C186	0.158400	0.896800	0.938200
C1871	C187	0.222700	0.947200	0.879300
H2221	H222	0.243500	0.964000	0.855000
O321	O32	0.109000	0.026300	0.091700
C1881	C188	0.146900	0.002300	0.070900
C1891	C189	0.147600	0.771300	0.070400
C1901	C190	0.174400	0.796700	0.100200
H2231	H223	0.186400	0.781300	0.128400
C1911	C191	0.119600	0.868300	0.970600
H2241	H224	0.093600	0.891200	0.979800
H2251	H225	0.104800	0.842600	0.950600
C1921	C192	0.184400	0.687100	0.075900
H2261	H226	0.179100	0.652300	0.080200
H2271	H227	0.204900	0.699200	0.102100
H2281	H228	0.200200	0.692900	0.044700
C1931	C193	0.217800	0.872300	0.127000
H2291	H229	0.227000	0.848800	0.152400
H2301	H230	0.197800	0.897400	0.142800
C1941	C194	0.180700	0.055500	0.924200
H2311	H231	0.160000	0.045900	0.951300
H2321	H232	0.174700	0.089500	0.916200
H2331	H233	0.214700	0.051400	0.933300
C1951	C195	0.202400	0.041800	0.833900
H2341	H234	0.192700	0.074800	0.825500
H2351	H235	0.198500	0.020800	0.805600
H2361	H236	0.236300	0.041600	0.844100
C1961	C196	0.092500	0.695600	0.044200
H2371	H237	0.086500	0.661700	0.052500
H2381	H238	0.103300	0.697800	0.010500
H2391	H239	0.062600	0.714200	0.048200
C1971	C197	0.112600	0.713700	0.126600
H2401	H240	0.101900	0.680600	0.133700
H2411	H241	0.085100	0.735900	0.129800
H2421	H242	0.138100	0.723000	0.149200
C1981	C198	0.118400	0.031200	0.864200
H2431	H243	0.097000	0.020700	0.890500
H2441	H244	0.110500	0.013200	0.834700
H2451	H245	0.113800	0.065900	0.858500
C1991	C199	0.131200	0.715900	0.077000
C2001	C200	0.198500	0.786900	0.912600
H2461	H246	0.208800	0.758000	0.930200
H2471	H247	0.213700	0.787400	0.880600
H2481	H248	0.163300	0.786600	0.908900
O331	O33	0.453300	0.172900	0.080000
O341	O34	0.442100	0.185300	0.980700
C2011	C201	0.609400	0.234700	0.102600
O351	O35	0.563800	0.211200	0.175300
C2021	C202	0.448600	0.166300	0.131600
C2031	C203	0.576600	0.150500	0.057700
H2491	H249	0.567700	0.118800	0.042700
C2041	C204	0.578600	0.200800	0.128100
C2051	C205	0.482700	0.139800	0.155000
C2061	C206	0.430900	0.135100	0.053900
H2501	H250	0.397600	0.130300	0.066200
H2511	H251	0.449200	0.104700	0.059100
C2071	C207	0.622400	0.168700	0.978000
C2081	C208	0.473500	0.129900	0.204500
H2521	H252	0.496200	0.111300	0.222400
C2091	C209	0.407600	0.186500	0.153400
C2101	C210	0.607100	0.182100	0.030200
C2111	C211	0.561800	0.158400	0.103200
C2121	C212	0.620700	0.222700	0.052800
H2531	H253	0.645000	0.243500	0.036000
O361	O36	0.408300	0.109000	0.973700
C2131	C213	0.429100	0.146900	0.997700
C2141	C214	0.429600	0.147600	0.228700
C2151	C215	0.399800	0.174400	0.203300
H2541	H254	0.371600	0.186400	0.218700
C2161	C216	0.529400	0.119600	0.131700
H2551	H255	0.520200	0.093600	0.108800
H2561	H256	0.549400	0.104800	0.157400
C2171	C217	0.424100	0.184400	0.312900
H2571	H257	0.419800	0.179100	0.347700
H2581	H258	0.397900	0.204900	0.300800
H2591	H259	0.455300	0.200200	0.307100
C2181	C218	0.373000	0.217800	0.127700
H2601	H260	0.347600	0.227000	0.151200
H2611	H261	0.357200	0.197800	0.102600
C2191	C219	0.575800	0.180700	0.944500
H2621	H262	0.548700	0.160000	0.954100
H2631	H263	0.583800	0.174700	0.910500
H2641	H264	0.566700	0.214700	0.948600
C2201	C220	0.666100	0.202400	0.958200
H2651	H265	0.674500	0.192700	0.925200
H2661	H266	0.694400	0.198500	0.979200
H2671	H267	0.655900	0.236300	0.958400
C2211	C221	0.455800	0.092500	0.304400
H2681	H268	0.447500	0.086500	0.338300
H2691	H269	0.489500	0.103300	0.302200
H2701	H270	0.451800	0.062600	0.285800
C2221	C222	0.373400	0.112600	0.286300
H2711	H271	0.366300	0.101900	0.319400
H2721	H272	0.370200	0.085100	0.264100
H2731	H273	0.350800	0.138100	0.277000
C2231	C223	0.635800	0.118400	0.968800
H2741	H274	0.609500	0.097000	0.979300
H2751	H275	0.665300	0.110500	0.986800
H2761	H276	0.641500	0.113800	0.934100
C2241	C224	0.423000	0.131200	0.284100
C2251	C225	0.587400	0.198500	0.213100
H2771	H277	0.569800	0.208800	0.242000
H2781	H278	0.619400	0.213700	0.212600
H2791	H279	0.591100	0.163300	0.213400
O371	O37	0.953300	0.672900	0.580000
O381	O38	0.942100	0.685300	0.480700
C2261	C226	0.109400	0.734700	0.602600
O391	O39	0.063800	0.711200	0.675300
C2271	C227	0.948600	0.666300	0.631600
C2281	C228	0.076600	0.650500	0.557700
H2801	H280	0.067700	0.618800	0.542700
C2291	C229	0.078600	0.700800	0.628100
C2301	C230	0.982700	0.639800	0.655000
C2311	C231	0.930900	0.635100	0.553900
H2811	H281	0.897600	0.630300	0.566200
H2821	H282	0.949200	0.604700	0.559100
C2321	C232	0.122400	0.668700	0.478000
C2331	C233	0.973500	0.629900	0.704500
H2831	H283	0.996200	0.611300	0.722400
C2341	C234	0.907600	0.686500	0.653400
C2351	C235	0.107100	0.682100	0.530200
C2361	C236	0.061800	0.658400	0.603200
C2371	C237	0.120700	0.722700	0.552800
H2841	H284	0.145000	0.743500	0.536000
O401	O40	0.908300	0.609000	0.473700
C2381	C238	0.929100	0.646900	0.497700
C2391	C239	0.929600	0.647600	0.728700
C2401	C240	0.899800	0.674400	0.703300
H2851	H285	0.871600	0.686400	0.718700
C2411	C241	0.029400	0.619600	0.631700
H2861	H286	0.020200	0.593600	0.608800
H2871	H287	0.049400	0.604800	0.657400
C2421	C242	0.924100	0.684400	0.812900
H2881	H288	0.919800	0.679100	0.847700
H2891	H289	0.897900	0.704900	0.800800
H2901	H290	0.955300	0.700200	0.807100
C2431	C243	0.873000	0.717800	0.627700
H2911	H291	0.847600	0.727000	0.651200
H2921	H292	0.857200	0.697800	0.602600
C2441	C244	0.075800	0.680700	0.444500
H2931	H293	0.048700	0.660000	0.454100
H2941	H294	0.083800	0.674700	0.410500
H2951	H295	0.066700	0.714700	0.448600
C2451	C245	0.166100	0.702400	0.458200
H2961	H296	0.174500	0.692700	0.425200
H2971	H297	0.194400	0.698500	0.479200
H2981	H298	0.155900	0.736300	0.458400
C2461	C246	0.955800	0.592500	0.804400
H2991	H299	0.947500	0.586500	0.838300
H3001	H300	0.989500	0.603300	0.802200
H3011	H301	0.951800	0.562600	0.785800
C2471	C247	0.873400	0.612600	0.786300
H3021	H302	0.866300	0.601900	0.819400
H3031	H303	0.870200	0.585100	0.764100
H3041	H304	0.850800	0.638100	0.777000
C2481	C248	0.135800	0.618400	0.468800
H3051	H305	0.109500	0.597000	0.479300
H3061	H306	0.165300	0.610500	0.486800
H3071	H307	0.141500	0.613800	0.434100
C2491	C249	0.923000	0.631200	0.784100
C2501	C250	0.087400	0.698500	0.713100
H3081	H308	0.069800	0.708800	0.742000
H3091	H309	0.119400	0.713700	0.712600
H3101	H310	0.091100	0.663300	0.713400
O411	O41	0.953300	0.327100	0.920000
O421	O42	0.942100	0.314700	0.019300
C2511	C251	0.109400	0.265300	0.897400
O431	O43	0.063800	0.288800	0.824700
C2521	C252	0.948600	0.333700	0.868400
C2531	C253	0.076600	0.349500	0.942300
H3111	H311	0.067700	0.381200	0.957300
C2541	C254	0.078600	0.299200	0.871900
C2551	C255	0.982700	0.360200	0.845000
C2561	C256	0.930900	0.364900	0.946100
H3121	H312	0.897600	0.369700	0.933800
H3131	H313	0.949200	0.395300	0.940900
C2571	C257	0.122400	0.331300	0.022000
C2581	C258	0.973500	0.370100	0.795500
H3141	H314	0.996200	0.388700	0.777600
C2591	C259	0.907600	0.313500	0.846600
C2601	C260	0.107100	0.317900	0.969800
C2611	C261	0.061800	0.341600	0.896800
C2621	C262	0.120700	0.277300	0.947200
H3151	H315	0.145000	0.256500	0.964000
O441	O44	0.908300	0.391000	0.026300
C2631	C263	0.929100	0.353100	0.002300
C2641	C264	0.929600	0.352400	0.771300
C2651	C265	0.899800	0.325600	0.796700
H3161	H316	0.871600	0.313600	0.781300
C2661	C266	0.029400	0.380400	0.868300
H3171	H317	0.020200	0.406400	0.891200
H3181	H318	0.049400	0.395200	0.842600
C2671	C267	0.924100	0.315600	0.687100
H3191	H319	0.919800	0.320900	0.652300
H3201	H320	0.897900	0.295100	0.699200
H3211	H321	0.955300	0.299800	0.692900
C2681	C268	0.873000	0.282200	0.872300
H3221	H322	0.847600	0.273000	0.848800
H3231	H323	0.857200	0.302200	0.897400
C2691	C269	0.075800	0.319300	0.055500
H3241	H324	0.048700	0.340000	0.045900
H3251	H325	0.083800	0.325300	0.089500
H3261	H326	0.066700	0.285300	0.051400
C2701	C270	0.166100	0.297600	0.041800
H3271	H327	0.174500	0.307300	0.074800
H3281	H328	0.194400	0.301500	0.020800
H3291	H329	0.155900	0.263700	0.041600
C2711	C271	0.955800	0.407500	0.695600
H3301	H330	0.947500	0.413500	0.661700
H3311	H331	0.989500	0.396700	0.697800
H3321	H332	0.951800	0.437400	0.714200
C2721	C272	0.873400	0.387400	0.713700
H3331	H333	0.866300	0.398100	0.680600
H3341	H334	0.870200	0.414900	0.735900
H3351	H335	0.850800	0.361900	0.723000
C2731	C273	0.135800	0.381600	0.031200
H3361	H336	0.109500	0.403000	0.020700
H3371	H337	0.165300	0.389500	0.013200
H3381	H338	0.141500	0.386200	0.065900
C2741	C274	0.923000	0.368800	0.715900
C2751	C275	0.087400	0.301500	0.786900
H3391	H339	0.069800	0.291200	0.758000
H3401	H340	0.119400	0.286300	0.787400
H3411	H341	0.091100	0.336700	0.786600
O451	O45	0.453300	0.827100	0.420000
O461	O46	0.442100	0.814700	0.519300
C2761	C276	0.609400	0.765300	0.397400
O471	O47	0.563800	0.788800	0.324700
C2771	C277	0.448600	0.833700	0.368400
C2781	C278	0.576600	0.849500	0.442300
H3421	H342	0.567700	0.881200	0.457300
C2791	C279	0.578600	0.799200	0.371900
C2801	C280	0.482700	0.860200	0.345000
C2811	C281	0.430900	0.864900	0.446100
H3431	H343	0.397600	0.869700	0.433800
H3441	H344	0.449200	0.895300	0.440900
C2821	C282	0.622400	0.831300	0.522000
C2831	C283	0.473500	0.870100	0.295500
H3451	H345	0.496200	0.888700	0.277600
C2841	C284	0.407600	0.813500	0.346600
C2851	C285	0.607100	0.817900	0.469800
C2861	C286	0.561800	0.841600	0.396800
C2871	C287	0.620700	0.777300	0.447200
H3461	H346	0.645000	0.756500	0.464000
O481	O48	0.408300	0.891000	0.526300
C2881	C288	0.429100	0.853100	0.502300
C2891	C289	0.429600	0.852400	0.271300
C2901	C290	0.399800	0.825600	0.296700
H3471	H347	0.371600	0.813600	0.281300
C2911	C291	0.529400	0.880400	0.368300
H3481	H348	0.520200	0.906400	0.391200
H3491	H349	0.549400	0.895200	0.342600
C2921	C292	0.424100	0.815600	0.187100
H3501	H350	0.419800	0.820900	0.152300
H3511	H351	0.397900	0.795100	0.199200
H3521	H352	0.455300	0.799800	0.192900
C2931	C293	0.373000	0.782200	0.372300
H3531	H353	0.347600	0.773000	0.348800
H3541	H354	0.357200	0.802200	0.397400
C2941	C294	0.575800	0.819300	0.555500
H3551	H355	0.548700	0.840000	0.545900
H3561	H356	0.583800	0.825300	0.589500
H3571	H357	0.566700	0.785300	0.551400
C2951	C295	0.666100	0.797600	0.541800
H3581	H358	0.674500	0.807300	0.574800
H3591	H359	0.694400	0.801500	0.520800
H3601	H360	0.655900	0.763700	0.541600
C2961	C296	0.455800	0.907500	0.195600
H3611	H361	0.447500	0.913500	0.161700
H3621	H362	0.489500	0.896700	0.197800
H3631	H363	0.451800	0.937400	0.214200
C2971	C297	0.373400	0.887400	0.213700
H3641	H364	0.366300	0.898100	0.180600
H3651	H365	0.370200	0.914900	0.235900
H3661	H366	0.350800	0.861900	0.223000
C2981	C298	0.635800	0.881600	0.531200
H3671	H367	0.609500	0.903000	0.520700
H3681	H368	0.665300	0.889500	0.513200
H3691	H369	0.641500	0.886200	0.565900
C2991	C299	0.423000	0.868800	0.215900
C3001	C300	0.587400	0.801500	0.286900
H3701	H370	0.569800	0.791200	0.258000
H3711	H371	0.619400	0.786300	0.287400
H3721	H372	0.591100	0.836700	0.286600
O491	O49	0.046700	0.827100	0.580000
O501	O50	0.057900	0.814700	0.480700
C3011	C301	0.890600	0.765300	0.602600
O511	O51	0.936200	0.788800	0.675300
C3021	C302	0.051400	0.833700	0.631600
C3031	C303	0.923400	0.849500	0.557700
H3731	H373	0.932300	0.881200	0.542700
C3041	C304	0.921400	0.799200	0.628100
C3051	C305	0.017300	0.860200	0.655000
C3061	C306	0.069100	0.864900	0.553900
H3741	H374	0.102400	0.869700	0.566200
H3751	H375	0.050800	0.895300	0.559100
C3071	C307	0.877600	0.831300	0.478000
C3081	C308	0.026500	0.870100	0.704500
H3761	H376	0.003800	0.888700	0.722400
C3091	C309	0.092400	0.813500	0.653400
C3101	C310	0.892900	0.817900	0.530200
C3111	C311	0.938200	0.841600	0.603200
C3121	C312	0.879300	0.777300	0.552800
H3771	H377	0.855000	0.756500	0.536000
O521	O52	0.091700	0.891000	0.473700
C3131	C313	0.070900	0.853100	0.497700
C3141	C314	0.070400	0.852400	0.728700
C3151	C315	0.100200	0.825600	0.703300
H3781	H378	0.128400	0.813600	0.718700
C3161	C316	0.970600	0.880400	0.631700
H3791	H379	0.979800	0.906400	0.608800
H3801	H380	0.950600	0.895200	0.657400
C3171	C317	0.075900	0.815600	0.812900
H3811	H381	0.080200	0.820900	0.847700
H3821	H382	0.102100	0.795100	0.800800
H3831	H383	0.044700	0.799800	0.807100
C3181	C318	0.127000	0.782200	0.627700
H3841	H384	0.152400	0.773000	0.651200
H3851	H385	0.142800	0.802200	0.602600
C3191	C319	0.924200	0.819300	0.444500
H3861	H386	0.951300	0.840000	0.454100
H3871	H387	0.916200	0.825300	0.410500
H3881	H388	0.933300	0.785300	0.448600
C3201	C320	0.833900	0.797600	0.458200
H3891	H389	0.825500	0.807300	0.425200
H3901	H390	0.805600	0.801500	0.479200
H3911	H391	0.844100	0.763700	0.458400
C3211	C321	0.044200	0.907500	0.804400
H3921	H392	0.052500	0.913500	0.838300
H3931	H393	0.010500	0.896700	0.802200
H3941	H394	0.048200	0.937400	0.785800
C3221	C322	0.126600	0.887400	0.786300
H3951	H395	0.133700	0.898100	0.819400
H3961	H396	0.129800	0.914900	0.764100
H3971	H397	0.149200	0.861900	0.777000
C3231	C323	0.864200	0.881600	0.468800
H3981	H398	0.890500	0.903000	0.479300
H3991	H399	0.834700	0.889500	0.486800
H4001	H400	0.858500	0.886200	0.434100
C3241	C324	0.077000	0.868800	0.784100
C3251	C325	0.912600	0.801500	0.713100
H4011	H401	0.930200	0.791200	0.742000
H4021	H402	0.880600	0.786300	0.712600
H4031	H403	0.908900	0.836700	0.713400
O531	O53	0.546700	0.327100	0.080000
O541	O54	0.557900	0.314700	0.980700
C3261	C326	0.390600	0.265300	0.102600
O551	O55	0.436200	0.288800	0.175300
C3271	C327	0.551400	0.333700	0.131600
C3281	C328	0.423400	0.349500	0.057700
H4041	H404	0.432300	0.381200	0.042700
C3291	C329	0.421400	0.299200	0.128100
C3301	C330	0.517300	0.360200	0.155000
C3311	C331	0.569100	0.364900	0.053900
H4051	H405	0.602400	0.369700	0.066200
H4061	H406	0.550800	0.395300	0.059100
C3321	C332	0.377600	0.331300	0.978000
C3331	C333	0.526500	0.370100	0.204500
H4071	H407	0.503800	0.388700	0.222400
C3341	C334	0.592400	0.313500	0.153400
C3351	C335	0.392900	0.317900	0.030200
C3361	C336	0.438200	0.341600	0.103200
C3371	C337	0.379300	0.277300	0.052800
H4081	H408	0.355000	0.256500	0.036000
O561	O56	0.591700	0.391000	0.973700
C3381	C338	0.570900	0.353100	0.997700
C3391	C339	0.570400	0.352400	0.228700
C3401	C340	0.600200	0.325600	0.203300
H4091	H409	0.628400	0.313600	0.218700
C3411	C341	0.470600	0.380400	0.131700
H4101	H410	0.479800	0.406400	0.108800
H4111	H411	0.450600	0.395200	0.157400
C3421	C342	0.575900	0.315600	0.312900
H4121	H412	0.580200	0.320900	0.347700
H4131	H413	0.602100	0.295100	0.300800
H4141	H414	0.544700	0.299800	0.307100
C3431	C343	0.627000	0.282200	0.127700
H4151	H415	0.652400	0.273000	0.151200
H4161	H416	0.642800	0.302200	0.102600
C3441	C344	0.424200	0.319300	0.944500
H4171	H417	0.451300	0.340000	0.954100
H4181	H418	0.416200	0.325300	0.910500
H4191	H419	0.433300	0.285300	0.948600
C3451	C345	0.333900	0.297600	0.958200
H4201	H420	0.325500	0.307300	0.925200
H4211	H421	0.305600	0.301500	0.979200
H4221	H422	0.344100	0.263700	0.958400
C3461	C346	0.544200	0.407500	0.304400
H4231	H423	0.552500	0.413500	0.338300
H4241	H424	0.510500	0.396700	0.302200
H4251	H425	0.548200	0.437400	0.285800
C3471	C347	0.626600	0.387400	0.286300
H4261	H426	0.633700	0.398100	0.319400
H4271	H427	0.629800	0.414900	0.264100
H4281	H428	0.649200	0.361900	0.277000
C3481	C348	0.364200	0.381600	0.968800
H4291	H429	0.390500	0.403000	0.979300
H4301	H430	0.334700	0.389500	0.986800
H4311	H431	0.358500	0.386200	0.934100
C3491	C349	0.577000	0.368800	0.284100
C3501	C350	0.412600	0.301500	0.213100
H4321	H432	0.430200	0.291200	0.242000
H4331	H433	0.380600	0.286300	0.212600
H4341	H434	0.408900	0.336700	0.213400
O571	O57	0.546700	0.672900	0.420000
O581	O58	0.557900	0.685300	0.519300
C3511	C351	0.390600	0.734700	0.397400
O591	O59	0.436200	0.711200	0.324700
C3521	C352	0.551400	0.666300	0.368400
C3531	C353	0.423400	0.650500	0.442300
H4351	H435	0.432300	0.618800	0.457300
C3541	C354	0.421400	0.700800	0.371900
C3551	C355	0.517300	0.639800	0.345000
C3561	C356	0.569100	0.635100	0.446100
H4361	H436	0.602400	0.630300	0.433800
H4371	H437	0.550800	0.604700	0.440900
C3571	C357	0.377600	0.668700	0.522000
C3581	C358	0.526500	0.629900	0.295500
H4381	H438	0.503800	0.611300	0.277600
C3591	C359	0.592400	0.686500	0.346600
C3601	C360	0.392900	0.682100	0.469800
C3611	C361	0.438200	0.658400	0.396800
C3621	C362	0.379300	0.722700	0.447200
H4391	H439	0.355000	0.743500	0.464000
O601	O60	0.591700	0.609000	0.526300
C3631	C363	0.570900	0.646900	0.502300
C3641	C364	0.570400	0.647600	0.271300
C3651	C365	0.600200	0.674400	0.296700
H4401	H440	0.628400	0.686400	0.281300
C3661	C366	0.470600	0.619600	0.368300
H4411	H441	0.479800	0.593600	0.391200
H4421	H442	0.450600	0.604800	0.342600
C3671	C367	0.575900	0.684400	0.187100
H4431	H443	0.580200	0.679100	0.152300
H4441	H444	0.602100	0.704900	0.199200
H4451	H445	0.544700	0.700200	0.192900
C3681	C368	0.627000	0.717800	0.372300
H4461	H446	0.652400	0.727000	0.348800
H4471	H447	0.642800	0.697800	0.397400
C3691	C369	0.424200	0.680700	0.555500
H4481	H448	0.451300	0.660000	0.545900
H4491	H449	0.416200	0.674700	0.589500
H4501	H450	0.433300	0.714700	0.551400
C3701	C370	0.333900	0.702400	0.541800
H4511	H451	0.325500	0.692700	0.574800
H4521	H452	0.305600	0.698500	0.520800
H4531	H453	0.344100	0.736300	0.541600
C3711	C371	0.544200	0.592500	0.195600
H4541	H454	0.552500	0.586500	0.161700
H4551	H455	0.510500	0.603300	0.197800
H4561	H456	0.548200	0.562600	0.214200
C3721	C372	0.626600	0.612600	0.213700
H4571	H457	0.633700	0.601900	0.180600
H4581	H458	0.629800	0.585100	0.235900
H4591	H459	0.649200	0.638100	0.223000
C3731	C373	0.364200	0.618400	0.531200
H4601	H460	0.390500	0.597000	0.520700
H4611	H461	0.334700	0.610500	0.513200
H4621	H462	0.358500	0.613800	0.565900
C3741	C374	0.577000	0.631200	0.215900
C3751	C375	0.412600	0.698500	0.286900
H4631	H463	0.430200	0.708800	0.258000
H4641	H464	0.380600	0.713700	0.287400
H4651	H465	0.408900	0.663300	0.286600
O611	O61	0.046700	0.172900	0.920000
O621	O62	0.057900	0.185300	0.019300
C3761	C376	0.890600	0.234700	0.897400
O631	O63	0.936200	0.211200	0.824700
C3771	C377	0.051400	0.166300	0.868400
C3781	C378	0.923400	0.150500	0.942300
H4661	H466	0.932300	0.118800	0.957300
C3791	C379	0.921400	0.200800	0.871900
C3801	C380	0.017300	0.139800	0.845000
C3811	C381	0.069100	0.135100	0.946100
H4671	H467	0.102400	0.130300	0.933800
H4681	H468	0.050800	0.104700	0.940900
C3821	C382	0.877600	0.168700	0.022000
C3831	C383	0.026500	0.129900	0.795500
H4691	H469	0.003800	0.111300	0.777600
C3841	C384	0.092400	0.186500	0.846600
C3851	C385	0.892900	0.182100	0.969800
C3861	C386	0.938200	0.158400	0.896800
C3871	C387	0.879300	0.222700	0.947200
H4701	H470	0.855000	0.243500	0.964000
O641	O64	0.091700	0.109000	0.026300
C3881	C388	0.070900	0.146900	0.002300
C3891	C389	0.070400	0.147600	0.771300
C3901	C390	0.100200	0.174400	0.796700
H4711	H471	0.128400	0.186400	0.781300
C3911	C391	0.970600	0.119600	0.868300
H4721	H472	0.979800	0.093600	0.891200
H4731	H473	0.950600	0.104800	0.842600
C3921	C392	0.075900	0.184400	0.687100
H4741	H474	0.080200	0.179100	0.652300
H4751	H475	0.102100	0.204900	0.699200
H4761	H476	0.044700	0.200200	0.692900
C3931	C393	0.127000	0.217800	0.872300
H4771	H477	0.152400	0.227000	0.848800
H4781	H478	0.142800	0.197800	0.897400
C3941	C394	0.924200	0.180700	0.055500
H4791	H479	0.951300	0.160000	0.045900
H4801	H480	0.916200	0.174700	0.089500
H4811	H481	0.933300	0.214700	0.051400
C3951	C395	0.833900	0.202400	0.041800
H4821	H482	0.825500	0.192700	0.074800
H4831	H483	0.805600	0.198500	0.020800
H4841	H484	0.844100	0.236300	0.041600
C3961	C396	0.044200	0.092500	0.695600
H4851	H485	0.052500	0.086500	0.661700
H4861	H486	0.010500	0.103300	0.697800
H4871	H487	0.048200	0.062600	0.714200
C3971	C397	0.126600	0.112600	0.713700
H4881	H488	0.133700	0.101900	0.680600
H4891	H489	0.129800	0.085100	0.735900
H4901	H490	0.149200	0.138100	0.723000
C3981	C398	0.864200	0.118400	0.031200
H4911	H491	0.890500	0.097000	0.020700
H4921	H492	0.834700	0.110500	0.013200
H4931	H493	0.858500	0.113800	0.065900
C3991	C399	0.077000	0.131200	0.715900
C4001	C400	0.912600	0.198500	0.786900
H4941	H494	0.930200	0.208800	0.758000
H4951	H495	0.880600	0.213700	0.787400
H4961	H496	0.908900	0.163300	0.786600
O651	O65	0.080000	0.453300	0.172900
O661	O66	0.980700	0.442100	0.185300
C4011	C401	0.102600	0.609400	0.234700
O671	O67	0.175300	0.563800	0.211200
C4021	C402	0.131600	0.448600	0.166300
C4031	C403	0.057700	0.576600	0.150500
H4971	H497	0.042700	0.567700	0.118800
C4041	C404	0.128100	0.578600	0.200800
C4051	C405	0.155000	0.482700	0.139800
C4061	C406	0.053900	0.430900	0.135100
H4981	H498	0.066200	0.397600	0.130300
H4991	H499	0.059100	0.449200	0.104700
C4071	C407	0.978000	0.622400	0.168700
C4081	C408	0.204500	0.473500	0.129900
H5001	H500	0.222400	0.496200	0.111300
C4091	C409	0.153400	0.407600	0.186500
C4101	C410	0.030200	0.607100	0.182100
C4111	C411	0.103200	0.561800	0.158400
C4121	C412	0.052800	0.620700	0.222700
H5011	H501	0.036000	0.645000	0.243500
O681	O68	0.973700	0.408300	0.109000
C4131	C413	0.997700	0.429100	0.146900
C4141	C414	0.228700	0.429600	0.147600
C4151	C415	0.203300	0.399800	0.174400
H5021	H502	0.218700	0.371600	0.186400
C4161	C416	0.131700	0.529400	0.119600
H5031	H503	0.108800	0.520200	0.093600
H5041	H504	0.157400	0.549400	0.104800
C4171	C417	0.312900	0.424100	0.184400
H5051	H505	0.347700	0.419800	0.179100
H5061	H506	0.300800	0.397900	0.204900
H5071	H507	0.307100	0.455300	0.200200
C4181	C418	0.127700	0.373000	0.217800
H5081	H508	0.151200	0.347600	0.227000
H5091	H509	0.102600	0.357200	0.197800
C4191	C419	0.944500	0.575800	0.180700
H5101	H510	0.954100	0.548700	0.160000
H5111	H511	0.910500	0.583800	0.174700
H5121	H512	0.948600	0.566700	0.214700
C4201	C420	0.958200	0.666100	0.202400
H5131	H513	0.925200	0.674500	0.192700
H5141	H514	0.979200	0.694400	0.198500
H5151	H515	0.958400	0.655900	0.236300
C4211	C421	0.304400	0.455800	0.092500
H5161	H516	0.338300	0.447500	0.086500
H5171	H517	0.302200	0.489500	0.103300
H5181	H518	0.285800	0.451800	0.062600
C4221	C422	0.286300	0.373400	0.112600
H5191	H519	0.319400	0.366300	0.101900
H5201	H520	0.264100	0.370200	0.085100
H5211	H521	0.277000	0.350800	0.138100
C4231	C423	0.968800	0.635800	0.118400
H5221	H522	0.979300	0.609500	0.097000
H5231	H523	0.986800	0.665300	0.110500
H5241	H524	0.934100	0.641500	0.113800
C4241	C424	0.284100	0.423000	0.131200
C4251	C425	0.213100	0.587400	0.198500
H5251	H525	0.242000	0.569800	0.208800
H5261	H526	0.212600	0.619400	0.213700
H5271	H527	0.213400	0.591100	0.163300
O691	O69	0.580000	0.953300	0.672900
O701	O70	0.480700	0.942100	0.685300
C4261	C426	0.602600	0.109400	0.734700
O711	O71	0.675300	0.063800	0.711200
C4271	C427	0.631600	0.948600	0.666300
C4281	C428	0.557700	0.076600	0.650500
H5281	H528	0.542700	0.067700	0.618800
C4291	C429	0.628100	0.078600	0.700800
C4301	C430	0.655000	0.982700	0.639800
C4311	C431	0.553900	0.930900	0.635100
H5291	H529	0.566200	0.897600	0.630300
H5301	H530	0.559100	0.949200	0.604700
C4321	C432	0.478000	0.122400	0.668700
C4331	C433	0.704500	0.973500	0.629900
H5311	H531	0.722400	0.996200	0.611300
C4341	C434	0.653400	0.907600	0.686500
C4351	C435	0.530200	0.107100	0.682100
C4361	C436	0.603200	0.061800	0.658400
C4371	C437	0.552800	0.120700	0.722700
H5321	H532	0.536000	0.145000	0.743500
O721	O72	0.473700	0.908300	0.609000
C4381	C438	0.497700	0.929100	0.646900
C4391	C439	0.728700	0.929600	0.647600
C4401	C440	0.703300	0.899800	0.674400
H5331	H533	0.718700	0.871600	0.686400
C4411	C441	0.631700	0.029400	0.619600
H5341	H534	0.608800	0.020200	0.593600
H5351	H535	0.657400	0.049400	0.604800
C4421	C442	0.812900	0.924100	0.684400
H5361	H536	0.847700	0.919800	0.679100
H5371	H537	0.800800	0.897900	0.704900
H5381	H538	0.807100	0.955300	0.700200
C4431	C443	0.627700	0.873000	0.717800
H5391	H539	0.651200	0.847600	0.727000
H5401	H540	0.602600	0.857200	0.697800
C4441	C444	0.444500	0.075800	0.680700
H5411	H541	0.454100	0.048700	0.660000
H5421	H542	0.410500	0.083800	0.674700
H5431	H543	0.448600	0.066700	0.714700
C4451	C445	0.458200	0.166100	0.702400
H5441	H544	0.425200	0.174500	0.692700
H5451	H545	0.479200	0.194400	0.698500
H5461	H546	0.458400	0.155900	0.736300
C4461	C446	0.804400	0.955800	0.592500
H5471	H547	0.838300	0.947500	0.586500
H5481	H548	0.802200	0.989500	0.603300
H5491	H549	0.785800	0.951800	0.562600
C4471	C447	0.786300	0.873400	0.612600
H5501	H550	0.819400	0.866300	0.601900
H5511	H551	0.764100	0.870200	0.585100
H5521	H552	0.777000	0.850800	0.638100
C4481	C448	0.468800	0.135800	0.618400
H5531	H553	0.479300	0.109500	0.597000
H5541	H554	0.486800	0.165300	0.610500
H5551	H555	0.434100	0.141500	0.613800
C4491	C449	0.784100	0.923000	0.631200
C4501	C450	0.713100	0.087400	0.698500
H5561	H556	0.742000	0.069800	0.708800
H5571	H557	0.712600	0.119400	0.713700
H5581	H558	0.713400	0.091100	0.663300
O731	O73	0.920000	0.953300	0.327100
O741	O74	0.019300	0.942100	0.314700
C4511	C451	0.897400	0.109400	0.265300
O751	O75	0.824700	0.063800	0.288800
C4521	C452	0.868400	0.948600	0.333700
C4531	C453	0.942300	0.076600	0.349500
H5591	H559	0.957300	0.067700	0.381200
C4541	C454	0.871900	0.078600	0.299200
C4551	C455	0.845000	0.982700	0.360200
C4561	C456	0.946100	0.930900	0.364900
H5601	H560	0.933800	0.897600	0.369700
H5611	H561	0.940900	0.949200	0.395300
C4571	C457	0.022000	0.122400	0.331300
C4581	C458	0.795500	0.973500	0.370100
H5621	H562	0.777600	0.996200	0.388700
C4591	C459	0.846600	0.907600	0.313500
C4601	C460	0.969800	0.107100	0.317900
C4611	C461	0.896800	0.061800	0.341600
C4621	C462	0.947200	0.120700	0.277300
H5631	H563	0.964000	0.145000	0.256500
O761	O76	0.026300	0.908300	0.391000
C4631	C463	0.002300	0.929100	0.353100
C4641	C464	0.771300	0.929600	0.352400
C4651	C465	0.796700	0.899800	0.325600
H5641	H564	0.781300	0.871600	0.313600
C4661	C466	0.868300	0.029400	0.380400
H5651	H565	0.891200	0.020200	0.406400
H5661	H566	0.842600	0.049400	0.395200
C4671	C467	0.687100	0.924100	0.315600
H5671	H567	0.652300	0.919800	0.320900
H5681	H568	0.699200	0.897900	0.295100
H5691	H569	0.692900	0.955300	0.299800
C4681	C468	0.872300	0.873000	0.282200
H5701	H570	0.848800	0.847600	0.273000
H5711	H571	0.897400	0.857200	0.302200
C4691	C469	0.055500	0.075800	0.319300
H5721	H572	0.045900	0.048700	0.340000
H5731	H573	0.089500	0.083800	0.325300
H5741	H574	0.051400	0.066700	0.285300
C4701	C470	0.041800	0.166100	0.297600
H5751	H575	0.074800	0.174500	0.307300
H5761	H576	0.020800	0.194400	0.301500
H5771	H577	0.041600	0.155900	0.263700
C4711	C471	0.695600	0.955800	0.407500
H5781	H578	0.661700	0.947500	0.413500
H5791	H579	0.697800	0.989500	0.396700
H5801	H580	0.714200	0.951800	0.437400
C4721	C472	0.713700	0.873400	0.387400
H5811	H581	0.680600	0.866300	0.398100
H5821	H582	0.735900	0.870200	0.414900
H5831	H583	0.723000	0.850800	0.361900
C4731	C473	0.031200	0.135800	0.381600
H5841	H584	0.020700	0.109500	0.403000
H5851	H585	0.013200	0.165300	0.389500
H5861	H586	0.065900	0.141500	0.386200
C4741	C474	0.715900	0.923000	0.368800
C4751	C475	0.786900	0.087400	0.301500
H5871	H587	0.758000	0.069800	0.291200
H5881	H588	0.787400	0.119400	0.286300
H5891	H589	0.786600	0.091100	0.336700
O771	O77	0.420000	0.453300	0.827100
O781	O78	0.519300	0.442100	0.814700
C4761	C476	0.397400	0.609400	0.765300
O791	O79	0.324700	0.563800	0.788800
C4771	C477	0.368400	0.448600	0.833700
C4781	C478	0.442300	0.576600	0.849500
H5901	H590	0.457300	0.567700	0.881200
C4791	C479	0.371900	0.578600	0.799200
C4801	C480	0.345000	0.482700	0.860200
C4811	C481	0.446100	0.430900	0.864900
H5911	H591	0.433800	0.397600	0.869700
H5921	H592	0.440900	0.449200	0.895300
C4821	C482	0.522000	0.622400	0.831300
C4831	C483	0.295500	0.473500	0.870100
H5931	H593	0.277600	0.496200	0.888700
C4841	C484	0.346600	0.407600	0.813500
C4851	C485	0.469800	0.607100	0.817900
C4861	C486	0.396800	0.561800	0.841600
C4871	C487	0.447200	0.620700	0.777300
H5941	H594	0.464000	0.645000	0.756500
O801	O80	0.526300	0.408300	0.891000
C4881	C488	0.502300	0.429100	0.853100
C4891	C489	0.271300	0.429600	0.852400
C4901	C490	0.296700	0.399800	0.825600
H5951	H595	0.281300	0.371600	0.813600
C4911	C491	0.368300	0.529400	0.880400
H5961	H596	0.391200	0.520200	0.906400
H5971	H597	0.342600	0.549400	0.895200
C4921	C492	0.187100	0.424100	0.815600
H5981	H598	0.152300	0.419800	0.820900
H5991	H599	0.199200	0.397900	0.795100
H6001	H600	0.192900	0.455300	0.799800
C4931	C493	0.372300	0.373000	0.782200
H6011	H601	0.348800	0.347600	0.773000
H6021	H602	0.397400	0.357200	0.802200
C4941	C494	0.555500	0.575800	0.819300
H6031	H603	0.545900	0.548700	0.840000
H6041	H604	0.589500	0.583800	0.825300
H6051	H605	0.551400	0.566700	0.785300
C4951	C495	0.541800	0.666100	0.797600
H6061	H606	0.574800	0.674500	0.807300
H6071	H607	0.520800	0.694400	0.801500
H6081	H608	0.541600	0.655900	0.763700
C4961	C496	0.195600	0.455800	0.907500
H6091	H609	0.161700	0.447500	0.913500
H6101	H610	0.197800	0.489500	0.896700
H6111	H611	0.214200	0.451800	0.937400
C4971	C497	0.213700	0.373400	0.887400
H6121	H612	0.180600	0.366300	0.898100
H6131	H613	0.235900	0.370200	0.914900
H6141	H614	0.223000	0.350800	0.861900
C4981	C498	0.531200	0.635800	0.881600
H6151	H615	0.520700	0.609500	0.903000
H6161	H616	0.513200	0.665300	0.889500
H6171	H617	0.565900	0.641500	0.886200
C4991	C499	0.215900	0.423000	0.868800
C5001	C500	0.286900	0.587400	0.801500
H6181	H618	0.258000	0.569800	0.791200
H6191	H619	0.287400	0.619400	0.786300
H6201	H620	0.286600	0.591100	0.836700
O811	O81	0.580000	0.046700	0.827100
O821	O82	0.480700	0.057900	0.814700
C5011	C501	0.602600	0.890600	0.765300
O831	O83	0.675300	0.936200	0.788800
C5021	C502	0.631600	0.051400	0.833700
C5031	C503	0.557700	0.923400	0.849500
H6211	H621	0.542700	0.932300	0.881200
C5041	C504	0.628100	0.921400	0.799200
C5051	C505	0.655000	0.017300	0.860200
C5061	C506	0.553900	0.069100	0.864900
H6221	H622	0.566200	0.102400	0.869700
H6231	H623	0.559100	0.050800	0.895300
C5071	C507	0.478000	0.877600	0.831300
C5081	C508	0.704500	0.026500	0.870100
H6241	H624	0.722400	0.003800	0.888700
C5091	C509	0.653400	0.092400	0.813500
C5101	C510	0.530200	0.892900	0.817900
C5111	C511	0.603200	0.938200	0.841600
C5121	C512	0.552800	0.879300	0.777300
H6251	H625	0.536000	0.855000	0.756500
O841	O84	0.473700	0.091700	0.891000
C5131	C513	0.497700	0.070900	0.853100
C5141	C514	0.728700	0.070400	0.852400
C5151	C515	0.703300	0.100200	0.825600
H6261	H626	0.718700	0.128400	0.813600
C5161	C516	0.631700	0.970600	0.880400
H6271	H627	0.608800	0.979800	0.906400
H6281	H628	0.657400	0.950600	0.895200
C5171	C517	0.812900	0.075900	0.815600
H6291	H629	0.847700	0.080200	0.820900
H6301	H630	0.800800	0.102100	0.795100
H6311	H631	0.807100	0.044700	0.799800
C5181	C518	0.627700	0.127000	0.782200
H6321	H632	0.651200	0.152400	0.773000
H6331	H633	0.602600	0.142800	0.802200
C5191	C519	0.444500	0.924200	0.819300
H6341	H634	0.454100	0.951300	0.840000
H6351	H635	0.410500	0.916200	0.825300
H6361	H636	0.448600	0.933300	0.785300
C5201	C520	0.458200	0.833900	0.797600
H6371	H637	0.425200	0.825500	0.807300
H6381	H638	0.479200	0.805600	0.801500
H6391	H639	0.458400	0.844100	0.763700
C5211	C521	0.804400	0.044200	0.907500
H6401	H640	0.838300	0.052500	0.913500
H6411	H641	0.802200	0.010500	0.896700
H6421	H642	0.785800	0.048200	0.937400
C5221	C522	0.786300	0.126600	0.887400
H6431	H643	0.819400	0.133700	0.898100
H6441	H644	0.764100	0.129800	0.914900
H6451	H645	0.777000	0.149200	0.861900
C5231	C523	0.468800	0.864200	0.881600
H6461	H646	0.479300	0.890500	0.903000
H6471	H647	0.486800	0.834700	0.889500
H6481	H648	0.434100	0.858500	0.886200
C5241	C524	0.784100	0.077000	0.868800
C5251	C525	0.713100	0.912600	0.801500
H6491	H649	0.742000	0.930200	0.791200
H6501	H650	0.712600	0.880600	0.786300
H6511	H651	0.713400	0.908900	0.836700
O851	O85	0.080000	0.546700	0.327100
O861	O86	0.980700	0.557900	0.314700
C5261	C526	0.102600	0.390600	0.265300
O871	O87	0.175300	0.436200	0.288800
C5271	C527	0.131600	0.551400	0.333700
C5281	C528	0.057700	0.423400	0.349500
H6521	H652	0.042700	0.432300	0.381200
C5291	C529	0.128100	0.421400	0.299200
C5301	C530	0.155000	0.517300	0.360200
C5311	C531	0.053900	0.569100	0.364900
H6531	H653	0.066200	0.602400	0.369700
H6541	H654	0.059100	0.550800	0.395300
C5321	C532	0.978000	0.377600	0.331300
C5331	C533	0.204500	0.526500	0.370100
H6551	H655	0.222400	0.503800	0.388700
C5341	C534	0.153400	0.592400	0.313500
C5351	C535	0.030200	0.392900	0.317900
C5361	C536	0.103200	0.438200	0.341600
C5371	C537	0.052800	0.379300	0.277300
H6561	H656	0.036000	0.355000	0.256500
O881	O88	0.973700	0.591700	0.391000
C5381	C538	0.997700	0.570900	0.353100
C5391	C539	0.228700	0.570400	0.352400
C5401	C540	0.203300	0.600200	0.325600
H6571	H657	0.218700	0.628400	0.313600
C5411	C541	0.131700	0.470600	0.380400
H6581	H658	0.108800	0.479800	0.406400
H6591	H659	0.157400	0.450600	0.395200
C5421	C542	0.312900	0.575900	0.315600
H6601	H660	0.347700	0.580200	0.320900
H6611	H661	0.300800	0.602100	0.295100
H6621	H662	0.307100	0.544700	0.299800
C5431	C543	0.127700	0.627000	0.282200
H6631	H663	0.151200	0.652400	0.273000
H6641	H664	0.102600	0.642800	0.302200
C5441	C544	0.944500	0.424200	0.319300
H6651	H665	0.954100	0.451300	0.340000
H6661	H666	0.910500	0.416200	0.325300
H6671	H667	0.948600	0.433300	0.285300
C5451	C545	0.958200	0.333900	0.297600
H6681	H668	0.925200	0.325500	0.307300
H6691	H669	0.979200	0.305600	0.301500
H6701	H670	0.958400	0.344100	0.263700
C5461	C546	0.304400	0.544200	0.407500
H6711	H671	0.338300	0.552500	0.413500
H6721	H672	0.302200	0.510500	0.396700
H6731	H673	0.285800	0.548200	0.437400
C5471	C547	0.286300	0.626600	0.387400
H6741	H674	0.319400	0.633700	0.398100
H6751	H675	0.264100	0.629800	0.414900
H6761	H676	0.277000	0.649200	0.361900
C5481	C548	0.968800	0.364200	0.381600
H6771	H677	0.979300	0.390500	0.403000
H6781	H678	0.986800	0.334700	0.389500
H6791	H679	0.934100	0.358500	0.386200
C5491	C549	0.284100	0.577000	0.368800
C5501	C550	0.213100	0.412600	0.301500
H6801	H680	0.242000	0.430200	0.291200
H6811	H681	0.212600	0.380600	0.286300
H6821	H682	0.213400	0.408900	0.336700
O891	O89	0.420000	0.546700	0.672900
O901	O90	0.519300	0.557900	0.685300
C5511	C551	0.397400	0.390600	0.734700
O911	O91	0.324700	0.436200	0.711200
C5521	C552	0.368400	0.551400	0.666300
C5531	C553	0.442300	0.423400	0.650500
H6831	H683	0.457300	0.432300	0.618800
C5541	C554	0.371900	0.421400	0.700800
C5551	C555	0.345000	0.517300	0.639800
C5561	C556	0.446100	0.569100	0.635100
H6841	H684	0.433800	0.602400	0.630300
H6851	H685	0.440900	0.550800	0.604700
C5571	C557	0.522000	0.377600	0.668700
C5581	C558	0.295500	0.526500	0.629900
H6861	H686	0.277600	0.503800	0.611300
C5591	C559	0.346600	0.592400	0.686500
C5601	C560	0.469800	0.392900	0.682100
C5611	C561	0.396800	0.438200	0.658400
C5621	C562	0.447200	0.379300	0.722700
H6871	H687	0.464000	0.355000	0.743500
O921	O92	0.526300	0.591700	0.609000
C5631	C563	0.502300	0.570900	0.646900
C5641	C564	0.271300	0.570400	0.647600
C5651	C565	0.296700	0.600200	0.674400
H6881	H688	0.281300	0.628400	0.686400
C5661	C566	0.368300	0.470600	0.619600
H6891	H689	0.391200	0.479800	0.593600
H6901	H690	0.342600	0.450600	0.604800
C5671	C567	0.187100	0.575900	0.684400
H6911	H691	0.152300	0.580200	0.679100
H6921	H692	0.199200	0.602100	0.704900
H6931	H693	0.192900	0.544700	0.700200
C5681	C568	0.372300	0.627000	0.717800
H6941	H694	0.348800	0.652400	0.727000
H6951	H695	0.397400	0.642800	0.697800
C5691	C569	0.555500	0.424200	0.680700
H6961	H696	0.545900	0.451300	0.660000
H6971	H697	0.589500	0.416200	0.674700
H6981	H698	0.551400	0.433300	0.714700
C5701	C570	0.541800	0.333900	0.702400
H6991	H699	0.574800	0.325500	0.692700
H7001	H700	0.520800	0.305600	0.698500
H7011	H701	0.541600	0.344100	0.736300
C5711	C571	0.195600	0.544200	0.592500
H7021	H702	0.161700	0.552500	0.586500
H7031	H703	0.197800	0.510500	0.603300
H7041	H704	0.214200	0.548200	0.562600
C5721	C572	0.213700	0.626600	0.612600
H7051	H705	0.180600	0.633700	0.601900
H7061	H706	0.235900	0.629800	0.585100
H7071	H707	0.223000	0.649200	0.638100
C5731	C573	0.531200	0.364200	0.618400
H7081	H708	0.520700	0.390500	0.597000
H7091	H709	0.513200	0.334700	0.610500
H7101	H710	0.565900	0.358500	0.613800
C5741	C574	0.215900	0.577000	0.631200
C5751	C575	0.286900	0.412600	0.698500
H7111	H711	0.258000	0.430200	0.708800
H7121	H712	0.287400	0.380600	0.713700
H7131	H713	0.286600	0.408900	0.663300
O931	O93	0.920000	0.046700	0.172900
O941	O94	0.019300	0.057900	0.185300
C5761	C576	0.897400	0.890600	0.234700
O951	O95	0.824700	0.936200	0.211200
C5771	C577	0.868400	0.051400	0.166300
C5781	C578	0.942300	0.923400	0.150500
H7141	H714	0.957300	0.932300	0.118800
C5791	C579	0.871900	0.921400	0.200800
C5801	C580	0.845000	0.017300	0.139800
C5811	C581	0.946100	0.069100	0.135100
H7151	H715	0.933800	0.102400	0.130300
H7161	H716	0.940900	0.050800	0.104700
C5821	C582	0.022000	0.877600	0.168700
C5831	C583	0.795500	0.026500	0.129900
H7171	H717	0.777600	0.003800	0.111300
C5841	C584	0.846600	0.092400	0.186500
C5851	C585	0.969800	0.892900	0.182100
C5861	C586	0.896800	0.938200	0.158400
C5871	C587	0.947200	0.879300	0.222700
H7181	H718	0.964000	0.855000	0.243500
O961	O96	0.026300	0.091700	0.109000
C5881	C588	0.002300	0.070900	0.146900
C5891	C589	0.771300	0.070400	0.147600
C5901	C590	0.796700	0.100200	0.174400
H7191	H719	0.781300	0.128400	0.186400
C5911	C591	0.868300	0.970600	0.119600
H7201	H720	0.891200	0.979800	0.093600
H7211	H721	0.842600	0.950600	0.104800
C5921	C592	0.687100	0.075900	0.184400
H7221	H722	0.652300	0.080200	0.179100
H7231	H723	0.699200	0.102100	0.204900
H7241	H724	0.692900	0.044700	0.200200
C5931	C593	0.872300	0.127000	0.217800
H7251	H725	0.848800	0.152400	0.227000
H7261	H726	0.897400	0.142800	0.197800
C5941	C594	0.055500	0.924200	0.180700
H7271	H727	0.045900	0.951300	0.160000
H7281	H728	0.089500	0.916200	0.174700
H7291	H729	0.051400	0.933300	0.214700
C5951	C595	0.041800	0.833900	0.202400
H7301	H730	0.074800	0.825500	0.192700
H7311	H731	0.020800	0.805600	0.198500
H7321	H732	0.041600	0.844100	0.236300
C5961	C596	0.695600	0.044200	0.092500
H7331	H733	0.661700	0.052500	0.086500
H7341	H734	0.697800	0.010500	0.103300
H7351	H735	0.714200	0.048200	0.062600
C5971	C597	0.713700	0.126600	0.112600
H7361	H736	0.680600	0.133700	0.101900
H7371	H737	0.735900	0.129800	0.085100
H7381	H738	0.723000	0.149200	0.138100
C5981	C598	0.031200	0.864200	0.118400
H7391	H739	0.020700	0.890500	0.097000
H7401	H740	0.013200	0.834700	0.110500
H7411	H741	0.065900	0.858500	0.113800
C5991	C599	0.715900	0.077000	0.131200
C6001	C600	0.786900	0.912600	0.198500
H7421	H742	0.758000	0.930200	0.208800
H7431	H743	0.787400	0.880600	0.213700
H7441	H744	0.786600	0.908900	0.163300
Rb11	Rb1	0.250000	0.034010	0.500000
Rb21	Rb2	0.250000	0.965990	0.000000
Rb31	Rb3	0.750000	0.534010	0.000000
Rb41	Rb4	0.750000	0.465990	0.500000
Rb51	Rb5	0.500000	0.250000	0.034010
Rb61	Rb6	0.000000	0.250000	0.965990
Rb71	Rb7	0.000000	0.750000	0.534010
Rb81	Rb8	0.500000	0.750000	0.465990
Rb91	Rb9	0.034010	0.500000	0.250000
Rb101	Rb10	0.965990	0.000000	0.250000
Rb111	Rb11	0.534010	0.000000	0.750000
Rb121	Rb12	0.465990	0.500000	0.750000
Co11	Co1	0.100670	0.899330	0.399330
Co21	Co2	0.600670	0.399330	0.899330
Co31	Co3	0.399330	0.100670	0.899330
Co41	Co4	0.899330	0.600670	0.399330
Co51	Co5	0.899330	0.399330	0.100670
Co61	Co6	0.399330	0.899330	0.600670
Co71	Co7	0.600670	0.600670	0.600670
Co81	Co8	0.100670	0.100670	0.100670
