data_LOQSEQ_clean_PM
_symmetry_space_group_name_H-M	'P1'
_cell_length_a	24.250100
_cell_length_b	24.250100
_cell_length_c	24.250100
_cell_angle_alpha	109.458000
_cell_angle_beta	109.458000
_cell_angle_gamma	109.458000
_symmetry_Int_Tables_number 1

loop_
_symmetry_equiv_pos_as_xyz
'x,y,z'

loop_
_atom_site_label
_atom_site_type_symbol
_atom_site_fract_x
_atom_site_fract_y
_atom_site_fract_z
Pr11	Pr1	0.401590	0.350830	0.850480
Pr21	Pr2	0.850480	0.401590	0.350830
Pr31	Pr3	0.350830	0.850480	0.401590
Pr41	Pr4	0.850830	0.901590	0.350480
Pr51	Pr5	0.901590	0.350480	0.850830
Pr61	Pr6	0.350480	0.850830	0.901590
Pr71	Pr7	0.299370	0.299370	0.299370
Pr81	Pr8	0.799370	0.799370	0.799370
H11	H1	0.332100	0.471400	0.012700
H21	H2	0.382600	0.701000	0.206000
H31	H3	0.675500	0.673900	0.312500
H41	H4	0.507300	0.526400	0.378000
H51	H5	0.533500	0.666400	0.207900
H61	H6	0.463100	0.661200	0.192300
H71	H7	0.390500	0.532600	0.219800
H81	H8	0.374100	0.538000	0.154000
H91	H9	0.521300	0.627300	0.331500
H101	H10	0.499300	0.678400	0.318900
H111	H11	0.549300	0.571800	0.241700
H121	H12	0.482800	0.520100	0.172100
H131	H13	0.520600	0.695700	0.133900
H141	H14	0.557800	0.728000	0.067100
H151	H15	0.515700	0.649100	0.957400
H161	H16	0.439900	0.536000	0.915300
H171	H17	0.326500	0.355600	0.949900
H181	H18	0.395500	0.400000	0.019200
H191	H19	0.363100	0.371000	0.108500
H201	H20	0.285000	0.355300	0.145000
H211	H21	0.186400	0.352800	0.086500
H221	H22	0.168600	0.371500	0.996800
H231	H23	0.246300	0.385500	0.959400
H241	H24	0.282900	0.490000	0.165700
H251	H25	0.174400	0.461400	0.151900
H261	H26	0.150600	0.543100	0.194500
H271	H27	0.231700	0.657800	0.247100
H281	H28	0.418400	0.826600	0.284300
H291	H29	0.462700	0.809700	0.332200
H301	H30	0.564700	0.828800	0.342200
H311	H31	0.643900	0.860700	0.310900
H321	H32	0.615900	0.866000	0.212700
H331	H33	0.508500	0.845200	0.148600
H341	H34	0.429900	0.814300	0.181600
H351	H35	0.559000	0.742100	0.413300
H361	H36	0.635600	0.834800	0.521200
H371	H37	0.747100	0.894900	0.552100
H381	H38	0.777900	0.870400	0.469300
H391	H39	0.760700	0.726000	0.270900
H401	H40	0.693700	0.725900	0.232400
H411	H41	0.591200	0.593600	0.126100
H421	H42	0.564100	0.483700	0.078000
H431	H43	0.641000	0.453100	0.129500
H441	H44	0.738000	0.534400	0.230800
H451	H45	0.762200	0.645200	0.278800
H461	H46	0.511800	0.455800	0.158800
H471	H47	0.535000	0.369400	0.149400
H481	H48	0.514200	0.315600	0.209900
H491	H49	0.469100	0.349700	0.277300
H501	H50	0.376200	0.488400	0.331100
H511	H51	0.408900	0.490100	0.399600
H521	H52	0.365500	0.577400	0.335600
H531	H53	0.398500	0.691800	0.394600
H541	H54	0.488400	0.759900	0.502100
H551	H55	0.549100	0.717600	0.552400
H561	H56	0.516700	0.604700	0.493400
H571	H57	0.012700	0.332100	0.471400
H581	H58	0.206000	0.382600	0.701000
H591	H59	0.312500	0.675500	0.673900
H601	H60	0.378000	0.507300	0.526400
H611	H61	0.207900	0.533500	0.666400
H621	H62	0.192300	0.463100	0.661200
H631	H63	0.219800	0.390500	0.532600
H641	H64	0.154000	0.374100	0.538000
H651	H65	0.331500	0.521300	0.627300
H661	H66	0.318900	0.499300	0.678400
H671	H67	0.241700	0.549300	0.571800
H681	H68	0.172100	0.482800	0.520100
H691	H69	0.133900	0.520600	0.695700
H701	H70	0.067100	0.557800	0.728000
H711	H71	0.957400	0.515700	0.649100
H721	H72	0.915300	0.439900	0.536000
H731	H73	0.949900	0.326500	0.355600
H741	H74	0.019200	0.395500	0.400000
H751	H75	0.108500	0.363100	0.371000
H761	H76	0.145000	0.285000	0.355300
H771	H77	0.086500	0.186400	0.352800
H781	H78	0.996800	0.168600	0.371500
H791	H79	0.959400	0.246300	0.385500
H801	H80	0.165700	0.282900	0.490000
H811	H81	0.151900	0.174400	0.461400
H821	H82	0.194500	0.150600	0.543100
H831	H83	0.247100	0.231700	0.657800
H841	H84	0.284300	0.418400	0.826600
H851	H85	0.332200	0.462700	0.809700
H861	H86	0.342200	0.564700	0.828800
H871	H87	0.310900	0.643900	0.860700
H881	H88	0.212700	0.615900	0.866000
H891	H89	0.148600	0.508500	0.845200
H901	H90	0.181600	0.429900	0.814300
H911	H91	0.413300	0.559000	0.742100
H921	H92	0.521200	0.635600	0.834800
H931	H93	0.552100	0.747100	0.894900
H941	H94	0.469300	0.777900	0.870400
H951	H95	0.270900	0.760700	0.726000
H961	H96	0.232400	0.693700	0.725900
H971	H97	0.126100	0.591200	0.593600
H981	H98	0.078000	0.564100	0.483700
H991	H99	0.129500	0.641000	0.453100
H1001	H100	0.230800	0.738000	0.534400
H1011	H101	0.278800	0.762200	0.645200
H1021	H102	0.158800	0.511800	0.455800
H1031	H103	0.149400	0.535000	0.369400
H1041	H104	0.209900	0.514200	0.315600
H1051	H105	0.277300	0.469100	0.349700
H1061	H106	0.331100	0.376200	0.488400
H1071	H107	0.399600	0.408900	0.490100
H1081	H108	0.335600	0.365500	0.577400
H1091	H109	0.394600	0.398500	0.691800
H1101	H110	0.502100	0.488400	0.759900
H1111	H111	0.552400	0.549100	0.717600
H1121	H112	0.493400	0.516700	0.604700
H1131	H113	0.471400	0.012700	0.332100
H1141	H114	0.701000	0.206000	0.382600
H1151	H115	0.673900	0.312500	0.675500
H1161	H116	0.526400	0.378000	0.507300
H1171	H117	0.666400	0.207900	0.533500
H1181	H118	0.661200	0.192300	0.463100
H1191	H119	0.532600	0.219800	0.390500
H1201	H120	0.538000	0.154000	0.374100
H1211	H121	0.627300	0.331500	0.521300
H1221	H122	0.678400	0.318900	0.499300
H1231	H123	0.571800	0.241700	0.549300
H1241	H124	0.520100	0.172100	0.482800
H1251	H125	0.695700	0.133900	0.520600
H1261	H126	0.728000	0.067100	0.557800
H1271	H127	0.649100	0.957400	0.515700
H1281	H128	0.536000	0.915300	0.439900
H1291	H129	0.355600	0.949900	0.326500
H1301	H130	0.400000	0.019200	0.395500
H1311	H131	0.371000	0.108500	0.363100
H1321	H132	0.355300	0.145000	0.285000
H1331	H133	0.352800	0.086500	0.186400
H1341	H134	0.371500	0.996800	0.168600
H1351	H135	0.385500	0.959400	0.246300
H1361	H136	0.490000	0.165700	0.282900
H1371	H137	0.461400	0.151900	0.174400
H1381	H138	0.543100	0.194500	0.150600
H1391	H139	0.657800	0.247100	0.231700
H1401	H140	0.826600	0.284300	0.418400
H1411	H141	0.809700	0.332200	0.462700
H1421	H142	0.828800	0.342200	0.564700
H1431	H143	0.860700	0.310900	0.643900
H1441	H144	0.866000	0.212700	0.615900
H1451	H145	0.845200	0.148600	0.508500
H1461	H146	0.814300	0.181600	0.429900
H1471	H147	0.742100	0.413300	0.559000
H1481	H148	0.834800	0.521200	0.635600
H1491	H149	0.894900	0.552100	0.747100
H1501	H150	0.870400	0.469300	0.777900
H1511	H151	0.726000	0.270900	0.760700
H1521	H152	0.725900	0.232400	0.693700
H1531	H153	0.593600	0.126100	0.591200
H1541	H154	0.483700	0.078000	0.564100
H1551	H155	0.453100	0.129500	0.641000
H1561	H156	0.534400	0.230800	0.738000
H1571	H157	0.645200	0.278800	0.762200
H1581	H158	0.455800	0.158800	0.511800
H1591	H159	0.369400	0.149400	0.535000
H1601	H160	0.315600	0.209900	0.514200
H1611	H161	0.349700	0.277300	0.469100
H1621	H162	0.488400	0.331100	0.376200
H1631	H163	0.490100	0.399600	0.408900
H1641	H164	0.577400	0.335600	0.365500
H1651	H165	0.691800	0.394600	0.398500
H1661	H166	0.759900	0.502100	0.488400
H1671	H167	0.717600	0.552400	0.549100
H1681	H168	0.604700	0.493400	0.516700
H1691	H169	0.971400	0.832100	0.512700
H1701	H170	0.201000	0.882600	0.706000
H1711	H171	0.173900	0.175500	0.812500
H1721	H172	0.026400	0.007300	0.878000
H1731	H173	0.166400	0.033500	0.707900
H1741	H174	0.161200	0.963100	0.692300
H1751	H175	0.032600	0.890500	0.719800
H1761	H176	0.038000	0.874100	0.654000
H1771	H177	0.127300	0.021300	0.831500
H1781	H178	0.178400	0.999300	0.818900
H1791	H179	0.071800	0.049300	0.741700
H1801	H180	0.020100	0.982800	0.672100
H1811	H181	0.195700	0.020600	0.633900
H1821	H182	0.228000	0.057800	0.567100
H1831	H183	0.149100	0.015700	0.457400
H1841	H184	0.036000	0.939900	0.415300
H1851	H185	0.855600	0.826500	0.449900
H1861	H186	0.900000	0.895500	0.519200
H1871	H187	0.871000	0.863100	0.608500
H1881	H188	0.855300	0.785000	0.645000
H1891	H189	0.852800	0.686400	0.586500
H1901	H190	0.871500	0.668600	0.496800
H1911	H191	0.885500	0.746300	0.459400
H1921	H192	0.990000	0.782900	0.665700
H1931	H193	0.961400	0.674400	0.651900
H1941	H194	0.043100	0.650600	0.694500
H1951	H195	0.157800	0.731700	0.747100
H1961	H196	0.326600	0.918400	0.784300
H1971	H197	0.309700	0.962700	0.832200
H1981	H198	0.328800	0.064700	0.842200
H1991	H199	0.360700	0.143900	0.810900
H2001	H200	0.366000	0.115900	0.712700
H2011	H201	0.345200	0.008500	0.648600
H2021	H202	0.314300	0.929900	0.681600
H2031	H203	0.242100	0.059000	0.913300
H2041	H204	0.334800	0.135600	0.021200
H2051	H205	0.394900	0.247100	0.052100
H2061	H206	0.370400	0.277900	0.969300
H2071	H207	0.226000	0.260700	0.770900
H2081	H208	0.225900	0.193700	0.732400
H2091	H209	0.093600	0.091200	0.626100
H2101	H210	0.983700	0.064100	0.578000
H2111	H211	0.953100	0.141000	0.629500
H2121	H212	0.034400	0.238000	0.730800
H2131	H213	0.145200	0.262200	0.778800
H2141	H214	0.955800	0.011800	0.658800
H2151	H215	0.869400	0.035000	0.649400
H2161	H216	0.815600	0.014200	0.709900
H2171	H217	0.849700	0.969100	0.777300
H2181	H218	0.988400	0.876200	0.831100
H2191	H219	0.990100	0.908900	0.899600
H2201	H220	0.077400	0.865500	0.835600
H2211	H221	0.191800	0.898500	0.894600
H2221	H222	0.259900	0.988400	0.002100
H2231	H223	0.217600	0.049100	0.052400
H2241	H224	0.104700	0.016700	0.993400
H2251	H225	0.832100	0.512700	0.971400
H2261	H226	0.882600	0.706000	0.201000
H2271	H227	0.175500	0.812500	0.173900
H2281	H228	0.007300	0.878000	0.026400
H2291	H229	0.033500	0.707900	0.166400
H2301	H230	0.963100	0.692300	0.161200
H2311	H231	0.890500	0.719800	0.032600
H2321	H232	0.874100	0.654000	0.038000
H2331	H233	0.021300	0.831500	0.127300
H2341	H234	0.999300	0.818900	0.178400
H2351	H235	0.049300	0.741700	0.071800
H2361	H236	0.982800	0.672100	0.020100
H2371	H237	0.020600	0.633900	0.195700
H2381	H238	0.057800	0.567100	0.228000
H2391	H239	0.015700	0.457400	0.149100
H2401	H240	0.939900	0.415300	0.036000
H2411	H241	0.826500	0.449900	0.855600
H2421	H242	0.895500	0.519200	0.900000
H2431	H243	0.863100	0.608500	0.871000
H2441	H244	0.785000	0.645000	0.855300
H2451	H245	0.686400	0.586500	0.852800
H2461	H246	0.668600	0.496800	0.871500
H2471	H247	0.746300	0.459400	0.885500
H2481	H248	0.782900	0.665700	0.990000
H2491	H249	0.674400	0.651900	0.961400
H2501	H250	0.650600	0.694500	0.043100
H2511	H251	0.731700	0.747100	0.157800
H2521	H252	0.918400	0.784300	0.326600
H2531	H253	0.962700	0.832200	0.309700
H2541	H254	0.064700	0.842200	0.328800
H2551	H255	0.143900	0.810900	0.360700
H2561	H256	0.115900	0.712700	0.366000
H2571	H257	0.008500	0.648600	0.345200
H2581	H258	0.929900	0.681600	0.314300
H2591	H259	0.059000	0.913300	0.242100
H2601	H260	0.135600	0.021200	0.334800
H2611	H261	0.247100	0.052100	0.394900
H2621	H262	0.277900	0.969300	0.370400
H2631	H263	0.260700	0.770900	0.226000
H2641	H264	0.193700	0.732400	0.225900
H2651	H265	0.091200	0.626100	0.093600
H2661	H266	0.064100	0.578000	0.983700
H2671	H267	0.141000	0.629500	0.953100
H2681	H268	0.238000	0.730800	0.034400
H2691	H269	0.262200	0.778800	0.145200
H2701	H270	0.011800	0.658800	0.955800
H2711	H271	0.035000	0.649400	0.869400
H2721	H272	0.014200	0.709900	0.815600
H2731	H273	0.969100	0.777300	0.849700
H2741	H274	0.876200	0.831100	0.988400
H2751	H275	0.908900	0.899600	0.990100
H2761	H276	0.865500	0.835600	0.077400
H2771	H277	0.898500	0.894600	0.191800
H2781	H278	0.988400	0.002100	0.259900
H2791	H279	0.049100	0.052400	0.217600
H2801	H280	0.016700	0.993400	0.104700
H2811	H281	0.512700	0.971400	0.832100
H2821	H282	0.706000	0.201000	0.882600
H2831	H283	0.812500	0.173900	0.175500
H2841	H284	0.878000	0.026400	0.007300
H2851	H285	0.707900	0.166400	0.033500
H2861	H286	0.692300	0.161200	0.963100
H2871	H287	0.719800	0.032600	0.890500
H2881	H288	0.654000	0.038000	0.874100
H2891	H289	0.831500	0.127300	0.021300
H2901	H290	0.818900	0.178400	0.999300
H2911	H291	0.741700	0.071800	0.049300
H2921	H292	0.672100	0.020100	0.982800
H2931	H293	0.633900	0.195700	0.020600
H2941	H294	0.567100	0.228000	0.057800
H2951	H295	0.457400	0.149100	0.015700
H2961	H296	0.415300	0.036000	0.939900
H2971	H297	0.449900	0.855600	0.826500
H2981	H298	0.519200	0.900000	0.895500
H2991	H299	0.608500	0.871000	0.863100
H3001	H300	0.645000	0.855300	0.785000
H3011	H301	0.586500	0.852800	0.686400
H3021	H302	0.496800	0.871500	0.668600
H3031	H303	0.459400	0.885500	0.746300
H3041	H304	0.665700	0.990000	0.782900
H3051	H305	0.651900	0.961400	0.674400
H3061	H306	0.694500	0.043100	0.650600
H3071	H307	0.747100	0.157800	0.731700
H3081	H308	0.784300	0.326600	0.918400
H3091	H309	0.832200	0.309700	0.962700
H3101	H310	0.842200	0.328800	0.064700
H3111	H311	0.810900	0.360700	0.143900
H3121	H312	0.712700	0.366000	0.115900
H3131	H313	0.648600	0.345200	0.008500
H3141	H314	0.681600	0.314300	0.929900
H3151	H315	0.913300	0.242100	0.059000
H3161	H316	0.021200	0.334800	0.135600
H3171	H317	0.052100	0.394900	0.247100
H3181	H318	0.969300	0.370400	0.277900
H3191	H319	0.770900	0.226000	0.260700
H3201	H320	0.732400	0.225900	0.193700
H3211	H321	0.626100	0.093600	0.091200
H3221	H322	0.578000	0.983700	0.064100
H3231	H323	0.629500	0.953100	0.141000
H3241	H324	0.730800	0.034400	0.238000
H3251	H325	0.778800	0.145200	0.262200
H3261	H326	0.658800	0.955800	0.011800
H3271	H327	0.649400	0.869400	0.035000
H3281	H328	0.709900	0.815600	0.014200
H3291	H329	0.777300	0.849700	0.969100
H3301	H330	0.831100	0.988400	0.876200
H3311	H331	0.899600	0.990100	0.908900
H3321	H332	0.835600	0.077400	0.865500
H3331	H333	0.894600	0.191800	0.898500
H3341	H334	0.002100	0.259900	0.988400
H3351	H335	0.052400	0.217600	0.049100
H3361	H336	0.993400	0.104700	0.016700
C11	C1	0.479200	0.600700	0.227100
C21	C2	0.486200	0.635200	0.188900
C31	C3	0.400400	0.563600	0.202900
C41	C4	0.520100	0.651800	0.307000
C51	C5	0.500400	0.549200	0.219600
C61	C6	0.389500	0.479300	0.971700
C71	C7	0.436800	0.550300	0.000400
C81	C8	0.460400	0.596600	0.064900
C91	C9	0.505000	0.663600	0.090100
C101	C10	0.526700	0.683100	0.049800
C111	C11	0.502100	0.636200	0.984800
C121	C12	0.456500	0.568300	0.959400
C131	C13	0.350500	0.392800	0.995800
C141	C14	0.312800	0.380600	0.032500
C151	C15	0.323700	0.371100	0.086000
C161	C16	0.276900	0.361200	0.107600
C171	C17	0.218700	0.360500	0.073200
C181	C18	0.207600	0.370700	0.018900
C191	C19	0.254200	0.380000	0.996900
C201	C20	0.353700	0.715700	0.276000
C211	C21	0.305200	0.641000	0.239600
C221	C22	0.318900	0.591500	0.215100
C231	C23	0.272100	0.523000	0.181900
C241	C24	0.207400	0.506500	0.174300
C251	C25	0.193100	0.555000	0.198900
C261	C26	0.242200	0.624400	0.231600
C271	C27	0.440100	0.799700	0.285900
C281	C28	0.490100	0.818800	0.265400
C291	C29	0.553300	0.832200	0.303400
C301	C30	0.600200	0.850600	0.284300
C311	C31	0.583800	0.854600	0.225900
C321	C32	0.519900	0.841700	0.187500
C331	C33	0.473300	0.823600	0.207500
C341	C34	0.726100	0.773600	0.358700
C351	C35	0.689700	0.786600	0.396800
C361	C36	0.626600	0.743000	0.382600
C371	C37	0.604500	0.765100	0.426400
C381	C38	0.650100	0.822200	0.490500
C391	C39	0.715600	0.859300	0.508200
C401	C40	0.734600	0.842900	0.459400
C411	C41	0.712500	0.704500	0.254500
C421	C42	0.678200	0.629500	0.206900
C431	C43	0.620600	0.581100	0.147300
C441	C44	0.604500	0.516000	0.118100
C451	C45	0.650200	0.497600	0.149300
C461	C46	0.708000	0.546100	0.209200
C471	C47	0.722500	0.612400	0.238200
C481	C48	0.438500	0.431700	0.307500
C491	C49	0.465700	0.423300	0.259300
C501	C50	0.478400	0.455200	0.223400
C511	C51	0.503700	0.434300	0.183000
C521	C52	0.517600	0.382600	0.177000
C531	C53	0.505000	0.350400	0.212800
C541	C54	0.478300	0.371400	0.253600
C551	C55	0.418100	0.510400	0.373100
C561	C56	0.438300	0.582100	0.409900
C571	C57	0.402400	0.605800	0.379200
C581	C58	0.422100	0.674200	0.414700
C591	C59	0.475900	0.714700	0.478500
C601	C60	0.512200	0.689500	0.508800
C611	C61	0.492900	0.622300	0.473800
C621	C62	0.227100	0.479200	0.600700
C631	C63	0.188900	0.486200	0.635200
C641	C64	0.202900	0.400400	0.563600
C651	C65	0.307000	0.520100	0.651800
C661	C66	0.219600	0.500400	0.549200
C671	C67	0.971700	0.389500	0.479300
C681	C68	0.000400	0.436800	0.550300
C691	C69	0.064900	0.460400	0.596600
C701	C70	0.090100	0.505000	0.663600
C711	C71	0.049800	0.526700	0.683100
C721	C72	0.984800	0.502100	0.636200
C731	C73	0.959400	0.456500	0.568300
C741	C74	0.995800	0.350500	0.392800
C751	C75	0.032500	0.312800	0.380600
C761	C76	0.086000	0.323700	0.371100
C771	C77	0.107600	0.276900	0.361200
C781	C78	0.073200	0.218700	0.360500
C791	C79	0.018900	0.207600	0.370700
C801	C80	0.996900	0.254200	0.380000
C811	C81	0.276000	0.353700	0.715700
C821	C82	0.239600	0.305200	0.641000
C831	C83	0.215100	0.318900	0.591500
C841	C84	0.181900	0.272100	0.523000
C851	C85	0.174300	0.207400	0.506500
C861	C86	0.198900	0.193100	0.555000
C871	C87	0.231600	0.242200	0.624400
C881	C88	0.285900	0.440100	0.799700
C891	C89	0.265400	0.490100	0.818800
C901	C90	0.303400	0.553300	0.832200
C911	C91	0.284300	0.600200	0.850600
C921	C92	0.225900	0.583800	0.854600
C931	C93	0.187500	0.519900	0.841700
C941	C94	0.207500	0.473300	0.823600
C951	C95	0.358700	0.726100	0.773600
C961	C96	0.396800	0.689700	0.786600
C971	C97	0.382600	0.626600	0.743000
C981	C98	0.426400	0.604500	0.765100
C991	C99	0.490500	0.650100	0.822200
C1001	C100	0.508200	0.715600	0.859300
C1011	C101	0.459400	0.734600	0.842900
C1021	C102	0.254500	0.712500	0.704500
C1031	C103	0.206900	0.678200	0.629500
C1041	C104	0.147300	0.620600	0.581100
C1051	C105	0.118100	0.604500	0.516000
C1061	C106	0.149300	0.650200	0.497600
C1071	C107	0.209200	0.708000	0.546100
C1081	C108	0.238200	0.722500	0.612400
C1091	C109	0.307500	0.438500	0.431700
C1101	C110	0.259300	0.465700	0.423300
C1111	C111	0.223400	0.478400	0.455200
C1121	C112	0.183000	0.503700	0.434300
C1131	C113	0.177000	0.517600	0.382600
C1141	C114	0.212800	0.505000	0.350400
C1151	C115	0.253600	0.478300	0.371400
C1161	C116	0.373100	0.418100	0.510400
C1171	C117	0.409900	0.438300	0.582100
C1181	C118	0.379200	0.402400	0.605800
C1191	C119	0.414700	0.422100	0.674200
C1201	C120	0.478500	0.475900	0.714700
C1211	C121	0.508800	0.512200	0.689500
C1221	C122	0.473800	0.492900	0.622300
C1231	C123	0.600700	0.227100	0.479200
C1241	C124	0.635200	0.188900	0.486200
C1251	C125	0.563600	0.202900	0.400400
C1261	C126	0.651800	0.307000	0.520100
C1271	C127	0.549200	0.219600	0.500400
C1281	C128	0.479300	0.971700	0.389500
C1291	C129	0.550300	0.000400	0.436800
C1301	C130	0.596600	0.064900	0.460400
C1311	C131	0.663600	0.090100	0.505000
C1321	C132	0.683100	0.049800	0.526700
C1331	C133	0.636200	0.984800	0.502100
C1341	C134	0.568300	0.959400	0.456500
C1351	C135	0.392800	0.995800	0.350500
C1361	C136	0.380600	0.032500	0.312800
C1371	C137	0.371100	0.086000	0.323700
C1381	C138	0.361200	0.107600	0.276900
C1391	C139	0.360500	0.073200	0.218700
C1401	C140	0.370700	0.018900	0.207600
C1411	C141	0.380000	0.996900	0.254200
C1421	C142	0.715700	0.276000	0.353700
C1431	C143	0.641000	0.239600	0.305200
C1441	C144	0.591500	0.215100	0.318900
C1451	C145	0.523000	0.181900	0.272100
C1461	C146	0.506500	0.174300	0.207400
C1471	C147	0.555000	0.198900	0.193100
C1481	C148	0.624400	0.231600	0.242200
C1491	C149	0.799700	0.285900	0.440100
C1501	C150	0.818800	0.265400	0.490100
C1511	C151	0.832200	0.303400	0.553300
C1521	C152	0.850600	0.284300	0.600200
C1531	C153	0.854600	0.225900	0.583800
C1541	C154	0.841700	0.187500	0.519900
C1551	C155	0.823600	0.207500	0.473300
C1561	C156	0.773600	0.358700	0.726100
C1571	C157	0.786600	0.396800	0.689700
C1581	C158	0.743000	0.382600	0.626600
C1591	C159	0.765100	0.426400	0.604500
C1601	C160	0.822200	0.490500	0.650100
C1611	C161	0.859300	0.508200	0.715600
C1621	C162	0.842900	0.459400	0.734600
C1631	C163	0.704500	0.254500	0.712500
C1641	C164	0.629500	0.206900	0.678200
C1651	C165	0.581100	0.147300	0.620600
C1661	C166	0.516000	0.118100	0.604500
C1671	C167	0.497600	0.149300	0.650200
C1681	C168	0.546100	0.209200	0.708000
C1691	C169	0.612400	0.238200	0.722500
C1701	C170	0.431700	0.307500	0.438500
C1711	C171	0.423300	0.259300	0.465700
C1721	C172	0.455200	0.223400	0.478400
C1731	C173	0.434300	0.183000	0.503700
C1741	C174	0.382600	0.177000	0.517600
C1751	C175	0.350400	0.212800	0.505000
C1761	C176	0.371400	0.253600	0.478300
C1771	C177	0.510400	0.373100	0.418100
C1781	C178	0.582100	0.409900	0.438300
C1791	C179	0.605800	0.379200	0.402400
C1801	C180	0.674200	0.414700	0.422100
C1811	C181	0.714700	0.478500	0.475900
C1821	C182	0.689500	0.508800	0.512200
C1831	C183	0.622300	0.473800	0.492900
C1841	C184	0.100700	0.979200	0.727100
C1851	C185	0.135200	0.986200	0.688900
C1861	C186	0.063600	0.900400	0.702900
C1871	C187	0.151800	0.020100	0.807000
C1881	C188	0.049200	0.000400	0.719600
C1891	C189	0.979300	0.889500	0.471700
C1901	C190	0.050300	0.936800	0.500400
C1911	C191	0.096600	0.960400	0.564900
C1921	C192	0.163600	0.005000	0.590100
C1931	C193	0.183100	0.026700	0.549800
C1941	C194	0.136200	0.002100	0.484800
C1951	C195	0.068300	0.956500	0.459400
C1961	C196	0.892800	0.850500	0.495800
C1971	C197	0.880600	0.812800	0.532500
C1981	C198	0.871100	0.823700	0.586000
C1991	C199	0.861200	0.776900	0.607600
C2001	C200	0.860500	0.718700	0.573200
C2011	C201	0.870700	0.707600	0.518900
C2021	C202	0.880000	0.754200	0.496900
C2031	C203	0.215700	0.853700	0.776000
C2041	C204	0.141000	0.805200	0.739600
C2051	C205	0.091500	0.818900	0.715100
C2061	C206	0.023000	0.772100	0.681900
C2071	C207	0.006500	0.707400	0.674300
C2081	C208	0.055000	0.693100	0.698900
C2091	C209	0.124400	0.742200	0.731600
C2101	C210	0.299700	0.940100	0.785900
C2111	C211	0.318800	0.990100	0.765400
C2121	C212	0.332200	0.053300	0.803400
C2131	C213	0.350600	0.100200	0.784300
C2141	C214	0.354600	0.083800	0.725900
C2151	C215	0.341700	0.019900	0.687500
C2161	C216	0.323600	0.973300	0.707500
C2171	C217	0.273600	0.226100	0.858700
C2181	C218	0.286600	0.189700	0.896800
C2191	C219	0.243000	0.126600	0.882600
C2201	C220	0.265100	0.104500	0.926400
C2211	C221	0.322200	0.150100	0.990500
C2221	C222	0.359300	0.215600	0.008200
C2231	C223	0.342900	0.234600	0.959400
C2241	C224	0.204500	0.212500	0.754500
C2251	C225	0.129500	0.178200	0.706900
C2261	C226	0.081100	0.120600	0.647300
C2271	C227	0.016000	0.104500	0.618100
C2281	C228	0.997600	0.150200	0.649300
C2291	C229	0.046100	0.208000	0.709200
C2301	C230	0.112400	0.222500	0.738200
C2311	C231	0.931700	0.938500	0.807500
C2321	C232	0.923300	0.965700	0.759300
C2331	C233	0.955200	0.978400	0.723400
C2341	C234	0.934300	0.003700	0.683000
C2351	C235	0.882600	0.017600	0.677000
C2361	C236	0.850400	0.005000	0.712800
C2371	C237	0.871400	0.978300	0.753600
C2381	C238	0.010400	0.918100	0.873100
C2391	C239	0.082100	0.938300	0.909900
C2401	C240	0.105800	0.902400	0.879200
C2411	C241	0.174200	0.922100	0.914700
C2421	C242	0.214700	0.975900	0.978500
C2431	C243	0.189500	0.012200	0.008800
C2441	C244	0.122300	0.992900	0.973800
C2451	C245	0.979200	0.727100	0.100700
C2461	C246	0.986200	0.688900	0.135200
C2471	C247	0.900400	0.702900	0.063600
C2481	C248	0.020100	0.807000	0.151800
C2491	C249	0.000400	0.719600	0.049200
C2501	C250	0.889500	0.471700	0.979300
C2511	C251	0.936800	0.500400	0.050300
C2521	C252	0.960400	0.564900	0.096600
C2531	C253	0.005000	0.590100	0.163600
C2541	C254	0.026700	0.549800	0.183100
C2551	C255	0.002100	0.484800	0.136200
C2561	C256	0.956500	0.459400	0.068300
C2571	C257	0.850500	0.495800	0.892800
C2581	C258	0.812800	0.532500	0.880600
C2591	C259	0.823700	0.586000	0.871100
C2601	C260	0.776900	0.607600	0.861200
C2611	C261	0.718700	0.573200	0.860500
C2621	C262	0.707600	0.518900	0.870700
C2631	C263	0.754200	0.496900	0.880000
C2641	C264	0.853700	0.776000	0.215700
C2651	C265	0.805200	0.739600	0.141000
C2661	C266	0.818900	0.715100	0.091500
C2671	C267	0.772100	0.681900	0.023000
C2681	C268	0.707400	0.674300	0.006500
C2691	C269	0.693100	0.698900	0.055000
C2701	C270	0.742200	0.731600	0.124400
C2711	C271	0.940100	0.785900	0.299700
C2721	C272	0.990100	0.765400	0.318800
C2731	C273	0.053300	0.803400	0.332200
C2741	C274	0.100200	0.784300	0.350600
C2751	C275	0.083800	0.725900	0.354600
C2761	C276	0.019900	0.687500	0.341700
C2771	C277	0.973300	0.707500	0.323600
C2781	C278	0.226100	0.858700	0.273600
C2791	C279	0.189700	0.896800	0.286600
C2801	C280	0.126600	0.882600	0.243000
C2811	C281	0.104500	0.926400	0.265100
C2821	C282	0.150100	0.990500	0.322200
C2831	C283	0.215600	0.008200	0.359300
C2841	C284	0.234600	0.959400	0.342900
C2851	C285	0.212500	0.754500	0.204500
C2861	C286	0.178200	0.706900	0.129500
C2871	C287	0.120600	0.647300	0.081100
C2881	C288	0.104500	0.618100	0.016000
C2891	C289	0.150200	0.649300	0.997600
C2901	C290	0.208000	0.709200	0.046100
C2911	C291	0.222500	0.738200	0.112400
C2921	C292	0.938500	0.807500	0.931700
C2931	C293	0.965700	0.759300	0.923300
C2941	C294	0.978400	0.723400	0.955200
C2951	C295	0.003700	0.683000	0.934300
C2961	C296	0.017600	0.677000	0.882600
C2971	C297	0.005000	0.712800	0.850400
C2981	C298	0.978300	0.753600	0.871400
C2991	C299	0.918100	0.873100	0.010400
C3001	C300	0.938300	0.909900	0.082100
C3011	C301	0.902400	0.879200	0.105800
C3021	C302	0.922100	0.914700	0.174200
C3031	C303	0.975900	0.978500	0.214700
C3041	C304	0.012200	0.008800	0.189500
C3051	C305	0.992900	0.973800	0.122300
C3061	C306	0.727100	0.100700	0.979200
C3071	C307	0.688900	0.135200	0.986200
C3081	C308	0.702900	0.063600	0.900400
C3091	C309	0.807000	0.151800	0.020100
C3101	C310	0.719600	0.049200	0.000400
C3111	C311	0.471700	0.979300	0.889500
C3121	C312	0.500400	0.050300	0.936800
C3131	C313	0.564900	0.096600	0.960400
C3141	C314	0.590100	0.163600	0.005000
C3151	C315	0.549800	0.183100	0.026700
C3161	C316	0.484800	0.136200	0.002100
C3171	C317	0.459400	0.068300	0.956500
C3181	C318	0.495800	0.892800	0.850500
C3191	C319	0.532500	0.880600	0.812800
C3201	C320	0.586000	0.871100	0.823700
C3211	C321	0.607600	0.861200	0.776900
C3221	C322	0.573200	0.860500	0.718700
C3231	C323	0.518900	0.870700	0.707600
C3241	C324	0.496900	0.880000	0.754200
C3251	C325	0.776000	0.215700	0.853700
C3261	C326	0.739600	0.141000	0.805200
C3271	C327	0.715100	0.091500	0.818900
C3281	C328	0.681900	0.023000	0.772100
C3291	C329	0.674300	0.006500	0.707400
C3301	C330	0.698900	0.055000	0.693100
C3311	C331	0.731600	0.124400	0.742200
C3321	C332	0.785900	0.299700	0.940100
C3331	C333	0.765400	0.318800	0.990100
C3341	C334	0.803400	0.332200	0.053300
C3351	C335	0.784300	0.350600	0.100200
C3361	C336	0.725900	0.354600	0.083800
C3371	C337	0.687500	0.341700	0.019900
C3381	C338	0.707500	0.323600	0.973300
C3391	C339	0.858700	0.273600	0.226100
C3401	C340	0.896800	0.286600	0.189700
C3411	C341	0.882600	0.243000	0.126600
C3421	C342	0.926400	0.265100	0.104500
C3431	C343	0.990500	0.322200	0.150100
C3441	C344	0.008200	0.359300	0.215600
C3451	C345	0.959400	0.342900	0.234600
C3461	C346	0.754500	0.204500	0.212500
C3471	C347	0.706900	0.129500	0.178200
C3481	C348	0.647300	0.081100	0.120600
C3491	C349	0.618100	0.016000	0.104500
C3501	C350	0.649300	0.997600	0.150200
C3511	C351	0.709200	0.046100	0.208000
C3521	C352	0.738200	0.112400	0.222500
C3531	C353	0.807500	0.931700	0.938500
C3541	C354	0.759300	0.923300	0.965700
C3551	C355	0.723400	0.955200	0.978400
C3561	C356	0.683000	0.934300	0.003700
C3571	C357	0.677000	0.882600	0.017600
C3581	C358	0.712800	0.850400	0.005000
C3591	C359	0.753600	0.871400	0.978300
C3601	C360	0.873100	0.010400	0.918100
C3611	C361	0.909900	0.082100	0.938300
C3621	C362	0.879200	0.105800	0.902400
C3631	C363	0.914700	0.174200	0.922100
C3641	C364	0.978500	0.214700	0.975900
C3651	C365	0.008800	0.189500	0.012200
C3661	C366	0.973800	0.122300	0.992900
N11	N1	0.352600	0.453300	0.997100
N21	N2	0.389400	0.729100	0.243700
N31	N3	0.698300	0.708400	0.310700
N41	N4	0.465300	0.496400	0.357600
N51	N5	0.511200	0.464500	0.876200
N61	N6	0.391300	0.254700	0.736100
N71	N7	0.487200	0.339100	0.949100
N81	N8	0.204800	0.305600	0.212200
N91	N9	0.997100	0.352600	0.453300
N101	N10	0.243700	0.389400	0.729100
N111	N11	0.310700	0.698300	0.708400
N121	N12	0.357600	0.465300	0.496400
N131	N13	0.876200	0.511200	0.464500
N141	N14	0.736100	0.391300	0.254700
N151	N15	0.949100	0.487200	0.339100
N161	N16	0.212200	0.204800	0.305600
N171	N17	0.453300	0.997100	0.352600
N181	N18	0.729100	0.243700	0.389400
N191	N19	0.708400	0.310700	0.698300
N201	N20	0.496400	0.357600	0.465300
N211	N21	0.464500	0.876200	0.511200
N221	N22	0.254700	0.736100	0.391300
N231	N23	0.339100	0.949100	0.487200
N241	N24	0.305600	0.212200	0.204800
N251	N25	0.953300	0.852600	0.497100
N261	N26	0.229100	0.889400	0.743700
N271	N27	0.208400	0.198300	0.810700
N281	N28	0.996400	0.965300	0.857600
N291	N29	0.964500	0.011200	0.376200
N301	N30	0.754700	0.891300	0.236100
N311	N31	0.839100	0.987200	0.449100
N321	N32	0.805600	0.704800	0.712200
N331	N33	0.852600	0.497100	0.953300
N341	N34	0.889400	0.743700	0.229100
N351	N35	0.198300	0.810700	0.208400
N361	N36	0.965300	0.857600	0.996400
N371	N37	0.011200	0.376200	0.964500
N381	N38	0.891300	0.236100	0.754700
N391	N39	0.987200	0.449100	0.839100
N401	N40	0.704800	0.712200	0.805600
N411	N41	0.497100	0.953300	0.852600
N421	N42	0.743700	0.229100	0.889400
N431	N43	0.810700	0.208400	0.198300
N441	N44	0.857600	0.996400	0.965300
N451	N45	0.376200	0.964500	0.011200
N461	N46	0.236100	0.754700	0.891300
N471	N47	0.449100	0.839100	0.987200
N481	N48	0.712200	0.805600	0.704800
O11	O1	0.458500	0.588500	0.119600
O21	O2	0.383600	0.613300	0.228200
O31	O3	0.586800	0.694200	0.322100
O41	O4	0.479100	0.509100	0.246500
O51	O5	0.388800	0.426500	0.924700
O61	O6	0.343500	0.768300	0.307100
O71	O7	0.780400	0.816800	0.358400
O81	O8	0.391000	0.388500	0.313900
O91	O9	0.520700	0.432000	0.904300
O101	O10	0.451700	0.452700	0.841300
O111	O11	0.557600	0.524000	0.899900
O121	O12	0.341200	0.230700	0.742400
O131	O13	0.426500	0.318100	0.760500
O141	O14	0.396600	0.212900	0.693700
O151	O15	0.469200	0.308900	0.889000
O161	O16	0.462100	0.371400	0.972800
O171	O17	0.520100	0.322400	0.987800
O181	O18	0.261500	0.355400	0.246700
O191	O19	0.190000	0.262700	0.232100
O201	O20	0.158900	0.315600	0.181800
O211	O21	0.119600	0.458500	0.588500
O221	O22	0.228200	0.383600	0.613300
O231	O23	0.322100	0.586800	0.694200
O241	O24	0.246500	0.479100	0.509100
O251	O25	0.924700	0.388800	0.426500
O261	O26	0.307100	0.343500	0.768300
O271	O27	0.358400	0.780400	0.816800
O281	O28	0.313900	0.391000	0.388500
O291	O29	0.904300	0.520700	0.432000
O301	O30	0.841300	0.451700	0.452700
O311	O31	0.899900	0.557600	0.524000
O321	O32	0.742400	0.341200	0.230700
O331	O33	0.760500	0.426500	0.318100
O341	O34	0.693700	0.396600	0.212900
O351	O35	0.889000	0.469200	0.308900
O361	O36	0.972800	0.462100	0.371400
O371	O37	0.987800	0.520100	0.322400
O381	O38	0.246700	0.261500	0.355400
O391	O39	0.232100	0.190000	0.262700
O401	O40	0.181800	0.158900	0.315600
O411	O41	0.588500	0.119600	0.458500
O421	O42	0.613300	0.228200	0.383600
O431	O43	0.694200	0.322100	0.586800
O441	O44	0.509100	0.246500	0.479100
O451	O45	0.426500	0.924700	0.388800
O461	O46	0.768300	0.307100	0.343500
O471	O47	0.816800	0.358400	0.780400
O481	O48	0.388500	0.313900	0.391000
O491	O49	0.432000	0.904300	0.520700
O501	O50	0.452700	0.841300	0.451700
O511	O51	0.524000	0.899900	0.557600
O521	O52	0.230700	0.742400	0.341200
O531	O53	0.318100	0.760500	0.426500
O541	O54	0.212900	0.693700	0.396600
O551	O55	0.308900	0.889000	0.469200
O561	O56	0.371400	0.972800	0.462100
O571	O57	0.322400	0.987800	0.520100
O581	O58	0.355400	0.246700	0.261500
O591	O59	0.262700	0.232100	0.190000
O601	O60	0.315600	0.181800	0.158900
O611	O61	0.088500	0.958500	0.619600
O621	O62	0.113300	0.883600	0.728200
O631	O63	0.194200	0.086800	0.822100
O641	O64	0.009100	0.979100	0.746500
O651	O65	0.926500	0.888800	0.424700
O661	O66	0.268300	0.843500	0.807100
O671	O67	0.316800	0.280400	0.858400
O681	O68	0.888500	0.891000	0.813900
O691	O69	0.932000	0.020700	0.404300
O701	O70	0.952700	0.951700	0.341300
O711	O71	0.024000	0.057600	0.399900
O721	O72	0.730700	0.841200	0.242400
O731	O73	0.818100	0.926500	0.260500
O741	O74	0.712900	0.896600	0.193700
O751	O75	0.808900	0.969200	0.389000
O761	O76	0.871400	0.962100	0.472800
O771	O77	0.822400	0.020100	0.487800
O781	O78	0.855400	0.761500	0.746700
O791	O79	0.762700	0.690000	0.732100
O801	O80	0.815600	0.658900	0.681800
O811	O81	0.958500	0.619600	0.088500
O821	O82	0.883600	0.728200	0.113300
O831	O83	0.086800	0.822100	0.194200
O841	O84	0.979100	0.746500	0.009100
O851	O85	0.888800	0.424700	0.926500
O861	O86	0.843500	0.807100	0.268300
O871	O87	0.280400	0.858400	0.316800
O881	O88	0.891000	0.813900	0.888500
O891	O89	0.020700	0.404300	0.932000
O901	O90	0.951700	0.341300	0.952700
O911	O91	0.057600	0.399900	0.024000
O921	O92	0.841200	0.242400	0.730700
O931	O93	0.926500	0.260500	0.818100
O941	O94	0.896600	0.193700	0.712900
O951	O95	0.969200	0.389000	0.808900
O961	O96	0.962100	0.472800	0.871400
O971	O97	0.020100	0.487800	0.822400
O981	O98	0.761500	0.746700	0.855400
O991	O99	0.690000	0.732100	0.762700
O1001	O100	0.658900	0.681800	0.815600
O1011	O101	0.619600	0.088500	0.958500
O1021	O102	0.728200	0.113300	0.883600
O1031	O103	0.822100	0.194200	0.086800
O1041	O104	0.746500	0.009100	0.979100
O1051	O105	0.424700	0.926500	0.888800
O1061	O106	0.807100	0.268300	0.843500
O1071	O107	0.858400	0.316800	0.280400
O1081	O108	0.813900	0.888500	0.891000
O1091	O109	0.404300	0.932000	0.020700
O1101	O110	0.341300	0.952700	0.951700
O1111	O111	0.399900	0.024000	0.057600
O1121	O112	0.242400	0.730700	0.841200
O1131	O113	0.260500	0.818100	0.926500
O1141	O114	0.193700	0.712900	0.896600
O1151	O115	0.389000	0.808900	0.969200
O1161	O116	0.472800	0.871400	0.962100
O1171	O117	0.487800	0.822400	0.020100
O1181	O118	0.746700	0.855400	0.761500
O1191	O119	0.732100	0.762700	0.690000
O1201	O120	0.681800	0.815600	0.658900
