data_LORKEK_clean_PM
_symmetry_space_group_name_H-M	'P1'
_cell_length_a	10.063000
_cell_length_b	13.029600
_cell_length_c	16.837300
_cell_angle_alpha	90.000000
_cell_angle_beta	90.000000
_cell_angle_gamma	109.821000
_symmetry_Int_Tables_number 1

loop_
_symmetry_equiv_pos_as_xyz
'x,y,z'

loop_
_atom_site_label
_atom_site_type_symbol
_atom_site_fract_x
_atom_site_fract_y
_atom_site_fract_z
Ba11	Ba1	0.524820	0.711350	0.708860
Ba21	Ba2	0.024820	0.211350	0.791140
Ba31	Ba3	0.475180	0.288650	0.291140
Ba41	Ba4	0.975180	0.788650	0.208860
Cd11	Cd1	0.630150	0.599960	0.298950
Cd21	Cd2	0.869850	0.900040	0.798950
Cd31	Cd3	0.369850	0.400040	0.701050
Cd41	Cd4	0.130150	0.099960	0.201050
H11	H1	0.979200	0.680400	0.497000
H21	H2	0.382000	0.654900	0.084300
H31	H3	0.618000	0.345100	0.915700
H41	H4	0.339800	0.871000	0.047300
H51	H5	0.740900	0.880500	0.054600
H61	H6	0.398200	0.641700	0.947900
H71	H7	0.739600	0.683100	0.032200
H81	H8	0.688800	0.498900	0.837700
H91	H9	0.160200	0.629000	0.547300
H101	H10	0.112700	0.576600	0.302900
H111	H11	0.239600	0.183100	0.467800
H121	H12	0.101800	0.858300	0.447900
H131	H13	0.898200	0.141700	0.552100
H141	H14	0.759100	0.619500	0.554600
H151	H15	0.260400	0.316900	0.967800
H161	H16	0.887300	0.423400	0.697100
H171	H17	0.240900	0.380500	0.445400
H181	H18	0.118000	0.845100	0.584300
H191	H19	0.259100	0.119500	0.945400
H201	H20	0.520800	0.819600	0.997000
H211	H21	0.020800	0.319600	0.503000
H221	H22	0.660200	0.129000	0.952700
H231	H23	0.612700	0.076600	0.197100
H241	H24	0.311200	0.501100	0.162300
H251	H25	0.882000	0.154900	0.415700
H261	H26	0.839800	0.371000	0.452700
H271	H27	0.601800	0.358300	0.052100
H281	H28	0.188800	0.998900	0.662300
H291	H29	0.479200	0.180400	0.003000
H301	H30	0.387300	0.923400	0.802900
H311	H31	0.760400	0.816900	0.532200
H321	H32	0.811200	0.001100	0.337700
C11	C1	0.331400	0.477600	0.943500
C21	C2	0.668600	0.522400	0.056500
C31	C3	0.344600	0.528000	0.332000
C41	C4	0.461700	0.131500	0.960800
C51	C5	0.155400	0.972000	0.832000
C61	C6	0.223600	0.106900	0.572400
C71	C7	0.593300	0.022600	0.158300
C81	C8	0.685200	0.505200	0.892600
C91	C9	0.540300	0.019100	0.873800
C101	C10	0.714400	0.614500	0.008800
C111	C11	0.406700	0.977400	0.841700
C121	C12	0.959700	0.480900	0.373800
C131	C13	0.961700	0.631500	0.539200
C141	C14	0.569200	0.098500	0.932600
C151	C15	0.168600	0.022400	0.443500
C161	C16	0.185200	0.005200	0.607400
C171	C17	0.285600	0.385500	0.991200
C181	C18	0.152000	0.475400	0.654000
C191	C19	0.430800	0.901500	0.067400
C201	C20	0.132300	0.921100	0.478800
C211	C21	0.776400	0.893100	0.427600
C221	C22	0.314800	0.494800	0.107400
C231	C23	0.867700	0.078900	0.521200
C241	C24	0.699400	0.983900	0.132500
C251	C25	0.227200	0.292300	0.121900
C261	C26	0.785600	0.885500	0.508800
C271	C27	0.069200	0.598500	0.567400
C281	C28	0.538300	0.868500	0.039200
C291	C29	0.641600	0.413500	0.939300
C301	C30	0.367700	0.578900	0.978800
C311	C31	0.652000	0.975400	0.846000
C321	C32	0.727200	0.792300	0.378100
C331	C33	0.358400	0.586500	0.060700
C341	C34	0.723600	0.606900	0.927600
C351	C35	0.093300	0.522600	0.341700
C361	C36	0.814800	0.994800	0.392600
C371	C37	0.670700	0.906400	0.072300
C381	C38	0.141600	0.913500	0.560700
C391	C39	0.329300	0.093600	0.927700
C401	C40	0.199400	0.483900	0.367500
C411	C41	0.276400	0.393100	0.072400
C421	C42	0.930800	0.401500	0.432600
C431	C43	0.831400	0.977600	0.556500
C441	C44	0.459700	0.980900	0.126200
C451	C45	0.300600	0.016100	0.867500
C461	C46	0.829300	0.593600	0.572300
C471	C47	0.800600	0.516100	0.632500
C481	C48	0.858400	0.086500	0.439300
C491	C49	0.653600	0.533700	0.143700
C501	C50	0.040300	0.519100	0.626200
C511	C51	0.906700	0.477400	0.658300
C521	C52	0.153600	0.033700	0.356300
C531	C53	0.772800	0.707700	0.878100
C541	C54	0.272800	0.207700	0.621900
C551	C55	0.170700	0.406400	0.427700
C561	C56	0.632300	0.421100	0.021200
C571	C57	0.848000	0.524600	0.346000
C581	C58	0.846400	0.966300	0.643700
C591	C59	0.655400	0.472000	0.668000
C601	C60	0.844600	0.028000	0.168000
C611	C61	0.038300	0.368500	0.460800
C621	C62	0.346400	0.466300	0.856300
C631	C63	0.214400	0.114500	0.491200
C641	C64	0.348000	0.024600	0.154000
O11	O1	0.252300	0.296800	0.194100
O21	O2	0.097700	0.951400	0.315400
O31	O3	0.425300	0.473200	0.343300
O41	O4	0.301700	0.371000	0.828100
O51	O5	0.882800	0.114700	0.206200
O61	O6	0.885600	0.616100	0.312200
O71	O7	0.752300	0.796800	0.305900
O81	O8	0.614400	0.883900	0.812200
O91	O9	0.160900	0.203600	0.087400
O101	O10	0.925300	0.973200	0.156700
O111	O11	0.617200	0.385300	0.706200
O121	O12	0.114400	0.383900	0.687800
O131	O13	0.801700	0.871000	0.671900
O141	O14	0.247700	0.203200	0.694100
O151	O15	0.698300	0.629000	0.171900
O161	O16	0.660900	0.703600	0.412600
O171	O17	0.074700	0.026800	0.843300
O181	O18	0.720500	0.470700	0.357600
O191	O19	0.382800	0.614700	0.293800
O201	O20	0.597700	0.451400	0.184600
O211	O21	0.117200	0.885300	0.793800
O221	O22	0.339100	0.296400	0.587400
O231	O23	0.385600	0.116100	0.187800
O241	O24	0.839100	0.796400	0.912600
O251	O25	0.902300	0.048600	0.684600
O261	O26	0.279500	0.529300	0.642400
O271	O27	0.198300	0.129000	0.328100
O281	O28	0.220500	0.970700	0.142400
O291	O29	0.779500	0.029300	0.857600
O301	O30	0.747700	0.703200	0.805900
O311	O31	0.574700	0.526800	0.656700
O321	O32	0.402300	0.548600	0.815400
