data_LOSBOM_clean_PM
_symmetry_space_group_name_H-M	'P1'
_cell_length_a	11.064000
_cell_length_b	15.957000
_cell_length_c	23.362000
_cell_angle_alpha	90.000000
_cell_angle_beta	92.265000
_cell_angle_gamma	90.000000
_symmetry_Int_Tables_number 1

loop_
_symmetry_equiv_pos_as_xyz
'x,y,z'

loop_
_atom_site_label
_atom_site_type_symbol
_atom_site_fract_x
_atom_site_fract_y
_atom_site_fract_z
Mg11	Mg1	0.358700	0.846760	0.259290
Mg21	Mg2	0.641300	0.153240	0.740710
Mg31	Mg3	0.552750	0.510900	0.839460
Mg41	Mg4	0.552750	0.989100	0.339460
Mg51	Mg5	0.447250	0.489100	0.160540
Mg61	Mg6	0.447250	0.010900	0.660540
Mg71	Mg7	0.641300	0.346760	0.240710
Mg81	Mg8	0.358700	0.653240	0.759290
H11	H1	0.381400	0.575800	0.996600
H21	H2	0.218600	0.231300	0.610600
H31	H3	0.255600	0.616600	0.535200
H41	H4	0.795900	0.965500	0.829200
H51	H5	0.192800	0.768900	0.392500
H61	H6	0.255600	0.883400	0.035200
H71	H7	0.015900	0.260900	0.595600
H81	H8	0.744400	0.383400	0.464800
H91	H9	0.381400	0.924200	0.496600
H101	H10	0.164700	0.750700	0.562200
H111	H11	0.423600	0.204000	0.248900
H121	H12	0.807200	0.231100	0.607500
H131	H13	0.835300	0.249300	0.437800
H141	H14	0.164700	0.749300	0.062200
H151	H15	0.423600	0.296000	0.748900
H161	H16	0.744400	0.116600	0.964800
H171	H17	0.781400	0.731300	0.889400
H181	H18	0.807200	0.268900	0.107500
H191	H19	0.795900	0.534500	0.329200
H201	H20	0.618600	0.424200	0.003400
H211	H21	0.735100	0.994800	0.916800
H221	H22	0.984100	0.739100	0.404400
H231	H23	0.264900	0.005200	0.083200
H241	H24	0.835300	0.250700	0.937800
H251	H25	0.576400	0.796000	0.751100
H261	H26	0.984100	0.760900	0.904400
H271	H27	0.735100	0.505200	0.416800
H281	H28	0.781400	0.768700	0.389400
H291	H29	0.015900	0.239100	0.095600
H301	H30	0.618600	0.075800	0.503400
H311	H31	0.264900	0.494800	0.583200
H321	H32	0.192800	0.731100	0.892500
H331	H33	0.204100	0.465500	0.670800
H341	H34	0.204100	0.034500	0.170800
H351	H35	0.218600	0.268700	0.110600
H361	H36	0.576400	0.704000	0.251100
C11	C1	0.313500	0.627400	0.097800
C21	C2	0.808500	0.420900	0.468900
C31	C3	0.626600	0.959500	0.745900
C41	C4	0.785600	0.213200	0.570600
C51	C5	0.196900	0.506400	0.559800
C61	C6	0.235600	0.411500	0.672800
C71	C7	0.686500	0.127400	0.402200
C81	C8	0.079400	0.822600	0.965200
C91	C9	0.671700	0.749600	0.320600
C101	C10	0.911300	0.100600	0.005800
C111	C11	0.322500	0.391300	0.715600
C121	C12	0.101400	0.445900	0.555500
C131	C13	0.327000	0.880300	0.491400
C141	C14	0.349200	0.891600	0.385300
C151	C15	0.722100	0.342000	0.961700
C161	C16	0.764400	0.911500	0.827200
C171	C17	0.197600	0.776000	0.530400
C181	C18	0.898600	0.945900	0.944500
C191	C19	0.705300	0.147200	0.563400
C201	C20	0.195600	0.351600	0.633100
C211	C21	0.898600	0.554100	0.444500
C221	C22	0.897500	0.629000	0.412500
C231	C23	0.165500	0.746800	0.475600
C241	C24	0.804400	0.851600	0.866900
C251	C25	0.235600	0.088500	0.172800
C261	C26	0.294700	0.647200	0.936600
C271	C27	0.626600	0.540500	0.245900
C281	C28	0.756100	0.728400	0.362900
C291	C29	0.088700	0.899400	0.994200
C301	C30	0.705300	0.352800	0.063400
C311	C31	0.756100	0.771600	0.862900
C321	C32	0.803100	0.006400	0.940200
C331	C33	0.294700	0.852800	0.436600
C341	C34	0.003000	0.038800	0.015200
C351	C35	0.088700	0.600600	0.494200
C361	C36	0.013000	0.311000	0.575300
C371	C37	0.243900	0.271600	0.637100
C381	C38	0.328300	0.250400	0.679400
C391	C39	0.632200	0.810300	0.780300
C401	C40	0.722100	0.158000	0.461700
C411	C41	0.673000	0.119700	0.508600
C421	C42	0.764400	0.588500	0.327200
C431	C43	0.686500	0.372600	0.902200
C441	C44	0.621600	0.837100	0.320700
C451	C45	0.987000	0.689000	0.424700
C461	C46	0.677500	0.891300	0.784400
C471	C47	0.650800	0.391600	0.114700
C481	C48	0.373400	0.459500	0.754100
C491	C49	0.013000	0.189000	0.075300
C501	C50	0.804400	0.648400	0.366900
C511	C51	0.243900	0.228400	0.137100
C521	C52	0.327000	0.619700	0.991400
C531	C53	0.997000	0.538800	0.484800
C541	C54	0.003000	0.461200	0.515200
C551	C55	0.621600	0.662900	0.820700
C561	C56	0.349200	0.608400	0.885300
C571	C57	0.195600	0.148400	0.133100
C581	C58	0.196900	0.993600	0.059800
C591	C59	0.197600	0.724000	0.030400
C601	C60	0.650800	0.108400	0.614700
C611	C61	0.079400	0.677400	0.465200
C621	C62	0.808500	0.079100	0.968900
C631	C63	0.920600	0.322600	0.534800
C641	C64	0.785600	0.286800	0.070600
C651	C65	0.378400	0.337100	0.179300
C661	C66	0.834500	0.246800	0.024400
C671	C67	0.165500	0.753200	0.975600
C681	C68	0.277900	0.842000	0.538300
C691	C69	0.373400	0.040500	0.254100
C701	C70	0.367800	0.189700	0.219700
C711	C71	0.803100	0.493600	0.440200
C721	C72	0.677500	0.608700	0.284400
C731	C73	0.101400	0.054100	0.055500
C741	C74	0.214400	0.786800	0.429400
C751	C75	0.191500	0.579100	0.531100
C761	C76	0.802400	0.276000	0.969600
C771	C77	0.920600	0.177400	0.034800
C781	C78	0.987000	0.811000	0.924700
C791	C79	0.802400	0.224000	0.469600
C801	C80	0.897500	0.871000	0.912500
C811	C81	0.673000	0.380300	0.008600
C821	C82	0.671700	0.750400	0.820600
C831	C83	0.378400	0.162900	0.679300
C841	C84	0.834500	0.253200	0.524400
C851	C85	0.191500	0.920900	0.031100
C861	C86	0.328300	0.249600	0.179400
C871	C87	0.277900	0.658000	0.038300
C881	C88	0.367800	0.310300	0.719700
C891	C89	0.911300	0.399400	0.505800
C901	C90	0.214400	0.713200	0.929400
C911	C91	0.632200	0.689700	0.280300
C921	C92	0.102500	0.371000	0.587500
C931	C93	0.102500	0.129000	0.087500
C941	C94	0.313500	0.872600	0.597800
C951	C95	0.322500	0.108700	0.215600
C961	C96	0.997000	0.961200	0.984800
O11	O1	0.461000	0.357100	0.214900
O21	O2	0.273500	0.833200	0.639300
O31	O3	0.726500	0.166800	0.360700
O41	O4	0.539000	0.642900	0.785100
O51	O5	0.430700	0.944800	0.392960
O61	O6	0.665500	0.611800	0.856800
O71	O7	0.569300	0.055200	0.607040
O81	O8	0.691000	0.134100	0.662200
O91	O9	0.569300	0.444800	0.107040
O101	O10	0.726500	0.333200	0.860700
O111	O11	0.561400	0.939100	0.704900
O121	O12	0.652200	0.033900	0.761100
O131	O13	0.691000	0.365900	0.162200
O141	O14	0.438600	0.439100	0.795100
O151	O15	0.379000	0.934500	0.601380
O161	O16	0.461000	0.142900	0.714900
O171	O17	0.309000	0.634100	0.837800
O181	O18	0.621000	0.434500	0.898620
O191	O19	0.621000	0.065500	0.398620
O201	O20	0.652200	0.466100	0.261100
O211	O21	0.539000	0.857100	0.285100
O221	O22	0.438600	0.060900	0.295100
O231	O23	0.347800	0.533900	0.738900
O241	O24	0.561400	0.560900	0.204900
O251	O25	0.347800	0.966100	0.238900
O261	O26	0.379000	0.565500	0.101380
O271	O27	0.309000	0.865900	0.337800
O281	O28	0.334500	0.388200	0.143200
O291	O29	0.273500	0.666800	0.139300
O301	O30	0.665500	0.888200	0.356800
O311	O31	0.334500	0.111800	0.643200
O321	O32	0.430700	0.555200	0.892960
