data_LOVNIV_charged_PM
_symmetry_space_group_name_H-M	'P1'
_cell_length_a	16.601700
_cell_length_b	17.409500
_cell_length_c	25.513300
_cell_angle_alpha	90.000000
_cell_angle_beta	90.000000
_cell_angle_gamma	90.000000
_symmetry_Int_Tables_number 1

loop_
_symmetry_equiv_pos_as_xyz
'x,y,z'

loop_
_atom_site_label
_atom_site_type_symbol
_atom_site_fract_x
_atom_site_fract_y
_atom_site_fract_z
U11	U1	0.994350	0.752180	0.247760
U21	U2	0.222320	0.286350	0.175690
U31	U3	0.005650	0.252180	0.252240
U41	U4	0.928430	0.228040	0.745410
U51	U5	0.215360	0.214140	0.309400
U61	U6	0.715360	0.285860	0.690600
U71	U7	0.784640	0.714140	0.190600
U81	U8	0.428430	0.271960	0.254590
U91	U9	0.505650	0.247820	0.747760
U101	U10	0.277680	0.713650	0.675690
U111	U11	0.494350	0.747820	0.752240
U121	U12	0.571570	0.771960	0.245410
U131	U13	0.284640	0.785860	0.809400
U141	U14	0.777680	0.786350	0.324310
U151	U15	0.071570	0.728040	0.754590
U161	U16	0.722320	0.213650	0.824310
Cu11	Cu1	0.751780	0.640760	0.427250
Cu21	Cu2	0.251780	0.859240	0.572750
Cu31	Cu3	0.284990	0.639750	0.914820
Cu41	Cu4	0.784990	0.860250	0.085180
Cu51	Cu5	0.715010	0.139750	0.585180
Cu61	Cu6	0.748220	0.359240	0.927250
Cu71	Cu7	0.248220	0.140760	0.072750
Cu81	Cu8	0.215010	0.360250	0.414820
H11	H1	0.892500	0.377400	0.854500
H21	H2	0.267900	0.493300	0.953100
H31	H3	0.107500	0.877400	0.645500
H41	H4	0.531800	0.141400	0.141300
H51	H5	0.408200	0.911100	0.621200
H61	H6	0.943600	0.661000	0.591700
H71	H7	0.462300	0.697300	0.072600
H81	H8	0.237500	0.078600	0.704100
H91	H9	0.894700	0.170900	0.419700
H101	H10	0.047400	0.401100	0.368500
H111	H11	0.186600	0.676100	0.005600
H121	H12	0.732100	0.993300	0.546900
H131	H13	0.696600	0.834900	0.652100
H141	H14	0.273600	0.790600	0.046400
H151	H15	0.734900	0.792100	0.562500
H161	H16	0.234900	0.707900	0.437500
H171	H17	0.100800	0.615200	0.578200
H181	H18	0.762500	0.578600	0.795900
H191	H19	0.555800	0.350000	0.571800
H201	H20	0.317500	0.421700	0.783300
H211	H21	0.682500	0.921700	0.716700
H221	H22	0.468200	0.641400	0.358700
H231	H23	0.537700	0.197300	0.427400
H241	H24	0.874900	0.082200	0.627900
H251	H25	0.240100	0.589400	0.504700
H261	H26	0.952600	0.901100	0.131500
H271	H27	0.544000	0.401700	0.482300
H281	H28	0.037700	0.302700	0.572600
H291	H29	0.767900	0.006700	0.046900
H301	H30	0.767600	0.672500	0.859800
H311	H31	0.259900	0.410600	0.004700
H321	H32	0.232400	0.172500	0.640200
H331	H33	0.547400	0.098900	0.631500
H341	H34	0.231100	0.009400	0.530700
H351	H35	0.090400	0.332000	0.937800
H361	H36	0.112600	0.334400	0.505200
H371	H37	0.039100	0.562000	0.403700
H381	H38	0.394700	0.329100	0.580300
H391	H39	0.443600	0.839000	0.408300
H401	H40	0.817800	0.949400	0.187200
H411	H41	0.928000	0.797800	0.467000
H421	H42	0.444200	0.850000	0.928200
H431	H43	0.740100	0.910600	0.495300
H441	H44	0.765100	0.207900	0.062500
H451	H45	0.072000	0.297800	0.033000
H461	H46	0.241000	0.946600	0.679700
H471	H47	0.141600	0.156400	0.980800
H481	H48	0.374900	0.417800	0.372100
H491	H49	0.358400	0.843600	0.480800
H501	H50	0.456000	0.901700	0.017700
H511	H51	0.731100	0.490600	0.469300
H521	H52	0.962300	0.802700	0.927400
H531	H53	0.317800	0.550600	0.812800
H541	H54	0.182200	0.449400	0.312800
H551	H55	0.267600	0.827500	0.140200
H561	H56	0.914600	0.402900	0.394100
H571	H57	0.497800	0.924800	0.103800
H581	H58	0.968200	0.858600	0.641300
H591	H59	0.460900	0.438000	0.903700
H601	H60	0.944200	0.650000	0.071800
H611	H61	0.813400	0.176100	0.494400
H621	H62	0.585400	0.597100	0.894100
H631	H63	0.196600	0.665100	0.347900
H641	H64	0.268900	0.990600	0.030700
H651	H65	0.056400	0.161000	0.908300
H661	H66	0.432900	0.179000	0.919200
H671	H67	0.741000	0.553400	0.320300
H681	H68	0.873300	0.335600	0.005700
H691	H69	0.858400	0.656400	0.519200
H701	H70	0.682200	0.050600	0.687200
H711	H71	0.105300	0.670900	0.080300
H721	H72	0.909600	0.832000	0.562200
H731	H73	0.887400	0.834400	0.994800
H741	H74	0.570600	0.921900	0.505100
H751	H75	0.389300	0.127300	0.518500
H761	H76	0.932900	0.321000	0.080800
H771	H77	0.125100	0.582200	0.872100
H781	H78	0.031800	0.358600	0.858700
H791	H79	0.899200	0.115200	0.921800
H801	H80	0.282700	0.909700	0.976600
H811	H81	0.889300	0.372700	0.481500
H821	H82	0.773600	0.709400	0.953600
H831	H83	0.399200	0.384800	0.078200
H841	H84	0.737500	0.421400	0.295900
H851	H85	0.409600	0.668000	0.437800
H861	H86	0.055800	0.150000	0.428200
H871	H87	0.392500	0.122600	0.145500
H881	H88	0.217300	0.090300	0.476600
H891	H89	0.997800	0.575200	0.896200
H901	H90	0.686600	0.823900	0.994400
H911	H91	0.732400	0.327500	0.359800
H921	H92	0.817500	0.078300	0.216700
H931	H93	0.110700	0.872700	0.018500
H941	H94	0.085400	0.902900	0.105900
H951	H95	0.726400	0.290600	0.453600
H961	H96	0.182500	0.578300	0.283300
H971	H97	0.313400	0.323900	0.505600
H981	H98	0.717300	0.409700	0.523400
H991	H99	0.556400	0.339000	0.091700
H1001	H100	0.428000	0.702200	0.533000
H1011	H101	0.607500	0.622600	0.354500
H1021	H102	0.373300	0.164400	0.994300
H1031	H103	0.956000	0.598300	0.982300
H1041	H104	0.600800	0.884800	0.421800
H1051	H105	0.502200	0.424800	0.396200
H1061	H106	0.626700	0.664400	0.505700
H1071	H107	0.126700	0.835600	0.494300
H1081	H108	0.232100	0.506700	0.453100
H1091	H109	0.782700	0.590300	0.023400
H1101	H110	0.803400	0.165100	0.152100
H1111	H111	0.612600	0.165600	0.494800
H1121	H112	0.091800	0.088900	0.121200
H1131	H113	0.572000	0.202200	0.967000
H1141	H114	0.226400	0.209400	0.546400
H1151	H115	0.452600	0.598900	0.868500
H1161	H116	0.067100	0.821000	0.419200
H1171	H117	0.259000	0.053400	0.179700
H1181	H118	0.960900	0.062000	0.096300
H1191	H119	0.414600	0.097100	0.605900
H1201	H120	0.591800	0.411100	0.878800
H1211	H121	0.429400	0.421900	0.994900
H1221	H122	0.262500	0.921400	0.204100
H1231	H123	0.929400	0.078100	0.005100
H1241	H124	0.605300	0.829100	0.919700
H1251	H125	0.625700	0.660800	0.072900
H1261	H126	0.374300	0.160800	0.427100
H1271	H127	0.303400	0.334900	0.847900
H1281	H128	0.641600	0.343600	0.019200
H1291	H129	0.625100	0.917800	0.127900
H1301	H130	0.044000	0.098300	0.517700
H1311	H131	0.125700	0.839200	0.927100
H1321	H132	0.002200	0.075200	0.603800
H1331	H133	0.265100	0.292100	0.937500
H1341	H134	0.070600	0.578100	0.494900
H1351	H135	0.908200	0.588900	0.378800
H1361	H136	0.567100	0.679000	0.580800
H1371	H137	0.759000	0.446600	0.820300
H1381	H138	0.590400	0.168000	0.062200
H1391	H139	0.768900	0.509400	0.969300
H1401	H140	0.610700	0.627300	0.981500
H1411	H141	0.387400	0.665600	0.005200
H1421	H142	0.539100	0.938000	0.596300
H1431	H143	0.759900	0.089400	0.995300
H1441	H144	0.874300	0.339200	0.572900
C11	C1	0.194700	0.487700	0.336800
C21	C2	0.852400	0.151700	0.514600
C31	C3	0.240400	0.641500	0.496700
C41	C4	0.233200	0.120800	0.631000
C51	C5	0.000400	0.354000	0.888700
C61	C6	0.534800	0.162800	0.064700
C71	C7	0.578000	0.680100	0.086700
C81	C8	0.110900	0.598000	0.905700
C91	C9	0.012200	0.810600	0.420700
C101	C10	0.491600	0.177900	0.443200
C111	C11	0.766800	0.620800	0.869000
C121	C12	0.275100	0.842000	0.036600
C131	C13	0.014100	0.141700	0.928200
C141	C14	0.104500	0.134200	0.003500
C151	C15	0.035500	0.592000	0.920700
C161	C16	0.723300	0.978800	0.581600
C171	C17	0.068900	0.641000	0.005200
C181	C18	0.508500	0.892100	0.028600
C191	C19	0.749200	0.806800	0.457900
C201	C20	0.077900	0.789700	0.863300
C211	C21	0.406000	0.161600	0.023800
C221	C22	0.610900	0.902000	0.094300
C231	C23	0.211100	0.195300	0.444500
C241	C24	0.594000	0.661600	0.476200
C251	C25	0.058400	0.661000	0.061600
C261	C26	0.691400	0.935300	0.681900
C271	C27	0.955700	0.389700	0.417200
C281	C28	0.422000	0.180100	0.413300
C291	C29	0.982300	0.810900	0.466300
C301	C30	0.443000	0.363600	0.095600
C311	C31	0.455700	0.110300	0.582800
C321	C32	0.604500	0.365800	0.996500
C331	C33	0.766800	0.156800	0.051800
C341	C34	0.989000	0.694700	0.136600
C351	C35	0.019500	0.591300	0.482900
C361	C36	0.035300	0.386700	0.402700
C371	C37	0.423500	0.904200	0.586400
C381	C38	0.076500	0.095800	0.086400
C391	C39	0.788900	0.695300	0.055500
C401	C40	0.202400	0.613300	0.356000
C411	C41	0.515300	0.672500	0.481800
C421	C42	0.906000	0.338400	0.976200
C431	C43	0.008200	0.166300	0.412500
C441	C44	0.499000	0.420600	0.927600
C451	C45	0.733200	0.843200	0.551800
C461	C46	0.191400	0.564700	0.318100
C471	C47	0.501600	0.148500	0.497200
C481	C48	0.577900	0.710300	0.136700
C491	C49	0.762800	0.564900	0.831100
C501	C50	0.249200	0.693200	0.542100
C511	C51	0.558000	0.628600	0.969100
C521	C52	0.733200	0.379200	0.369000
C531	C53	0.464500	0.408000	0.420700
C541	C54	0.415900	0.136300	0.113800
C551	C55	0.147600	0.651700	0.985400
C561	C56	0.266800	0.343200	0.948200
C571	C57	0.724900	0.342000	0.463400
C581	C58	0.740900	0.515300	0.345800
C591	C59	0.980500	0.091300	0.017100
C601	C60	0.467100	0.880000	0.482900
C611	C61	0.895500	0.634200	0.496500
C621	C62	0.011000	0.194700	0.363400
C631	C63	0.389100	0.402000	0.405700
C641	C64	0.647600	0.848300	0.014600
C651	C65	0.025500	0.296700	0.129200
C661	C66	0.065000	0.662500	0.646200
C671	C67	0.224900	0.158000	0.536600
C681	C68	0.259100	0.015300	0.154200
C691	C69	0.514100	0.358300	0.071800
C701	C70	0.001000	0.579400	0.427600
C711	C71	0.442000	0.128600	0.530900
C721	C72	0.721900	0.904600	0.592400
C731	C73	0.282200	0.858000	0.985800
C741	C74	0.512200	0.689400	0.579300
C751	C75	0.998400	0.851500	0.997200
C761	C76	0.428000	0.650700	0.982300
C771	C77	0.259600	0.358500	0.996700
C781	C78	0.544300	0.610300	0.917200
C791	C79	0.057000	0.636400	0.595600
C801	C80	0.221900	0.595400	0.407600
C811	C81	0.941600	0.161000	0.438400
C821	C82	0.991800	0.666300	0.087500
C831	C83	0.535500	0.908000	0.079300
C841	C84	0.233200	0.656800	0.448200
C851	C85	0.288900	0.804700	0.944500
C861	C86	0.250800	0.306800	0.042100
C871	C87	0.943000	0.136400	0.904400
C881	C88	0.034800	0.337200	0.935300
C891	C89	0.240900	0.984700	0.654200
C901	C90	0.965200	0.837200	0.564700
C911	C91	0.084100	0.863700	0.613800
C921	C92	0.464700	0.613300	0.902700
C931	C93	0.987800	0.310600	0.079300
C941	C94	0.435000	0.337500	0.146200
C951	C95	0.441600	0.339000	0.561600
C961	C96	0.431100	0.359000	0.505200
C971	C97	0.797600	0.113300	0.144000
C981	C98	0.964700	0.886700	0.097300
C991	C99	0.808600	0.064700	0.181900
C1001	C100	0.967100	0.620000	0.517100
C1011	C101	0.489000	0.805300	0.863400
C1021	C102	0.501000	0.920600	0.572400
C1031	C103	0.730500	0.401200	0.421000
C1041	C104	0.474500	0.703300	0.629200
C1051	C105	0.422100	0.210300	0.363300
C1061	C106	0.915900	0.363700	0.886200
C1071	C107	0.217800	0.142000	0.485800
C1081	C108	0.072000	0.349300	0.482300
C1091	C109	0.237200	0.064900	0.668900
C1101	C110	0.931100	0.141000	0.494800
C1111	C111	0.776700	0.021200	0.081600
C1121	C112	0.015300	0.827500	0.518200
C1131	C113	0.737200	0.435100	0.331100
C1141	C114	0.265400	0.976800	0.065800
C1151	C115	0.769500	0.598800	0.921000
C1161	C116	0.223300	0.521200	0.418400
C1171	C117	0.519500	0.908700	0.517100
C1181	C118	0.480500	0.408700	0.982900
C1191	C119	0.517700	0.189100	0.966300
C1201	C120	0.276700	0.478800	0.918400
C1211	C121	0.465200	0.662800	0.435300
C1221	C122	0.805300	0.987700	0.163200
C1231	C123	0.717800	0.358000	0.514200
C1241	C124	0.984700	0.327500	0.981800
C1251	C125	0.508400	0.677900	0.056800
C1261	C126	0.734600	0.476800	0.434200
C1271	C127	0.525500	0.203300	0.870800
C1281	C128	0.576500	0.404200	0.913600
C1291	C129	0.775100	0.658000	0.963400
C1301	C130	0.508200	0.333700	0.587500
C1311	C131	0.008400	0.822100	0.943200
C1321	C132	0.935000	0.162500	0.853800
C1331	C133	0.964500	0.092000	0.579300
C1341	C134	0.923500	0.595800	0.413600
C1351	C135	0.740400	0.858500	0.503300
C1361	C136	0.928000	0.849300	0.017700
C1371	C137	0.759100	0.484700	0.845800
C1381	C138	0.058000	0.871400	0.030900
C1391	C139	0.487800	0.189400	0.920700
C1401	C140	0.985900	0.641700	0.571800
C1411	C141	0.498400	0.648500	0.002800
C1421	C142	0.308600	0.435300	0.818100
C1431	C143	0.278100	0.404600	0.907600
C1441	C144	0.765400	0.523200	0.934200
C1451	C145	0.889100	0.098000	0.594300
C1461	C146	0.032900	0.120000	0.982900
C1471	C147	0.491800	0.833700	0.912500
C1481	C148	0.999600	0.854000	0.611300
C1491	C149	0.565000	0.837500	0.353800
C1501	C150	0.395500	0.865800	0.503500
C1511	C151	0.942000	0.371400	0.469100
C1521	C152	0.759600	0.141500	0.003300
C1531	C153	0.008500	0.607900	0.971400
C1541	C154	0.535300	0.113300	0.597300
C1551	C155	0.297600	0.386700	0.856000
C1561	C156	0.352400	0.348300	0.485400
C1571	C157	0.266800	0.879200	0.131000
C1581	C158	0.922000	0.319900	0.586700
C1591	C159	0.568900	0.859000	0.994800
C1601	C160	0.269500	0.901200	0.079000
C1611	C161	0.044300	0.889700	0.082800
C1621	C162	0.511000	0.305300	0.636600
C1631	C163	0.234600	0.023200	0.565800
C1641	C164	0.694700	0.012300	0.663200
C1651	C165	0.991600	0.322100	0.556800
C1661	C166	0.484700	0.172500	0.018200
C1671	C167	0.558400	0.839000	0.938400
C1681	C168	0.711100	0.304700	0.555500
C1691	C169	0.017700	0.310900	0.033700
C1701	C170	0.974500	0.796700	0.370800
C1711	C171	0.991500	0.107900	0.528600
C1721	C172	0.262800	0.935100	0.168900
C1731	C173	0.094000	0.838400	0.523800
C1741	C174	0.999000	0.079400	0.072400
C1751	C175	0.532900	0.380000	0.017100
C1761	C176	0.782200	0.642000	0.014200
C1771	C177	0.485900	0.858300	0.428200
C1781	C178	0.491500	0.392100	0.471400
C1791	C179	0.482300	0.689100	0.533700
C1801	C180	0.305300	0.512300	0.836800
C1811	C181	0.572000	0.150700	0.517700
C1821	C182	0.230500	0.098800	0.579000
C1831	C183	0.557000	0.863600	0.404400
C1841	C184	0.078000	0.819900	0.913300
C1851	C185	0.500400	0.146000	0.111300
C1861	C186	0.922100	0.289700	0.636700
C1871	C187	0.778100	0.095400	0.092400
C1881	C188	0.001600	0.351500	0.502800
C1891	C189	0.499600	0.646000	0.388700
C1901	C190	0.584100	0.636300	0.386200
C1911	C191	0.750800	0.193200	0.957900
C1921	C192	0.702400	0.886700	0.644000
N11	N1	0.369700	0.145800	0.072600
N21	N2	0.287000	0.534400	0.883000
N31	N3	0.130300	0.854200	0.572600
N41	N4	0.244100	0.966100	0.603400
N51	N5	0.213000	0.465600	0.383000
N61	N6	0.869700	0.354200	0.927400
N71	N7	0.755900	0.466100	0.896600
N81	N8	0.834200	0.125600	0.564000
N91	N9	0.402500	0.635200	0.933200
N101	N10	0.902500	0.864800	0.066800
N111	N11	0.713000	0.034400	0.617000
N121	N12	0.630300	0.645800	0.427400
N131	N13	0.631300	0.378700	0.948000
N141	N14	0.097500	0.364800	0.433200
N151	N15	0.787000	0.965600	0.117000
N161	N16	0.255900	0.033900	0.103400
N171	N17	0.165800	0.625600	0.936000
N181	N18	0.597500	0.135200	0.566800
N191	N19	0.368700	0.878700	0.552000
N201	N20	0.131300	0.121300	0.052000
N211	N21	0.665800	0.874400	0.064000
N221	N22	0.744100	0.533900	0.396600
N231	N23	0.334200	0.374400	0.436000
N241	N24	0.868700	0.621300	0.448000
O11	O1	0.237200	0.194100	0.152700
O21	O2	0.084200	0.635600	0.778900
O31	O3	0.996700	0.167000	0.822900
O41	O4	0.145100	0.790100	0.836900
O51	O5	0.003300	0.667000	0.677100
O61	O6	0.013500	0.773000	0.840800
O71	O7	0.280900	0.736600	0.955300
O81	O8	0.141800	0.771000	0.256800
O91	O9	0.795300	0.810100	0.162400
O101	O10	0.896300	0.783300	0.372000
O111	O11	0.645100	0.709900	0.163100
O121	O12	0.787300	0.670000	0.102500
O131	O13	0.219100	0.263400	0.455300
O141	O14	0.940300	0.320300	0.769400
O151	O15	0.712700	0.330000	0.602500
O161	O16	0.706300	0.116800	0.806800
O171	O17	0.276700	0.884900	0.787600
O181	O18	0.297600	0.260000	0.248400
O191	O19	0.915800	0.135600	0.721100
O201	O20	0.204700	0.310100	0.337600
O211	O21	0.780900	0.763400	0.044700
O221	O22	0.737200	0.305900	0.847300
O231	O23	0.922800	0.697400	0.168500
O241	O24	0.641800	0.729000	0.743200
O251	O25	0.584200	0.864400	0.221100
O261	O26	0.861000	0.743600	0.262300
O271	O27	0.496700	0.333000	0.177100
O281	O28	0.250200	0.326200	0.087100
O291	O29	0.249800	0.673800	0.587100
O301	O30	0.719100	0.236600	0.544700
O311	O31	0.443700	0.283700	0.663100
O321	O32	0.854900	0.290100	0.663100
O331	O33	0.486500	0.227000	0.340800
O341	O34	0.762800	0.694100	0.347300
O351	O35	0.744900	0.268800	0.972600
O361	O36	0.475700	0.208700	0.828300
O371	O37	0.415800	0.364400	0.278900
O381	O38	0.858200	0.271000	0.243200
O391	O39	0.631500	0.813900	0.333600
O401	O40	0.580500	0.277400	0.260300
O411	O41	0.868500	0.186100	0.833600
O421	O42	0.396300	0.716700	0.628000
O431	O43	0.077200	0.197400	0.331500
O441	O44	0.440300	0.179700	0.230600
O451	O45	0.206300	0.383200	0.193200
O461	O46	0.212700	0.170000	0.397500
O471	O47	0.793700	0.883200	0.306800
O481	O48	0.508500	0.156400	0.722400
O491	O49	0.559700	0.679700	0.269400
O501	O50	0.513500	0.727000	0.159200
O511	O51	0.008500	0.343600	0.277600
O521	O52	0.723300	0.384900	0.712400
O531	O53	0.419500	0.777400	0.239700
O541	O54	0.131500	0.686100	0.666400
O551	O55	0.361000	0.756400	0.737700
O561	O56	0.262800	0.805900	0.652700
O571	O57	0.223300	0.115100	0.287600
O581	O58	0.487100	0.345400	0.771600
O591	O59	0.422800	0.802600	0.831500
O601	O60	0.139000	0.243600	0.237700
O611	O61	0.556300	0.783700	0.836900
O621	O62	0.750200	0.173800	0.912900
O631	O63	0.358200	0.229000	0.756800
O641	O64	0.103700	0.283300	0.128000
O651	O65	0.056300	0.716300	0.163100
O661	O66	0.244900	0.231200	0.027400
O671	O67	0.354900	0.209900	0.336900
O681	O68	0.368500	0.313900	0.166400
O691	O69	0.797600	0.240000	0.751600
O701	O70	0.577200	0.302600	0.668500
O711	O71	0.986500	0.273000	0.659200
O721	O72	0.255100	0.768800	0.527400
O731	O73	0.776700	0.615100	0.212400
O741	O74	0.024300	0.791300	0.328300
O751	O75	0.524300	0.708700	0.671700
O761	O76	0.287300	0.830000	0.897500
O771	O77	0.293700	0.616800	0.693200
O781	O78	0.755100	0.731200	0.472600
O791	O79	0.503300	0.833000	0.322900
O801	O80	0.512900	0.845400	0.728400
O811	O81	0.975700	0.291300	0.171700
O821	O82	0.919500	0.722600	0.760300
O831	O83	0.987100	0.154600	0.228400
O841	O84	0.295300	0.689900	0.837600
O851	O85	0.991500	0.843600	0.222400
O861	O86	0.012900	0.654600	0.271600
O871	O87	0.639000	0.256400	0.762300
O881	O88	0.080500	0.222600	0.739700
O891	O89	0.059700	0.820300	0.730600
O901	O90	0.491500	0.656400	0.777600
O911	O91	0.202400	0.740000	0.748400
O921	O92	0.702400	0.760000	0.251600
O931	O93	0.749800	0.826200	0.412900
O941	O94	0.943700	0.216300	0.336900
O951	O95	0.704700	0.189900	0.662400
O961	O96	0.603700	0.216700	0.872000
N251	N25	0.730600	0.317400	0.155800
O971	O97	0.678100	0.302600	0.122200
O981	O98	0.804700	0.319200	0.150600
O991	O99	0.703600	0.328900	0.200200
N261	N26	0.189100	0.420200	0.576700
O1001	O100	0.130200	0.453700	0.596600
O1011	O101	0.200000	0.448700	0.532900
O1021	O102	0.219400	0.355700	0.584800
N271	N27	0.230600	0.182600	0.844200
O1031	O103	0.178100	0.197400	0.877800
O1041	O104	0.203600	0.171100	0.799800
O1051	O105	0.304700	0.180800	0.849400
N281	N28	0.769400	0.682600	0.655800
O1061	O106	0.695300	0.680800	0.650600
O1071	O107	0.796400	0.671100	0.700200
O1081	O108	0.821900	0.697400	0.622200
N291	N29	0.810900	0.920200	0.923300
O1091	O109	0.869800	0.953700	0.903400
O1101	O110	0.780600	0.855700	0.915200
O1111	O111	0.800000	0.948700	0.967100
N301	N30	0.269400	0.817400	0.344200
O1121	O112	0.321900	0.802600	0.377800
O1131	O113	0.195300	0.819200	0.349400
O1141	O114	0.296400	0.828900	0.299800
N311	N31	0.689100	0.079800	0.423300
O1151	O115	0.719400	0.144300	0.415200
O1161	O116	0.630200	0.046300	0.403400
O1171	O117	0.700000	0.051300	0.467100
N321	N32	0.310900	0.579800	0.076700
O1181	O118	0.300000	0.551300	0.032900
O1191	O119	0.280600	0.644300	0.084800
O1201	O120	0.369800	0.546300	0.096600
