data_LOZSAW01_clean_PM
_symmetry_space_group_name_H-M	'P1'
_cell_length_a	8.738000
_cell_length_b	8.738000
_cell_length_c	18.709000
_cell_angle_alpha	90.000000
_cell_angle_beta	90.000000
_cell_angle_gamma	120.000000
_symmetry_Int_Tables_number 1

loop_
_symmetry_equiv_pos_as_xyz
'x,y,z'

loop_
_atom_site_label
_atom_site_type_symbol
_atom_site_fract_x
_atom_site_fract_y
_atom_site_fract_z
Co11	Co1	0.000000	0.000000	0.500000
Co21	Co2	0.666670	0.333330	0.833330
Co31	Co3	0.333330	0.666670	0.166670
C11	C1	0.896150	0.792300	0.442700
N11	N1	0.832550	0.665100	0.410000
C21	C2	0.562820	0.125630	0.776030
N21	N2	0.499220	0.998430	0.743330
C31	C3	0.229480	0.458970	0.109370
N31	N3	0.165880	0.331770	0.076670
C41	C4	0.207700	0.103850	0.442700
N41	N4	0.334900	0.167450	0.410000
C51	C5	0.874370	0.437180	0.776030
N51	N5	0.001570	0.500780	0.743330
C61	C6	0.541030	0.770520	0.109370
N61	N6	0.668230	0.834120	0.076670
C71	C7	0.896150	0.103850	0.442700
N71	N7	0.832550	0.167450	0.410000
C81	C8	0.562820	0.437180	0.776030
N81	N8	0.499220	0.500780	0.743330
C91	C9	0.229480	0.770520	0.109370
N91	N9	0.165880	0.834120	0.076670
C101	C10	0.792300	0.896150	0.557300
N101	N10	0.665100	0.832550	0.590000
C111	C11	0.458970	0.229480	0.890630
N111	N11	0.331770	0.165880	0.923330
C121	C12	0.125630	0.562820	0.223970
N121	N12	0.998430	0.499220	0.256670
C131	C13	0.103850	0.207700	0.557300
N131	N13	0.167450	0.334900	0.590000
C141	C14	0.770520	0.541030	0.890630
N141	N14	0.834120	0.668230	0.923330
C151	C15	0.437180	0.874370	0.223970
N151	N15	0.500780	0.001570	0.256670
C161	C16	0.103850	0.896150	0.557300
N161	N16	0.167450	0.832550	0.590000
C171	C17	0.770520	0.229480	0.890630
N171	N17	0.834120	0.165880	0.923330
C181	C18	0.437180	0.562820	0.223970
N181	N18	0.500780	0.499220	0.256670
K11	K1	0.666670	0.333330	0.333330
K21	K2	0.333330	0.666670	0.666670
K31	K3	0.000000	0.000000	0.000000
